data_PCOD9559654
_publ_section_title
;
Structure prediction by ZEFSAII (Michael W. Deem and Ramdas Pophale) SiO2 
 PCOD9559654
Probable space group: I -4 C 2
;
_chemical_formula_sum "Si O2"
_cell_formula_units_Z 116
_cell_length_a 19.009415
_cell_length_b 19.009415
_cell_length_c 16.649089
_cell_angle_alpha 90.000000
_cell_angle_beta 90.000000
_cell_angle_gamma 90.000000
_cell_volume 6016.279149
_symmetry_space_group_name_H-M "I -4 C 2"
_symmetry_group_IT_number 120
_symmetry_cell_setting 'tetragonal'
loop_
_space_group_symop_operation_xyz
x,y,z
y,-x,-z
-x,-y,z
-y,x,-z
y,x,1/2-z
-y,-x,1/2-z
-x,y,1/2+z
x,-y,1/2+z
1/2+x,1/2+y,1/2+z
1/2+y,1/2-x,1/2-z
1/2-x,1/2-y,1/2+z
1/2-y,1/2+x,1/2-z
1/2+y,1/2+x,-z
1/2-y,1/2-x,-z
1/2-x,1/2+y,z
1/2+x,1/2-y,z
loop_
_atom_site_type_symbol
_atom_site_label
_atom_site_fract_x
_atom_site_fract_y
_atom_site_fract_z
Si Si1 0.232370 0.067704 0.763789
Si Si2 0.197398 0.772580 0.843188
Si Si3 0.500000 0.000000 0.250000
Si Si4 0.383638 0.065164 0.842726
Si Si5 0.328657 0.675715 0.868984
Si Si6 0.951682 0.710084 0.347426
Si Si7 0.132692 0.250930 0.025913
Si Si8 0.018934 0.360354 0.004859
O O1 0.307536 0.067220 0.805186
O O2 0.220314 0.127047 0.696014
O O3 0.179053 0.096132 0.833842
O O4 0.239216 0.996377 0.711095
O O5 0.210724 0.789277 0.750000
O O6 0.250626 0.709716 0.868780
O O7 0.118991 0.751713 0.868821
O O8 0.217809 0.840999 0.892615
O O9 0.566882 0.004845 0.307151
O O10 0.419540 0.137432 0.814276
O O11 0.377633 0.046297 0.936764
O O12 0.364641 0.693244 0.954349
O O13 0.996583 0.675243 0.420242
O O14 0.063185 0.295732 0.041786
O O15 0.190363 0.309638 0.000000
O O16 0.071513 0.428488 0.000000
#
# Coordination Sequence:
#
# PCOD9559654 Si02
#       8
#    16  16   4  16  16  16  16  16
#     4  11  22  37  63  88 121 159 216 261 317 371
#     4  11  22  37  61  87 120 156 209 272 322 356
#     4  12  24  36  50  80 124 180 222 236 288 376
#     4  12  24  35  57  81 127 173 209 245 301 373
#     4  10  19  40  63  84 112 162 211 273 316 360
#     4  12  24  39  57  93 128 160 213 267 308 388
#     4   9  21  37  60  82 114 159 214 265 311 360
#     4  11  25  40  57  83 130 178 218 249 304 380
#
# _framework density 19.281020000000002
#
# number of rings (size 3 to 8) (size 9 to 14) (size 15 to 20)
#    0.000    1.103    5.517    1.241    3.862    1.655 
#    0.000    0.000    0.000    0.000    0.000    1.931 
#    0.000    0.000    0.000    0.000    0.000    0.000 
#
# Total GULP energy -322870.408647 kJ/mol
# GULP energy per Si atom -5566.731184 kJ/mol
# Density = 1.923714 g / cm^3
# Si number density = 19.281020 Si / 1000 Ang^3
#
#
#
# Elastic Constant Matrix: (Units=GPa)
#
#
# Indices 1 2 3 4 5 6 
#
# 1 53.7973 1.4119 -6.9579 0.0000 0.0000 0.0000
# 2 1.4119 53.7976 -6.9582 0.0000 0.0000 0.0000
# 3 -6.9579 -6.9582 45.4183 0.0000 0.0000 0.0000
# 4 0.0000 0.0000 0.0000 21.0740 0.0000 0.0000
# 5 0.0000 0.0000 0.0000 0.0000 21.0732 0.0000
# 6 0.0000 0.0000 0.0000 0.0000 0.0000 25.2748
#
#
#
# Elastic Compliance Matrix: (Units=1/GPa)
#
#
# Indices 1 2 3 4 5 6 
#
# 1 0.018965 -0.000124 0.002886 0.000000 0.000000 0.000000
# 2 -0.000124 0.018965 0.002886 0.000000 0.000000 0.000000
# 3 0.002886 0.002886 0.022902 0.000000 0.000000 0.000000
# 4 0.000000 0.000000 0.000000 0.047452 0.000000 0.000000
# 5 0.000000 0.000000 0.000000 0.000000 0.047454 0.000000
# 6 0.000000 0.000000 0.000000 0.000000 0.000000 0.039565
#
#
# Mechanical properties :
#
#
# Convention : Reuss Voigt Hill
#
# Bulk Modulus (GPa) = 13.86423 14.22276 14.04349
# Shear Modulus (GPa) = 24.03288 24.51889 24.27589
#
# Velocity S-wave (km/s) = 3.53434 3.56990 3.55217
# Velocity P-wave (km/s) = 4.88484 4.93810 4.91154
#
# Compressibility (1/GPa) = 0.07212807
#
# Stress axis : x y z
#
# Youngs Moduli (GPa) = 52.72907 52.72935 43.66445
#
# Poissons Ratio (x) = 0.00656 -0.12603
# Poissons Ratio (y) = 0.00656 -0.12603
# Poissons Ratio (z) = -0.15219 -0.15220
#
# Static dielectric constant tensor:
#      x y z
#    x 1.881440 0.000000 0.000000 
#    y 0.000000 1.881330 0.000000 
#    z 0.000000 0.000000 1.708800 
# 
# From -- ./inp_files/4589.got.cif
#   From: 2010.05.17/outbox.cif.g08.bks.cpg/sg120_3_cif.got.tgz:4589.got - 2010.05.20 11:28:13.
