data_PCOD9559286
_publ_section_title
;
Structure prediction by ZEFSAII (Michael W. Deem and Ramdas Pophale) SiO2 
 PCOD9559286
Probable space group: I -4 M 2
;
_chemical_formula_sum "Si O2"
_cell_formula_units_Z 112
_cell_length_a 31.030567
_cell_length_b 31.030567
_cell_length_c 5.471675
_cell_angle_alpha 90.000000
_cell_angle_beta 90.000000
_cell_angle_gamma 90.000000
_cell_volume 5268.654454
_symmetry_space_group_name_H-M "I -4 M 2"
_symmetry_group_IT_number 119
_symmetry_cell_setting 'tetragonal'
loop_
_space_group_symop_operation_xyz
x,y,z
y,-x,-z
-x,-y,z
-y,x,-z
y,x,-z
-y,-x,-z
-x,y,z
x,-y,z
1/2+x,1/2+y,1/2+z
1/2+y,1/2-x,1/2-z
1/2-x,1/2-y,1/2+z
1/2-y,1/2+x,1/2-z
1/2+y,1/2+x,1/2-z
1/2-y,1/2-x,1/2-z
1/2-x,1/2+y,1/2+z
1/2+x,1/2-y,1/2+z
loop_
_atom_site_type_symbol
_atom_site_label
_atom_site_fract_x
_atom_site_fract_y
_atom_site_fract_z
Si Si1 0.172495 0.387215 0.131856
Si Si2 0.398812 0.253427 0.162869
Si Si3 0.325486 0.449311 0.065180
Si Si4 0.885875 0.450864 0.854645
Si Si5 0.765139 0.196101 0.246691
Si Si6 0.621189 0.550539 0.563514
Si Si7 0.453126 0.199963 0.482061
O O1 0.156111 0.343890 0.250000
O O2 0.196942 0.415489 0.327423
O O3 0.206331 0.382091 0.919251
O O4 0.132275 0.416429 0.047761
O O5 0.416963 0.285531 0.960574
O O6 0.355250 0.271284 0.276566
O O7 0.441043 0.240658 0.317304
O O8 0.313258 0.500000 0.045393
O O9 0.356064 0.440021 0.826566
O O10 0.347303 0.443841 0.329725
O O11 0.892472 0.500000 0.942382
O O12 0.929081 0.429081 0.750000
O O13 0.845591 0.452967 0.664614
O O14 0.787773 0.212228 0.500000
O O15 0.716833 0.216833 0.250000
O O16 0.784808 0.215193 0.000000
O O17 0.581088 0.581088 0.500000
O O18 0.608845 0.500000 0.571281
O O19 0.500000 0.204634 0.597626
#
# Coordination Sequence:
#
# PCOD9559286 Si02
#       7
#    16  16  16  16  16  16  16
#     4  11  23  38  64  92 122 160 213 276 336 396
#     4  11  26  39  67  94 122 169 219 267 322 405
#     4  10  23  42  63  96 138 176 217 272 331 390
#     4  10  20  37  56  83 119 160 206 260 328 401
#     4  10  25  45  65  91 130 169 215 276 336 391
#     4  10  22  42  69 100 138 180 222 272 325 384
#     4  10  22  39  62  92 124 158 203 267 332 390
#
# _framework density 21.257798999999999
#
# number of rings (size 3 to 8) (size 9 to 14) (size 15 to 20)
#    0.000    1.714    1.429    1.286    6.000    4.286 
#    0.000    0.000    0.000    2.571    0.000    0.000 
#    0.000    0.000    0.000    0.000    0.000    0.000 
#
# Total GULP energy -312375.407986 kJ/mol
# GULP energy per Si atom -5578.132285 kJ/mol
# Density = 2.120942 g / cm^3
# Si number density = 21.257799 Si / 1000 Ang^3
#
#
#
# Elastic Constant Matrix: (Units=GPa)
#
#
# Indices 1 2 3 4 5 6 
#
# 1 -259.9070 359.3132 5.4600 0.0000 0.0000 0.0000
# 2 359.3132 -259.7684 5.4541 0.0000 0.0000 0.0000
# 3 5.4600 5.4541 68.6950 0.0000 0.0000 0.0000
# 4 0.0000 0.0000 0.0000 14.9954 0.0000 0.0000
# 5 0.0000 0.0000 0.0000 0.0000 14.9942 0.0000
# 6 0.0000 0.0000 0.0000 0.0000 0.0000 31.5825
#
#
#
# Elastic Compliance Matrix: (Units=1/GPa)
#
#
# Indices 1 2 3 4 5 6 
#
# 1 0.004262 0.005878 -0.000805 0.000000 0.000000 0.000000
# 2 0.005878 0.004264 -0.000806 0.000000 0.000000 0.000000
# 3 -0.000805 -0.000806 0.014685 0.000000 0.000000 0.000000
# 4 0.000000 0.000000 0.000000 0.066687 0.000000 0.000000
# 5 0.000000 0.000000 0.000000 0.000000 0.066692 0.000000
# 6 0.000000 0.000000 0.000000 0.000000 0.000000 0.031663
#
#
# Mechanical properties :
#
#
# Convention : Reuss Voigt Hill
#
# Bulk Modulus (GPa) = 31.50112 32.16382 31.83247
# Shear Modulus (GPa) = 26.27410 -42.43276 -8.07933
#
# Velocity S-wave (km/s) = 3.51946 -4.47262 -1.95164
# Velocity P-wave (km/s) = 5.60056 3.39253 3.15095
#
# Compressibility (1/GPa) = 0.03174490
#
# Stress axis : x y z
#
# Youngs Moduli (GPa) = 234.63945 234.51369 68.09627
#
# Poissons Ratio (x) = -1.37850 0.05485
# Poissons Ratio (y) = -1.37924 0.05487
# Poissons Ratio (z) = 0.18899 0.18896
#
# Static dielectric constant tensor:
#      x y z
#    x 1.772290 0.000000 0.000000 
#    y 0.000000 1.772280 0.000000 
#    z 0.000000 0.000000 2.018140 
# 
# From -- ./inp_files/1225.got.cif
#   From: 2010.05.17/outbox.cif.g08.bks.cpg/sg119_1_cif.got.tgz:1225.got - 2010.05.20 11:21:29.
