data_PCOD9559824
_publ_section_title
;
Structure prediction by ZEFSAII (Michael W. Deem and Ramdas Pophale) SiO2 
 PCOD9559824
Probable space group: I -4 C 2
;
_chemical_formula_sum "Si O2"
_cell_formula_units_Z 56
_cell_length_a 18.134683
_cell_length_b 18.134683
_cell_length_c 8.610154
_cell_angle_alpha 90.000000
_cell_angle_beta 90.000000
_cell_angle_gamma 90.000000
_cell_volume 2831.593169
_symmetry_space_group_name_H-M "I -4 C 2"
_symmetry_group_IT_number 120
_symmetry_cell_setting 'tetragonal'
loop_
_space_group_symop_operation_xyz
x,y,z
y,-x,-z
-x,-y,z
-y,x,-z
y,x,1/2-z
-y,-x,1/2-z
-x,y,1/2+z
x,-y,1/2+z
1/2+x,1/2+y,1/2+z
1/2+y,1/2-x,1/2-z
1/2-x,1/2-y,1/2+z
1/2-y,1/2+x,1/2-z
1/2+y,1/2+x,-z
1/2-y,1/2-x,-z
1/2-x,1/2+y,z
1/2+x,1/2-y,z
loop_
_atom_site_type_symbol
_atom_site_label
_atom_site_fract_x
_atom_site_fract_y
_atom_site_fract_z
Si Si1 0.062568 0.349719 0.607612
Si Si2 0.500000 0.000000 0.750000
Si Si3 0.056343 0.847969 0.656244
Si Si4 0.500000 0.500000 0.750000
Si Si5 0.460675 0.752745 0.882294
O O1 0.131463 0.368537 0.500000
O O2 0.024784 0.426905 0.657304
O O3 0.083117 0.304970 0.763325
O O4 0.006161 0.305093 0.498666
O O5 0.128004 0.871997 0.750000
O O6 0.073677 0.809631 0.493356
O O7 0.013769 0.791863 0.767039
O O8 0.007177 0.923763 0.651295
#
# Coordination Sequence:
#
# PCOD9559824 Si02
#       5
#    16   4  16   4  16
#     4  11  22  37  60  92 128 163 220 283 340 389
#     4  12  22  36  70  92 114 164 234 276 322 380
#     4   9  21  36  61  93 132 164 217 275 333 391
#     4   8  20  34  72  94 120 162 240 270 324 386
#     4  10  22  37  55  98 134 162 207 294 340 394
#
# _framework density 19.776852999999999
#
# number of rings (size 3 to 8) (size 9 to 14) (size 15 to 20)
#    0.857    1.143    2.857    0.429    4.000    1.143 
#    0.000    0.000    0.000    3.429    0.000    0.000 
#    0.000    0.000    0.000    0.000    0.000    0.000 
#
# Total GULP energy -155892.298894 kJ/mol
# GULP energy per Si atom -5567.582103 kJ/mol
# Density = 1.973184 g / cm^3
# Si number density = 19.776853 Si / 1000 Ang^3
#
#
#
# Elastic Constant Matrix: (Units=GPa)
#
#
# Indices 1 2 3 4 5 6 
#
# 1 84.0281 21.6129 55.8829 0.0000 0.0000 0.0000
# 2 21.6129 84.0301 55.8828 0.0000 0.0000 0.0000
# 3 55.8829 55.8828 164.8542 0.0000 0.0000 0.0000
# 4 0.0000 0.0000 0.0000 61.7264 0.0000 0.0000
# 5 0.0000 0.0000 0.0000 0.0000 61.7317 0.0000
# 6 0.0000 0.0000 0.0000 0.0000 0.0000 8.5785
#
#
#
# Elastic Compliance Matrix: (Units=1/GPa)
#
#
# Indices 1 2 3 4 5 6 
#
# 1 0.015390 -0.000631 -0.005003 0.000000 0.000000 0.000000
# 2 -0.000631 0.015390 -0.005003 0.000000 0.000000 0.000000
# 3 -0.005003 -0.005003 0.009458 0.000000 0.000000 0.000000
# 4 0.000000 0.000000 0.000000 0.016201 0.000000 0.000000
# 5 0.000000 0.000000 0.000000 0.000000 0.016199 0.000000
# 6 0.000000 0.000000 0.000000 0.000000 0.000000 0.116571
#
#
# Mechanical properties :
#
#
# Convention : Reuss Voigt Hill
#
# Bulk Modulus (GPa) = 52.73248 66.62993 59.68121
# Shear Modulus (GPa) = 23.06220 39.70957 31.38589
#
# Velocity S-wave (km/s) = 3.41856 4.48580 3.98804
# Velocity P-wave (km/s) = 6.50413 7.78421 7.17278
#
# Compressibility (1/GPa) = 0.01896364
#
# Stress axis : x y z
#
# Youngs Moduli (GPa) = 64.97524 64.97732 105.73206
#
# Poissons Ratio (x) = 0.04102 0.52899
# Poissons Ratio (y) = 0.04102 0.52897
# Poissons Ratio (z) = 0.32508 0.32508
#
# Static dielectric constant tensor:
#      x y z
#    x 1.728920 0.000000 0.000000 
#    y 0.000000 1.728910 0.000000 
#    z 0.000000 0.000000 1.748210 
# 
# From -- ./inp_files/1219.got.cif
#   From: 2010.05.17/outbox.cif.g08.bks.cpg/sg120_1_cif.got.tgz:1219.got - 2010.05.20 11:28:13.
