data_PCOD9559413
_publ_section_title
;
Structure prediction by ZEFSAII (Michael W. Deem and Ramdas Pophale) SiO2 
 PCOD9559413
Probable space group: I -4 M 2
;
_chemical_formula_sum "Si O2"
_cell_formula_units_Z 68
_cell_length_a 16.246247
_cell_length_b 16.246247
_cell_length_c 12.793605
_cell_angle_alpha 90.000000
_cell_angle_beta 90.000000
_cell_angle_gamma 90.000000
_cell_volume 3376.751033
_symmetry_space_group_name_H-M "I -4 M 2"
_symmetry_group_IT_number 119
_symmetry_cell_setting 'tetragonal'
loop_
_space_group_symop_operation_xyz
x,y,z
y,-x,-z
-x,-y,z
-y,x,-z
y,x,-z
-y,-x,-z
-x,y,z
x,-y,z
1/2+x,1/2+y,1/2+z
1/2+y,1/2-x,1/2-z
1/2-x,1/2-y,1/2+z
1/2-y,1/2+x,1/2-z
1/2+y,1/2+x,1/2-z
1/2-y,1/2-x,1/2-z
1/2-x,1/2+y,1/2+z
1/2+x,1/2-y,1/2+z
loop_
_atom_site_type_symbol
_atom_site_label
_atom_site_fract_x
_atom_site_fract_y
_atom_site_fract_z
Si Si1 0.000000 0.387450 0.187094
Si Si2 0.000000 0.500000 0.985916
Si Si3 0.000000 0.262458 0.860135
Si Si4 0.776954 0.170220 0.390292
Si Si5 0.725177 0.500000 0.409627
Si Si6 0.328847 0.000000 0.356415
Si Si7 0.670539 0.332497 0.665277
O O1 0.922382 0.422382 0.250000
O O2 0.000000 0.291251 0.182558
O O3 0.000000 0.426814 0.071921
O O4 0.083545 0.500000 0.916276
O O5 0.922748 0.205533 0.842175
O O6 0.000000 0.333248 0.771544
O O7 0.000000 0.276430 0.983009
O O8 0.823333 0.176668 0.500000
O O9 0.721791 0.085516 0.382904
O O10 0.722061 0.253325 0.377896
O O11 0.836658 0.178870 0.290245
O O12 0.678479 0.585847 0.396174
#
# Coordination Sequence:
#
# PCOD9559413 Si02
#       7
#     8   4   8  16   8   8  16
#     4   9  24  42  57  90 134 159 207 266 315 403
#     4  10  23  40  63  96 128 174 208 268 338 396
#     4  10  22  44  58  89 133 161 226 270 319 390
#     4  10  22  41  64  92 129 170 219 269 326 393
#     4  12  23  39  71  89 124 177 209 271 331 380
#     4  10  24  41  65  97 133 174 223 274 332 408
#     4  10  24  39  62  95 124 170 219 268 322 392
#
# _framework density 20.137699999999999
#
# number of rings (size 3 to 8) (size 9 to 14) (size 15 to 20)
#    0.000    2.000    0.000    2.118    9.882    3.294 
#    0.000    2.941    0.000    1.765    0.000    0.000 
#    0.000    0.000    0.000    0.000    0.000    0.000 
#
# Total GULP energy -189425.653297 kJ/mol
# GULP energy per Si atom -5571.342744 kJ/mol
# Density = 2.009187 g / cm^3
# Si number density = 20.137700 Si / 1000 Ang^3
#
#
#
# Elastic Constant Matrix: (Units=GPa)
#
#
# Indices 1 2 3 4 5 6 
#
# 1 85.6428 12.3517 45.5597 0.0000 0.0000 0.0000
# 2 12.3517 85.6426 45.5603 0.0000 0.0000 0.0000
# 3 45.5597 45.5603 162.8807 0.0000 0.0000 0.0000
# 4 0.0000 0.0000 0.0000 -7.1727 0.0000 0.0000
# 5 0.0000 0.0000 0.0000 0.0000 -7.1729 0.0000
# 6 0.0000 0.0000 0.0000 0.0000 0.0000 38.3519
#
#
#
# Elastic Compliance Matrix: (Units=1/GPa)
#
#
# Indices 1 2 3 4 5 6 
#
# 1 0.013718 0.000074 -0.003858 0.000000 0.000000 0.000000
# 2 0.000074 0.013718 -0.003858 0.000000 0.000000 0.000000
# 3 -0.003858 -0.003858 0.008298 0.000000 0.000000 0.000000
# 4 0.000000 0.000000 0.000000 -0.139417 0.000000 0.000000
# 5 0.000000 0.000000 0.000000 0.000000 -0.139414 0.000000
# 6 0.000000 0.000000 0.000000 0.000000 0.000000 0.026074
#
#
# Mechanical properties :
#
#
# Convention : Reuss Voigt Hill
#
# Bulk Modulus (GPa) = 48.89939 60.12328 54.51134
# Shear Modulus (GPa) = -25.65124 20.18087 -2.73518
#
# Velocity S-wave (km/s) = -3.57289 3.16910 -1.16670
# Velocity P-wave (km/s) = 2.70453 6.58117 5.03122
#
# Compressibility (1/GPa) = 0.02045015
#
# Stress axis : x y z
#
# Youngs Moduli (GPa) = 72.89711 72.89658 120.51684
#
# Poissons Ratio (x) = -0.00538 0.46492
# Poissons Ratio (y) = -0.00538 0.46493
# Poissons Ratio (z) = 0.28122 0.28122
#
# Static dielectric constant tensor:
#      x y z
#    x 1.730110 0.000000 0.000000 
#    y 0.000000 1.730100 0.000000 
#    z 0.000000 0.000000 1.782700 
# 
# From -- ./inp_files/3956.got.cif
#   From: 2010.05.17/outbox.cif.g08.bks.cpg/sg119_2_cif.got.tgz:3956.got - 2010.05.20 11:21:29.
