data_PCOD9559893
_publ_section_title
;
Structure prediction by ZEFSAII (Michael W. Deem and Ramdas Pophale) SiO2 
 PCOD9559893
Probable space group: I -4 C 2
;
_chemical_formula_sum "Si O2"
_cell_formula_units_Z 60
_cell_length_a 16.019743
_cell_length_b 16.019743
_cell_length_c 9.487912
_cell_angle_alpha 90.000000
_cell_angle_beta 90.000000
_cell_angle_gamma 90.000000
_cell_volume 2434.903405
_symmetry_space_group_name_H-M "I -4 C 2"
_symmetry_group_IT_number 120
_symmetry_cell_setting 'tetragonal'
loop_
_space_group_symop_operation_xyz
x,y,z
y,-x,-z
-x,-y,z
-y,x,-z
y,x,1/2-z
-y,-x,1/2-z
-x,y,1/2+z
x,-y,1/2+z
1/2+x,1/2+y,1/2+z
1/2+y,1/2-x,1/2-z
1/2-x,1/2-y,1/2+z
1/2-y,1/2+x,1/2-z
1/2+y,1/2+x,-z
1/2-y,1/2-x,-z
1/2-x,1/2+y,z
1/2+x,1/2-y,z
loop_
_atom_site_type_symbol
_atom_site_label
_atom_site_fract_x
_atom_site_fract_y
_atom_site_fract_z
Si Si1 0.292103 0.085592 0.060406
Si Si2 0.000000 0.000000 0.500000
Si Si3 0.758849 0.758849 0.250000
Si Si4 0.003316 0.827999 0.148976
Si Si5 0.741513 0.583716 0.091933
O O1 0.253532 0.155368 0.163147
O O2 0.224322 0.073940 0.935314
O O3 0.309993 0.990704 0.112710
O O4 0.374985 0.125016 0.000000
O O5 0.920036 0.993354 0.402737
O O6 0.755693 0.675418 0.149887
O O7 0.923542 0.782699 0.072759
O O8 0.034255 0.825891 0.309370
#
# Coordination Sequence:
#
# PCOD9559893 Si02
#       5
#    16   4   8  16  16
#     4  10  24  41  68  97 141 182 240 286 353 434
#     4  12  24  38  64  94 160 182 224 294 380 442
#     4  12  20  42  68 100 138 192 224 296 356 428
#     4  10  24  40  61 102 139 183 228 290 356 444
#     4  10  23  41  66 100 137 179 240 284 357 431
#
# _framework density 24.641632999999999
#
# number of rings (size 3 to 8) (size 9 to 14) (size 15 to 20)
#    1.600    0.000    2.667    1.600    3.733    2.133 
#    0.000    0.000    0.000    0.800    6.933    0.000 
#    0.000    0.000    0.000    0.000    0.000    0.000 
#
# Total GULP energy -167234.912876 kJ/mol
# GULP energy per Si atom -5574.497096 kJ/mol
# Density = 2.458555 g / cm^3
# Si number density = 24.641633 Si / 1000 Ang^3
#
#
#
# Elastic Constant Matrix: (Units=GPa)
#
#
# Indices 1 2 3 4 5 6 
#
# 1 95.5296 43.3001 27.1609 0.0000 0.0000 0.0000
# 2 43.3001 95.5304 27.1613 0.0000 0.0000 0.0000
# 3 27.1609 27.1613 103.7350 0.0000 0.0000 0.0000
# 4 0.0000 0.0000 0.0000 36.8922 0.0000 0.0000
# 5 0.0000 0.0000 0.0000 0.0000 36.8911 0.0000
# 6 0.0000 0.0000 0.0000 0.0000 0.0000 31.3559
#
#
#
# Elastic Compliance Matrix: (Units=1/GPa)
#
#
# Indices 1 2 3 4 5 6 
#
# 1 0.013586 -0.005560 -0.002101 0.000000 0.000000 0.000000
# 2 -0.005560 0.013586 -0.002101 0.000000 0.000000 0.000000
# 3 -0.002101 -0.002101 0.010740 0.000000 0.000000 0.000000
# 4 0.000000 0.000000 0.000000 0.027106 0.000000 0.000000
# 5 0.000000 0.000000 0.000000 0.000000 0.027107 0.000000
# 6 0.000000 0.000000 0.000000 0.000000 0.000000 0.031892
#
#
# Mechanical properties :
#
#
# Convention : Reuss Voigt Hill
#
# Bulk Modulus (GPa) = 54.38999 54.44885 54.41942
# Shear Modulus (GPa) = 33.40665 34.17272 33.78969
#
# Velocity S-wave (km/s) = 3.68598 3.72800 3.70705
# Velocity P-wave (km/s) = 6.34315 6.37769 6.36044
#
# Compressibility (1/GPa) = 0.01838574
#
# Stress axis : x y z
#
# Youngs Moduli (GPa) = 73.60664 73.60719 93.10731
#
# Poissons Ratio (x) = 0.40929 0.19564
# Poissons Ratio (y) = 0.40929 0.19564
# Poissons Ratio (z) = 0.15466 0.15467
#
# Static dielectric constant tensor:
#      x y z
#    x 2.033940 0.000000 0.000000 
#    y 0.000000 2.033930 0.000000 
#    z 0.000000 0.000000 2.085070 
# 
# From -- ./inp_files/1098.got.cif
#   From: 2010.05.17/outbox.cif.g08.bks.cpg/sg120_1_cif.got.tgz:1098.got - 2010.05.20 11:28:13.
