data_PCOD9559292
_publ_section_title
;
Structure prediction by ZEFSAII (Michael W. Deem and Ramdas Pophale) SiO2 
 PCOD9559292
Probable space group: I -4 M 2
;
_chemical_formula_sum "Si O2"
_cell_formula_units_Z 112
_cell_length_a 14.564123
_cell_length_b 14.564123
_cell_length_c 27.163363
_cell_angle_alpha 90.000000
_cell_angle_beta 90.000000
_cell_angle_gamma 90.000000
_cell_volume 5761.720853
_symmetry_space_group_name_H-M "I -4 M 2"
_symmetry_group_IT_number 119
_symmetry_cell_setting 'tetragonal'
loop_
_space_group_symop_operation_xyz
x,y,z
y,-x,-z
-x,-y,z
-y,x,-z
y,x,-z
-y,-x,-z
-x,y,z
x,-y,z
1/2+x,1/2+y,1/2+z
1/2+y,1/2-x,1/2-z
1/2-x,1/2-y,1/2+z
1/2-y,1/2+x,1/2-z
1/2+y,1/2+x,1/2-z
1/2-y,1/2-x,1/2-z
1/2-x,1/2+y,1/2+z
1/2+x,1/2-y,1/2+z
loop_
_atom_site_type_symbol
_atom_site_label
_atom_site_fract_x
_atom_site_fract_y
_atom_site_fract_z
Si Si1 0.806062 0.102333 0.384866
Si Si2 0.777103 0.894684 0.875443
Si Si3 0.396718 0.211410 0.909644
Si Si4 0.896015 0.797215 0.954510
Si Si5 0.759284 0.893064 0.758925
Si Si6 0.398556 0.829637 0.023712
Si Si7 0.257941 0.107818 0.279452
O O1 0.873370 0.188537 0.388093
O O2 0.750171 0.103013 0.435653
O O3 0.736860 0.115169 0.338772
O O4 0.847696 0.000000 0.378664
O O5 0.675727 0.861197 0.889500
O O6 0.844837 0.827873 0.904890
O O7 0.783453 0.889125 0.816831
O O8 0.792785 0.000000 0.891147
O O9 0.500000 0.185434 0.897120
O O10 0.387136 0.211027 0.968921
O O11 0.891444 0.688345 0.963493
O O12 0.000000 0.829413 0.953498
O O13 0.842833 0.842833 0.000000
O O14 0.667007 0.832994 0.750000
O O15 0.841425 0.838157 0.732532
O O16 0.750112 0.000000 0.744587
O O17 0.500000 0.873613 0.025614
O O18 0.335535 0.164466 0.250000
O O19 0.258444 0.000000 0.266443
#
# Coordination Sequence:
#
# PCOD9559292 Si02
#       7
#    16  16  16  16  16  16  16
#     4  10  20  37  59  86 122 157 195 245 300 362
#     4  11  24  42  60  87 124 159 201 253 305 357
#     4  11  21  36  61  89 121 160 199 238 295 365
#     4  12  24  40  64  90 123 165 208 252 300 359
#     4  10  23  42  64  90 122 157 202 257 313 372
#     4  10  21  38  62  90 123 160 196 242 299 359
#     4  10  22  39  61  87 118 157 202 253 308 363
#
# _framework density 19.438637
#
# number of rings (size 3 to 8) (size 9 to 14) (size 15 to 20)
#    0.000    1.429    2.857    2.571    0.000    5.286 
#    0.000    5.714    0.000    5.143    0.000    0.000 
#    0.000    0.000    0.000    0.000    0.000    0.000 
#
# Total GULP energy -312668.746490 kJ/mol
# GULP energy per Si atom -5583.370473 kJ/mol
# Density = 1.939439 g / cm^3
# Si number density = 19.438637 Si / 1000 Ang^3
#
#
#
# Elastic Constant Matrix: (Units=GPa)
#
#
# Indices 1 2 3 4 5 6 
#
# 1 90.0290 36.8283 9.2328 0.0000 0.0000 0.0000
# 2 36.8283 90.0296 9.2352 0.0000 0.0000 0.0000
# 3 9.2328 9.2352 59.8221 0.0000 0.0000 0.0000
# 4 0.0000 0.0000 0.0000 8.5908 0.0000 0.0000
# 5 0.0000 0.0000 0.0000 0.0000 8.5894 0.0000
# 6 0.0000 0.0000 0.0000 0.0000 0.0000 -7.7654
#
#
#
# Elastic Compliance Matrix: (Units=1/GPa)
#
#
# Indices 1 2 3 4 5 6 
#
# 1 0.013430 -0.005366 -0.001244 0.000000 0.000000 0.000000
# 2 -0.005366 0.013430 -0.001245 0.000000 0.000000 0.000000
# 3 -0.001244 -0.001245 0.017101 0.000000 0.000000 0.000000
# 4 0.000000 0.000000 0.000000 0.116403 0.000000 0.000000
# 5 0.000000 0.000000 0.000000 0.000000 0.116422 0.000000
# 6 0.000000 0.000000 0.000000 0.000000 0.000000 -0.128776
#
#
# Mechanical properties :
#
#
# Convention : Reuss Voigt Hill
#
# Bulk Modulus (GPa) = 35.39870 38.94149 37.17009
# Shear Modulus (GPa) = 28.87859 14.18859 21.53359
#
# Velocity S-wave (km/s) = 3.85857 2.70463 3.33193
# Velocity P-wave (km/s) = 6.17263 5.46167 5.82800
#
# Compressibility (1/GPa) = 0.02824963
#
# Stress axis : x y z
#
# Youngs Moduli (GPa) = 74.45825 74.45817 58.47778
#
# Poissons Ratio (x) = 0.39956 0.07277
# Poissons Ratio (y) = 0.39956 0.07281
# Poissons Ratio (z) = 0.09265 0.09271
#
# Static dielectric constant tensor:
#      x y z
#    x 1.673150 0.000000 0.000000 
#    y 0.000000 1.673150 0.000000 
#    z 0.000000 0.000000 1.686110 
# 
# From -- ./inp_files/8799.got.cif
#   From: 2010.05.17/outbox.cif.g08.bks.cpg/sg119_5_cif.got.tgz:8799.got - 2010.05.20 11:21:29.
