data_PCOD9559601
_publ_section_title
;
Structure prediction by ZEFSAII (Michael W. Deem and Ramdas Pophale) SiO2 
 PCOD9559601
Probable space group: I -4 C 2
;
_chemical_formula_sum "Si O2"
_cell_formula_units_Z 104
_cell_length_a 19.255362
_cell_length_b 19.255362
_cell_length_c 14.206551
_cell_angle_alpha 90.000000
_cell_angle_beta 90.000000
_cell_angle_gamma 90.000000
_cell_volume 5267.348221
_symmetry_space_group_name_H-M "I -4 C 2"
_symmetry_group_IT_number 120
_symmetry_cell_setting 'tetragonal'
loop_
_space_group_symop_operation_xyz
x,y,z
y,-x,-z
-x,-y,z
-y,x,-z
y,x,1/2-z
-y,-x,1/2-z
-x,y,1/2+z
x,-y,1/2+z
1/2+x,1/2+y,1/2+z
1/2+y,1/2-x,1/2-z
1/2-x,1/2-y,1/2+z
1/2-y,1/2+x,1/2-z
1/2+y,1/2+x,-z
1/2-y,1/2-x,-z
1/2-x,1/2+y,z
1/2+x,1/2-y,z
loop_
_atom_site_type_symbol
_atom_site_label
_atom_site_fract_x
_atom_site_fract_y
_atom_site_fract_z
Si Si1 0.404766 0.687060 0.701565
Si Si2 0.317599 0.378971 0.506799
Si Si3 0.502685 0.286216 0.353458
Si Si4 0.852287 0.412277 0.807416
Si Si5 0.319996 0.056881 0.299957
Si Si6 0.653250 0.846751 0.000000
Si Si7 0.108924 0.730454 0.505311
O O1 0.332097 0.667904 0.750000
O O2 0.406399 0.659500 0.596016
O O3 0.461178 0.665397 0.779386
O O4 0.412912 0.769148 0.692102
O O5 0.324282 0.441220 0.581231
O O6 0.235306 0.361286 0.504015
O O7 0.354946 0.305312 0.523055
O O8 0.544687 0.234408 0.284312
O O9 0.445066 0.244793 0.417926
O O10 0.875596 0.363478 0.723865
O O11 0.872047 0.491867 0.796477
O O12 0.876463 0.381661 0.906386
O O13 0.287029 0.063202 0.402588
O O14 0.169057 0.669057 0.500000
#
# Coordination Sequence:
#
# PCOD9559601 Si02
#       7
#    16  16  16  16  16   8  16
#     4  10  20  38  64  92 123 173 203 261 330 386
#     4  11  22  38  67  99 129 167 215 277 332 387
#     4  11  22  42  61  96 139 169 218 270 333 399
#     4  10  22  38  61  87 131 174 217 263 325 391
#     4  11  24  39  62  94 132 178 219 270 328 394
#     4  10  18  38  60  89 130 158 213 262 334 372
#     4  12  24  41  68 104 131 168 228 282 331 395
#
# _framework density 19.74428
#
# number of rings (size 3 to 8) (size 9 to 14) (size 15 to 20)
#    0.000    1.231    3.846    4.615    0.000    0.923 
#    0.000    0.000    0.000    0.462    4.000    0.000 
#    0.000    0.000    0.000    0.000    0.000    0.000 
#
# Total GULP energy -289707.625886 kJ/mol
# GULP energy per Si atom -5571.300498 kJ/mol
# Density = 1.969934 g / cm^3
# Si number density = 19.744280 Si / 1000 Ang^3
#
#
#
# Elastic Constant Matrix: (Units=GPa)
#
#
# Indices 1 2 3 4 5 6 
#
# 1 46.5482 9.3297 20.2443 0.0000 0.0000 0.0000
# 2 9.3297 46.5437 20.2432 0.0000 0.0000 0.0000
# 3 20.2443 20.2432 128.8000 0.0000 0.0000 0.0000
# 4 0.0000 0.0000 0.0000 28.9678 0.0000 0.0000
# 5 0.0000 0.0000 0.0000 0.0000 28.9688 0.0000
# 6 0.0000 0.0000 0.0000 0.0000 0.0000 7.7807
#
#
#
# Elastic Compliance Matrix: (Units=1/GPa)
#
#
# Indices 1 2 3 4 5 6 
#
# 1 0.023532 -0.003336 -0.003174 0.000000 0.000000 0.000000
# 2 -0.003336 0.023535 -0.003174 0.000000 0.000000 0.000000
# 3 -0.003174 -0.003174 0.008762 0.000000 0.000000 0.000000
# 4 0.000000 0.000000 0.000000 0.034521 0.000000 0.000000
# 5 0.000000 0.000000 0.000000 0.000000 0.034520 0.000000
# 6 0.000000 0.000000 0.000000 0.000000 0.000000 0.128522
#
#
# Mechanical properties :
#
#
# Convention : Reuss Voigt Hill
#
# Bulk Modulus (GPa) = 27.42860 35.72516 31.57688
# Shear Modulus (GPa) = 17.54905 24.61511 21.08208
#
# Velocity S-wave (km/s) = 2.98454 3.53469 3.27120
# Velocity P-wave (km/s) = 5.07924 5.89847 5.50412
#
# Compressibility (1/GPa) = 0.03645830
#
# Stress axis : x y z
#
# Youngs Moduli (GPa) = 42.49457 42.49053 114.13139
#
# Poissons Ratio (x) = 0.14177 0.36229
# Poissons Ratio (y) = 0.14178 0.36231
# Poissons Ratio (z) = 0.13489 0.13489
#
# Static dielectric constant tensor:
#      x y z
#    x 1.723530 0.000000 0.000000 
#    y 0.000000 1.723530 0.000000 
#    z 0.000000 0.000000 1.736680 
# 
# From -- ./inp_files/3670.got.cif
#   From: 2010.05.17/outbox.cif.g08.bks.cpg/sg120_2_cif.got.tgz:3670.got - 2010.05.20 11:28:13.
