data_PCOD9559593
_publ_section_title
;
Structure prediction by ZEFSAII (Michael W. Deem and Ramdas Pophale) SiO2 
 PCOD9559593
Probable space group: I -4 C 2
;
_chemical_formula_sum "Si O2"
_cell_formula_units_Z 72
_cell_length_a 18.196203
_cell_length_b 18.196203
_cell_length_c 9.120778
_cell_angle_alpha 90.000000
_cell_angle_beta 90.000000
_cell_angle_gamma 90.000000
_cell_volume 3019.906046
_symmetry_space_group_name_H-M "I -4 C 2"
_symmetry_group_IT_number 120
_symmetry_cell_setting 'tetragonal'
loop_
_space_group_symop_operation_xyz
x,y,z
y,-x,-z
-x,-y,z
-y,x,-z
y,x,1/2-z
-y,-x,1/2-z
-x,y,1/2+z
x,-y,1/2+z
1/2+x,1/2+y,1/2+z
1/2+y,1/2-x,1/2-z
1/2-x,1/2-y,1/2+z
1/2-y,1/2+x,1/2-z
1/2+y,1/2+x,-z
1/2-y,1/2-x,-z
1/2-x,1/2+y,z
1/2+x,1/2-y,z
loop_
_atom_site_type_symbol
_atom_site_label
_atom_site_fract_x
_atom_site_fract_y
_atom_site_fract_z
Si Si1 0.962434 0.105559 0.004050
Si Si2 0.311477 0.904189 0.725084
Si Si3 0.839368 0.262179 0.355789
Si Si4 0.646844 0.353157 0.250000
Si Si5 0.262700 0.009175 0.478788
O O1 0.979795 0.183461 0.079601
O O2 0.900866 0.122643 0.885861
O O3 0.926286 0.034560 0.079460
O O4 0.359568 0.832888 0.754097
O O5 0.231972 0.868450 0.757895
O O6 0.302130 0.947011 0.574896
O O7 0.317644 0.963043 0.854442
O O8 0.796646 0.203354 0.250000
O O9 0.789758 0.289758 0.500000
O O10 0.918765 0.241571 0.423426
#
# Coordination Sequence:
#
# PCOD9559593 Si02
#       5
#    16  16  16   8  16
#     4  10  20  32  46  73 114 153 197 226 286 343
#     4  10  20  39  59  80 118 152 198 252 306 360
#     4  10  22  39  60  87 118 160 208 257 309 373
#     4  10  18  35  52  72 112 160 196 233 288 350
#     4  10  22  37  57  85 112 155 202 253 306 360
#
# _framework density 23.841802000000001
#
# number of rings (size 3 to 8) (size 9 to 14) (size 15 to 20)
#    0.000    2.000    3.333    0.000    0.000    5.333 
#    4.000    0.000    0.000    0.667    0.000    4.667 
#    0.000    0.000    0.000    0.000    0.000    0.000 
#
# Total GULP energy -200749.771277 kJ/mol
# GULP energy per Si atom -5576.382535 kJ/mol
# Density = 2.378754 g / cm^3
# Si number density = 23.841802 Si / 1000 Ang^3
#
#
#
# Elastic Constant Matrix: (Units=GPa)
#
#
# Indices 1 2 3 4 5 6 
#
# 1 47.5961 1.0728 6.1146 0.0000 0.0000 0.0000
# 2 1.0728 47.5947 6.1132 0.0000 0.0000 0.0000
# 3 6.1146 6.1132 52.5514 0.0000 0.0000 0.0000
# 4 0.0000 0.0000 0.0000 14.8693 0.0000 0.0000
# 5 0.0000 0.0000 0.0000 0.0000 14.8725 0.0000
# 6 0.0000 0.0000 0.0000 0.0000 0.0000 33.4084
#
#
#
# Elastic Compliance Matrix: (Units=1/GPa)
#
#
# Indices 1 2 3 4 5 6 
#
# 1 0.021330 -0.000164 -0.002463 0.000000 0.000000 0.000000
# 2 -0.000164 0.021331 -0.002462 0.000000 0.000000 0.000000
# 3 -0.002463 -0.002462 0.019602 0.000000 0.000000 0.000000
# 4 0.000000 0.000000 0.000000 0.067253 0.000000 0.000000
# 5 0.000000 0.000000 0.000000 0.000000 0.067238 0.000000
# 6 0.000000 0.000000 0.000000 0.000000 0.000000 0.029933
#
#
# Mechanical properties :
#
#
# Convention : Reuss Voigt Hill
#
# Bulk Modulus (GPa) = 19.19975 19.37150 19.28562
# Shear Modulus (GPa) = 19.66749 21.59280 20.63015
#
# Velocity S-wave (km/s) = 2.87525 3.01270 2.94478
# Velocity P-wave (km/s) = 4.36958 4.49939 4.43496
#
# Compressibility (1/GPa) = 0.05208401
#
# Stress axis : x y z
#
# Youngs Moduli (GPa) = 46.88184 46.88076 51.01524
#
# Poissons Ratio (x) = 0.00771 0.12564
# Poissons Ratio (y) = 0.00771 0.12561
# Poissons Ratio (z) = 0.11546 0.11543
#
# Static dielectric constant tensor:
#      x y z
#    x 2.029120 0.000000 0.000000 
#    y 0.000000 2.029120 0.000000 
#    z 0.000000 0.000000 1.842440 
# 
# From -- ./inp_files/2466.got.cif
#   From: 2010.05.17/outbox.cif.g08.bks.cpg/sg120_2_cif.got.tgz:2466.got - 2010.05.20 11:28:13.
