data_PCOD9559764
_publ_section_title
;
Structure prediction by ZEFSAII (Michael W. Deem and Ramdas Pophale) SiO2 
 PCOD9559764
Probable space group: I -4 C 2
;
_chemical_formula_sum "Si O2"
_cell_formula_units_Z 80
_cell_length_a 17.664890
_cell_length_b 17.664890
_cell_length_c 13.931455
_cell_angle_alpha 90.000000
_cell_angle_beta 90.000000
_cell_angle_gamma 90.000000
_cell_volume 4347.287389
_symmetry_space_group_name_H-M "I -4 C 2"
_symmetry_group_IT_number 120
_symmetry_cell_setting 'tetragonal'
loop_
_space_group_symop_operation_xyz
x,y,z
y,-x,-z
-x,-y,z
-y,x,-z
y,x,1/2-z
-y,-x,1/2-z
-x,y,1/2+z
x,-y,1/2+z
1/2+x,1/2+y,1/2+z
1/2+y,1/2-x,1/2-z
1/2-x,1/2-y,1/2+z
1/2-y,1/2+x,1/2-z
1/2+y,1/2+x,-z
1/2-y,1/2-x,-z
1/2-x,1/2+y,z
1/2+x,1/2-y,z
loop_
_atom_site_type_symbol
_atom_site_label
_atom_site_fract_x
_atom_site_fract_y
_atom_site_fract_z
Si Si1 0.530697 0.265978 0.129947
Si Si2 0.702438 0.867695 0.911561
Si Si3 0.627461 0.262637 0.308047
Si Si4 0.075227 0.951361 0.360677
Si Si5 0.160492 0.145163 0.493064
O O1 0.455716 0.219195 0.104693
O O2 0.557239 0.250582 0.238035
O O3 0.505864 0.353397 0.128635
O O4 0.601163 0.268874 0.055128
O O5 0.664899 0.818101 0.829012
O O6 0.646239 0.853762 0.000000
O O7 0.782322 0.826746 0.938264
O O8 0.686212 0.313789 0.250000
O O9 0.615110 0.312160 0.405465
O O10 0.076593 0.923407 0.250000
O O11 0.087626 0.887033 0.440505
O O12 0.000000 0.000000 0.374712
#
# Coordination Sequence:
#
# PCOD9559764 Si02
#       5
#    16  16  16  16  16
#     4  10  21  35  56  85 114 161 194 238 299 344
#     4   9  19  36  57  84 116 156 197 239 289 351
#     4   9  19  37  58  78 115 152 198 243 285 348
#     4  10  23  30  46  79 123 154 190 228 283 357
#     4   9  20  35  54  80 115 152 190 230 290 351
#
# _framework density 18.402280000000001
#
# number of rings (size 3 to 8) (size 9 to 14) (size 15 to 20)
#    0.000    2.600    0.000    0.000   14.000    4.800 
#    0.000    0.000    0.000    0.600    0.000    4.200 
#    0.000    0.000    0.000    0.000    0.000    0.000 
#
# Total GULP energy -222781.186400 kJ/mol
# GULP energy per Si atom -5569.529660 kJ/mol
# Density = 1.836040 g / cm^3
# Si number density = 18.402280 Si / 1000 Ang^3
#
#
#
# Elastic Constant Matrix: (Units=GPa)
#
#
# Indices 1 2 3 4 5 6 
#
# 1 74.6336 37.1257 39.3742 0.0000 0.0000 0.0000
# 2 37.1257 74.6312 39.3741 0.0000 0.0000 0.0000
# 3 39.3742 39.3741 92.7292 0.0000 0.0000 0.0000
# 4 0.0000 0.0000 0.0000 20.7764 0.0000 0.0000
# 5 0.0000 0.0000 0.0000 0.0000 20.7792 0.0000
# 6 0.0000 0.0000 0.0000 0.0000 0.0000 32.5105
#
#
#
# Elastic Compliance Matrix: (Units=1/GPa)
#
#
# Indices 1 2 3 4 5 6 
#
# 1 0.019715 -0.006947 -0.005421 0.000000 0.000000 0.000000
# 2 -0.006947 0.019715 -0.005422 0.000000 0.000000 0.000000
# 3 -0.005421 -0.005422 0.015388 0.000000 0.000000 0.000000
# 4 0.000000 0.000000 0.000000 0.048131 0.000000 0.000000
# 5 0.000000 0.000000 0.000000 0.000000 0.048125 0.000000
# 6 0.000000 0.000000 0.000000 0.000000 0.000000 0.030759
#
#
# Mechanical properties :
#
#
# Convention : Reuss Voigt Hill
#
# Bulk Modulus (GPa) = 51.97967 52.63802 52.30884
# Shear Modulus (GPa) = 22.33871 23.22122 22.77997
#
# Velocity S-wave (km/s) = 3.48790 3.55613 3.52218
# Velocity P-wave (km/s) = 6.67295 6.74741 6.71028
#
# Compressibility (1/GPa) = 0.01923829
#
# Stress axis : x y z
#
# Youngs Moduli (GPa) = 50.72382 50.72188 64.98496
#
# Poissons Ratio (x) = 0.35236 0.35231
# Poissons Ratio (y) = 0.35237 0.35232
# Poissons Ratio (z) = 0.27499 0.27500
#
# Static dielectric constant tensor:
#      x y z
#    x 1.659610 0.000000 0.000000 
#    y 0.000000 1.659610 0.000000 
#    z 0.000000 0.000000 1.717300 
# 
# From -- ./inp_files/3431.got.cif
#   From: 2010.05.17/outbox.cif.g08.bks.cpg/sg120_2_cif.got.tgz:3431.got - 2010.05.20 11:28:13.
