data_PCOD9560476
_publ_section_title
;
Structure prediction by ZEFSAII (Michael W. Deem and Ramdas Pophale) SiO2 
 PCOD9560476
Probable space group: I -4 2 M
;
_chemical_formula_sum "Si O2"
_cell_formula_units_Z 120
_cell_length_a 19.701441
_cell_length_b 19.701441
_cell_length_c 15.511562
_cell_angle_alpha 90.000000
_cell_angle_beta 90.000000
_cell_angle_gamma 90.000000
_cell_volume 6020.762804
_symmetry_space_group_name_H-M "I -4 2 M"
_symmetry_group_IT_number 121
_symmetry_cell_setting 'tetragonal'
loop_
_space_group_symop_operation_xyz
x,y,z
y,-x,-z
-x,-y,z
-y,x,-z
x,-y,-z
-x,y,-z
-y,-x,z
y,x,z
1/2+x,1/2+y,1/2+z
1/2+y,1/2-x,1/2-z
1/2-x,1/2-y,1/2+z
1/2-y,1/2+x,1/2-z
1/2+x,1/2-y,1/2-z
1/2-x,1/2+y,1/2-z
1/2-y,1/2-x,1/2+z
1/2+y,1/2+x,1/2+z
loop_
_atom_site_type_symbol
_atom_site_label
_atom_site_fract_x
_atom_site_fract_y
_atom_site_fract_z
Si Si1 0.292035 0.180815 0.724846
Si Si2 0.634928 0.747897 0.571978
Si Si3 0.500000 0.806035 0.500000
Si Si4 0.500984 0.081923 0.367106
Si Si5 0.819412 0.706946 0.415319
Si Si6 0.859332 0.552660 0.188011
Si Si7 0.469173 0.758511 0.093975
Si Si8 0.998827 0.890041 0.604941
O O1 0.220724 0.220724 0.720137
O O2 0.343669 0.226156 0.667145
O O3 0.316422 0.170624 0.822921
O O4 0.296774 0.104882 0.689955
O O5 0.674964 0.674964 0.560652
O O6 0.555464 0.758292 0.548375
O O7 0.667840 0.798585 0.501221
O O8 0.529023 0.862061 0.431997
O O9 0.468668 0.102621 0.275667
O O10 0.582331 0.090901 0.365388
O O11 0.500000 0.000000 0.384398
O O12 0.762487 0.762487 0.404866
O O13 0.889893 0.744491 0.421574
O O14 0.826186 0.486359 0.147044
O O15 0.493774 0.687355 0.134193
O O16 0.500000 0.767633 0.000000
O O17 0.062256 0.937745 0.631120
O O18 0.000000 0.887743 0.500000
O O19 0.930565 0.930565 0.630031
#
# Coordination Sequence:
#
# PCOD9560476 Si02
#       8
#    16  16   8  16  16  16  16  16
#     4  10  21  39  61  84 117 159 204 252 304 358
#     4  10  22  40  63  93 122 155 202 256 305 364
#     4  12  25  40  70  91 118 162 206 248 306 367
#     4  12  25  41  58  85 120 166 205 247 294 361
#     4  10  21  39  60  82 116 158 204 249 296 359
#     4  12  22  39  55  80 123 160 198 247 301 350
#     4  11  23  31  53  84 116 154 199 247 291 356
#     4   8  15  31  52  76 111 152 194 241 299 360
#
# _framework density 19.931028000000001
#
# number of rings (size 3 to 8) (size 9 to 14) (size 15 to 20)
#    0.000    1.467    2.667    3.400    1.867    1.067 
#    0.000    0.000    0.000    0.200    0.000    0.000 
#    0.000    0.000    0.000    0.000    0.000    0.133 
#
# Total GULP energy -334161.910666 kJ/mol
# GULP energy per Si atom -5569.365178 kJ/mol
# Density = 1.988566 g / cm^3
# Si number density = 19.931028 Si / 1000 Ang^3
#
#
#
# Elastic Constant Matrix: (Units=GPa)
#
#
# Indices 1 2 3 4 5 6 
#
# 1 70.1299 8.0983 -3.9052 0.0000 0.0000 0.0000
# 2 8.0983 70.1297 -3.9055 0.0000 0.0000 0.0000
# 3 -3.9052 -3.9055 37.7956 0.0000 0.0000 0.0000
# 4 0.0000 0.0000 0.0000 20.1083 0.0000 0.0000
# 5 0.0000 0.0000 0.0000 0.0000 20.1082 0.0000
# 6 0.0000 0.0000 0.0000 0.0000 0.0000 46.5942
#
#
#
# Elastic Compliance Matrix: (Units=1/GPa)
#
#
# Indices 1 2 3 4 5 6 
#
# 1 0.014519 -0.001602 0.001335 0.000000 0.000000 0.000000
# 2 -0.001602 0.014519 0.001335 0.000000 0.000000 0.000000
# 3 0.001335 0.001335 0.026734 0.000000 0.000000 0.000000
# 4 0.000000 0.000000 0.000000 0.049731 0.000000 0.000000
# 5 0.000000 0.000000 0.000000 0.000000 0.049731 0.000000
# 6 0.000000 0.000000 0.000000 0.000000 0.000000 0.021462
#
#
# Mechanical properties :
#
#
# Convention : Reuss Voigt Hill
#
# Bulk Modulus (GPa) = 17.26960 19.84782 18.55871
# Shear Modulus (GPa) = 25.79150 29.21332 27.50241
#
# Velocity S-wave (km/s) = 3.60118 3.83263 3.71870
# Velocity P-wave (km/s) = 5.09655 5.43739 5.26973
#
# Compressibility (1/GPa) = 0.05790522
#
# Stress axis : x y z
#
# Youngs Moduli (GPa) = 68.87720 68.87701 37.40563
#
# Poissons Ratio (x) = 0.11036 -0.04992
# Poissons Ratio (y) = 0.11036 -0.04992
# Poissons Ratio (z) = -0.09192 -0.09193
#
# Static dielectric constant tensor:
#      x y z
#    x 1.751170 0.000000 0.000000 
#    y 0.000000 1.751170 0.000000 
#    z 0.000000 0.000000 1.757910 
# 
# From -- ./inp_files/4626.got.cif
#   From: 2010.05.17/outbox.cif.g08.bks.cpg/sg121_3_cif.got.tgz:4626.got - 2010.05.20 11:32:06.
