data_PCOD9560565
_publ_section_title
;
Structure prediction by ZEFSAII (Michael W. Deem and Ramdas Pophale) SiO2 
 PCOD9560565
Probable space group: I -4 2 M
;
_chemical_formula_sum "Si O2"
_cell_formula_units_Z 72
_cell_length_a 14.129400
_cell_length_b 14.129400
_cell_length_c 17.515885
_cell_angle_alpha 90.000000
_cell_angle_beta 90.000000
_cell_angle_gamma 90.000000
_cell_volume 3496.870307
_symmetry_space_group_name_H-M "I -4 2 M"
_symmetry_group_IT_number 121
_symmetry_cell_setting 'tetragonal'
loop_
_space_group_symop_operation_xyz
x,y,z
y,-x,-z
-x,-y,z
-y,x,-z
x,-y,-z
-x,y,-z
-y,-x,z
y,x,z
1/2+x,1/2+y,1/2+z
1/2+y,1/2-x,1/2-z
1/2-x,1/2-y,1/2+z
1/2-y,1/2+x,1/2-z
1/2+x,1/2-y,1/2-z
1/2-x,1/2+y,1/2-z
1/2-y,1/2-x,1/2+z
1/2+y,1/2+x,1/2+z
loop_
_atom_site_type_symbol
_atom_site_label
_atom_site_fract_x
_atom_site_fract_y
_atom_site_fract_z
Si Si1 0.203740 0.796260 0.598164
Si Si2 0.108048 0.891953 0.285656
Si Si3 0.390614 0.891760 0.906760
Si Si4 0.894690 0.105311 0.470265
Si Si5 0.893339 0.392148 0.091400
Si Si6 0.252656 0.747345 0.322738
Si Si7 0.609109 0.609109 0.767669
O O1 0.177288 0.822713 0.510869
O O2 0.310519 0.823522 0.616919
O O3 0.135235 0.864766 0.645733
O O4 0.105353 0.894648 0.378846
O O5 0.186629 0.813372 0.269566
O O6 0.002070 0.870722 0.256899
O O7 0.499694 0.870049 0.885665
O O8 0.318738 0.817931 0.871224
O O9 0.370117 0.000229 0.882380
O O10 0.388272 0.892513 0.998910
O O11 0.000000 0.129178 0.500000
O O12 0.323616 0.676385 0.280715
#
# Coordination Sequence:
#
# PCOD9560565 Si02
#       7
#     8   8  16   8  16   8   8
#     4  12  20  31  59  94 116 154 192 245 321 379
#     4  11  22  44  61  88 125 160 208 265 310 371
#     4   9  19  37  55  87 117 154 187 247 308 363
#     4  11  19  32  61 100 132 145 186 272 344 371
#     4   9  19  34  59  86 122 143 189 251 310 360
#     4  12  24  39  63  83 117 169 210 238 302 381
#     4  11  25  39  56  84 126 163 198 246 301 374
#
# _framework density 20.589841
#
# number of rings (size 3 to 8) (size 9 to 14) (size 15 to 20)
#    0.000    1.667    2.222    5.333    3.111    1.778 
#    0.000    1.111    0.000    2.667    0.000    3.111 
#    0.000    0.000    0.000    0.000    0.000    0.000 
#
# Total GULP energy -201219.103144 kJ/mol
# GULP energy per Si atom -5589.419532 kJ/mol
# Density = 2.054298 g / cm^3
# Si number density = 20.589841 Si / 1000 Ang^3
#
#
#
# Elastic Constant Matrix: (Units=GPa)
#
#
# Indices 1 2 3 4 5 6 
#
# 1 159.4597 133.6599 33.3777 0.0000 0.0000 0.0000
# 2 133.6599 159.4592 33.3778 0.0000 0.0000 0.0000
# 3 33.3777 33.3778 34.2894 0.0000 0.0000 0.0000
# 4 0.0000 0.0000 0.0000 28.2813 0.0000 0.0000
# 5 0.0000 0.0000 0.0000 0.0000 28.2812 0.0000
# 6 0.0000 0.0000 0.0000 0.0000 0.0000 44.5026
#
#
#
# Elastic Compliance Matrix: (Units=1/GPa)
#
#
# Indices 1 2 3 4 5 6 
#
# 1 0.021572 -0.017189 -0.004267 0.000000 0.000000 0.000000
# 2 -0.017189 0.021572 -0.004267 0.000000 0.000000 0.000000
# 3 -0.004267 -0.004267 0.037470 0.000000 0.000000 0.000000
# 4 0.000000 0.000000 0.000000 0.035359 0.000000 0.000000
# 5 0.000000 0.000000 0.000000 0.000000 0.035359 0.000000
# 6 0.000000 0.000000 0.000000 0.000000 0.000000 0.022471
#
#
# Mechanical properties :
#
#
# Convention : Reuss Voigt Hill
#
# Bulk Modulus (GPa) = 34.28216 83.78212 59.03214
# Shear Modulus (GPa) = 21.27932 30.39923 25.83927
#
# Velocity S-wave (km/s) = 3.21828 3.84659 3.54637
# Velocity P-wave (km/s) = 5.52231 7.77867 6.74550
#
# Compressibility (1/GPa) = 0.02916969
#
# Stress axis : x y z
#
# Youngs Moduli (GPa) = 46.35685 46.35659 26.68795
#
# Poissons Ratio (x) = 0.79680 0.11387
# Poissons Ratio (y) = 0.79681 0.11387
# Poissons Ratio (z) = 0.19779 0.19780
#
# Static dielectric constant tensor:
#      x y z
#    x 1.742250 0.000000 0.000000 
#    y 0.000000 1.742250 0.000000 
#    z 0.000000 0.000000 1.749030 
# 
# From -- ./inp_files/5254.got.cif
#   From: 2010.05.17/outbox.cif.g08.bks.cpg/sg121_3_cif.got.tgz:5254.got - 2010.05.20 11:32:06.
