data_PCOD9560238
_publ_section_title
;
Structure prediction by ZEFSAII (Michael W. Deem and Ramdas Pophale) SiO2 
 PCOD9560238
Probable space group: I -4 2 M
;
_chemical_formula_sum "Si O2"
_cell_formula_units_Z 120
_cell_length_a 14.745696
_cell_length_b 14.745696
_cell_length_c 29.259742
_cell_angle_alpha 90.000000
_cell_angle_beta 90.000000
_cell_angle_gamma 90.000000
_cell_volume 6362.108110
_symmetry_space_group_name_H-M "I -4 2 M"
_symmetry_group_IT_number 121
_symmetry_cell_setting 'tetragonal'
loop_
_space_group_symop_operation_xyz
x,y,z
y,-x,-z
-x,-y,z
-y,x,-z
x,-y,-z
-x,y,-z
-y,-x,z
y,x,z
1/2+x,1/2+y,1/2+z
1/2+y,1/2-x,1/2-z
1/2-x,1/2-y,1/2+z
1/2-y,1/2+x,1/2-z
1/2+x,1/2-y,1/2-z
1/2-x,1/2+y,1/2-z
1/2-y,1/2-x,1/2+z
1/2+y,1/2+x,1/2+z
loop_
_atom_site_type_symbol
_atom_site_label
_atom_site_fract_x
_atom_site_fract_y
_atom_site_fract_z
Si Si1 0.348879 0.500000 0.500000
Si Si2 0.697465 0.542532 0.400201
Si Si3 0.829666 0.681460 0.424524
Si Si4 0.928162 0.776591 0.341073
Si Si5 0.267784 0.115453 0.618107
Si Si6 0.253863 0.894714 0.831492
Si Si7 0.456001 0.853984 0.244766
Si Si8 0.597809 0.752583 0.013889
O O1 0.412764 0.587237 0.497110
O O2 0.299652 0.493076 0.452126
O O3 0.610766 0.610766 0.394410
O O4 0.792472 0.595546 0.397295
O O5 0.699112 0.461095 0.364925
O O6 0.738160 0.738160 0.434421
O O7 0.887364 0.737613 0.388327
O O8 0.876603 0.675550 0.473940
O O9 0.866942 0.866942 0.330450
O O10 0.925935 0.701665 0.300510
O O11 0.034470 0.781300 0.354331
O O12 0.197397 0.197397 0.615293
O O13 0.355195 0.156646 0.643335
O O14 0.289466 0.091544 0.565384
O O15 0.189905 0.810096 0.819334
O O16 0.284916 0.946167 0.786547
O O17 0.558736 0.892316 0.244866
O O18 0.673451 0.673451 0.012530
O O19 0.500000 0.714118 0.000000
#
# Coordination Sequence:
#
# PCOD9560238 Si02
#       8
#     8  16  16  16  16  16  16  16
#     4   9  18  32  52  80 113 150 194 240 283 342
#     4  10  21  37  58  85 117 157 204 248 300 362
#     4   9  19  34  55  84 118 157 198 243 293 348
#     4  11  21  39  63  87 117 156 200 249 300 355
#     4  10  22  38  58  86 122 159 196 244 301 361
#     4  11  23  41  63  89 121 156 197 252 310 364
#     4  11  23  41  65  92 119 154 198 246 301 367
#     4  10  19  33  55  83 118 159 201 245 294 353
#
# _framework density 18.861673
#
# number of rings (size 3 to 8) (size 9 to 14) (size 15 to 20)
#    0.000    1.800    2.667    1.600    1.867    1.200 
#    0.000    2.667    0.000    2.400    0.000    0.000 
#    0.000    0.000    0.000    0.000    0.000    0.000 
#
# Total GULP energy -334128.980866 kJ/mol
# GULP energy per Si atom -5568.816348 kJ/mol
# Density = 1.881874 g / cm^3
# Si number density = 18.861673 Si / 1000 Ang^3
#
#
#
# Elastic Constant Matrix: (Units=GPa)
#
#
# Indices 1 2 3 4 5 6 
#
# 1 42.8655 -0.4975 23.7663 0.0000 0.0000 0.0000
# 2 -0.4975 42.8666 23.7667 0.0000 0.0000 0.0000
# 3 23.7663 23.7667 87.3585 0.0000 0.0000 0.0000
# 4 0.0000 0.0000 0.0000 31.1087 0.0000 0.0000
# 5 0.0000 0.0000 0.0000 0.0000 31.1087 0.0000
# 6 0.0000 0.0000 0.0000 0.0000 0.0000 20.2065
#
#
#
# Elastic Compliance Matrix: (Units=1/GPa)
#
#
# Indices 1 2 3 4 5 6 
#
# 1 0.028516 0.005455 -0.009242 0.000000 0.000000 0.000000
# 2 0.005455 0.028516 -0.009242 0.000000 0.000000 0.000000
# 3 -0.009242 -0.009242 0.016476 0.000000 0.000000 0.000000
# 4 0.000000 0.000000 0.000000 0.032145 0.000000 0.000000
# 5 0.000000 0.000000 0.000000 0.000000 0.032145 0.000000
# 6 0.000000 0.000000 0.000000 0.000000 0.000000 0.049489
#
#
# Mechanical properties :
#
#
# Convention : Reuss Voigt Hill
#
# Bulk Modulus (GPa) = 21.07501 29.68462 25.37981
# Shear Modulus (GPa) = 21.81866 24.88848 23.35357
#
# Velocity S-wave (km/s) = 3.40483 3.63647 3.52255
# Velocity P-wave (km/s) = 5.16283 5.77963 5.47992
#
# Compressibility (1/GPa) = 0.04744957
#
# Stress axis : x y z
#
# Youngs Moduli (GPa) = 35.06773 35.06862 60.69510
#
# Poissons Ratio (x) = -0.19130 0.56095
# Poissons Ratio (y) = -0.19130 0.56094
# Poissons Ratio (z) = 0.32410 0.32410
#
# Static dielectric constant tensor:
#      x y z
#    x 1.675160 0.000000 0.000000 
#    y 0.000000 1.675160 0.000000 
#    z 0.000000 0.000000 1.666400 
# 
# From -- ./inp_files/8453.got.cif
#   From: 2010.05.17/outbox.cif.g08.bks.cpg/sg121_5_cif.got.tgz:8453.got - 2010.05.20 11:32:06.
