data_PCOD9560538
_publ_section_title
;
Structure prediction by ZEFSAII (Michael W. Deem and Ramdas Pophale) SiO2 
 PCOD9560538
Probable space group: I -4 2 M
;
_chemical_formula_sum "Si O2"
_cell_formula_units_Z 96
_cell_length_a 15.470555
_cell_length_b 15.470555
_cell_length_c 21.585039
_cell_angle_alpha 90.000000
_cell_angle_beta 90.000000
_cell_angle_gamma 90.000000
_cell_volume 5166.121618
_symmetry_space_group_name_H-M "I -4 2 M"
_symmetry_group_IT_number 121
_symmetry_cell_setting 'tetragonal'
loop_
_space_group_symop_operation_xyz
x,y,z
y,-x,-z
-x,-y,z
-y,x,-z
x,-y,-z
-x,y,-z
-y,-x,z
y,x,z
1/2+x,1/2+y,1/2+z
1/2+y,1/2-x,1/2-z
1/2-x,1/2-y,1/2+z
1/2-y,1/2+x,1/2-z
1/2+x,1/2-y,1/2-z
1/2-x,1/2+y,1/2-z
1/2-y,1/2-x,1/2+z
1/2+y,1/2+x,1/2+z
loop_
_atom_site_type_symbol
_atom_site_label
_atom_site_fract_x
_atom_site_fract_y
_atom_site_fract_z
Si Si1 0.323251 0.822501 0.629241
Si Si2 0.930536 0.930536 0.153291
Si Si3 0.516571 0.761161 0.801476
Si Si4 0.303781 0.160337 0.628400
Si Si5 0.013343 0.260021 0.153010
Si Si6 0.430274 0.569727 0.195902
Si Si7 0.897423 0.239764 0.505215
O O1 0.254735 0.745265 0.644561
O O2 0.318179 0.901104 0.678447
O O3 0.420600 0.787367 0.626910
O O4 0.293214 0.864179 0.564375
O O5 0.929479 0.929479 0.228804
O O6 0.959946 0.836290 0.132956
O O7 0.000000 0.000000 0.132956
O O8 0.425795 0.784696 0.832335
O O9 0.506161 0.761047 0.727718
O O10 0.542922 0.665049 0.823971
O O11 0.240695 0.240695 0.647991
O O12 0.404222 0.182687 0.635434
O O13 0.281685 0.139426 0.557421
O O14 0.500000 0.500000 0.175050
O O15 0.854821 0.145180 0.510662
O O16 0.000000 0.237301 0.500000
#
# Coordination Sequence:
#
# PCOD9560538 Si02
#       7
#    16   8  16  16  16   8  16
#     4  11  23  41  63  91 128 167 209 262 313 367
#     4   9  18  36  58  85 118 155 215 258 302 369
#     4  11  21  36  60  89 130 165 206 255 315 380
#     4  11  23  41  63  91 127 167 210 260 312 371
#     4  11  23  37  61  91 123 171 206 257 319 371
#     4   9  18  32  54  87 120 163 205 250 308 371
#     4  10  22  43  67  92 123 164 210 257 306 362
#
# _framework density 18.582605999999998
#
# number of rings (size 3 to 8) (size 9 to 14) (size 15 to 20)
#    0.000    1.500    3.333    2.000    0.000    4.833 
#    0.000    2.500    0.000    0.000    0.000    0.000 
#    0.000    0.000    0.000    0.000    0.000    0.000 
#
# Total GULP energy -268084.644956 kJ/mol
# GULP energy per Si atom -5585.096770 kJ/mol
# Density = 1.854031 g / cm^3
# Si number density = 18.582606 Si / 1000 Ang^3
#
#
#
# Elastic Constant Matrix: (Units=GPa)
#
#
# Indices 1 2 3 4 5 6 
#
# 1 146.5524 75.2266 25.0071 0.0000 0.0000 0.0000
# 2 75.2266 146.5566 25.0088 0.0000 0.0000 0.0000
# 3 25.0071 25.0088 51.5175 0.0000 0.0000 0.0000
# 4 0.0000 0.0000 0.0000 16.7371 0.0000 0.0000
# 5 0.0000 0.0000 0.0000 0.0000 16.7362 0.0000
# 6 0.0000 0.0000 0.0000 0.0000 0.0000 34.4011
#
#
#
# Elastic Compliance Matrix: (Units=1/GPa)
#
#
# Indices 1 2 3 4 5 6 
#
# 1 0.009542 -0.004478 -0.002458 0.000000 0.000000 0.000000
# 2 -0.004478 0.009541 -0.002458 0.000000 0.000000 0.000000
# 3 -0.002458 -0.002458 0.021797 0.000000 0.000000 0.000000
# 4 0.000000 0.000000 0.000000 0.059747 0.000000 0.000000
# 5 0.000000 0.000000 0.000000 0.000000 0.059751 0.000000
# 6 0.000000 0.000000 0.000000 0.000000 0.000000 0.029069
#
#
# Mechanical properties :
#
#
# Convention : Reuss Voigt Hill
#
# Bulk Modulus (GPa) = 45.26480 66.12350 55.69415
# Shear Modulus (GPa) = 23.19121 28.20048 25.69585
#
# Velocity S-wave (km/s) = 3.53655 3.89983 3.72262
# Velocity P-wave (km/s) = 6.40998 7.47924 6.96516
#
# Compressibility (1/GPa) = 0.02209222
#
# Stress axis : x y z
#
# Youngs Moduli (GPa) = 104.80436 104.80635 45.87777
#
# Poissons Ratio (x) = 0.46935 0.11275
# Poissons Ratio (y) = 0.46934 0.11277
# Poissons Ratio (z) = 0.25757 0.25762
#
# Static dielectric constant tensor:
#      x y z
#    x 1.633900 0.000000 0.000000 
#    y 0.000000 1.633900 0.000000 
#    z 0.000000 0.000000 1.633250 
# 
# From -- ./inp_files/6483.got.cif
#   From: 2010.05.17/outbox.cif.g08.bks.cpg/sg121_4_cif.got.tgz:6483.got - 2010.05.20 11:32:06.
