data_PCOD9560939
_publ_section_title
;
Structure prediction by ZEFSAII (Michael W. Deem and Ramdas Pophale) SiO2 
 PCOD9560939
Probable space group: I -4 2 D
;
_chemical_formula_sum "Si O2"
_cell_formula_units_Z 80
_cell_length_a 13.624772
_cell_length_b 13.624772
_cell_length_c 20.922424
_cell_angle_alpha 90.000000
_cell_angle_beta 90.000000
_cell_angle_gamma 90.000000
_cell_volume 3883.921878
_symmetry_space_group_name_H-M "I -4 2 D"
_symmetry_group_IT_number 122
_symmetry_cell_setting 'tetragonal'
loop_
_space_group_symop_operation_xyz
x,y,z
y,-x,-z
-x,-y,z
-y,x,-z
x,1/2-y,1/4-z
-x,1/2+y,1/4-z
-y,1/2-x,1/4+z
y,1/2+x,1/4+z
1/2+x,1/2+y,1/2+z
1/2+y,1/2-x,1/2-z
1/2-x,1/2-y,1/2+z
1/2-y,1/2+x,1/2-z
1/2+x,-y,3/4-z
1/2-x,y,3/4-z
1/2-y,-x,3/4+z
1/2+y,x,3/4+z
loop_
_atom_site_type_symbol
_atom_site_label
_atom_site_fract_x
_atom_site_fract_y
_atom_site_fract_z
Si Si1 0.814787 0.145908 0.464305
Si Si2 0.858391 0.135643 0.608048
Si Si3 0.244814 0.498289 0.552522
Si Si4 0.148690 0.206441 0.057029
Si Si5 0.116395 0.569340 0.915750
O O1 0.863734 0.124474 0.531791
O O2 0.769364 0.255164 0.464187
O O3 0.879437 0.131042 0.400963
O O4 0.722852 0.074374 0.449393
O O5 0.844634 0.250000 0.625000
O O6 0.770946 0.071522 0.637846
O O7 0.958903 0.101259 0.642437
O O8 0.315168 0.405611 0.563136
O O9 0.281031 0.563654 0.494133
O O10 0.135740 0.452759 0.540008
O O11 0.118306 0.250000 0.125000
#
# Coordination Sequence:
#
# PCOD9560939 Si02
#       5
#    16  16  16  16  16
#     4  10  20  40  68  93 140 193 211 284 375 419
#     4  12  23  38  69 109 142 180 234 291 359 441
#     4  11  25  44  69 102 138 188 247 292 361 438
#     4  11  23  48  75  94 140 189 242 307 363 421
#     4  10  22  42  63 101 142 182 237 284 345 444
#
# _framework density 20.597738
#
# number of rings (size 3 to 8) (size 9 to 14) (size 15 to 20)
#    0.000    1.200    8.000    0.600    2.800    2.000 
#    7.200    0.000    0.000    0.000    0.000    0.000 
#    0.000    0.000    0.000    0.000    0.000    0.000 
#
# Total GULP energy -223366.913876 kJ/mol
# GULP energy per Si atom -5584.172847 kJ/mol
# Density = 2.055086 g / cm^3
# Si number density = 20.597738 Si / 1000 Ang^3
#
#
#
# Elastic Constant Matrix: (Units=GPa)
#
#
# Indices 1 2 3 4 5 6 
#
# 1 101.6801 42.9546 46.8915 0.0000 0.0000 0.0000
# 2 42.9546 101.6801 46.8915 0.0000 0.0000 0.0000
# 3 46.8915 46.8915 94.9022 0.0000 0.0000 0.0000
# 4 0.0000 0.0000 0.0000 34.4732 0.0000 0.0000
# 5 0.0000 0.0000 0.0000 0.0000 34.4732 0.0000
# 6 0.0000 0.0000 0.0000 0.0000 0.0000 32.6265
#
#
#
# Elastic Compliance Matrix: (Units=1/GPa)
#
#
# Indices 1 2 3 4 5 6 
#
# 1 0.013601 -0.003428 -0.005027 0.000000 0.000000 0.000000
# 2 -0.003428 0.013601 -0.005027 0.000000 0.000000 0.000000
# 3 -0.005027 -0.005027 0.015505 0.000000 0.000000 0.000000
# 4 0.000000 0.000000 0.000000 0.029008 0.000000 0.000000
# 5 0.000000 0.000000 0.000000 0.000000 0.029008 0.000000
# 6 0.000000 0.000000 0.000000 0.000000 0.000000 0.030650
#
#
# Mechanical properties :
#
#
# Convention : Reuss Voigt Hill
#
# Bulk Modulus (GPa) = 63.51418 63.52639 63.52028
# Shear Modulus (GPa) = 30.56567 31.08289 30.82428
#
# Velocity S-wave (km/s) = 3.85636 3.88886 3.87264
# Velocity P-wave (km/s) = 7.12258 7.14651 7.13456
#
# Compressibility (1/GPa) = 0.01574452
#
# Stress axis : x y z
#
# Youngs Moduli (GPa) = 73.52481 73.52481 64.49716
#
# Poissons Ratio (x) = 0.25201 0.32421
# Poissons Ratio (y) = 0.25201 0.32421
# Poissons Ratio (z) = 0.36959 0.36959
#
# Static dielectric constant tensor:
#      x y z
#    x 1.781800 0.000000 0.000000 
#    y 0.000000 1.781800 0.000000 
#    z 0.000000 0.000000 1.697730 
# 
# From -- ./inp_files/7087.got.cif
#   From: 2010.05.17/outbox.cif.g08.bks.cpg/sg122_4_cif.got.tgz:7087.got - 2010.05.20 11:37:33.
