data_PCOD9560136
_publ_section_title
;
Structure prediction by ZEFSAII (Michael W. Deem and Ramdas Pophale) SiO2 
 PCOD9560136
Probable space group: I -4 2 M
;
_chemical_formula_sum "Si O2"
_cell_formula_units_Z 112
_cell_length_a 18.131258
_cell_length_b 18.131258
_cell_length_c 21.061032
_cell_angle_alpha 90.000000
_cell_angle_beta 90.000000
_cell_angle_gamma 90.000000
_cell_volume 6923.656663
_symmetry_space_group_name_H-M "I -4 2 M"
_symmetry_group_IT_number 121
_symmetry_cell_setting 'tetragonal'
loop_
_space_group_symop_operation_xyz
x,y,z
y,-x,-z
-x,-y,z
-y,x,-z
x,-y,-z
-x,y,-z
-y,-x,z
y,x,z
1/2+x,1/2+y,1/2+z
1/2+y,1/2-x,1/2-z
1/2-x,1/2-y,1/2+z
1/2-y,1/2+x,1/2-z
1/2+x,1/2-y,1/2-z
1/2-x,1/2+y,1/2-z
1/2-y,1/2-x,1/2+z
1/2+y,1/2+x,1/2+z
loop_
_atom_site_type_symbol
_atom_site_label
_atom_site_fract_x
_atom_site_fract_y
_atom_site_fract_z
Si Si1 0.623020 0.256855 0.266981
Si Si2 0.341215 0.982999 0.687263
Si Si3 0.742418 0.136890 0.972766
Si Si4 0.128902 0.536845 0.672861
Si Si5 0.130831 0.370131 0.131933
Si Si6 0.227095 0.889343 0.118251
Si Si7 0.541191 0.658841 0.619970
O O1 0.690827 0.309174 0.247421
O O2 0.573027 0.222590 0.210898
O O3 0.649576 0.189252 0.312227
O O4 0.571561 0.304836 0.314644
O O5 0.406424 0.935261 0.657057
O O6 0.371975 0.018239 0.752620
O O7 0.326744 0.053883 0.644068
O O8 0.789050 0.210951 0.962581
O O9 0.666087 0.144247 0.936101
O O10 0.789305 0.074293 0.935727
O O11 0.741862 0.120876 0.047074
O O12 0.121279 0.458090 0.638799
O O13 0.205884 0.578119 0.658920
O O14 0.185939 0.814062 0.138288
O O15 0.166302 0.954201 0.117276
O O16 0.579358 0.579358 0.613568
#
# Coordination Sequence:
#
# PCOD9560136 Si02
#       7
#    16  16  16  16  16  16  16
#     4   9  17  29  48  71 101 131 165 208 254 299
#     4  11  19  31  49  73  97 132 168 211 250 301
#     4   9  18  33  52  70  97 132 171 214 258 298
#     4  11  20  31  47  74 101 127 164 214 257 294
#     4  10  18  30  53  70  96 130 172 206 255 300
#     4  11  21  33  49  72 101 136 174 215 258 311
#     4   9  16  29  48  70  95 132 172 209 252 301
#
# _framework density 16.176423
#
# number of rings (size 3 to 8) (size 9 to 14) (size 15 to 20)
#    0.000    2.000    7.143    2.143    0.000    0.857 
#    0.000    0.714    0.000    4.286    0.000    0.000 
#    0.000    0.000    0.000    0.000    0.000    7.143 
#
# Total GULP energy -311998.490909 kJ/mol
# GULP energy per Si atom -5571.401623 kJ/mol
# Density = 1.613961 g / cm^3
# Si number density = 16.176423 Si / 1000 Ang^3
#
#
#
# Elastic Constant Matrix: (Units=GPa)
#
#
# Indices 1 2 3 4 5 6 
#
# 1 62.0880 45.1936 17.0921 0.0000 0.0000 0.0000
# 2 45.1936 62.0909 17.0933 0.0000 0.0000 0.0000
# 3 17.0921 17.0933 15.2240 0.0000 0.0000 0.0000
# 4 0.0000 0.0000 0.0000 17.8562 0.0000 0.0000
# 5 0.0000 0.0000 0.0000 0.0000 17.8561 0.0000
# 6 0.0000 0.0000 0.0000 0.0000 0.0000 27.4833
#
#
#
# Elastic Compliance Matrix: (Units=1/GPa)
#
#
# Indices 1 2 3 4 5 6 
#
# 1 0.036850 -0.022336 -0.016293 0.000000 0.000000 0.000000
# 2 -0.022336 0.036850 -0.016297 0.000000 0.000000 0.000000
# 3 -0.016293 -0.016297 0.102276 0.000000 0.000000 0.000000
# 4 0.000000 0.000000 0.000000 0.056003 0.000000 0.000000
# 5 0.000000 0.000000 0.000000 0.000000 0.056003 0.000000
# 6 0.000000 0.000000 0.000000 0.000000 0.000000 0.036386
#
#
# Mechanical properties :
#
#
# Convention : Reuss Voigt Hill
#
# Bulk Modulus (GPa) = 15.12333 33.12899 24.12616
# Shear Modulus (GPa) = 10.95863 16.64072 13.79968
#
# Velocity S-wave (km/s) = 2.60560 3.21082 2.92391
# Velocity P-wave (km/s) = 4.29203 5.85406 5.13281
#
# Compressibility (1/GPa) = 0.06612302
#
# Stress axis : x y z
#
# Youngs Moduli (GPa) = 27.13709 27.13716 9.77747
#
# Poissons Ratio (x) = 0.60615 0.15930
# Poissons Ratio (y) = 0.60614 0.15935
# Poissons Ratio (z) = 0.44213 0.44226
#
# Static dielectric constant tensor:
#      x y z
#    x 1.567780 0.000000 0.000000 
#    y 0.000000 1.567780 0.000000 
#    z 0.000000 0.000000 1.544810 
# 
# From -- ./inp_files/7291.got.cif
#   From: 2010.05.17/outbox.cif.g08.bks.cpg/sg121_4_cif.got.tgz:7291.got - 2010.05.20 11:32:06.
