data_PCOD9560508
_publ_section_title
;
Structure prediction by ZEFSAII (Michael W. Deem and Ramdas Pophale) SiO2 
 PCOD9560508
Probable space group: I -4 2 M
;
_chemical_formula_sum "Si O2"
_cell_formula_units_Z 64
_cell_length_a 14.075906
_cell_length_b 14.075906
_cell_length_c 19.855487
_cell_angle_alpha 90.000000
_cell_angle_beta 90.000000
_cell_angle_gamma 90.000000
_cell_volume 3933.990070
_symmetry_space_group_name_H-M "I -4 2 M"
_symmetry_group_IT_number 121
_symmetry_cell_setting 'tetragonal'
loop_
_space_group_symop_operation_xyz
x,y,z
y,-x,-z
-x,-y,z
-y,x,-z
x,-y,-z
-x,y,-z
-y,-x,z
y,x,z
1/2+x,1/2+y,1/2+z
1/2+y,1/2-x,1/2-z
1/2-x,1/2-y,1/2+z
1/2-y,1/2+x,1/2-z
1/2+x,1/2-y,1/2-z
1/2-x,1/2+y,1/2-z
1/2-y,1/2-x,1/2+z
1/2+y,1/2+x,1/2+z
loop_
_atom_site_type_symbol
_atom_site_label
_atom_site_fract_x
_atom_site_fract_y
_atom_site_fract_z
Si Si1 0.765311 0.922692 0.058584
Si Si2 0.656824 0.501522 0.700226
Si Si3 0.959017 0.607390 0.569750
Si Si4 0.649690 0.992422 0.721847
O O1 0.831529 0.831529 0.045295
O O2 0.801347 0.969932 0.127653
O O3 0.654788 0.896109 0.065376
O O4 0.775657 0.000000 0.000000
O O5 0.591503 0.408498 0.695094
O O6 0.587579 0.587579 0.721927
O O7 0.745257 0.487895 0.749080
O O8 0.989657 0.651389 0.640909
O O9 0.000000 0.500000 0.572892
O O10 0.000000 0.649643 0.500000
O O11 0.585550 0.905108 0.749892
#
# Coordination Sequence:
#
# PCOD9560508 Si02
#       4
#    16  16  16  16
#     4  11  21  35  55  84 116 149 183 222 279 339
#     4  10  22  38  56  81 114 149 184 228 281 332
#     4  11  20  36  59  79 114 149 184 230 275 323
#     4  11  20  35  57  85 109 143 188 230 275 324
#
# _framework density 16.268470000000001
#
# number of rings (size 3 to 8) (size 9 to 14) (size 15 to 20)
#    0.000    1.250    7.500    0.750    0.000    3.250 
#    0.000    1.250    0.000    0.000    0.000    1.750 
#    0.000    0.000    0.000    0.000    0.000    0.000 
#
# Total GULP energy -178575.398689 kJ/mol
# GULP energy per Si atom -5580.481209 kJ/mol
# Density = 1.623144 g / cm^3
# Si number density = 16.268470 Si / 1000 Ang^3
#
#
#
# Elastic Constant Matrix: (Units=GPa)
#
#
# Indices 1 2 3 4 5 6 
#
# 1 112.2172 44.2871 52.0824 0.0000 0.0000 0.0000
# 2 44.2871 112.2170 52.0815 0.0000 0.0000 0.0000
# 3 52.0824 52.0815 134.8745 0.0000 0.0000 0.0000
# 4 0.0000 0.0000 0.0000 20.6723 0.0000 0.0000
# 5 0.0000 0.0000 0.0000 0.0000 20.6728 0.0000
# 6 0.0000 0.0000 0.0000 0.0000 0.0000 4.9751
#
#
#
# Elastic Compliance Matrix: (Units=1/GPa)
#
#
# Indices 1 2 3 4 5 6 
#
# 1 0.011660 -0.003061 -0.003321 0.000000 0.000000 0.000000
# 2 -0.003061 0.011660 -0.003321 0.000000 0.000000 0.000000
# 3 -0.003321 -0.003321 0.009979 0.000000 0.000000 0.000000
# 4 0.000000 0.000000 0.000000 0.048374 0.000000 0.000000
# 5 0.000000 0.000000 0.000000 0.000000 0.048373 0.000000
# 6 0.000000 0.000000 0.000000 0.000000 0.000000 0.201000
#
#
# Mechanical properties :
#
#
# Convention : Reuss Voigt Hill
#
# Bulk Modulus (GPa) = 71.96668 72.91230 72.43949
# Shear Modulus (GPa) = 14.08122 23.32123 18.70122
#
# Velocity S-wave (km/s) = 2.94522 3.79030 3.39416
# Velocity P-wave (km/s) = 7.47654 8.00441 7.74498
#
# Compressibility (1/GPa) = 0.01389532
#
# Stress axis : x y z
#
# Youngs Moduli (GPa) = 85.75984 85.76033 100.21048
#
# Poissons Ratio (x) = 0.26248 0.33279
# Poissons Ratio (y) = 0.26248 0.33278
# Poissons Ratio (z) = 0.28480 0.28479
#
# Static dielectric constant tensor:
#      x y z
#    x 1.526610 0.000000 0.000000 
#    y 0.000000 1.526610 0.000000 
#    z 0.000000 0.000000 1.557860 
# 
# From -- ./inp_files/5084.got.cif
#   From: 2010.05.17/outbox.cif.g08.bks.cpg/sg121_3_cif.got.tgz:5084.got - 2010.05.20 11:32:06.
