data_PCOD9560828
_publ_section_title
;
Structure prediction by ZEFSAII (Michael W. Deem and Ramdas Pophale) SiO2 
 PCOD9560828
Probable space group: I -4 2 D
;
_chemical_formula_sum "Si O2"
_cell_formula_units_Z 120
_cell_length_a 14.895153
_cell_length_b 14.895153
_cell_length_c 30.666726
_cell_angle_alpha 90.000000
_cell_angle_beta 90.000000
_cell_angle_gamma 90.000000
_cell_volume 6803.891039
_symmetry_space_group_name_H-M "I -4 2 D"
_symmetry_group_IT_number 122
_symmetry_cell_setting 'tetragonal'
loop_
_space_group_symop_operation_xyz
x,y,z
y,-x,-z
-x,-y,z
-y,x,-z
x,1/2-y,1/4-z
-x,1/2+y,1/4-z
-y,1/2-x,1/4+z
y,1/2+x,1/4+z
1/2+x,1/2+y,1/2+z
1/2+y,1/2-x,1/2-z
1/2-x,1/2-y,1/2+z
1/2-y,1/2+x,1/2-z
1/2+x,-y,3/4-z
1/2-x,y,3/4-z
1/2-y,-x,3/4+z
1/2+y,x,3/4+z
loop_
_atom_site_type_symbol
_atom_site_label
_atom_site_fract_x
_atom_site_fract_y
_atom_site_fract_z
Si Si1 0.982733 0.301806 0.238653
Si Si2 0.281043 0.319419 0.162008
Si Si3 0.913453 0.100116 0.927090
Si Si4 0.520896 0.405631 0.819598
Si Si5 0.841927 0.369815 0.513390
Si Si6 0.286865 0.790241 0.510803
Si Si7 0.500000 0.500000 0.651805
Si Si8 0.377961 0.959414 0.521752
O O1 0.975196 0.351649 0.285783
O O2 0.884393 0.258347 0.231561
O O3 0.014725 0.370732 0.201808
O O4 0.061777 0.227697 0.239987
O O5 0.303456 0.250000 0.125000
O O6 0.176024 0.341951 0.164468
O O7 0.337054 0.411715 0.157895
O O8 0.301989 0.278216 0.208945
O O9 0.954582 0.068262 0.881810
O O10 0.500000 0.500000 0.842167
O O11 0.425564 0.364449 0.806896
O O12 0.569252 0.429050 0.772597
O O13 0.791308 0.277607 0.523823
O O14 0.935008 0.358117 0.486411
O O15 0.295716 0.891198 0.528255
O O16 0.441272 0.555649 0.686491
#
# Coordination Sequence:
#
# PCOD9560828 Si02
#       8
#    16  16  16  16  16  16   8  16
#     4  11  18  36  50  79 114 158 209 211 260 349
#     4  10  20  31  50  86 111 130 186 237 281 329
#     4  11  23  30  51  80 121 163 190 222 273 325
#     4   9  17  35  60  78  98 143 190 236 281 348
#     4  11  17  34  63  76 105 149 191 241 265 340
#     4  10  21  35  59  79 104 150 191 239 275 338
#     4  12  22  33  52  78 124 158 176 236 276 325
#     4  10  20  37  54  82 107 142 201 227 287 340
#
# _framework density 17.636966999999999
#
# number of rings (size 3 to 8) (size 9 to 14) (size 15 to 20)
#    0.000    1.600    8.667    0.800    1.867    1.067 
#    0.000    0.000    0.000    5.200    0.000    0.000 
#    0.000    0.000    0.000    0.000    0.000    0.000 
#
# Total GULP energy -334067.062964 kJ/mol
# GULP energy per Si atom -5567.784383 kJ/mol
# Density = 1.759682 g / cm^3
# Si number density = 17.636967 Si / 1000 Ang^3
#
#
#
# Elastic Constant Matrix: (Units=GPa)
#
#
# Indices 1 2 3 4 5 6 
#
# 1 77.7562 53.0545 23.6257 0.0000 0.0000 0.0000
# 2 53.0545 77.7562 23.6257 0.0000 0.0000 0.0000
# 3 23.6257 23.6257 55.5292 0.0000 0.0000 0.0000
# 4 0.0000 0.0000 0.0000 5.8508 0.0000 0.0000
# 5 0.0000 0.0000 0.0000 0.0000 5.8508 0.0000
# 6 0.0000 0.0000 0.0000 0.0000 0.0000 29.5889
#
#
#
# Elastic Compliance Matrix: (Units=1/GPa)
#
#
# Indices 1 2 3 4 5 6 
#
# 1 0.024758 -0.015725 -0.003843 0.000000 0.000000 0.000000
# 2 -0.015725 0.024758 -0.003843 0.000000 0.000000 0.000000
# 3 -0.003843 -0.003843 0.021279 0.000000 0.000000 0.000000
# 4 0.000000 0.000000 0.000000 0.170918 0.000000 0.000000
# 5 0.000000 0.000000 0.000000 0.000000 0.170918 0.000000
# 6 0.000000 0.000000 0.000000 0.000000 0.000000 0.033796
#
#
# Mechanical properties :
#
#
# Convention : Reuss Voigt Hill
#
# Bulk Modulus (GPa) = 41.71556 45.73928 43.72742
# Shear Modulus (GPa) = 9.97525 15.64048 12.80786
#
# Velocity S-wave (km/s) = 2.38079 2.98115 2.69772
# Velocity P-wave (km/s) = 5.59117 6.15140 5.87797
#
# Compressibility (1/GPa) = 0.02397187
#
# Stress axis : x y z
#
# Youngs Moduli (GPa) = 40.39110 40.39110 46.99516
#
# Poissons Ratio (x) = 0.63515 0.18061
# Poissons Ratio (y) = 0.63515 0.18061
# Poissons Ratio (z) = 0.15523 0.15523
#
# Static dielectric constant tensor:
#      x y z
#    x 1.679590 0.000000 0.000000 
#    y 0.000000 1.679590 0.000000 
#    z 0.000000 0.000000 1.590850 
# 
# From -- ./inp_files/9740.got.cif
#   From: 2010.05.17/outbox.cif.g08.bks.cpg/sg122_5_cif.got.tgz:9740.got - 2010.05.20 11:37:33.
