data_PCOD9560354
_publ_section_title
;
Structure prediction by ZEFSAII (Michael W. Deem and Ramdas Pophale) SiO2 
 PCOD9560354
Probable space group: I -4 2 M
;
_chemical_formula_sum "Si O2"
_cell_formula_units_Z 72
_cell_length_a 13.709611
_cell_length_b 13.709611
_cell_length_c 21.861997
_cell_angle_alpha 90.000000
_cell_angle_beta 90.000000
_cell_angle_gamma 90.000000
_cell_volume 4109.037405
_symmetry_space_group_name_H-M "I -4 2 M"
_symmetry_group_IT_number 121
_symmetry_cell_setting 'tetragonal'
loop_
_space_group_symop_operation_xyz
x,y,z
y,-x,-z
-x,-y,z
-y,x,-z
x,-y,-z
-x,y,-z
-y,-x,z
y,x,z
1/2+x,1/2+y,1/2+z
1/2+y,1/2-x,1/2-z
1/2-x,1/2-y,1/2+z
1/2-y,1/2+x,1/2-z
1/2+x,1/2-y,1/2-z
1/2-x,1/2+y,1/2-z
1/2-y,1/2-x,1/2+z
1/2+y,1/2+x,1/2+z
loop_
_atom_site_type_symbol
_atom_site_label
_atom_site_fract_x
_atom_site_fract_y
_atom_site_fract_z
Si Si1 0.002601 0.161352 0.680293
Si Si2 0.238941 0.921575 0.448171
Si Si3 0.391908 0.771614 0.394859
Si Si4 0.000000 0.837890 0.000000
Si Si5 0.975331 0.344782 0.766759
O O1 0.912506 0.087495 0.677342
O O2 0.982989 0.246928 0.727600
O O3 0.024906 0.205307 0.613767
O O4 0.097437 0.097437 0.698146
O O5 0.150212 0.849789 0.467311
O O6 0.329655 0.853289 0.430490
O O7 0.260343 0.000000 0.500000
O O8 0.314351 0.685650 0.377958
O O9 0.469891 0.725731 0.441507
O O10 0.439726 0.817655 0.334653
O O11 0.091539 0.908462 0.013905
O O12 0.899207 0.420581 0.736429
#
# Coordination Sequence:
#
# PCOD9560354 Si02
#       5
#    16  16  16   8  16
#     4  10  21  37  59  87 116 155 204 248 297 358
#     4  10  20  36  58  85 119 155 192 241 299 356
#     4  10  21  40  62  85 119 158 196 248 302 351
#     4   9  20  40  63  88 116 150 199 250 296 355
#     4  11  23  39  59  85 121 159 201 246 302 352
#
# _framework density 17.522352999999999
#
# number of rings (size 3 to 8) (size 9 to 14) (size 15 to 20)
#    0.000    1.889    2.222    1.333    0.000    4.667 
#    0.000    4.444    0.000    0.000    0.000    0.000 
#    0.000    0.000    0.000    0.000    0.000    0.000 
#
# Total GULP energy -201005.925758 kJ/mol
# GULP energy per Si atom -5583.497938 kJ/mol
# Density = 1.748247 g / cm^3
# Si number density = 17.522353 Si / 1000 Ang^3
#
#
#
# Elastic Constant Matrix: (Units=GPa)
#
#
# Indices 1 2 3 4 5 6 
#
# 1 111.8162 51.9445 78.5308 0.0000 0.0000 0.0000
# 2 51.9445 111.8168 78.5296 0.0000 0.0000 0.0000
# 3 78.5308 78.5296 117.2909 0.0000 0.0000 0.0000
# 4 0.0000 0.0000 0.0000 33.7309 0.0000 0.0000
# 5 0.0000 0.0000 0.0000 0.0000 33.7315 0.0000
# 6 0.0000 0.0000 0.0000 0.0000 0.0000 8.9410
#
#
#
# Elastic Compliance Matrix: (Units=1/GPa)
#
#
# Indices 1 2 3 4 5 6 
#
# 1 0.016883 0.000181 -0.011425 0.000000 0.000000 0.000000
# 2 0.000181 0.016883 -0.011424 0.000000 0.000000 0.000000
# 3 -0.011425 -0.011424 0.023824 0.000000 0.000000 0.000000
# 4 0.000000 0.000000 0.000000 0.029646 0.000000 0.000000
# 5 0.000000 0.000000 0.000000 0.000000 0.029646 0.000000
# 6 0.000000 0.000000 0.000000 0.000000 0.000000 0.111845
#
#
# Mechanical properties :
#
#
# Convention : Reuss Voigt Hill
#
# Bulk Modulus (GPa) = 81.61397 84.32597 82.96997
# Shear Modulus (GPa) = 17.97596 24.07526 21.02561
#
# Velocity S-wave (km/s) = 3.20642 3.71074 3.46776
# Velocity P-wave (km/s) = 7.77087 8.16019 7.96791
#
# Compressibility (1/GPa) = 0.01225280
#
# Stress axis : x y z
#
# Youngs Moduli (GPa) = 59.23001 59.23215 41.97388
#
# Poissons Ratio (x) = -0.01070 0.47955
# Poissons Ratio (y) = -0.01070 0.47953
# Poissons Ratio (z) = 0.67671 0.67670
#
# Static dielectric constant tensor:
#      x y z
#    x 1.592920 0.000000 0.000000 
#    y 0.000000 1.592920 0.000000 
#    z 0.000000 0.000000 1.552640 
# 
# From -- ./inp_files/5175.got.cif
#   From: 2010.05.17/outbox.cif.g08.bks.cpg/sg121_3_cif.got.tgz:5175.got - 2010.05.20 11:32:06.
