data_PCOD9560757
_publ_section_title
;
Structure prediction by ZEFSAII (Michael W. Deem and Ramdas Pophale) SiO2 
 PCOD9560757
Probable space group: I -4 2 D
;
_chemical_formula_sum "Si O2"
_cell_formula_units_Z 28
_cell_length_a 14.973879
_cell_length_b 14.973879
_cell_length_c 4.958824
_cell_angle_alpha 90.000000
_cell_angle_beta 90.000000
_cell_angle_gamma 90.000000
_cell_volume 1111.852900
_symmetry_space_group_name_H-M "I -4 2 D"
_symmetry_group_IT_number 122
_symmetry_cell_setting 'tetragonal'
loop_
_space_group_symop_operation_xyz
x,y,z
y,-x,-z
-x,-y,z
-y,x,-z
x,1/2-y,1/4-z
-x,1/2+y,1/4-z
-y,1/2-x,1/4+z
y,1/2+x,1/4+z
1/2+x,1/2+y,1/2+z
1/2+y,1/2-x,1/2-z
1/2-x,1/2-y,1/2+z
1/2-y,1/2+x,1/2-z
1/2+x,-y,3/4-z
1/2-x,y,3/4-z
1/2-y,-x,3/4+z
1/2+y,x,3/4+z
loop_
_atom_site_type_symbol
_atom_site_label
_atom_site_fract_x
_atom_site_fract_y
_atom_site_fract_z
Si Si1 0.310157 0.015207 0.104208
Si Si2 0.500000 0.500000 0.000000
Si Si3 0.750000 0.810955 0.875000
O O1 0.250000 0.013963 0.375000
O O2 0.408564 0.974334 0.102972
O O3 0.250000 0.971622 0.875000
O O4 0.319920 0.118280 0.002270
O O5 0.722903 0.750000 0.625000
#
# Coordination Sequence:
#
# PCOD9560757 Si02
#       3
#    16   4   8
#     4  10  25  47  70 116 144 203 252 305 385 459
#     4  12  28  54  80 110 164 198 252 330 376 454
#     4  10  18  44  74 108 154 198 248 322 372 454
#
# _framework density 25.18319
#
# number of rings (size 3 to 8) (size 9 to 14) (size 15 to 20)
#    1.714    0.000    2.857    0.000    0.000    9.143 
#   10.286    0.000    0.000    0.000    0.000    0.000 
#    0.000    0.000    0.000    0.000    0.000    0.000 
#
# Total GULP energy -78095.388088 kJ/mol
# GULP energy per Si atom -5578.242006 kJ/mol
# Density = 2.512587 g / cm^3
# Si number density = 25.183190 Si / 1000 Ang^3
#
#
#
# Elastic Constant Matrix: (Units=GPa)
#
#
# Indices 1 2 3 4 5 6 
#
# 1 122.7694 4.6366 37.7483 0.0000 0.0000 0.0000
# 2 4.6366 122.7694 37.7483 0.0000 0.0000 0.0000
# 3 37.7483 37.7483 185.0374 0.0000 0.0000 0.0000
# 4 0.0000 0.0000 0.0000 8.8314 0.0000 0.0000
# 5 0.0000 0.0000 0.0000 0.0000 8.8314 0.0000
# 6 0.0000 0.0000 0.0000 0.0000 0.0000 -2.5116
#
#
#
# Elastic Compliance Matrix: (Units=1/GPa)
#
#
# Indices 1 2 3 4 5 6 
#
# 1 0.008697 0.000232 -0.001821 0.000000 0.000000 0.000000
# 2 0.000232 0.008697 -0.001821 0.000000 0.000000 0.000000
# 3 -0.001821 -0.001821 0.006147 0.000000 0.000000 0.000000
# 4 0.000000 0.000000 0.000000 0.113232 0.000000 0.000000
# 5 0.000000 0.000000 0.000000 0.000000 0.113232 0.000000
# 6 0.000000 0.000000 0.000000 0.000000 0.000000 -0.398150
#
#
# Mechanical properties :
#
#
# Convention : Reuss Voigt Hill
#
# Bulk Modulus (GPa) = 59.81456 65.64917 62.73186
# Shear Modulus (GPa) = -36.83233 26.39313 -5.21960
#
# Velocity S-wave (km/s) = -3.82851 3.24087 -1.44123
# Velocity P-wave (km/s) = 2.06398 6.33479 4.71113
#
# Compressibility (1/GPa) = 0.01671834
#
# Stress axis : x y z
#
# Youngs Moduli (GPa) = 114.98703 114.98703 162.66906
#
# Poissons Ratio (x) = -0.02663 0.29628
# Poissons Ratio (y) = -0.02663 0.29628
# Poissons Ratio (z) = 0.20944 0.20944
#
# Static dielectric constant tensor:
#      x y z
#    x 2.173700 0.000000 0.000000 
#    y 0.000000 2.173700 0.000000 
#    z 0.000000 0.000000 2.010200 
# 
# From -- ./inp_files/245.got.cif
#   From: 2010.05.17/outbox.cif.g08.bks.cpg/sg122_1_cif.got.tgz:245.got - 2010.05.20 11:37:33.
