data_PCOD9560320
_publ_section_title
;
Structure prediction by ZEFSAII (Michael W. Deem and Ramdas Pophale) SiO2 
 PCOD9560320
Probable space group: I -4 2 M
;
_chemical_formula_sum "Si O2"
_cell_formula_units_Z 64
_cell_length_a 10.796580
_cell_length_b 10.796580
_cell_length_c 22.458764
_cell_angle_alpha 90.000000
_cell_angle_beta 90.000000
_cell_angle_gamma 90.000000
_cell_volume 2617.931422
_symmetry_space_group_name_H-M "I -4 2 M"
_symmetry_group_IT_number 121
_symmetry_cell_setting 'tetragonal'
loop_
_space_group_symop_operation_xyz
x,y,z
y,-x,-z
-x,-y,z
-y,x,-z
x,-y,-z
-x,y,-z
-y,-x,z
y,x,z
1/2+x,1/2+y,1/2+z
1/2+y,1/2-x,1/2-z
1/2-x,1/2-y,1/2+z
1/2-y,1/2+x,1/2-z
1/2+x,1/2-y,1/2-z
1/2-x,1/2+y,1/2-z
1/2-y,1/2-x,1/2+z
1/2+y,1/2+x,1/2+z
loop_
_atom_site_type_symbol
_atom_site_label
_atom_site_fract_x
_atom_site_fract_y
_atom_site_fract_z
Si Si1 0.828787 0.614321 0.046254
Si Si2 0.309428 0.490545 0.856676
Si Si3 0.701148 0.988316 0.764963
Si Si4 0.797111 0.008662 0.101332
O O1 0.717088 0.717088 0.035468
O O2 0.807749 0.542199 0.109233
O O3 0.953333 0.691564 0.059142
O O4 0.828348 0.500000 0.000000
O O5 0.414862 0.585139 0.877017
O O6 0.353419 0.353419 0.873637
O O7 0.302280 0.500815 0.786126
O O8 0.613144 0.877311 0.743717
O O9 0.746579 0.970499 0.831824
O O10 0.900144 0.900144 0.106074
O O11 0.869168 0.130833 0.079526
#
# Coordination Sequence:
#
# PCOD9560320 Si02
#       4
#    16  16  16  16
#     4  10  20  37  63 101 151 199 249 309 369 440
#     4  10  20  34  57  93 137 189 242 292 359 436
#     4  11  22  36  58  93 141 191 241 298 359 436
#     4  10  21  38  63  99 146 200 252 304 371 448
#
# _framework density 24.446783
#
# number of rings (size 3 to 8) (size 9 to 14) (size 15 to 20)
#    0.000    1.750    2.500    2.250    0.000    6.250 
#    0.000    0.000    0.000    3.000    0.000   14.000 
#    0.000   22.500    0.000    0.000    0.000    0.000 
#
# Total GULP energy -178796.496220 kJ/mol
# GULP energy per Si atom -5587.390507 kJ/mol
# Density = 2.439114 g / cm^3
# Si number density = 24.446783 Si / 1000 Ang^3
#
#
#
# Elastic Constant Matrix: (Units=GPa)
#
#
# Indices 1 2 3 4 5 6 
#
# 1 110.3593 80.9556 55.7204 0.0000 0.0000 0.0000
# 2 80.9556 110.3592 55.7209 0.0000 0.0000 0.0000
# 3 55.7204 55.7209 143.6789 0.0000 0.0000 0.0000
# 4 0.0000 0.0000 0.0000 40.7028 0.0000 0.0000
# 5 0.0000 0.0000 0.0000 0.0000 40.7026 0.0000
# 6 0.0000 0.0000 0.0000 0.0000 0.0000 179.8722
#
#
#
# Elastic Compliance Matrix: (Units=1/GPa)
#
#
# Indices 1 2 3 4 5 6 
#
# 1 0.020381 -0.013628 -0.002619 0.000000 0.000000 0.000000
# 2 -0.013628 0.020381 -0.002619 0.000000 0.000000 0.000000
# 3 -0.002619 -0.002619 0.008991 0.000000 0.000000 0.000000
# 4 0.000000 0.000000 0.000000 0.024568 0.000000 0.000000
# 5 0.000000 0.000000 0.000000 0.000000 0.024568 0.000000
# 6 0.000000 0.000000 0.000000 0.000000 0.000000 0.005560
#
#
# Mechanical properties :
#
#
# Convention : Reuss Voigt Hill
#
# Bulk Modulus (GPa) = 83.18670 83.24348 83.21509
# Shear Modulus (GPa) = 34.20260 63.72224 48.96242
#
# Velocity S-wave (km/s) = 3.74446 5.11100 4.48014
# Velocity P-wave (km/s) = 7.26610 8.30389 7.80227
#
# Compressibility (1/GPa) = 0.01202115
#
# Stress axis : x y z
#
# Youngs Moduli (GPa) = 49.06578 49.06553 111.22152
#
# Poissons Ratio (x) = 0.66869 0.29124
# Poissons Ratio (y) = 0.66869 0.29126
# Poissons Ratio (z) = 0.12848 0.12849
#
# Static dielectric constant tensor:
#      x y z
#    x 1.892250 0.000000 0.000000 
#    y 0.000000 1.892290 0.000000 
#    z 0.000000 0.000000 1.872970 
# 
# From -- ./inp_files/6005.got.cif
#   From: 2010.05.17/outbox.cif.g08.bks.cpg/sg121_4_cif.got.tgz:6005.got - 2010.05.20 11:32:06.
