data_PCOD9560274
_publ_section_title
;
Structure prediction by ZEFSAII (Michael W. Deem and Ramdas Pophale) SiO2 
 PCOD9560274
Probable space group: I -4 2 M
;
_chemical_formula_sum "Si O2"
_cell_formula_units_Z 120
_cell_length_a 25.912347
_cell_length_b 25.912347
_cell_length_c 8.351754
_cell_angle_alpha 90.000000
_cell_angle_beta 90.000000
_cell_angle_gamma 90.000000
_cell_volume 5607.782944
_symmetry_space_group_name_H-M "I -4 2 M"
_symmetry_group_IT_number 121
_symmetry_cell_setting 'tetragonal'
loop_
_space_group_symop_operation_xyz
x,y,z
y,-x,-z
-x,-y,z
-y,x,-z
x,-y,-z
-x,y,-z
-y,-x,z
y,x,z
1/2+x,1/2+y,1/2+z
1/2+y,1/2-x,1/2-z
1/2-x,1/2-y,1/2+z
1/2-y,1/2+x,1/2-z
1/2+x,1/2-y,1/2-z
1/2-x,1/2+y,1/2-z
1/2-y,1/2-x,1/2+z
1/2+y,1/2+x,1/2+z
loop_
_atom_site_type_symbol
_atom_site_label
_atom_site_fract_x
_atom_site_fract_y
_atom_site_fract_z
Si Si1 0.530707 0.684223 0.155645
Si Si2 0.954998 0.358037 0.789929
Si Si3 0.695960 0.781630 0.532461
Si Si4 0.652508 0.740239 0.845969
Si Si5 0.417106 0.500000 0.000000
Si Si6 0.246883 0.603681 0.672261
Si Si7 0.444791 0.737318 0.320900
Si Si8 0.367969 0.068091 0.832786
O O1 0.585283 0.710654 0.198990
O O2 0.494056 0.701827 0.300053
O O3 0.500000 0.706525 0.000000
O O4 0.527107 0.623070 0.123357
O O5 0.956632 0.296242 0.768705
O O6 0.910261 0.388457 0.699394
O O7 0.012281 0.379558 0.755337
O O8 0.941996 0.365210 0.977447
O O9 0.742720 0.742720 0.558140
O O10 0.662103 0.776775 0.690090
O O11 0.721184 0.836385 0.491484
O O12 0.662979 0.760023 0.382438
O O13 0.695146 0.695146 0.850036
O O14 0.597795 0.716827 0.805000
O O15 0.455159 0.544842 0.064451
O O16 0.261054 0.576897 0.500833
O O17 0.189619 0.584727 0.718095
#
# Coordination Sequence:
#
# PCOD9560274 Si02
#       8
#    16  16  16  16   8  16  16  16
#     4  10  22  35  60  93 110 145 193 230 282 340
#     4  10  21  36  54  77 108 153 200 250 311 361
#     4   9  18  31  49  76 110 151 189 224 275 340
#     4   9  18  31  49  76 110 151 189 224 275 340
#     4   9  22  46  68  90 128 164 191 232 290 350
#     4  10  19  36  57  81 118 150 184 241 300 352
#     4  10  19  36  57  81 118 150 184 241 300 352
#     4  10  21  36  54  77 108 153 200 250 311 361
#
# _framework density 21.398833
#
# number of rings (size 3 to 8) (size 9 to 14) (size 15 to 20)
#    0.400    1.933    1.333    1.200    0.000    4.000 
#    0.000    1.333    0.000    2.400    0.000    3.733 
#    0.000    0.000    0.000    0.000    0.000    0.000 
#
# Total GULP energy -334511.040975 kJ/mol
# GULP energy per Si atom -5575.184016 kJ/mol
# Density = 2.135013 g / cm^3
# Si number density = 21.398833 Si / 1000 Ang^3
#
#
#
# Elastic Constant Matrix: (Units=GPa)
#
#
# Indices 1 2 3 4 5 6 
#
# 1 74.7527 6.5945 7.5415 0.0000 0.0000 0.0000
# 2 6.5945 74.7541 7.5418 0.0000 0.0000 0.0000
# 3 7.5415 7.5418 31.7133 0.0000 0.0000 0.0000
# 4 0.0000 0.0000 0.0000 23.2955 0.0000 0.0000
# 5 0.0000 0.0000 0.0000 0.0000 23.2953 0.0000
# 6 0.0000 0.0000 0.0000 0.0000 0.0000 26.0849
#
#
#
# Elastic Compliance Matrix: (Units=1/GPa)
#
#
# Indices 1 2 3 4 5 6 
#
# 1 0.013766 -0.000906 -0.003058 0.000000 0.000000 0.000000
# 2 -0.000906 0.013766 -0.003058 0.000000 0.000000 0.000000
# 3 -0.003058 -0.003058 0.032987 0.000000 0.000000 0.000000
# 4 0.000000 0.000000 0.000000 0.042927 0.000000 0.000000
# 5 0.000000 0.000000 0.000000 0.000000 0.042927 0.000000
# 6 0.000000 0.000000 0.000000 0.000000 0.000000 0.038336
#
#
# Mechanical properties :
#
#
# Convention : Reuss Voigt Hill
#
# Bulk Modulus (GPa) = 21.51735 24.95286 23.23510
# Shear Modulus (GPa) = 23.33783 25.17130 24.25457
#
# Velocity S-wave (km/s) = 3.30602 3.43343 3.37033
# Velocity P-wave (km/s) = 4.96490 5.23489 5.10169
#
# Compressibility (1/GPa) = 0.04647413
#
# Stress axis : x y z
#
# Youngs Moduli (GPa) = 72.64341 72.64464 30.31498
#
# Poissons Ratio (x) = 0.06580 0.09271
# Poissons Ratio (y) = 0.06580 0.09271
# Poissons Ratio (z) = 0.22215 0.22216
#
# Static dielectric constant tensor:
#      x y z
#    x 1.811730 0.000000 0.000000 
#    y 0.000000 1.811730 0.000000 
#    z 0.000000 0.000000 1.842680 
# 
# From -- ./inp_files/2158.got.cif
#   From: 2010.05.17/outbox.cif.g08.bks.cpg/sg121_2_cif.got.tgz:2158.got - 2010.05.20 11:32:06.
