data_PCOD9560627
_publ_section_title
;
Structure prediction by ZEFSAII (Michael W. Deem and Ramdas Pophale) SiO2 
 PCOD9560627
Probable space group: I -4 2 M
;
_chemical_formula_sum "Si O2"
_cell_formula_units_Z 32
_cell_length_a 12.739013
_cell_length_b 12.739013
_cell_length_c 8.712507
_cell_angle_alpha 90.000000
_cell_angle_beta 90.000000
_cell_angle_gamma 90.000000
_cell_volume 1413.887001
_symmetry_space_group_name_H-M "I -4 2 M"
_symmetry_group_IT_number 121
_symmetry_cell_setting 'tetragonal'
loop_
_space_group_symop_operation_xyz
x,y,z
y,-x,-z
-x,-y,z
-y,x,-z
x,-y,-z
-x,y,-z
-y,-x,z
y,x,z
1/2+x,1/2+y,1/2+z
1/2+y,1/2-x,1/2-z
1/2-x,1/2-y,1/2+z
1/2-y,1/2+x,1/2-z
1/2+x,1/2-y,1/2-z
1/2-x,1/2+y,1/2-z
1/2-y,1/2-x,1/2+z
1/2+y,1/2+x,1/2+z
loop_
_atom_site_type_symbol
_atom_site_label
_atom_site_fract_x
_atom_site_fract_y
_atom_site_fract_z
Si Si1 0.767080 0.232921 0.731275
Si Si2 0.054547 0.630093 0.660051
Si Si3 0.872255 0.872255 0.973216
O O1 0.874508 0.270070 0.657294
O O2 0.678036 0.321965 0.686169
O O3 0.803204 0.196797 0.903132
O O4 0.128151 0.533152 0.708432
O O5 0.000000 0.614937 0.500000
O O6 0.000000 0.856038 0.000000
#
# Coordination Sequence:
#
# PCOD9560627 Si02
#       3
#     8  16   8
#     4  12  24  44  72 102 134 182 234 284 344 412
#     4  11  23  41  67  99 133 175 228 285 343 410
#     4  11  26  48  72 103 144 186 232 289 352 418
#
# _framework density 22.632645
#
# number of rings (size 3 to 8) (size 9 to 14) (size 15 to 20)
#    0.000    0.750    0.000    9.000    0.000    4.000 
#    0.000    2.500    0.000    3.000    0.000    0.000 
#    0.000    0.000    0.000    0.000    0.000    0.000 
#
# Total GULP energy -89169.616542 kJ/mol
# GULP energy per Si atom -5573.101034 kJ/mol
# Density = 2.258113 g / cm^3
# Si number density = 22.632645 Si / 1000 Ang^3
#
#
#
# Elastic Constant Matrix: (Units=GPa)
#
#
# Indices 1 2 3 4 5 6 
#
# 1 120.2804 76.3409 79.8362 0.0000 0.0000 0.0000
# 2 76.3409 120.2734 79.8359 0.0000 0.0000 0.0000
# 3 79.8362 79.8359 120.6510 0.0000 0.0000 0.0000
# 4 0.0000 0.0000 0.0000 20.7815 0.0000 0.0000
# 5 0.0000 0.0000 0.0000 0.0000 20.7815 0.0000
# 6 0.0000 0.0000 0.0000 0.0000 0.0000 45.7931
#
#
#
# Elastic Compliance Matrix: (Units=1/GPa)
#
#
# Indices 1 2 3 4 5 6 
#
# 1 0.016876 -0.005883 -0.007274 0.000000 0.000000 0.000000
# 2 -0.005883 0.016878 -0.007275 0.000000 0.000000 0.000000
# 3 -0.007274 -0.007275 0.017916 0.000000 0.000000 0.000000
# 4 0.000000 0.000000 0.000000 0.048120 0.000000 0.000000
# 5 0.000000 0.000000 0.000000 0.000000 0.048120 0.000000
# 6 0.000000 0.000000 0.000000 0.000000 0.000000 0.021837
#
#
# Mechanical properties :
#
#
# Convention : Reuss Voigt Hill
#
# Bulk Modulus (GPa) = 92.55317 92.58122 92.56719
# Shear Modulus (GPa) = 23.34120 25.81734 24.57927
#
# Velocity S-wave (km/s) = 3.21488 3.38111 3.29904
# Velocity P-wave (km/s) = 7.40021 7.49916 7.44985
#
# Compressibility (1/GPa) = 0.01080460
#
# Stress axis : x y z
#
# Youngs Moduli (GPa) = 59.25493 59.24918 55.81666
#
# Poissons Ratio (x) = 0.34858 0.40602
# Poissons Ratio (y) = 0.34862 0.40608
# Poissons Ratio (z) = 0.43103 0.43105
#
# Static dielectric constant tensor:
#      x y z
#    x 1.888510 0.000000 0.000000 
#    y 0.000000 1.888520 0.000000 
#    z 0.000000 0.000000 1.898210 
# 
# From -- ./inp_files/859.got.cif
#   From: 2010.05.17/outbox.cif.g08.bks.cpg/sg121_1_cif.got.tgz:859.got - 2010.05.20 11:32:06.
