data_PCOD9560512
_publ_section_title
;
Structure prediction by ZEFSAII (Michael W. Deem and Ramdas Pophale) SiO2 
 PCOD9560512
Probable space group: I -4 2 M
;
_chemical_formula_sum "Si O2"
_cell_formula_units_Z 52
_cell_length_a 17.350746
_cell_length_b 17.350746
_cell_length_c 8.400682
_cell_angle_alpha 90.000000
_cell_angle_beta 90.000000
_cell_angle_gamma 90.000000
_cell_volume 2529.011764
_symmetry_space_group_name_H-M "I -4 2 M"
_symmetry_group_IT_number 121
_symmetry_cell_setting 'tetragonal'
loop_
_space_group_symop_operation_xyz
x,y,z
y,-x,-z
-x,-y,z
-y,x,-z
x,-y,-z
-x,y,-z
-y,-x,z
y,x,z
1/2+x,1/2+y,1/2+z
1/2+y,1/2-x,1/2-z
1/2-x,1/2-y,1/2+z
1/2-y,1/2+x,1/2-z
1/2+x,1/2-y,1/2-z
1/2-x,1/2+y,1/2-z
1/2-y,1/2-x,1/2+z
1/2+y,1/2+x,1/2+z
loop_
_atom_site_type_symbol
_atom_site_label
_atom_site_fract_x
_atom_site_fract_y
_atom_site_fract_z
Si Si1 0.500000 0.500000 0.000000
Si Si2 0.875528 0.875528 0.503224
Si Si3 0.619313 0.380688 0.381037
Si Si4 0.296408 0.085702 0.457103
Si Si5 0.500000 0.500000 0.500000
Si Si6 0.209847 0.418321 0.575434
O O1 0.437498 0.562503 0.930651
O O2 0.875148 0.875148 0.310085
O O3 0.787426 0.899333 0.539039
O O4 0.555254 0.444746 0.403025
O O5 0.596289 0.299770 0.459695
O O6 0.353019 0.153294 0.510378
O O7 0.292789 0.084819 0.266334
O O8 0.323546 0.000000 0.500000
O O9 0.187285 0.500000 0.500000
#
# Coordination Sequence:
#
# PCOD9560512 Si02
#       6
#     2   8   8  16   2  16
#     4  12  18  40  64  98 128 160 202 252 314 372
#     4  10  22  38  62  94 130 164 205 252 314 374
#     4  10  22  38  62  94 130 164 205 252 314 374
#     4  11  23  42  64  93 126 167 211 260 311 371
#     4  12  18  40  64  98 128 160 202 252 314 372
#     4  11  23  42  64  93 126 167 211 260 311 371
#
# _framework density 20.561392000000001
#
# number of rings (size 3 to 8) (size 9 to 14) (size 15 to 20)
#    0.000    1.231    3.077    3.231    0.000    0.615 
#    0.000    7.692    0.000    0.000    0.000    0.000 
#    0.000    0.000    0.000    0.000    0.000    0.000 
#
# Total GULP energy -145185.651924 kJ/mol
# GULP energy per Si atom -5584.063536 kJ/mol
# Density = 2.051459 g / cm^3
# Si number density = 20.561392 Si / 1000 Ang^3
#
#
#
# Elastic Constant Matrix: (Units=GPa)
#
#
# Indices 1 2 3 4 5 6 
#
# 1 146.3119 97.0980 22.0331 0.0000 0.0000 0.0000
# 2 97.0980 146.3115 22.0336 0.0000 0.0000 0.0000
# 3 22.0331 22.0336 43.4900 0.0000 0.0000 0.0000
# 4 0.0000 0.0000 0.0000 17.8219 0.0000 0.0000
# 5 0.0000 0.0000 0.0000 0.0000 17.8213 0.0000
# 6 0.0000 0.0000 0.0000 0.0000 0.0000 44.7730
#
#
#
# Elastic Compliance Matrix: (Units=1/GPa)
#
#
# Indices 1 2 3 4 5 6 
#
# 1 0.012421 -0.007898 -0.002291 0.000000 0.000000 0.000000
# 2 -0.007898 0.012421 -0.002292 0.000000 0.000000 0.000000
# 3 -0.002291 -0.002292 0.025316 0.000000 0.000000 0.000000
# 4 0.000000 0.000000 0.000000 0.056111 0.000000 0.000000
# 5 0.000000 0.000000 0.000000 0.000000 0.056113 0.000000
# 6 0.000000 0.000000 0.000000 0.000000 0.000000 0.022335
#
#
# Mechanical properties :
#
#
# Convention : Reuss Voigt Hill
#
# Bulk Modulus (GPa) = 39.68918 68.71587 54.20252
# Shear Modulus (GPa) = 22.92757 29.07982 26.00369
#
# Velocity S-wave (km/s) = 3.34290 3.76479 3.56010
# Velocity P-wave (km/s) = 5.85189 7.23813 6.58161
#
# Compressibility (1/GPa) = 0.02519579
#
# Stress axis : x y z
#
# Youngs Moduli (GPa) = 80.50682 80.50626 39.50113
#
# Poissons Ratio (x) = 0.63585 0.09051
# Poissons Ratio (y) = 0.63586 0.09053
# Poissons Ratio (z) = 0.18447 0.18450
#
# Static dielectric constant tensor:
#      x y z
#    x 1.723030 0.000000 0.000000 
#    y 0.000000 1.723030 0.000000 
#    z 0.000000 0.000000 1.732460 
# 
# From -- ./inp_files/1304.got.cif
#   From: 2010.05.17/outbox.cif.g08.bks.cpg/sg121_1_cif.got.tgz:1304.got - 2010.05.20 11:32:06.
