data_PCOD9560435
_publ_section_title
;
Structure prediction by ZEFSAII (Michael W. Deem and Ramdas Pophale) SiO2 
 PCOD9560435
Probable space group: I -4 2 M
;
_chemical_formula_sum "Si O2"
_cell_formula_units_Z 88
_cell_length_a 11.846786
_cell_length_b 11.846786
_cell_length_c 32.138650
_cell_angle_alpha 90.000000
_cell_angle_beta 90.000000
_cell_angle_gamma 90.000000
_cell_volume 4510.541853
_symmetry_space_group_name_H-M "I -4 2 M"
_symmetry_group_IT_number 121
_symmetry_cell_setting 'tetragonal'
loop_
_space_group_symop_operation_xyz
x,y,z
y,-x,-z
-x,-y,z
-y,x,-z
x,-y,-z
-x,y,-z
-y,-x,z
y,x,z
1/2+x,1/2+y,1/2+z
1/2+y,1/2-x,1/2-z
1/2-x,1/2-y,1/2+z
1/2-y,1/2+x,1/2-z
1/2+x,1/2-y,1/2-z
1/2-x,1/2+y,1/2-z
1/2-y,1/2-x,1/2+z
1/2+y,1/2+x,1/2+z
loop_
_atom_site_type_symbol
_atom_site_label
_atom_site_fract_x
_atom_site_fract_y
_atom_site_fract_z
Si Si1 0.311794 0.014902 0.255508
Si Si2 0.811631 0.002588 0.656028
Si Si3 0.961786 0.780535 0.167799
Si Si4 0.854703 0.145298 0.108448
Si Si5 0.581672 0.892553 0.111566
Si Si6 0.760806 0.046874 0.954521
O O1 0.401441 0.116804 0.252937
O O2 0.227061 0.029301 0.217055
O O3 0.251654 0.011256 0.299790
O O4 0.895587 0.895587 0.656710
O O5 0.720476 0.987846 0.619604
O O6 0.887182 0.112819 0.649744
O O7 0.893772 0.893772 0.155069
O O8 0.896986 0.672670 0.149289
O O9 0.080655 0.781463 0.145010
O O10 0.943198 0.197584 0.073934
O O11 0.654634 0.898676 0.069583
O O12 0.500000 0.000000 0.114222
O O13 0.861462 0.138539 0.957018
O O14 0.733016 0.000000 0.000000
#
# Coordination Sequence:
#
# PCOD9560435 Si02
#       6
#    16  16  16   8  16  16
#     4  11  23  39  58  86 123 170 216 270 328 376
#     4  11  24  42  63  90 124 172 234 277 316 373
#     4  11  21  37  61  86 121 163 209 261 322 381
#     4  10  21  36  58  98 130 154 195 252 329 398
#     4  11  23  43  62  90 129 170 213 260 319 386
#     4  11  21  38  68 101 134 164 198 254 329 406
#
# _framework density 19.50985
#
# number of rings (size 3 to 8) (size 9 to 14) (size 15 to 20)
#    0.000    1.091    2.727    6.000    1.273    1.091 
#   13.091    0.000    0.000    0.000    0.000    0.000 
#    0.000    2.909    0.000    0.000    0.000    0.000 
#
# Total GULP energy -244951.400976 kJ/mol
# GULP energy per Si atom -5567.077295 kJ/mol
# Density = 1.946544 g / cm^3
# Si number density = 19.509850 Si / 1000 Ang^3
#
#
#
# Elastic Constant Matrix: (Units=GPa)
#
#
# Indices 1 2 3 4 5 6 
#
# 1 67.6462 43.7439 32.4759 0.0000 0.0000 0.0000
# 2 43.7439 67.6502 32.4776 0.0000 0.0000 0.0000
# 3 32.4759 32.4776 118.1472 0.0000 0.0000 0.0000
# 4 0.0000 0.0000 0.0000 15.3244 0.0000 0.0000
# 5 0.0000 0.0000 0.0000 0.0000 15.3242 0.0000
# 6 0.0000 0.0000 0.0000 0.0000 0.0000 12.6585
#
#
#
# Elastic Compliance Matrix: (Units=1/GPa)
#
#
# Indices 1 2 3 4 5 6 
#
# 1 0.026263 -0.015571 -0.002939 0.000000 0.000000 0.000000
# 2 -0.015571 0.026261 -0.002939 0.000000 0.000000 0.000000
# 3 -0.002939 -0.002939 0.010080 0.000000 0.000000 0.000000
# 4 0.000000 0.000000 0.000000 0.065255 0.000000 0.000000
# 5 0.000000 0.000000 0.000000 0.000000 0.065256 0.000000
# 6 0.000000 0.000000 0.000000 0.000000 0.000000 0.078998
#
#
# Mechanical properties :
#
#
# Convention : Reuss Voigt Hill
#
# Bulk Modulus (GPa) = 50.74483 52.31537 51.53010
# Shear Modulus (GPa) = 15.54822 18.31117 16.92970
#
# Velocity S-wave (km/s) = 2.82608 3.06692 2.94896
# Velocity P-wave (km/s) = 6.05931 6.27809 6.16967
#
# Compressibility (1/GPa) = 0.01970644
#
# Stress axis : x y z
#
# Youngs Moduli (GPa) = 38.07665 38.07857 99.20980
#
# Poissons Ratio (x) = 0.59293 0.29154
# Poissons Ratio (y) = 0.59290 0.29157
# Poissons Ratio (z) = 0.11189 0.11191
#
# Static dielectric constant tensor:
#      x y z
#    x 1.714300 0.000000 0.000000 
#    y 0.000000 1.714300 0.000000 
#    z 0.000000 0.000000 1.664060 
# 
# From -- ./inp_files/8194.got.cif
#   From: 2010.05.17/outbox.cif.g08.bks.cpg/sg121_5_cif.got.tgz:8194.got - 2010.05.20 11:32:06.
