data_PCOD9560253
_publ_section_title
;
Structure prediction by ZEFSAII (Michael W. Deem and Ramdas Pophale) SiO2 
 PCOD9560253
Probable space group: I -4 2 M
;
_chemical_formula_sum "Si O2"
_cell_formula_units_Z 84
_cell_length_a 11.066432
_cell_length_b 11.066432
_cell_length_c 33.428626
_cell_angle_alpha 90.000000
_cell_angle_beta 90.000000
_cell_angle_gamma 90.000000
_cell_volume 4093.867344
_symmetry_space_group_name_H-M "I -4 2 M"
_symmetry_group_IT_number 121
_symmetry_cell_setting 'tetragonal'
loop_
_space_group_symop_operation_xyz
x,y,z
y,-x,-z
-x,-y,z
-y,x,-z
x,-y,-z
-x,y,-z
-y,-x,z
y,x,z
1/2+x,1/2+y,1/2+z
1/2+y,1/2-x,1/2-z
1/2-x,1/2-y,1/2+z
1/2-y,1/2+x,1/2-z
1/2+x,1/2-y,1/2-z
1/2-x,1/2+y,1/2-z
1/2-y,1/2-x,1/2+z
1/2+y,1/2+x,1/2+z
loop_
_atom_site_type_symbol
_atom_site_label
_atom_site_fract_x
_atom_site_fract_y
_atom_site_fract_z
Si Si1 0.843622 0.843622 0.475178
Si Si2 0.331711 0.668290 0.932561
Si Si3 0.636443 0.155353 0.147904
Si Si4 0.366612 0.018095 0.438300
Si Si5 0.993008 0.201269 0.801437
Si Si6 0.701197 0.506635 0.211047
Si Si7 0.500000 0.500000 0.914129
O O1 0.870356 0.870356 0.521463
O O2 0.709270 0.890947 0.466639
O O3 0.914522 0.914522 0.440304
O O4 0.199301 0.612192 0.932061
O O5 0.405013 0.594988 0.897493
O O6 0.738019 0.261982 0.144756
O O7 0.581920 0.131001 0.104802
O O8 0.701431 0.038982 0.167013
O O9 0.533746 0.204126 0.177926
O O10 0.500000 0.000000 0.453353
O O11 0.094983 0.094983 0.801301
O O12 0.996006 0.251118 0.756181
O O13 0.866470 0.133531 0.809421
O O14 0.593598 0.406403 0.209438
O O15 0.635534 0.635534 0.205591
#
# Coordination Sequence:
#
# PCOD9560253 Si02
#       7
#     8   8  16  16  16  16   4
#     4  10  19  38  64  91 117 155 193 239 298 369
#     4  10  21  36  64  91 119 155 194 236 303 366
#     4  10  19  34  56  85 119 155 198 253 312 364
#     4  11  23  40  60  93 130 158 196 248 305 367
#     4   8  15  31  53  76 105 155 211 250 291 355
#     4   8  15  29  51  78 110 148 196 251 310 362
#     4   8  13  28  56  92 116 136 182 230 286 362
#
# _framework density 20.518494
#
# number of rings (size 3 to 8) (size 9 to 14) (size 15 to 20)
#    0.000    2.667    0.952    3.714    1.333    1.524 
#    5.143    0.000    0.000    0.571    0.000    1.333 
#    0.000    0.000    0.000    0.000    0.000    0.000 
#
# Total GULP energy -234089.787922 kJ/mol
# GULP energy per Si atom -5573.566379 kJ/mol
# Density = 2.047179 g / cm^3
# Si number density = 20.518494 Si / 1000 Ang^3
#
#
#
# Elastic Constant Matrix: (Units=GPa)
#
#
# Indices 1 2 3 4 5 6 
#
# 1 85.2062 43.9507 18.6375 0.0000 0.0000 0.0000
# 2 43.9507 85.2068 18.6376 0.0000 0.0000 0.0000
# 3 18.6375 18.6376 78.3312 0.0000 0.0000 0.0000
# 4 0.0000 0.0000 0.0000 1.5190 0.0000 0.0000
# 5 0.0000 0.0000 0.0000 0.0000 1.5206 0.0000
# 6 0.0000 0.0000 0.0000 0.0000 0.0000 26.8896
#
#
#
# Elastic Compliance Matrix: (Units=1/GPa)
#
#
# Indices 1 2 3 4 5 6 
#
# 1 0.016276 -0.007963 -0.001978 0.000000 0.000000 0.000000
# 2 -0.007963 0.016276 -0.001978 0.000000 0.000000 0.000000
# 3 -0.001978 -0.001978 0.013708 0.000000 0.000000 0.000000
# 4 0.000000 0.000000 0.000000 0.658310 -0.000001 0.000000
# 5 0.000000 0.000000 0.000000 -0.000001 0.657649 0.000000
# 6 0.000000 0.000000 0.000000 0.000000 0.000000 0.037189
#
#
# Mechanical properties :
#
#
# Convention : Reuss Voigt Hill
#
# Bulk Modulus (GPa) = 44.59862 45.68843 45.14352
# Shear Modulus (GPa) = 3.49475 17.15374 10.32424
#
# Velocity S-wave (km/s) = 1.30649 2.89453 2.24557
# Velocity P-wave (km/s) = 4.90499 5.78674 5.36401
#
# Compressibility (1/GPa) = 0.02242222
#
# Stress axis : x y z
#
# Youngs Moduli (GPa) = 61.43914 61.43956 72.95239
#
# Poissons Ratio (x) = 0.48923 0.14430
# Poissons Ratio (y) = 0.48923 0.14430
# Poissons Ratio (z) = 0.12153 0.12153
#
# Static dielectric constant tensor:
#      x y z
#    x 1.799650 0.000000 0.000000 
#    y 0.000000 1.799650 0.000000 
#    z 0.000000 0.000000 1.748600 
# 
# From -- ./inp_files/8242.got.cif
#   From: 2010.05.17/outbox.cif.g08.bks.cpg/sg121_5_cif.got.tgz:8242.got - 2010.05.20 11:32:06.
