data_PCOD9560394
_publ_section_title
;
Structure prediction by ZEFSAII (Michael W. Deem and Ramdas Pophale) SiO2 
 PCOD9560394
Probable space group: I -4 2 M
;
_chemical_formula_sum "Si O2"
_cell_formula_units_Z 80
_cell_length_a 15.150044
_cell_length_b 15.150044
_cell_length_c 19.137727
_cell_angle_alpha 90.000000
_cell_angle_beta 90.000000
_cell_angle_gamma 90.000000
_cell_volume 4392.564460
_symmetry_space_group_name_H-M "I -4 2 M"
_symmetry_group_IT_number 121
_symmetry_cell_setting 'tetragonal'
loop_
_space_group_symop_operation_xyz
x,y,z
y,-x,-z
-x,-y,z
-y,x,-z
x,-y,-z
-x,y,-z
-y,-x,z
y,x,z
1/2+x,1/2+y,1/2+z
1/2+y,1/2-x,1/2-z
1/2-x,1/2-y,1/2+z
1/2-y,1/2+x,1/2-z
1/2+x,1/2-y,1/2-z
1/2-x,1/2+y,1/2-z
1/2-y,1/2-x,1/2+z
1/2+y,1/2+x,1/2+z
loop_
_atom_site_type_symbol
_atom_site_label
_atom_site_fract_x
_atom_site_fract_y
_atom_site_fract_z
Si Si1 0.196960 0.948699 0.432477
Si Si2 0.397476 0.750329 0.172059
Si Si3 0.615788 0.234301 0.611117
Si Si4 0.927212 0.780278 0.165340
Si Si5 0.189998 0.660509 0.462308
O O1 0.125630 0.874371 0.409961
O O2 0.285620 0.900229 0.459199
O O3 0.160372 0.000000 0.500000
O O4 0.224783 0.016033 0.371853
O O5 0.326084 0.673917 0.155629
O O6 0.350354 0.841621 0.150023
O O7 0.414860 0.747547 0.254594
O O8 0.690496 0.309505 0.612208
O O9 0.529697 0.277054 0.645434
O O10 0.601582 0.203258 0.531020
O O11 0.872481 0.872481 0.155710
O O12 0.885236 0.711029 0.110854
O O13 0.263980 0.736021 0.469766
#
# Coordination Sequence:
#
# PCOD9560394 Si02
#       5
#    16  16  16  16  16
#     4  11  21  36  61  89 119 157 202 246 295 358
#     4  10  22  38  56  88 125 158 194 242 306 364
#     4  10  20  38  62  84 118 159 196 245 303 360
#     4  10  22  38  60  87 117 154 202 248 293 355
#     4   9  19  37  60  85 115 157 200 240 300 362
#
# _framework density 18.212596000000001
#
# number of rings (size 3 to 8) (size 9 to 14) (size 15 to 20)
#    0.000    2.000    2.000    1.200    2.800    2.600 
#    0.000    3.000    0.000    3.600    0.000    0.000 
#    0.000    0.000    0.000    0.000    0.000    0.000 
#
# Total GULP energy -222936.862944 kJ/mol
# GULP energy per Si atom -5573.421574 kJ/mol
# Density = 1.817114 g / cm^3
# Si number density = 18.212596 Si / 1000 Ang^3
#
#
#
# Elastic Constant Matrix: (Units=GPa)
#
#
# Indices 1 2 3 4 5 6 
#
# 1 62.5038 61.5683 50.8695 0.0000 0.0000 0.0000
# 2 61.5683 62.4882 50.8662 0.0000 0.0000 0.0000
# 3 50.8695 50.8662 116.7485 0.0000 0.0000 0.0000
# 4 0.0000 0.0000 0.0000 27.3244 0.0000 0.0000
# 5 0.0000 0.0000 0.0000 0.0000 27.3253 0.0000
# 6 0.0000 0.0000 0.0000 0.0000 0.0000 22.2848
#
#
#
# Elastic Compliance Matrix: (Units=1/GPa)
#
#
# Indices 1 2 3 4 5 6 
#
# 1 0.545120 -0.532665 -0.005442 0.000000 0.000000 0.000000
# 2 -0.532665 0.545292 -0.005486 0.000000 0.000000 0.000000
# 3 -0.005442 -0.005486 0.013327 0.000000 0.000000 0.000000
# 4 0.000000 0.000000 0.000000 0.036597 0.000000 0.000000
# 5 0.000000 0.000000 0.000000 0.000000 0.036596 0.000000
# 6 0.000000 0.000000 0.000000 0.000000 0.000000 0.044874
#
#
# Mechanical properties :
#
#
# Convention : Reuss Voigt Hill
#
# Bulk Modulus (GPa) = 60.41436 63.14985 61.78211
# Shear Modulus (GPa) = 2.16028 20.61600 11.38814
#
# Velocity S-wave (km/s) = 1.09029 3.36812 2.50329
# Velocity P-wave (km/s) = 5.90159 7.06220 6.50782
#
# Compressibility (1/GPa) = 0.01655236
#
# Stress axis : x y z
#
# Youngs Moduli (GPa) = 1.83446 1.83388 75.03563
#
# Poissons Ratio (x) = 0.97684 0.40836
# Poissons Ratio (y) = 0.97715 0.41167
# Poissons Ratio (z) = 0.00998 0.01006
#
# Static dielectric constant tensor:
#      x y z
#    x 1.637500 0.000000 0.000000 
#    y 0.000000 1.637500 0.000000 
#    z 0.000000 0.000000 1.626210 
# 
# From -- ./inp_files/6195.got.cif
#   From: 2010.05.17/outbox.cif.g08.bks.cpg/sg121_4_cif.got.tgz:6195.got - 2010.05.20 11:32:06.
