data_PCOD9560589
_publ_section_title
;
Structure prediction by ZEFSAII (Michael W. Deem and Ramdas Pophale) SiO2 
 PCOD9560589
Probable space group: I -4 2 M
;
_chemical_formula_sum "Si O2"
_cell_formula_units_Z 64
_cell_length_a 12.429026
_cell_length_b 12.429026
_cell_length_c 19.672749
_cell_angle_alpha 90.000000
_cell_angle_beta 90.000000
_cell_angle_gamma 90.000000
_cell_volume 3039.059787
_symmetry_space_group_name_H-M "I -4 2 M"
_symmetry_group_IT_number 121
_symmetry_cell_setting 'tetragonal'
loop_
_space_group_symop_operation_xyz
x,y,z
y,-x,-z
-x,-y,z
-y,x,-z
x,-y,-z
-x,y,-z
-y,-x,z
y,x,z
1/2+x,1/2+y,1/2+z
1/2+y,1/2-x,1/2-z
1/2-x,1/2-y,1/2+z
1/2-y,1/2+x,1/2-z
1/2+x,1/2-y,1/2-z
1/2-x,1/2+y,1/2-z
1/2-y,1/2-x,1/2+z
1/2+y,1/2+x,1/2+z
loop_
_atom_site_type_symbol
_atom_site_label
_atom_site_fract_x
_atom_site_fract_y
_atom_site_fract_z
Si Si1 0.501874 0.664318 0.660815
Si Si2 0.613722 0.788006 0.539442
Si Si3 0.878640 0.534298 0.138152
Si Si4 0.166412 0.658567 0.725272
O O1 0.415291 0.584710 0.626527
O O2 0.584768 0.584768 0.698914
O O3 0.567168 0.725343 0.604195
O O4 0.431379 0.746731 0.703223
O O5 0.500000 0.808742 0.500000
O O6 0.708020 0.708020 0.509957
O O7 0.661344 0.898037 0.572881
O O8 0.879707 0.611764 0.204446
O O9 0.826867 0.424172 0.167191
O O10 0.000000 0.500000 0.122090
O O11 0.234083 0.765918 0.736405
#
# Coordination Sequence:
#
# PCOD9560589 Si02
#       4
#    16  16  16  16
#     4   9  18  33  55  88 127 163 205 259 322 388
#     4  11  23  39  63  90 123 167 216 269 325 383
#     4  12  21  39  59  90 129 168 209 263 322 387
#     4  11  21  36  61  91 129 171 210 259 326 393
#
# _framework density 21.059144
#
# number of rings (size 3 to 8) (size 9 to 14) (size 15 to 20)
#    0.000    1.250    5.000    1.500    0.000    4.750 
#    0.000    0.000    0.000    2.250    0.000    0.000 
#    0.000    0.000    0.000    0.000    0.000    0.000 
#
# Total GULP energy -178207.587324 kJ/mol
# GULP energy per Si atom -5568.987104 kJ/mol
# Density = 2.101121 g / cm^3
# Si number density = 21.059144 Si / 1000 Ang^3
#
#
#
# Elastic Constant Matrix: (Units=GPa)
#
#
# Indices 1 2 3 4 5 6 
#
# 1 93.9104 44.9406 25.6820 0.0000 0.0000 0.0000
# 2 44.9406 93.9096 25.6821 0.0000 0.0000 0.0000
# 3 25.6820 25.6821 40.4800 0.0000 0.0000 0.0000
# 4 0.0000 0.0000 0.0000 19.7133 0.0000 0.0000
# 5 0.0000 0.0000 0.0000 0.0000 19.7159 0.0000
# 6 0.0000 0.0000 0.0000 0.0000 0.0000 61.8838
#
#
#
# Elastic Compliance Matrix: (Units=1/GPa)
#
#
# Indices 1 2 3 4 5 6 
#
# 1 0.014916 -0.005505 -0.005970 0.000000 0.000000 0.000000
# 2 -0.005505 0.014916 -0.005971 0.000000 0.000000 0.000000
# 3 -0.005970 -0.005971 0.032279 0.000000 0.000000 0.000000
# 4 0.000000 0.000000 0.000000 0.050727 0.000000 0.000000
# 5 0.000000 0.000000 0.000000 0.000000 0.050721 0.000000
# 6 0.000000 0.000000 0.000000 0.000000 0.000000 0.016159
#
#
# Mechanical properties :
#
#
# Convention : Reuss Voigt Hill
#
# Bulk Modulus (GPa) = 36.73938 46.76770 41.75354
# Shear Modulus (GPa) = 22.35308 29.06228 25.70768
#
# Velocity S-wave (km/s) = 3.26151 3.71891 3.49770
# Velocity P-wave (km/s) = 5.62734 6.37937 6.01512
#
# Compressibility (1/GPa) = 0.02721875
#
# Stress axis : x y z
#
# Youngs Moduli (GPa) = 67.04363 67.04277 30.97963
#
# Poissons Ratio (x) = 0.36908 0.18496
# Poissons Ratio (y) = 0.36909 0.18496
# Poissons Ratio (z) = 0.40027 0.40028
#
# Static dielectric constant tensor:
#      x y z
#    x 1.865870 0.000000 0.000000 
#    y 0.000000 1.865870 0.000000 
#    z 0.000000 0.000000 1.763690 
# 
# From -- ./inp_files/6036.got.cif
#   From: 2010.05.17/outbox.cif.g08.bks.cpg/sg121_4_cif.got.tgz:6036.got - 2010.05.20 11:32:06.
