data_PCOD9560375
_publ_section_title
;
Structure prediction by ZEFSAII (Michael W. Deem and Ramdas Pophale) SiO2 
 PCOD9560375
Probable space group: I -4 2 M
;
_chemical_formula_sum "Si O2"
_cell_formula_units_Z 80
_cell_length_a 13.713162
_cell_length_b 13.713162
_cell_length_c 22.922327
_cell_angle_alpha 90.000000
_cell_angle_beta 90.000000
_cell_angle_gamma 90.000000
_cell_volume 4310.562206
_symmetry_space_group_name_H-M "I -4 2 M"
_symmetry_group_IT_number 121
_symmetry_cell_setting 'tetragonal'
loop_
_space_group_symop_operation_xyz
x,y,z
y,-x,-z
-x,-y,z
-y,x,-z
x,-y,-z
-x,y,-z
-y,-x,z
y,x,z
1/2+x,1/2+y,1/2+z
1/2+y,1/2-x,1/2-z
1/2-x,1/2-y,1/2+z
1/2-y,1/2+x,1/2-z
1/2+x,1/2-y,1/2-z
1/2-x,1/2+y,1/2-z
1/2-y,1/2-x,1/2+z
1/2+y,1/2+x,1/2+z
loop_
_atom_site_type_symbol
_atom_site_label
_atom_site_fract_x
_atom_site_fract_y
_atom_site_fract_z
Si Si1 0.354222 0.960793 0.241929
Si Si2 0.343276 0.506895 0.430629
Si Si3 0.298853 0.132088 0.876871
Si Si4 0.271159 0.435520 0.942642
Si Si5 0.838270 0.002064 0.682951
O O1 0.437674 0.904032 0.278218
O O2 0.336566 0.890650 0.187189
O O3 0.255472 0.983216 0.276785
O O4 0.329180 0.500000 0.500000
O O5 0.387967 0.612034 0.415665
O O6 0.428056 0.428056 0.416950
O O7 0.248765 0.468033 0.399069
O O8 0.215495 0.215495 0.874361
O O9 0.379450 0.174659 0.920491
O O10 0.354021 0.354021 0.955078
O O11 0.307516 0.493427 0.885099
O O12 0.257391 0.500000 0.000000
O O13 0.916127 0.916127 0.692225
O O14 0.896055 0.103946 0.695167
#
# Coordination Sequence:
#
# PCOD9560375 Si02
#       5
#    16  16  16  16  16
#     4  11  23  40  59  81 120 163 203 250 309 361
#     4   8  15  31  54  80 112 148 189 242 298 353
#     4  10  20  37  60  85 119 160 202 251 307 366
#     4  10  20  37  61  90 124 159 198 249 310 373
#     4  10  21  38  63  92 118 154 206 256 307 372
#
# _framework density 18.559065
#
# number of rings (size 3 to 8) (size 9 to 14) (size 15 to 20)
#    0.000    2.200    2.000    1.800    0.000    2.600 
#    3.600    2.000    0.000    0.000    0.000    0.000 
#    0.000    0.000    0.000    0.000    0.000    0.000 
#
# Total GULP energy -222939.656666 kJ/mol
# GULP energy per Si atom -5573.491417 kJ/mol
# Density = 1.851682 g / cm^3
# Si number density = 18.559065 Si / 1000 Ang^3
#
#
#
# Elastic Constant Matrix: (Units=GPa)
#
#
# Indices 1 2 3 4 5 6 
#
# 1 89.5446 39.8666 49.1469 0.0000 0.0000 0.0000
# 2 39.8666 89.5437 49.1469 0.0000 0.0000 0.0000
# 3 49.1469 49.1469 82.0326 0.0000 0.0000 0.0000
# 4 0.0000 0.0000 0.0000 29.3744 0.0000 0.0000
# 5 0.0000 0.0000 0.0000 0.0000 29.3739 0.0000
# 6 0.0000 0.0000 0.0000 0.0000 0.0000 21.6530
#
#
#
# Elastic Compliance Matrix: (Units=1/GPa)
#
#
# Indices 1 2 3 4 5 6 
#
# 1 0.017155 -0.002975 -0.008495 0.000000 0.000000 0.000000
# 2 -0.002975 0.017155 -0.008496 0.000000 0.000000 0.000000
# 3 -0.008495 -0.008496 0.022370 0.000000 0.000000 0.000000
# 4 0.000000 0.000000 0.000000 0.034043 0.000000 0.000000
# 5 0.000000 0.000000 0.000000 0.000000 0.034044 0.000000
# 6 0.000000 0.000000 0.000000 0.000000 0.000000 0.046183
#
#
# Mechanical properties :
#
#
# Convention : Reuss Voigt Hill
#
# Bulk Modulus (GPa) = 59.70858 59.71575 59.71216
# Shear Modulus (GPa) = 23.09852 24.27764 23.68808
#
# Velocity S-wave (km/s) = 3.53171 3.62073 3.57650
# Velocity P-wave (km/s) = 6.99090 7.05163 7.02133
#
# Compressibility (1/GPa) = 0.01674801
#
# Stress axis : x y z
#
# Youngs Moduli (GPa) = 58.29258 58.29177 44.70300
#
# Poissons Ratio (x) = 0.17341 0.37977
# Poissons Ratio (y) = 0.17341 0.37978
# Poissons Ratio (z) = 0.49522 0.49522
#
# Static dielectric constant tensor:
#      x y z
#    x 1.660010 0.000000 0.000000 
#    y 0.000000 1.660010 0.000000 
#    z 0.000000 0.000000 1.621710 
# 
# From -- ./inp_files/6178.got.cif
#   From: 2010.05.17/outbox.cif.g08.bks.cpg/sg121_4_cif.got.tgz:6178.got - 2010.05.20 11:32:06.
