data_PCOD9560113
_publ_section_title
;
Structure prediction by ZEFSAII (Michael W. Deem and Ramdas Pophale) SiO2 
 PCOD9560113
Probable space group: I -4 2 M
;
_chemical_formula_sum "Si O2"
_cell_formula_units_Z 128
_cell_length_a 20.248188
_cell_length_b 20.248188
_cell_length_c 18.083188
_cell_angle_alpha 90.000000
_cell_angle_beta 90.000000
_cell_angle_gamma 90.000000
_cell_volume 7413.910286
_symmetry_space_group_name_H-M "I -4 2 M"
_symmetry_group_IT_number 121
_symmetry_cell_setting 'tetragonal'
loop_
_space_group_symop_operation_xyz
x,y,z
y,-x,-z
-x,-y,z
-y,x,-z
x,-y,-z
-x,y,-z
-y,-x,z
y,x,z
1/2+x,1/2+y,1/2+z
1/2+y,1/2-x,1/2-z
1/2-x,1/2-y,1/2+z
1/2-y,1/2+x,1/2-z
1/2+x,1/2-y,1/2-z
1/2-x,1/2+y,1/2-z
1/2-y,1/2-x,1/2+z
1/2+y,1/2+x,1/2+z
loop_
_atom_site_type_symbol
_atom_site_label
_atom_site_fract_x
_atom_site_fract_y
_atom_site_fract_z
Si Si1 0.102077 0.732164 0.637838
Si Si2 0.670503 0.221537 0.917465
Si Si3 0.725732 0.830778 0.925998
Si Si4 0.533561 0.811256 0.729939
Si Si5 0.169066 0.471281 0.418460
Si Si6 0.470392 0.100625 0.917707
Si Si7 0.369852 0.914942 0.311234
Si Si8 0.077433 0.180355 0.495856
O O1 0.176390 0.705527 0.631440
O O2 0.072983 0.740412 0.719778
O O3 0.057451 0.674508 0.598799
O O4 0.096906 0.794805 0.585668
O O5 0.729863 0.270138 0.891136
O O6 0.638363 0.171555 0.858858
O O7 0.697233 0.185206 0.991577
O O8 0.611730 0.268384 0.947678
O O9 0.796966 0.796966 0.920591
O O10 0.716319 0.907738 0.913148
O O11 0.523707 0.807474 0.642543
O O12 0.577767 0.877314 0.739561
O O13 0.460878 0.822061 0.762930
O O14 0.171923 0.500000 0.500000
O O15 0.093161 0.446365 0.406661
O O16 0.533242 0.092686 0.864374
O O17 0.500000 0.095339 0.000000
O O18 0.110098 0.110098 0.510501
O O19 0.000000 0.181220 0.500000
#
# Coordination Sequence:
#
# PCOD9560113 Si02
#       8
#    16  16  16  16  16  16  16  16
#     4   9  17  31  48  67  94 127 165 204 240 282
#     4   9  18  33  54  75  94 125 169 213 253 289
#     4   9  17  33  55  76  97 126 167 209 248 288
#     4  11  22  32  45  66  97 135 169 204 249 292
#     4  11  22  34  48  70 100 135 172 211 254 301
#     4  10  18  28  47  69  95 132 171 206 243 289
#     4  11  20  32  46  67 101 134 169 208 245 295
#     4  10  18  30  51  75  98 125 155 191 239 297
#
# _framework density 17.264844
#
# number of rings (size 3 to 8) (size 9 to 14) (size 15 to 20)
#    0.000    2.000    0.000    9.000    0.000    3.125 
#    0.000    3.125    0.000    2.250    0.000    0.000 
#    0.000    0.250    0.000    0.000    0.000    0.000 
#
# Total GULP energy -357034.604027 kJ/mol
# GULP energy per Si atom -5578.665688 kJ/mol
# Density = 1.722555 g / cm^3
# Si number density = 17.264844 Si / 1000 Ang^3
#
#
#
# Elastic Constant Matrix: (Units=GPa)
#
#
# Indices 1 2 3 4 5 6 
#
# 1 59.4942 26.6364 15.3533 0.0000 0.0000 0.0000
# 2 26.6364 59.4950 15.3533 0.0000 0.0000 0.0000
# 3 15.3533 15.3533 78.4883 0.0000 0.0000 0.0000
# 4 0.0000 0.0000 0.0000 19.3333 0.0000 0.0000
# 5 0.0000 0.0000 0.0000 0.0000 19.3332 0.0000
# 6 0.0000 0.0000 0.0000 0.0000 0.0000 18.7131
#
#
#
# Elastic Compliance Matrix: (Units=1/GPa)
#
#
# Indices 1 2 3 4 5 6 
#
# 1 0.021457 -0.008977 -0.002441 0.000000 0.000000 0.000000
# 2 -0.008977 0.021457 -0.002441 0.000000 0.000000 0.000000
# 3 -0.002441 -0.002441 0.013696 0.000000 0.000000 0.000000
# 4 0.000000 0.000000 0.000000 0.051724 0.000000 0.000000
# 5 0.000000 0.000000 0.000000 0.000000 0.051724 0.000000
# 6 0.000000 0.000000 0.000000 0.000000 0.000000 0.053438
#
#
# Mechanical properties :
#
#
# Convention : Reuss Voigt Hill
#
# Bulk Modulus (GPa) = 34.61212 34.68483 34.64847
# Shear Modulus (GPa) = 19.93250 20.81823 20.37537
#
# Velocity S-wave (km/s) = 3.40150 3.47625 3.43908
# Velocity P-wave (km/s) = 5.95972 6.02046 5.99016
#
# Compressibility (1/GPa) = 0.02889162
#
# Stress axis : x y z
#
# Youngs Moduli (GPa) = 46.60406 46.60474 73.01468
#
# Poissons Ratio (x) = 0.41835 0.17826
# Poissons Ratio (y) = 0.41835 0.17825
# Poissons Ratio (z) = 0.11378 0.11378
#
# Static dielectric constant tensor:
#      x y z
#    x 1.589430 0.000000 0.000000 
#    y 0.000000 1.589430 0.000000 
#    z 0.000000 0.000000 1.645600 
# 
# From -- ./inp_files/5665.got.cif
#   From: 2010.05.17/outbox.cif.g08.bks.cpg/sg121_3_cif.got.tgz:5665.got - 2010.05.20 11:32:06.
