data_PCOD9560533
_publ_section_title
;
Structure prediction by ZEFSAII (Michael W. Deem and Ramdas Pophale) SiO2 
 PCOD9560533
Probable space group: I -4 2 M
;
_chemical_formula_sum "Si O2"
_cell_formula_units_Z 40
_cell_length_a 11.892866
_cell_length_b 11.892866
_cell_length_c 12.768997
_cell_angle_alpha 90.000000
_cell_angle_beta 90.000000
_cell_angle_gamma 90.000000
_cell_volume 1806.050277
_symmetry_space_group_name_H-M "I -4 2 M"
_symmetry_group_IT_number 121
_symmetry_cell_setting 'tetragonal'
loop_
_space_group_symop_operation_xyz
x,y,z
y,-x,-z
-x,-y,z
-y,x,-z
x,-y,-z
-x,y,-z
-y,-x,z
y,x,z
1/2+x,1/2+y,1/2+z
1/2+y,1/2-x,1/2-z
1/2-x,1/2-y,1/2+z
1/2-y,1/2+x,1/2-z
1/2+x,1/2-y,1/2-z
1/2-x,1/2+y,1/2-z
1/2-y,1/2-x,1/2+z
1/2+y,1/2+x,1/2+z
loop_
_atom_site_type_symbol
_atom_site_label
_atom_site_fract_x
_atom_site_fract_y
_atom_site_fract_z
Si Si1 0.684636 0.503825 0.216407
Si Si2 0.690020 0.000000 0.500000
Si Si3 0.585719 0.771926 0.581157
O O1 0.584955 0.415046 0.235321
O O2 0.627015 0.627015 0.222370
O O3 0.734129 0.480458 0.102338
O O4 0.774240 0.477441 0.307291
O O5 0.618707 0.108613 0.467311
O O6 0.500000 0.714867 0.500000
O O7 0.698082 0.698082 0.590094
#
# Coordination Sequence:
#
# PCOD9560533 Si02
#       3
#    16   8  16
#     4  10  22  42  70 102 140 190 242 290 350 432
#     4  12  25  43  70 104 142 181 234 302 365 420
#     4  11  25  44  69 101 141 186 234 291 355 428
#
# _framework density 22.147776
#
# number of rings (size 3 to 8) (size 9 to 14) (size 15 to 20)
#    0.000    1.200    0.000    5.400    5.600    3.600 
#    0.000    0.000    0.000    0.000    0.000    0.000 
#    0.000    0.000    0.000    0.000    0.000    0.000 
#
# Total GULP energy -111796.311275 kJ/mol
# GULP energy per Si atom -5589.815564 kJ/mol
# Density = 2.209737 g / cm^3
# Si number density = 22.147776 Si / 1000 Ang^3
#
#
#
# Elastic Constant Matrix: (Units=GPa)
#
#
# Indices 1 2 3 4 5 6 
#
# 1 97.5872 54.1926 54.1818 0.0000 0.0000 0.0000
# 2 54.1926 97.5872 54.1817 0.0000 0.0000 0.0000
# 3 54.1818 54.1817 183.8865 0.0000 0.0000 0.0000
# 4 0.0000 0.0000 0.0000 51.8956 0.0000 0.0000
# 5 0.0000 0.0000 0.0000 0.0000 51.8943 0.0000
# 6 0.0000 0.0000 0.0000 0.0000 0.0000 27.0646
#
#
#
# Elastic Compliance Matrix: (Units=1/GPa)
#
#
# Indices 1 2 3 4 5 6 
#
# 1 0.015694 -0.007350 -0.002458 0.000000 0.000000 0.000000
# 2 -0.007350 0.015694 -0.002458 0.000000 0.000000 0.000000
# 3 -0.002458 -0.002458 0.006887 0.000000 0.000000 0.000000
# 4 0.000000 0.000000 0.000000 0.019269 0.000000 0.000000
# 5 0.000000 0.000000 0.000000 0.000000 0.019270 0.000000
# 6 0.000000 0.000000 0.000000 0.000000 0.000000 0.036949
#
#
# Mechanical properties :
#
#
# Convention : Reuss Voigt Hill
#
# Bulk Modulus (GPa) = 72.77763 78.24149 75.50956
# Shear Modulus (GPa) = 34.99500 40.60456 37.79978
#
# Velocity S-wave (km/s) = 3.97932 4.28641 4.13571
# Velocity P-wave (km/s) = 7.35151 7.73960 7.54805
#
# Compressibility (1/GPa) = 0.01374049
#
# Stress axis : x y z
#
# Youngs Moduli (GPa) = 63.71848 63.71854 145.20331
#
# Poissons Ratio (x) = 0.46835 0.35698
# Poissons Ratio (y) = 0.46835 0.35697
# Poissons Ratio (z) = 0.15665 0.15665
#
# Static dielectric constant tensor:
#      x y z
#    x 1.505790 0.000000 0.000000 
#    y 0.000000 1.505810 0.000000 
#    z 0.000000 0.000000 1.803720 
# 
# From -- ./inp_files/3791.got.cif
#   From: 2010.05.17/outbox.cif.g08.bks.cpg/sg121_2_cif.got.tgz:3791.got - 2010.05.20 11:32:06.
