data_PCOD9560804
_publ_section_title
;
Structure prediction by ZEFSAII (Michael W. Deem and Ramdas Pophale) SiO2 
 PCOD9560804
Probable space group: I -4 2 D
;
_chemical_formula_sum "Si O2"
_cell_formula_units_Z 48
_cell_length_a 20.118010
_cell_length_b 20.118010
_cell_length_c 5.212789
_cell_angle_alpha 90.000000
_cell_angle_beta 90.000000
_cell_angle_gamma 90.000000
_cell_volume 2109.794644
_symmetry_space_group_name_H-M "I -4 2 D"
_symmetry_group_IT_number 122
_symmetry_cell_setting 'tetragonal'
loop_
_space_group_symop_operation_xyz
x,y,z
y,-x,-z
-x,-y,z
-y,x,-z
x,1/2-y,1/4-z
-x,1/2+y,1/4-z
-y,1/2-x,1/4+z
y,1/2+x,1/4+z
1/2+x,1/2+y,1/2+z
1/2+y,1/2-x,1/2-z
1/2-x,1/2-y,1/2+z
1/2-y,1/2+x,1/2-z
1/2+x,-y,3/4-z
1/2-x,y,3/4-z
1/2-y,-x,3/4+z
1/2+y,x,3/4+z
loop_
_atom_site_type_symbol
_atom_site_label
_atom_site_fract_x
_atom_site_fract_y
_atom_site_fract_z
Si Si1 0.175831 0.822125 0.216851
Si Si2 0.346762 0.894136 0.036708
Si Si3 0.319479 0.040177 0.230187
O O1 0.200328 0.750000 0.125000
O O2 0.192590 0.848073 0.503992
O O3 0.095857 0.813501 0.261169
O O4 0.179487 0.876626 0.993558
O O5 0.339833 0.969704 0.119025
O O6 0.423259 0.871038 0.076799
O O7 0.250000 0.033582 0.375000
#
# Coordination Sequence:
#
# PCOD9560804 Si02
#       3
#    16  16  16
#     4  10  19  38  59  83 120 164 201 247 306 367
#     4  10  22  34  60  91 118 161 207 253 310 380
#     4  10  22  39  62  87 125 164 209 253 315 380
#
# _framework density 22.751028999999999
#
# number of rings (size 3 to 8) (size 9 to 14) (size 15 to 20)
#    2.000    0.000    3.333    1.000    4.667    0.667 
#    0.000    0.000    0.000    6.000    0.000    0.000 
#    0.000    0.000    0.000    0.000    0.000    0.000 
#
# Total GULP energy -133984.450166 kJ/mol
# GULP energy per Si atom -5582.685424 kJ/mol
# Density = 2.269925 g / cm^3
# Si number density = 22.751029 Si / 1000 Ang^3
#
#
#
# Elastic Constant Matrix: (Units=GPa)
#
#
# Indices 1 2 3 4 5 6 
#
# 1 106.9199 19.6130 30.8729 0.0000 0.0000 0.0000
# 2 19.6130 106.9199 30.8729 0.0000 0.0000 0.0000
# 3 30.8729 30.8729 136.0006 0.0000 0.0000 0.0000
# 4 0.0000 0.0000 0.0000 36.5864 0.0000 0.0000
# 5 0.0000 0.0000 0.0000 0.0000 36.5864 0.0000
# 6 0.0000 0.0000 0.0000 0.0000 0.0000 9.2504
#
#
#
# Elastic Compliance Matrix: (Units=1/GPa)
#
#
# Indices 1 2 3 4 5 6 
#
# 1 0.010171 -0.001283 -0.002018 0.000000 0.000000 0.000000
# 2 -0.001283 0.010171 -0.002018 0.000000 0.000000 0.000000
# 3 -0.002018 -0.002018 0.008269 0.000000 0.000000 0.000000
# 4 0.000000 0.000000 0.000000 0.027333 0.000000 0.000000
# 5 0.000000 0.000000 0.000000 0.000000 0.027333 0.000000
# 6 0.000000 0.000000 0.000000 0.000000 0.000000 0.108103
#
#
# Mechanical properties :
#
#
# Convention : Reuss Voigt Hill
#
# Bulk Modulus (GPa) = 55.63606 56.95090 56.29348
# Shear Modulus (GPa) = 24.03775 34.38342 29.21059
#
# Velocity S-wave (km/s) = 3.25400 3.89175 3.58708
# Velocity P-wave (km/s) = 6.21493 6.72911 6.47712
#
# Compressibility (1/GPa) = 0.01797395
#
# Stress axis : x y z
#
# Youngs Moduli (GPa) = 98.32141 98.32141 120.93511
#
# Poissons Ratio (x) = 0.12616 0.24399
# Poissons Ratio (y) = 0.12616 0.24399
# Poissons Ratio (z) = 0.19837 0.19837
#
# Static dielectric constant tensor:
#      x y z
#    x 1.888090 0.000000 0.000000 
#    y 0.000000 1.888090 0.000000 
#    z 0.000000 0.000000 1.849840 
# 
# From -- ./inp_files/676.got.cif
#   From: 2010.05.17/outbox.cif.g08.bks.cpg/sg122_1_cif.got.tgz:676.got - 2010.05.20 11:37:33.
