data_PCOD9560155
_publ_section_title
;
Structure prediction by ZEFSAII (Michael W. Deem and Ramdas Pophale) SiO2 
 PCOD9560155
Probable space group: I -4 2 M
;
_chemical_formula_sum "Si O2"
_cell_formula_units_Z 96
_cell_length_a 23.561204
_cell_length_b 23.561204
_cell_length_c 10.153531
_cell_angle_alpha 90.000000
_cell_angle_beta 90.000000
_cell_angle_gamma 90.000000
_cell_volume 5636.533055
_symmetry_space_group_name_H-M "I -4 2 M"
_symmetry_group_IT_number 121
_symmetry_cell_setting 'tetragonal'
loop_
_space_group_symop_operation_xyz
x,y,z
y,-x,-z
-x,-y,z
-y,x,-z
x,-y,-z
-x,y,-z
-y,-x,z
y,x,z
1/2+x,1/2+y,1/2+z
1/2+y,1/2-x,1/2-z
1/2-x,1/2-y,1/2+z
1/2-y,1/2+x,1/2-z
1/2+x,1/2-y,1/2-z
1/2-x,1/2+y,1/2-z
1/2-y,1/2-x,1/2+z
1/2+y,1/2+x,1/2+z
loop_
_atom_site_type_symbol
_atom_site_label
_atom_site_fract_x
_atom_site_fract_y
_atom_site_fract_z
Si Si1 0.704468 0.796421 0.865476
Si Si2 0.536532 0.792290 0.632659
Si Si3 0.154757 0.350512 0.120445
Si Si4 0.115824 0.796448 0.745474
Si Si5 0.342907 0.435232 0.024146
Si Si6 0.223028 0.543263 0.880972
O O1 0.764501 0.764501 0.857849
O O2 0.690966 0.842738 0.754697
O O3 0.657224 0.749840 0.823053
O O4 0.692434 0.821143 0.009677
O O5 0.500000 0.794389 0.500000
O O6 0.587780 0.838769 0.636908
O O7 0.572713 0.734608 0.657231
O O8 0.491763 0.794054 0.751992
O O9 0.174414 0.412507 0.078472
O O10 0.156304 0.843696 0.809019
O O11 0.084110 0.822984 0.621181
O O12 0.392922 0.392922 0.066936
O O13 0.287299 0.431288 0.118998
O O14 0.361461 0.500000 0.000000
O O15 0.227993 0.500000 0.000000
#
# Coordination Sequence:
#
# PCOD9560155 Si02
#       6
#    16  16  16  16  16  16
#     4  10  19  31  51  81 114 140 173 221 280 343
#     4  11  22  36  54  81 115 144 181 230 287 343
#     4  11  21  35  54  81 107 147 187 228 285 343
#     4   9  17  33  55  78 108 147 180 217 269 327
#     4  10  18  32  57  84 108 139 188 233 268 311
#     4  11  20  38  59  78 106 147 193 230 280 334
#
# _framework density 17.031745999999998
#
# number of rings (size 3 to 8) (size 9 to 14) (size 15 to 20)
#    0.000    1.667    5.000    2.500    0.000    1.500 
#    0.000    0.833    0.000    3.000    0.000    0.000 
#    0.000    0.000    0.000    0.000    0.000    0.000 
#
# Total GULP energy -267320.958771 kJ/mol
# GULP energy per Si atom -5569.186641 kJ/mol
# Density = 1.699298 g / cm^3
# Si number density = 17.031746 Si / 1000 Ang^3
#
#
#
# Elastic Constant Matrix: (Units=GPa)
#
#
# Indices 1 2 3 4 5 6 
#
# 1 61.8868 44.1956 4.0776 0.0000 0.0000 0.0000
# 2 44.1956 61.8859 4.0774 0.0000 0.0000 0.0000
# 3 4.0776 4.0774 46.1079 0.0000 0.0000 0.0000
# 4 0.0000 0.0000 0.0000 5.3577 0.0000 0.0000
# 5 0.0000 0.0000 0.0000 0.0000 5.3549 0.0000
# 6 0.0000 0.0000 0.0000 0.0000 0.0000 -91.2259
#
#
#
# Elastic Compliance Matrix: (Units=1/GPa)
#
#
# Indices 1 2 3 4 5 6 
#
# 1 0.033009 -0.023518 -0.000839 0.000000 0.000000 0.000000
# 2 -0.023518 0.033009 -0.000839 0.000000 0.000000 0.000000
# 3 -0.000839 -0.000839 0.021837 0.000000 0.000000 0.000000
# 4 0.000000 0.000000 0.000000 0.186648 0.000000 0.000000
# 5 0.000000 0.000000 0.000000 0.000000 0.186745 0.000000
# 6 0.000000 0.000000 0.000000 0.000000 0.000000 -0.010962
#
#
# Mechanical properties :
#
#
# Convention : Reuss Voigt Hill
#
# Bulk Modulus (GPa) = 26.69391 30.50909 28.60150
# Shear Modulus (GPa) = 9.74343 -8.26735 0.73804
#
# Velocity S-wave (km/s) = 2.39440 -2.20559 0.65900
# Velocity P-wave (km/s) = 4.83232 3.38612 4.17235
#
# Compressibility (1/GPa) = 0.03746173
#
# Stress axis : x y z
#
# Youngs Moduli (GPa) = 30.29494 30.29453 45.79444
#
# Poissons Ratio (x) = 0.71246 0.03844
# Poissons Ratio (y) = 0.71247 0.03843
# Poissons Ratio (z) = 0.02543 0.02543
#
# Static dielectric constant tensor:
#      x y z
#    x 1.663760 0.000000 0.000000 
#    y 0.000000 1.663750 0.000000 
#    z 0.000000 0.000000 1.606960 
# 
# From -- ./inp_files/1949.got.cif
#   From: 2010.05.17/outbox.cif.g08.bks.cpg/sg121_1_cif.got.tgz:1949.got - 2010.05.20 11:32:06.
