data_PCOD9560777
_publ_section_title
;
Structure prediction by ZEFSAII (Michael W. Deem and Ramdas Pophale) SiO2 
 PCOD9560777
Probable space group: I -4 2 D
;
_chemical_formula_sum "Si O2"
_cell_formula_units_Z 80
_cell_length_a 11.051294
_cell_length_b 11.051294
_cell_length_c 34.262156
_cell_angle_alpha 90.000000
_cell_angle_beta 90.000000
_cell_angle_gamma 90.000000
_cell_volume 4184.474769
_symmetry_space_group_name_H-M "I -4 2 D"
_symmetry_group_IT_number 122
_symmetry_cell_setting 'tetragonal'
loop_
_space_group_symop_operation_xyz
x,y,z
y,-x,-z
-x,-y,z
-y,x,-z
x,1/2-y,1/4-z
-x,1/2+y,1/4-z
-y,1/2-x,1/4+z
y,1/2+x,1/4+z
1/2+x,1/2+y,1/2+z
1/2+y,1/2-x,1/2-z
1/2-x,1/2-y,1/2+z
1/2-y,1/2+x,1/2-z
1/2+x,-y,3/4-z
1/2-x,y,3/4-z
1/2-y,-x,3/4+z
1/2+y,x,3/4+z
loop_
_atom_site_type_symbol
_atom_site_label
_atom_site_fract_x
_atom_site_fract_y
_atom_site_fract_z
Si Si1 0.825053 0.035196 0.667508
Si Si2 0.135910 0.710829 0.847273
Si Si3 0.966527 0.804992 0.696758
Si Si4 0.678421 0.434530 0.514233
Si Si5 0.371965 0.067998 0.525069
O O1 0.700287 0.065518 0.689208
O O2 0.915348 0.147777 0.673198
O O3 0.818900 0.977547 0.624974
O O4 0.879270 0.922244 0.692526
O O5 0.250000 0.750202 0.875000
O O6 0.191966 0.597152 0.823610
O O7 0.091982 0.807542 0.815853
O O8 0.996651 0.793274 0.742409
O O9 0.567960 0.352412 0.500900
O O10 0.801494 0.391980 0.494456
O O11 0.500000 0.000000 0.529295
#
# Coordination Sequence:
#
# PCOD9560777 Si02
#       5
#    16  16  16  16  16
#     4   9  17  36  59  84 115 152 198 240 303 353
#     4  10  21  37  62  88 122 156 193 253 309 357
#     4   9  17  37  62  79 114 161 194 238 300 362
#     4  10  19  34  63  90 116 165 209 237 294 380
#     4  11  21  38  61  89 123 156 203 257 301 355
#
# _framework density 19.118290999999999
#
# number of rings (size 3 to 8) (size 9 to 14) (size 15 to 20)
#    0.000    2.200    4.000    2.400    0.000    0.000 
#    7.200   10.000    4.400    0.000    0.000    0.000 
#    0.000    0.000    0.000    0.000    0.000    0.000 
#
# Total GULP energy -223011.143909 kJ/mol
# GULP energy per Si atom -5575.278598 kJ/mol
# Density = 1.907478 g / cm^3
# Si number density = 19.118291 Si / 1000 Ang^3
#
#
#
# Elastic Constant Matrix: (Units=GPa)
#
#
# Indices 1 2 3 4 5 6 
#
# 1 45.5310 13.3146 49.4014 0.0000 0.0000 0.0000
# 2 13.3146 45.5310 49.4014 0.0000 0.0000 0.0000
# 3 49.4014 49.4014 150.4562 0.0000 0.0000 0.0000
# 4 0.0000 0.0000 0.0000 27.3492 0.0000 0.0000
# 5 0.0000 0.0000 0.0000 0.0000 27.3492 0.0000
# 6 0.0000 0.0000 0.0000 0.0000 0.0000 -0.2981
#
#
#
# Elastic Compliance Matrix: (Units=1/GPa)
#
#
# Indices 1 2 3 4 5 6 
#
# 1 0.034456 0.003416 -0.012435 0.000000 0.000000 0.000000
# 2 0.003416 0.034456 -0.012435 0.000000 0.000000 0.000000
# 3 -0.012435 -0.012435 0.014813 0.000000 0.000000 0.000000
# 4 0.000000 0.000000 0.000000 0.036564 0.000000 0.000000
# 5 0.000000 0.000000 0.000000 0.000000 0.036564 0.000000
# 6 0.000000 0.000000 0.000000 0.000000 0.000000 -3.355119
#
#
# Mechanical properties :
#
#
# Convention : Reuss Voigt Hill
#
# Bulk Modulus (GPa) = 24.49972 51.75033 38.12503
# Shear Modulus (GPa) = -1.59147 19.50680 8.95766
#
# Velocity S-wave (km/s) = -0.91337 3.19771 2.16692
# Velocity P-wave (km/s) = 3.42495 6.38444 5.12305
#
# Compressibility (1/GPa) = 0.04081679
#
# Stress axis : x y z
#
# Youngs Moduli (GPa) = 29.02222 29.02222 67.51035
#
# Poissons Ratio (x) = -0.09915 0.83951
# Poissons Ratio (y) = -0.09915 0.83951
# Poissons Ratio (z) = 0.36090 0.36090
#
# Static dielectric constant tensor:
#      x y z
#    x 1.673350 0.000000 0.000000 
#    y 0.000000 1.673350 0.000000 
#    z 0.000000 0.000000 1.712850 
# 
# From -- ./inp_files/9385.got.cif
#   From: 2010.05.17/outbox.cif.g08.bks.cpg/sg122_5_cif.got.tgz:9385.got - 2010.05.20 11:37:33.
