data_PCOD9560848
_publ_section_title
;
Structure prediction by ZEFSAII (Michael W. Deem and Ramdas Pophale) SiO2 
 PCOD9560848
Probable space group: I -4 2 D
;
_chemical_formula_sum "Si O2"
_cell_formula_units_Z 104
_cell_length_a 16.925967
_cell_length_b 16.925967
_cell_length_c 14.739629
_cell_angle_alpha 90.000000
_cell_angle_beta 90.000000
_cell_angle_gamma 90.000000
_cell_volume 4222.732123
_symmetry_space_group_name_H-M "I -4 2 D"
_symmetry_group_IT_number 122
_symmetry_cell_setting 'tetragonal'
loop_
_space_group_symop_operation_xyz
x,y,z
y,-x,-z
-x,-y,z
-y,x,-z
x,1/2-y,1/4-z
-x,1/2+y,1/4-z
-y,1/2-x,1/4+z
y,1/2+x,1/4+z
1/2+x,1/2+y,1/2+z
1/2+y,1/2-x,1/2-z
1/2-x,1/2-y,1/2+z
1/2-y,1/2+x,1/2-z
1/2+x,-y,3/4-z
1/2-x,y,3/4-z
1/2-y,-x,3/4+z
1/2+y,x,3/4+z
loop_
_atom_site_type_symbol
_atom_site_label
_atom_site_fract_x
_atom_site_fract_y
_atom_site_fract_z
Si Si1 0.500000 0.000000 0.877558
Si Si2 0.271220 0.289478 0.220571
Si Si3 0.482252 0.376216 0.035804
Si Si4 0.861882 0.194913 0.699574
Si Si5 0.923566 0.344432 0.348469
Si Si6 0.093622 0.096666 0.722736
Si Si7 0.532144 0.790636 0.381459
O O1 0.441970 0.936247 0.830045
O O2 0.550889 0.945019 0.944697
O O3 0.294529 0.250000 0.125000
O O4 0.247437 0.214270 0.276770
O O5 0.198490 0.350960 0.204019
O O6 0.346102 0.336951 0.256214
O O7 0.465074 0.375565 0.142436
O O8 0.417836 0.435073 0.988712
O O9 0.474313 0.297422 0.977370
O O10 0.905620 0.250000 0.625000
O O11 0.902530 0.171015 0.794951
O O12 0.824225 0.114840 0.662308
O O13 0.002913 0.293409 0.332593
O O14 0.148810 0.032703 0.671937
#
# Coordination Sequence:
#
# PCOD9560848 Si02
#       7
#     8  16  16  16  16  16  16
#     4  12  22  38  63  95 122 176 214 260 316 386
#     4   9  22  43  62  90 123 171 211 268 319 369
#     4   9  18  30  54  89 129 166 194 237 305 383
#     4  11  24  40  67  94 127 170 213 260 315 390
#     4  10  24  42  64  90 133 163 212 269 328 367
#     4  10  20  35  60  86 130 164 205 257 315 378
#     4  10  21  38  59  89 128 164 204 260 307 389
#
# _framework density 24.628606000000001
#
# number of rings (size 3 to 8) (size 9 to 14) (size 15 to 20)
#    0.000    2.000    1.538    1.846   10.769    0.000 
#    0.000    3.077    0.000    0.000    0.000    0.000 
#    0.000    0.000    0.000    0.000    0.000    0.000 
#
# Total GULP energy -291033.860445 kJ/mol
# GULP energy per Si atom -5596.805009 kJ/mol
# Density = 2.457255 g / cm^3
# Si number density = 24.628606 Si / 1000 Ang^3
#
#
#
# Elastic Constant Matrix: (Units=GPa)
#
#
# Indices 1 2 3 4 5 6 
#
# 1 94.0478 32.4726 3.9419 0.0000 0.0000 0.0000
# 2 32.4726 94.0478 3.9419 0.0000 0.0000 0.0000
# 3 3.9419 3.9419 38.7799 0.0000 0.0000 0.0000
# 4 0.0000 0.0000 0.0000 18.1924 0.0000 0.0000
# 5 0.0000 0.0000 0.0000 0.0000 18.1924 0.0000
# 6 0.0000 0.0000 0.0000 0.0000 0.0000 45.8997
#
#
#
# Elastic Compliance Matrix: (Units=1/GPa)
#
#
# Indices 1 2 3 4 5 6 
#
# 1 0.012097 -0.004143 -0.000809 0.000000 0.000000 0.000000
# 2 -0.004143 0.012097 -0.000809 0.000000 0.000000 0.000000
# 3 -0.000809 -0.000809 0.025951 0.000000 0.000000 0.000000
# 4 0.000000 0.000000 0.000000 0.054968 0.000000 0.000000
# 5 0.000000 0.000000 0.000000 0.000000 0.054968 0.000000
# 6 0.000000 0.000000 0.000000 0.000000 0.000000 0.021787
#
#
# Mechanical properties :
#
#
# Convention : Reuss Voigt Hill
#
# Bulk Modulus (GPa) = 25.88978 34.17648 30.03313
# Shear Modulus (GPa) = 24.24086 28.89152 26.56619
#
# Velocity S-wave (km/s) = 3.14069 3.42875 3.28788
# Velocity P-wave (km/s) = 4.86691 5.43893 5.16085
#
# Compressibility (1/GPa) = 0.03862527
#
# Stress axis : x y z
#
# Youngs Moduli (GPa) = 82.66324 82.66324 38.53428
#
# Poissons Ratio (x) = 0.34248 0.03116
# Poissons Ratio (y) = 0.34248 0.03116
# Poissons Ratio (z) = 0.06684 0.06684
#
# Static dielectric constant tensor:
#      x y z
#    x 1.966520 0.000000 0.000000 
#    y 0.000000 1.966520 0.000000 
#    z 0.000000 0.000000 1.649650 
# 
# From -- ./inp_files/6375.got.cif
#   From: 2010.05.17/outbox.cif.g08.bks.cpg/sg122_4_cif.got.tgz:6375.got - 2010.05.20 11:37:33.
