data_PCOD9560418
_publ_section_title
;
Structure prediction by ZEFSAII (Michael W. Deem and Ramdas Pophale) SiO2 
 PCOD9560418
Probable space group: I -4 2 M
;
_chemical_formula_sum "Si O2"
_cell_formula_units_Z 48
_cell_length_a 22.046698
_cell_length_b 22.046698
_cell_length_c 5.089171
_cell_angle_alpha 90.000000
_cell_angle_beta 90.000000
_cell_angle_gamma 90.000000
_cell_volume 2473.626643
_symmetry_space_group_name_H-M "I -4 2 M"
_symmetry_group_IT_number 121
_symmetry_cell_setting 'tetragonal'
loop_
_space_group_symop_operation_xyz
x,y,z
y,-x,-z
-x,-y,z
-y,x,-z
x,-y,-z
-x,y,-z
-y,-x,z
y,x,z
1/2+x,1/2+y,1/2+z
1/2+y,1/2-x,1/2-z
1/2-x,1/2-y,1/2+z
1/2-y,1/2+x,1/2-z
1/2+x,1/2-y,1/2-z
1/2-x,1/2+y,1/2-z
1/2-y,1/2-x,1/2+z
1/2+y,1/2+x,1/2+z
loop_
_atom_site_type_symbol
_atom_site_label
_atom_site_fract_x
_atom_site_fract_y
_atom_site_fract_z
Si Si1 0.383065 0.934286 0.101677
Si Si2 0.926222 0.926222 0.495112
Si Si3 0.721476 0.836824 0.943050
Si Si4 0.137998 0.862003 0.007915
O O1 0.406625 0.931497 0.397299
O O2 0.324788 0.892362 0.069705
O O3 0.368514 0.000000 0.000000
O O4 0.894638 0.894638 0.746524
O O5 0.000000 0.916819 0.500000
O O6 0.893537 0.893537 0.245465
O O7 0.706935 0.799182 0.679844
O O8 0.788343 0.865016 0.977993
#
# Coordination Sequence:
#
# PCOD9560418 Si02
#       4
#    16   8  16   8
#     4  10  21  35  52  77 111 149 189 236 283 332
#     4  11  26  45  62  89 126 157 200 261 308 353
#     4  10  21  38  59  90 125 151 189 249 300 346
#     4  12  22  40  70  91 112 163 204 232 306 388
#
# _framework density 19.404707999999999
#
# number of rings (size 3 to 8) (size 9 to 14) (size 15 to 20)
#    0.000    1.500    0.000    5.000    0.000    6.000 
#    0.000    0.000    0.000    0.000    0.000    0.000 
#    0.000    0.000    0.000    0.000    0.000    0.000 
#
# Total GULP energy -133859.092971 kJ/mol
# GULP energy per Si atom -5577.462207 kJ/mol
# Density = 1.936054 g / cm^3
# Si number density = 19.404708 Si / 1000 Ang^3
#
#
#
# Elastic Constant Matrix: (Units=GPa)
#
#
# Indices 1 2 3 4 5 6 
#
# 1 167.3146 25.4500 52.6467 0.0000 0.0000 0.0000
# 2 25.4500 167.3125 52.6463 0.0000 0.0000 0.0000
# 3 52.6467 52.6463 138.0900 0.0000 0.0000 0.0000
# 4 0.0000 0.0000 0.0000 137.9686 0.0000 0.0000
# 5 0.0000 0.0000 0.0000 0.0000 137.9517 0.0000
# 6 0.0000 0.0000 0.0000 0.0000 0.0000 25.6358
#
#
#
# Elastic Compliance Matrix: (Units=1/GPa)
#
#
# Indices 1 2 3 4 5 6 
#
# 1 0.006801 -0.000248 -0.002498 0.000000 0.000000 0.000000
# 2 -0.000248 0.006801 -0.002498 0.000000 0.000000 0.000000
# 3 -0.002498 -0.002498 0.009146 0.000000 0.000000 0.000000
# 4 0.000000 0.000000 0.000000 0.007248 0.000000 0.000000
# 5 0.000000 0.000000 0.000000 0.000000 0.007249 0.000000
# 6 0.000000 0.000000 0.000000 0.000000 0.000000 0.039008
#
#
# Mechanical properties :
#
#
# Convention : Reuss Voigt Hill
#
# Bulk Modulus (GPa) = 81.57459 81.57812 81.57636
# Shear Modulus (GPa) = 55.04938 83.10949 69.07943
#
# Velocity S-wave (km/s) = 5.33204 6.55153 5.97299
# Velocity P-wave (km/s) = 8.94636 9.96803 9.47098
#
# Compressibility (1/GPa) = 0.01225872
#
# Stress axis : x y z
#
# Youngs Moduli (GPa) = 147.04658 147.04490 109.33304
#
# Poissons Ratio (x) = 0.03653 0.27311
# Poissons Ratio (y) = 0.03653 0.27311
# Poissons Ratio (z) = 0.36732 0.36732
#
# Static dielectric constant tensor:
#      x y z
#    x 1.654200 0.000000 0.000000 
#    y 0.000000 1.654210 0.000000 
#    z 0.000000 0.000000 1.692290 
# 
# From -- ./inp_files/325.got.cif
#   From: 2010.05.17/outbox.cif.g08.bks.cpg/sg121_1_cif.got.tgz:325.got - 2010.05.20 11:32:06.
