data_PCOD9560593
_publ_section_title
;
Structure prediction by ZEFSAII (Michael W. Deem and Ramdas Pophale) SiO2 
 PCOD9560593
Probable space group: I -4 2 M
;
_chemical_formula_sum "Si O2"
_cell_formula_units_Z 92
_cell_length_a 15.518179
_cell_length_b 15.518179
_cell_length_c 19.471084
_cell_angle_alpha 90.000000
_cell_angle_beta 90.000000
_cell_angle_gamma 90.000000
_cell_volume 4688.907276
_symmetry_space_group_name_H-M "I -4 2 M"
_symmetry_group_IT_number 121
_symmetry_cell_setting 'tetragonal'
loop_
_space_group_symop_operation_xyz
x,y,z
y,-x,-z
-x,-y,z
-y,x,-z
x,-y,-z
-x,y,-z
-y,-x,z
y,x,z
1/2+x,1/2+y,1/2+z
1/2+y,1/2-x,1/2-z
1/2-x,1/2-y,1/2+z
1/2-y,1/2+x,1/2-z
1/2+x,1/2-y,1/2-z
1/2-x,1/2+y,1/2-z
1/2-y,1/2-x,1/2+z
1/2+y,1/2+x,1/2+z
loop_
_atom_site_type_symbol
_atom_site_label
_atom_site_fract_x
_atom_site_fract_y
_atom_site_fract_z
Si Si1 0.189574 0.442037 0.183712
Si Si2 0.000000 0.000000 0.710042
Si Si3 0.862685 0.862685 0.723827
Si Si4 0.714920 0.063096 0.800163
Si Si5 0.461381 0.086478 0.924623
Si Si6 0.719565 0.280436 0.639941
Si Si7 0.354816 0.354816 0.802047
Si Si8 0.236221 0.540299 0.570555
O O1 0.288653 0.412010 0.181635
O O2 0.132004 0.356670 0.178922
O O3 0.172956 0.483915 0.258311
O O4 0.162873 0.511810 0.126362
O O5 0.928434 0.071567 0.677408
O O6 0.066336 0.066336 0.746828
O O7 0.812432 0.812432 0.784705
O O8 0.784535 0.099328 0.746872
O O9 0.756609 0.025940 0.868582
O O10 0.365384 0.055565 0.937054
O O11 0.500000 0.000000 0.891485
O O12 0.500000 0.103464 0.000000
O O13 0.793940 0.206061 0.647408
O O14 0.743276 0.365628 0.598462
O O15 0.270859 0.500000 0.500000
#
# Coordination Sequence:
#
# PCOD9560593 Si02
#       8
#    16   4   8  16  16   8   8  16
#     4  12  22  36  63  96 129 171 221 287 354 408
#     4  12  24  40  62  92 136 190 222 274 376 424
#     4  12  24  42  62  98 136 173 234 297 338 427
#     4  12  22  36  63  94 132 169 229 291 347 423
#     4  11  21  40  63  94 136 170 215 285 354 419
#     4  12  24  45  66 102 144 178 235 301 346 429
#     4  12  22  41  63  94 139 178 236 297 353 424
#     4  12  24  42  64  96 140 185 227 286 361 427
#
# _framework density 19.620775999999999
#
# number of rings (size 3 to 8) (size 9 to 14) (size 15 to 20)
#    0.000    0.174    8.696    2.087    0.000    0.696 
#    0.000    3.478    0.000    0.000    0.000    0.000 
#    0.000    0.000    0.000    0.000    0.000    0.000 
#
# Total GULP energy -256180.695730 kJ/mol
# GULP energy per Si atom -5569.145559 kJ/mol
# Density = 1.957612 g / cm^3
# Si number density = 19.620776 Si / 1000 Ang^3
#
#
#
# Elastic Constant Matrix: (Units=GPa)
#
#
# Indices 1 2 3 4 5 6 
#
# 1 82.1566 29.2268 20.2692 0.0000 0.0000 0.0000
# 2 29.2268 82.1580 20.2696 0.0000 0.0000 0.0000
# 3 20.2692 20.2696 88.1216 0.0000 0.0000 0.0000
# 4 0.0000 0.0000 0.0000 12.8697 0.0000 0.0000
# 5 0.0000 0.0000 0.0000 0.0000 12.8697 0.0000
# 6 0.0000 0.0000 0.0000 0.0000 0.0000 28.9151
#
#
#
# Elastic Compliance Matrix: (Units=1/GPa)
#
#
# Indices 1 2 3 4 5 6 
#
# 1 0.014346 -0.004547 -0.002254 0.000000 0.000000 0.000000
# 2 -0.004547 0.014345 -0.002254 0.000000 0.000000 0.000000
# 3 -0.002254 -0.002254 0.012385 0.000000 0.000000 0.000000
# 4 0.000000 0.000000 0.000000 0.077702 0.000000 0.000000
# 5 0.000000 0.000000 0.000000 0.000000 0.077702 0.000000
# 6 0.000000 0.000000 0.000000 0.000000 0.000000 0.034584
#
#
# Mechanical properties :
#
#
# Convention : Reuss Voigt Hill
#
# Bulk Modulus (GPa) = 43.54229 43.55193 43.54711
# Shear Modulus (GPa) = 19.46827 23.10894 21.28861
#
# Velocity S-wave (km/s) = 3.15338 3.43560 3.29751
# Velocity P-wave (km/s) = 5.95806 6.16302 6.06141
#
# Compressibility (1/GPa) = 0.02296618
#
# Stress axis : x y z
#
# Youngs Moduli (GPa) = 69.70796 69.70903 80.74449
#
# Poissons Ratio (x) = 0.31698 0.18198
# Poissons Ratio (y) = 0.31698 0.18198
# Poissons Ratio (z) = 0.15710 0.15711
#
# Static dielectric constant tensor:
#      x y z
#    x 1.975540 0.000000 0.000000 
#    y 0.000000 1.975550 0.000000 
#    z 0.000000 0.000000 1.686390 
# 
# From -- ./inp_files/6502.got.cif
#   From: 2010.05.17/outbox.cif.g08.bks.cpg/sg121_4_cif.got.tgz:6502.got - 2010.05.20 11:32:06.
