data_PCOD9560740
_publ_section_title
;
Structure prediction by ZEFSAII (Michael W. Deem and Ramdas Pophale) SiO2 
 PCOD9560740
Probable space group: I -4 2 D
;
_chemical_formula_sum "Si O2"
_cell_formula_units_Z 72
_cell_length_a 16.955728
_cell_length_b 16.955728
_cell_length_c 12.271716
_cell_angle_alpha 90.000000
_cell_angle_beta 90.000000
_cell_angle_gamma 90.000000
_cell_volume 3528.078001
_symmetry_space_group_name_H-M "I -4 2 D"
_symmetry_group_IT_number 122
_symmetry_cell_setting 'tetragonal'
loop_
_space_group_symop_operation_xyz
x,y,z
y,-x,-z
-x,-y,z
-y,x,-z
x,1/2-y,1/4-z
-x,1/2+y,1/4-z
-y,1/2-x,1/4+z
y,1/2+x,1/4+z
1/2+x,1/2+y,1/2+z
1/2+y,1/2-x,1/2-z
1/2-x,1/2-y,1/2+z
1/2-y,1/2+x,1/2-z
1/2+x,-y,3/4-z
1/2-x,y,3/4-z
1/2-y,-x,3/4+z
1/2+y,x,3/4+z
loop_
_atom_site_type_symbol
_atom_site_label
_atom_site_fract_x
_atom_site_fract_y
_atom_site_fract_z
Si Si1 0.971469 0.250000 0.125000
Si Si2 0.122568 0.499738 0.216744
Si Si3 0.913933 0.287834 0.463330
Si Si4 0.959524 0.750000 0.625000
Si Si5 0.290710 0.750000 0.125000
Si Si6 0.157158 0.679402 0.972220
O O1 0.018917 0.299416 0.214149
O O2 0.915056 0.191697 0.194553
O O3 0.066671 0.574365 0.217423
O O4 0.144528 0.460946 0.101432
O O5 0.849207 0.306654 0.555913
O O6 0.865448 0.240811 0.372165
O O7 0.981404 0.236203 0.523535
O O8 0.902627 0.679097 0.585938
O O9 0.234082 0.795969 0.208143
#
# Coordination Sequence:
#
# PCOD9560740 Si02
#       6
#     8  16  16   8   8  16
#     4   9  20  37  59  90 111 150 208 238 297 374
#     4  10  21  41  59  82 125 162 198 249 304 363
#     4  10  21  36  58  91 113 153 206 236 303 374
#     4  11  20  35  59  84 125 152 184 258 303 354
#     4  10  18  36  62  86 118 146 196 260 302 340
#     4  10  19  37  57  86 121 150 189 256 299 343
#
# _framework density 20.407710999999999
#
# number of rings (size 3 to 8) (size 9 to 14) (size 15 to 20)
#    0.000    2.000    2.222    1.333    0.000    0.000 
#   20.000    0.000    0.000    0.667    0.000    0.000 
#    0.000    0.000    0.000    0.000    0.000    0.000 
#
# Total GULP energy -200487.047249 kJ/mol
# GULP energy per Si atom -5569.084646 kJ/mol
# Density = 2.036126 g / cm^3
# Si number density = 20.407711 Si / 1000 Ang^3
#
#
#
# Elastic Constant Matrix: (Units=GPa)
#
#
# Indices 1 2 3 4 5 6 
#
# 1 41.8441 20.9161 33.5100 0.0000 0.0000 0.0000
# 2 20.9161 41.8441 33.5100 0.0000 0.0000 0.0000
# 3 33.5100 33.5100 104.6975 0.0000 0.0000 0.0000
# 4 0.0000 0.0000 0.0000 19.3907 0.0000 0.0000
# 5 0.0000 0.0000 0.0000 0.0000 19.3907 0.0000
# 6 0.0000 0.0000 0.0000 0.0000 0.0000 8.3696
#
#
#
# Elastic Compliance Matrix: (Units=1/GPa)
#
#
# Indices 1 2 3 4 5 6 
#
# 1 0.035995 -0.011788 -0.007748 0.000000 0.000000 0.000000
# 2 -0.011788 0.035995 -0.007748 0.000000 0.000000 0.000000
# 3 -0.007748 -0.007748 0.014511 0.000000 0.000000 0.000000
# 4 0.000000 0.000000 0.000000 0.051571 0.000000 0.000000
# 5 0.000000 0.000000 0.000000 0.000000 0.051571 0.000000
# 6 0.000000 0.000000 0.000000 0.000000 0.000000 0.119479
#
#
# Mechanical properties :
#
#
# Convention : Reuss Voigt Hill
#
# Bulk Modulus (GPa) = 31.31440 40.47312 35.89376
# Shear Modulus (GPa) = 13.35701 16.12684 14.74192
#
# Velocity S-wave (km/s) = 2.56111 2.81416 2.69061
# Velocity P-wave (km/s) = 4.91156 5.51676 5.22293
#
# Compressibility (1/GPa) = 0.03193419
#
# Stress axis : x y z
#
# Youngs Moduli (GPa) = 27.78143 27.78143 68.91299
#
# Poissons Ratio (x) = 0.32748 0.53394
# Poissons Ratio (y) = 0.32748 0.53394
# Poissons Ratio (z) = 0.21525 0.21525
#
# Static dielectric constant tensor:
#      x y z
#    x 1.730110 0.000000 0.000000 
#    y 0.000000 1.730110 0.000000 
#    z 0.000000 0.000000 1.804450 
# 
# From -- ./inp_files/4208.got.cif
#   From: 2010.05.17/outbox.cif.g08.bks.cpg/sg122_3_cif.got.tgz:4208.got - 2010.05.20 11:37:33.
