data_PCOD9560944
_publ_section_title
;
Structure prediction by ZEFSAII (Michael W. Deem and Ramdas Pophale) SiO2 
 PCOD9560944
Probable space group: I -4 2 D
;
_chemical_formula_sum "Si O2"
_cell_formula_units_Z 112
_cell_length_a 14.959544
_cell_length_b 14.959544
_cell_length_c 21.459336
_cell_angle_alpha 90.000000
_cell_angle_beta 90.000000
_cell_angle_gamma 90.000000
_cell_volume 4802.340955
_symmetry_space_group_name_H-M "I -4 2 D"
_symmetry_group_IT_number 122
_symmetry_cell_setting 'tetragonal'
loop_
_space_group_symop_operation_xyz
x,y,z
y,-x,-z
-x,-y,z
-y,x,-z
x,1/2-y,1/4-z
-x,1/2+y,1/4-z
-y,1/2-x,1/4+z
y,1/2+x,1/4+z
1/2+x,1/2+y,1/2+z
1/2+y,1/2-x,1/2-z
1/2-x,1/2-y,1/2+z
1/2-y,1/2+x,1/2-z
1/2+x,-y,3/4-z
1/2-x,y,3/4-z
1/2-y,-x,3/4+z
1/2+y,x,3/4+z
loop_
_atom_site_type_symbol
_atom_site_label
_atom_site_fract_x
_atom_site_fract_y
_atom_site_fract_z
Si Si1 0.222362 0.965219 0.938709
Si Si2 0.615132 0.026965 0.289426
Si Si3 0.032153 0.658308 0.885679
Si Si4 0.613368 0.113191 0.012729
Si Si5 0.783369 0.459112 0.025095
Si Si6 0.808910 0.610865 0.217361
Si Si7 0.241481 0.743262 0.697817
O O1 0.250000 0.015067 0.875000
O O2 0.153465 0.884753 0.923871
O O3 0.317095 0.931240 0.965291
O O4 0.176850 0.019716 0.994931
O O5 0.571717 0.080895 0.229420
O O6 0.579346 0.076126 0.350281
O O7 0.720114 0.031076 0.285266
O O8 0.097073 0.715778 0.930685
O O9 0.946875 0.624022 0.925203
O O10 0.003319 0.730761 0.833348
O O11 0.652120 0.214129 0.022528
O O12 0.512704 0.126089 0.988249
O O13 0.778909 0.354552 0.037725
O O14 0.805092 0.682595 0.272854
O O15 0.230308 0.750000 0.625000
#
# Coordination Sequence:
#
# PCOD9560944 Si02
#       7
#    16  16  16  16  16  16  16
#     4  10  21  42  68  99 135 169 218 282 340 408
#     4   9  19  37  60  86 129 173 215 277 330 393
#     4  10  20  41  64  91 130 168 222 282 338 398
#     4  10  22  40  66  94 128 175 223 271 341 398
#     4  11  21  39  63  94 128 177 224 270 336 407
#     4  10  23  40  67  98 127 173 219 276 345 407
#     4  11  21  40  63  91 129 173 222 270 333 413
#
# _framework density 23.321957000000001
#
# number of rings (size 3 to 8) (size 9 to 14) (size 15 to 20)
#    0.000    1.857    1.429    3.000    0.000    1.429 
#   10.286    2.143    3.143    0.000    0.000    0.000 
#    0.000    0.000    0.000    0.000    0.000    0.000 
#
# Total GULP energy -312468.738096 kJ/mol
# GULP energy per Si atom -5579.798895 kJ/mol
# Density = 2.326888 g / cm^3
# Si number density = 23.321957 Si / 1000 Ang^3
#
#
#
# Elastic Constant Matrix: (Units=GPa)
#
#
# Indices 1 2 3 4 5 6 
#
# 1 59.4853 3.6912 11.8145 0.0000 0.0000 0.0000
# 2 3.6912 59.4853 11.8145 0.0000 0.0000 0.0000
# 3 11.8145 11.8145 91.0710 0.0000 0.0000 0.0000
# 4 0.0000 0.0000 0.0000 26.5080 0.0000 0.0000
# 5 0.0000 0.0000 0.0000 0.0000 26.5080 0.0000
# 6 0.0000 0.0000 0.0000 0.0000 0.0000 16.3712
#
#
#
# Elastic Compliance Matrix: (Units=1/GPa)
#
#
# Indices 1 2 3 4 5 6 
#
# 1 0.017279 -0.000644 -0.002158 0.000000 0.000000 0.000000
# 2 -0.000644 0.017279 -0.002158 0.000000 0.000000 0.000000
# 3 -0.002158 -0.002158 0.011540 0.000000 0.000000 0.000000
# 4 0.000000 0.000000 0.000000 0.037724 0.000000 0.000000
# 5 0.000000 0.000000 0.000000 0.000000 0.037724 0.000000
# 6 0.000000 0.000000 0.000000 0.000000 0.000000 0.061083
#
#
# Mechanical properties :
#
#
# Convention : Reuss Voigt Hill
#
# Bulk Modulus (GPa) = 27.63993 29.40909 28.52451
# Shear Modulus (GPa) = 24.43668 26.05889 25.24779
#
# Velocity S-wave (km/s) = 3.24048 3.34631 3.29382
# Velocity P-wave (km/s) = 5.08706 5.25051 5.16943
#
# Compressibility (1/GPa) = 0.03617954
#
# Stress axis : x y z
#
# Youngs Moduli (GPa) = 57.87226 57.87226 86.65222
#
# Poissons Ratio (x) = 0.03725 0.18701
# Poissons Ratio (y) = 0.03725 0.18701
# Poissons Ratio (z) = 0.12490 0.12490
#
# Static dielectric constant tensor:
#      x y z
#    x 1.939690 0.000000 0.000000 
#    y 0.000000 1.939690 0.000000 
#    z 0.000000 0.000000 1.916240 
# 
# From -- ./inp_files/8114.got.cif
#   From: 2010.05.17/outbox.cif.g08.bks.cpg/sg122_5_cif.got.tgz:8114.got - 2010.05.20 11:37:33.
