data_PCOD9560697
_publ_section_title
;
Structure prediction by ZEFSAII (Michael W. Deem and Ramdas Pophale) SiO2 
 PCOD9560697
Probable space group: I -4 2 D
;
_chemical_formula_sum "Si O2"
_cell_formula_units_Z 48
_cell_length_a 16.448205
_cell_length_b 16.448205
_cell_length_c 6.860141
_cell_angle_alpha 90.000000
_cell_angle_beta 90.000000
_cell_angle_gamma 90.000000
_cell_volume 1855.966198
_symmetry_space_group_name_H-M "I -4 2 D"
_symmetry_group_IT_number 122
_symmetry_cell_setting 'tetragonal'
loop_
_space_group_symop_operation_xyz
x,y,z
y,-x,-z
-x,-y,z
-y,x,-z
x,1/2-y,1/4-z
-x,1/2+y,1/4-z
-y,1/2-x,1/4+z
y,1/2+x,1/4+z
1/2+x,1/2+y,1/2+z
1/2+y,1/2-x,1/2-z
1/2-x,1/2-y,1/2+z
1/2-y,1/2+x,1/2-z
1/2+x,-y,3/4-z
1/2-x,y,3/4-z
1/2-y,-x,3/4+z
1/2+y,x,3/4+z
loop_
_atom_site_type_symbol
_atom_site_label
_atom_site_fract_x
_atom_site_fract_y
_atom_site_fract_z
Si Si1 0.048552 0.415339 0.493066
Si Si2 0.345999 0.219910 0.898199
Si Si3 0.846326 0.608061 0.886837
O O1 0.111160 0.365870 0.358601
O O2 0.101268 0.417611 0.693725
O O3 0.000000 0.500000 0.460604
O O4 0.973367 0.354064 0.492792
O O5 0.250000 0.206857 0.875000
O O6 0.376222 0.302995 0.795252
O O7 0.357742 0.250000 0.125000
O O8 0.750000 0.621600 0.875000
#
# Coordination Sequence:
#
# PCOD9560697 Si02
#       3
#    16  16  16
#     4  11  19  31  54  92 125 153 209 259 308 362
#     4   9  20  35  58  93 125 160 205 257 317 370
#     4  10  17  30  52  87 120 153 198 262 307 347
#
# _framework density 25.862542999999999
#
# number of rings (size 3 to 8) (size 9 to 14) (size 15 to 20)
#    0.000    2.000    3.333    3.000    0.000    0.000 
#    0.000    0.000    0.000   16.000    0.000   37.333 
#    0.000    0.000    0.000    0.000    0.000    0.000 
#
# Total GULP energy -133643.788664 kJ/mol
# GULP energy per Si atom -5568.491194 kJ/mol
# Density = 2.580368 g / cm^3
# Si number density = 25.862543 Si / 1000 Ang^3
#
#
#
# Elastic Constant Matrix: (Units=GPa)
#
#
# Indices 1 2 3 4 5 6 
#
# 1 179.6362 70.3567 29.5403 0.0000 0.0000 0.0000
# 2 70.3567 179.6362 29.5403 0.0000 0.0000 0.0000
# 3 29.5403 29.5403 76.0102 0.0000 0.0000 0.0000
# 4 0.0000 0.0000 0.0000 24.6509 0.0000 0.0000
# 5 0.0000 0.0000 0.0000 0.0000 24.6509 0.0000
# 6 0.0000 0.0000 0.0000 0.0000 0.0000 65.6228
#
#
#
# Elastic Compliance Matrix: (Units=1/GPa)
#
#
# Indices 1 2 3 4 5 6 
#
# 1 0.006778 -0.002373 -0.001712 0.000000 0.000000 0.000000
# 2 -0.002373 0.006778 -0.001712 0.000000 0.000000 0.000000
# 3 -0.001712 -0.001712 0.014487 0.000000 0.000000 0.000000
# 4 0.000000 0.000000 0.000000 0.040566 0.000000 0.000000
# 5 0.000000 0.000000 0.000000 0.000000 0.040566 0.000000
# 6 0.000000 0.000000 0.000000 0.000000 0.000000 0.015239
#
#
# Mechanical properties :
#
#
# Convention : Reuss Voigt Hill
#
# Bulk Modulus (GPa) = 60.79490 77.12859 68.96174
# Shear Modulus (GPa) = 35.33819 43.37462 39.35641
#
# Velocity S-wave (km/s) = 3.70047 4.09971 3.90520
# Velocity P-wave (km/s) = 6.46653 7.23170 6.85979
#
# Compressibility (1/GPa) = 0.01644875
#
# Stress axis : x y z
#
# Youngs Moduli (GPa) = 147.54153 147.54153 69.02900
#
# Poissons Ratio (x) = 0.35013 0.11816
# Poissons Ratio (y) = 0.35013 0.11816
# Poissons Ratio (z) = 0.25256 0.25256
#
# Static dielectric constant tensor:
#      x y z
#    x 2.073330 0.000000 0.000000 
#    y 0.000000 2.073330 0.000000 
#    z 0.000000 0.000000 2.314020 
# 
# From -- ./inp_files/2047.got.cif
#   From: 2010.05.17/outbox.cif.g08.bks.cpg/sg122_2_cif.got.tgz:2047.got - 2010.05.20 11:37:33.
