data_PCOD9560041
_publ_section_title
;
Structure prediction by ZEFSAII (Michael W. Deem and Ramdas Pophale) SiO2 
 PCOD9560041
Probable space group: I -4 C 2
;
_chemical_formula_sum "Si O2"
_cell_formula_units_Z 36
_cell_length_a 9.966487
_cell_length_b 9.966487
_cell_length_c 13.348584
_cell_angle_alpha 90.000000
_cell_angle_beta 90.000000
_cell_angle_gamma 90.000000
_cell_volume 1325.926370
_symmetry_space_group_name_H-M "I -4 C 2"
_symmetry_group_IT_number 120
_symmetry_cell_setting 'tetragonal'
loop_
_space_group_symop_operation_xyz
x,y,z
y,-x,-z
-x,-y,z
-y,x,-z
y,x,1/2-z
-y,-x,1/2-z
-x,y,1/2+z
x,-y,1/2+z
1/2+x,1/2+y,1/2+z
1/2+y,1/2-x,1/2-z
1/2-x,1/2-y,1/2+z
1/2-y,1/2+x,1/2-z
1/2+y,1/2+x,-z
1/2-y,1/2-x,-z
1/2-x,1/2+y,z
1/2+x,1/2-y,z
loop_
_atom_site_type_symbol
_atom_site_label
_atom_site_fract_x
_atom_site_fract_y
_atom_site_fract_z
Si Si1 0.652318 0.635043 0.961811
Si Si2 0.322260 0.061371 0.190495
Si Si3 0.000000 0.500000 0.500000
O O1 0.664171 0.474946 0.966045
O O2 0.777929 0.722072 0.000000
O O3 0.816536 0.879617 0.150542
O O4 0.426407 0.164633 0.243037
O O5 0.384324 0.020057 0.082386
#
# Coordination Sequence:
#
# PCOD9560041 Si02
#       3
#    16  16   4
#     4  11  26  47  78 115 158 216 263 325 406 479
#     4   9  19  37  74 115 148 206 262 318 393 477
#     4   8  14  32  68 102 146 200 244 300 392 462
#
# _framework density 27.150829999999999
#
# number of rings (size 3 to 8) (size 9 to 14) (size 15 to 20)
#    0.000    2.667    2.222    0.000    3.111    0.889 
#    0.000    8.889    0.000   10.667    0.000    0.000 
#    0.000    0.000    0.000    0.000    0.000    0.000 
#
# Total GULP energy -100586.557808 kJ/mol
# GULP energy per Si atom -5588.142100 kJ/mol
# Density = 2.708903 g / cm^3
# Si number density = 27.150830 Si / 1000 Ang^3
#
#
#
# Elastic Constant Matrix: (Units=GPa)
#
#
# Indices 1 2 3 4 5 6 
#
# 1 115.4933 2.7145 42.7254 0.0000 0.0000 0.0000
# 2 2.7145 115.4979 42.7256 0.0000 0.0000 0.0000
# 3 42.7254 42.7256 217.6236 0.0000 0.0000 0.0000
# 4 0.0000 0.0000 0.0000 48.6492 0.0000 0.0000
# 5 0.0000 0.0000 0.0000 0.0000 48.6488 0.0000
# 6 0.0000 0.0000 0.0000 0.0000 0.0000 35.4650
#
#
#
# Elastic Compliance Matrix: (Units=1/GPa)
#
#
# Indices 1 2 3 4 5 6 
#
# 1 0.009363 0.000496 -0.001936 0.000000 0.000000 0.000000
# 2 0.000496 0.009363 -0.001935 0.000000 0.000000 0.000000
# 3 -0.001936 -0.001935 0.005355 0.000000 0.000000 0.000000
# 4 0.000000 0.000000 0.000000 0.020555 0.000000 0.000000
# 5 0.000000 0.000000 0.000000 0.000000 0.020555 0.000000
# 6 0.000000 0.000000 0.000000 0.000000 0.000000 0.028197
#
#
# Mechanical properties :
#
#
# Convention : Reuss Voigt Hill
#
# Bulk Modulus (GPa) = 57.70243 69.43843 63.57043
# Shear Modulus (GPa) = 47.20764 50.58255 48.89510
#
# Velocity S-wave (km/s) = 4.17432 4.32095 4.24827
# Velocity P-wave (km/s) = 6.67322 7.10808 6.89408
#
# Compressibility (1/GPa) = 0.01733029
#
# Stress axis : x y z
#
# Youngs Moduli (GPa) = 106.80462 106.80907 186.73842
#
# Poissons Ratio (x) = -0.05297 0.36144
# Poissons Ratio (y) = -0.05297 0.36143
# Poissons Ratio (z) = 0.20673 0.20673
#
# Static dielectric constant tensor:
#      x y z
#    x 2.400610 0.000000 0.000000 
#    y 0.000000 2.400610 0.000000 
#    z 0.000000 0.000000 2.055230 
# 
# From -- ./inp_files/1844.got.cif
#   From: 2010.05.17/outbox.cif.g08.bks.cpg/sg120_1_cif.got.tgz:1844.got - 2010.05.20 11:28:13.
