data_PCOD9560182
_publ_section_title
;
Structure prediction by ZEFSAII (Michael W. Deem and Ramdas Pophale) SiO2 
 PCOD9560182
Probable space group: I -4 2 M
;
_chemical_formula_sum "Si O2"
_cell_formula_units_Z 112
_cell_length_a 23.992928
_cell_length_b 23.992928
_cell_length_c 12.734145
_cell_angle_alpha 90.000000
_cell_angle_beta 90.000000
_cell_angle_gamma 90.000000
_cell_volume 7330.545475
_symmetry_space_group_name_H-M "I -4 2 M"
_symmetry_group_IT_number 121
_symmetry_cell_setting 'tetragonal'
loop_
_space_group_symop_operation_xyz
x,y,z
y,-x,-z
-x,-y,z
-y,x,-z
x,-y,-z
-x,y,-z
-y,-x,z
y,x,z
1/2+x,1/2+y,1/2+z
1/2+y,1/2-x,1/2-z
1/2-x,1/2-y,1/2+z
1/2-y,1/2+x,1/2-z
1/2+x,1/2-y,1/2-z
1/2-x,1/2+y,1/2-z
1/2-y,1/2-x,1/2+z
1/2+y,1/2+x,1/2+z
loop_
_atom_site_type_symbol
_atom_site_label
_atom_site_fract_x
_atom_site_fract_y
_atom_site_fract_z
Si Si1 0.222087 0.318419 0.745459
Si Si2 0.044413 0.863492 0.908466
Si Si3 0.675770 0.580661 0.124591
Si Si4 0.368727 0.726802 0.447809
Si Si5 0.365074 0.269173 0.311798
Si Si6 0.787962 0.120616 0.586777
Si Si7 0.966422 0.122461 0.669658
O O1 0.271905 0.271905 0.745979
O O2 0.226398 0.348928 0.633485
O O3 0.165986 0.284448 0.764660
O O4 0.236961 0.361053 0.839917
O O5 0.089308 0.910693 0.937923
O O6 0.021581 0.879538 0.794233
O O7 0.078741 0.806250 0.901689
O O8 0.000000 0.859925 0.000000
O O9 0.629252 0.629252 0.120868
O O10 0.708515 0.587115 0.234279
O O11 0.642369 0.523002 0.115673
O O12 0.717257 0.592033 0.026989
O O13 0.317989 0.682012 0.451400
O O14 0.381043 0.742350 0.567920
O O15 0.318647 0.318647 0.313972
O O16 0.822414 0.177587 0.567427
O O17 0.829499 0.079553 0.649544
O O18 0.935103 0.064898 0.638187
#
# Coordination Sequence:
#
# PCOD9560182 Si02
#       7
#    16  16  16  16  16  16  16
#     4   9  16  27  44  62  79 104 136 169 218 281
#     4  10  19  30  44  59  80 111 148 189 230 270
#     4  10  20  31  43  63  88 109 142 193 236 269
#     4   9  16  28  42  58  81 105 133 172 216 268
#     4   9  18  27  41  64  86 106 130 173 229 275
#     4   9  17  30  45  60  79 107 145 185 223 271
#     4  10  19  32  46  60  80 114 155 190 229 271
#
# _framework density 15.278535
#
# number of rings (size 3 to 8) (size 9 to 14) (size 15 to 20)
#    0.000    2.571    1.429    1.286    2.000    2.143 
#    0.000    1.429    0.000    2.571    0.000    0.000 
#    0.000    0.000    0.000    0.000    0.000    0.714 
#
# Total GULP energy -311812.206585 kJ/mol
# GULP energy per Si atom -5568.075118 kJ/mol
# Density = 1.524376 g / cm^3
# Si number density = 15.278535 Si / 1000 Ang^3
#
#
#
# Elastic Constant Matrix: (Units=GPa)
#
#
# Indices 1 2 3 4 5 6 
#
# 1 20.1991 24.5560 20.6295 0.0000 0.0000 0.0000
# 2 24.5560 20.1986 20.6287 0.0000 0.0000 0.0000
# 3 20.6295 20.6287 93.4319 0.0000 0.0000 0.0000
# 4 0.0000 0.0000 0.0000 16.7160 0.0000 0.0000
# 5 0.0000 0.0000 0.0000 0.0000 16.7162 0.0000
# 6 0.0000 0.0000 0.0000 0.0000 0.0000 15.8832
#
#
#
# Elastic Compliance Matrix: (Units=1/GPa)
#
#
# Indices 1 2 3 4 5 6 
#
# 1 -0.100726 0.128781 -0.006193 0.000000 0.000000 0.000000
# 2 0.128781 -0.100727 -0.006195 0.000000 0.000000 0.000000
# 3 -0.006193 -0.006195 0.013438 0.000000 0.000000 0.000000
# 4 0.000000 0.000000 0.000000 0.059823 0.000000 0.000000
# 5 0.000000 0.000000 0.000000 0.000000 0.059822 0.000000
# 6 0.000000 0.000000 0.000000 0.000000 0.000000 0.062960
#
#
# Mechanical properties :
#
#
# Convention : Reuss Voigt Hill
#
# Bulk Modulus (GPa) = 22.33644 29.49534 25.91589
# Shear Modulus (GPa) = -22.39428 14.39743 -3.99842
#
# Velocity S-wave (km/s) = -3.83265 3.07307 -1.61948
# Velocity P-wave (km/s) = 2.22133 5.65143 3.67453
#
# Compressibility (1/GPa) = 0.04476989
#
# Stress axis : x y z
#
# Youngs Moduli (GPa) = -9.92791 -9.92784 74.41460
#
# Poissons Ratio (x) = 1.27851 0.46087
# Poissons Ratio (y) = 1.27852 0.46100
# Poissons Ratio (z) = -0.06149 -0.06150
#
# Static dielectric constant tensor:
#      x y z
#    x 1.495290 0.000000 0.000000 
#    y 0.000000 1.495290 0.000000 
#    z 0.000000 0.000000 1.570080 
# 
# From -- ./inp_files/3477.got.cif
#   From: 2010.05.17/outbox.cif.g08.bks.cpg/sg121_2_cif.got.tgz:3477.got - 2010.05.20 11:32:06.
