data_PCOD9560149
_publ_section_title
;
Structure prediction by ZEFSAII (Michael W. Deem and Ramdas Pophale) SiO2 
 PCOD9560149
Probable space group: I -4 2 M
;
_chemical_formula_sum "Si O2"
_cell_formula_units_Z 96
_cell_length_a 22.587141
_cell_length_b 22.587141
_cell_length_c 9.003466
_cell_angle_alpha 90.000000
_cell_angle_beta 90.000000
_cell_angle_gamma 90.000000
_cell_volume 4593.378727
_symmetry_space_group_name_H-M "I -4 2 M"
_symmetry_group_IT_number 121
_symmetry_cell_setting 'tetragonal'
loop_
_space_group_symop_operation_xyz
x,y,z
y,-x,-z
-x,-y,z
-y,x,-z
x,-y,-z
-x,y,-z
-y,-x,z
y,x,z
1/2+x,1/2+y,1/2+z
1/2+y,1/2-x,1/2-z
1/2-x,1/2-y,1/2+z
1/2-y,1/2+x,1/2-z
1/2+x,1/2-y,1/2-z
1/2-x,1/2+y,1/2-z
1/2-y,1/2-x,1/2+z
1/2+y,1/2+x,1/2+z
loop_
_atom_site_type_symbol
_atom_site_label
_atom_site_fract_x
_atom_site_fract_y
_atom_site_fract_z
Si Si1 0.104655 0.711011 0.502332
Si Si2 0.211931 0.500000 0.500000
Si Si3 0.118403 0.311841 0.164535
Si Si4 0.035036 0.213297 0.713315
Si Si5 0.000979 0.900652 0.824710
Si Si6 0.289580 0.289580 0.030244
Si Si7 0.839993 0.160008 0.201266
Si Si8 0.302232 0.697769 0.407874
O O1 0.097348 0.682077 0.664337
O O2 0.139872 0.666483 0.391552
O O3 0.050053 0.740721 0.416788
O O4 0.148987 0.766223 0.528138
O O5 0.182281 0.561575 0.444351
O O6 0.249900 0.516840 0.643360
O O7 0.151862 0.247313 0.155521
O O8 0.993446 0.155405 0.713995
O O9 0.096880 0.181284 0.747069
O O10 0.943096 0.943096 0.801737
O O11 0.056555 0.943446 0.805900
O O12 0.000000 0.881805 0.000000
O O13 0.296161 0.296161 0.208236
O O14 0.240925 0.240925 0.998882
O O15 0.839193 0.160808 0.025454
#
# Coordination Sequence:
#
# PCOD9560149 Si02
#       8
#    16   8  16  16  16   8   8   8
#     4  10  22  38  61  87 125 163 209 269 336 416
#     4  12  24  36  58  87 122 165 214 266 322 398
#     4  11  23  39  59  90 124 165 210 261 335 407
#     4  11  20  35  56  86 121 164 214 277 336 393
#     4   9  17  30  52  84 120 167 229 287 336 387
#     4   8  19  28  56  85 117 159 197 258 325 406
#     4  10  18  32  49  82 117 160 210 264 329 391
#     4  10  19  30  56  81 122 157 207 258 319 405
#
# _framework density 20.899647999999999
#
# number of rings (size 3 to 8) (size 9 to 14) (size 15 to 20)
#    0.000    1.833    3.333    2.000   11.667    0.667 
#    1.500    0.000    0.000    0.000    4.333    0.000 
#    0.000   40.000    0.000    0.000    0.000    0.000 
#
# Total GULP energy -267224.578212 kJ/mol
# GULP energy per Si atom -5567.178713 kJ/mol
# Density = 2.085208 g / cm^3
# Si number density = 20.899648 Si / 1000 Ang^3
#
#
#
# Elastic Constant Matrix: (Units=GPa)
#
#
# Indices 1 2 3 4 5 6 
#
# 1 76.7848 53.5378 45.3195 0.0000 0.0000 0.0000
# 2 53.5378 76.7845 45.3159 0.0000 0.0000 0.0000
# 3 45.3195 45.3159 95.7174 0.0000 0.0000 0.0000
# 4 0.0000 0.0000 0.0000 23.3566 0.0000 0.0000
# 5 0.0000 0.0000 0.0000 0.0000 23.3574 0.0000
# 6 0.0000 0.0000 0.0000 0.0000 0.0000 1.1463
#
#
#
# Elastic Compliance Matrix: (Units=1/GPa)
#
#
# Indices 1 2 3 4 5 6 
#
# 1 0.027229 -0.015788 -0.005418 0.000000 0.000000 0.000000
# 2 -0.015788 0.027228 -0.005415 0.000000 0.000000 0.000000
# 3 -0.005418 -0.005415 0.015576 0.000000 0.000000 0.000000
# 4 0.000000 0.000000 0.000000 0.042814 0.000000 0.000000
# 5 0.000000 0.000000 0.000000 0.000000 0.042813 0.000000
# 6 0.000000 0.000000 0.000000 0.000000 0.000000 0.872396
#
#
# Mechanical properties :
#
#
# Convention : Reuss Voigt Hill
#
# Bulk Modulus (GPa) = 59.55549 59.73702 59.64625
# Shear Modulus (GPa) = 4.60026 16.57962 10.58994
#
# Velocity S-wave (km/s) = 1.48523 2.81961 2.25345
# Velocity P-wave (km/s) = 5.61240 6.26459 5.94744
#
# Compressibility (1/GPa) = 0.01679106
#
# Stress axis : x y z
#
# Youngs Moduli (GPa) = 36.72529 36.72734 64.20036
#
# Poissons Ratio (x) = 0.57986 0.34781
# Poissons Ratio (y) = 0.57983 0.34766
# Poissons Ratio (z) = 0.19896 0.19889
#
# Static dielectric constant tensor:
#      x y z
#    x 1.769810 0.000000 0.000000 
#    y 0.000000 1.769820 0.000000 
#    z 0.000000 0.000000 1.860260 
# 
# From -- ./inp_files/2022.got.cif
#   From: 2010.05.17/outbox.cif.g08.bks.cpg/sg121_2_cif.got.tgz:2022.got - 2010.05.20 11:32:06.
