data_PCOD9560649
_publ_section_title
;
Structure prediction by ZEFSAII (Michael W. Deem and Ramdas Pophale) SiO2 
 PCOD9560649
Probable space group: I -4 2 M
;
_chemical_formula_sum "Si O2"
_cell_formula_units_Z 48
_cell_length_a 13.543200
_cell_length_b 13.543200
_cell_length_c 11.212279
_cell_angle_alpha 90.000000
_cell_angle_beta 90.000000
_cell_angle_gamma 90.000000
_cell_volume 2056.536775
_symmetry_space_group_name_H-M "I -4 2 M"
_symmetry_group_IT_number 121
_symmetry_cell_setting 'tetragonal'
loop_
_space_group_symop_operation_xyz
x,y,z
y,-x,-z
-x,-y,z
-y,x,-z
x,-y,-z
-x,y,-z
-y,-x,z
y,x,z
1/2+x,1/2+y,1/2+z
1/2+y,1/2-x,1/2-z
1/2-x,1/2-y,1/2+z
1/2-y,1/2+x,1/2-z
1/2+x,1/2-y,1/2-z
1/2-x,1/2+y,1/2-z
1/2-y,1/2-x,1/2+z
1/2+y,1/2+x,1/2+z
loop_
_atom_site_type_symbol
_atom_site_label
_atom_site_fract_x
_atom_site_fract_y
_atom_site_fract_z
Si Si1 0.296553 0.703448 0.347255
Si Si2 0.892188 0.892188 0.949274
Si Si3 0.350367 0.065398 0.281547
Si Si4 0.253636 0.000000 0.500000
Si Si5 0.132270 0.132270 0.673693
O O1 0.317878 0.682123 0.485495
O O2 0.392233 0.754889 0.287511
O O3 0.215200 0.784801 0.323398
O O4 0.894310 0.894310 0.807707
O O5 0.000000 0.867745 0.000000
O O6 0.450704 0.125115 0.250116
O O7 0.324475 0.070429 0.422159
O O8 0.181849 0.953510 0.402547
#
# Coordination Sequence:
#
# PCOD9560649 Si02
#       5
#     8   8  16   8   8
#     4  12  26  49  79 108 160 194 259 317 378 471
#     4  11  28  51  75 110 151 202 255 320 385 464
#     4  11  26  48  77 116 154 205 256 314 389 455
#     4  12  26  48  74 114 154 196 256 321 377 470
#     4  12  28  46  74 112 147 205 254 311 399 441
#
# _framework density 23.340209999999999
#
# number of rings (size 3 to 8) (size 9 to 14) (size 15 to 20)
#    0.000    0.500    3.333    3.000    4.667    5.667 
#    6.000    0.000    0.000    0.000    0.000    0.000 
#    0.000    0.000    0.000    0.000    0.000    0.000 
#
# Total GULP energy -134225.106990 kJ/mol
# GULP energy per Si atom -5592.712791 kJ/mol
# Density = 2.328709 g / cm^3
# Si number density = 23.340210 Si / 1000 Ang^3
#
#
#
# Elastic Constant Matrix: (Units=GPa)
#
#
# Indices 1 2 3 4 5 6 
#
# 1 74.6238 76.7106 66.0764 0.0000 0.0000 0.0000
# 2 76.7106 74.6221 66.0764 0.0000 0.0000 0.0000
# 3 66.0764 66.0764 217.3228 0.0000 0.0000 0.0000
# 4 0.0000 0.0000 0.0000 42.3102 0.0000 0.0000
# 5 0.0000 0.0000 0.0000 0.0000 42.3115 0.0000
# 6 0.0000 0.0000 0.0000 0.0000 0.0000 46.3798
#
#
#
# Elastic Compliance Matrix: (Units=1/GPa)
#
#
# Indices 1 2 3 4 5 6 
#
# 1 -0.235000 0.244001 -0.002736 0.000000 0.000000 0.000000
# 2 0.244001 -0.235008 -0.002734 0.000000 0.000000 0.000000
# 3 -0.002736 -0.002734 0.006265 0.000000 0.000000 0.000000
# 4 0.000000 0.000000 0.000000 0.023635 0.000000 0.000000
# 5 0.000000 0.000000 0.000000 0.000000 0.023634 0.000000
# 6 0.000000 0.000000 0.000000 0.000000 0.000000 0.021561
#
#
# Mechanical properties :
#
#
# Convention : Reuss Voigt Hill
#
# Bulk Modulus (GPa) = 75.09493 87.14395 81.11944
# Shear Modulus (GPa) = -5.76347 36.71397 15.47525
#
# Velocity S-wave (km/s) = -1.57311 3.97040 2.57773
# Velocity P-wave (km/s) = 5.37999 7.64436 6.60986
#
# Compressibility (1/GPa) = 0.01331648
#
# Stress axis : x y z
#
# Youngs Moduli (GPa) = -4.25532 -4.25518 159.62127
#
# Poissons Ratio (x) = 1.03827 0.43680
# Poissons Ratio (y) = 1.03830 0.43646
# Poissons Ratio (z) = -0.01164 -0.01164
#
# Static dielectric constant tensor:
#      x y z
#    x 1.818540 0.000000 0.000000 
#    y 0.000000 1.818550 0.000000 
#    z 0.000000 0.000000 1.867090 
# 
# From -- ./inp_files/2703.got.cif
#   From: 2010.05.17/outbox.cif.g08.bks.cpg/sg121_2_cif.got.tgz:2703.got - 2010.05.20 11:32:06.
