data_PCOD9560287
_publ_section_title
;
Structure prediction by ZEFSAII (Michael W. Deem and Ramdas Pophale) SiO2 
 PCOD9560287
Probable space group: I -4 2 M
;
_chemical_formula_sum "Si O2"
_cell_formula_units_Z 96
_cell_length_a 25.525423
_cell_length_b 25.525423
_cell_length_c 9.271255
_cell_angle_alpha 90.000000
_cell_angle_beta 90.000000
_cell_angle_gamma 90.000000
_cell_volume 6040.660415
_symmetry_space_group_name_H-M "I -4 2 M"
_symmetry_group_IT_number 121
_symmetry_cell_setting 'tetragonal'
loop_
_space_group_symop_operation_xyz
x,y,z
y,-x,-z
-x,-y,z
-y,x,-z
x,-y,-z
-x,y,-z
-y,-x,z
y,x,z
1/2+x,1/2+y,1/2+z
1/2+y,1/2-x,1/2-z
1/2-x,1/2-y,1/2+z
1/2-y,1/2+x,1/2-z
1/2+x,1/2-y,1/2-z
1/2-x,1/2+y,1/2-z
1/2-y,1/2-x,1/2+z
1/2+y,1/2+x,1/2+z
loop_
_atom_site_type_symbol
_atom_site_label
_atom_site_fract_x
_atom_site_fract_y
_atom_site_fract_z
Si Si1 0.224134 0.224134 0.617023
Si Si2 0.299532 0.700469 0.217103
Si Si3 0.953746 0.617705 0.912792
Si Si4 0.593185 0.244736 0.173163
Si Si5 0.889348 0.736050 0.660405
Si Si6 0.887035 0.369047 0.804879
Si Si7 0.487584 0.233744 0.337796
O O1 0.266617 0.266617 0.666456
O O2 0.219221 0.219221 0.443302
O O3 0.167649 0.239591 0.677736
O O4 0.360670 0.716332 0.225967
O O5 0.917468 0.591114 0.791746
O O6 0.981001 0.669812 0.844575
O O7 0.914026 0.635449 0.039583
O O8 0.000000 0.588449 0.000000
O O9 0.608686 0.185658 0.220984
O O10 0.535954 0.251441 0.240452
O O11 0.591364 0.247956 0.000880
O O12 0.881832 0.673763 0.673536
O O13 0.932677 0.753183 0.775097
O O14 0.500000 0.250044 0.500000
#
# Coordination Sequence:
#
# PCOD9560287 Si02
#       7
#     8   8  16  16  16  16  16
#     4  10  20  32  46  76 110 137 168 199 262 314
#     4  10  22  30  50  74 112 141 162 209 258 322
#     4  10  20  33  48  74  88 123 166 221 259 305
#     4  11  19  34  48  76 102 134 170 206 257 310
#     4  10  21  32  50  74 102 137 166 209 254 309
#     4  11  18  30  51  70  95 123 165 208 255 303
#     4  10  20  33  53  71  97 126 179 216 247 305
#
# _framework density 15.892302000000001
#
# number of rings (size 3 to 8) (size 9 to 14) (size 15 to 20)
#    0.000    1.667    6.667    0.500    0.000    1.333 
#    0.000    0.833    0.000    1.500    0.000    0.000 
#    0.000    0.667    0.000    7.667    0.000    3.000 
#
# Total GULP energy -267503.149383 kJ/mol
# GULP energy per Si atom -5572.982279 kJ/mol
# Density = 1.585613 g / cm^3
# Si number density = 15.892302 Si / 1000 Ang^3
#
#
#
# Elastic Constant Matrix: (Units=GPa)
#
#
# Indices 1 2 3 4 5 6 
#
# 1 44.6696 12.6376 3.7376 0.0000 0.0000 0.0000
# 2 12.6376 44.6702 3.7380 0.0000 0.0000 0.0000
# 3 3.7376 3.7380 30.1961 0.0000 0.0000 0.0000
# 4 0.0000 0.0000 0.0000 21.6404 0.0000 0.0000
# 5 0.0000 0.0000 0.0000 0.0000 21.6406 0.0000
# 6 0.0000 0.0000 0.0000 0.0000 0.0000 13.5106
#
#
#
# Elastic Compliance Matrix: (Units=1/GPa)
#
#
# Indices 1 2 3 4 5 6 
#
# 1 0.024477 -0.006741 -0.002195 0.000000 0.000000 0.000000
# 2 -0.006741 0.024477 -0.002196 0.000000 0.000000 0.000000
# 3 -0.002195 -0.002196 0.033660 0.000000 0.000000 0.000000
# 4 0.000000 0.000000 0.000000 0.046210 0.000000 0.000000
# 5 0.000000 0.000000 0.000000 0.000000 0.046210 0.000000
# 6 0.000000 0.000000 0.000000 0.000000 0.000000 0.074016
#
#
# Mechanical properties :
#
#
# Convention : Reuss Voigt Hill
#
# Bulk Modulus (GPa) = 16.56977 17.75135 17.16056
# Shear Modulus (GPa) = 17.15669 17.98649 17.57159
#
# Velocity S-wave (km/s) = 3.28923 3.36783 3.32876
# Velocity P-wave (km/s) = 4.98741 5.13002 5.05922
#
# Compressibility (1/GPa) = 0.06035087
#
# Stress axis : x y z
#
# Youngs Moduli (GPa) = 40.85399 40.85444 29.70847
#
# Poissons Ratio (x) = 0.27541 0.06522
# Poissons Ratio (y) = 0.27540 0.06523
# Poissons Ratio (z) = 0.08968 0.08970
#
# Static dielectric constant tensor:
#      x y z
#    x 1.529960 0.000000 0.000000 
#    y 0.000000 1.529960 0.000000 
#    z 0.000000 0.000000 1.555130 
# 
# From -- ./inp_files/1977.got.cif
#   From: 2010.05.17/outbox.cif.g08.bks.cpg/sg121_1_cif.got.tgz:1977.got - 2010.05.20 11:32:06.
