data_PCOD9560703
_publ_section_title
;
Structure prediction by ZEFSAII (Michael W. Deem and Ramdas Pophale) SiO2 
 PCOD9560703
Probable space group: I -4 2 D
;
_chemical_formula_sum "Si O2"
_cell_formula_units_Z 80
_cell_length_a 12.778879
_cell_length_b 12.778879
_cell_length_c 25.495738
_cell_angle_alpha 90.000000
_cell_angle_beta 90.000000
_cell_angle_gamma 90.000000
_cell_volume 4163.447603
_symmetry_space_group_name_H-M "I -4 2 D"
_symmetry_group_IT_number 122
_symmetry_cell_setting 'tetragonal'
loop_
_space_group_symop_operation_xyz
x,y,z
y,-x,-z
-x,-y,z
-y,x,-z
x,1/2-y,1/4-z
-x,1/2+y,1/4-z
-y,1/2-x,1/4+z
y,1/2+x,1/4+z
1/2+x,1/2+y,1/2+z
1/2+y,1/2-x,1/2-z
1/2-x,1/2-y,1/2+z
1/2-y,1/2+x,1/2-z
1/2+x,-y,3/4-z
1/2-x,y,3/4-z
1/2-y,-x,3/4+z
1/2+y,x,3/4+z
loop_
_atom_site_type_symbol
_atom_site_label
_atom_site_fract_x
_atom_site_fract_y
_atom_site_fract_z
Si Si1 0.230738 0.131732 0.638532
Si Si2 0.739385 0.606912 0.727837
Si Si3 0.494656 0.336486 0.699628
Si Si4 0.105955 0.952800 0.921497
Si Si5 0.197058 0.889938 0.266680
O O1 0.267131 0.250000 0.625000
O O2 0.222545 0.079724 0.581818
O O3 0.327873 0.089921 0.671328
O O4 0.132383 0.147259 0.675996
O O5 0.614891 0.629017 0.725751
O O6 0.803620 0.711448 0.742602
O O7 0.749775 0.503397 0.762408
O O8 0.486450 0.376291 0.639570
O O9 0.490145 0.210704 0.699661
O O10 0.600301 0.377644 0.726485
O O11 0.000000 0.000000 0.941543
#
# Coordination Sequence:
#
# PCOD9560703 Si02
#       5
#    16  16  16  16  16
#     4   9  17  38  59  82 117 164 202 244 311 370
#     4  10  21  40  63  87 116 165 213 248 309 377
#     4  10  19  36  57  89 122 158 198 244 314 383
#     4  10  17  32  57  86 121 157 192 247 308 377
#     4  11  21  36  66  86 119 161 209 259 304 376
#
# _framework density 19.214843999999999
#
# number of rings (size 3 to 8) (size 9 to 14) (size 15 to 20)
#    0.000    2.000    6.000    3.000    0.000    2.000 
#    0.000    0.000   39.600    0.000    0.000    0.000 
#    0.000    0.000    0.000    0.000    0.000    0.000 
#
# Total GULP energy -222973.848813 kJ/mol
# GULP energy per Si atom -5574.346220 kJ/mol
# Density = 1.917111 g / cm^3
# Si number density = 19.214844 Si / 1000 Ang^3
#
#
#
# Elastic Constant Matrix: (Units=GPa)
#
#
# Indices 1 2 3 4 5 6 
#
# 1 103.1802 14.4752 26.5087 0.0000 0.0000 0.0000
# 2 14.4752 103.1802 26.5087 0.0000 0.0000 0.0000
# 3 26.5087 26.5087 56.5034 0.0000 0.0000 0.0000
# 4 0.0000 0.0000 0.0000 21.4917 0.0000 0.0000
# 5 0.0000 0.0000 0.0000 0.0000 21.4917 0.0000
# 6 0.0000 0.0000 0.0000 0.0000 0.0000 4.4005
#
#
#
# Elastic Compliance Matrix: (Units=1/GPa)
#
#
# Indices 1 2 3 4 5 6 
#
# 1 0.011026 -0.000248 -0.005056 0.000000 0.000000 0.000000
# 2 -0.000248 0.011026 -0.005056 0.000000 0.000000 0.000000
# 3 -0.005056 -0.005056 0.022443 0.000000 0.000000 0.000000
# 4 0.000000 0.000000 0.000000 0.046529 0.000000 0.000000
# 5 0.000000 0.000000 0.000000 0.000000 0.046529 0.000000
# 6 0.000000 0.000000 0.000000 0.000000 0.000000 0.227245
#
#
# Mechanical properties :
#
#
# Convention : Reuss Voigt Hill
#
# Bulk Modulus (GPa) = 42.06547 44.20546 43.13547
# Shear Modulus (GPa) = 12.70831 22.50155 17.60493
#
# Velocity S-wave (km/s) = 2.57452 3.42577 3.03019
# Velocity P-wave (km/s) = 5.54772 6.22123 5.89411
#
# Compressibility (1/GPa) = 0.02377247
#
# Stress axis : x y z
#
# Youngs Moduli (GPa) = 90.69778 90.69778 44.55816
#
# Poissons Ratio (x) = 0.02247 0.22531
# Poissons Ratio (y) = 0.02247 0.22531
# Poissons Ratio (z) = 0.45861 0.45861
#
# Static dielectric constant tensor:
#      x y z
#    x 1.678970 0.000000 0.000000 
#    y 0.000000 1.678970 0.000000 
#    z 0.000000 0.000000 1.721560 
# 
# From -- ./inp_files/9350.got.cif
#   From: 2010.05.17/outbox.cif.g08.bks.cpg/sg122_5_cif.got.tgz:9350.got - 2010.05.20 11:37:33.
