data_PCOD9560301
_publ_section_title
;
Structure prediction by ZEFSAII (Michael W. Deem and Ramdas Pophale) SiO2 
 PCOD9560301
Probable space group: I -4 2 M
;
_chemical_formula_sum "Si O2"
_cell_formula_units_Z 88
_cell_length_a 12.378632
_cell_length_b 12.378632
_cell_length_c 32.963463
_cell_angle_alpha 90.000000
_cell_angle_beta 90.000000
_cell_angle_gamma 90.000000
_cell_volume 5051.008912
_symmetry_space_group_name_H-M "I -4 2 M"
_symmetry_group_IT_number 121
_symmetry_cell_setting 'tetragonal'
loop_
_space_group_symop_operation_xyz
x,y,z
y,-x,-z
-x,-y,z
-y,x,-z
x,-y,-z
-x,y,-z
-y,-x,z
y,x,z
1/2+x,1/2+y,1/2+z
1/2+y,1/2-x,1/2-z
1/2-x,1/2-y,1/2+z
1/2-y,1/2+x,1/2-z
1/2+x,1/2-y,1/2-z
1/2-x,1/2+y,1/2-z
1/2-y,1/2-x,1/2+z
1/2+y,1/2+x,1/2+z
loop_
_atom_site_type_symbol
_atom_site_label
_atom_site_fract_x
_atom_site_fract_y
_atom_site_fract_z
Si Si1 0.211574 0.611825 0.788519
Si Si2 0.315614 0.134483 0.297031
Si Si3 0.097272 0.723062 0.119877
Si Si4 0.375761 0.984819 0.566637
Si Si5 0.313720 0.500000 0.000000
Si Si6 0.686943 0.139354 0.873903
O O1 0.324466 0.675535 0.785284
O O2 0.153136 0.623480 0.745385
O O3 0.222813 0.487642 0.799503
O O4 0.147769 0.665977 0.825773
O O5 0.213629 0.213629 0.296429
O O6 0.384583 0.167624 0.336165
O O7 0.174535 0.825466 0.117048
O O8 0.127621 0.633535 0.086554
O O9 0.971178 0.748516 0.116295
O O10 0.272456 0.998923 0.537295
O O11 0.500000 0.000000 0.549904
O O12 0.365607 0.074504 0.602034
O O13 0.395046 0.604955 0.999865
O O14 0.757185 0.242816 0.885975
#
# Coordination Sequence:
#
# PCOD9560301 Si02
#       6
#    16  16  16  16   8  16
#     4  10  20  33  50  73 102 138 182 228 273 323
#     4  10  20  33  50  73 102 138 182 228 273 323
#     4  10  20  34  53  78 107 141 180 225 273 322
#     4  10  20  37  60  81 109 143 185 226 269 327
#     4  11  23  38  58  86 117 145 176 224 284 343
#     4  10  20  34  53  78 107 141 180 225 273 322
#
# _framework density 17.422260999999999
#
# number of rings (size 3 to 8) (size 9 to 14) (size 15 to 20)
#    0.000    1.909    1.818    2.455    0.000    2.545 
#    0.000    0.000    0.000    6.545    0.000    0.000 
#    0.000   13.091    0.000    0.000    0.000    0.000 
#
# Total GULP energy -245275.945596 kJ/mol
# GULP energy per Si atom -5574.453309 kJ/mol
# Density = 1.738261 g / cm^3
# Si number density = 17.422261 Si / 1000 Ang^3
#
#
#
# Elastic Constant Matrix: (Units=GPa)
#
#
# Indices 1 2 3 4 5 6 
#
# 1 106.3376 -43.9682 5.8123 0.0000 0.0000 0.0000
# 2 -43.9682 106.3433 5.8012 0.0000 0.0000 0.0000
# 3 5.8123 5.8012 60.8104 0.0000 0.0000 0.0000
# 4 0.0000 0.0000 0.0000 24.3464 0.0000 0.0000
# 5 0.0000 0.0000 0.0000 0.0000 24.3461 0.0000
# 6 0.0000 0.0000 0.0000 0.0000 0.0000 12.8091
#
#
#
# Elastic Compliance Matrix: (Units=1/GPa)
#
#
# Indices 1 2 3 4 5 6 
#
# 1 0.011488 0.004835 -0.001559 0.000000 0.000000 0.000000
# 2 0.004835 0.011488 -0.001558 0.000000 0.000000 0.000000
# 3 -0.001559 -0.001558 0.016742 0.000000 0.000000 0.000000
# 4 0.000000 0.000000 0.000000 0.041074 0.000000 0.000000
# 5 0.000000 0.000000 0.000000 0.000000 0.041074 0.000000
# 6 0.000000 0.000000 0.000000 0.000000 0.000000 0.078070
#
#
# Mechanical properties :
#
#
# Convention : Reuss Voigt Hill
#
# Bulk Modulus (GPa) = 23.17309 23.19800 23.18554
# Shear Modulus (GPa) = 23.70959 32.69004 28.19982
#
# Velocity S-wave (km/s) = 3.69301 4.33637 4.02756
# Velocity P-wave (km/s) = 5.61375 6.19808 5.91314
#
# Compressibility (1/GPa) = 0.04315350
#
# Stress axis : x y z
#
# Youngs Moduli (GPa) = 87.04426 87.05073 59.72918
#
# Poissons Ratio (x) = -0.42089 0.09314
# Poissons Ratio (y) = -0.42086 0.09306
# Poissons Ratio (z) = 0.13573 0.13563
#
# Static dielectric constant tensor:
#      x y z
#    x 1.570910 0.000000 0.000000 
#    y 0.000000 1.570910 0.000000 
#    z 0.000000 0.000000 1.608310 
# 
# From -- ./inp_files/8219.got.cif
#   From: 2010.05.17/outbox.cif.g08.bks.cpg/sg121_5_cif.got.tgz:8219.got - 2010.05.20 11:32:06.
