data_PCOD9560367
_publ_section_title
;
Structure prediction by ZEFSAII (Michael W. Deem and Ramdas Pophale) SiO2 
 PCOD9560367
Probable space group: I -4 2 M
;
_chemical_formula_sum "Si O2"
_cell_formula_units_Z 96
_cell_length_a 24.496959
_cell_length_b 24.496959
_cell_length_c 9.268289
_cell_angle_alpha 90.000000
_cell_angle_beta 90.000000
_cell_angle_gamma 90.000000
_cell_volume 5561.909499
_symmetry_space_group_name_H-M "I -4 2 M"
_symmetry_group_IT_number 121
_symmetry_cell_setting 'tetragonal'
loop_
_space_group_symop_operation_xyz
x,y,z
y,-x,-z
-x,-y,z
-y,x,-z
x,-y,-z
-x,y,-z
-y,-x,z
y,x,z
1/2+x,1/2+y,1/2+z
1/2+y,1/2-x,1/2-z
1/2-x,1/2-y,1/2+z
1/2-y,1/2+x,1/2-z
1/2+x,1/2-y,1/2-z
1/2-x,1/2+y,1/2-z
1/2-y,1/2-x,1/2+z
1/2+y,1/2+x,1/2+z
loop_
_atom_site_type_symbol
_atom_site_label
_atom_site_fract_x
_atom_site_fract_y
_atom_site_fract_z
Si Si1 0.861239 0.527368 0.641865
Si Si2 0.388583 0.045751 0.617402
Si Si3 0.751086 0.450002 0.203729
Si Si4 0.759667 0.569192 0.124053
Si Si5 0.251874 0.655318 0.361257
Si Si6 0.268094 0.175304 0.812729
O O1 0.835560 0.500000 0.500000
O O2 0.900967 0.575681 0.598793
O O3 0.895863 0.481577 0.725899
O O4 0.815094 0.548012 0.751324
O O5 0.324756 0.060165 0.610250
O O6 0.401880 0.000000 0.500000
O O7 0.736093 0.514384 0.200412
O O8 0.728847 0.404690 0.313353
O O9 0.740396 0.429260 0.041415
O O10 0.752273 0.623837 0.214464
O O11 0.302000 0.698001 0.359050
O O12 0.206287 0.678953 0.250822
O O13 0.226440 0.656662 0.521609
O O14 0.219881 0.219881 0.806776
#
# Coordination Sequence:
#
# PCOD9560367 Si02
#       6
#    16  16  16  16  16  16
#     4  11  23  31  50  66  87 127 172 215 267 307
#     4  11  21  37  44  64  93 124 169 221 261 308
#     4  10  21  36  51  74  99 133 171 212 260 315
#     4  10  20  37  53  70 102 133 169 214 260 313
#     4  10  21  35  54  80 106 135 173 217 266 319
#     4  10  21  35  55  80 105 136 173 217 267 319
#
# _framework density 17.260258
#
# number of rings (size 3 to 8) (size 9 to 14) (size 15 to 20)
#    0.000    1.667    3.333    3.000    4.667    4.000 
#    0.000    0.000    0.000    0.000    0.000    0.000 
#    0.000    0.667    0.000    7.333    0.000    5.333 
#
# Total GULP energy -267771.471684 kJ/mol
# GULP energy per Si atom -5578.572327 kJ/mol
# Density = 1.722097 g / cm^3
# Si number density = 17.260258 Si / 1000 Ang^3
#
#
#
# Elastic Constant Matrix: (Units=GPa)
#
#
# Indices 1 2 3 4 5 6 
#
# 1 36.9142 -1.3428 16.5450 0.0000 0.0000 0.0000
# 2 -1.3428 36.9123 16.5453 0.0000 0.0000 0.0000
# 3 16.5450 16.5453 84.9041 0.0000 0.0000 0.0000
# 4 0.0000 0.0000 0.0000 27.2535 0.0000 0.0000
# 5 0.0000 0.0000 0.0000 0.0000 27.2531 0.0000
# 6 0.0000 0.0000 0.0000 0.0000 0.0000 12.6369
#
#
#
# Elastic Compliance Matrix: (Units=1/GPa)
#
#
# Indices 1 2 3 4 5 6 
#
# 1 0.030238 0.004099 -0.006691 0.000000 0.000000 0.000000
# 2 0.004099 0.030240 -0.006692 0.000000 0.000000 0.000000
# 3 -0.006691 -0.006692 0.014386 0.000000 0.000000 0.000000
# 4 0.000000 0.000000 0.000000 0.036693 0.000000 0.000000
# 5 0.000000 0.000000 0.000000 0.000000 0.036693 0.000000
# 6 0.000000 0.000000 0.000000 0.000000 0.000000 0.079134
#
#
# Mechanical properties :
#
#
# Convention : Reuss Voigt Hill
#
# Bulk Modulus (GPa) = 17.76313 24.69172 21.22743
# Shear Modulus (GPa) = 18.88820 21.89422 20.39121
#
# Velocity S-wave (km/s) = 3.31164 3.56543 3.44087
# Velocity P-wave (km/s) = 4.99362 5.59342 5.30201
#
# Compressibility (1/GPa) = 0.05629637
#
# Stress axis : x y z
#
# Youngs Moduli (GPa) = 33.07101 33.06903 69.51259
#
# Poissons Ratio (x) = -0.13556 0.46512
# Poissons Ratio (y) = -0.13556 0.46515
# Poissons Ratio (z) = 0.22128 0.22129
#
# Static dielectric constant tensor:
#      x y z
#    x 1.595920 0.000000 0.000000 
#    y 0.000000 1.595920 0.000000 
#    z 0.000000 0.000000 1.646020 
# 
# From -- ./inp_files/1950.got.cif
#   From: 2010.05.17/outbox.cif.g08.bks.cpg/sg121_1_cif.got.tgz:1950.got - 2010.05.20 11:32:06.
