data_PCOD9560907
_publ_section_title
;
Structure prediction by ZEFSAII (Michael W. Deem and Ramdas Pophale) SiO2 
 PCOD9560907
Probable space group: I -4 2 D
;
_chemical_formula_sum "Si O2"
_cell_formula_units_Z 108
_cell_length_a 12.626952
_cell_length_b 12.626952
_cell_length_c 30.747615
_cell_angle_alpha 90.000000
_cell_angle_beta 90.000000
_cell_angle_gamma 90.000000
_cell_volume 4902.397178
_symmetry_space_group_name_H-M "I -4 2 D"
_symmetry_group_IT_number 122
_symmetry_cell_setting 'tetragonal'
loop_
_space_group_symop_operation_xyz
x,y,z
y,-x,-z
-x,-y,z
-y,x,-z
x,1/2-y,1/4-z
-x,1/2+y,1/4-z
-y,1/2-x,1/4+z
y,1/2+x,1/4+z
1/2+x,1/2+y,1/2+z
1/2+y,1/2-x,1/2-z
1/2-x,1/2-y,1/2+z
1/2-y,1/2+x,1/2-z
1/2+x,-y,3/4-z
1/2-x,y,3/4-z
1/2-y,-x,3/4+z
1/2+y,x,3/4+z
loop_
_atom_site_type_symbol
_atom_site_label
_atom_site_fract_x
_atom_site_fract_y
_atom_site_fract_z
Si Si1 0.061787 0.343621 0.542902
Si Si2 0.500000 0.500000 0.500000
Si Si3 0.771036 0.541185 0.421452
Si Si4 0.750000 0.561121 0.875000
Si Si5 0.555908 0.854800 0.491792
Si Si6 0.158669 0.946935 0.510770
Si Si7 0.748785 0.410080 0.099183
Si Si8 0.664161 0.437157 0.559815
O O1 0.131459 0.448894 0.537850
O O2 0.112780 0.244720 0.518444
O O3 0.013952 0.305082 0.588715
O O4 0.960073 0.377357 0.513857
O O5 0.602059 0.521337 0.530490
O O6 0.750000 0.486244 0.375000
O O7 0.828342 0.476505 0.459225
O O8 0.837179 0.650126 0.413539
O O9 0.655015 0.578487 0.434944
O O10 0.660466 0.645054 0.890243
O O11 0.612620 0.758214 0.468434
O O12 0.210295 0.973841 0.557133
O O13 0.053052 0.877217 0.514174
O O14 0.789890 0.466935 0.142970
#
# Coordination Sequence:
#
# PCOD9560907 Si02
#       8
#    16   4  16   8  16  16  16  16
#     4  11  24  39  63  97 125 166 212 270 316 382
#     4  12  24  40  64 100 128 176 224 268 324 388
#     4  10  20  38  65  91 122 171 215 256 312 390
#     4  12  20  40  68  92 124 170 228 250 316 398
#     4  11  22  40  64  95 127 165 212 267 323 373
#     4  11  24  41  63  93 126 166 211 265 320 380
#     4  11  20  40  67  92 122 175 214 255 320 392
#     4  11  22  39  64  94 126 166 215 265 315 386
#
# _framework density 22.030037
#
# number of rings (size 3 to 8) (size 9 to 14) (size 15 to 20)
#    0.000    1.037    8.148    0.000    0.000    1.185 
#    5.333    0.000    0.000    0.000    7.704    0.000 
#    0.000    0.000    0.000    0.000    0.000    0.000 
#
# Total GULP energy -301262.111980 kJ/mol
# GULP energy per Si atom -5578.928000 kJ/mol
# Density = 2.197990 g / cm^3
# Si number density = 22.030037 Si / 1000 Ang^3
#
#
#
# Elastic Constant Matrix: (Units=GPa)
#
#
# Indices 1 2 3 4 5 6 
#
# 1 35.0032 -14.8001 27.7794 0.0000 0.0000 0.0000
# 2 -14.8001 35.0032 27.7794 0.0000 0.0000 0.0000
# 3 27.7794 27.7794 171.9373 0.0000 0.0000 0.0000
# 4 0.0000 0.0000 0.0000 38.0169 0.0000 0.0000
# 5 0.0000 0.0000 0.0000 0.0000 38.0169 0.0000
# 6 0.0000 0.0000 0.0000 0.0000 0.0000 4.7569
#
#
#
# Elastic Compliance Matrix: (Units=1/GPa)
#
#
# Indices 1 2 3 4 5 6 
#
# 1 0.054577 0.034498 -0.014391 0.000000 0.000000 0.000000
# 2 0.034498 0.054577 -0.014391 0.000000 0.000000 0.000000
# 3 -0.014391 -0.014391 0.010466 0.000000 0.000000 0.000000
# 4 0.000000 0.000000 0.000000 0.026304 0.000000 0.000000
# 5 0.000000 0.000000 0.000000 0.000000 0.026304 0.000000
# 6 0.000000 0.000000 0.000000 0.000000 0.000000 0.210219
#
#
# Mechanical properties :
#
#
# Convention : Reuss Voigt Hill
#
# Bulk Modulus (GPa) = 7.63072 35.94010 21.78541
# Shear Modulus (GPa) = 12.05688 29.57050 20.81369
#
# Velocity S-wave (km/s) = 2.34197 3.66769 3.07707
# Velocity P-wave (km/s) = 3.28396 5.85538 4.74710
#
# Compressibility (1/GPa) = 0.13104930
#
# Stress axis : x y z
#
# Youngs Moduli (GPa) = 18.32284 18.32284 95.54341
#
# Poissons Ratio (x) = -0.63210 1.37501
# Poissons Ratio (y) = -0.63210 1.37501
# Poissons Ratio (z) = 0.26369 0.26369
#
# Static dielectric constant tensor:
#      x y z
#    x 1.808100 0.000000 0.000000 
#    y 0.000000 1.808100 0.000000 
#    z 0.000000 0.000000 1.858790 
# 
# From -- ./inp_files/9709.got.cif
#   From: 2010.05.17/outbox.cif.g08.bks.cpg/sg122_5_cif.got.tgz:9709.got - 2010.05.20 11:37:33.
