data_PCOD9560999
_publ_section_title
;
Structure prediction by ZEFSAII (Michael W. Deem and Ramdas Pophale) SiO2 
 PCOD9560999
Probable space group: I -4 2 D
;
_chemical_formula_sum "Si O2"
_cell_formula_units_Z 56
_cell_length_a 13.064678
_cell_length_b 13.064678
_cell_length_c 17.517587
_cell_angle_alpha 90.000000
_cell_angle_beta 90.000000
_cell_angle_gamma 90.000000
_cell_volume 2990.003548
_symmetry_space_group_name_H-M "I -4 2 D"
_symmetry_group_IT_number 122
_symmetry_cell_setting 'tetragonal'
loop_
_space_group_symop_operation_xyz
x,y,z
y,-x,-z
-x,-y,z
-y,x,-z
x,1/2-y,1/4-z
-x,1/2+y,1/4-z
-y,1/2-x,1/4+z
y,1/2+x,1/4+z
1/2+x,1/2+y,1/2+z
1/2+y,1/2-x,1/2-z
1/2-x,1/2-y,1/2+z
1/2-y,1/2+x,1/2-z
1/2+x,-y,3/4-z
1/2-x,y,3/4-z
1/2-y,-x,3/4+z
1/2+y,x,3/4+z
loop_
_atom_site_type_symbol
_atom_site_label
_atom_site_fract_x
_atom_site_fract_y
_atom_site_fract_z
Si Si1 0.932471 0.629859 0.793958
Si Si2 0.571622 0.138117 0.716547
Si Si3 0.865977 0.638199 0.458294
Si Si4 0.000000 0.000000 0.683991
O O1 0.869888 0.544516 0.746188
O O2 0.883268 0.740542 0.793930
O O3 0.949134 0.583758 0.877999
O O4 0.451783 0.126802 0.736142
O O5 0.593580 0.120788 0.627053
O O6 0.611587 0.251107 0.734703
O O7 0.945904 0.584293 0.514071
#
# Coordination Sequence:
#
# PCOD9560999 Si02
#       4
#    16  16  16   8
#     4   9  22  40  57  86 121 148 189 241 281 337
#     4  10  22  40  56  84 121 146 188 241 281 338
#     4  11  22  37  64  85 110 159 190 229 292 337
#     4  10  21  38  59  88 116 148 194 236 281 340
#
# _framework density 18.729074000000001
#
# number of rings (size 3 to 8) (size 9 to 14) (size 15 to 20)
#    0.000    2.286    0.000    3.429    0.000   11.429 
#    0.000    8.571    0.000    0.000    0.000    0.000 
#    0.000    0.000    0.000    0.000    0.000    0.000 
#
# Total GULP energy -156388.285301 kJ/mol
# GULP energy per Si atom -5585.295904 kJ/mol
# Density = 1.868645 g / cm^3
# Si number density = 18.729074 Si / 1000 Ang^3
#
#
#
# Elastic Constant Matrix: (Units=GPa)
#
#
# Indices 1 2 3 4 5 6 
#
# 1 128.2951 86.7492 49.1002 0.0000 0.0000 0.0000
# 2 86.7492 128.2951 49.1002 0.0000 0.0000 0.0000
# 3 49.1002 49.1002 74.9832 0.0000 0.0000 0.0000
# 4 0.0000 0.0000 0.0000 3.9259 0.0000 0.0000
# 5 0.0000 0.0000 0.0000 0.0000 3.9259 0.0000
# 6 0.0000 0.0000 0.0000 0.0000 0.0000 22.5125
#
#
#
# Elastic Compliance Matrix: (Units=1/GPa)
#
#
# Indices 1 2 3 4 5 6 
#
# 1 0.015352 -0.008718 -0.004344 0.000000 0.000000 0.000000
# 2 -0.008718 0.015352 -0.004344 0.000000 0.000000 0.000000
# 3 -0.004344 -0.004344 0.019025 0.000000 0.000000 0.000000
# 4 0.000000 0.000000 0.000000 0.254719 0.000000 0.000000
# 5 0.000000 0.000000 0.000000 0.000000 0.254719 0.000000
# 6 0.000000 0.000000 0.000000 0.000000 0.000000 0.044420
#
#
# Mechanical properties :
#
#
# Convention : Reuss Voigt Hill
#
# Bulk Modulus (GPa) = 67.03668 77.94139 72.48904
# Shear Modulus (GPa) = 7.77158 15.84779 11.80968
#
# Velocity S-wave (km/s) = 2.03924 2.91204 2.51381
# Velocity P-wave (km/s) = 6.43546 7.28094 6.87122
#
# Compressibility (1/GPa) = 0.01491721
#
# Stress axis : x y z
#
# Youngs Moduli (GPa) = 65.13886 65.13886 52.56151
#
# Poissons Ratio (x) = 0.56788 0.22833
# Poissons Ratio (y) = 0.56788 0.22833
# Poissons Ratio (z) = 0.28296 0.28296
#
# Static dielectric constant tensor:
#      x y z
#    x 1.630590 0.000000 0.000000 
#    y 0.000000 1.630590 0.000000 
#    z 0.000000 0.000000 1.642330 
# 
# From -- ./inp_files/5059.got.cif
#   From: 2010.05.17/outbox.cif.g08.bks.cpg/sg122_3_cif.got.tgz:5059.got - 2010.05.20 11:37:33.
