data_PCOD9560942
_publ_section_title
;
Structure prediction by ZEFSAII (Michael W. Deem and Ramdas Pophale) SiO2 
 PCOD9560942
Probable space group: I -4 2 D
;
_chemical_formula_sum "Si O2"
_cell_formula_units_Z 112
_cell_length_a 14.607856
_cell_length_b 14.607856
_cell_length_c 24.813969
_cell_angle_alpha 90.000000
_cell_angle_beta 90.000000
_cell_angle_gamma 90.000000
_cell_volume 5295.039369
_symmetry_space_group_name_H-M "I -4 2 D"
_symmetry_group_IT_number 122
_symmetry_cell_setting 'tetragonal'
loop_
_space_group_symop_operation_xyz
x,y,z
y,-x,-z
-x,-y,z
-y,x,-z
x,1/2-y,1/4-z
-x,1/2+y,1/4-z
-y,1/2-x,1/4+z
y,1/2+x,1/4+z
1/2+x,1/2+y,1/2+z
1/2+y,1/2-x,1/2-z
1/2-x,1/2-y,1/2+z
1/2-y,1/2+x,1/2-z
1/2+x,-y,3/4-z
1/2-x,y,3/4-z
1/2-y,-x,3/4+z
1/2+y,x,3/4+z
loop_
_atom_site_type_symbol
_atom_site_label
_atom_site_fract_x
_atom_site_fract_y
_atom_site_fract_z
Si Si1 0.425076 0.605936 0.029925
Si Si2 0.273014 0.482368 0.438895
Si Si3 0.363929 0.741443 0.283065
Si Si4 0.153783 0.675551 0.280424
Si Si5 0.141488 0.832899 0.361062
Si Si6 0.909093 0.058500 0.754701
Si Si7 0.643123 0.543646 0.854697
O O1 0.431662 0.585672 0.092363
O O2 0.526578 0.618328 0.005801
O O3 0.375343 0.700594 0.020556
O O4 0.250000 0.468403 0.375000
O O5 0.316010 0.397830 0.473089
O O6 0.338727 0.572021 0.446655
O O7 0.178108 0.507147 0.470249
O O8 0.259730 0.707476 0.280954
O O9 0.395588 0.809015 0.330234
O O10 0.422988 0.650815 0.288963
O O11 0.111947 0.752296 0.320742
O O12 0.250000 0.825713 0.375000
O O13 0.127177 0.935864 0.341045
O O14 0.898467 0.102442 0.694784
O O15 0.000000 0.000000 0.756013
O O16 0.750000 0.549838 0.875000
#
# Coordination Sequence:
#
# PCOD9560942 Si02
#       7
#    16  16  16  16  16  16  16
#     4  11  23  35  53  90 139 178 219 264 315 409
#     4  11  25  50  70 102 138 176 238 294 350 421
#     4  10  20  41  62  94 132 179 220 266 347 406
#     4  10  22  43  72  95 126 176 225 288 347 408
#     4   9  18  36  68  91 126 179 221 260 337 412
#     4  11  24  40  68 100 136 171 229 291 335 405
#     4  11  21  37  61  95 136 178 219 276 335 407
#
# _framework density 21.151872999999998
#
# number of rings (size 3 to 8) (size 9 to 14) (size 15 to 20)
#    0.000    1.571    2.857    3.000    2.000    2.571 
#   10.286    0.000    0.000    0.000    0.000    0.000 
#    0.000    0.000    0.000    0.000    0.000    0.000 
#
# Total GULP energy -312028.306977 kJ/mol
# GULP energy per Si atom -5571.934053 kJ/mol
# Density = 2.110373 g / cm^3
# Si number density = 21.151873 Si / 1000 Ang^3
#
#
#
# Elastic Constant Matrix: (Units=GPa)
#
#
# Indices 1 2 3 4 5 6 
#
# 1 34.7814 13.8167 34.8903 0.0000 0.0000 0.0000
# 2 13.8167 34.7814 34.8903 0.0000 0.0000 0.0000
# 3 34.8903 34.8903 133.9105 0.0000 0.0000 0.0000
# 4 0.0000 0.0000 0.0000 26.8644 0.0000 0.0000
# 5 0.0000 0.0000 0.0000 0.0000 26.8644 0.0000
# 6 0.0000 0.0000 0.0000 0.0000 0.0000 23.1056
#
#
#
# Elastic Compliance Matrix: (Units=1/GPa)
#
#
# Indices 1 2 3 4 5 6 
#
# 1 0.040288 -0.007411 -0.008566 0.000000 0.000000 0.000000
# 2 -0.007411 0.040288 -0.008566 0.000000 0.000000 0.000000
# 3 -0.008566 -0.008566 0.011931 0.000000 0.000000 0.000000
# 4 0.000000 0.000000 0.000000 0.037224 0.000000 0.000000
# 5 0.000000 0.000000 0.000000 0.000000 0.037224 0.000000
# 6 0.000000 0.000000 0.000000 0.000000 0.000000 0.043279
#
#
# Mechanical properties :
#
#
# Convention : Reuss Voigt Hill
#
# Bulk Modulus (GPa) = 23.03053 41.18535 32.10794
# Shear Modulus (GPa) = 18.26186 23.35861 20.81023
#
# Velocity S-wave (km/s) = 2.94150 3.32675 3.14004
# Velocity P-wave (km/s) = 4.73797 5.85405 5.32533
#
# Compressibility (1/GPa) = 0.04342062
#
# Stress axis : x y z
#
# Youngs Moduli (GPa) = 24.82136 24.82136 83.81239
#
# Poissons Ratio (x) = 0.18396 0.71794
# Poissons Ratio (y) = 0.18396 0.71794
# Poissons Ratio (z) = 0.21262 0.21262
#
# Static dielectric constant tensor:
#      x y z
#    x 1.804910 0.000000 0.000000 
#    y 0.000000 1.804910 0.000000 
#    z 0.000000 0.000000 1.820800 
# 
# From -- ./inp_files/8108.got.cif
#   From: 2010.05.17/outbox.cif.g08.bks.cpg/sg122_5_cif.got.tgz:8108.got - 2010.05.20 11:37:33.
