data_PCOD9560481
_publ_section_title
;
Structure prediction by ZEFSAII (Michael W. Deem and Ramdas Pophale) SiO2 
 PCOD9560481
Probable space group: I -4 2 M
;
_chemical_formula_sum "Si O2"
_cell_formula_units_Z 116
_cell_length_a 18.251551
_cell_length_b 18.251551
_cell_length_c 17.292453
_cell_angle_alpha 90.000000
_cell_angle_beta 90.000000
_cell_angle_gamma 90.000000
_cell_volume 5760.446621
_symmetry_space_group_name_H-M "I -4 2 M"
_symmetry_group_IT_number 121
_symmetry_cell_setting 'tetragonal'
loop_
_space_group_symop_operation_xyz
x,y,z
y,-x,-z
-x,-y,z
-y,x,-z
x,-y,-z
-x,y,-z
-y,-x,z
y,x,z
1/2+x,1/2+y,1/2+z
1/2+y,1/2-x,1/2-z
1/2-x,1/2-y,1/2+z
1/2-y,1/2+x,1/2-z
1/2+x,1/2-y,1/2-z
1/2-x,1/2+y,1/2-z
1/2-y,1/2-x,1/2+z
1/2+y,1/2+x,1/2+z
loop_
_atom_site_type_symbol
_atom_site_label
_atom_site_fract_x
_atom_site_fract_y
_atom_site_fract_z
Si Si1 0.080724 0.693124 0.904345
Si Si2 0.239858 0.361188 0.084206
Si Si3 0.500000 0.500000 0.611000
Si Si4 0.011074 0.231989 0.694184
Si Si5 0.755260 0.367276 0.094620
Si Si6 0.493135 0.114752 0.278909
Si Si7 0.997421 0.830367 0.849731
Si Si8 0.868064 0.747276 0.933282
O O1 0.160229 0.660771 0.884178
O O2 0.022882 0.636674 0.864805
O O3 0.062451 0.773432 0.870126
O O4 0.088397 0.709429 0.995934
O O5 0.289387 0.289387 0.083122
O O6 0.277063 0.422865 0.135365
O O7 0.233295 0.387739 0.995498
O O8 0.409669 0.498945 0.613407
O O9 0.936382 0.244109 0.648030
O O10 0.024225 0.307560 0.740549
O O11 0.006033 0.167703 0.757008
O O12 0.684277 0.315724 0.099571
O O13 0.824789 0.315548 0.113068
O O14 0.425756 0.058824 0.268681
O O15 0.924884 0.791262 0.882093
O O16 0.804783 0.804783 0.961371
#
# Coordination Sequence:
#
# PCOD9560481 Si02
#       8
#    16  16   4  16  16  16  16  16
#     4  10  21  40  65  94 124 170 210 259 322 383
#     4  10  21  40  65  93 127 163 218 269 325 390
#     4  12  28  48  57  92 133 172 224 274 332 392
#     4  11  23  39  67  91 125 173 212 269 325 394
#     4   9  21  39  65  94 124 161 212 275 326 388
#     4  10  21  39  62  95 134 169 208 256 318 386
#     4  11  26  41  63  89 130 170 217 270 328 389
#     4  10  21  43  65  91 128 167 222 274 321 389
#
# _framework density 20.137326999999999
#
# number of rings (size 3 to 8) (size 9 to 14) (size 15 to 20)
#    0.000    1.793    2.069    2.069    7.724    0.000 
#    0.000    4.138    0.000    0.000    0.000    2.897 
#    0.000    0.000    0.000    0.000    0.000    0.000 
#
# Total GULP energy -323185.303979 kJ/mol
# GULP energy per Si atom -5572.160413 kJ/mol
# Density = 2.009149 g / cm^3
# Si number density = 20.137327 Si / 1000 Ang^3
#
#
#
# Elastic Constant Matrix: (Units=GPa)
#
#
# Indices 1 2 3 4 5 6 
#
# 1 85.5734 -21.3289 27.3189 0.0000 0.0000 0.0000
# 2 -21.3289 85.5676 27.3206 0.0000 0.0000 0.0000
# 3 27.3189 27.3206 58.0389 0.0000 0.0000 0.0000
# 4 0.0000 0.0000 0.0000 4.1956 0.0000 0.0000
# 5 0.0000 0.0000 0.0000 0.0000 4.1956 0.0000
# 6 0.0000 0.0000 0.0000 0.0000 0.0000 23.0747
#
#
#
# Elastic Compliance Matrix: (Units=1/GPa)
#
#
# Indices 1 2 3 4 5 6 
#
# 1 0.017656 0.008302 -0.012219 0.000000 0.000000 0.000000
# 2 0.008302 0.017658 -0.012220 0.000000 0.000000 0.000000
# 3 -0.012219 -0.012220 0.028733 0.000000 0.000000 0.000000
# 4 0.000000 0.000000 0.000000 0.238344 0.000000 0.000000
# 5 0.000000 0.000000 0.000000 0.000000 0.238344 0.000000
# 6 0.000000 0.000000 0.000000 0.000000 0.000000 0.043337
#
#
# Mechanical properties :
#
#
# Convention : Reuss Voigt Hill
#
# Bulk Modulus (GPa) = 31.47187 32.86679 32.16933
# Shear Modulus (GPa) = 7.97527 19.35114 13.66321
#
# Velocity S-wave (km/s) = 1.99225 3.10330 2.60763
# Velocity P-wave (km/s) = 4.57762 5.40346 5.00759
#
# Compressibility (1/GPa) = 0.03177441
#
# Stress axis : x y z
#
# Youngs Moduli (GPa) = 56.63801 56.63221 34.80263
#
# Poissons Ratio (x) = -0.47018 0.42525
# Poissons Ratio (y) = -0.47023 0.42529
# Poissons Ratio (z) = 0.69205 0.69204
#
# Static dielectric constant tensor:
#      x y z
#    x 1.704490 0.000000 0.000000 
#    y 0.000000 1.704490 0.000000 
#    z 0.000000 0.000000 1.758130 
# 
# From -- ./inp_files/5534.got.cif
#   From: 2010.05.17/outbox.cif.g08.bks.cpg/sg121_3_cif.got.tgz:5534.got - 2010.05.20 11:32:06.
