data_PCOD9560560
_publ_section_title
;
Structure prediction by ZEFSAII (Michael W. Deem and Ramdas Pophale) SiO2 
 PCOD9560560
Probable space group: I -4 2 M
;
_chemical_formula_sum "Si O2"
_cell_formula_units_Z 96
_cell_length_a 14.999763
_cell_length_b 14.999763
_cell_length_c 21.637474
_cell_angle_alpha 90.000000
_cell_angle_beta 90.000000
_cell_angle_gamma 90.000000
_cell_volume 4868.277809
_symmetry_space_group_name_H-M "I -4 2 M"
_symmetry_group_IT_number 121
_symmetry_cell_setting 'tetragonal'
loop_
_space_group_symop_operation_xyz
x,y,z
y,-x,-z
-x,-y,z
-y,x,-z
x,-y,-z
-x,y,-z
-y,-x,z
y,x,z
1/2+x,1/2+y,1/2+z
1/2+y,1/2-x,1/2-z
1/2-x,1/2-y,1/2+z
1/2-y,1/2+x,1/2-z
1/2+x,1/2-y,1/2-z
1/2-x,1/2+y,1/2-z
1/2-y,1/2-x,1/2+z
1/2+y,1/2+x,1/2+z
loop_
_atom_site_type_symbol
_atom_site_label
_atom_site_fract_x
_atom_site_fract_y
_atom_site_fract_z
Si Si1 0.494312 0.252819 0.144334
Si Si2 0.837402 0.589972 0.963127
Si Si3 0.078291 0.921710 0.140865
Si Si4 0.175636 0.317392 0.086198
Si Si5 0.073829 0.926171 0.287299
Si Si6 0.007498 0.357869 0.243969
Si Si7 0.720250 0.028649 0.111903
O O1 0.554718 0.237750 0.084148
O O2 0.401601 0.204302 0.126995
O O3 0.466659 0.346875 0.171926
O O4 0.541290 0.204779 0.201863
O O5 0.908286 0.649972 0.924811
O O6 0.872529 0.500000 0.000000
O O7 0.801354 0.652861 0.016801
O O8 0.095513 0.904487 0.215025
O O9 0.174100 0.948693 0.110781
O O10 0.000000 0.000000 0.134594
O O11 0.232271 0.232271 0.105853
O O12 0.071487 0.296352 0.088394
O O13 0.000000 0.000000 0.280949
O O14 0.083673 0.427717 0.228076
O O15 0.973573 0.307444 0.183960
#
# Coordination Sequence:
#
# PCOD9560560 Si02
#       7
#    16  16   8  16   8  16  16
#     4  11  21  42  65  97 130 168 218 273 337 408
#     4  10  25  42  67  96 130 168 224 289 337 397
#     4  11  26  44  65  96 140 181 228 276 342 428
#     4  11  24  41  65  88 127 173 224 272 331 398
#     4  11  24  42  65  96 140 181 214 274 348 418
#     4  11  21  35  63 101 134 160 205 274 351 404
#     4  12  23  42  67  95 132 176 221 280 344 403
#
# _framework density 19.7195
#
# number of rings (size 3 to 8) (size 9 to 14) (size 15 to 20)
#    0.000    1.000    5.833    1.000    1.167    5.333 
#    0.000    0.000    1.833    0.000    0.000    0.000 
#    0.000    0.000    0.000    0.000    0.000    0.000 
#
# Total GULP energy -267543.646689 kJ/mol
# GULP energy per Si atom -5573.825973 kJ/mol
# Density = 1.967462 g / cm^3
# Si number density = 19.719500 Si / 1000 Ang^3
#
#
#
# Elastic Constant Matrix: (Units=GPa)
#
#
# Indices 1 2 3 4 5 6 
#
# 1 58.2357 48.0262 18.5937 0.0000 0.0000 0.0000
# 2 48.0262 58.2345 18.5925 0.0000 0.0000 0.0000
# 3 18.5937 18.5925 79.9282 0.0000 0.0000 0.0000
# 4 0.0000 0.0000 0.0000 -4.3847 0.0000 0.0000
# 5 0.0000 0.0000 0.0000 0.0000 -4.3848 0.0000
# 6 0.0000 0.0000 0.0000 0.0000 0.0000 24.4421
#
#
#
# Elastic Compliance Matrix: (Units=1/GPa)
#
#
# Indices 1 2 3 4 5 6 
#
# 1 0.054099 -0.043854 -0.002384 0.000000 0.000000 0.000000
# 2 -0.043854 0.054100 -0.002383 0.000000 0.000000 0.000000
# 3 -0.002384 -0.002383 0.013620 0.000000 0.000000 0.000000
# 4 0.000000 0.000000 0.000000 -0.228066 0.000000 0.000000
# 5 0.000000 0.000000 0.000000 0.000000 -0.228060 0.000000
# 6 0.000000 0.000000 0.000000 0.000000 0.000000 0.040913
#
#
# Mechanical properties :
#
#
# Convention : Reuss Voigt Hill
#
# Bulk Modulus (GPa) = 40.68871 40.75814 40.72343
# Shear Modulus (GPa) = -26.60128 10.54690 -8.02719
#
# Velocity S-wave (km/s) = -3.67684 2.31518 -2.01978
# Velocity P-wave (km/s) = 1.62882 5.27831 3.90600
#
# Compressibility (1/GPa) = 0.02457684
#
# Stress axis : x y z
#
# Youngs Moduli (GPa) = 18.48467 18.48445 73.42148
#
# Poissons Ratio (x) = 0.81063 0.17502
# Poissons Ratio (y) = 0.81063 0.17493
# Poissons Ratio (z) = 0.04406 0.04404
#
# Static dielectric constant tensor:
#      x y z
#    x 1.698190 0.000000 0.000000 
#    y 0.000000 1.698190 0.000000 
#    z 0.000000 0.000000 1.738420 
# 
# From -- ./inp_files/6465.got.cif
#   From: 2010.05.17/outbox.cif.g08.bks.cpg/sg121_4_cif.got.tgz:6465.got - 2010.05.20 11:32:06.
