data_PCOD9560112
_publ_section_title
;
Structure prediction by ZEFSAII (Michael W. Deem and Ramdas Pophale) SiO2 
 PCOD9560112
Probable space group: I -4 2 M
;
_chemical_formula_sum "Si O2"
_cell_formula_units_Z 88
_cell_length_a 14.270434
_cell_length_b 14.270434
_cell_length_c 24.813381
_cell_angle_alpha 90.000000
_cell_angle_beta 90.000000
_cell_angle_gamma 90.000000
_cell_volume 5053.128084
_symmetry_space_group_name_H-M "I -4 2 M"
_symmetry_group_IT_number 121
_symmetry_cell_setting 'tetragonal'
loop_
_space_group_symop_operation_xyz
x,y,z
y,-x,-z
-x,-y,z
-y,x,-z
x,-y,-z
-x,y,-z
-y,-x,z
y,x,z
1/2+x,1/2+y,1/2+z
1/2+y,1/2-x,1/2-z
1/2-x,1/2-y,1/2+z
1/2-y,1/2+x,1/2-z
1/2+x,1/2-y,1/2-z
1/2-x,1/2+y,1/2-z
1/2-y,1/2-x,1/2+z
1/2+y,1/2+x,1/2+z
loop_
_atom_site_type_symbol
_atom_site_label
_atom_site_fract_x
_atom_site_fract_y
_atom_site_fract_z
Si Si1 0.920216 0.240869 0.606088
Si Si2 0.221576 0.622183 0.644839
Si Si3 0.652453 0.495572 0.792297
Si Si4 0.500000 0.657490 0.000000
Si Si5 0.607740 0.889625 0.246427
Si Si6 0.426204 0.726164 0.322349
O O1 0.837525 0.162476 0.608634
O O2 0.863879 0.338395 0.608959
O O3 0.984427 0.222504 0.658548
O O4 0.976872 0.219275 0.552125
O O5 0.311380 0.688621 0.638046
O O6 0.180274 0.633966 0.705511
O O7 0.249522 0.513596 0.639429
O O8 0.607666 0.392335 0.791329
O O9 0.567649 0.567649 0.803130
O O10 0.688110 0.526357 0.733410
O O11 0.588087 0.588087 0.010395
O O12 0.497743 0.880769 0.235101
O O13 0.677492 0.877087 0.196519
O O14 0.351654 0.648347 0.340494
#
# Coordination Sequence:
#
# PCOD9560112 Si02
#       6
#    16  16  16   8  16  16
#     4   9  16  26  39  58  86 122 165 209 255 300
#     4  10  18  28  42  61  90 128 167 206 247 295
#     4   9  15  23  36  55  82 116 158 208 252 289
#     4   9  16  26  42  62  86 123 174 224 260 299
#     4   9  17  28  42  59  83 122 165 202 243 294
#     4  10  18  28  42  61  89 127 172 214 248 286
#
# _framework density 17.414954999999999
#
# number of rings (size 3 to 8) (size 9 to 14) (size 15 to 20)
#    0.000    2.636    1.818    1.636    0.000    3.273 
#    0.000    0.000    0.000    0.000    0.000    0.000 
#    0.000   11.636    0.000    3.636    0.000   34.364 
#
# Total GULP energy -245027.814820 kJ/mol
# GULP energy per Si atom -5568.813973 kJ/mol
# Density = 1.737532 g / cm^3
# Si number density = 17.414955 Si / 1000 Ang^3
#
#
#
# Elastic Constant Matrix: (Units=GPa)
#
#
# Indices 1 2 3 4 5 6 
#
# 1 75.3477 29.2247 14.6581 0.0000 0.0000 0.0000
# 2 29.2247 75.3507 14.6573 0.0000 0.0000 0.0000
# 3 14.6581 14.6573 36.1070 0.0000 0.0000 0.0000
# 4 0.0000 0.0000 0.0000 14.9126 0.0000 0.0000
# 5 0.0000 0.0000 0.0000 0.0000 14.9122 0.0000
# 6 0.0000 0.0000 0.0000 0.0000 0.0000 30.1411
#
#
#
# Elastic Compliance Matrix: (Units=1/GPa)
#
#
# Indices 1 2 3 4 5 6 
#
# 1 0.016236 -0.005445 -0.004381 0.000000 0.000000 0.000000
# 2 -0.005445 0.016235 -0.004380 0.000000 0.000000 0.000000
# 3 -0.004381 -0.004380 0.031252 0.000000 0.000000 0.000000
# 4 0.000000 0.000000 0.000000 0.067058 0.000000 0.000000
# 5 0.000000 0.000000 0.000000 0.000000 0.067059 0.000000
# 6 0.000000 0.000000 0.000000 0.000000 0.000000 0.033177
#
#
# Mechanical properties :
#
#
# Convention : Reuss Voigt Hill
#
# Bulk Modulus (GPa) = 28.31951 33.76505 31.04228
# Shear Modulus (GPa) = 18.43662 20.54418 19.49040
#
# Velocity S-wave (km/s) = 3.25724 3.43838 3.34904
# Velocity P-wave (km/s) = 5.51753 5.93245 5.72874
#
# Compressibility (1/GPa) = 0.03531135
#
# Stress axis : x y z
#
# Youngs Moduli (GPa) = 61.59170 61.59492 31.99795
#
# Poissons Ratio (x) = 0.33538 0.14018
# Poissons Ratio (y) = 0.33536 0.14015
# Poissons Ratio (z) = 0.26983 0.26979
#
# Static dielectric constant tensor:
#      x y z
#    x 1.643730 0.000000 0.000000 
#    y 0.000000 1.643730 0.000000 
#    z 0.000000 0.000000 1.557500 
# 
# From -- ./inp_files/7079.got.cif
#   From: 2010.05.17/outbox.cif.g08.bks.cpg/sg121_4_cif.got.tgz:7079.got - 2010.05.20 11:32:06.
