data_PCOD9560841
_publ_section_title
;
Structure prediction by ZEFSAII (Michael W. Deem and Ramdas Pophale) SiO2 
 PCOD9560841
Probable space group: I -4 2 D
;
_chemical_formula_sum "Si O2"
_cell_formula_units_Z 56
_cell_length_a 12.010903
_cell_length_b 12.010903
_cell_length_c 20.909963
_cell_angle_alpha 90.000000
_cell_angle_beta 90.000000
_cell_angle_gamma 90.000000
_cell_volume 3016.508710
_symmetry_space_group_name_H-M "I -4 2 D"
_symmetry_group_IT_number 122
_symmetry_cell_setting 'tetragonal'
loop_
_space_group_symop_operation_xyz
x,y,z
y,-x,-z
-x,-y,z
-y,x,-z
x,1/2-y,1/4-z
-x,1/2+y,1/4-z
-y,1/2-x,1/4+z
y,1/2+x,1/4+z
1/2+x,1/2+y,1/2+z
1/2+y,1/2-x,1/2-z
1/2-x,1/2-y,1/2+z
1/2-y,1/2+x,1/2-z
1/2+x,-y,3/4-z
1/2-x,y,3/4-z
1/2-y,-x,3/4+z
1/2+y,x,3/4+z
loop_
_atom_site_type_symbol
_atom_site_label
_atom_site_fract_x
_atom_site_fract_y
_atom_site_fract_z
Si Si1 0.677156 0.510467 0.011348
Si Si2 0.916951 0.592880 0.521769
Si Si3 0.500000 0.000000 0.895658
Si Si4 0.618803 0.216284 0.862326
O O1 0.722184 0.565343 0.076184
O O2 0.600540 0.402114 0.022581
O O3 0.785905 0.472548 0.972630
O O4 0.915772 0.558806 0.446689
O O5 0.796954 0.595860 0.553073
O O6 0.000000 0.500000 0.551177
O O7 0.438507 0.903894 0.857325
O O8 0.750000 0.204546 0.875000
#
# Coordination Sequence:
#
# PCOD9560841 Si02
#       4
#    16  16   8  16
#     4  10  20  34  57  92 121 150 201 257 309 366
#     4   9  20  36  58  86 121 159 197 257 299 364
#     4   8  22  40  54  87 123 154 210 252 286 374
#     4  11  20  38  61  84 121 164 199 250 315 358
#
# _framework density 18.564506999999999
#
# number of rings (size 3 to 8) (size 9 to 14) (size 15 to 20)
#    0.857    1.429    2.857    0.000    4.000    0.000 
#    0.000    8.571    0.000    0.000    0.000    0.000 
#    0.000    0.000    0.000    0.000    0.000    0.000 
#
# Total GULP energy -155992.808231 kJ/mol
# GULP energy per Si atom -5571.171723 kJ/mol
# Density = 1.852225 g / cm^3
# Si number density = 18.564507 Si / 1000 Ang^3
#
#
#
# Elastic Constant Matrix: (Units=GPa)
#
#
# Indices 1 2 3 4 5 6 
#
# 1 163.5535 87.6281 36.2671 0.0000 0.0000 0.0000
# 2 87.6281 163.5535 36.2671 0.0000 0.0000 0.0000
# 3 36.2671 36.2671 28.4520 0.0000 0.0000 0.0000
# 4 0.0000 0.0000 0.0000 9.3332 0.0000 0.0000
# 5 0.0000 0.0000 0.0000 0.0000 9.3332 0.0000
# 6 0.0000 0.0000 0.0000 0.0000 0.0000 37.9544
#
#
#
# Elastic Compliance Matrix: (Units=1/GPa)
#
#
# Indices 1 2 3 4 5 6 
#
# 1 0.009736 -0.003435 -0.008031 0.000000 0.000000 0.000000
# 2 -0.003435 0.009736 -0.008031 0.000000 0.000000 0.000000
# 3 -0.008031 -0.008031 0.055620 0.000000 0.000000 0.000000
# 4 0.000000 0.000000 0.000000 0.107145 0.000000 0.000000
# 5 0.000000 0.000000 0.000000 0.000000 0.107145 0.000000
# 6 0.000000 0.000000 0.000000 0.000000 0.000000 0.026347
#
#
# Mechanical properties :
#
#
# Convention : Reuss Voigt Hill
#
# Bulk Modulus (GPa) = 27.70273 75.09817 51.40045
# Shear Modulus (GPa) = 13.63311 24.35060 18.99185
#
# Velocity S-wave (km/s) = 2.71285 3.62563 3.20194
# Velocity P-wave (km/s) = 4.97670 7.62019 6.43564
#
# Compressibility (1/GPa) = 0.03609753
#
# Stress axis : x y z
#
# Youngs Moduli (GPa) = 102.71654 102.71654 17.97911
#
# Poissons Ratio (x) = 0.35286 0.14439
# Poissons Ratio (y) = 0.35286 0.14439
# Poissons Ratio (z) = 0.82489 0.82489
#
# Static dielectric constant tensor:
#      x y z
#    x 1.640910 0.000000 0.000000 
#    y 0.000000 1.640910 0.000000 
#    z 0.000000 0.000000 1.648040 
# 
# From -- ./inp_files/6796.got.cif
#   From: 2010.05.17/outbox.cif.g08.bks.cpg/sg122_4_cif.got.tgz:6796.got - 2010.05.20 11:37:33.
