data_PCOD9560321
_publ_section_title
;
Structure prediction by ZEFSAII (Michael W. Deem and Ramdas Pophale) SiO2 
 PCOD9560321
Probable space group: I -4 2 M
;
_chemical_formula_sum "Si O2"
_cell_formula_units_Z 64
_cell_length_a 10.672115
_cell_length_b 10.672115
_cell_length_c 28.221957
_cell_angle_alpha 90.000000
_cell_angle_beta 90.000000
_cell_angle_gamma 90.000000
_cell_volume 3214.312659
_symmetry_space_group_name_H-M "I -4 2 M"
_symmetry_group_IT_number 121
_symmetry_cell_setting 'tetragonal'
loop_
_space_group_symop_operation_xyz
x,y,z
y,-x,-z
-x,-y,z
-y,x,-z
x,-y,-z
-x,y,-z
-y,-x,z
y,x,z
1/2+x,1/2+y,1/2+z
1/2+y,1/2-x,1/2-z
1/2-x,1/2-y,1/2+z
1/2-y,1/2+x,1/2-z
1/2+x,1/2-y,1/2-z
1/2-x,1/2+y,1/2-z
1/2-y,1/2-x,1/2+z
1/2+y,1/2+x,1/2+z
loop_
_atom_site_type_symbol
_atom_site_label
_atom_site_fract_x
_atom_site_fract_y
_atom_site_fract_z
Si Si1 0.454138 0.740478 0.303952
Si Si2 0.545860 0.740476 0.196048
Si Si3 0.145464 0.354536 0.484206
Si Si4 0.891773 0.608227 0.874577
O O1 0.387702 0.612299 0.316743
O O2 0.499998 0.733842 0.250000
O O3 0.349852 0.849854 0.304231
O O4 0.553675 0.780486 0.342722
O O5 0.612295 0.612295 0.183258
O O6 0.446326 0.780484 0.157277
O O7 0.172703 0.500000 0.500000
O O8 0.250000 0.250000 0.500195
O O9 0.144521 0.355480 0.427215
O O10 0.000000 0.327297 0.500000
O O11 0.000000 0.500000 0.878356
#
# Coordination Sequence:
#
# PCOD9560321 Si02
#       4
#    16  16  16  16
#     4  10  20  34  58  90 125 167 210 251 304 374
#     4  10  20  34  58  90 125 167 210 251 304 374
#     4  11  25  48  73 100 132 171 220 282 344 405
#     4  10  20  39  63  91 123 167 213 261 318 386
#
# _framework density 19.910943
#
# number of rings (size 3 to 8) (size 9 to 14) (size 15 to 20)
#    0.000    1.750    5.000    0.000    0.000    5.000 
#    0.000    0.000    0.000    0.000    0.000    0.000 
#    0.000    0.000    0.000    0.000    0.000    0.000 
#
# Total GULP energy -178618.842506 kJ/mol
# GULP energy per Si atom -5581.838828 kJ/mol
# Density = 1.986563 g / cm^3
# Si number density = 19.910943 Si / 1000 Ang^3
#
#
#
# Elastic Constant Matrix: (Units=GPa)
#
#
# Indices 1 2 3 4 5 6 
#
# 1 97.8471 89.0897 54.1832 0.0000 0.0000 0.0000
# 2 89.0897 97.8494 54.1827 0.0000 0.0000 0.0000
# 3 54.1832 54.1827 147.6427 0.0000 0.0000 0.0000
# 4 0.0000 0.0000 0.0000 -22.0043 0.0000 0.0000
# 5 0.0000 0.0000 0.0000 0.0000 -22.0077 0.0000
# 6 0.0000 0.0000 0.0000 0.0000 0.0000 33.5647
#
#
#
# Elastic Compliance Matrix: (Units=1/GPa)
#
#
# Indices 1 2 3 4 5 6 
#
# 1 0.060485 -0.053689 -0.002494 0.000000 0.000000 0.000000
# 2 -0.053689 0.060483 -0.002493 0.000000 0.000000 0.000000
# 3 -0.002494 -0.002493 0.008603 0.000000 0.000000 0.000000
# 4 0.000000 0.000000 0.000000 -0.045446 0.000000 0.000000
# 5 0.000000 0.000000 0.000000 0.000000 -0.045439 0.000000
# 6 0.000000 0.000000 0.000000 0.000000 0.000000 0.029793
#
#
# Mechanical properties :
#
#
# Convention : Reuss Voigt Hill
#
# Bulk Modulus (GPa) = 81.84227 82.02779 81.93503
# Shear Modulus (GPa) = 26.32860 7.63611 16.98236
#
# Velocity S-wave (km/s) = 3.64031 1.96047 2.92364
# Velocity P-wave (km/s) = 7.67220 6.81259 7.25514
#
# Compressibility (1/GPa) = 0.01221862
#
# Stress axis : x y z
#
# Youngs Moduli (GPa) = 16.53291 16.53348 116.23344
#
# Poissons Ratio (x) = 0.88767 0.28991
# Poissons Ratio (y) = 0.88764 0.28978
# Poissons Ratio (z) = 0.04124 0.04122
#
# Static dielectric constant tensor:
#      x y z
#    x 1.742090 0.000000 0.000000 
#    y 0.000000 1.742090 0.000000 
#    z 0.000000 0.000000 1.639070 
# 
# From -- ./inp_files/6924.got.cif
#   From: 2010.05.17/outbox.cif.g08.bks.cpg/sg121_4_cif.got.tgz:6924.got - 2010.05.20 11:32:06.
