data_PCOD9560820
_publ_section_title
;
Structure prediction by ZEFSAII (Michael W. Deem and Ramdas Pophale) SiO2 
 PCOD9560820
Probable space group: I -4 2 D
;
_chemical_formula_sum "Si O2"
_cell_formula_units_Z 96
_cell_length_a 23.234181
_cell_length_b 23.234181
_cell_length_c 9.891646
_cell_angle_alpha 90.000000
_cell_angle_beta 90.000000
_cell_angle_gamma 90.000000
_cell_volume 5339.779235
_symmetry_space_group_name_H-M "I -4 2 D"
_symmetry_group_IT_number 122
_symmetry_cell_setting 'tetragonal'
loop_
_space_group_symop_operation_xyz
x,y,z
y,-x,-z
-x,-y,z
-y,x,-z
x,1/2-y,1/4-z
-x,1/2+y,1/4-z
-y,1/2-x,1/4+z
y,1/2+x,1/4+z
1/2+x,1/2+y,1/2+z
1/2+y,1/2-x,1/2-z
1/2-x,1/2-y,1/2+z
1/2-y,1/2+x,1/2-z
1/2+x,-y,3/4-z
1/2-x,y,3/4-z
1/2-y,-x,3/4+z
1/2+y,x,3/4+z
loop_
_atom_site_type_symbol
_atom_site_label
_atom_site_fract_x
_atom_site_fract_y
_atom_site_fract_z
Si Si1 0.076249 0.164589 0.249488
Si Si2 0.801380 0.282050 0.267017
Si Si3 0.984605 0.808282 0.698741
Si Si4 0.092746 0.517229 0.728132
Si Si5 0.381593 0.792597 0.000256
Si Si6 0.917381 0.700448 0.291498
O O1 0.039010 0.121496 0.339536
O O2 0.143758 0.146732 0.267446
O O3 0.067942 0.231358 0.291044
O O4 0.060586 0.166654 0.090823
O O5 0.750000 0.271836 0.375000
O O6 0.857592 0.269076 0.357754
O O7 0.801757 0.348984 0.226741
O O8 0.795892 0.250000 0.125000
O O9 0.964736 0.750000 0.625000
O O10 0.986211 0.857478 0.587980
O O11 0.942805 0.823734 0.821229
O O12 0.049582 0.798346 0.751341
O O13 0.062009 0.455627 0.722202
O O14 0.366475 0.750000 0.125000
#
# Coordination Sequence:
#
# PCOD9560820 Si02
#       6
#    16  16  16  16  16  16
#     4  10  19  40  61  83 123 156 190 248 301 355
#     4  11  22  38  59  89 124 158 195 239 299 362
#     4  11  22  39  62  87 117 156 204 246 294 355
#     4  11  23  41  63  88 117 158 207 253 299 354
#     4  10  21  39  60  87 119 155 193 251 299 347
#     4  10  21  38  61  85 119 163 191 236 309 359
#
# _framework density 17.978270999999999
#
# number of rings (size 3 to 8) (size 9 to 14) (size 15 to 20)
#    0.000    1.500    6.667    0.500    0.000    2.000 
#    9.000    0.000    0.000    2.000    0.000    0.000 
#    0.000    0.000    0.000    0.000    0.000    0.000 
#
# Total GULP energy -267742.235228 kJ/mol
# GULP energy per Si atom -5577.963234 kJ/mol
# Density = 1.793735 g / cm^3
# Si number density = 17.978271 Si / 1000 Ang^3
#
#
#
# Elastic Constant Matrix: (Units=GPa)
#
#
# Indices 1 2 3 4 5 6 
#
# 1 63.0633 28.5327 55.2589 0.0000 0.0000 0.0000
# 2 28.5327 63.0633 55.2589 0.0000 0.0000 0.0000
# 3 55.2589 55.2589 139.3366 0.0000 0.0000 0.0000
# 4 0.0000 0.0000 0.0000 29.6276 0.0000 0.0000
# 5 0.0000 0.0000 0.0000 0.0000 29.6276 0.0000
# 6 0.0000 0.0000 0.0000 0.0000 0.0000 9.6242
#
#
#
# Elastic Compliance Matrix: (Units=1/GPa)
#
#
# Indices 1 2 3 4 5 6 
#
# 1 0.024948 -0.004012 -0.008303 0.000000 0.000000 0.000000
# 2 -0.004012 0.024948 -0.008303 0.000000 0.000000 0.000000
# 3 -0.008303 -0.008303 0.013762 0.000000 0.000000 0.000000
# 4 0.000000 0.000000 0.000000 0.033752 0.000000 0.000000
# 5 0.000000 0.000000 0.000000 0.000000 0.033752 0.000000
# 6 0.000000 0.000000 0.000000 0.000000 0.000000 0.103904
#
#
# Mechanical properties :
#
#
# Convention : Reuss Voigt Hill
#
# Bulk Modulus (GPa) = 44.59842 60.39603 52.49722
# Shear Modulus (GPa) = 17.61955 22.20339 19.91147
#
# Velocity S-wave (km/s) = 3.13397 3.51809 3.33157
# Velocity P-wave (km/s) = 6.16087 7.08304 6.63799
#
# Compressibility (1/GPa) = 0.02242232
#
# Stress axis : x y z
#
# Youngs Moduli (GPa) = 40.08406 40.08406 72.66230
#
# Poissons Ratio (x) = 0.16083 0.60329
# Poissons Ratio (y) = 0.16083 0.60329
# Poissons Ratio (z) = 0.33280 0.33280
#
# Static dielectric constant tensor:
#      x y z
#    x 1.618890 0.000000 0.000000 
#    y 0.000000 1.618890 0.000000 
#    z 0.000000 0.000000 1.608180 
# 
# From -- ./inp_files/2898.got.cif
#   From: 2010.05.17/outbox.cif.g08.bks.cpg/sg122_2_cif.got.tgz:2898.got - 2010.05.20 11:37:33.
