data_PCOD9560924
_publ_section_title
;
Structure prediction by ZEFSAII (Michael W. Deem and Ramdas Pophale) SiO2 
 PCOD9560924
Probable space group: I -4 2 D
;
_chemical_formula_sum "Si O2"
_cell_formula_units_Z 56
_cell_length_a 12.029772
_cell_length_b 12.029772
_cell_length_c 21.830544
_cell_angle_alpha 90.000000
_cell_angle_beta 90.000000
_cell_angle_gamma 90.000000
_cell_volume 3159.216221
_symmetry_space_group_name_H-M "I -4 2 D"
_symmetry_group_IT_number 122
_symmetry_cell_setting 'tetragonal'
loop_
_space_group_symop_operation_xyz
x,y,z
y,-x,-z
-x,-y,z
-y,x,-z
x,1/2-y,1/4-z
-x,1/2+y,1/4-z
-y,1/2-x,1/4+z
y,1/2+x,1/4+z
1/2+x,1/2+y,1/2+z
1/2+y,1/2-x,1/2-z
1/2-x,1/2-y,1/2+z
1/2-y,1/2+x,1/2-z
1/2+x,-y,3/4-z
1/2-x,y,3/4-z
1/2-y,-x,3/4+z
1/2+y,x,3/4+z
loop_
_atom_site_type_symbol
_atom_site_label
_atom_site_fract_x
_atom_site_fract_y
_atom_site_fract_z
Si Si1 0.709984 0.662042 0.267743
Si Si2 0.871424 0.521451 0.969905
Si Si3 0.902485 0.783300 0.195813
Si Si4 0.750000 0.679540 0.875000
O O1 0.600419 0.680305 0.226591
O O2 0.821957 0.702965 0.234678
O O3 0.721955 0.532247 0.285001
O O4 0.690717 0.737082 0.327829
O O5 0.823373 0.599144 0.917082
O O6 0.000000 0.500000 0.957275
O O7 0.864735 0.592527 0.033277
O O8 0.892266 0.750000 0.125000
#
# Coordination Sequence:
#
# PCOD9560924 Si02
#       4
#    16  16  16   8
#     4  10  21  39  59  90 115 154 200 235 311 343
#     4   9  21  38  57  85 117 154 192 241 293 350
#     4  10  21  38  61  87 119 154 196 252 288 361
#     4  10  20  40  60  78 124 150 188 254 278 356
#
# _framework density 17.725916999999999
#
# number of rings (size 3 to 8) (size 9 to 14) (size 15 to 20)
#    0.000    2.286    1.429    0.000    2.000    7.429 
#   10.286    0.000    0.000    0.000    0.000    0.000 
#    0.000    0.000    0.000    0.000    0.000    0.000 
#
# Total GULP energy -155926.787419 kJ/mol
# GULP energy per Si atom -5568.813836 kJ/mol
# Density = 1.768557 g / cm^3
# Si number density = 17.725917 Si / 1000 Ang^3
#
#
#
# Elastic Constant Matrix: (Units=GPa)
#
#
# Indices 1 2 3 4 5 6 
#
# 1 94.3157 40.4785 45.4712 0.0000 0.0000 0.0000
# 2 40.4785 94.3157 45.4712 0.0000 0.0000 0.0000
# 3 45.4712 45.4712 96.0104 0.0000 0.0000 0.0000
# 4 0.0000 0.0000 0.0000 22.6735 0.0000 0.0000
# 5 0.0000 0.0000 0.0000 0.0000 22.6735 0.0000
# 6 0.0000 0.0000 0.0000 0.0000 0.0000 21.2294
#
#
#
# Elastic Compliance Matrix: (Units=1/GPa)
#
#
# Indices 1 2 3 4 5 6 
#
# 1 0.014738 -0.003836 -0.005163 0.000000 0.000000 0.000000
# 2 -0.003836 0.014738 -0.005163 0.000000 0.000000 0.000000
# 3 -0.005163 -0.005163 0.015306 0.000000 0.000000 0.000000
# 4 0.000000 0.000000 0.000000 0.044104 0.000000 0.000000
# 5 0.000000 0.000000 0.000000 0.000000 0.044104 0.000000
# 6 0.000000 0.000000 0.000000 0.000000 0.000000 0.047104
#
#
# Mechanical properties :
#
#
# Convention : Reuss Voigt Hill
#
# Bulk Modulus (GPa) = 60.76295 60.83152 60.79723
# Shear Modulus (GPa) = 23.37451 23.53001 23.45226
#
# Velocity S-wave (km/s) = 3.63528 3.64735 3.64132
# Velocity P-wave (km/s) = 7.20929 7.22010 7.21470
#
# Compressibility (1/GPa) = 0.01645740
#
# Stress axis : x y z
#
# Youngs Moduli (GPa) = 67.84980 67.84980 65.33201
#
# Poissons Ratio (x) = 0.26028 0.33734
# Poissons Ratio (y) = 0.26028 0.33734
# Poissons Ratio (z) = 0.35034 0.35034
#
# Static dielectric constant tensor:
#      x y z
#    x 1.600950 0.000000 0.000000 
#    y 0.000000 1.600950 0.000000 
#    z 0.000000 0.000000 1.615670 
# 
# From -- ./inp_files/6791.got.cif
#   From: 2010.05.17/outbox.cif.g08.bks.cpg/sg122_4_cif.got.tgz:6791.got - 2010.05.20 11:37:33.
