data_PCOD9560638
_publ_section_title
;
Structure prediction by ZEFSAII (Michael W. Deem and Ramdas Pophale) SiO2 
 PCOD9560638
Probable space group: I -4 2 M
;
_chemical_formula_sum "Si O2"
_cell_formula_units_Z 60
_cell_length_a 11.397107
_cell_length_b 11.397107
_cell_length_c 18.814229
_cell_angle_alpha 90.000000
_cell_angle_beta 90.000000
_cell_angle_gamma 90.000000
_cell_volume 2443.856364
_symmetry_space_group_name_H-M "I -4 2 M"
_symmetry_group_IT_number 121
_symmetry_cell_setting 'tetragonal'
loop_
_space_group_symop_operation_xyz
x,y,z
y,-x,-z
-x,-y,z
-y,x,-z
x,-y,-z
-x,y,-z
-y,-x,z
y,x,z
1/2+x,1/2+y,1/2+z
1/2+y,1/2-x,1/2-z
1/2-x,1/2-y,1/2+z
1/2-y,1/2+x,1/2-z
1/2+x,1/2-y,1/2-z
1/2-x,1/2+y,1/2-z
1/2-y,1/2-x,1/2+z
1/2+y,1/2+x,1/2+z
loop_
_atom_site_type_symbol
_atom_site_label
_atom_site_fract_x
_atom_site_fract_y
_atom_site_fract_z
Si Si1 0.803190 0.000000 0.000000
Si Si2 0.764627 0.482014 0.699751
Si Si3 0.000000 0.000000 0.154371
Si Si4 0.900973 0.290221 0.352872
Si Si5 0.824283 0.360531 0.089326
O O1 0.710732 0.078810 0.044484
O O2 0.898997 0.898997 0.024255
O O3 0.642796 0.498274 0.660565
O O4 0.846098 0.589621 0.676569
O O5 0.738107 0.464783 0.782784
O O6 0.827530 0.366552 0.669214
O O7 0.799065 0.200936 0.376051
O O8 0.999254 0.317244 0.411677
O O9 0.699923 0.300078 0.074805
#
# Coordination Sequence:
#
# PCOD9560638 Si02
#       5
#     8  16   4  16  16
#     4   9  22  44  75 108 144 191 249 308 368 433
#     4  12  24  40  61 100 143 191 234 290 363 431
#     4  12  24  36  68  93 140 192 241 292 360 434
#     4  12  25  40  63 100 152 195 236 293 363 438
#     4  11  24  42  68 104 144 186 239 297 360 434
#
# _framework density 24.551362000000001
#
# number of rings (size 3 to 8) (size 9 to 14) (size 15 to 20)
#    0.000    0.667    6.667    0.800    3.733    0.533 
#    0.000    2.667    0.000    0.000    3.467    0.000 
#    0.000    4.267    0.000    0.000    0.000    0.000 
#
# Total GULP energy -167190.325306 kJ/mol
# GULP energy per Si atom -5573.010844 kJ/mol
# Density = 2.449548 g / cm^3
# Si number density = 24.551362 Si / 1000 Ang^3
#
#
#
# Elastic Constant Matrix: (Units=GPa)
#
#
# Indices 1 2 3 4 5 6 
#
# 1 134.4550 38.1305 22.0986 0.0000 0.0000 0.0000
# 2 38.1305 134.4522 22.0977 0.0000 0.0000 0.0000
# 3 22.0986 22.0977 49.1500 0.0000 0.0000 0.0000
# 4 0.0000 0.0000 0.0000 -10.3321 0.0000 0.0000
# 5 0.0000 0.0000 0.0000 0.0000 -10.3314 0.0000
# 6 0.0000 0.0000 0.0000 0.0000 0.0000 41.2684
#
#
#
# Elastic Compliance Matrix: (Units=1/GPa)
#
#
# Indices 1 2 3 4 5 6 
#
# 1 0.008465 -0.001917 -0.002944 0.000000 0.000000 0.000000
# 2 -0.001917 0.008465 -0.002944 0.000000 0.000000 0.000000
# 3 -0.002944 -0.002944 0.022993 0.000000 0.000000 0.000000
# 4 0.000000 0.000000 0.000000 -0.096785 0.000000 0.000000
# 5 0.000000 0.000000 0.000000 0.000000 -0.096792 0.000000
# 6 0.000000 0.000000 0.000000 0.000000 0.000000 0.024232
#
#
# Mechanical properties :
#
#
# Convention : Reuss Voigt Hill
#
# Bulk Modulus (GPa) = 41.12989 53.63455 47.38222
# Shear Modulus (GPa) = -47.29988 19.83633 -13.73177
#
# Velocity S-wave (km/s) = -4.39403 2.84553 -2.36753
# Velocity P-wave (km/s) = 2.99239 5.71746 3.44492
#
# Compressibility (1/GPa) = 0.02431322
#
# Stress axis : x y z
#
# Youngs Moduli (GPa) = 118.13484 118.13291 43.49101
#
# Poissons Ratio (x) = 0.22643 0.12805
# Poissons Ratio (y) = 0.22644 0.12804
# Poissons Ratio (z) = 0.34781 0.34779
#
# Static dielectric constant tensor:
#      x y z
#    x 1.907180 0.000000 0.000000 
#    y 0.000000 1.907180 0.000000 
#    z 0.000000 0.000000 2.158760 
# 
# From -- ./inp_files/6048.got.cif
#   From: 2010.05.17/outbox.cif.g08.bks.cpg/sg121_4_cif.got.tgz:6048.got - 2010.05.20 11:32:06.
