data_PCOD9560879
_publ_section_title
;
Structure prediction by ZEFSAII (Michael W. Deem and Ramdas Pophale) SiO2 
 PCOD9560879
Probable space group: I -4 2 D
;
_chemical_formula_sum "Si O2"
_cell_formula_units_Z 112
_cell_length_a 13.807381
_cell_length_b 13.807381
_cell_length_c 24.499886
_cell_angle_alpha 90.000000
_cell_angle_beta 90.000000
_cell_angle_gamma 90.000000
_cell_volume 4670.750634
_symmetry_space_group_name_H-M "I -4 2 D"
_symmetry_group_IT_number 122
_symmetry_cell_setting 'tetragonal'
loop_
_space_group_symop_operation_xyz
x,y,z
y,-x,-z
-x,-y,z
-y,x,-z
x,1/2-y,1/4-z
-x,1/2+y,1/4-z
-y,1/2-x,1/4+z
y,1/2+x,1/4+z
1/2+x,1/2+y,1/2+z
1/2+y,1/2-x,1/2-z
1/2-x,1/2-y,1/2+z
1/2-y,1/2+x,1/2-z
1/2+x,-y,3/4-z
1/2-x,y,3/4-z
1/2-y,-x,3/4+z
1/2+y,x,3/4+z
loop_
_atom_site_type_symbol
_atom_site_label
_atom_site_fract_x
_atom_site_fract_y
_atom_site_fract_z
Si Si1 0.651168 0.774059 0.727615
Si Si2 0.213698 0.142126 0.315548
Si Si3 0.499079 0.234891 0.268698
Si Si4 0.958398 0.105979 0.929304
Si Si5 0.430513 0.093387 0.561924
Si Si6 0.514249 0.818852 0.393962
Si Si7 0.851077 0.702597 0.570578
O O1 0.701031 0.739910 0.782529
O O2 0.626111 0.885764 0.728430
O O3 0.562986 0.700110 0.714614
O O4 0.739627 0.764340 0.684799
O O5 0.250000 0.161476 0.375000
O O6 0.287502 0.073163 0.281684
O O7 0.099998 0.117065 0.329094
O O8 0.553261 0.331707 0.287326
O O9 0.486927 0.179158 0.326700
O O10 0.404378 0.263315 0.234364
O O11 0.891775 0.086791 0.875789
O O12 0.018075 0.203341 0.912346
O O13 0.000000 0.000000 0.937007
O O14 0.500000 0.000000 0.555225
O O15 0.411788 0.852576 0.418426
O O16 0.895479 0.750000 0.625000
#
# Coordination Sequence:
#
# PCOD9560879 Si02
#       7
#    16  16  16  16  16  16  16
#     4  10  20  37  62  90 126 175 212 268 339 393
#     4  11  23  42  65  93 133 170 221 284 342 408
#     4  10  22  38  64  93 128 171 219 276 345 397
#     4   9  18  38  58  89 125 167 212 267 315 396
#     4   9  18  33  61  90 128 162 216 269 323 399
#     4  10  23  41  62  97 129 171 225 276 332 417
#     4  11  21  38  66  93 127 174 226 273 342 414
#
# _framework density 23.979016000000001
#
# number of rings (size 3 to 8) (size 9 to 14) (size 15 to 20)
#    0.000    2.000    0.000    5.143    4.000    0.000 
#    5.143    4.286    0.000    1.714    0.000    0.000 
#    0.000    0.000    0.000    0.000    0.000    0.000 
#
# Total GULP energy -311848.064095 kJ/mol
# GULP energy per Si atom -5568.715430 kJ/mol
# Density = 2.392444 g / cm^3
# Si number density = 23.979016 Si / 1000 Ang^3
#
#
#
# Elastic Constant Matrix: (Units=GPa)
#
#
# Indices 1 2 3 4 5 6 
#
# 1 75.5288 17.9488 21.8317 0.0000 0.0000 0.0000
# 2 17.9488 75.5288 21.8317 0.0000 0.0000 0.0000
# 3 21.8317 21.8317 117.8558 0.0000 0.0000 0.0000
# 4 0.0000 0.0000 0.0000 30.8780 0.0000 0.0000
# 5 0.0000 0.0000 0.0000 0.0000 30.8780 0.0000
# 6 0.0000 0.0000 0.0000 0.0000 0.0000 16.6627
#
#
#
# Elastic Compliance Matrix: (Units=1/GPa)
#
#
# Indices 1 2 3 4 5 6 
#
# 1 0.014539 -0.002828 -0.002169 0.000000 0.000000 0.000000
# 2 -0.002828 0.014539 -0.002169 0.000000 0.000000 0.000000
# 3 -0.002169 -0.002169 0.009289 0.000000 0.000000 0.000000
# 4 0.000000 0.000000 0.000000 0.032386 0.000000 0.000000
# 5 0.000000 0.000000 0.000000 0.000000 0.032386 0.000000
# 6 0.000000 0.000000 0.000000 0.000000 0.000000 0.060014
#
#
# Mechanical properties :
#
#
# Convention : Reuss Voigt Hill
#
# Bulk Modulus (GPa) = 41.60892 43.57088 42.58990
# Shear Modulus (GPa) = 26.95459 29.50378 28.22919
#
# Velocity S-wave (km/s) = 3.35638 3.51151 3.43482
# Velocity P-wave (km/s) = 5.69301 5.88649 5.79056
#
# Compressibility (1/GPa) = 0.02403331
#
# Stress axis : x y z
#
# Youngs Moduli (GPa) = 68.77999 68.77999 107.65820
#
# Poissons Ratio (x) = 0.19451 0.23355
# Poissons Ratio (y) = 0.19451 0.23355
# Poissons Ratio (z) = 0.14921 0.14921
#
# Static dielectric constant tensor:
#      x y z
#    x 2.128210 0.000000 0.000000 
#    y 0.000000 2.128210 0.000000 
#    z 0.000000 0.000000 2.046000 
# 
# From -- ./inp_files/8148.got.cif
#   From: 2010.05.17/outbox.cif.g08.bks.cpg/sg122_5_cif.got.tgz:8148.got - 2010.05.20 11:37:33.
