data_PCOD9560044
_publ_section_title
;
Structure prediction by ZEFSAII (Michael W. Deem and Ramdas Pophale) SiO2 
 PCOD9560044
Probable space group: I -4 C 2
;
_chemical_formula_sum "Si O2"
_cell_formula_units_Z 20
_cell_length_a 9.377260
_cell_length_b 9.377260
_cell_length_c 8.062269
_cell_angle_alpha 90.000000
_cell_angle_beta 90.000000
_cell_angle_gamma 90.000000
_cell_volume 708.939541
_symmetry_space_group_name_H-M "I -4 C 2"
_symmetry_group_IT_number 120
_symmetry_cell_setting 'tetragonal'
loop_
_space_group_symop_operation_xyz
x,y,z
y,-x,-z
-x,-y,z
-y,x,-z
y,x,1/2-z
-y,-x,1/2-z
-x,y,1/2+z
x,-y,1/2+z
1/2+x,1/2+y,1/2+z
1/2+y,1/2-x,1/2-z
1/2-x,1/2-y,1/2+z
1/2-y,1/2+x,1/2-z
1/2+y,1/2+x,-z
1/2-y,1/2-x,-z
1/2-x,1/2+y,z
1/2+x,1/2-y,z
loop_
_atom_site_type_symbol
_atom_site_label
_atom_site_fract_x
_atom_site_fract_y
_atom_site_fract_z
Si Si1 0.686192 0.530722 0.900819
Si Si2 0.500000 0.000000 0.000000
O O1 0.623045 0.623045 0.750000
O O2 0.617377 0.374854 0.938061
O O3 0.852946 0.507979 0.899195
#
# Coordination Sequence:
#
# PCOD9560044 Si02
#       2
#    16   4
#     4  11  26  51  81 120 172 224 286 362 434 518
#     4  12  28  50  88 130 168 234 300 354 436 522
#
# _framework density 28.21115
#
# number of rings (size 3 to 8) (size 9 to 14) (size 15 to 20)
#    0.000    0.800    0.000    7.200    0.000   16.000 
#    0.000   16.000    0.000    4.800    0.000    0.000 
#    0.000    0.000    0.000    0.000    0.000    0.000 
#
# Total GULP energy -55994.180444 kJ/mol
# GULP energy per Si atom -5599.418044 kJ/mol
# Density = 2.814694 g / cm^3
# Si number density = 28.211150 Si / 1000 Ang^3
#
#
#
# Elastic Constant Matrix: (Units=GPa)
#
#
# Indices 1 2 3 4 5 6 
#
# 1 297.3658 105.1139 90.7891 0.0000 0.0000 0.0000
# 2 105.1139 297.3658 90.7891 0.0000 0.0000 0.0000
# 3 90.7891 90.7891 161.1785 0.0000 0.0000 0.0000
# 4 0.0000 0.0000 0.0000 41.4158 0.0000 0.0000
# 5 0.0000 0.0000 0.0000 0.0000 41.4158 0.0000
# 6 0.0000 0.0000 0.0000 0.0000 0.0000 23.8899
#
#
#
# Elastic Compliance Matrix: (Units=1/GPa)
#
#
# Indices 1 2 3 4 5 6 
#
# 1 0.004266 -0.000935 -0.001876 0.000000 0.000000 0.000000
# 2 -0.000935 0.004266 -0.001876 0.000000 0.000000 0.000000
# 3 -0.001876 -0.001876 0.008318 0.000000 0.000000 0.000000
# 4 0.000000 0.000000 0.000000 0.024145 0.000000 0.000000
# 5 0.000000 0.000000 0.000000 0.000000 0.024145 0.000000
# 6 0.000000 0.000000 0.000000 0.000000 0.000000 0.041859
#
#
# Mechanical properties :
#
#
# Convention : Reuss Voigt Hill
#
# Bulk Modulus (GPa) = 133.78044 147.69938 140.73991
# Shear Modulus (GPa) = 42.06359 52.62552 47.34455
#
# Velocity S-wave (km/s) = 3.86557 4.32373 4.10105
# Velocity P-wave (km/s) = 8.21265 8.79743 8.51007
#
# Compressibility (1/GPa) = 0.00747493
#
# Stress axis : x y z
#
# Youngs Moduli (GPa) = 234.39449 234.39449 120.21906
#
# Poissons Ratio (x) = 0.21920 0.22557
# Poissons Ratio (y) = 0.21920 0.22557
# Poissons Ratio (z) = 0.43981 0.43981
#
# Static dielectric constant tensor:
#      x y z
#    x 2.192900 0.000000 0.000000 
#    y 0.000000 2.192900 0.000000 
#    z 0.000000 0.000000 2.434230 
# 
# From -- ./inp_files/556.got.cif
#   From: 2010.05.17/outbox.cif.g08.bks.cpg/sg120_1_cif.got.tgz:556.got - 2010.05.20 11:28:13.
