data_PCOD9560748
_publ_section_title
;
Structure prediction by ZEFSAII (Michael W. Deem and Ramdas Pophale) SiO2 
 PCOD9560748
Probable space group: I -4 2 D
;
_chemical_formula_sum "Si O2"
_cell_formula_units_Z 96
_cell_length_a 19.425501
_cell_length_b 19.425501
_cell_length_c 12.403183
_cell_angle_alpha 90.000000
_cell_angle_beta 90.000000
_cell_angle_gamma 90.000000
_cell_volume 4680.342210
_symmetry_space_group_name_H-M "I -4 2 D"
_symmetry_group_IT_number 122
_symmetry_cell_setting 'tetragonal'
loop_
_space_group_symop_operation_xyz
x,y,z
y,-x,-z
-x,-y,z
-y,x,-z
x,1/2-y,1/4-z
-x,1/2+y,1/4-z
-y,1/2-x,1/4+z
y,1/2+x,1/4+z
1/2+x,1/2+y,1/2+z
1/2+y,1/2-x,1/2-z
1/2-x,1/2-y,1/2+z
1/2-y,1/2+x,1/2-z
1/2+x,-y,3/4-z
1/2-x,y,3/4-z
1/2-y,-x,3/4+z
1/2+y,x,3/4+z
loop_
_atom_site_type_symbol
_atom_site_label
_atom_site_fract_x
_atom_site_fract_y
_atom_site_fract_z
Si Si1 0.366855 0.228158 0.748406
Si Si2 0.542780 0.902499 0.794870
Si Si3 0.951101 0.101136 0.479618
Si Si4 0.118144 0.390699 0.508234
Si Si5 0.351367 0.750000 0.625000
Si Si6 0.673561 0.832452 0.333204
Si Si7 0.250000 0.865784 0.375000
O O1 0.361153 0.250000 0.625000
O O2 0.427169 0.171772 0.762033
O O3 0.296831 0.192090 0.791883
O O4 0.373752 0.292653 0.829923
O O5 0.463321 0.915385 0.766387
O O6 0.560481 0.910007 0.921194
O O7 0.942921 0.124036 0.356721
O O8 0.909403 0.150333 0.558085
O O9 0.028515 0.088508 0.512718
O O10 0.191079 0.388664 0.444871
O O11 0.101731 0.314622 0.558538
O O12 0.750000 0.833024 0.375000
O O13 0.671986 0.790843 0.220570
#
# Coordination Sequence:
#
# PCOD9560748 Si02
#       7
#    16  16  16  16   8  16   8
#     4  11  23  38  63  99 136 164 222 284 340 404
#     4  10  23  45  67  94 134 186 222 273 344 414
#     4  10  25  47  68  94 135 185 226 275 337 408
#     4  10  21  40  68  93 130 178 223 271 335 411
#     4  10  20  38  62  92 130 182 204 266 360 386
#     4  11  22  39  67  97 131 170 226 279 342 395
#     4  10  18  38  66  88 134 178 214 274 338 410
#
# _framework density 20.511320999999999
#
# number of rings (size 3 to 8) (size 9 to 14) (size 15 to 20)
#    0.000    1.667    4.167    0.000    7.000    5.333 
#   18.000    0.000    0.000    0.000    0.000    0.000 
#    0.000    0.000    0.000    0.000    0.000    0.000 
#
# Total GULP energy -267847.774688 kJ/mol
# GULP energy per Si atom -5580.161973 kJ/mol
# Density = 2.046464 g / cm^3
# Si number density = 20.511321 Si / 1000 Ang^3
#
#
#
# Elastic Constant Matrix: (Units=GPa)
#
#
# Indices 1 2 3 4 5 6 
#
# 1 10.2142 40.4541 23.1207 0.0000 0.0000 0.0000
# 2 40.4541 10.2142 23.1207 0.0000 0.0000 0.0000
# 3 23.1207 23.1207 136.5409 0.0000 0.0000 0.0000
# 4 0.0000 0.0000 0.0000 25.5473 0.0000 0.0000
# 5 0.0000 0.0000 0.0000 0.0000 25.5473 0.0000
# 6 0.0000 0.0000 0.0000 0.0000 0.0000 1.9723
#
#
#
# Elastic Compliance Matrix: (Units=1/GPa)
#
#
# Indices 1 2 3 4 5 6 
#
# 1 -0.004863 0.028206 -0.003953 0.000000 0.000000 0.000000
# 2 0.028206 -0.004863 -0.003953 0.000000 0.000000 0.000000
# 3 -0.003953 -0.003953 0.008662 0.000000 0.000000 0.000000
# 4 0.000000 0.000000 0.000000 0.039143 0.000000 0.000000
# 5 0.000000 0.000000 0.000000 0.000000 0.039143 0.000000
# 6 0.000000 0.000000 0.000000 0.000000 0.000000 0.507012
#
#
# Mechanical properties :
#
#
# Convention : Reuss Voigt Hill
#
# Bulk Modulus (GPa) = 25.29179 36.70668 30.99923
# Shear Modulus (GPa) = 8.97966 15.29829 12.13898
#
# Velocity S-wave (km/s) = 2.09461 2.73398 2.43537
# Velocity P-wave (km/s) = 4.26700 5.28213 4.80147
#
# Compressibility (1/GPa) = 0.03953853
#
# Stress axis : x y z
#
# Youngs Moduli (GPa) = -205.65214 -205.65214 115.44030
#
# Poissons Ratio (x) = 5.80067 0.45631
# Poissons Ratio (y) = 5.80067 0.45631
# Poissons Ratio (z) = -0.81290 -0.81290
#
# Static dielectric constant tensor:
#      x y z
#    x 1.743300 0.000000 0.000000 
#    y 0.000000 1.743300 0.000000 
#    z 0.000000 0.000000 1.755960 
# 
# From -- ./inp_files/4512.got.cif
#   From: 2010.05.17/outbox.cif.g08.bks.cpg/sg122_3_cif.got.tgz:4512.got - 2010.05.20 11:37:33.
