data_PCOD9560831
_publ_section_title
;
Structure prediction by ZEFSAII (Michael W. Deem and Ramdas Pophale) SiO2 
 PCOD9560831
Probable space group: I -4 2 D
;
_chemical_formula_sum "Si O2"
_cell_formula_units_Z 64
_cell_length_a 14.809821
_cell_length_b 14.809821
_cell_length_c 16.361684
_cell_angle_alpha 90.000000
_cell_angle_beta 90.000000
_cell_angle_gamma 90.000000
_cell_volume 3588.621209
_symmetry_space_group_name_H-M "I -4 2 D"
_symmetry_group_IT_number 122
_symmetry_cell_setting 'tetragonal'
loop_
_space_group_symop_operation_xyz
x,y,z
y,-x,-z
-x,-y,z
-y,x,-z
x,1/2-y,1/4-z
-x,1/2+y,1/4-z
-y,1/2-x,1/4+z
y,1/2+x,1/4+z
1/2+x,1/2+y,1/2+z
1/2+y,1/2-x,1/2-z
1/2-x,1/2-y,1/2+z
1/2-y,1/2+x,1/2-z
1/2+x,-y,3/4-z
1/2-x,y,3/4-z
1/2-y,-x,3/4+z
1/2+y,x,3/4+z
loop_
_atom_site_type_symbol
_atom_site_label
_atom_site_fract_x
_atom_site_fract_y
_atom_site_fract_z
Si Si1 0.146651 0.016627 0.017887
Si Si2 0.500000 0.500000 0.803834
Si Si3 0.405208 0.750000 0.625000
Si Si4 0.561719 0.831815 0.939248
Si Si5 0.034867 0.373987 0.794139
O O1 0.170967 0.005200 0.111627
O O2 0.095922 0.926113 0.990388
O O3 0.224853 0.036261 0.954134
O O4 0.585962 0.468953 0.748537
O O5 0.527935 0.583501 0.864147
O O6 0.350908 0.838584 0.597147
O O7 0.559153 0.729591 0.970409
O O8 0.104843 0.438201 0.746618
#
# Coordination Sequence:
#
# PCOD9560831 Si02
#       5
#    16   8   8  16  16
#     4   9  18  33  51  74 107 143 176 219 276 336
#     4  10  21  38  59  82 112 150 186 236 297 344
#     4  10  20  32  50  82 112 140 184 230 276 340
#     4  11  20  34  58  82 110 147 189 236 290 343
#     4   9  22  40  57  80 109 147 194 237 286 351
#
# _framework density 17.834147000000002
#
# number of rings (size 3 to 8) (size 9 to 14) (size 15 to 20)
#    0.000    2.500    0.000    4.500    0.000    6.000 
#    0.000    2.500    0.000    0.000    0.000    0.000 
#    0.000    0.000    0.000    0.000    0.000    0.000 
#
# Total GULP energy -178193.235358 kJ/mol
# GULP energy per Si atom -5568.538605 kJ/mol
# Density = 1.779356 g / cm^3
# Si number density = 17.834147 Si / 1000 Ang^3
#
#
#
# Elastic Constant Matrix: (Units=GPa)
#
#
# Indices 1 2 3 4 5 6 
#
# 1 101.0067 36.3737 50.1841 0.0000 0.0000 0.0000
# 2 36.3737 101.0067 50.1841 0.0000 0.0000 0.0000
# 3 50.1841 50.1841 106.7201 0.0000 0.0000 0.0000
# 4 0.0000 0.0000 0.0000 18.5399 0.0000 0.0000
# 5 0.0000 0.0000 0.0000 0.0000 18.5399 0.0000
# 6 0.0000 0.0000 0.0000 0.0000 0.0000 45.5927
#
#
#
# Elastic Compliance Matrix: (Units=1/GPa)
#
#
# Indices 1 2 3 4 5 6 
#
# 1 0.013280 -0.002192 -0.005214 0.000000 0.000000 0.000000
# 2 -0.002192 0.013280 -0.005214 0.000000 0.000000 0.000000
# 3 -0.005214 -0.005214 0.014274 0.000000 0.000000 0.000000
# 4 0.000000 0.000000 0.000000 0.053938 0.000000 0.000000
# 5 0.000000 0.000000 0.000000 0.000000 0.053938 0.000000
# 6 0.000000 0.000000 0.000000 0.000000 0.000000 0.021933
#
#
# Mechanical properties :
#
#
# Convention : Reuss Voigt Hill
#
# Bulk Modulus (GPa) = 64.12643 64.69083 64.40863
# Shear Modulus (GPa) = 24.86547 28.00062 26.43304
#
# Velocity S-wave (km/s) = 3.73803 3.96669 3.85406
# Velocity P-wave (km/s) = 7.39362 7.57178 7.48323
#
# Compressibility (1/GPa) = 0.01559419
#
# Stress axis : x y z
#
# Youngs Moduli (GPa) = 75.29972 75.29972 70.05622
#
# Poissons Ratio (x) = 0.16504 0.36529
# Poissons Ratio (y) = 0.16504 0.36529
# Poissons Ratio (z) = 0.39263 0.39263
#
# Static dielectric constant tensor:
#      x y z
#    x 1.606000 0.000000 0.000000 
#    y 0.000000 1.606000 0.000000 
#    z 0.000000 0.000000 1.640610 
# 
# From -- ./inp_files/6076.got.cif
#   From: 2010.05.17/outbox.cif.g08.bks.cpg/sg122_4_cif.got.tgz:6076.got - 2010.05.20 11:37:33.
