data_PCOD9560263
_publ_section_title
;
Structure prediction by ZEFSAII (Michael W. Deem and Ramdas Pophale) SiO2 
 PCOD9560263
Probable space group: I -4 2 M
;
_chemical_formula_sum "Si O2"
_cell_formula_units_Z 128
_cell_length_a 21.027395
_cell_length_b 21.027395
_cell_length_c 17.858458
_cell_angle_alpha 90.000000
_cell_angle_beta 90.000000
_cell_angle_gamma 90.000000
_cell_volume 7896.141144
_symmetry_space_group_name_H-M "I -4 2 M"
_symmetry_group_IT_number 121
_symmetry_cell_setting 'tetragonal'
loop_
_space_group_symop_operation_xyz
x,y,z
y,-x,-z
-x,-y,z
-y,x,-z
x,-y,-z
-x,y,-z
-y,-x,z
y,x,z
1/2+x,1/2+y,1/2+z
1/2+y,1/2-x,1/2-z
1/2-x,1/2-y,1/2+z
1/2-y,1/2+x,1/2-z
1/2+x,1/2-y,1/2-z
1/2-x,1/2+y,1/2-z
1/2-y,1/2-x,1/2+z
1/2+y,1/2+x,1/2+z
loop_
_atom_site_type_symbol
_atom_site_label
_atom_site_fract_x
_atom_site_fract_y
_atom_site_fract_z
Si Si1 0.240964 0.987520 0.416219
Si Si2 0.375490 0.271531 0.841805
Si Si3 0.392421 0.034934 0.572180
Si Si4 0.067416 0.678903 0.957922
Si Si5 0.414119 0.960606 0.723122
Si Si6 0.249576 0.352337 0.124638
Si Si7 0.198961 0.698628 0.533063
Si Si8 0.380509 0.805647 0.302048
O O1 0.315746 0.970040 0.427858
O O2 0.220576 0.922684 0.375205
O O3 0.214864 0.000000 0.500000
O O4 0.229816 0.051257 0.368620
O O5 0.337034 0.337034 0.856098
O O6 0.369166 0.251906 0.755127
O O7 0.339937 0.218649 0.893370
O O8 0.418375 0.105928 0.566639
O O9 0.417963 0.000000 0.500000
O O10 0.408679 0.994925 0.644524
O O11 0.124191 0.698591 0.014567
O O12 0.080750 0.712896 0.877614
O O13 0.000000 0.685435 0.000000
O O14 0.479389 0.921863 0.721774
O O15 0.356458 0.919062 0.752079
O O16 0.300965 0.300965 0.149572
O O17 0.230967 0.336275 0.038274
O O18 0.185044 0.339292 0.171112
O O19 0.267837 0.732164 0.537234
#
# Coordination Sequence:
#
# PCOD9560263 Si02
#       8
#    16  16  16  16  16  16  16  16
#     4  11  18  33  56  80 106 138 184 225 277 344
#     4  11  22  36  58  84 109 142 190 246 294 338
#     4  11  21  34  49  71 102 150 186 227 268 328
#     4  11  23  37  52  80 110 152 201 234 285 341
#     4  11  22  33  45  69 106 149 189 224 272 310
#     4  10  19  35  56  78 104 143 188 229 281 339
#     4   9  18  36  57  77 105 145 188 238 284 329
#     4  11  22  36  51  75 109 149 193 239 274 329
#
# _framework density 16.210450000000002
#
# number of rings (size 3 to 8) (size 9 to 14) (size 15 to 20)
#    0.000    1.375    6.250    1.125    1.750    0.750 
#    0.000    0.000    0.000    0.375    0.000    0.875 
#    0.000    0.250    0.000    0.000    0.000    0.000 
#
# Total GULP energy -356708.303298 kJ/mol
# GULP energy per Si atom -5573.567239 kJ/mol
# Density = 1.617355 g / cm^3
# Si number density = 16.210450 Si / 1000 Ang^3
#
#
#
# Elastic Constant Matrix: (Units=GPa)
#
#
# Indices 1 2 3 4 5 6 
#
# 1 78.7143 42.3211 27.6915 0.0000 0.0000 0.0000
# 2 42.3211 78.7146 27.6912 0.0000 0.0000 0.0000
# 3 27.6915 27.6912 69.5797 0.0000 0.0000 0.0000
# 4 0.0000 0.0000 0.0000 18.5955 0.0000 0.0000
# 5 0.0000 0.0000 0.0000 0.0000 18.5955 0.0000
# 6 0.0000 0.0000 0.0000 0.0000 0.0000 41.4582
#
#
#
# Elastic Compliance Matrix: (Units=1/GPa)
#
#
# Indices 1 2 3 4 5 6 
#
# 1 0.018790 -0.008688 -0.004020 0.000000 0.000000 0.000000
# 2 -0.008688 0.018789 -0.004020 0.000000 0.000000 0.000000
# 3 -0.004020 -0.004020 0.017572 0.000000 0.000000 0.000000
# 4 0.000000 0.000000 0.000000 0.053776 0.000000 0.000000
# 5 0.000000 0.000000 0.000000 0.000000 0.053776 0.000000
# 6 0.000000 0.000000 0.000000 0.000000 0.000000 0.024121
#
#
# Mechanical properties :
#
#
# Convention : Reuss Voigt Hill
#
# Bulk Modulus (GPa) = 46.09528 46.93514 46.51521
# Shear Modulus (GPa) = 21.97678 24.35017 23.16348
#
# Velocity S-wave (km/s) = 3.68600 3.87993 3.78421
# Velocity P-wave (km/s) = 6.82735 7.00631 6.91741
#
# Compressibility (1/GPa) = 0.02169419
#
# Stress axis : x y z
#
# Youngs Moduli (GPa) = 53.22091 53.22128 56.90890
#
# Poissons Ratio (x) = 0.46238 0.22879
# Poissons Ratio (y) = 0.46238 0.22878
# Poissons Ratio (z) = 0.21396 0.21396
#
# Static dielectric constant tensor:
#      x y z
#    x 1.575870 0.000000 0.000000 
#    y 0.000000 1.575870 0.000000 
#    z 0.000000 0.000000 1.571630 
# 
# From -- ./inp_files/5648.got.cif
#   From: 2010.05.17/outbox.cif.g08.bks.cpg/sg121_3_cif.got.tgz:5648.got - 2010.05.20 11:32:06.
