data_PCOD9560442
_publ_section_title
;
Structure prediction by ZEFSAII (Michael W. Deem and Ramdas Pophale) SiO2 
 PCOD9560442
Probable space group: I -4 2 M
;
_chemical_formula_sum "Si O2"
_cell_formula_units_Z 80
_cell_length_a 28.416164
_cell_length_b 28.416164
_cell_length_c 4.995225
_cell_angle_alpha 90.000000
_cell_angle_beta 90.000000
_cell_angle_gamma 90.000000
_cell_volume 4033.536173
_symmetry_space_group_name_H-M "I -4 2 M"
_symmetry_group_IT_number 121
_symmetry_cell_setting 'tetragonal'
loop_
_space_group_symop_operation_xyz
x,y,z
y,-x,-z
-x,-y,z
-y,x,-z
x,-y,-z
-x,y,-z
-y,-x,z
y,x,z
1/2+x,1/2+y,1/2+z
1/2+y,1/2-x,1/2-z
1/2-x,1/2-y,1/2+z
1/2-y,1/2+x,1/2-z
1/2+x,1/2-y,1/2-z
1/2-x,1/2+y,1/2-z
1/2-y,1/2-x,1/2+z
1/2+y,1/2+x,1/2+z
loop_
_atom_site_type_symbol
_atom_site_label
_atom_site_fract_x
_atom_site_fract_y
_atom_site_fract_z
Si Si1 0.675313 0.868106 0.490647
Si Si2 0.500000 0.358511 0.500000
Si Si3 0.101477 0.554819 0.931243
Si Si4 0.325896 0.401767 0.677307
Si Si5 0.218207 0.142213 0.677222
Si Si6 0.923144 0.000000 0.500000
O O1 0.645170 0.833524 0.682960
O O2 0.651931 0.919183 0.539397
O O3 0.728501 0.861357 0.582708
O O4 0.544334 0.328816 0.401629
O O5 0.513927 0.391298 0.749493
O O6 0.081093 0.566635 0.639455
O O7 0.103666 0.500000 0.000000
O O8 0.376217 0.376217 0.635477
O O9 0.290278 0.374669 0.479517
O O10 0.310876 0.392254 0.980631
O O11 0.193290 0.193290 0.646356
O O12 0.956860 0.043141 0.578656
#
# Coordination Sequence:
#
# PCOD9560442 Si02
#       6
#    16   8  16  16  16   8
#     4  10  21  38  60  85 118 149 186 238 289 338
#     4  12  22  37  56  78 108 148 194 228 287 360
#     4  10  21  37  57  85 118 155 194 234 283 331
#     4  10  21  37  55  78 111 147 183 236 287 336
#     4  10  21  38  59  83 114 148 189 237 288 346
#     4  11  22  34  52  78 104 136 186 244 292 338
#
# _framework density 19.833714000000001
#
# number of rings (size 3 to 8) (size 9 to 14) (size 15 to 20)
#    0.000    1.700    0.000    4.800    0.000    4.400 
#    3.600    0.000    0.000    0.000    0.000    0.000 
#    0.000    0.000    0.000    0.000    0.000    0.000 
#
# Total GULP energy -223476.870575 kJ/mol
# GULP energy per Si atom -5586.921764 kJ/mol
# Density = 1.978857 g / cm^3
# Si number density = 19.833714 Si / 1000 Ang^3
#
#
#
# Elastic Constant Matrix: (Units=GPa)
#
#
# Indices 1 2 3 4 5 6 
#
# 1 97.0119 13.6881 -20.9287 0.0000 0.0000 0.0000
# 2 13.6881 97.0116 -20.9285 0.0000 0.0000 0.0000
# 3 -20.9287 -20.9285 57.1616 0.0000 0.0000 0.0000
# 4 0.0000 0.0000 0.0000 21.2580 0.0000 0.0000
# 5 0.0000 0.0000 0.0000 0.0000 21.2581 0.0000
# 6 0.0000 0.0000 0.0000 0.0000 0.0000 6.2707
#
#
#
# Elastic Compliance Matrix: (Units=1/GPa)
#
#
# Indices 1 2 3 4 5 6 
#
# 1 0.011243 -0.000758 0.003839 0.000000 0.000000 0.000000
# 2 -0.000758 0.011243 0.003839 0.000000 0.000000 0.000000
# 3 0.003839 0.003839 0.020305 0.000000 0.000000 0.000000
# 4 0.000000 0.000000 0.000000 0.047041 0.000000 0.000000
# 5 0.000000 0.000000 0.000000 0.000000 0.047041 0.000000
# 6 0.000000 0.000000 0.000000 0.000000 0.000000 0.159472
#
#
# Mechanical properties :
#
#
# Convention : Reuss Voigt Hill
#
# Bulk Modulus (GPa) = 17.65827 21.64965 19.65396
# Shear Modulus (GPa) = 16.59018 28.38097 22.48557
#
# Velocity S-wave (km/s) = 2.89531 3.78689 3.37071
# Velocity P-wave (km/s) = 4.48325 5.48270 5.00797
#
# Compressibility (1/GPa) = 0.05663070
#
# Stress axis : x y z
#
# Youngs Moduli (GPa) = 88.94289 88.94268 49.24823
#
# Poissons Ratio (x) = 0.06744 -0.18906
# Poissons Ratio (y) = 0.06744 -0.18906
# Poissons Ratio (z) = -0.34144 -0.34144
#
# Static dielectric constant tensor:
#      x y z
#    x 1.686880 0.000000 0.000000 
#    y 0.000000 1.686880 0.000000 
#    z 0.000000 0.000000 1.677930 
# 
# From -- ./inp_files/597.got.cif
#   From: 2010.05.17/outbox.cif.g08.bks.cpg/sg121_1_cif.got.tgz:597.got - 2010.05.20 11:32:06.
