data_PCOD9560388
_publ_section_title
;
Structure prediction by ZEFSAII (Michael W. Deem and Ramdas Pophale) SiO2 
 PCOD9560388
Probable space group: I -4 2 M
;
_chemical_formula_sum "Si O2"
_cell_formula_units_Z 64
_cell_length_a 19.482309
_cell_length_b 19.482309
_cell_length_c 8.532016
_cell_angle_alpha 90.000000
_cell_angle_beta 90.000000
_cell_angle_gamma 90.000000
_cell_volume 3238.415098
_symmetry_space_group_name_H-M "I -4 2 M"
_symmetry_group_IT_number 121
_symmetry_cell_setting 'tetragonal'
loop_
_space_group_symop_operation_xyz
x,y,z
y,-x,-z
-x,-y,z
-y,x,-z
x,-y,-z
-x,y,-z
-y,-x,z
y,x,z
1/2+x,1/2+y,1/2+z
1/2+y,1/2-x,1/2-z
1/2-x,1/2-y,1/2+z
1/2-y,1/2+x,1/2-z
1/2+x,1/2-y,1/2-z
1/2-x,1/2+y,1/2-z
1/2-y,1/2-x,1/2+z
1/2+y,1/2+x,1/2+z
loop_
_atom_site_type_symbol
_atom_site_label
_atom_site_fract_x
_atom_site_fract_y
_atom_site_fract_z
Si Si1 0.823145 0.823145 0.722611
Si Si2 0.773696 0.773696 0.059174
Si Si3 0.075846 0.376973 0.505764
Si Si4 0.588546 0.797474 0.679179
Si Si5 0.965644 0.239504 0.333296
O O1 0.784405 0.784405 0.580263
O O2 0.807558 0.903149 0.714324
O O3 0.791076 0.791076 0.880081
O O4 0.842640 0.743700 0.138048
O O5 0.141125 0.420431 0.555165
O O6 0.092420 0.337493 0.345201
O O7 0.065412 0.315508 0.632075
O O8 0.000000 0.410693 0.500000
O O9 0.524133 0.747834 0.703507
O O10 0.000000 0.219059 0.500000
#
# Coordination Sequence:
#
# PCOD9560388 Si02
#       5
#     8   8  16  16  16
#     4  12  24  40  62 102 125 175 218 270 329 385
#     4  12  24  34  68  94 127 165 226 282 323 383
#     4   9  19  36  58  86 121 166 211 257 320 398
#     4  10  20  38  59  92 124 166 209 271 326 378
#     4   9  22  38  63  91 132 163 211 269 322 392
#
# _framework density 19.762754000000001
#
# number of rings (size 3 to 8) (size 9 to 14) (size 15 to 20)
#    0.000    2.500    2.500    1.500    3.500    1.000 
#    4.500    0.000    0.000   44.625    0.000    3.500 
#    0.000    0.000    0.000    0.000    0.000    0.000 
#
# Total GULP energy -178702.168189 kJ/mol
# GULP energy per Si atom -5584.442756 kJ/mol
# Density = 1.971777 g / cm^3
# Si number density = 19.762754 Si / 1000 Ang^3
#
#
#
# Elastic Constant Matrix: (Units=GPa)
#
#
# Indices 1 2 3 4 5 6 
#
# 1 114.9832 70.5287 31.0306 0.0000 0.0000 0.0000
# 2 70.5287 114.9832 31.0306 0.0000 0.0000 0.0000
# 3 31.0306 31.0306 54.9627 0.0000 0.0000 0.0000
# 4 0.0000 0.0000 0.0000 22.6031 0.0000 0.0000
# 5 0.0000 0.0000 0.0000 0.0000 22.6031 0.0000
# 6 0.0000 0.0000 0.0000 0.0000 0.0000 24.1084
#
#
#
# Elastic Compliance Matrix: (Units=1/GPa)
#
#
# Indices 1 2 3 4 5 6 
#
# 1 0.014570 -0.007925 -0.003752 0.000000 0.000000 0.000000
# 2 -0.007925 0.014570 -0.003752 0.000000 0.000000 0.000000
# 3 -0.003752 -0.003752 0.022431 0.000000 0.000000 0.000000
# 4 0.000000 0.000000 0.000000 0.044242 0.000000 0.000000
# 5 0.000000 0.000000 0.000000 0.000000 0.044242 0.000000
# 6 0.000000 0.000000 0.000000 0.000000 0.000000 0.041479
#
#
# Mechanical properties :
#
#
# Convention : Reuss Voigt Hill
#
# Bulk Modulus (GPa) = 48.27625 61.12323 54.69974
# Shear Modulus (GPa) = 22.80024 24.01887 23.40956
#
# Velocity S-wave (km/s) = 3.40030 3.48998 3.44543
# Velocity P-wave (km/s) = 6.31640 6.87282 6.60048
#
# Compressibility (1/GPa) = 0.02071412
#
# Stress axis : x y z
#
# Youngs Moduli (GPa) = 68.63283 68.63283 44.58171
#
# Poissons Ratio (x) = 0.54389 0.16727
# Poissons Ratio (y) = 0.54389 0.16727
# Poissons Ratio (z) = 0.25751 0.25751
#
# Static dielectric constant tensor:
#      x y z
#    x 1.705890 0.000000 0.000000 
#    y 0.000000 1.705890 0.000000 
#    z 0.000000 0.000000 1.746250 
# 
# From -- ./inp_files/1632.got.cif
#   From: 2010.05.17/outbox.cif.g08.bks.cpg/sg121_1_cif.got.tgz:1632.got - 2010.05.20 11:32:06.
