data_PCOD9560423
_publ_section_title
;
Structure prediction by ZEFSAII (Michael W. Deem and Ramdas Pophale) SiO2 
 PCOD9560423
Probable space group: I -4 2 M
;
_chemical_formula_sum "Si O2"
_cell_formula_units_Z 64
_cell_length_a 12.896073
_cell_length_b 12.896073
_cell_length_c 20.774235
_cell_angle_alpha 90.000000
_cell_angle_beta 90.000000
_cell_angle_gamma 90.000000
_cell_volume 3454.935992
_symmetry_space_group_name_H-M "I -4 2 M"
_symmetry_group_IT_number 121
_symmetry_cell_setting 'tetragonal'
loop_
_space_group_symop_operation_xyz
x,y,z
y,-x,-z
-x,-y,z
-y,x,-z
x,-y,-z
-x,y,-z
-y,-x,z
y,x,z
1/2+x,1/2+y,1/2+z
1/2+y,1/2-x,1/2-z
1/2-x,1/2-y,1/2+z
1/2-y,1/2+x,1/2-z
1/2+x,1/2-y,1/2-z
1/2-x,1/2+y,1/2-z
1/2-y,1/2-x,1/2+z
1/2+y,1/2+x,1/2+z
loop_
_atom_site_type_symbol
_atom_site_label
_atom_site_fract_x
_atom_site_fract_y
_atom_site_fract_z
Si Si1 0.998325 0.168325 0.366637
Si Si2 0.468572 0.114065 0.074433
Si Si3 0.581724 0.746921 0.262790
Si Si4 0.883961 0.710895 0.163641
O O1 0.890653 0.109348 0.386780
O O2 0.016768 0.281511 0.395672
O O3 0.985972 0.184549 0.290240
O O4 0.090457 0.090457 0.382052
O O5 0.348995 0.126383 0.096062
O O6 0.500000 0.000000 0.100517
O O7 0.500000 0.114308 0.000000
O O8 0.673287 0.673287 0.286535
O O9 0.636008 0.836063 0.219680
O O10 0.503409 0.776542 0.318312
O O11 0.814659 0.814659 0.164090
#
# Coordination Sequence:
#
# PCOD9560423 Si02
#       4
#    16  16  16  16
#     4   9  18  34  58  86 113 143 183 236 298 355
#     4  10  22  38  53  75 110 151 195 239 282 332
#     4   9  19  33  53  85 122 154 184 228 287 349
#     4  10  21  35  56  86 118 152 189 232 287 347
#
# _framework density 18.524222000000002
#
# number of rings (size 3 to 8) (size 9 to 14) (size 15 to 20)
#    0.000    2.500    0.000    3.000    7.000    3.500 
#    0.000    1.250    0.000    3.000    0.000    0.000 
#    0.000    0.000    0.000    0.000    0.000    0.000 
#
# Total GULP energy -178167.544167 kJ/mol
# GULP energy per Si atom -5567.735755 kJ/mol
# Density = 1.848206 g / cm^3
# Si number density = 18.524222 Si / 1000 Ang^3
#
#
#
# Elastic Constant Matrix: (Units=GPa)
#
#
# Indices 1 2 3 4 5 6 
#
# 1 84.6167 17.3553 15.5508 0.0000 0.0000 0.0000
# 2 17.3553 84.6158 15.5509 0.0000 0.0000 0.0000
# 3 15.5508 15.5509 45.8751 0.0000 0.0000 0.0000
# 4 0.0000 0.0000 0.0000 22.7628 0.0000 0.0000
# 5 0.0000 0.0000 0.0000 0.0000 22.7626 0.0000
# 6 0.0000 0.0000 0.0000 0.0000 0.0000 13.5445
#
#
#
# Elastic Compliance Matrix: (Units=1/GPa)
#
#
# Indices 1 2 3 4 5 6 
#
# 1 0.012902 -0.001965 -0.003708 0.000000 0.000000 0.000000
# 2 -0.001965 0.012903 -0.003708 0.000000 0.000000 0.000000
# 3 -0.003708 -0.003708 0.024312 0.000000 0.000000 0.000000
# 4 0.000000 0.000000 0.000000 0.043931 0.000000 0.000000
# 5 0.000000 0.000000 0.000000 0.000000 0.043932 0.000000
# 6 0.000000 0.000000 0.000000 0.000000 0.000000 0.073831
#
#
# Mechanical properties :
#
#
# Convention : Reuss Voigt Hill
#
# Bulk Modulus (GPa) = 31.89136 34.66907 33.28022
# Shear Modulus (GPa) = 20.74488 22.92401 21.83444
#
# Velocity S-wave (km/s) = 3.35009 3.52165 3.43694
# Velocity P-wave (km/s) = 5.67605 5.94072 5.80989
#
# Compressibility (1/GPa) = 0.03135646
#
# Stress axis : x y z
#
# Youngs Moduli (GPa) = 77.50490 77.50399 41.13199
#
# Poissons Ratio (x) = 0.15229 0.15250
# Poissons Ratio (y) = 0.15230 0.15250
# Poissons Ratio (z) = 0.28736 0.28736
#
# Static dielectric constant tensor:
#      x y z
#    x 1.689300 0.000000 0.000000 
#    y 0.000000 1.689310 0.000000 
#    z 0.000000 0.000000 1.652050 
# 
# From -- ./inp_files/6020.got.cif
#   From: 2010.05.17/outbox.cif.g08.bks.cpg/sg121_4_cif.got.tgz:6020.got - 2010.05.20 11:32:06.
