data_PCOD9560778
_publ_section_title
;
Structure prediction by ZEFSAII (Michael W. Deem and Ramdas Pophale) SiO2 
 PCOD9560778
Probable space group: I -4 2 D
;
_chemical_formula_sum "Si O2"
_cell_formula_units_Z 80
_cell_length_a 16.952774
_cell_length_b 16.952774
_cell_length_c 12.399840
_cell_angle_alpha 90.000000
_cell_angle_beta 90.000000
_cell_angle_gamma 90.000000
_cell_volume 3563.671191
_symmetry_space_group_name_H-M "I -4 2 D"
_symmetry_group_IT_number 122
_symmetry_cell_setting 'tetragonal'
loop_
_space_group_symop_operation_xyz
x,y,z
y,-x,-z
-x,-y,z
-y,x,-z
x,1/2-y,1/4-z
-x,1/2+y,1/4-z
-y,1/2-x,1/4+z
y,1/2+x,1/4+z
1/2+x,1/2+y,1/2+z
1/2+y,1/2-x,1/2-z
1/2-x,1/2-y,1/2+z
1/2-y,1/2+x,1/2-z
1/2+x,-y,3/4-z
1/2-x,y,3/4-z
1/2-y,-x,3/4+z
1/2+y,x,3/4+z
loop_
_atom_site_type_symbol
_atom_site_label
_atom_site_fract_x
_atom_site_fract_y
_atom_site_fract_z
Si Si1 0.250000 0.865986 0.875000
Si Si2 0.039705 0.396264 0.191247
Si Si3 0.366483 0.188567 0.400104
Si Si4 0.411797 0.013948 0.053334
Si Si5 0.697286 0.400204 0.778528
Si Si6 0.556286 0.250000 0.125000
O O1 0.312746 0.919838 0.812756
O O2 0.202814 0.831684 0.771408
O O3 0.098305 0.464078 0.232016
O O4 0.011954 0.415550 0.071455
O O5 0.455682 0.154825 0.401560
O O6 0.364845 0.268209 0.330867
O O7 0.319243 0.116493 0.345603
O O8 0.390221 0.105700 0.052851
O O9 0.500000 0.000000 0.100249
O O10 0.716415 0.494538 0.786664
O O11 0.750000 0.365225 0.875000
#
# Coordination Sequence:
#
# PCOD9560778 Si02
#       6
#     8  16  16  16  16   8
#     4  10  24  38  60 102 130 172 220 278 344 410
#     4  10  19  34  64  89 125 169 216 274 323 388
#     4  11  24  43  67 100 139 175 229 284 350 408
#     4  11  19  39  66  96 125 177 229 272 336 406
#     4  10  24  41  66 100 134 178 228 278 339 414
#     4  10  24  44  66 100 140 176 220 288 344 406
#
# _framework density 22.448758999999999
#
# number of rings (size 3 to 8) (size 9 to 14) (size 15 to 20)
#    0.600    1.000    4.000    1.200    2.800    0.000 
#    1.800    9.000    0.000    0.000    0.000    0.000 
#    0.000    0.000    0.000    0.000    0.000    0.000 
#
# Total GULP energy -223107.907200 kJ/mol
# GULP energy per Si atom -5577.697680 kJ/mol
# Density = 2.239767 g / cm^3
# Si number density = 22.448759 Si / 1000 Ang^3
#
#
#
# Elastic Constant Matrix: (Units=GPa)
#
#
# Indices 1 2 3 4 5 6 
#
# 1 14.9767 43.9801 19.6817 0.0000 0.0000 0.0000
# 2 43.9801 14.9767 19.6817 0.0000 0.0000 0.0000
# 3 19.6817 19.6817 48.7415 0.0000 0.0000 0.0000
# 4 0.0000 0.0000 0.0000 14.1397 0.0000 0.0000
# 5 0.0000 0.0000 0.0000 0.0000 14.1397 0.0000
# 6 0.0000 0.0000 0.0000 0.0000 0.0000 35.9801
#
#
#
# Elastic Compliance Matrix: (Units=1/GPa)
#
#
# Indices 1 2 3 4 5 6 
#
# 1 -0.005628 0.028851 -0.009377 0.000000 0.000000 0.000000
# 2 0.028851 -0.005628 -0.009377 0.000000 0.000000 0.000000
# 3 -0.009377 -0.009377 0.028089 0.000000 0.000000 0.000000
# 4 0.000000 0.000000 0.000000 0.070723 0.000000 0.000000
# 5 0.000000 0.000000 0.000000 0.000000 0.070723 0.000000
# 6 0.000000 0.000000 0.000000 0.000000 0.000000 0.027793
#
#
# Mechanical properties :
#
#
# Convention : Reuss Voigt Hill
#
# Bulk Modulus (GPa) = 27.00842 27.26466 27.13654
# Shear Modulus (GPa) = 28.05506 12.54200 20.29853
#
# Velocity S-wave (km/s) = 3.53900 2.36624 3.01028
# Velocity P-wave (km/s) = 5.36252 4.43138 4.91903
#
# Compressibility (1/GPa) = 0.03702549
#
# Stress axis : x y z
#
# Youngs Moduli (GPa) = -177.67662 -177.67662 35.60071
#
# Poissons Ratio (x) = 5.12607 0.33383
# Poissons Ratio (y) = 5.12607 0.33383
# Poissons Ratio (z) = -1.66610 -1.66610
#
# Static dielectric constant tensor:
#      x y z
#    x 1.898090 0.000000 0.000000 
#    y 0.000000 1.898090 0.000000 
#    z 0.000000 0.000000 1.463450 
# 
# From -- ./inp_files/5334.got.cif
#   From: 2010.05.17/outbox.cif.g08.bks.cpg/sg122_3_cif.got.tgz:5334.got - 2010.05.20 11:37:33.
