data_PCOD9560647
_publ_section_title
;
Structure prediction by ZEFSAII (Michael W. Deem and Ramdas Pophale) SiO2 
 PCOD9560647
Probable space group: I -4 2 M
;
_chemical_formula_sum "Si O2"
_cell_formula_units_Z 40
_cell_length_a 13.371944
_cell_length_b 13.371944
_cell_length_c 8.788836
_cell_angle_alpha 90.000000
_cell_angle_beta 90.000000
_cell_angle_gamma 90.000000
_cell_volume 1571.521977
_symmetry_space_group_name_H-M "I -4 2 M"
_symmetry_group_IT_number 121
_symmetry_cell_setting 'tetragonal'
loop_
_space_group_symop_operation_xyz
x,y,z
y,-x,-z
-x,-y,z
-y,x,-z
x,-y,-z
-x,y,-z
-y,-x,z
y,x,z
1/2+x,1/2+y,1/2+z
1/2+y,1/2-x,1/2-z
1/2-x,1/2-y,1/2+z
1/2-y,1/2+x,1/2-z
1/2+x,1/2-y,1/2-z
1/2-x,1/2+y,1/2-z
1/2-y,1/2-x,1/2+z
1/2+y,1/2+x,1/2+z
loop_
_atom_site_type_symbol
_atom_site_label
_atom_site_fract_x
_atom_site_fract_y
_atom_site_fract_z
Si Si1 0.730654 0.500000 0.000000
Si Si2 0.200289 0.799712 0.935155
Si Si3 0.568331 0.155399 0.246212
Si Si4 0.354596 0.645405 0.782088
O O1 0.801036 0.417299 0.077153
O O2 0.668828 0.538430 0.143225
O O3 0.103906 0.742392 0.860176
O O4 0.281284 0.718717 0.874851
O O5 0.168326 0.831675 0.106304
O O6 0.450420 0.126483 0.251027
#
# Coordination Sequence:
#
# PCOD9560647 Si02
#       4
#     8   8  16   8
#     4  12  26  48  78 118 164 212 274 351 411 488
#     4  12  26  54  75 117 172 225 269 337 435 490
#     4  11  26  46  81 126 163 214 278 348 417 495
#     4  12  28  49  79 111 164 222 273 337 413 503
#
# _framework density 25.453030999999999
#
# number of rings (size 3 to 8) (size 9 to 14) (size 15 to 20)
#    0.000    0.400    4.000    3.600    0.000    8.400 
#    0.000    0.000    0.000    6.000    0.000    0.000 
#    0.000    0.000    0.000    0.000    0.000    0.000 
#
# Total GULP energy -111465.794021 kJ/mol
# GULP energy per Si atom -5573.289701 kJ/mol
# Density = 2.539510 g / cm^3
# Si number density = 25.453031 Si / 1000 Ang^3
#
#
#
# Elastic Constant Matrix: (Units=GPa)
#
#
# Indices 1 2 3 4 5 6 
#
# 1 110.1192 70.9700 101.7280 0.0000 0.0000 0.0000
# 2 70.9700 110.1202 101.7281 0.0000 0.0000 0.0000
# 3 101.7280 101.7281 254.8692 0.0000 0.0000 0.0000
# 4 0.0000 0.0000 0.0000 47.5846 0.0000 0.0000
# 5 0.0000 0.0000 0.0000 0.0000 47.5844 0.0000
# 6 0.0000 0.0000 0.0000 0.0000 0.0000 44.2401
#
#
#
# Elastic Compliance Matrix: (Units=1/GPa)
#
#
# Indices 1 2 3 4 5 6 
#
# 1 0.017777 -0.007766 -0.003996 0.000000 0.000000 0.000000
# 2 -0.007766 0.017777 -0.003996 0.000000 0.000000 0.000000
# 3 -0.003996 -0.003996 0.007114 0.000000 0.000000 0.000000
# 4 0.000000 0.000000 0.000000 0.021015 0.000000 0.000000
# 5 0.000000 0.000000 0.000000 0.000000 0.021015 0.000000
# 6 0.000000 0.000000 0.000000 0.000000 0.000000 0.022604
#
#
# Mechanical properties :
#
#
# Convention : Reuss Voigt Hill
#
# Bulk Modulus (GPa) = 89.66385 113.77343 101.71864
# Shear Modulus (GPa) = 35.07891 41.26065 38.16978
#
# Velocity S-wave (km/s) = 3.71641 4.03060 3.87669
# Velocity P-wave (km/s) = 7.32935 8.15214 7.75167
#
# Compressibility (1/GPa) = 0.01115277
#
# Stress axis : x y z
#
# Youngs Moduli (GPa) = 56.25094 56.25171 140.57662
#
# Poissons Ratio (x) = 0.43683 0.56176
# Poissons Ratio (y) = 0.43682 0.56175
# Poissons Ratio (z) = 0.22479 0.22478
#
# Static dielectric constant tensor:
#      x y z
#    x 2.217370 0.000000 0.000000 
#    y 0.000000 2.217370 0.000000 
#    z 0.000000 0.000000 1.982430 
# 
# From -- ./inp_files/1043.got.cif
#   From: 2010.05.17/outbox.cif.g08.bks.cpg/sg121_1_cif.got.tgz:1043.got - 2010.05.20 11:32:06.
