data_PCOD9560726
_publ_section_title
;
Structure prediction by ZEFSAII (Michael W. Deem and Ramdas Pophale) SiO2 
 PCOD9560726
Probable space group: I -4 2 D
;
_chemical_formula_sum "Si O2"
_cell_formula_units_Z 72
_cell_length_a 13.371913
_cell_length_b 13.371913
_cell_length_c 18.894287
_cell_angle_alpha 90.000000
_cell_angle_beta 90.000000
_cell_angle_gamma 90.000000
_cell_volume 3378.450752
_symmetry_space_group_name_H-M "I -4 2 D"
_symmetry_group_IT_number 122
_symmetry_cell_setting 'tetragonal'
loop_
_space_group_symop_operation_xyz
x,y,z
y,-x,-z
-x,-y,z
-y,x,-z
x,1/2-y,1/4-z
-x,1/2+y,1/4-z
-y,1/2-x,1/4+z
y,1/2+x,1/4+z
1/2+x,1/2+y,1/2+z
1/2+y,1/2-x,1/2-z
1/2-x,1/2-y,1/2+z
1/2-y,1/2+x,1/2-z
1/2+x,-y,3/4-z
1/2-x,y,3/4-z
1/2-y,-x,3/4+z
1/2+y,x,3/4+z
loop_
_atom_site_type_symbol
_atom_site_label
_atom_site_fract_x
_atom_site_fract_y
_atom_site_fract_z
Si Si1 0.369928 0.680392 0.366607
Si Si2 0.145619 0.126925 0.728013
Si Si3 0.500000 0.000000 0.574305
Si Si4 0.008739 0.117672 0.603020
Si Si5 0.842659 0.177665 0.511897
O O1 0.250000 0.659645 0.375000
O O2 0.401064 0.761659 0.426588
O O3 0.443693 0.586570 0.367858
O O4 0.377287 0.731851 0.288879
O O5 0.062031 0.162135 0.671438
O O6 0.180112 0.223912 0.771245
O O7 0.089142 0.047143 0.776327
O O8 0.080320 0.131399 0.535582
O O9 0.902182 0.160914 0.583096
O O10 0.000000 0.000000 0.617221
#
# Coordination Sequence:
#
# PCOD9560726 Si02
#       5
#    16  16   8  16  16
#     4   9  22  42  59  86 124 155 202 257 304 354
#     4  10  23  35  55  92 123 152 203 249 290 360
#     4  12  22  38  68  86 114 170 208 240 302 368
#     4  11  17  29  50  84 121 151 186 230 291 355
#     4  10  18  34  55  79 120 162 181 242 310 346
#
# _framework density 21.311541999999999
#
# number of rings (size 3 to 8) (size 9 to 14) (size 15 to 20)
#    0.000    1.778    3.333    3.333    3.111    0.000 
#    0.000    4.444    0.000    2.667    0.000    0.000 
#    0.000    0.000    0.000    0.000    0.000    0.000 
#
# Total GULP energy -201067.816789 kJ/mol
# GULP energy per Si atom -5585.217133 kJ/mol
# Density = 2.126304 g / cm^3
# Si number density = 21.311542 Si / 1000 Ang^3
#
#
#
# Elastic Constant Matrix: (Units=GPa)
#
#
# Indices 1 2 3 4 5 6 
#
# 1 110.4653 66.6330 38.1711 0.0000 0.0000 0.0000
# 2 66.6330 110.4653 38.1711 0.0000 0.0000 0.0000
# 3 38.1711 38.1711 46.1696 0.0000 0.0000 0.0000
# 4 0.0000 0.0000 0.0000 17.3891 0.0000 0.0000
# 5 0.0000 0.0000 0.0000 0.0000 17.3891 0.0000
# 6 0.0000 0.0000 0.0000 0.0000 0.0000 42.4676
#
#
#
# Elastic Compliance Matrix: (Units=1/GPa)
#
#
# Indices 1 2 3 4 5 6 
#
# 1 0.015794 -0.007020 -0.007253 0.000000 0.000000 0.000000
# 2 -0.007020 0.015794 -0.007253 0.000000 0.000000 0.000000
# 3 -0.007253 -0.007253 0.033653 0.000000 0.000000 0.000000
# 4 0.000000 0.000000 0.000000 0.057507 0.000000 0.000000
# 5 0.000000 0.000000 0.000000 0.000000 0.057507 0.000000
# 6 0.000000 0.000000 0.000000 0.000000 0.000000 0.023547
#
#
# Mechanical properties :
#
#
# Convention : Reuss Voigt Hill
#
# Bulk Modulus (GPa) = 45.07367 61.45007 53.26187
# Shear Modulus (GPa) = 19.66549 23.72415 21.69482
#
# Velocity S-wave (km/s) = 3.04100 3.34009 3.19405
# Velocity P-wave (km/s) = 5.79016 6.61602 6.21682
#
# Compressibility (1/GPa) = 0.02218590
#
# Stress axis : x y z
#
# Youngs Moduli (GPa) = 63.31600 63.31600 29.71501
#
# Poissons Ratio (x) = 0.44451 0.21554
# Poissons Ratio (y) = 0.44451 0.21554
# Poissons Ratio (z) = 0.45926 0.45926
#
# Static dielectric constant tensor:
#      x y z
#    x 1.827410 0.000000 0.000000 
#    y 0.000000 1.827410 0.000000 
#    z 0.000000 0.000000 1.750660 
# 
# From -- ./inp_files/6138.got.cif
#   From: 2010.05.17/outbox.cif.g08.bks.cpg/sg122_4_cif.got.tgz:6138.got - 2010.05.20 11:37:33.
