data_PCOD9560617
_publ_section_title
;
Structure prediction by ZEFSAII (Michael W. Deem and Ramdas Pophale) SiO2 
 PCOD9560617
Probable space group: I -4 2 M
;
_chemical_formula_sum "Si O2"
_cell_formula_units_Z 58
_cell_length_a 10.561480
_cell_length_b 10.561480
_cell_length_c 24.177668
_cell_angle_alpha 90.000000
_cell_angle_beta 90.000000
_cell_angle_gamma 90.000000
_cell_volume 2696.894587
_symmetry_space_group_name_H-M "I -4 2 M"
_symmetry_group_IT_number 121
_symmetry_cell_setting 'tetragonal'
loop_
_space_group_symop_operation_xyz
x,y,z
y,-x,-z
-x,-y,z
-y,x,-z
x,-y,-z
-x,y,-z
-y,-x,z
y,x,z
1/2+x,1/2+y,1/2+z
1/2+y,1/2-x,1/2-z
1/2-x,1/2-y,1/2+z
1/2-y,1/2+x,1/2-z
1/2+x,1/2-y,1/2-z
1/2-x,1/2+y,1/2-z
1/2-y,1/2-x,1/2+z
1/2+y,1/2+x,1/2+z
loop_
_atom_site_type_symbol
_atom_site_label
_atom_site_fract_x
_atom_site_fract_y
_atom_site_fract_z
Si Si1 0.294661 0.294661 0.543741
Si Si2 0.705292 0.023459 0.759346
Si Si3 0.652158 0.977880 0.118778
Si Si4 0.500000 0.500000 0.500000
Si Si5 0.252108 0.252108 0.419969
Si Si6 0.096658 0.096658 0.329872
O O1 0.183472 0.362749 0.578034
O O2 0.403461 0.403461 0.531842
O O3 0.242284 0.242284 0.485922
O O4 0.608951 0.133013 0.741572
O O5 0.726694 0.047238 0.823879
O O6 0.811292 0.024978 0.713105
O O7 0.500000 0.000000 0.128048
O O8 0.712907 0.104452 0.093893
O O9 0.169055 0.169055 0.378010
O O10 0.000000 0.000000 0.356060
#
# Coordination Sequence:
#
# PCOD9560617 Si02
#       6
#     8  16  16   2   8   8
#     4  12  25  44  77 105 137 196 244 296 358 426
#     4  11  22  45  70 103 140 181 226 288 357 427
#     4  12  24  46  74 106 143 187 238 299 365 424
#     4  12  20  48  68 108 140 168 256 312 348 402
#     4  12  24  46  71  98 148 185 231 305 349 415
#     4  12  27  41  71 107 143 190 230 286 364 445
#
# _framework density 21.506216999999999
#
# number of rings (size 3 to 8) (size 9 to 14) (size 15 to 20)
#    0.000    0.276    8.276    0.828    3.862    2.207 
#    9.931    0.000    3.034    0.000    0.000    0.000 
#    0.000    0.000    0.000    0.000    0.000    0.000 
#
# Total GULP energy -162040.693087 kJ/mol
# GULP energy per Si atom -5587.610106 kJ/mol
# Density = 2.145727 g / cm^3
# Si number density = 21.506217 Si / 1000 Ang^3
#
#
#
# Elastic Constant Matrix: (Units=GPa)
#
#
# Indices 1 2 3 4 5 6 
#
# 1 61.2992 30.5968 27.2654 0.0000 0.0000 0.0000
# 2 30.5968 61.2992 27.2654 0.0000 0.0000 0.0000
# 3 27.2654 27.2654 180.3435 0.0000 0.0000 0.0000
# 4 0.0000 0.0000 0.0000 5.1264 0.0000 0.0000
# 5 0.0000 0.0000 0.0000 0.0000 5.1264 0.0000
# 6 0.0000 0.0000 0.0000 0.0000 0.0000-1468.7523
#
#
#
# Elastic Compliance Matrix: (Units=1/GPa)
#
#
# Indices 1 2 3 4 5 6 
#
# 1 0.022263 -0.010308 -0.001807 0.000000 0.000000 0.000000
# 2 -0.010308 0.022263 -0.001807 0.000000 0.000000 0.000000
# 3 -0.001807 -0.001807 0.006091 0.000000 0.000000 0.000000
# 4 0.000000 0.000000 0.000000 0.195068 0.000000 0.000000
# 5 0.000000 0.000000 0.000000 0.000000 0.195068 0.000000
# 6 0.000000 0.000000 0.000000 0.000000 0.000000 -0.000681
#
#
# Mechanical properties :
#
#
# Convention : Reuss Voigt Hill
#
# Bulk Modulus (GPa) = 43.91587 52.57744 48.24666
# Shear Modulus (GPa) = 10.51507 -277.17894 -133.33193
#
# Velocity S-wave (km/s) = 2.21358 -11.36499 -7.88235
# Velocity P-wave (km/s) = 5.19593 12.15387 7.76914
#
# Compressibility (1/GPa) = 0.02277081
#
# Stress axis : x y z
#
# Youngs Moduli (GPa) = 44.91854 44.91854 164.16430
#
# Poissons Ratio (x) = 0.46303 0.29670
# Poissons Ratio (y) = 0.46303 0.29670
# Poissons Ratio (z) = 0.08118 0.08118
#
# Static dielectric constant tensor:
#      x y z
#    x 1.851370 0.000000 0.000000 
#    y 0.000000 1.851370 0.000000 
#    z 0.000000 0.000000 4.500900 
# 
# From -- ./inp_files/6077.got.cif
#   From: 2010.05.17/outbox.cif.g08.bks.cpg/sg121_4_cif.got.tgz:6077.got - 2010.05.20 11:32:06.
