data_PCOD9560588
_publ_section_title
;
Structure prediction by ZEFSAII (Michael W. Deem and Ramdas Pophale) SiO2 
 PCOD9560588
Probable space group: I -4 2 M
;
_chemical_formula_sum "Si O2"
_cell_formula_units_Z 108
_cell_length_a 16.333036
_cell_length_b 16.333036
_cell_length_c 22.884178
_cell_angle_alpha 90.000000
_cell_angle_beta 90.000000
_cell_angle_gamma 90.000000
_cell_volume 6104.767884
_symmetry_space_group_name_H-M "I -4 2 M"
_symmetry_group_IT_number 121
_symmetry_cell_setting 'tetragonal'
loop_
_space_group_symop_operation_xyz
x,y,z
y,-x,-z
-x,-y,z
-y,x,-z
x,-y,-z
-x,y,-z
-y,-x,z
y,x,z
1/2+x,1/2+y,1/2+z
1/2+y,1/2-x,1/2-z
1/2-x,1/2-y,1/2+z
1/2-y,1/2+x,1/2-z
1/2+x,1/2-y,1/2-z
1/2-x,1/2+y,1/2-z
1/2-y,1/2-x,1/2+z
1/2+y,1/2+x,1/2+z
loop_
_atom_site_type_symbol
_atom_site_label
_atom_site_fract_x
_atom_site_fract_y
_atom_site_fract_z
Si Si1 0.210301 0.657164 0.410419
Si Si2 0.199343 0.417971 0.773268
Si Si3 0.000000 0.000000 0.165131
Si Si4 0.724417 0.141669 0.144676
Si Si5 0.417404 0.849007 0.524695
Si Si6 0.472137 0.698559 0.329214
Si Si7 0.867795 0.421867 0.825100
Si Si8 0.000000 0.500000 0.588827
O O1 0.272005 0.727996 0.426782
O O2 0.155025 0.636461 0.466664
O O3 0.265720 0.583324 0.382646
O O4 0.149381 0.680887 0.358248
O O5 0.190334 0.343335 0.818140
O O6 0.277560 0.423859 0.730438
O O7 0.187270 0.501844 0.808117
O O8 0.120658 0.408263 0.730826
O O9 0.103299 0.003044 0.165315
O O10 0.805731 0.194270 0.143837
O O11 0.694970 0.124434 0.078899
O O12 0.745389 0.053468 0.171882
O O13 0.500000 0.806662 0.500000
O O14 0.447798 0.935870 0.550558
O O15 0.939209 0.450240 0.869116
#
# Coordination Sequence:
#
# PCOD9560588 Si02
#       8
#    16  16   4  16  16  16  16   8
#     4  11  24  40  58  82 121 165 207 249 302 359
#     4  11  22  39  59  95 125 158 197 253 315 377
#     4  12  24  44  68  81 124 164 217 256 284 366
#     4  12  24  40  61  89 126 162 207 257 307 368
#     4  12  22  37  60  87 121 159 199 254 303 372
#     4  11  23  42  63  90 119 164 211 252 305 363
#     4  11  21  35  61  87 128 154 187 251 312 375
#     4  12  21  35  60  98 118 151 207 242 322 380
#
# _framework density 17.691089999999999
#
# number of rings (size 3 to 8) (size 9 to 14) (size 15 to 20)
#    0.000    0.593    7.407    2.444    1.037    0.593 
#    1.333    0.000    0.000    0.889    0.000    0.000 
#    0.000    0.000    0.000    0.148    0.000    0.000 
#
# Total GULP energy -300676.166871 kJ/mol
# GULP energy per Si atom -5568.077164 kJ/mol
# Density = 1.765082 g / cm^3
# Si number density = 17.691090 Si / 1000 Ang^3
#
#
#
# Elastic Constant Matrix: (Units=GPa)
#
#
# Indices 1 2 3 4 5 6 
#
# 1 58.4029 10.7797 25.3767 0.0000 0.0000 0.0000
# 2 10.7797 58.4017 25.3764 0.0000 0.0000 0.0000
# 3 25.3767 25.3764 94.4440 0.0000 0.0000 0.0000
# 4 0.0000 0.0000 0.0000 2.1053 0.0000 0.0000
# 5 0.0000 0.0000 0.0000 0.0000 2.0877 0.0000
# 6 0.0000 0.0000 0.0000 0.0000 0.0000 22.2881
#
#
#
# Elastic Compliance Matrix: (Units=1/GPa)
#
#
# Indices 1 2 3 4 5 6 
#
# 1 0.019501 -0.001497 -0.004837 0.000000 0.000000 0.000000
# 2 -0.001497 0.019501 -0.004837 0.000000 0.000000 0.000000
# 3 -0.004837 -0.004837 0.013188 0.000000 0.000000 0.000000
# 4 0.000000 0.000000 0.000000 0.475003 0.000000 0.000000
# 5 0.000000 0.000000 0.000000 0.000000 0.479000 0.000000
# 6 0.000000 0.000000 0.000000 0.000000 0.000000 0.044867
#
#
# Mechanical properties :
#
#
# Convention : Reuss Voigt Hill
#
# Bulk Modulus (GPa) = 33.50636 37.14601 35.32619
# Shear Modulus (GPa) = 4.61530 15.27725 9.94628
#
# Velocity S-wave (km/s) = 1.61694 2.94182 2.37369
# Velocity P-wave (km/s) = 4.73991 5.70804 5.24635
#
# Compressibility (1/GPa) = 0.02984508
#
# Stress axis : x y z
#
# Youngs Moduli (GPa) = 51.28009 51.27904 75.82729
#
# Poissons Ratio (x) = 0.07679 0.36681
# Poissons Ratio (y) = 0.07679 0.36681
# Poissons Ratio (z) = 0.24806 0.24806
#
# Static dielectric constant tensor:
#      x y z
#    x 1.615400 0.000000 0.000000 
#    y 0.000000 1.615400 0.000000 
#    z 0.000000 0.000000 1.633330 
# 
# From -- ./inp_files/7236.got.cif
#   From: 2010.05.17/outbox.cif.g08.bks.cpg/sg121_4_cif.got.tgz:7236.got - 2010.05.20 11:32:06.
