data_PCOD9560345
_publ_section_title
;
Structure prediction by ZEFSAII (Michael W. Deem and Ramdas Pophale) SiO2 
 PCOD9560345
Probable space group: I -4 2 M
;
_chemical_formula_sum "Si O2"
_cell_formula_units_Z 112
_cell_length_a 18.902018
_cell_length_b 18.902018
_cell_length_c 18.680758
_cell_angle_alpha 90.000000
_cell_angle_beta 90.000000
_cell_angle_gamma 90.000000
_cell_volume 6674.378617
_symmetry_space_group_name_H-M "I -4 2 M"
_symmetry_group_IT_number 121
_symmetry_cell_setting 'tetragonal'
loop_
_space_group_symop_operation_xyz
x,y,z
y,-x,-z
-x,-y,z
-y,x,-z
x,-y,-z
-x,y,-z
-y,-x,z
y,x,z
1/2+x,1/2+y,1/2+z
1/2+y,1/2-x,1/2-z
1/2-x,1/2-y,1/2+z
1/2-y,1/2+x,1/2-z
1/2+x,1/2-y,1/2-z
1/2-x,1/2+y,1/2-z
1/2-y,1/2-x,1/2+z
1/2+y,1/2+x,1/2+z
loop_
_atom_site_type_symbol
_atom_site_label
_atom_site_fract_x
_atom_site_fract_y
_atom_site_fract_z
Si Si1 0.797828 0.428239 0.466346
Si Si2 0.553657 0.819133 0.193473
Si Si3 0.713389 0.168706 0.104434
Si Si4 0.068915 0.459451 0.074716
Si Si5 0.818327 0.605969 0.773802
Si Si6 0.076180 0.192654 0.784068
Si Si7 0.800978 0.914920 0.169336
O O1 0.767548 0.500000 0.500000
O O2 0.799483 0.369651 0.528828
O O3 0.876910 0.446510 0.439177
O O4 0.749366 0.408057 0.399665
O O5 0.541473 0.857958 0.118311
O O6 0.477855 0.829105 0.230209
O O7 0.617063 0.860405 0.230981
O O8 0.572326 0.737243 0.209582
O O9 0.760775 0.239226 0.096025
O O10 0.640698 0.182125 0.147652
O O11 0.758647 0.117017 0.157161
O O12 0.000000 0.500000 0.108819
O O13 0.078723 0.500000 0.000000
O O14 0.744422 0.618862 0.734075
O O15 0.121594 0.121594 0.776469
O O16 0.996521 0.183614 0.811961
O O17 0.871962 0.871962 0.157762
#
# Coordination Sequence:
#
# PCOD9560345 Si02
#       7
#    16  16  16  16  16  16  16
#     4  12  21  36  52  78 114 149 185 222 275 331
#     4  10  21  33  52  79 106 145 184 233 272 328
#     4  10  20  36  56  75 105 146 184 226 277 333
#     4  11  22  33  51  78 115 153 188 225 267 330
#     4  10  21  34  54  79 108 141 187 227 276 329
#     4   9  20  38  57  77 104 140 185 236 287 330
#     4  11  22  37  57  82 110 140 185 239 282 336
#
# _framework density 16.780588999999999
#
# number of rings (size 3 to 8) (size 9 to 14) (size 15 to 20)
#    0.000    1.571    4.286    1.714    2.000    0.857 
#    0.000    0.000    0.000    0.000    0.000    0.000 
#    0.000    0.000    0.000    0.000    0.000    0.000 
#
# Total GULP energy -312051.197423 kJ/mol
# GULP energy per Si atom -5572.342811 kJ/mol
# Density = 1.674240 g / cm^3
# Si number density = 16.780589 Si / 1000 Ang^3
#
#
#
# Elastic Constant Matrix: (Units=GPa)
#
#
# Indices 1 2 3 4 5 6 
#
# 1 84.7208 51.3350 28.5632 0.0000 0.0000 0.0000
# 2 51.3350 84.7198 28.5629 0.0000 0.0000 0.0000
# 3 28.5632 28.5629 68.9986 0.0000 0.0000 0.0000
# 4 0.0000 0.0000 0.0000 15.7571 0.0000 0.0000
# 5 0.0000 0.0000 0.0000 0.0000 15.7582 0.0000
# 6 0.0000 0.0000 0.0000 0.0000 0.0000 32.0127
#
#
#
# Elastic Compliance Matrix: (Units=1/GPa)
#
#
# Indices 1 2 3 4 5 6 
#
# 1 0.019425 -0.010529 -0.003683 0.000000 0.000000 0.000000
# 2 -0.010529 0.019425 -0.003683 0.000000 0.000000 0.000000
# 3 -0.003683 -0.003683 0.017542 0.000000 0.000000 0.000000
# 4 0.000000 0.000000 0.000000 0.063464 0.000000 0.000000
# 5 0.000000 0.000000 0.000000 0.000000 0.063459 0.000000
# 6 0.000000 0.000000 0.000000 0.000000 0.000000 0.031238
#
#
# Mechanical properties :
#
#
# Convention : Reuss Voigt Hill
#
# Bulk Modulus (GPa) = 48.53513 50.59570 49.56542
# Shear Modulus (GPa) = 19.43955 21.37081 20.40518
#
# Velocity S-wave (km/s) = 3.40730 3.57255 3.49090
# Velocity P-wave (km/s) = 6.66827 6.87272 6.77126
#
# Compressibility (1/GPa) = 0.02060363
#
# Stress axis : x y z
#
# Youngs Moduli (GPa) = 51.48098 51.48042 57.00568
#
# Poissons Ratio (x) = 0.54201 0.20994
# Poissons Ratio (y) = 0.54202 0.20994
# Poissons Ratio (z) = 0.18959 0.18959
#
# Static dielectric constant tensor:
#      x y z
#    x 1.575880 0.000000 0.000000 
#    y 0.000000 1.575880 0.000000 
#    z 0.000000 0.000000 1.611300 
# 
# From -- ./inp_files/6630.got.cif
#   From: 2010.05.17/outbox.cif.g08.bks.cpg/sg121_4_cif.got.tgz:6630.got - 2010.05.20 11:32:06.
