data_PCOD9560682
_publ_section_title
;
Structure prediction by ZEFSAII (Michael W. Deem and Ramdas Pophale) SiO2 
 PCOD9560682
Probable space group: I -4 2 D
;
_chemical_formula_sum "Si O2"
_cell_formula_units_Z 72
_cell_length_a 21.340769
_cell_length_b 21.340769
_cell_length_c 6.881676
_cell_angle_alpha 90.000000
_cell_angle_beta 90.000000
_cell_angle_gamma 90.000000
_cell_volume 3134.110838
_symmetry_space_group_name_H-M "I -4 2 D"
_symmetry_group_IT_number 122
_symmetry_cell_setting 'tetragonal'
loop_
_space_group_symop_operation_xyz
x,y,z
y,-x,-z
-x,-y,z
-y,x,-z
x,1/2-y,1/4-z
-x,1/2+y,1/4-z
-y,1/2-x,1/4+z
y,1/2+x,1/4+z
1/2+x,1/2+y,1/2+z
1/2+y,1/2-x,1/2-z
1/2-x,1/2-y,1/2+z
1/2-y,1/2+x,1/2-z
1/2+x,-y,3/4-z
1/2-x,y,3/4-z
1/2-y,-x,3/4+z
1/2+y,x,3/4+z
loop_
_atom_site_type_symbol
_atom_site_label
_atom_site_fract_x
_atom_site_fract_y
_atom_site_fract_z
Si Si1 0.750000 0.669602 0.875000
Si Si2 0.948836 0.916537 0.533592
Si Si3 0.655839 0.729180 0.357389
Si Si4 0.679355 0.600573 0.220661
Si Si5 0.222370 0.973300 0.590094
O O1 0.697838 0.717691 0.794983
O O2 0.787886 0.628830 0.721744
O O3 0.894733 0.913032 0.694159
O O4 0.946635 0.848289 0.437484
O O5 0.021521 0.928967 0.589686
O O6 0.681162 0.658361 0.370546
O O7 0.583299 0.734419 0.412111
O O8 0.657015 0.750000 0.125000
O O9 0.711904 0.533449 0.222790
O O10 0.250000 0.990300 0.375000
#
# Coordination Sequence:
#
# PCOD9560682 Si02
#       5
#     8  16  16  16  16
#     4  10  16  26  40  58  86 116 134 164 216 246
#     4   9  16  24  36  56  86 109 126 159 207 253
#     4   9  17  28  37  63  86 107 145 171 205 257
#     4  10  17  26  42  61  86 114 139 169 207 260
#     4  10  15  25  39  60  89 112 135 166 210 260
#
# _framework density 22.973023000000001
#
# number of rings (size 3 to 8) (size 9 to 14) (size 15 to 20)
#    0.000    2.444    7.778    0.000    0.000    0.000 
#    0.000    0.000    0.000    0.000    8.667    0.000 
#    0.000    0.000    0.000    0.000    0.000    0.000 
#
# Total GULP energy -200505.472384 kJ/mol
# GULP energy per Si atom -5569.596455 kJ/mol
# Density = 2.292073 g / cm^3
# Si number density = 22.973023 Si / 1000 Ang^3
#
#
#
# Elastic Constant Matrix: (Units=GPa)
#
#
# Indices 1 2 3 4 5 6 
#
# 1 169.7467 45.8239 14.8514 0.0000 0.0000 0.0000
# 2 45.8239 169.7467 14.8514 0.0000 0.0000 0.0000
# 3 14.8514 14.8514 38.0449 0.0000 0.0000 0.0000
# 4 0.0000 0.0000 0.0000 8.1590 0.0000 0.0000
# 5 0.0000 0.0000 0.0000 0.0000 8.1590 0.0000
# 6 0.0000 0.0000 0.0000 0.0000 0.0000 -10.9797
#
#
#
# Elastic Compliance Matrix: (Units=1/GPa)
#
#
# Indices 1 2 3 4 5 6 
#
# 1 0.006486 -0.001583 -0.001914 0.000000 0.000000 0.000000
# 2 -0.001583 0.006486 -0.001914 0.000000 0.000000 0.000000
# 3 -0.001914 -0.001914 0.027779 0.000000 0.000000 0.000000
# 4 0.000000 0.000000 0.000000 0.122564 0.000000 0.000000
# 5 0.000000 0.000000 0.000000 0.000000 0.122564 0.000000
# 6 0.000000 0.000000 0.000000 0.000000 0.000000 -0.091077
#
#
# Mechanical properties :
#
#
# Convention : Reuss Voigt Hill
#
# Bulk Modulus (GPa) = 33.41262 58.73243 46.07253
# Shear Modulus (GPa) = 23.19118 21.20178 22.19648
#
# Velocity S-wave (km/s) = 3.18070 3.04122 3.11174
# Velocity P-wave (km/s) = 5.29764 6.16063 5.74536
#
# Compressibility (1/GPa) = 0.02992881
#
# Stress axis : x y z
#
# Youngs Moduli (GPa) = 154.17722 154.17722 35.99860
#
# Poissons Ratio (x) = 0.24414 0.06889
# Poissons Ratio (y) = 0.24414 0.06889
# Poissons Ratio (z) = 0.29506 0.29506
#
# Static dielectric constant tensor:
#      x y z
#    x 1.884860 0.000000 0.000000 
#    y 0.000000 1.884860 0.000000 
#    z 0.000000 0.000000 1.915740 
# 
# From -- ./inp_files/2651.got.cif
#   From: 2010.05.17/outbox.cif.g08.bks.cpg/sg122_2_cif.got.tgz:2651.got - 2010.05.20 11:37:33.
