data_PCOD9560456
_publ_section_title
;
Structure prediction by ZEFSAII (Michael W. Deem and Ramdas Pophale) SiO2 
 PCOD9560456
Probable space group: I -4 2 M
;
_chemical_formula_sum "Si O2"
_cell_formula_units_Z 116
_cell_length_a 17.743776
_cell_length_b 17.743776
_cell_length_c 19.174511
_cell_angle_alpha 90.000000
_cell_angle_beta 90.000000
_cell_angle_gamma 90.000000
_cell_volume 6036.933468
_symmetry_space_group_name_H-M "I -4 2 M"
_symmetry_group_IT_number 121
_symmetry_cell_setting 'tetragonal'
loop_
_space_group_symop_operation_xyz
x,y,z
y,-x,-z
-x,-y,z
-y,x,-z
x,-y,-z
-x,y,-z
-y,-x,z
y,x,z
1/2+x,1/2+y,1/2+z
1/2+y,1/2-x,1/2-z
1/2-x,1/2-y,1/2+z
1/2-y,1/2+x,1/2-z
1/2+x,1/2-y,1/2-z
1/2-x,1/2+y,1/2-z
1/2-y,1/2-x,1/2+z
1/2+y,1/2+x,1/2+z
loop_
_atom_site_type_symbol
_atom_site_label
_atom_site_fract_x
_atom_site_fract_y
_atom_site_fract_z
Si Si1 0.937832 0.810117 0.554857
Si Si2 0.500000 0.000000 0.500000
Si Si3 0.934275 0.361177 0.414282
Si Si4 0.234761 0.353177 0.590320
Si Si5 0.423527 0.701503 0.541770
Si Si6 0.727364 0.510033 0.678007
Si Si7 0.622512 0.004893 0.731168
Si Si8 0.996082 0.122827 0.691704
O O1 0.861484 0.861484 0.549953
O O2 0.931161 0.719292 0.545133
O O3 0.974873 0.822325 0.630932
O O4 0.000000 0.838985 0.500000
O O5 0.560650 0.950843 0.544506
O O6 0.849859 0.362771 0.385061
O O7 0.992383 0.359746 0.350311
O O8 0.271271 0.271271 0.597393
O O9 0.241359 0.379269 0.509571
O O10 0.281880 0.412004 0.636174
O O11 0.500000 0.683286 0.500000
O O12 0.371162 0.628839 0.548497
O O13 0.446903 0.730960 0.617629
O O14 0.802786 0.511383 0.723540
O O15 0.661021 0.500301 0.733107
O O16 0.575335 0.932471 0.757332
O O17 0.055492 0.055492 0.690160
O O18 0.914156 0.085845 0.678347
#
# Coordination Sequence:
#
# PCOD9560456 Si02
#       8
#    16   4  16  16  16  16  16  16
#     4  11  23  43  66  93 130 169 218 268 324 387
#     4  12  28  40  70  96 126 156 216 268 324 380
#     4  12  24  42  65  95 121 166 210 266 316 383
#     4  10  22  39  61  89 124 166 209 255 318 386
#     4   9  20  36  57  87 121 161 207 253 313 377
#     4  11  20  37  63  87 127 164 203 261 316 380
#     4  11  23  40  62  89 122 159 205 255 317 378
#     4  10  21  37  61  92 124 163 211 262 315 378
#
# _framework density 19.215053000000001
#
# number of rings (size 3 to 8) (size 9 to 14) (size 15 to 20)
#    0.000    1.379    3.448    2.483    2.897    1.379 
#    0.000    0.000    0.000    0.000    0.000    0.000 
#    0.000    0.000    0.000    0.000    0.000    0.000 
#
# Total GULP energy -323329.595257 kJ/mol
# GULP energy per Si atom -5574.648194 kJ/mol
# Density = 1.917132 g / cm^3
# Si number density = 19.215053 Si / 1000 Ang^3
#
#
#
# Elastic Constant Matrix: (Units=GPa)
#
#
# Indices 1 2 3 4 5 6 
#
# 1 71.4428 17.6196 13.0002 0.0000 0.0000 0.0000
# 2 17.6196 71.4409 13.0004 0.0000 0.0000 0.0000
# 3 13.0002 13.0004 75.7042 0.0000 0.0000 0.0000
# 4 0.0000 0.0000 0.0000 23.7312 0.0000 0.0000
# 5 0.0000 0.0000 0.0000 0.0000 23.7278 0.0000
# 6 0.0000 0.0000 0.0000 0.0000 0.0000 12.2953
#
#
#
# Elastic Compliance Matrix: (Units=1/GPa)
#
#
# Indices 1 2 3 4 5 6 
#
# 1 0.015200 -0.003379 -0.002030 0.000000 0.000000 0.000000
# 2 -0.003379 0.015200 -0.002030 0.000000 0.000000 0.000000
# 3 -0.002030 -0.002030 0.013906 0.000000 0.000000 0.000000
# 4 0.000000 0.000000 0.000000 0.042139 0.000000 0.000000
# 5 0.000000 0.000000 0.000000 0.000000 0.042145 0.000000
# 6 0.000000 0.000000 0.000000 0.000000 0.000000 0.081332
#
#
# Mechanical properties :
#
#
# Convention : Reuss Voigt Hill
#
# Bulk Modulus (GPa) = 33.98079 33.98094 33.98087
# Shear Modulus (GPa) = 21.31192 23.61535 22.46364
#
# Velocity S-wave (km/s) = 3.33397 3.50952 3.42287
# Velocity P-wave (km/s) = 5.70467 5.84339 5.77445
#
# Compressibility (1/GPa) = 0.02942839
#
# Stress axis : x y z
#
# Youngs Moduli (GPa) = 65.78929 65.78745 71.90885
#
# Poissons Ratio (x) = 0.22232 0.14597
# Poissons Ratio (y) = 0.22233 0.14597
# Poissons Ratio (z) = 0.13354 0.13355
#
# Static dielectric constant tensor:
#      x y z
#    x 1.681850 0.000000 0.000000 
#    y 0.000000 1.681850 0.000000 
#    z 0.000000 0.000000 1.673560 
# 
# From -- ./inp_files/5531.got.cif
#   From: 2010.05.17/outbox.cif.g08.bks.cpg/sg121_3_cif.got.tgz:5531.got - 2010.05.20 11:32:06.
