data_PCOD9560061
_publ_section_title
;
Structure prediction by ZEFSAII (Michael W. Deem and Ramdas Pophale) SiO2 
 PCOD9560061
Probable space group: I -4 C 2
;
_chemical_formula_sum "Si O2"
_cell_formula_units_Z 96
_cell_length_a 14.212641
_cell_length_b 14.212641
_cell_length_c 20.344279
_cell_angle_alpha 90.000000
_cell_angle_beta 90.000000
_cell_angle_gamma 90.000000
_cell_volume 4109.527354
_symmetry_space_group_name_H-M "I -4 C 2"
_symmetry_group_IT_number 120
_symmetry_cell_setting 'tetragonal'
loop_
_space_group_symop_operation_xyz
x,y,z
y,-x,-z
-x,-y,z
-y,x,-z
y,x,1/2-z
-y,-x,1/2-z
-x,y,1/2+z
x,-y,1/2+z
1/2+x,1/2+y,1/2+z
1/2+y,1/2-x,1/2-z
1/2-x,1/2-y,1/2+z
1/2-y,1/2+x,1/2-z
1/2+y,1/2+x,-z
1/2-y,1/2-x,-z
1/2-x,1/2+y,z
1/2+x,1/2-y,z
loop_
_atom_site_type_symbol
_atom_site_label
_atom_site_fract_x
_atom_site_fract_y
_atom_site_fract_z
Si Si1 0.029657 0.757219 0.751907
Si Si2 0.404452 0.728223 0.403478
Si Si3 0.293837 0.060929 0.495081
Si Si4 0.193565 0.189534 0.910858
Si Si5 0.334458 0.199250 0.282369
Si Si6 0.665112 0.472547 0.382271
O O1 0.055455 0.762861 0.828771
O O2 0.088906 0.669303 0.724875
O O3 0.048672 0.834722 0.695642
O O4 0.919751 0.741742 0.743092
O O5 0.471949 0.770548 0.459313
O O6 0.305632 0.786749 0.409032
O O7 0.396418 0.613847 0.411205
O O8 0.398228 0.101773 0.500000
O O9 0.225726 0.142501 0.524115
O O10 0.263933 0.044205 0.420163
O O11 0.158179 0.260071 0.854358
O O12 0.154855 0.084183 0.895755
O O13 0.238673 0.238673 0.250000
#
# Coordination Sequence:
#
# PCOD9560061 Si02
#       6
#    16  16  16  16  16  16
#     4  12  23  43  76 108 146 201 254 318 392 464
#     4  12  25  46  78 108 148 206 258 315 394 474
#     4  12  26  48  76 106 155 203 253 317 395 477
#     4  12  25  49  74 106 154 203 256 327 398 474
#     4  12  22  44  71 104 146 195 250 320 395 455
#     4  12  25  42  75 109 147 201 254 320 387 473
#
# _framework density 23.36035
#
# number of rings (size 3 to 8) (size 9 to 14) (size 15 to 20)
#    0.000    0.000    8.333    1.500    0.000    1.000 
#    0.000    3.333    0.000    0.000    0.000    0.000 
#    0.000    0.000    0.000    0.000    0.000    0.000 
#
# Total GULP energy -267712.401194 kJ/mol
# GULP energy per Si atom -5577.341692 kJ/mol
# Density = 2.330718 g / cm^3
# Si number density = 23.360350 Si / 1000 Ang^3
#
#
#
# Elastic Constant Matrix: (Units=GPa)
#
#
# Indices 1 2 3 4 5 6 
#
# 1 -75.5408 212.0381 22.2155 0.0000 0.0000 0.0000
# 2 212.0381 -75.5338 22.2167 0.0000 0.0000 0.0000
# 3 22.2155 22.2167 114.9183 0.0000 0.0000 0.0000
# 4 0.0000 0.0000 0.0000 37.1143 0.0000 0.0000
# 5 0.0000 0.0000 0.0000 0.0000 37.1141 0.0000
# 6 0.0000 0.0000 0.0000 0.0000 0.0000 14.1353
#
#
#
# Elastic Compliance Matrix: (Units=1/GPa)
#
#
# Indices 1 2 3 4 5 6 
#
# 1 0.002170 0.005648 -0.001511 0.000000 0.000000 0.000000
# 2 0.005648 0.002170 -0.001511 0.000000 0.000000 0.000000
# 3 -0.001511 -0.001511 0.009286 0.000000 0.000000 0.000000
# 4 0.000000 0.000000 0.000000 0.026944 0.000000 0.000000
# 5 0.000000 0.000000 0.000000 0.000000 0.026944 0.000000
# 6 0.000000 0.000000 0.000000 0.000000 0.000000 0.070745
#
#
# Mechanical properties :
#
#
# Convention : Reuss Voigt Hill
#
# Bulk Modulus (GPa) = 52.97573 52.97605 52.97589
# Shear Modulus (GPa) = 35.89330 -1.83569 17.02880
#
# Velocity S-wave (km/s) = 3.92408 -0.88742 2.70286
# Velocity P-wave (km/s) = 6.57709 4.65585 5.69803
#
# Compressibility (1/GPa) = 0.01887657
#
# Stress axis : x y z
#
# Youngs Moduli (GPa) = 460.78687 460.74934 107.68680
#
# Poissons Ratio (x) = -2.60215 0.16275
# Poissons Ratio (y) = -2.60236 0.16275
# Poissons Ratio (z) = 0.69642 0.69636
#
# Static dielectric constant tensor:
#      x y z
#    x 1.914200 0.000000 0.000000 
#    y 0.000000 1.914200 0.000000 
#    z 0.000000 0.000000 1.950010 
# 
# From -- ./inp_files/5355.got.cif
#   From: 2010.05.17/outbox.cif.g08.bks.cpg/sg120_3_cif.got.tgz:5355.got - 2010.05.20 11:28:13.
