data_PCOD9560052
_publ_section_title
;
Structure prediction by ZEFSAII (Michael W. Deem and Ramdas Pophale) SiO2 
 PCOD9560052
Probable space group: I -4 C 2
;
_chemical_formula_sum "Si O2"
_cell_formula_units_Z 48
_cell_length_a 9.007200
_cell_length_b 9.007200
_cell_length_c 25.930281
_cell_angle_alpha 90.000000
_cell_angle_beta 90.000000
_cell_angle_gamma 90.000000
_cell_volume 2103.714670
_symmetry_space_group_name_H-M "I -4 C 2"
_symmetry_group_IT_number 120
_symmetry_cell_setting 'tetragonal'
loop_
_space_group_symop_operation_xyz
x,y,z
y,-x,-z
-x,-y,z
-y,x,-z
y,x,1/2-z
-y,-x,1/2-z
-x,y,1/2+z
x,-y,1/2+z
1/2+x,1/2+y,1/2+z
1/2+y,1/2-x,1/2-z
1/2-x,1/2-y,1/2+z
1/2-y,1/2+x,1/2-z
1/2+y,1/2+x,-z
1/2-y,1/2-x,-z
1/2-x,1/2+y,z
1/2+x,1/2-y,z
loop_
_atom_site_type_symbol
_atom_site_label
_atom_site_fract_x
_atom_site_fract_y
_atom_site_fract_z
Si Si1 0.851934 0.083002 0.620395
Si Si2 0.430976 0.219444 0.771777
Si Si3 0.361429 0.887405 0.059601
O O1 0.733377 0.086896 0.666999
O O2 0.880489 0.245044 0.596604
O O3 0.782230 0.978453 0.576891
O O4 0.000000 0.000000 0.639032
O O5 0.374431 0.374431 0.750000
O O6 0.593670 0.172641 0.753908
O O7 0.500000 0.000000 0.063778
O O8 0.343479 0.843479 0.000000
#
# Coordination Sequence:
#
# PCOD9560052 Si02
#       3
#    16  16  16
#     4  12  28  48  80 110 153 209 261 322 401 472
#     4  11  28  48  75 109 151 194 251 312 379 460
#     4  11  28  48  78 115 156 200 260 329 392 476
#
# _framework density 22.816780000000001
#
# number of rings (size 3 to 8) (size 9 to 14) (size 15 to 20)
#    0.000    0.667    0.000    4.000   28.000    0.000 
#    0.000    0.000    0.000    0.000    0.000    0.000 
#    0.000    0.000    0.000    0.000    0.000    0.000 
#
# Total GULP energy -134413.774136 kJ/mol
# GULP energy per Si atom -5600.573922 kJ/mol
# Density = 2.276485 g / cm^3
# Si number density = 22.816780 Si / 1000 Ang^3
#
#
#
# Elastic Constant Matrix: (Units=GPa)
#
#
# Indices 1 2 3 4 5 6 
#
# 1 90.6083 53.3247 44.7999 0.0000 0.0000 0.0000
# 2 53.3247 90.6083 44.7999 0.0000 0.0000 0.0000
# 3 44.7999 44.7999 173.4269 0.0000 0.0000 0.0000
# 4 0.0000 0.0000 0.0000 51.6689 0.0000 0.0000
# 5 0.0000 0.0000 0.0000 0.0000 51.6689 0.0000
# 6 0.0000 0.0000 0.0000 0.0000 0.0000 54.7895
#
#
#
# Elastic Compliance Matrix: (Units=1/GPa)
#
#
# Indices 1 2 3 4 5 6 
#
# 1 0.017550 -0.009271 -0.002139 0.000000 0.000000 0.000000
# 2 -0.009271 0.017550 -0.002139 0.000000 0.000000 0.000000
# 3 -0.002139 -0.002139 0.006871 0.000000 0.000000 0.000000
# 4 0.000000 0.000000 0.000000 0.019354 0.000000 0.000000
# 5 0.000000 0.000000 0.000000 0.000000 0.019354 0.000000
# 6 0.000000 0.000000 0.000000 0.000000 0.000000 0.018252
#
#
# Mechanical properties :
#
#
# Convention : Reuss Voigt Hill
#
# Bulk Modulus (GPa) = 67.22929 71.16581 69.19755
# Shear Modulus (GPa) = 38.17193 45.74007 41.95600
#
# Velocity S-wave (km/s) = 4.09464 4.48221 4.29280
# Velocity P-wave (km/s) = 7.20303 7.61871 7.41378
#
# Compressibility (1/GPa) = 0.01487447
#
# Stress axis : x y z
#
# Youngs Moduli (GPa) = 56.97934 56.97934 145.53849
#
# Poissons Ratio (x) = 0.52827 0.31126
# Poissons Ratio (y) = 0.52827 0.31126
# Poissons Ratio (z) = 0.12186 0.12186
#
# Static dielectric constant tensor:
#      x y z
#    x 1.842120 0.000000 0.000000 
#    y 0.000000 1.842120 0.000000 
#    z 0.000000 0.000000 1.883120 
# 
# From -- ./inp_files/6347.got.cif
#   From: 2010.05.17/outbox.cif.g08.bks.cpg/sg120_4_cif.got.tgz:6347.got - 2010.05.20 11:28:13.
