data_PCOD9560871
_publ_section_title
;
Structure prediction by ZEFSAII (Michael W. Deem and Ramdas Pophale) SiO2 
 PCOD9560871
Probable space group: I -4 2 D
;
_chemical_formula_sum "Si O2"
_cell_formula_units_Z 80
_cell_length_a 16.111722
_cell_length_b 16.111722
_cell_length_c 13.104953
_cell_angle_alpha 90.000000
_cell_angle_beta 90.000000
_cell_angle_gamma 90.000000
_cell_volume 3401.883111
_symmetry_space_group_name_H-M "I -4 2 D"
_symmetry_group_IT_number 122
_symmetry_cell_setting 'tetragonal'
loop_
_space_group_symop_operation_xyz
x,y,z
y,-x,-z
-x,-y,z
-y,x,-z
x,1/2-y,1/4-z
-x,1/2+y,1/4-z
-y,1/2-x,1/4+z
y,1/2+x,1/4+z
1/2+x,1/2+y,1/2+z
1/2+y,1/2-x,1/2-z
1/2-x,1/2-y,1/2+z
1/2-y,1/2+x,1/2-z
1/2+x,-y,3/4-z
1/2-x,y,3/4-z
1/2-y,-x,3/4+z
1/2+y,x,3/4+z
loop_
_atom_site_type_symbol
_atom_site_label
_atom_site_fract_x
_atom_site_fract_y
_atom_site_fract_z
Si Si1 0.279576 0.995606 0.599844
Si Si2 0.379745 0.040714 0.275537
Si Si3 0.909226 0.622063 0.114034
Si Si4 0.308616 0.843829 0.087548
Si Si5 0.923678 0.184839 0.051951
O O1 0.211325 0.034097 0.523737
O O2 0.259990 0.898985 0.603882
O O3 0.261794 0.029217 0.713968
O O4 0.372170 0.031063 0.583778
O O5 0.415584 0.948966 0.297073
O O6 0.377030 0.102863 0.369534
O O7 0.006270 0.636363 0.132904
O O8 0.873471 0.629935 0.229458
O O9 0.864987 0.682732 0.032711
O O10 0.303198 0.750000 0.125000
O O11 0.880605 0.250000 0.125000
#
# Coordination Sequence:
#
# PCOD9560871 Si02
#       5
#    16  16  16  16  16
#     4   9  20  35  59  84 115 155 192 237 301 353
#     4   9  18  34  56  89 119 146 189 242 302 357
#     4  10  20  37  58  86 111 160 199 238 290 353
#     4  11  18  35  64  85 117 151 193 250 302 348
#     4  10  20  39  58  81 118 155 197 243 286 347
#
# _framework density 23.516387999999999
#
# number of rings (size 3 to 8) (size 9 to 14) (size 15 to 20)
#    1.200    1.000    4.000    0.000    0.000    0.400 
#    3.600    3.000    4.400    3.600    0.000    0.000 
#    0.000    0.000    0.000    0.000    0.000    0.000 
#
# Total GULP energy -222730.374367 kJ/mol
# GULP energy per Si atom -5568.259359 kJ/mol
# Density = 2.346286 g / cm^3
# Si number density = 23.516388 Si / 1000 Ang^3
#
#
#
# Elastic Constant Matrix: (Units=GPa)
#
#
# Indices 1 2 3 4 5 6 
#
# 1 106.9863 37.0745 38.8385 0.0000 0.0000 0.0000
# 2 37.0745 106.9863 38.8385 0.0000 0.0000 0.0000
# 3 38.8385 38.8385 69.1216 0.0000 0.0000 0.0000
# 4 0.0000 0.0000 0.0000 28.0236 0.0000 0.0000
# 5 0.0000 0.0000 0.0000 0.0000 28.0236 0.0000
# 6 0.0000 0.0000 0.0000 0.0000 0.0000 14.9394
#
#
#
# Elastic Compliance Matrix: (Units=1/GPa)
#
#
# Indices 1 2 3 4 5 6 
#
# 1 0.012131 -0.002173 -0.005596 0.000000 0.000000 0.000000
# 2 -0.002173 0.012131 -0.005596 0.000000 0.000000 0.000000
# 3 -0.005596 -0.005596 0.020755 0.000000 0.000000 0.000000
# 4 0.000000 0.000000 0.000000 0.035684 0.000000 0.000000
# 5 0.000000 0.000000 0.000000 0.000000 0.035684 0.000000
# 6 0.000000 0.000000 0.000000 0.000000 0.000000 0.066937
#
#
# Mechanical properties :
#
#
# Convention : Reuss Voigt Hill
#
# Bulk Modulus (GPa) = 54.67393 56.95524 55.81458
# Shear Modulus (GPa) = 23.13232 25.42017 24.27624
#
# Velocity S-wave (km/s) = 3.13975 3.29136 3.21645
# Velocity P-wave (km/s) = 6.03687 6.22222 6.13024
#
# Compressibility (1/GPa) = 0.01829025
#
# Stress axis : x y z
#
# Youngs Moduli (GPa) = 82.43205 82.43205 48.18004
#
# Poissons Ratio (x) = 0.17909 0.26960
# Poissons Ratio (y) = 0.17909 0.26960
# Poissons Ratio (z) = 0.46126 0.46126
#
# Static dielectric constant tensor:
#      x y z
#    x 1.920020 0.000000 0.000000 
#    y 0.000000 1.920020 0.000000 
#    z 0.000000 0.000000 1.909890 
# 
# From -- ./inp_files/5268.got.cif
#   From: 2010.05.17/outbox.cif.g08.bks.cpg/sg122_3_cif.got.tgz:5268.got - 2010.05.20 11:37:33.
