data_PCOD9560978
_publ_section_title
;
Structure prediction by ZEFSAII (Michael W. Deem and Ramdas Pophale) SiO2 
 PCOD9560978
Probable space group: I -4 2 D
;
_chemical_formula_sum "Si O2"
_cell_formula_units_Z 68
_cell_length_a 12.790339
_cell_length_b 12.790339
_cell_length_c 19.610067
_cell_angle_alpha 90.000000
_cell_angle_beta 90.000000
_cell_angle_gamma 90.000000
_cell_volume 3208.065214
_symmetry_space_group_name_H-M "I -4 2 D"
_symmetry_group_IT_number 122
_symmetry_cell_setting 'tetragonal'
loop_
_space_group_symop_operation_xyz
x,y,z
y,-x,-z
-x,-y,z
-y,x,-z
x,1/2-y,1/4-z
-x,1/2+y,1/4-z
-y,1/2-x,1/4+z
y,1/2+x,1/4+z
1/2+x,1/2+y,1/2+z
1/2+y,1/2-x,1/2-z
1/2-x,1/2-y,1/2+z
1/2-y,1/2+x,1/2-z
1/2+x,-y,3/4-z
1/2-x,y,3/4-z
1/2-y,-x,3/4+z
1/2+y,x,3/4+z
loop_
_atom_site_type_symbol
_atom_site_label
_atom_site_fract_x
_atom_site_fract_y
_atom_site_fract_z
Si Si1 0.139260 0.417463 0.725604
Si Si2 0.576228 0.354363 0.814958
Si Si3 0.566210 0.365110 0.251141
Si Si4 0.500000 0.000000 0.750000
Si Si5 0.124121 0.367697 0.152178
O O1 0.041817 0.367942 0.763276
O O2 0.125960 0.403809 0.645071
O O3 0.250871 0.382405 0.754149
O O4 0.456622 0.373137 0.789497
O O5 0.635216 0.447336 0.775817
O O6 0.612388 0.234626 0.809639
O O7 0.565139 0.383401 0.332507
O O8 0.595951 0.034068 0.797387
O O9 0.117755 0.250000 0.125000
#
# Coordination Sequence:
#
# PCOD9560978 Si02
#       5
#    16  16  16   4  16
#     4  10  21  34  56  93 126 172 220 262 321 386
#     4  10  22  39  62  90 128 168 209 272 324 372
#     4  10  21  39  63  90 130 170 210 268 324 380
#     4  12  24  44  72  92 128 168 210 272 320 396
#     4  11  25  43  68  98 126 170 217 267 327 392
#
# _framework density 21.196576
#
# number of rings (size 3 to 8) (size 9 to 14) (size 15 to 20)
#    0.000    1.647    0.000    5.647    6.588    2.824 
#    0.000    0.000    0.000    0.000    0.000    0.000 
#    0.000    0.000    0.000    0.000    0.000    0.000 
#
# Total GULP energy -189824.823294 kJ/mol
# GULP energy per Si atom -5583.083038 kJ/mol
# Density = 2.114833 g / cm^3
# Si number density = 21.196576 Si / 1000 Ang^3
#
#
#
# Elastic Constant Matrix: (Units=GPa)
#
#
# Indices 1 2 3 4 5 6 
#
# 1 95.8630 17.2969 32.5717 0.0000 0.0000 0.0000
# 2 17.2969 95.8630 32.5717 0.0000 0.0000 0.0000
# 3 32.5717 32.5717 75.6887 0.0000 0.0000 0.0000
# 4 0.0000 0.0000 0.0000 30.1689 0.0000 0.0000
# 5 0.0000 0.0000 0.0000 0.0000 30.1689 0.0000
# 6 0.0000 0.0000 0.0000 0.0000 0.0000 3.5138
#
#
#
# Elastic Compliance Matrix: (Units=1/GPa)
#
#
# Indices 1 2 3 4 5 6 
#
# 1 0.012238 -0.000490 -0.005055 0.000000 0.000000 0.000000
# 2 -0.000490 0.012238 -0.005055 0.000000 0.000000 0.000000
# 3 -0.005055 -0.005055 0.017563 0.000000 0.000000 0.000000
# 4 0.000000 0.000000 0.000000 0.033147 0.000000 0.000000
# 5 0.000000 0.000000 0.000000 0.000000 0.033147 0.000000
# 6 0.000000 0.000000 0.000000 0.000000 0.000000 0.284590
#
#
# Mechanical properties :
#
#
# Convention : Reuss Voigt Hill
#
# Bulk Modulus (GPa) = 47.99308 48.03281 48.01295
# Shear Modulus (GPa) = 11.87455 25.10198 18.48826
#
# Velocity S-wave (km/s) = 2.36944 3.44502 2.95656
# Velocity P-wave (km/s) = 5.49334 6.20758 5.86135
#
# Compressibility (1/GPa) = 0.02083634
#
# Stress axis : x y z
#
# Youngs Moduli (GPa) = 81.71476 81.71476 56.93794
#
# Poissons Ratio (x) = 0.04008 0.28784
# Poissons Ratio (y) = 0.04008 0.28784
# Poissons Ratio (z) = 0.41309 0.41309
#
# Static dielectric constant tensor:
#      x y z
#    x 1.817560 0.000000 0.000000 
#    y 0.000000 1.817560 0.000000 
#    z 0.000000 0.000000 1.720430 
# 
# From -- ./inp_files/7029.got.cif
#   From: 2010.05.17/outbox.cif.g08.bks.cpg/sg122_4_cif.got.tgz:7029.got - 2010.05.20 11:37:33.
