data_PCOD9560620
_publ_section_title
;
Structure prediction by ZEFSAII (Michael W. Deem and Ramdas Pophale) SiO2 
 PCOD9560620
Probable space group: I -4 2 M
;
_chemical_formula_sum "Si O2"
_cell_formula_units_Z 68
_cell_length_a 16.608695
_cell_length_b 16.608695
_cell_length_c 14.988431
_cell_angle_alpha 90.000000
_cell_angle_beta 90.000000
_cell_angle_gamma 90.000000
_cell_volume 4134.539950
_symmetry_space_group_name_H-M "I -4 2 M"
_symmetry_group_IT_number 121
_symmetry_cell_setting 'tetragonal'
loop_
_space_group_symop_operation_xyz
x,y,z
y,-x,-z
-x,-y,z
-y,x,-z
x,-y,-z
-x,y,-z
-y,-x,z
y,x,z
1/2+x,1/2+y,1/2+z
1/2+y,1/2-x,1/2-z
1/2-x,1/2-y,1/2+z
1/2-y,1/2+x,1/2-z
1/2+x,1/2-y,1/2-z
1/2-x,1/2+y,1/2-z
1/2-y,1/2-x,1/2+z
1/2+y,1/2+x,1/2+z
loop_
_atom_site_type_symbol
_atom_site_label
_atom_site_fract_x
_atom_site_fract_y
_atom_site_fract_z
Si Si1 0.000000 0.000000 0.867754
Si Si2 0.095325 0.402954 0.500001
Si Si3 1.000000 0.807397 0.107861
Si Si4 0.658687 0.789996 0.348516
Si Si5 0.289997 0.841313 0.848514
O O1 0.098693 1.000000 0.872623
O O2 0.110058 0.500000 0.500000
O O3 0.137585 0.362251 0.415026
O O4 0.137584 0.362251 0.584977
O O5 0.000000 0.391037 0.500000
O O6 0.079533 0.765891 0.147250
O O7 0.920466 0.765891 0.147250
O O8 0.000000 0.797327 0.000000
O O9 0.734380 0.734380 0.377184
O O10 0.677761 0.822239 0.250001
O O11 0.234381 0.765620 0.877181
#
# Coordination Sequence:
#
# PCOD9560620 Si02
#       5
#     4  16  16  16  16
#     4  12  25  32  68  96 120 157 178 245 320 356
#     4  11  23  38  58  84 116 156 193 239 288 343
#     4  12  21  38  60  93 122 149 192 241 307 362
#     4  11  23  38  59  85 118 155 195 241 291 346
#     4  11  23  38  59  85 118 155 195 241 291 346
#
# _framework density 16.446812000000001
#
# number of rings (size 3 to 8) (size 9 to 14) (size 15 to 20)
#    0.000    0.706    7.059    1.765    3.294    0.000 
#    0.000    2.353    0.000    0.000    0.000    0.000 
#    0.000    3.765    0.000    0.000    0.000    0.000 
#
# Total GULP energy -189341.545914 kJ/mol
# GULP energy per Si atom -5568.868997 kJ/mol
# Density = 1.640938 g / cm^3
# Si number density = 16.446812 Si / 1000 Ang^3
#
#
#
# Elastic Constant Matrix: (Units=GPa)
#
#
# Indices 1 2 3 4 5 6 
#
# 1 161.1033 75.5201 71.6803 0.0000 0.0000 0.0000
# 2 75.5201 161.1042 71.6802 0.0000 0.0000 0.0000
# 3 71.6803 71.6802 97.9204 0.0000 0.0000 0.0000
# 4 0.0000 0.0000 0.0000 -19.9028 0.0000 0.0000
# 5 0.0000 0.0000 0.0000 0.0000 -19.9075 0.0000
# 6 0.0000 0.0000 0.0000 0.0000 0.0000 21.5971
#
#
#
# Elastic Compliance Matrix: (Units=1/GPa)
#
#
# Indices 1 2 3 4 5 6 
#
# 1 0.009639 -0.002045 -0.005559 0.000000 0.000000 0.000000
# 2 -0.002045 0.009639 -0.005559 0.000000 0.000000 0.000000
# 3 -0.005559 -0.005559 0.018351 0.000000 0.000000 0.000000
# 4 0.000000 0.000000 0.000000 -0.050244 0.000000 0.000000
# 5 0.000000 0.000000 0.000000 0.000000 -0.050232 0.000000
# 6 0.000000 0.000000 0.000000 0.000000 0.000000 0.046302
#
#
# Mechanical properties :
#
#
# Convention : Reuss Voigt Hill
#
# Bulk Modulus (GPa) = 88.47167 95.32100 91.89634
# Shear Modulus (GPa) = 368.99742 9.77385 189.38563
#
# Velocity S-wave (km/s) = 14.99483 2.44041 10.74246
# Velocity P-wave (km/s) = 18.80699 8.12550 14.48666
#
# Compressibility (1/GPa) = 0.01130305
#
# Stress axis : x y z
#
# Youngs Moduli (GPa) = 103.74137 103.74227 54.49229
#
# Poissons Ratio (x) = 0.21217 0.30293
# Poissons Ratio (y) = 0.21217 0.30293
# Poissons Ratio (z) = 0.57671 0.57671
#
# Static dielectric constant tensor:
#      x y z
#    x 1.542070 0.000000 0.000000 
#    y 0.000000 1.542070 0.000000 
#    z 0.000000 0.000000 1.538400 
# 
# From -- ./inp_files/4154.got.cif
#   From: 2010.05.17/outbox.cif.g08.bks.cpg/sg121_3_cif.got.tgz:4154.got - 2010.05.20 11:32:06.
