data_PCOD9560338
_publ_section_title
;
Structure prediction by ZEFSAII (Michael W. Deem and Ramdas Pophale) SiO2 
 PCOD9560338
Probable space group: I -4 2 M
;
_chemical_formula_sum "Si O2"
_cell_formula_units_Z 128
_cell_length_a 24.235000
_cell_length_b 24.235000
_cell_length_c 11.997871
_cell_angle_alpha 90.000000
_cell_angle_beta 90.000000
_cell_angle_gamma 90.000000
_cell_volume 7046.772263
_symmetry_space_group_name_H-M "I -4 2 M"
_symmetry_group_IT_number 121
_symmetry_cell_setting 'tetragonal'
loop_
_space_group_symop_operation_xyz
x,y,z
y,-x,-z
-x,-y,z
-y,x,-z
x,-y,-z
-x,y,-z
-y,-x,z
y,x,z
1/2+x,1/2+y,1/2+z
1/2+y,1/2-x,1/2-z
1/2-x,1/2-y,1/2+z
1/2-y,1/2+x,1/2-z
1/2+x,1/2-y,1/2-z
1/2-x,1/2+y,1/2-z
1/2-y,1/2-x,1/2+z
1/2+y,1/2+x,1/2+z
loop_
_atom_site_type_symbol
_atom_site_label
_atom_site_fract_x
_atom_site_fract_y
_atom_site_fract_z
Si Si1 0.641190 0.828931 0.036276
Si Si2 0.750571 0.058568 0.162395
Si Si3 0.211517 0.125016 0.620078
Si Si4 0.943777 0.643629 0.340682
Si Si5 0.768803 0.861349 0.034354
Si Si6 0.855148 0.943000 0.439173
Si Si7 0.766638 0.061052 0.762061
Si Si8 0.636028 0.066508 0.267361
O O1 0.640974 0.763150 0.044005
O O2 0.704079 0.846540 0.020980
O O3 0.617935 0.847767 0.155220
O O4 0.595547 0.849953 0.948507
O O5 0.769915 0.088204 0.276192
O O6 0.683509 0.059831 0.172974
O O7 0.768562 0.995329 0.167074
O O8 0.775663 0.092018 0.060120
O O9 0.178817 0.178817 0.660059
O O10 0.173322 0.090050 0.539429
O O11 0.934815 0.703266 0.281047
O O12 0.921158 0.587920 0.282648
O O13 0.010297 0.637343 0.339921
O O14 0.809562 0.809562 0.017956
O O15 0.778272 0.887962 0.156161
O O16 0.908223 0.908223 0.400365
O O17 0.809800 0.945692 0.339883
O O18 0.870083 0.000000 0.500000
#
# Coordination Sequence:
#
# PCOD9560338 Si02
#       8
#    16  16  16  16  16  16  16  16
#     4  11  21  38  56  89 122 156 194 247 314 369
#     4  10  21  38  61  81 119 163 206 245 295 356
#     4  10  20  35  59  88 116 150 197 246 300 366
#     4  11  21  39  60  84 118 155 204 253 304 355
#     4  12  24  38  59  89 127 161 198 247 305 367
#     4  11  22  39  64  93 122 154 197 248 304 365
#     4  11  22  40  61  87 122 164 202 248 296 362
#     4  10  22  37  61  84 113 157 203 257 299 356
#
# _framework density 18.164345000000001
#
# number of rings (size 3 to 8) (size 9 to 14) (size 15 to 20)
#    0.000    1.250    5.000    1.875    0.000    0.375 
#    0.000    1.875    0.000    1.500    0.000    0.000 
#    0.000    2.000    0.000    0.000    0.000    0.000 
#
# Total GULP energy -356580.918552 kJ/mol
# GULP energy per Si atom -5571.576852 kJ/mol
# Density = 1.812300 g / cm^3
# Si number density = 18.164345 Si / 1000 Ang^3
#
#
#
# Elastic Constant Matrix: (Units=GPa)
#
#
# Indices 1 2 3 4 5 6 
#
# 1 81.9164 52.9466 19.5065 0.0000 0.0000 0.0000
# 2 52.9466 81.9164 19.5065 0.0000 0.0000 0.0000
# 3 19.5065 19.5065 47.1587 0.0000 0.0000 0.0000
# 4 0.0000 0.0000 0.0000 24.8767 0.0000 0.0000
# 5 0.0000 0.0000 0.0000 0.0000 24.8767 0.0000
# 6 0.0000 0.0000 0.0000 0.0000 0.0000 25.0314
#
#
#
# Elastic Compliance Matrix: (Units=1/GPa)
#
#
# Indices 1 2 3 4 5 6 
#
# 1 0.021471 -0.013048 -0.003484 0.000000 0.000000 0.000000
# 2 -0.013048 0.021471 -0.003484 0.000000 0.000000 0.000000
# 3 -0.003484 -0.003484 0.024087 0.000000 0.000000 0.000000
# 4 0.000000 0.000000 0.000000 0.040198 0.000000 0.000000
# 5 0.000000 0.000000 0.000000 0.000000 0.040198 0.000000
# 6 0.000000 0.000000 0.000000 0.000000 0.000000 0.039950
#
#
# Mechanical properties :
#
#
# Convention : Reuss Voigt Hill
#
# Bulk Modulus (GPa) = 37.04128 43.87895 40.46012
# Shear Modulus (GPa) = 21.15007 22.89242 22.02124
#
# Velocity S-wave (km/s) = 3.41599 3.55391 3.48564
# Velocity P-wave (km/s) = 5.99960 6.40699 6.20664
#
# Compressibility (1/GPa) = 0.02699690
#
# Stress axis : x y z
#
# Youngs Moduli (GPa) = 46.57492 46.57492 41.51588
#
# Poissons Ratio (x) = 0.60771 0.14464
# Poissons Ratio (y) = 0.60771 0.14464
# Poissons Ratio (z) = 0.16226 0.16226
#
# Static dielectric constant tensor:
#      x y z
#    x 1.657250 0.000000 0.000000 
#    y 0.000000 1.657250 0.000000 
#    z 0.000000 0.000000 1.635070 
# 
# From -- ./inp_files/3541.got.cif
#   From: 2010.05.17/outbox.cif.g08.bks.cpg/sg121_2_cif.got.tgz:3541.got - 2010.05.20 11:32:06.
