data_PCOD9560648
_publ_section_title
;
Structure prediction by ZEFSAII (Michael W. Deem and Ramdas Pophale) SiO2 
 PCOD9560648
Probable space group: I -4 2 M
;
_chemical_formula_sum "Si O2"
_cell_formula_units_Z 34
_cell_length_a 10.414186
_cell_length_b 10.414186
_cell_length_c 15.722065
_cell_angle_alpha 90.000000
_cell_angle_beta 90.000000
_cell_angle_gamma 90.000000
_cell_volume 1705.140805
_symmetry_space_group_name_H-M "I -4 2 M"
_symmetry_group_IT_number 121
_symmetry_cell_setting 'tetragonal'
loop_
_space_group_symop_operation_xyz
x,y,z
y,-x,-z
-x,-y,z
-y,x,-z
x,-y,-z
-x,y,-z
-y,-x,z
y,x,z
1/2+x,1/2+y,1/2+z
1/2+y,1/2-x,1/2-z
1/2-x,1/2-y,1/2+z
1/2-y,1/2+x,1/2-z
1/2+x,1/2-y,1/2-z
1/2-x,1/2+y,1/2-z
1/2-y,1/2-x,1/2+z
1/2+y,1/2+x,1/2+z
loop_
_atom_site_type_symbol
_atom_site_label
_atom_site_fract_x
_atom_site_fract_y
_atom_site_fract_z
Si Si1 0.328731 0.328731 0.126523
Si Si2 0.891995 0.891995 0.819718
Si Si3 0.000000 0.000000 0.500000
Si Si4 0.973339 0.643035 0.100908
O O1 0.373712 0.373712 0.219278
O O2 0.409579 0.409579 0.057810
O O3 0.177288 0.344084 0.115770
O O4 0.757056 0.943021 0.857692
O O5 0.000000 0.000000 0.837576
O O6 0.000000 0.500000 0.133881
O O7 0.000000 0.647217 0.000000
#
# Coordination Sequence:
#
# PCOD9560648 Si02
#       4
#     8   8   2  16
#     4  12  27  45  71 105 139 190 237 292 357 417
#     4  12  27  46  75 105 146 189 231 296 356 418
#     4  12  24  48  68  96 150 180 240 304 348 428
#     4  11  26  47  73 105 140 190 237 291 354 420
#
# _framework density 19.939703000000002
#
# number of rings (size 3 to 8) (size 9 to 14) (size 15 to 20)
#    0.000    0.471    3.529    4.235    6.588    1.882 
#    0.000    0.000    0.000    0.000    0.000    0.000 
#    0.000    0.000    0.000    0.000    0.000    0.000 
#
# Total GULP energy -95063.396231 kJ/mol
# GULP energy per Si atom -5591.964484 kJ/mol
# Density = 1.989432 g / cm^3
# Si number density = 19.939703 Si / 1000 Ang^3
#
#
#
# Elastic Constant Matrix: (Units=GPa)
#
#
# Indices 1 2 3 4 5 6 
#
# 1 209.6996 122.5753 60.5844 0.0000 0.0000 0.0000
# 2 122.5753 209.6996 60.5844 0.0000 0.0000 0.0000
# 3 60.5844 60.5844 115.3061 0.0000 0.0000 0.0000
# 4 0.0000 0.0000 0.0000 34.6994 0.0000 0.0000
# 5 0.0000 0.0000 0.0000 0.0000 34.6994 0.0000
# 6 0.0000 0.0000 0.0000 0.0000 0.0000 32.9225
#
#
#
# Elastic Compliance Matrix: (Units=1/GPa)
#
#
# Indices 1 2 3 4 5 6 
#
# 1 0.007600 -0.003877 -0.001956 0.000000 0.000000 0.000000
# 2 -0.003877 0.007600 -0.001956 0.000000 0.000000 0.000000
# 3 -0.001956 -0.001956 0.010728 0.000000 0.000000 0.000000
# 4 0.000000 0.000000 0.000000 0.028819 0.000000 0.000000
# 5 0.000000 0.000000 0.000000 0.000000 0.028819 0.000000
# 6 0.000000 0.000000 0.000000 0.000000 0.000000 0.030374
#
#
# Mechanical properties :
#
#
# Convention : Reuss Voigt Hill
#
# Bulk Modulus (GPa) = 96.62279 113.57704 105.09992
# Shear Modulus (GPa) = 37.60242 39.86168 38.73205
#
# Velocity S-wave (km/s) = 4.34730 4.47599 4.41211
# Velocity P-wave (km/s) = 8.58844 9.15405 8.87575
#
# Compressibility (1/GPa) = 0.01034953
#
# Stress axis : x y z
#
# Youngs Moduli (GPa) = 131.57268 131.57268 93.21314
#
# Poissons Ratio (x) = 0.51017 0.18233
# Poissons Ratio (y) = 0.51017 0.18233
# Poissons Ratio (z) = 0.25737 0.25737
#
# Static dielectric constant tensor:
#      x y z
#    x 1.672190 0.000000 0.000000 
#    y 0.000000 1.672190 0.000000 
#    z 0.000000 0.000000 1.685060 
# 
# From -- ./inp_files/3731.got.cif
#   From: 2010.05.17/outbox.cif.g08.bks.cpg/sg121_2_cif.got.tgz:3731.got - 2010.05.20 11:32:06.
