data_PCOD9560204
_publ_section_title
;
Structure prediction by ZEFSAII (Michael W. Deem and Ramdas Pophale) SiO2 
 PCOD9560204
Probable space group: I -4 2 M
;
_chemical_formula_sum "Si O2"
_cell_formula_units_Z 84
_cell_length_a 19.851941
_cell_length_b 19.851941
_cell_length_c 13.366709
_cell_angle_alpha 90.000000
_cell_angle_beta 90.000000
_cell_angle_gamma 90.000000
_cell_volume 5267.814155
_symmetry_space_group_name_H-M "I -4 2 M"
_symmetry_group_IT_number 121
_symmetry_cell_setting 'tetragonal'
loop_
_space_group_symop_operation_xyz
x,y,z
y,-x,-z
-x,-y,z
-y,x,-z
x,-y,-z
-x,y,-z
-y,-x,z
y,x,z
1/2+x,1/2+y,1/2+z
1/2+y,1/2-x,1/2-z
1/2-x,1/2-y,1/2+z
1/2-y,1/2+x,1/2-z
1/2+x,1/2-y,1/2-z
1/2-x,1/2+y,1/2-z
1/2-y,1/2-x,1/2+z
1/2+y,1/2+x,1/2+z
loop_
_atom_site_type_symbol
_atom_site_label
_atom_site_fract_x
_atom_site_fract_y
_atom_site_fract_z
Si Si1 0.105219 0.105219 0.659245
Si Si2 0.131377 0.382320 0.753521
Si Si3 0.900493 0.900493 0.420938
Si Si4 0.500000 0.500000 0.812743
Si Si5 0.255118 0.078279 0.393918
Si Si6 0.419983 0.760683 0.875204
Si Si7 0.081143 0.495790 0.381970
O O1 0.092702 0.092702 0.540396
O O2 0.185156 0.090876 0.666877
O O3 0.056317 0.056317 0.724652
O O4 0.202531 0.383404 0.810106
O O5 0.116817 0.314590 0.693259
O O6 0.118221 0.444320 0.677334
O O7 0.074531 0.393399 0.838001
O O8 0.825197 0.917262 0.386428
O O9 0.951575 0.951575 0.373285
O O10 0.267641 0.101918 0.508359
O O11 0.274945 0.999992 0.380346
O O12 0.093133 0.500000 0.500000
O O13 0.000000 0.500000 0.366329
#
# Coordination Sequence:
#
# PCOD9560204 Si02
#       7
#     8  16   8   4  16  16  16
#     4  10  19  31  51  79 103 130 161 202 257 313
#     4  12  19  33  48  68 100 140 172 208 250 296
#     4  10  19  31  51  79 103 130 161 202 257 313
#     4  12  17  28  56  80 100 124 161 202 249 312
#     4  10  20  33  50  74 105 134 167 210 256 302
#     4  10  20  33  50  74 105 134 167 210 256 302
#     4  11  20  31  47  69  93 129 182 221 243 279
#
# _framework density 15.945893
#
# number of rings (size 3 to 8) (size 9 to 14) (size 15 to 20)
#    0.000    1.333    5.714    2.000    0.000    3.810 
#    0.000    0.000    0.000    0.000    0.000    0.000 
#    0.000    0.000    0.000   11.619    0.000    0.952 
#
# Total GULP energy -234149.394530 kJ/mol
# GULP energy per Si atom -5574.985584 kJ/mol
# Density = 1.590960 g / cm^3
# Si number density = 15.945893 Si / 1000 Ang^3
#
#
#
# Elastic Constant Matrix: (Units=GPa)
#
#
# Indices 1 2 3 4 5 6 
#
# 1 83.6920 12.3763 33.0241 0.0000 0.0000 0.0000
# 2 12.3763 83.6920 33.0241 0.0000 0.0000 0.0000
# 3 33.0241 33.0241 79.8364 0.0000 0.0000 0.0000
# 4 0.0000 0.0000 0.0000 8.7131 0.0000 0.0000
# 5 0.0000 0.0000 0.0000 0.0000 8.7131 0.0000
# 6 0.0000 0.0000 0.0000 0.0000 0.0000 26.2043
#
#
#
# Elastic Compliance Matrix: (Units=1/GPa)
#
#
# Indices 1 2 3 4 5 6 
#
# 1 0.014284 0.000262 -0.006017 0.000000 0.000000 0.000000
# 2 0.000262 0.014284 -0.006017 0.000000 0.000000 0.000000
# 3 -0.006017 -0.006017 0.017503 0.000000 0.000000 0.000000
# 4 0.000000 0.000000 0.000000 0.114770 0.000000 0.000000
# 5 0.000000 0.000000 0.000000 0.000000 0.114770 0.000000
# 6 0.000000 0.000000 0.000000 0.000000 0.000000 0.038162
#
#
# Mechanical properties :
#
#
# Convention : Reuss Voigt Hill
#
# Bulk Modulus (GPa) = 44.38980 44.89659 44.64320
# Shear Modulus (GPa) = 14.50006 19.97914 17.23960
#
# Velocity S-wave (km/s) = 3.01878 3.54352 3.29162
# Velocity P-wave (km/s) = 6.32842 6.70513 6.51950
#
# Compressibility (1/GPa) = 0.02252770
#
# Stress axis : x y z
#
# Youngs Moduli (GPa) = 70.00809 70.00809 57.13188
#
# Poissons Ratio (x) = -0.01834 0.34376
# Poissons Ratio (y) = -0.01834 0.34376
# Poissons Ratio (z) = 0.42123 0.42123
#
# Static dielectric constant tensor:
#      x y z
#    x 1.547820 0.000000 0.000000 
#    y 0.000000 1.547820 0.000000 
#    z 0.000000 0.000000 1.516330 
# 
# From -- ./inp_files/3271.got.cif
#   From: 2010.05.17/outbox.cif.g08.bks.cpg/sg121_2_cif.got.tgz:3271.got - 2010.05.20 11:32:06.
