data_PCOD9560783
_publ_section_title
;
Structure prediction by ZEFSAII (Michael W. Deem and Ramdas Pophale) SiO2 
 PCOD9560783
Probable space group: I -4 2 D
;
_chemical_formula_sum "Si O2"
_cell_formula_units_Z 112
_cell_length_a 14.290449
_cell_length_b 14.290449
_cell_length_c 30.359795
_cell_angle_alpha 90.000000
_cell_angle_beta 90.000000
_cell_angle_gamma 90.000000
_cell_volume 6199.984210
_symmetry_space_group_name_H-M "I -4 2 D"
_symmetry_group_IT_number 122
_symmetry_cell_setting 'tetragonal'
loop_
_space_group_symop_operation_xyz
x,y,z
y,-x,-z
-x,-y,z
-y,x,-z
x,1/2-y,1/4-z
-x,1/2+y,1/4-z
-y,1/2-x,1/4+z
y,1/2+x,1/4+z
1/2+x,1/2+y,1/2+z
1/2+y,1/2-x,1/2-z
1/2-x,1/2-y,1/2+z
1/2-y,1/2+x,1/2-z
1/2+x,-y,3/4-z
1/2-x,y,3/4-z
1/2-y,-x,3/4+z
1/2+y,x,3/4+z
loop_
_atom_site_type_symbol
_atom_site_label
_atom_site_fract_x
_atom_site_fract_y
_atom_site_fract_z
Si Si1 0.338547 0.210605 0.938879
Si Si2 0.217287 0.596577 0.924912
Si Si3 0.141271 0.501246 0.234835
Si Si4 0.918214 0.633979 0.750484
Si Si5 0.064575 0.656253 0.988367
Si Si6 0.125414 0.221166 0.910546
Si Si7 0.076432 0.068168 0.323082
O O1 0.225352 0.216299 0.935627
O O2 0.367720 0.188235 0.889336
O O3 0.377516 0.308171 0.958157
O O4 0.375486 0.131459 0.972360
O O5 0.250000 0.613360 0.875000
O O6 0.304873 0.605118 0.957368
O O7 0.133450 0.660096 0.945383
O O8 0.170002 0.493243 0.929328
O O9 0.074243 0.411715 0.233616
O O10 0.242368 0.471727 0.251408
O O11 0.162024 0.552138 0.188861
O O12 0.876406 0.530291 0.746979
O O13 0.976231 0.595160 0.972734
O O14 0.096591 0.330484 0.907386
O O15 0.000000 0.000000 0.346562
#
# Coordination Sequence:
#
# PCOD9560783 Si02
#       7
#    16  16  16  16  16  16  16
#     4  10  20  36  57  83 120 149 194 242 296 354
#     4  10  21  36  58  83 116 153 198 238 286 353
#     4  10  19  35  62  87 111 146 199 242 298 357
#     4  10  22  36  52  80 119 153 187 235 294 346
#     4   9  19  38  57  85 115 156 192 244 291 353
#     4  10  20  33  60  88 111 153 198 243 299 357
#     4   9  19  33  55  85 110 150 202 231 285 352
#
# _framework density 18.064561000000001
#
# number of rings (size 3 to 8) (size 9 to 14) (size 15 to 20)
#    0.000    2.286    1.429    0.857    4.000    3.429 
#    2.571    0.000   15.714    3.429    0.000    0.000 
#    0.000    0.000    0.000    0.000    0.000    0.000 
#
# Total GULP energy -311853.709655 kJ/mol
# GULP energy per Si atom -5568.816244 kJ/mol
# Density = 1.802345 g / cm^3
# Si number density = 18.064561 Si / 1000 Ang^3
#
#
#
# Elastic Constant Matrix: (Units=GPa)
#
#
# Indices 1 2 3 4 5 6 
#
# 1 47.7282 4.0751 17.9428 0.0000 0.0000 0.0000
# 2 4.0751 47.7282 17.9428 0.0000 0.0000 0.0000
# 3 17.9428 17.9428 77.0096 0.0000 0.0000 0.0000
# 4 0.0000 0.0000 0.0000 15.5205 0.0000 0.0000
# 5 0.0000 0.0000 0.0000 0.0000 15.5205 0.0000
# 6 0.0000 0.0000 0.0000 0.0000 0.0000 29.5501
#
#
#
# Elastic Compliance Matrix: (Units=1/GPa)
#
#
# Indices 1 2 3 4 5 6 
#
# 1 0.022963 0.000056 -0.005363 0.000000 0.000000 0.000000
# 2 0.000056 0.022963 -0.005363 0.000000 0.000000 0.000000
# 3 -0.005363 -0.005363 0.015485 0.000000 0.000000 0.000000
# 4 0.000000 0.000000 0.000000 0.064431 0.000000 0.000000
# 5 0.000000 0.000000 0.000000 0.000000 0.064431 0.000000
# 6 0.000000 0.000000 0.000000 0.000000 0.000000 0.033841
#
#
# Mechanical properties :
#
#
# Convention : Reuss Voigt Hill
#
# Bulk Modulus (GPa) = 24.95659 28.04305 26.49982
# Shear Modulus (GPa) = 19.31897 20.95190 20.13544
#
# Velocity S-wave (km/s) = 3.27378 3.40933 3.34224
# Velocity P-wave (km/s) = 5.30428 5.57275 5.44017
#
# Compressibility (1/GPa) = 0.04006957
#
# Stress axis : x y z
#
# Youngs Moduli (GPa) = 43.54738 43.54737 64.58008
#
# Poissons Ratio (x) = -0.00242 0.34636
# Poissons Ratio (y) = -0.00242 0.34636
# Poissons Ratio (z) = 0.23356 0.23356
#
# Static dielectric constant tensor:
#      x y z
#    x 1.643890 0.000000 0.000000 
#    y 0.000000 1.643890 0.000000 
#    z 0.000000 0.000000 1.605760 
# 
# From -- ./inp_files/8810.got.cif
#   From: 2010.05.17/outbox.cif.g08.bks.cpg/sg122_5_cif.got.tgz:8810.got - 2010.05.20 11:37:33.
