data_PCOD9560861
_publ_section_title
;
Structure prediction by ZEFSAII (Michael W. Deem and Ramdas Pophale) SiO2 
 PCOD9560861
Probable space group: I -4 2 D
;
_chemical_formula_sum "Si O2"
_cell_formula_units_Z 96
_cell_length_a 21.979450
_cell_length_b 21.979450
_cell_length_c 10.327774
_cell_angle_alpha 90.000000
_cell_angle_beta 90.000000
_cell_angle_gamma 90.000000
_cell_volume 4989.308604
_symmetry_space_group_name_H-M "I -4 2 D"
_symmetry_group_IT_number 122
_symmetry_cell_setting 'tetragonal'
loop_
_space_group_symop_operation_xyz
x,y,z
y,-x,-z
-x,-y,z
-y,x,-z
x,1/2-y,1/4-z
-x,1/2+y,1/4-z
-y,1/2-x,1/4+z
y,1/2+x,1/4+z
1/2+x,1/2+y,1/2+z
1/2+y,1/2-x,1/2-z
1/2-x,1/2-y,1/2+z
1/2-y,1/2+x,1/2-z
1/2+x,-y,3/4-z
1/2-x,y,3/4-z
1/2-y,-x,3/4+z
1/2+y,x,3/4+z
loop_
_atom_site_type_symbol
_atom_site_label
_atom_site_fract_x
_atom_site_fract_y
_atom_site_fract_z
Si Si1 0.680680 0.867149 0.896660
Si Si2 0.456532 0.337761 0.052009
Si Si3 0.466750 0.064624 0.574424
Si Si4 0.427981 0.277385 0.326982
Si Si5 0.626879 0.554751 0.122735
Si Si6 0.025279 0.645873 0.294873
O O1 0.750000 0.848584 0.875000
O O2 0.633835 0.811429 0.885542
O O3 0.665302 0.917178 0.788488
O O4 0.666348 0.901787 0.032891
O O5 0.448694 0.307300 0.191258
O O6 0.428271 0.404378 0.069529
O O7 0.421469 0.293839 0.950602
O O8 0.524535 0.339267 0.997524
O O9 0.497810 0.102382 0.458529
O O10 0.395298 0.048894 0.585035
O O11 0.484824 0.100778 0.705302
O O12 0.500000 0.000000 0.572696
O O13 0.482451 0.297347 0.421288
#
# Coordination Sequence:
#
# PCOD9560861 Si02
#       6
#    16  16  16  16  16  16
#     4  10  20  36  60  85 111 153 196 236 292 348
#     4  10  22  38  55  79 119 152 187 232 282 367
#     4  11  18  29  51  84 119 141 181 243 303 343
#     4  10  21  38  58  80 113 158 193 233 290 345
#     4  10  23  34  54  88 114 153 185 235 299 346
#     4  11  17  32  55  85 114 144 191 244 296 343
#
# _framework density 19.241143000000001
#
# number of rings (size 3 to 8) (size 9 to 14) (size 15 to 20)
#    0.000    1.667    3.333    3.000    4.667    0.000 
#    0.000    0.000    3.667    6.000    0.000    0.000 
#    0.000    0.000    0.000    0.000    0.000    0.000 
#
# Total GULP energy -267737.638262 kJ/mol
# GULP energy per Si atom -5577.867464 kJ/mol
# Density = 1.919735 g / cm^3
# Si number density = 19.241143 Si / 1000 Ang^3
#
#
#
# Elastic Constant Matrix: (Units=GPa)
#
#
# Indices 1 2 3 4 5 6 
#
# 1 47.7404 18.8872 19.6160 0.0000 0.0000 0.0000
# 2 18.8872 47.7404 19.6160 0.0000 0.0000 0.0000
# 3 19.6160 19.6160 41.0899 0.0000 0.0000 0.0000
# 4 0.0000 0.0000 0.0000 18.4836 0.0000 0.0000
# 5 0.0000 0.0000 0.0000 0.0000 18.4836 0.0000
# 6 0.0000 0.0000 0.0000 0.0000 0.0000 5.4591
#
#
#
# Elastic Compliance Matrix: (Units=1/GPa)
#
#
# Indices 1 2 3 4 5 6 
#
# 1 0.027768 -0.006890 -0.009967 0.000000 0.000000 0.000000
# 2 -0.006890 0.027768 -0.009967 0.000000 0.000000 0.000000
# 3 -0.009967 -0.009967 0.033853 0.000000 0.000000 0.000000
# 4 0.000000 0.000000 0.000000 0.054102 0.000000 0.000000
# 5 0.000000 0.000000 0.000000 0.000000 0.054102 0.000000
# 6 0.000000 0.000000 0.000000 0.000000 0.000000 0.183181
#
#
# Mechanical properties :
#
#
# Convention : Reuss Voigt Hill
#
# Bulk Modulus (GPa) = 27.97910 28.08988 28.03449
# Shear Modulus (GPa) = 11.20236 13.71536 12.45886
#
# Velocity S-wave (km/s) = 2.41552 2.67275 2.54739
# Velocity P-wave (km/s) = 4.72784 4.91481 4.82223
#
# Compressibility (1/GPa) = 0.03574096
#
# Stress axis : x y z
#
# Youngs Moduli (GPa) = 36.01287 36.01287 29.53958
#
# Poissons Ratio (x) = 0.24814 0.29441
# Poissons Ratio (y) = 0.24814 0.29441
# Poissons Ratio (z) = 0.35893 0.35893
#
# Static dielectric constant tensor:
#      x y z
#    x 1.684950 0.000000 0.000000 
#    y 0.000000 1.684950 0.000000 
#    z 0.000000 0.000000 1.718240 
# 
# From -- ./inp_files/4458.got.cif
#   From: 2010.05.17/outbox.cif.g08.bks.cpg/sg122_3_cif.got.tgz:4458.got - 2010.05.20 11:37:33.
