data_PCOD9560918
_publ_section_title
;
Structure prediction by ZEFSAII (Michael W. Deem and Ramdas Pophale) SiO2 
 PCOD9560918
Probable space group: I -4 2 D
;
_chemical_formula_sum "Si O2"
_cell_formula_units_Z 48
_cell_length_a 8.919153
_cell_length_b 8.919153
_cell_length_c 25.355152
_cell_angle_alpha 90.000000
_cell_angle_beta 90.000000
_cell_angle_gamma 90.000000
_cell_volume 2017.035056
_symmetry_space_group_name_H-M "I -4 2 D"
_symmetry_group_IT_number 122
_symmetry_cell_setting 'tetragonal'
loop_
_space_group_symop_operation_xyz
x,y,z
y,-x,-z
-x,-y,z
-y,x,-z
x,1/2-y,1/4-z
-x,1/2+y,1/4-z
-y,1/2-x,1/4+z
y,1/2+x,1/4+z
1/2+x,1/2+y,1/2+z
1/2+y,1/2-x,1/2-z
1/2-x,1/2-y,1/2+z
1/2-y,1/2+x,1/2-z
1/2+x,-y,3/4-z
1/2-x,y,3/4-z
1/2-y,-x,3/4+z
1/2+y,x,3/4+z
loop_
_atom_site_type_symbol
_atom_site_label
_atom_site_fract_x
_atom_site_fract_y
_atom_site_fract_z
Si Si1 0.396829 0.178854 0.225578
Si Si2 0.856024 0.585664 0.106884
Si Si3 0.448412 0.713427 0.472982
O O1 0.574998 0.152772 0.224606
O O2 0.290474 0.116873 0.178790
O O3 0.363356 0.354018 0.229946
O O4 0.908694 0.750000 0.125000
O O5 0.808872 0.508035 0.162147
O O6 0.000000 0.500000 0.084291
O O7 0.587617 0.675125 0.509713
#
# Coordination Sequence:
#
# PCOD9560918 Si02
#       3
#    16  16  16
#     4  10  24  41  58  89 137 182 213 260 332 407
#     4  10  21  38  66  94 127 167 222 283 324 382
#     4  10  20  39  67 100 124 161 230 282 331 386
#
# _framework density 23.797308000000001
#
# number of rings (size 3 to 8) (size 9 to 14) (size 15 to 20)
#    0.000    2.000    3.333    0.000    9.333    0.000 
#    0.000   20.000    0.000    0.000    0.000    0.000 
#    0.000    0.000    0.000    0.000    0.000    0.000 
#
# Total GULP energy -133842.980972 kJ/mol
# GULP energy per Si atom -5576.790874 kJ/mol
# Density = 2.374314 g / cm^3
# Si number density = 23.797308 Si / 1000 Ang^3
#
#
#
# Elastic Constant Matrix: (Units=GPa)
#
#
# Indices 1 2 3 4 5 6 
#
# 1 50.1777 -1.7189 16.1162 0.0000 0.0000 0.0000
# 2 -1.7189 50.1777 16.1162 0.0000 0.0000 0.0000
# 3 16.1162 16.1162 128.7187 0.0000 0.0000 0.0000
# 4 0.0000 0.0000 0.0000 34.4758 0.0000 0.0000
# 5 0.0000 0.0000 0.0000 0.0000 34.4758 0.0000
# 6 0.0000 0.0000 0.0000 0.0000 0.0000 47.8429
#
#
#
# Elastic Compliance Matrix: (Units=1/GPa)
#
#
# Indices 1 2 3 4 5 6 
#
# 1 0.020890 0.001621 -0.002818 0.000000 0.000000 0.000000
# 2 0.001621 0.020890 -0.002818 0.000000 0.000000 0.000000
# 3 -0.002818 -0.002818 0.008475 0.000000 0.000000 0.000000
# 4 0.000000 0.000000 0.000000 0.029006 0.000000 0.000000
# 5 0.000000 0.000000 0.000000 0.000000 0.029006 0.000000
# 6 0.000000 0.000000 0.000000 0.000000 0.000000 0.020902
#
#
# Mechanical properties :
#
#
# Convention : Reuss Voigt Hill
#
# Bulk Modulus (GPa) = 23.68412 32.23345 27.95878
# Shear Modulus (GPa) = 33.05254 36.59626 34.82440
#
# Velocity S-wave (km/s) = 3.73086 3.92577 3.82956
# Velocity P-wave (km/s) = 5.34164 5.84152 5.59716
#
# Compressibility (1/GPa) = 0.04222239
#
# Stress axis : x y z
#
# Youngs Moduli (GPa) = 47.86992 47.86993 117.99906
#
# Poissons Ratio (x) = -0.07759 0.33257
# Poissons Ratio (y) = -0.07759 0.33257
# Poissons Ratio (z) = 0.13492 0.13492
#
# Static dielectric constant tensor:
#      x y z
#    x 1.937990 0.000000 0.000000 
#    y 0.000000 1.937990 0.000000 
#    z 0.000000 0.000000 1.988580 
# 
# From -- ./inp_files/9001.got.cif
#   From: 2010.05.17/outbox.cif.g08.bks.cpg/sg122_5_cif.got.tgz:9001.got - 2010.05.20 11:37:33.
