data_PCOD9560632
_publ_section_title
;
Structure prediction by ZEFSAII (Michael W. Deem and Ramdas Pophale) SiO2 
 PCOD9560632
Probable space group: I -4 2 M
;
_chemical_formula_sum "Si O2"
_cell_formula_units_Z 128
_cell_length_a 23.169897
_cell_length_b 23.169897
_cell_length_c 11.850608
_cell_angle_alpha 90.000000
_cell_angle_beta 90.000000
_cell_angle_gamma 90.000000
_cell_volume 6361.929306
_symmetry_space_group_name_H-M "I -4 2 M"
_symmetry_group_IT_number 121
_symmetry_cell_setting 'tetragonal'
loop_
_space_group_symop_operation_xyz
x,y,z
y,-x,-z
-x,-y,z
-y,x,-z
x,-y,-z
-x,y,-z
-y,-x,z
y,x,z
1/2+x,1/2+y,1/2+z
1/2+y,1/2-x,1/2-z
1/2-x,1/2-y,1/2+z
1/2-y,1/2+x,1/2-z
1/2+x,1/2-y,1/2-z
1/2-x,1/2+y,1/2-z
1/2-y,1/2-x,1/2+z
1/2+y,1/2+x,1/2+z
loop_
_atom_site_type_symbol
_atom_site_label
_atom_site_fract_x
_atom_site_fract_y
_atom_site_fract_z
Si Si1 0.135649 0.718069 0.383375
Si Si2 0.754230 0.563345 0.449738
Si Si3 0.326520 0.422644 0.242863
Si Si4 0.912237 0.746767 0.379930
Si Si5 0.635215 0.975576 0.375648
Si Si6 0.629424 0.465960 0.114433
Si Si7 0.863752 0.426130 0.712786
Si Si8 0.749111 0.343061 0.352988
O O1 0.105805 0.775210 0.332204
O O2 0.122851 0.720495 0.515614
O O3 0.107559 0.663622 0.319372
O O4 0.202675 0.706810 0.361815
O O5 0.748390 0.500000 0.500000
O O6 0.700814 0.574548 0.366715
O O7 0.811751 0.564492 0.373930
O O8 0.757651 0.611350 0.546698
O O9 0.379955 0.379955 0.236975
O O10 0.348840 0.485061 0.201566
O O11 0.967822 0.704950 0.367735
O O12 0.929080 0.812416 0.406774
O O13 0.876010 0.744928 0.265480
O O14 0.607575 0.913748 0.351044
O O15 0.621531 0.000000 0.500000
O O16 0.615423 0.015551 0.272428
O O17 0.577257 0.422744 0.147159
O O18 0.613418 0.500000 0.000000
O O19 0.687102 0.312899 0.360067
#
# Coordination Sequence:
#
# PCOD9560632 Si02
#       8
#    16  16  16  16  16  16  16  16
#     4  11  23  43  68 101 139 175 226 287 354 436
#     4  11  25  46  68  95 138 187 238 288 342 426
#     4  11  24  44  69  99 138 184 228 286 361 429
#     4  12  23  45  71 101 136 183 234 284 358 424
#     4  12  24  43  72  97 139 182 231 290 350 419
#     4  12  25  42  68 105 144 183 233 293 360 434
#     4  11  25  43  68 100 131 179 234 283 349 415
#     4  12  26  41  67 104 142 182 232 297 358 427
#
# _framework density 20.119683999999999
#
# number of rings (size 3 to 8) (size 9 to 14) (size 15 to 20)
#    0.000    0.500    3.750    5.625    1.750    2.625 
#    0.000    1.250    0.000    0.000    0.000    0.000 
#    0.000    0.000    0.000    0.000    0.000    0.000 
#
# Total GULP energy -357876.658517 kJ/mol
# GULP energy per Si atom -5591.822789 kJ/mol
# Density = 2.007389 g / cm^3
# Si number density = 20.119684 Si / 1000 Ang^3
#
#
#
# Elastic Constant Matrix: (Units=GPa)
#
#
# Indices 1 2 3 4 5 6 
#
# 1 69.6497 50.4101 38.1622 0.0000 0.0000 0.0000
# 2 50.4101 69.6475 38.1676 0.0000 0.0000 0.0000
# 3 38.1622 38.1676 136.1160 0.0000 0.0000 0.0000
# 4 0.0000 0.0000 0.0000 15.9064 0.0000 0.0000
# 5 0.0000 0.0000 0.0000 0.0000 15.9087 0.0000
# 6 0.0000 0.0000 0.0000 0.0000 0.0000 25.3605
#
#
#
# Elastic Compliance Matrix: (Units=1/GPa)
#
#
# Indices 1 2 3 4 5 6 
#
# 1 0.031056 -0.020921 -0.002841 0.000000 0.000000 0.000000
# 2 -0.020921 0.031059 -0.002843 0.000000 0.000000 0.000000
# 3 -0.002841 -0.002843 0.008940 0.000000 0.000000 0.000000
# 4 0.000000 0.000000 0.000000 0.062868 0.000000 0.000000
# 5 0.000000 0.000000 0.000000 0.000000 0.062859 0.000000
# 6 0.000000 0.000000 0.000000 0.000000 0.000000 0.039431
#
#
# Mechanical properties :
#
#
# Convention : Reuss Voigt Hill
#
# Bulk Modulus (GPa) = 56.03941 58.76587 57.40264
# Shear Modulus (GPa) = 16.92778 21.34669 19.13723
#
# Velocity S-wave (km/s) = 2.90376 3.26081 3.08745
# Velocity P-wave (km/s) = 6.25747 6.59157 6.42669
#
# Compressibility (1/GPa) = 0.01784458
#
# Stress axis : x y z
#
# Youngs Moduli (GPa) = 32.19968 32.19679 111.85184
#
# Poissons Ratio (x) = 0.67360 0.31772
# Poissons Ratio (y) = 0.67366 0.31805
# Poissons Ratio (z) = 0.09147 0.09155
#
# Static dielectric constant tensor:
#      x y z
#    x 1.740520 0.000000 0.000000 
#    y 0.000000 1.740520 0.000000 
#    z 0.000000 0.000000 2.251630 
# 
# From -- ./inp_files/3543.got.cif
#   From: 2010.05.17/outbox.cif.g08.bks.cpg/sg121_2_cif.got.tgz:3543.got - 2010.05.20 11:32:06.
