data_PCOD9560118
_publ_section_title
;
Structure prediction by ZEFSAII (Michael W. Deem and Ramdas Pophale) SiO2 
 PCOD9560118
Probable space group: I -4 2 M
;
_chemical_formula_sum "Si O2"
_cell_formula_units_Z 96
_cell_length_a 25.337780
_cell_length_b 25.337780
_cell_length_c 9.962469
_cell_angle_alpha 90.000000
_cell_angle_beta 90.000000
_cell_angle_gamma 90.000000
_cell_volume 6395.935935
_symmetry_space_group_name_H-M "I -4 2 M"
_symmetry_group_IT_number 121
_symmetry_cell_setting 'tetragonal'
loop_
_space_group_symop_operation_xyz
x,y,z
y,-x,-z
-x,-y,z
-y,x,-z
x,-y,-z
-x,y,-z
-y,-x,z
y,x,z
1/2+x,1/2+y,1/2+z
1/2+y,1/2-x,1/2-z
1/2-x,1/2-y,1/2+z
1/2-y,1/2+x,1/2-z
1/2+x,1/2-y,1/2-z
1/2-x,1/2+y,1/2-z
1/2-y,1/2-x,1/2+z
1/2+y,1/2+x,1/2+z
loop_
_atom_site_type_symbol
_atom_site_label
_atom_site_fract_x
_atom_site_fract_y
_atom_site_fract_z
Si Si1 0.437824 0.215602 0.755837
Si Si2 0.754947 0.667346 0.332700
Si Si3 0.555855 0.865539 0.528038
Si Si4 0.673438 0.238512 0.352336
Si Si5 0.218851 0.554195 0.707913
Si Si6 0.845204 0.439974 0.979449
O O1 0.441324 0.159744 0.675777
O O2 0.386469 0.244441 0.698311
O O3 0.495236 0.241539 0.729298
O O4 0.430666 0.200512 0.910759
O O5 0.703248 0.703248 0.316048
O O6 0.772940 0.673136 0.488186
O O7 0.798996 0.691920 0.233446
O O8 0.745215 0.605958 0.301594
O O9 0.500000 0.893723 0.500000
O O10 0.554801 0.816017 0.426705
O O11 0.606623 0.900530 0.502750
O O12 0.709770 0.290231 0.331394
O O13 0.179516 0.563485 0.832264
O O14 0.863777 0.500000 0.000000
#
# Coordination Sequence:
#
# PCOD9560118 Si02
#       6
#    16  16  16  16  16  16
#     4  10  20  32  46  64  87 117 151 187 225 270
#     4  10  20  32  48  70  94 119 148 186 231 276
#     4  10  18  29  45  61  81 113 150 190 230 262
#     4  10  20  32  48  70  94 119 148 186 231 276
#     4  10  20  32  46  64  87 117 151 187 225 270
#     4  10  20  31  43  61  85 115 152 190 228 266
#
# _framework density 15.009531000000001
#
# number of rings (size 3 to 8) (size 9 to 14) (size 15 to 20)
#    0.000    2.000    1.667    3.000    2.333    0.333 
#    0.000    0.000    0.000    6.000    0.000    0.000 
#    0.000    0.667    0.000    3.667    0.000    9.333 
#
# Total GULP energy -267570.569313 kJ/mol
# GULP energy per Si atom -5574.386861 kJ/mol
# Density = 1.497537 g / cm^3
# Si number density = 15.009531 Si / 1000 Ang^3
#
#
#
# Elastic Constant Matrix: (Units=GPa)
#
#
# Indices 1 2 3 4 5 6 
#
# 1 73.8644 30.9556 11.9373 0.0000 0.0000 0.0000
# 2 30.9556 73.8669 11.9373 0.0000 0.0000 0.0000
# 3 11.9373 11.9373 48.1796 0.0000 0.0000 0.0000
# 4 0.0000 0.0000 0.0000 16.2733 0.0000 0.0000
# 5 0.0000 0.0000 0.0000 0.0000 16.2736 0.0000
# 6 0.0000 0.0000 0.0000 0.0000 0.0000 18.3582
#
#
#
# Elastic Compliance Matrix: (Units=1/GPa)
#
#
# Indices 1 2 3 4 5 6 
#
# 1 0.016708 -0.006597 -0.002505 0.000000 0.000000 0.000000
# 2 -0.006597 0.016707 -0.002505 0.000000 0.000000 0.000000
# 3 -0.002505 -0.002505 0.021997 0.000000 0.000000 0.000000
# 4 0.000000 0.000000 0.000000 0.061450 0.000000 0.000000
# 5 0.000000 0.000000 0.000000 0.000000 0.061449 0.000000
# 6 0.000000 0.000000 0.000000 0.000000 0.000000 0.054472
#
#
# Mechanical properties :
#
#
# Convention : Reuss Voigt Hill
#
# Bulk Modulus (GPa) = 31.05788 33.95238 32.50513
# Shear Modulus (GPa) = 18.74554 19.58641 19.16597
#
# Velocity S-wave (km/s) = 3.53782 3.61630 3.57728
# Velocity P-wave (km/s) = 6.11762 6.33297 6.22623
#
# Compressibility (1/GPa) = 0.03219795
#
# Stress axis : x y z
#
# Youngs Moduli (GPa) = 59.85197 59.85410 45.46076
#
# Poissons Ratio (x) = 0.39486 0.11389
# Poissons Ratio (y) = 0.39484 0.11388
# Poissons Ratio (z) = 0.14994 0.14993
#
# Static dielectric constant tensor:
#      x y z
#    x 1.505250 0.000000 0.000000 
#    y 0.000000 1.505250 0.000000 
#    z 0.000000 0.000000 1.516250 
# 
# From -- ./inp_files/2067.got.cif
#   From: 2010.05.17/outbox.cif.g08.bks.cpg/sg121_2_cif.got.tgz:2067.got - 2010.05.20 11:32:06.
