data_PCOD9560878
_publ_section_title
;
Structure prediction by ZEFSAII (Michael W. Deem and Ramdas Pophale) SiO2 
 PCOD9560878
Probable space group: I -4 2 D
;
_chemical_formula_sum "Si O2"
_cell_formula_units_Z 112
_cell_length_a 14.047213
_cell_length_b 14.047213
_cell_length_c 26.528085
_cell_angle_alpha 90.000000
_cell_angle_beta 90.000000
_cell_angle_gamma 90.000000
_cell_volume 5234.632966
_symmetry_space_group_name_H-M "I -4 2 D"
_symmetry_group_IT_number 122
_symmetry_cell_setting 'tetragonal'
loop_
_space_group_symop_operation_xyz
x,y,z
y,-x,-z
-x,-y,z
-y,x,-z
x,1/2-y,1/4-z
-x,1/2+y,1/4-z
-y,1/2-x,1/4+z
y,1/2+x,1/4+z
1/2+x,1/2+y,1/2+z
1/2+y,1/2-x,1/2-z
1/2-x,1/2-y,1/2+z
1/2-y,1/2+x,1/2-z
1/2+x,-y,3/4-z
1/2-x,y,3/4-z
1/2-y,-x,3/4+z
1/2+y,x,3/4+z
loop_
_atom_site_type_symbol
_atom_site_label
_atom_site_fract_x
_atom_site_fract_y
_atom_site_fract_z
Si Si1 0.247529 0.856987 0.067284
Si Si2 0.128461 0.926431 0.980779
Si Si3 0.893692 0.535341 0.930034
Si Si4 0.541678 0.320782 0.390025
Si Si5 0.220453 0.669649 0.731038
Si Si6 0.839956 0.825733 0.664264
Si Si7 0.540165 0.224579 0.972110
O O1 0.356006 0.875421 0.084579
O O2 0.241990 0.742625 0.061655
O O3 0.179247 0.928328 0.098543
O O4 0.223438 0.890724 0.009095
O O5 0.102447 0.893696 0.924309
O O6 0.039404 0.880793 0.011890
O O7 0.837351 0.451184 0.902332
O O8 0.000000 0.500000 0.925456
O O9 0.858898 0.527831 0.987579
O O10 0.577453 0.217509 0.408726
O O11 0.564675 0.321361 0.331369
O O12 0.289348 0.673661 0.779347
O O13 0.119769 0.707391 0.752877
O O14 0.219967 0.559737 0.715013
O O15 0.798440 0.750000 0.625000
#
# Coordination Sequence:
#
# PCOD9560878 Si02
#       7
#    16  16  16  16  16  16  16
#     4  10  20  37  62  87 119 156 197 250 307 355
#     4   9  19  35  60  92 119 155 197 245 307 358
#     4  10  21  40  56  85 119 159 196 244 312 355
#     4  11  20  37  62  90 114 157 208 246 293 372
#     4  10  21  40  57  86 121 158 194 247 312 349
#     4  11  20  37  64  85 113 153 205 247 285 366
#     4  10  23  38  59  86 120 159 200 256 304 354
#
# _framework density 21.395961
#
# number of rings (size 3 to 8) (size 9 to 14) (size 15 to 20)
#    0.000    1.857    4.286    0.000    0.000    0.857 
#   12.857    1.429    0.000    0.000    0.000    0.000 
#    0.000    0.000    0.000    0.000    0.000    0.000 
#
# Total GULP energy -312157.430418 kJ/mol
# GULP energy per Si atom -5574.239829 kJ/mol
# Density = 2.134726 g / cm^3
# Si number density = 21.395961 Si / 1000 Ang^3
#
#
#
# Elastic Constant Matrix: (Units=GPa)
#
#
# Indices 1 2 3 4 5 6 
#
# 1 54.7322 -8.8716 -5.0941 0.0000 0.0000 0.0000
# 2 -8.8716 54.7322 -5.0941 0.0000 0.0000 0.0000
# 3 -5.0941 -5.0941 47.7119 0.0000 0.0000 0.0000
# 4 0.0000 0.0000 0.0000 19.6884 0.0000 0.0000
# 5 0.0000 0.0000 0.0000 0.0000 19.6884 0.0000
# 6 0.0000 0.0000 0.0000 0.0000 0.0000 -18.3044
#
#
#
# Elastic Compliance Matrix: (Units=1/GPa)
#
#
# Indices 1 2 3 4 5 6 
#
# 1 0.019029 0.003306 0.002385 0.000000 0.000000 0.000000
# 2 0.003306 0.019029 0.002385 0.000000 0.000000 0.000000
# 3 0.002385 0.002385 0.021468 0.000000 0.000000 0.000000
# 4 0.000000 0.000000 0.000000 0.050791 0.000000 0.000000
# 5 0.000000 0.000000 0.000000 0.000000 0.050791 0.000000
# 6 0.000000 0.000000 0.000000 0.000000 0.000000 -0.054632
#
#
# Mechanical properties :
#
#
# Convention : Reuss Voigt Hill
#
# Bulk Modulus (GPa) = 13.21409 13.22854 13.22131
# Shear Modulus (GPa) = 43.27093 15.96355 29.61724
#
# Velocity S-wave (km/s) = 4.50198 2.73445 3.72458
# Velocity P-wave (km/s) = 5.76308 4.02067 4.96885
#
# Compressibility (1/GPa) = 0.07567681
#
# Stress axis : x y z
#
# Youngs Moduli (GPa) = 52.55232 52.55232 46.58024
#
# Poissons Ratio (x) = -0.17375 -0.11108
# Poissons Ratio (y) = -0.17375 -0.11108
# Poissons Ratio (z) = -0.12532 -0.12532
#
# Static dielectric constant tensor:
#      x y z
#    x 1.816040 0.000000 0.000000 
#    y 0.000000 1.816040 0.000000 
#    z 0.000000 0.000000 1.770950 
# 
# From -- ./inp_files/8789.got.cif
#   From: 2010.05.17/outbox.cif.g08.bks.cpg/sg122_5_cif.got.tgz:8789.got - 2010.05.20 11:37:33.
