data_PCOD9560220
_publ_section_title
;
Structure prediction by ZEFSAII (Michael W. Deem and Ramdas Pophale) SiO2 
 PCOD9560220
Probable space group: I -4 2 M
;
_chemical_formula_sum "Si O2"
_cell_formula_units_Z 96
_cell_length_a 24.457950
_cell_length_b 24.457950
_cell_length_c 9.237199
_cell_angle_alpha 90.000000
_cell_angle_beta 90.000000
_cell_angle_gamma 90.000000
_cell_volume 5525.612246
_symmetry_space_group_name_H-M "I -4 2 M"
_symmetry_group_IT_number 121
_symmetry_cell_setting 'tetragonal'
loop_
_space_group_symop_operation_xyz
x,y,z
y,-x,-z
-x,-y,z
-y,x,-z
x,-y,-z
-x,y,-z
-y,-x,z
y,x,z
1/2+x,1/2+y,1/2+z
1/2+y,1/2-x,1/2-z
1/2-x,1/2-y,1/2+z
1/2-y,1/2+x,1/2-z
1/2+x,1/2-y,1/2-z
1/2-x,1/2+y,1/2-z
1/2-y,1/2-x,1/2+z
1/2+y,1/2+x,1/2+z
loop_
_atom_site_type_symbol
_atom_site_label
_atom_site_fract_x
_atom_site_fract_y
_atom_site_fract_z
Si Si1 0.163533 0.342737 0.535307
Si Si2 0.818292 0.094859 0.627986
Si Si3 0.313558 0.769271 0.205126
Si Si4 0.223833 0.444272 0.074053
Si Si5 0.557957 0.770140 0.420998
Si Si6 0.653598 0.439531 0.440186
O O1 0.183314 0.338561 0.698816
O O2 0.197332 0.296668 0.448479
O O3 0.102191 0.320179 0.531402
O O4 0.182804 0.400092 0.470899
O O5 0.872515 0.127486 0.579130
O O6 0.777048 0.140740 0.690636
O O7 0.782840 0.068834 0.499662
O O8 0.833133 0.058026 0.767354
O O9 0.259016 0.740985 0.261286
O O10 0.229424 0.447348 0.247301
O O11 0.205462 0.500000 0.000000
O O12 0.500000 0.778598 0.500000
O O13 0.577164 0.710131 0.478234
O O14 0.639052 0.500000 0.500000
O O15 0.605912 0.394089 0.459284
#
# Coordination Sequence:
#
# PCOD9560220 Si02
#       6
#    16  16  16  16  16  16
#     4  11  21  36  54  81 111 148 186 227 284 339
#     4   9  19  36  55  77 112 151 186 228 279 332
#     4  10  19  32  51  79 114 145 177 223 277 336
#     4  11  23  37  57  81 114 152 188 232 279 344
#     4  11  23  37  58  83 111 146 191 237 281 335
#     4  10  20  35  56  80 112 152 193 240 287 334
#
# _framework density 17.373640999999999
#
# number of rings (size 3 to 8) (size 9 to 14) (size 15 to 20)
#    0.000    1.667    3.333    2.500    2.333    2.167 
#    0.000    0.000    0.000    0.500    0.000    2.333 
#    0.000    6.667    0.000    0.000    0.000    0.000 
#
# Total GULP energy -267388.569240 kJ/mol
# GULP energy per Si atom -5570.595193 kJ/mol
# Density = 1.733410 g / cm^3
# Si number density = 17.373641 Si / 1000 Ang^3
#
#
#
# Elastic Constant Matrix: (Units=GPa)
#
#
# Indices 1 2 3 4 5 6 
#
# 1 78.1155 69.7950 55.4982 0.0000 0.0000 0.0000
# 2 69.7950 78.1207 55.4945 0.0000 0.0000 0.0000
# 3 55.4982 55.4945 112.4326 0.0000 0.0000 0.0000
# 4 0.0000 0.0000 0.0000 19.3462 0.0000 0.0000
# 5 0.0000 0.0000 0.0000 0.0000 19.3496 0.0000
# 6 0.0000 0.0000 0.0000 0.0000 0.0000 18.6789
#
#
#
# Elastic Compliance Matrix: (Units=1/GPa)
#
#
# Indices 1 2 3 4 5 6 
#
# 1 0.065449 -0.054705 -0.005305 0.000000 0.000000 0.000000
# 2 -0.054705 0.065437 -0.005296 0.000000 0.000000 0.000000
# 3 -0.005305 -0.005296 0.014127 0.000000 0.000000 0.000000
# 4 0.000000 0.000000 0.000000 0.051690 0.000000 0.000000
# 5 0.000000 0.000000 0.000000 0.000000 0.051681 0.000000
# 6 0.000000 0.000000 0.000000 0.000000 0.000000 0.053536
#
#
# Mechanical properties :
#
#
# Convention : Reuss Voigt Hill
#
# Bulk Modulus (GPa) = 69.43670 70.02711 69.73191
# Shear Modulus (GPa) = 11.43300 17.33366 14.38333
#
# Velocity S-wave (km/s) = 2.56806 3.16206 2.88042
# Velocity P-wave (km/s) = 6.98904 7.32977 7.16143
#
# Compressibility (1/GPa) = 0.01440161
#
# Stress axis : x y z
#
# Youngs Moduli (GPa) = 15.27917 15.28181 70.78858
#
# Poissons Ratio (x) = 0.83599 0.37553
# Poissons Ratio (y) = 0.83585 0.37486
# Poissons Ratio (z) = 0.08106 0.08092
#
# Static dielectric constant tensor:
#      x y z
#    x 1.596360 0.000000 0.000000 
#    y 0.000000 1.596360 0.000000 
#    z 0.000000 0.000000 1.605540 
# 
# From -- ./inp_files/1934.got.cif
#   From: 2010.05.17/outbox.cif.g08.bks.cpg/sg121_1_cif.got.tgz:1934.got - 2010.05.20 11:32:06.
