data_PCOD9560811
_publ_section_title
;
Structure prediction by ZEFSAII (Michael W. Deem and Ramdas Pophale) SiO2 
 PCOD9560811
Probable space group: I -4 2 D
;
_chemical_formula_sum "Si O2"
_cell_formula_units_Z 112
_cell_length_a 13.792176
_cell_length_b 13.792176
_cell_length_c 24.821317
_cell_angle_alpha 90.000000
_cell_angle_beta 90.000000
_cell_angle_gamma 90.000000
_cell_volume 4721.613154
_symmetry_space_group_name_H-M "I -4 2 D"
_symmetry_group_IT_number 122
_symmetry_cell_setting 'tetragonal'
loop_
_space_group_symop_operation_xyz
x,y,z
y,-x,-z
-x,-y,z
-y,x,-z
x,1/2-y,1/4-z
-x,1/2+y,1/4-z
-y,1/2-x,1/4+z
y,1/2+x,1/4+z
1/2+x,1/2+y,1/2+z
1/2+y,1/2-x,1/2-z
1/2-x,1/2-y,1/2+z
1/2-y,1/2+x,1/2-z
1/2+x,-y,3/4-z
1/2-x,y,3/4-z
1/2-y,-x,3/4+z
1/2+y,x,3/4+z
loop_
_atom_site_type_symbol
_atom_site_label
_atom_site_fract_x
_atom_site_fract_y
_atom_site_fract_z
Si Si1 0.023709 0.837769 0.579609
Si Si2 0.289654 0.603009 0.505839
Si Si3 0.593262 0.064499 0.952579
Si Si4 0.143574 0.362334 0.607215
Si Si5 0.797106 0.757432 0.431829
Si Si6 0.942671 0.350234 0.337265
Si Si7 0.195741 0.544868 0.000716
O O1 0.025040 0.750000 0.625000
O O2 0.136963 0.848133 0.570510
O O3 0.942150 0.905319 0.605817
O O4 0.973038 0.800308 0.525510
O O5 0.199171 0.545490 0.477657
O O6 0.253783 0.708307 0.526614
O O7 0.338794 0.544961 0.555732
O O8 0.367890 0.621062 0.459554
O O9 0.581720 0.081564 0.888528
O O10 0.500000 0.000000 0.968486
O O11 0.560550 0.162316 0.982642
O O12 0.166631 0.250000 0.625000
O O13 0.242056 0.420290 0.608193
O O14 0.098854 0.359768 0.547576
O O15 0.750000 0.735646 0.375000
O O16 0.884221 0.688339 0.448924
#
# Coordination Sequence:
#
# PCOD9560811 Si02
#       7
#    16  16  16  16  16  16  16
#     4   8  18  33  64  95 130 173 228 281 349 428
#     4  12  27  48  76 102 151 193 248 306 371 439
#     4  12  27  45  70 107 141 188 247 305 362 438
#     4   9  18  38  69  96 129 184 229 284 360 437
#     4  11  21  40  66 105 138 183 228 296 366 431
#     4  12  27  47  72 104 139 200 251 302 362 440
#     4  10  19  38  65  94 138 178 228 291 352 435
#
# _framework density 23.720707000000001
#
# number of rings (size 3 to 8) (size 9 to 14) (size 15 to 20)
#    0.000    1.714    2.857    3.000    4.000    0.000 
#    0.000    0.000    0.000    7.286    0.000    0.000 
#    0.000    0.000    0.000    0.000    0.000    0.000 
#
# Total GULP energy -312269.783390 kJ/mol
# GULP energy per Si atom -5576.246132 kJ/mol
# Density = 2.366672 g / cm^3
# Si number density = 23.720707 Si / 1000 Ang^3
#
#
#
# Elastic Constant Matrix: (Units=GPa)
#
#
# Indices 1 2 3 4 5 6 
#
# 1 32.3844 4.7297 -4.3928 0.0000 0.0000 0.0000
# 2 4.7297 32.3844 -4.3928 0.0000 0.0000 0.0000
# 3 -4.3928 -4.3928 69.2600 0.0000 0.0000 0.0000
# 4 0.0000 0.0000 0.0000 13.4513 0.0000 0.0000
# 5 0.0000 0.0000 0.0000 0.0000 13.4513 0.0000
# 6 0.0000 0.0000 0.0000 0.0000 0.0000 10.7949
#
#
#
# Elastic Compliance Matrix: (Units=1/GPa)
#
#
# Indices 1 2 3 4 5 6 
#
# 1 0.031757 -0.004403 0.001735 0.000000 0.000000 0.000000
# 2 -0.004403 0.031757 0.001735 0.000000 0.000000 0.000000
# 3 0.001735 0.001735 0.014658 0.000000 0.000000 0.000000
# 4 0.000000 0.000000 0.000000 0.074342 0.000000 0.000000
# 5 0.000000 0.000000 0.000000 0.000000 0.074342 0.000000
# 6 0.000000 0.000000 0.000000 0.000000 0.000000 0.092636
#
#
# Mechanical properties :
#
#
# Convention : Reuss Voigt Hill
#
# Bulk Modulus (GPa) = 13.10487 13.99078 13.54782
# Shear Modulus (GPa) = 14.41772 16.74515 15.58143
#
# Velocity S-wave (km/s) = 2.46806 2.65982 2.56573
# Velocity P-wave (km/s) = 3.69573 3.91711 3.80803
#
# Compressibility (1/GPa) = 0.07630753
#
# Stress axis : x y z
#
# Youngs Moduli (GPa) = 31.48866 31.48866 68.22015
#
# Poissons Ratio (x) = 0.13864 -0.11836
# Poissons Ratio (y) = 0.13864 -0.11836
# Poissons Ratio (z) = -0.05463 -0.05463
#
# Static dielectric constant tensor:
#      x y z
#    x 2.040920 0.000000 0.000000 
#    y 0.000000 2.040920 0.000000 
#    z 0.000000 0.000000 1.891290 
# 
# From -- ./inp_files/8099.got.cif
#   From: 2010.05.17/outbox.cif.g08.bks.cpg/sg122_5_cif.got.tgz:8099.got - 2010.05.20 11:37:33.
