data_PCOD9560262
_publ_section_title
;
Structure prediction by ZEFSAII (Michael W. Deem and Ramdas Pophale) SiO2 
 PCOD9560262
Probable space group: I -4 2 M
;
_chemical_formula_sum "Si O2"
_cell_formula_units_Z 80
_cell_length_a 17.574178
_cell_length_b 17.574178
_cell_length_c 13.846314
_cell_angle_alpha 90.000000
_cell_angle_beta 90.000000
_cell_angle_gamma 90.000000
_cell_volume 4276.458066
_symmetry_space_group_name_H-M "I -4 2 M"
_symmetry_group_IT_number 121
_symmetry_cell_setting 'tetragonal'
loop_
_space_group_symop_operation_xyz
x,y,z
y,-x,-z
-x,-y,z
-y,x,-z
x,-y,-z
-x,y,-z
-y,-x,z
y,x,z
1/2+x,1/2+y,1/2+z
1/2+y,1/2-x,1/2-z
1/2-x,1/2-y,1/2+z
1/2-y,1/2+x,1/2-z
1/2+x,1/2-y,1/2-z
1/2-x,1/2+y,1/2-z
1/2-y,1/2-x,1/2+z
1/2+y,1/2+x,1/2+z
loop_
_atom_site_type_symbol
_atom_site_label
_atom_site_fract_x
_atom_site_fract_y
_atom_site_fract_z
Si Si1 0.542754 0.106837 0.398912
Si Si2 0.313658 0.804973 0.176187
Si Si3 0.008884 0.339818 0.307827
Si Si4 0.230100 0.114079 0.645674
Si Si5 0.285693 0.832030 0.967316
O O1 0.500000 0.094200 0.500000
O O2 0.497033 0.127832 0.301391
O O3 0.594470 0.181975 0.415775
O O4 0.597359 0.034908 0.373524
O O5 0.281827 0.718174 0.171243
O O6 0.402299 0.824355 0.177827
O O7 0.275621 0.840319 0.270796
O O8 0.279907 0.844947 0.080929
O O9 0.969706 0.259067 0.333367
O O10 0.143731 0.143731 0.648733
O O11 0.269004 0.147595 0.549017
O O12 0.208583 0.791418 0.931986
#
# Coordination Sequence:
#
# PCOD9560262 Si02
#       5
#    16  16  16  16  16
#     4  11  24  38  51  78 120 151 182 221 279 344
#     4  10  19  35  55  77 102 139 189 232 266 321
#     4  11  21  39  53  82 109 149 185 223 282 330
#     4   9  18  34  52  72 103 140 182 224 265 323
#     4   9  18  35  56  73  96 140 190 229 264 311
#
# _framework density 18.707069000000001
#
# number of rings (size 3 to 8) (size 9 to 14) (size 15 to 20)
#    0.000    2.000    4.000    1.200    0.000    3.600 
#    3.600    0.000    0.000    0.600    0.000    0.000 
#    0.000   14.800    0.000    0.200    0.000    0.000 
#
# Total GULP energy -222787.381972 kJ/mol
# GULP energy per Si atom -5569.684549 kJ/mol
# Density = 1.866449 g / cm^3
# Si number density = 18.707069 Si / 1000 Ang^3
#
#
#
# Elastic Constant Matrix: (Units=GPa)
#
#
# Indices 1 2 3 4 5 6 
#
# 1 55.7380 38.6184 10.1279 0.0000 0.0000 0.0000
# 2 38.6184 55.7385 10.1283 0.0000 0.0000 0.0000
# 3 10.1279 10.1283 87.7754 0.0000 0.0000 0.0000
# 4 0.0000 0.0000 0.0000 21.2330 0.0000 0.0000
# 5 0.0000 0.0000 0.0000 0.0000 21.2331 0.0000
# 6 0.0000 0.0000 0.0000 0.0000 0.0000 29.9619
#
#
#
# Elastic Compliance Matrix: (Units=1/GPa)
#
#
# Indices 1 2 3 4 5 6 
#
# 1 0.034640 -0.023772 -0.001254 0.000000 0.000000 0.000000
# 2 -0.023772 0.034639 -0.001254 0.000000 0.000000 0.000000
# 3 -0.001254 -0.001254 0.011682 0.000000 0.000000 0.000000
# 4 0.000000 0.000000 0.000000 0.047096 0.000000 0.000000
# 5 0.000000 0.000000 0.000000 0.000000 0.047096 0.000000
# 6 0.000000 0.000000 0.000000 0.000000 0.000000 0.033376
#
#
# Mechanical properties :
#
#
# Convention : Reuss Voigt Hill
#
# Bulk Modulus (GPa) = 35.21016 35.22234 35.21625
# Shear Modulus (GPa) = 18.48042 23.84409 21.16226
#
# Velocity S-wave (km/s) = 3.14647 3.57403 3.36705
# Velocity P-wave (km/s) = 5.66243 5.99173 5.82941
#
# Compressibility (1/GPa) = 0.02840090
#
# Stress axis : x y z
#
# Youngs Moduli (GPa) = 28.86866 28.86892 85.60112
#
# Poissons Ratio (x) = 0.68628 0.10733
# Poissons Ratio (y) = 0.68627 0.10735
# Poissons Ratio (z) = 0.03620 0.03620
#
# Static dielectric constant tensor:
#      x y z
#    x 1.693380 0.000000 0.000000 
#    y 0.000000 1.693380 0.000000 
#    z 0.000000 0.000000 1.692420 
# 
# From -- ./inp_files/4213.got.cif
#   From: 2010.05.17/outbox.cif.g08.bks.cpg/sg121_3_cif.got.tgz:4213.got - 2010.05.20 11:32:06.
