data_PCOD9560639
_publ_section_title
;
Structure prediction by ZEFSAII (Michael W. Deem and Ramdas Pophale) SiO2 
 PCOD9560639
Probable space group: I -4 2 M
;
_chemical_formula_sum "Si O2"
_cell_formula_units_Z 52
_cell_length_a 15.449011
_cell_length_b 15.449011
_cell_length_c 9.350177
_cell_angle_alpha 90.000000
_cell_angle_beta 90.000000
_cell_angle_gamma 90.000000
_cell_volume 2231.624892
_symmetry_space_group_name_H-M "I -4 2 M"
_symmetry_group_IT_number 121
_symmetry_cell_setting 'tetragonal'
loop_
_space_group_symop_operation_xyz
x,y,z
y,-x,-z
-x,-y,z
-y,x,-z
x,-y,-z
-x,y,-z
-y,-x,z
y,x,z
1/2+x,1/2+y,1/2+z
1/2+y,1/2-x,1/2-z
1/2-x,1/2-y,1/2+z
1/2-y,1/2+x,1/2-z
1/2+x,1/2-y,1/2-z
1/2-x,1/2+y,1/2-z
1/2-y,1/2-x,1/2+z
1/2+y,1/2+x,1/2+z
loop_
_atom_site_type_symbol
_atom_site_label
_atom_site_fract_x
_atom_site_fract_y
_atom_site_fract_z
Si Si1 0.257453 0.112583 0.677884
Si Si2 0.142773 0.005726 0.165446
Si Si3 0.000000 0.500000 0.750000
Si Si4 0.123520 0.402808 0.438962
O O1 0.184705 0.184705 0.648591
O O2 0.210313 0.021259 0.713156
O O3 0.330408 0.113694 0.558133
O O4 0.303920 0.129467 0.829504
O O5 0.066769 0.933232 0.172139
O O6 0.098239 0.098239 0.188318
O O7 0.173316 0.000000 0.000000
O O8 0.961642 0.423237 0.655152
O O9 0.141229 0.500000 0.500000
#
# Coordination Sequence:
#
# PCOD9560639 Si02
#       4
#    16  16   4  16
#     4  11  24  42  70 110 149 185 238 304 370 440
#     4   8  15  33  64 103 148 195 238 283 350 438
#     4  12  26  48  78 100 134 180 258 304 354 428
#     4  12  25  44  74 104 138 190 245 301 363 429
#
# _framework density 23.301406
#
# number of rings (size 3 to 8) (size 9 to 14) (size 15 to 20)
#    0.000    1.538    3.077    3.231    0.000    0.000 
#    0.000    1.538    0.000    3.692    0.000    0.000 
#    0.000   12.308    0.000    0.000    0.000    0.000 
#
# Total GULP energy -145384.608519 kJ/mol
# GULP energy per Si atom -5591.715712 kJ/mol
# Density = 2.324837 g / cm^3
# Si number density = 23.301406 Si / 1000 Ang^3
#
#
#
# Elastic Constant Matrix: (Units=GPa)
#
#
# Indices 1 2 3 4 5 6 
#
# 1 129.1521 60.3229 70.2357 0.0000 0.0000 0.0000
# 2 60.3229 129.1525 70.2357 0.0000 0.0000 0.0000
# 3 70.2357 70.2357 130.2253 0.0000 0.0000 0.0000
# 4 0.0000 0.0000 0.0000 39.2124 0.0000 0.0000
# 5 0.0000 0.0000 0.0000 0.0000 39.2128 0.0000
# 6 0.0000 0.0000 0.0000 0.0000 0.0000 19.9327
#
#
#
# Elastic Compliance Matrix: (Units=1/GPa)
#
#
# Indices 1 2 3 4 5 6 
#
# 1 0.011661 -0.002867 -0.004743 0.000000 0.000000 0.000000
# 2 -0.002867 0.011661 -0.004743 0.000000 0.000000 0.000000
# 3 -0.004743 -0.004743 0.012795 0.000000 0.000000 0.000000
# 4 0.000000 0.000000 0.000000 0.025502 0.000000 0.000000
# 5 0.000000 0.000000 0.000000 0.000000 0.025502 0.000000
# 6 0.000000 0.000000 0.000000 0.000000 0.000000 0.050169
#
#
# Mechanical properties :
#
#
# Convention : Reuss Voigt Hill
#
# Bulk Modulus (GPa) = 87.63222 87.79093 87.71158
# Shear Modulus (GPa) = 30.15667 32.18731 31.17199
#
# Velocity S-wave (km/s) = 3.60140 3.72068 3.66153
# Velocity P-wave (km/s) = 7.41507 7.49773 7.45651
#
# Compressibility (1/GPa) = 0.01141133
#
# Stress axis : x y z
#
# Youngs Moduli (GPa) = 85.75318 85.75358 78.15464
#
# Poissons Ratio (x) = 0.24588 0.37069
# Poissons Ratio (y) = 0.24588 0.37068
# Poissons Ratio (z) = 0.40673 0.40673
#
# Static dielectric constant tensor:
#      x y z
#    x 1.919530 0.000000 0.000000 
#    y 0.000000 1.919530 0.000000 
#    z 0.000000 0.000000 1.885660 
# 
# From -- ./inp_files/1250.got.cif
#   From: 2010.05.17/outbox.cif.g08.bks.cpg/sg121_1_cif.got.tgz:1250.got - 2010.05.20 11:32:06.
