data_PCOD9560129
_publ_section_title
;
Structure prediction by ZEFSAII (Michael W. Deem and Ramdas Pophale) SiO2 
 PCOD9560129
Probable space group: I -4 2 M
;
_chemical_formula_sum "Si O2"
_cell_formula_units_Z 88
_cell_length_a 13.512761
_cell_length_b 13.512761
_cell_length_c 27.761133
_cell_angle_alpha 90.000000
_cell_angle_beta 90.000000
_cell_angle_gamma 90.000000
_cell_volume 5069.036025
_symmetry_space_group_name_H-M "I -4 2 M"
_symmetry_group_IT_number 121
_symmetry_cell_setting 'tetragonal'
loop_
_space_group_symop_operation_xyz
x,y,z
y,-x,-z
-x,-y,z
-y,x,-z
x,-y,-z
-x,y,-z
-y,-x,z
y,x,z
1/2+x,1/2+y,1/2+z
1/2+y,1/2-x,1/2-z
1/2-x,1/2-y,1/2+z
1/2-y,1/2+x,1/2-z
1/2+x,1/2-y,1/2-z
1/2-x,1/2+y,1/2-z
1/2-y,1/2-x,1/2+z
1/2+y,1/2+x,1/2+z
loop_
_atom_site_type_symbol
_atom_site_label
_atom_site_fract_x
_atom_site_fract_y
_atom_site_fract_z
Si Si1 0.994065 0.836055 0.356500
Si Si2 0.248886 0.584267 0.764146
Si Si3 0.572362 0.258214 0.954974
Si Si4 0.225152 0.605686 0.418574
Si Si5 0.763270 0.405288 0.305961
Si Si6 0.000000 0.166313 0.000000
O O1 0.889293 0.889293 0.352614
O O2 0.017075 0.767656 0.311302
O O3 0.010213 0.783724 0.407219
O O4 0.077968 0.922033 0.355081
O O5 0.341083 0.658917 0.759012
O O6 0.245770 0.511243 0.719101
O O7 0.155513 0.652845 0.776961
O O8 0.653583 0.346418 0.961809
O O9 0.631899 0.158127 0.943541
O O10 0.500000 0.252407 0.000000
O O11 0.309786 0.690215 0.417726
O O12 0.208634 0.583034 0.362315
O O13 0.267491 0.519976 0.452811
O O14 0.663223 0.336778 0.303455
O O15 0.094235 0.094235 0.992949
#
# Coordination Sequence:
#
# PCOD9560129 Si02
#       6
#    16  16  16  16  16   8
#     4   9  16  28  48  75 107 138 174 219 260 308
#     4  10  20  35  55  81 109 144 187 227 275 332
#     4  10  18  30  50  77 109 145 179 213 261 319
#     4   9  18  35  56  78 108 142 174 222 281 322
#     4  10  20  36  58  81 110 147 183 227 281 330
#     4   9  18  34  59  84 102 132 181 226 268 325
#
# _framework density 17.360301
#
# number of rings (size 3 to 8) (size 9 to 14) (size 15 to 20)
#    0.000    2.455    1.818    1.091    0.000    3.091 
#    0.000    4.091    4.000    4.364    0.000    0.000 
#    0.000    0.000    0.000    0.000    0.000    0.000 
#
# Total GULP energy -245225.992608 kJ/mol
# GULP energy per Si atom -5573.318014 kJ/mol
# Density = 1.732079 g / cm^3
# Si number density = 17.360301 Si / 1000 Ang^3
#
#
#
# Elastic Constant Matrix: (Units=GPa)
#
#
# Indices 1 2 3 4 5 6 
#
# 1 66.9343 32.3276 49.1003 0.0000 0.0000 0.0000
# 2 32.3276 66.9344 49.1001 0.0000 0.0000 0.0000
# 3 49.1003 49.1001 129.1441 0.0000 0.0000 0.0000
# 4 0.0000 0.0000 0.0000 11.7125 0.0000 0.0000
# 5 0.0000 0.0000 0.0000 0.0000 11.7125 0.0000
# 6 0.0000 0.0000 0.0000 0.0000 0.0000 12.0151
#
#
#
# Elastic Compliance Matrix: (Units=1/GPa)
#
#
# Indices 1 2 3 4 5 6 
#
# 1 0.022522 -0.006374 -0.006140 0.000000 0.000000 0.000000
# 2 -0.006374 0.022522 -0.006139 0.000000 0.000000 0.000000
# 3 -0.006140 -0.006139 0.012412 0.000000 0.000000 0.000000
# 4 0.000000 0.000000 0.000000 0.085379 0.000000 0.000000
# 5 0.000000 0.000000 0.000000 0.000000 0.085379 0.000000
# 6 0.000000 0.000000 0.000000 0.000000 0.000000 0.083229
#
#
# Mechanical properties :
#
#
# Convention : Reuss Voigt Hill
#
# Bulk Modulus (GPa) = 49.62750 58.22986 53.92868
# Shear Modulus (GPa) = 14.06606 15.92033 14.99320
#
# Velocity S-wave (km/s) = 2.84956 3.03157 2.94198
# Velocity P-wave (km/s) = 6.28296 6.77264 6.53239
#
# Compressibility (1/GPa) = 0.02015012
#
# Stress axis : x y z
#
# Youngs Moduli (GPa) = 44.40066 44.40091 80.56905
#
# Poissons Ratio (x) = 0.28301 0.49466
# Poissons Ratio (y) = 0.28301 0.49465
# Poissons Ratio (z) = 0.27260 0.27260
#
# Static dielectric constant tensor:
#      x y z
#    x 1.594250 0.000000 0.000000 
#    y 0.000000 1.594250 0.000000 
#    z 0.000000 0.000000 1.576190 
# 
# From -- ./inp_files/8234.got.cif
#   From: 2010.05.17/outbox.cif.g08.bks.cpg/sg121_5_cif.got.tgz:8234.got - 2010.05.20 11:32:06.
