data_PCOD9560410
_publ_section_title
;
Structure prediction by ZEFSAII (Michael W. Deem and Ramdas Pophale) SiO2 
 PCOD9560410
Probable space group: I -4 2 M
;
_chemical_formula_sum "Si O2"
_cell_formula_units_Z 88
_cell_length_a 11.495227
_cell_length_b 11.495227
_cell_length_c 28.708160
_cell_angle_alpha 90.000000
_cell_angle_beta 90.000000
_cell_angle_gamma 90.000000
_cell_volume 3793.503261
_symmetry_space_group_name_H-M "I -4 2 M"
_symmetry_group_IT_number 121
_symmetry_cell_setting 'tetragonal'
loop_
_space_group_symop_operation_xyz
x,y,z
y,-x,-z
-x,-y,z
-y,x,-z
x,-y,-z
-x,y,-z
-y,-x,z
y,x,z
1/2+x,1/2+y,1/2+z
1/2+y,1/2-x,1/2-z
1/2-x,1/2-y,1/2+z
1/2-y,1/2+x,1/2-z
1/2+x,1/2-y,1/2-z
1/2-x,1/2+y,1/2-z
1/2-y,1/2-x,1/2+z
1/2+y,1/2+x,1/2+z
loop_
_atom_site_type_symbol
_atom_site_label
_atom_site_fract_x
_atom_site_fract_y
_atom_site_fract_z
Si Si1 0.047159 0.225600 0.190842
Si Si2 0.603492 0.209586 0.411738
Si Si3 0.189207 0.000000 0.500000
Si Si4 0.518997 0.138318 0.141289
Si Si5 0.356824 0.825936 0.557339
Si Si6 0.086543 0.738555 0.277104
O O1 0.100252 0.100252 0.202799
O O2 0.045573 0.235462 0.135218
O O3 0.141692 0.319726 0.208617
O O4 0.938842 0.255417 0.222682
O O5 0.698317 0.301684 0.429597
O O6 0.665354 0.093718 0.391502
O O7 0.497752 0.176468 0.445960
O O8 0.279550 0.918643 0.528654
O O9 0.097472 0.902528 0.479213
O O10 0.630212 0.160618 0.110280
O O11 0.519068 0.205554 0.189542
O O12 0.500000 0.000000 0.150353
O O13 0.299382 0.700619 0.549686
O O14 0.139200 0.860801 0.291971
#
# Coordination Sequence:
#
# PCOD9560410 Si02
#       6
#    16  16   8  16  16  16
#     4   9  20  34  50  74 108 155 204 251 303 350
#     4   9  19  38  59  84 122 165 208 253 304 369
#     4   9  20  40  63  92 132 168 203 259 326 392
#     4   9  19  35  54  81 112 157 205 249 299 362
#     4  10  21  37  62  94 123 158 203 248 312 384
#     4  10  21  33  49  73 105 148 199 252 301 349
#
# _framework density 23.197552999999999
#
# number of rings (size 3 to 8) (size 9 to 14) (size 15 to 20)
#    0.000    2.636    0.000    1.636    7.636    3.636 
#    0.000    5.909    0.000    0.000    0.000    0.000 
#    0.000    8.727    0.000    0.364    0.000    0.000 
#
# Total GULP energy -245190.755840 kJ/mol
# GULP energy per Si atom -5572.517178 kJ/mol
# Density = 2.314475 g / cm^3
# Si number density = 23.197553 Si / 1000 Ang^3
#
#
#
# Elastic Constant Matrix: (Units=GPa)
#
#
# Indices 1 2 3 4 5 6 
#
# 1 67.8783 45.4218 19.7772 0.0000 0.0000 0.0000
# 2 45.4218 67.8782 19.7784 0.0000 0.0000 0.0000
# 3 19.7772 19.7784 61.5797 0.0000 0.0000 0.0000
# 4 0.0000 0.0000 0.0000 20.0086 0.0000 0.0000
# 5 0.0000 0.0000 0.0000 0.0000 20.0081 0.0000
# 6 0.0000 0.0000 0.0000 0.0000 0.0000 37.3742
#
#
#
# Elastic Compliance Matrix: (Units=1/GPa)
#
#
# Indices 1 2 3 4 5 6 
#
# 1 0.027236 -0.017295 -0.003192 0.000000 0.000000 0.000000
# 2 -0.017295 0.027236 -0.003193 0.000000 0.000000 0.000000
# 3 -0.003192 -0.003193 0.018290 0.000000 0.000000 0.000000
# 4 0.000000 0.000000 0.000000 0.049978 0.000000 0.000000
# 5 0.000000 0.000000 0.000000 0.000000 0.049980 0.000000
# 6 0.000000 0.000000 0.000000 0.000000 0.000000 0.026756
#
#
# Mechanical properties :
#
#
# Convention : Reuss Voigt Hill
#
# Bulk Modulus (GPa) = 39.36911 40.81011 40.08961
# Shear Modulus (GPa) = 19.58452 22.96875 21.27663
#
# Velocity S-wave (km/s) = 2.90875 3.15006 3.03180
# Velocity P-wave (km/s) = 5.31876 5.55528 5.43830
#
# Compressibility (1/GPa) = 0.02540063
#
# Stress axis : x y z
#
# Youngs Moduli (GPa) = 36.71678 36.71630 54.67479
#
# Poissons Ratio (x) = 0.63500 0.17454
# Poissons Ratio (y) = 0.63501 0.17459
# Poissons Ratio (z) = 0.11721 0.11724
#
# Static dielectric constant tensor:
#      x y z
#    x 1.925870 0.000000 0.000000 
#    y 0.000000 1.925860 0.000000 
#    z 0.000000 0.000000 1.908200 
# 
# From -- ./inp_files/8164.got.cif
#   From: 2010.05.17/outbox.cif.g08.bks.cpg/sg121_5_cif.got.tgz:8164.got - 2010.05.20 11:32:06.
