data_PCOD9560291
_publ_section_title
;
Structure prediction by ZEFSAII (Michael W. Deem and Ramdas Pophale) SiO2 
 PCOD9560291
Probable space group: I -4 2 M
;
_chemical_formula_sum "Si O2"
_cell_formula_units_Z 120
_cell_length_a 26.754450
_cell_length_b 26.754450
_cell_length_c 10.058025
_cell_angle_alpha 90.000000
_cell_angle_beta 90.000000
_cell_angle_gamma 90.000000
_cell_volume 7199.540278
_symmetry_space_group_name_H-M "I -4 2 M"
_symmetry_group_IT_number 121
_symmetry_cell_setting 'tetragonal'
loop_
_space_group_symop_operation_xyz
x,y,z
y,-x,-z
-x,-y,z
-y,x,-z
x,-y,-z
-x,y,-z
-y,-x,z
y,x,z
1/2+x,1/2+y,1/2+z
1/2+y,1/2-x,1/2-z
1/2-x,1/2-y,1/2+z
1/2-y,1/2+x,1/2-z
1/2+x,1/2-y,1/2-z
1/2-x,1/2+y,1/2-z
1/2-y,1/2-x,1/2+z
1/2+y,1/2+x,1/2+z
loop_
_atom_site_type_symbol
_atom_site_label
_atom_site_fract_x
_atom_site_fract_y
_atom_site_fract_z
Si Si1 0.364598 0.071275 0.212261
Si Si2 0.941645 0.289390 0.026660
Si Si3 0.750306 0.166715 0.366518
Si Si4 0.500000 0.786184 0.000000
Si Si5 0.274457 0.902733 0.616119
Si Si6 0.043833 0.355639 0.723708
Si Si7 0.826093 0.254241 0.828652
Si Si8 0.211207 0.133003 0.913874
O O1 0.332419 0.090251 0.339233
O O2 0.416019 0.101149 0.197376
O O3 0.373609 0.011495 0.228590
O O4 0.326255 0.078755 0.088915
O O5 0.934272 0.319375 0.163270
O O6 0.919807 0.233642 0.041430
O O7 0.000000 0.285483 0.000000
O O8 0.788242 0.211759 0.407356
O O9 0.736561 0.131383 0.488722
O O10 0.699886 0.192483 0.312649
O O11 0.775610 0.140379 0.240126
O O12 0.459147 0.756683 0.085716
O O13 0.532125 0.821415 0.096854
O O14 0.249388 0.875544 0.741558
O O15 0.787051 0.212950 0.779650
O O16 0.833529 0.244974 0.985618
O O17 0.155411 0.155411 0.935032
#
# Coordination Sequence:
#
# PCOD9560291 Si02
#       8
#    16  16  16   8  16  16  16  16
#     4  10  23  36  55  72  93 129 174 222 275 318
#     4  10  21  37  53  76 102 133 174 215 260 318
#     4  10  21  33  49  78 107 134 167 208 265 316
#     4  10  24  36  50  79  96 128 176 215 260 328
#     4  11  21  34  53  72 101 135 169 212 260 310
#     4  10  23  38  53  73  95 125 173 221 273 324
#     4  10  20  32  49  73  99 131 169 205 253 315
#     4  10  20  33  50  74 104 134 166 205 250 305
#
# _framework density 16.667731
#
# number of rings (size 3 to 8) (size 9 to 14) (size 15 to 20)
#    0.000    1.867    1.333    2.000    9.333    2.400 
#    0.000    0.000    0.000    0.000    0.000    0.000 
#    0.000    0.267    0.000    0.000    0.000    5.333 
#
# Total GULP energy -334259.104169 kJ/mol
# GULP energy per Si atom -5570.985069 kJ/mol
# Density = 1.662979 g / cm^3
# Si number density = 16.667731 Si / 1000 Ang^3
#
#
#
# Elastic Constant Matrix: (Units=GPa)
#
#
# Indices 1 2 3 4 5 6 
#
# 1 63.6680 43.6318 28.9476 0.0000 0.0000 0.0000
# 2 43.6318 63.6659 28.9472 0.0000 0.0000 0.0000
# 3 28.9476 28.9472 96.8904 0.0000 0.0000 0.0000
# 4 0.0000 0.0000 0.0000 23.8967 0.0000 0.0000
# 5 0.0000 0.0000 0.0000 0.0000 23.8969 0.0000
# 6 0.0000 0.0000 0.0000 0.0000 0.0000 32.7228
#
#
#
# Elastic Compliance Matrix: (Units=1/GPa)
#
#
# Indices 1 2 3 4 5 6 
#
# 1 0.030511 -0.019401 -0.003319 0.000000 0.000000 0.000000
# 2 -0.019401 0.030512 -0.003320 0.000000 0.000000 0.000000
# 3 -0.003319 -0.003320 0.012304 0.000000 0.000000 0.000000
# 4 0.000000 0.000000 0.000000 0.041847 0.000000 0.000000
# 5 0.000000 0.000000 0.000000 0.000000 0.041846 0.000000
# 6 0.000000 0.000000 0.000000 0.000000 0.000000 0.030560
#
#
# Mechanical properties :
#
#
# Convention : Reuss Voigt Hill
#
# Bulk Modulus (GPa) = 47.06308 47.47528 47.26918
# Shear Modulus (GPa) = 20.26405 24.28313 22.27359
#
# Velocity S-wave (km/s) = 3.49057 3.82107 3.65955
# Velocity P-wave (km/s) = 6.67403 6.92911 6.80277
#
# Compressibility (1/GPa) = 0.02124808
#
# Stress axis : x y z
#
# Youngs Moduli (GPa) = 32.77511 32.77397 81.27135
#
# Poissons Ratio (x) = 0.63583 0.26978
# Poissons Ratio (y) = 0.63586 0.26979
# Poissons Ratio (z) = 0.10880 0.10880
#
# Static dielectric constant tensor:
#      x y z
#    x 1.583100 0.000000 0.000000 
#    y 0.000000 1.583100 0.000000 
#    z 0.000000 0.000000 1.623960 
# 
# From -- ./inp_files/2176.got.cif
#   From: 2010.05.17/outbox.cif.g08.bks.cpg/sg121_2_cif.got.tgz:2176.got - 2010.05.20 11:32:06.
