data_PCOD9560745
_publ_section_title
;
Structure prediction by ZEFSAII (Michael W. Deem and Ramdas Pophale) SiO2 
 PCOD9560745
Probable space group: I -4 2 D
;
_chemical_formula_sum "Si O2"
_cell_formula_units_Z 96
_cell_length_a 14.750019
_cell_length_b 14.750019
_cell_length_c 19.340828
_cell_angle_alpha 90.000000
_cell_angle_beta 90.000000
_cell_angle_gamma 90.000000
_cell_volume 4207.849732
_symmetry_space_group_name_H-M "I -4 2 D"
_symmetry_group_IT_number 122
_symmetry_cell_setting 'tetragonal'
loop_
_space_group_symop_operation_xyz
x,y,z
y,-x,-z
-x,-y,z
-y,x,-z
x,1/2-y,1/4-z
-x,1/2+y,1/4-z
-y,1/2-x,1/4+z
y,1/2+x,1/4+z
1/2+x,1/2+y,1/2+z
1/2+y,1/2-x,1/2-z
1/2-x,1/2-y,1/2+z
1/2-y,1/2+x,1/2-z
1/2+x,-y,3/4-z
1/2-x,y,3/4-z
1/2-y,-x,3/4+z
1/2+y,x,3/4+z
loop_
_atom_site_type_symbol
_atom_site_label
_atom_site_fract_x
_atom_site_fract_y
_atom_site_fract_z
Si Si1 0.300120 0.056616 0.119072
Si Si2 0.532516 0.797952 0.532701
Si Si3 0.250000 0.806568 0.875000
Si Si4 0.115456 0.750000 0.625000
Si Si5 0.453979 0.148093 0.062441
Si Si6 0.250000 0.115388 0.875000
Si Si7 0.500000 0.500000 0.298266
Si Si8 0.251799 0.619739 0.051877
O O1 0.242662 0.150685 0.119817
O O2 0.402782 0.093360 0.121642
O O3 0.273438 0.982868 0.175802
O O4 0.301671 0.995349 0.047880
O O5 0.628522 0.758828 0.556847
O O6 0.452910 0.734235 0.562268
O O7 0.525539 0.897098 0.572161
O O8 0.169859 0.809031 0.569313
O O9 0.048975 0.683443 0.586003
O O10 0.473984 0.084559 0.998400
O O11 0.386880 0.222277 0.028039
O O12 0.335490 0.174606 0.898997
#
# Coordination Sequence:
#
# PCOD9560745 Si02
#       8
#    16  16   8   8  16   8   8  16
#     4  11  24  42  67  96 136 180 227 285 346 417
#     4  10  22  39  63  95 132 175 226 276 340 412
#     4  11  25  39  65 100 132 182 231 281 341 421
#     4  11  25  41  69  98 130 180 227 281 349 395
#     4  11  23  42  63  97 134 175 228 280 336 410
#     4  10  20  42  64  92 132 166 224 276 326 408
#     4  10  18  38  64  86 130 176 210 270 340 404
#     4  11  24  42  68  96 130 177 222 280 341 405
#
# _framework density 22.814503999999999
#
# number of rings (size 3 to 8) (size 9 to 14) (size 15 to 20)
#    0.000    1.333    3.333    3.500    2.333    4.000 
#    0.000    0.000    0.000    0.000    0.000    0.000 
#    0.000    0.000    0.000    0.000    0.000    0.000 
#
# Total GULP energy -267373.941909 kJ/mol
# GULP energy per Si atom -5570.290456 kJ/mol
# Density = 2.276258 g / cm^3
# Si number density = 22.814504 Si / 1000 Ang^3
#
#
#
# Elastic Constant Matrix: (Units=GPa)
#
#
# Indices 1 2 3 4 5 6 
#
# 1 98.4305 25.1128 -8.1690 0.0000 0.0000 0.0000
# 2 25.1128 98.4305 -8.1690 0.0000 0.0000 0.0000
# 3 -8.1690 -8.1690 18.9898 0.0000 0.0000 0.0000
# 4 0.0000 0.0000 0.0000 13.8415 0.0000 0.0000
# 5 0.0000 0.0000 0.0000 0.0000 13.8415 0.0000
# 6 0.0000 0.0000 0.0000 0.0000 0.0000 40.3100
#
#
#
# Elastic Compliance Matrix: (Units=1/GPa)
#
#
# Indices 1 2 3 4 5 6 
#
# 1 0.011111 -0.002528 0.003692 0.000000 0.000000 0.000000
# 2 -0.002528 0.011111 0.003692 0.000000 0.000000 0.000000
# 3 0.003692 0.003692 0.055836 0.000000 0.000000 0.000000
# 4 0.000000 0.000000 0.000000 0.072247 0.000000 0.000000
# 5 0.000000 0.000000 0.000000 0.000000 0.072247 0.000000
# 6 0.000000 0.000000 0.000000 0.000000 0.000000 0.024808
#
#
# Mechanical properties :
#
#
# Convention : Reuss Voigt Hill
#
# Bulk Modulus (GPa) = 11.39347 25.93341 18.66344
# Shear Modulus (GPa) = 18.73330 27.40365 23.06848
#
# Velocity S-wave (km/s) = 2.86862 3.46952 3.18328
# Velocity P-wave (km/s) = 3.99709 5.23850 4.65932
#
# Compressibility (1/GPa) = 0.08776961
#
# Stress axis : x y z
#
# Youngs Moduli (GPa) = 90.00153 90.00153 17.90947
#
# Poissons Ratio (x) = 0.22756 -0.06612
# Poissons Ratio (y) = 0.22756 -0.06612
# Poissons Ratio (z) = -0.33229 -0.33229
#
# Static dielectric constant tensor:
#      x y z
#    x 2.001650 0.000000 0.000000 
#    y 0.000000 2.001650 0.000000 
#    z 0.000000 0.000000 1.850660 
# 
# From -- ./inp_files/7372.got.cif
#   From: 2010.05.17/outbox.cif.g08.bks.cpg/sg122_4_cif.got.tgz:7372.got - 2010.05.20 11:37:33.
