data_PCOD9560496
_publ_section_title
;
Structure prediction by ZEFSAII (Michael W. Deem and Ramdas Pophale) SiO2 
 PCOD9560496
Probable space group: I -4 2 M
;
_chemical_formula_sum "Si O2"
_cell_formula_units_Z 72
_cell_length_a 21.028134
_cell_length_b 21.028134
_cell_length_c 8.183674
_cell_angle_alpha 90.000000
_cell_angle_beta 90.000000
_cell_angle_gamma 90.000000
_cell_volume 3618.676770
_symmetry_space_group_name_H-M "I -4 2 M"
_symmetry_group_IT_number 121
_symmetry_cell_setting 'tetragonal'
loop_
_space_group_symop_operation_xyz
x,y,z
y,-x,-z
-x,-y,z
-y,x,-z
x,-y,-z
-x,y,-z
-y,-x,z
y,x,z
1/2+x,1/2+y,1/2+z
1/2+y,1/2-x,1/2-z
1/2-x,1/2-y,1/2+z
1/2-y,1/2+x,1/2-z
1/2+x,1/2-y,1/2-z
1/2-x,1/2+y,1/2-z
1/2-y,1/2-x,1/2+z
1/2+y,1/2+x,1/2+z
loop_
_atom_site_type_symbol
_atom_site_label
_atom_site_fract_x
_atom_site_fract_y
_atom_site_fract_z
Si Si1 0.102370 0.503580 0.695204
Si Si2 0.780533 0.000000 0.500000
Si Si3 0.470201 0.246476 0.321763
Si Si4 0.655628 0.240017 0.493052
Si Si5 0.254800 0.361320 0.884840
O O1 0.103583 0.500000 0.500000
O O2 0.064317 0.441297 0.757219
O O3 0.176193 0.509278 0.745917
O O4 0.800445 0.011488 0.309390
O O5 0.754229 0.071131 0.528170
O O6 0.500000 0.257688 0.500000
O O7 0.396789 0.240588 0.367353
O O8 0.696241 0.303760 0.505522
O O9 0.630807 0.237511 0.307026
O O10 0.702922 0.182527 0.528640
O O11 0.321565 0.321565 0.894022
#
# Coordination Sequence:
#
# PCOD9560496 Si02
#       5
#    16   8  16  16  16
#     4  10  22  35  49  68 107 153 197 241 283 339
#     4  12  24  36  64  88 124 154 196 256 300 366
#     4  11  24  37  57  89 119 152 206 249 300 352
#     4  10  21  41  64  88 126 162 205 258 307 364
#     4  10  22  40  63  92 121 161 204 250 310 365
#
# _framework density 19.896777
#
# number of rings (size 3 to 8) (size 9 to 14) (size 15 to 20)
#    0.000    1.556    2.222    2.667    6.222    4.444 
#    0.000    0.000    0.000    0.333    0.000    0.000 
#    0.000    0.444    0.000    0.000    0.000    0.000 
#
# Total GULP energy -200492.656722 kJ/mol
# GULP energy per Si atom -5569.240464 kJ/mol
# Density = 1.985149 g / cm^3
# Si number density = 19.896777 Si / 1000 Ang^3
#
#
#
# Elastic Constant Matrix: (Units=GPa)
#
#
# Indices 1 2 3 4 5 6 
#
# 1 63.4068 10.4781 22.5188 0.0000 0.0000 0.0000
# 2 10.4781 63.4067 22.5201 0.0000 0.0000 0.0000
# 3 22.5188 22.5201 103.4211 0.0000 0.0000 0.0000
# 4 0.0000 0.0000 0.0000 20.8104 0.0000 0.0000
# 5 0.0000 0.0000 0.0000 0.0000 20.8115 0.0000
# 6 0.0000 0.0000 0.0000 0.0000 0.0000 2.1418
#
#
#
# Elastic Compliance Matrix: (Units=1/GPa)
#
#
# Indices 1 2 3 4 5 6 
#
# 1 0.017250 -0.001644 -0.003398 0.000000 0.000000 0.000000
# 2 -0.001644 0.017250 -0.003398 0.000000 0.000000 0.000000
# 3 -0.003398 -0.003398 0.011149 0.000000 0.000000 0.000000
# 4 0.000000 0.000000 0.000000 0.048053 0.000000 0.000000
# 5 0.000000 0.000000 0.000000 0.000000 0.048050 0.000000
# 6 0.000000 0.000000 0.000000 0.000000 0.000000 0.466888
#
#
# Mechanical properties :
#
#
# Convention : Reuss Voigt Hill
#
# Bulk Modulus (GPa) = 34.76017 37.91872 36.33945
# Shear Modulus (GPa) = 7.87266 20.40059 14.13663
#
# Velocity S-wave (km/s) = 1.99132 3.20554 2.66841
# Velocity P-wave (km/s) = 4.77444 5.72710 5.27233
#
# Compressibility (1/GPa) = 0.02876856
#
# Stress axis : x y z
#
# Youngs Moduli (GPa) = 57.97244 57.97175 89.69373
#
# Poissons Ratio (x) = 0.09529 0.30478
# Poissons Ratio (y) = 0.09529 0.30480
# Poissons Ratio (z) = 0.19699 0.19700
#
# Static dielectric constant tensor:
#      x y z
#    x 1.733220 0.000000 0.000000 
#    y 0.000000 1.733230 0.000000 
#    z 0.000000 0.000000 1.758150 
# 
# From -- ./inp_files/1668.got.cif
#   From: 2010.05.17/outbox.cif.g08.bks.cpg/sg121_1_cif.got.tgz:1668.got - 2010.05.20 11:32:06.
