data_PCOD9560810
_publ_section_title
;
Structure prediction by ZEFSAII (Michael W. Deem and Ramdas Pophale) SiO2 
 PCOD9560810
Probable space group: I -4 2 D
;
_chemical_formula_sum "Si O2"
_cell_formula_units_Z 80
_cell_length_a 11.698119
_cell_length_b 11.698119
_cell_length_c 29.414370
_cell_angle_alpha 90.000000
_cell_angle_beta 90.000000
_cell_angle_gamma 90.000000
_cell_volume 4025.238528
_symmetry_space_group_name_H-M "I -4 2 D"
_symmetry_group_IT_number 122
_symmetry_cell_setting 'tetragonal'
loop_
_space_group_symop_operation_xyz
x,y,z
y,-x,-z
-x,-y,z
-y,x,-z
x,1/2-y,1/4-z
-x,1/2+y,1/4-z
-y,1/2-x,1/4+z
y,1/2+x,1/4+z
1/2+x,1/2+y,1/2+z
1/2+y,1/2-x,1/2-z
1/2-x,1/2-y,1/2+z
1/2-y,1/2+x,1/2-z
1/2+x,-y,3/4-z
1/2-x,y,3/4-z
1/2-y,-x,3/4+z
1/2+y,x,3/4+z
loop_
_atom_site_type_symbol
_atom_site_label
_atom_site_fract_x
_atom_site_fract_y
_atom_site_fract_z
Si Si1 0.885500 0.421103 0.369220
Si Si2 0.912065 0.406476 0.965188
Si Si3 0.114909 0.668755 0.865102
Si Si4 0.533692 0.650208 0.026597
Si Si5 0.437224 0.655431 0.482039
O O1 0.750000 0.459922 0.375000
O O2 0.908410 0.301778 0.396183
O O3 0.888586 0.379273 0.316800
O O4 0.000000 0.500000 0.376184
O O5 0.940292 0.373275 0.912399
O O6 0.784830 0.453939 0.969337
O O7 0.919480 0.287201 0.991456
O O8 0.000000 0.500000 0.981862
O O9 0.250000 0.667579 0.875000
O O10 0.098921 0.584307 0.823196
O O11 0.611461 0.593172 0.987078
O O12 0.570836 0.623388 0.482714
#
# Coordination Sequence:
#
# PCOD9560810 Si02
#       5
#    16  16  16  16  16
#     4  10  19  38  65  94 124 170 210 255 314 383
#     4  10  22  37  65  93 122 160 215 254 299 380
#     4   8  18  39  62  87 122 167 203 250 311 376
#     4  10  22  40  61  87 128 164 200 251 324 362
#     4  10  20  40  67  89 130 167 200 254 331 363
#
# _framework density 19.874599
#
# number of rings (size 3 to 8) (size 9 to 14) (size 15 to 20)
#    0.000    2.400    2.000    1.200    5.600    0.000 
#    3.600    0.000    4.400    0.000    0.000    0.000 
#    0.000    0.000    0.000    0.000    0.000    0.000 
#
# Total GULP energy -222717.901803 kJ/mol
# GULP energy per Si atom -5567.947545 kJ/mol
# Density = 1.982936 g / cm^3
# Si number density = 19.874599 Si / 1000 Ang^3
#
#
#
# Elastic Constant Matrix: (Units=GPa)
#
#
# Indices 1 2 3 4 5 6 
#
# 1 114.7149 36.5158 14.3446 0.0000 0.0000 0.0000
# 2 36.5158 114.7149 14.3446 0.0000 0.0000 0.0000
# 3 14.3446 14.3446 40.5873 0.0000 0.0000 0.0000
# 4 0.0000 0.0000 0.0000 24.6102 0.0000 0.0000
# 5 0.0000 0.0000 0.0000 0.0000 24.6102 0.0000
# 6 0.0000 0.0000 0.0000 0.0000 0.0000 23.0106
#
#
#
# Elastic Compliance Matrix: (Units=1/GPa)
#
#
# Indices 1 2 3 4 5 6 
#
# 1 0.009938 -0.002850 -0.002505 0.000000 0.000000 0.000000
# 2 -0.002850 0.009938 -0.002505 0.000000 0.000000 0.000000
# 3 -0.002505 -0.002505 0.026409 0.000000 0.000000 0.000000
# 4 0.000000 0.000000 0.000000 0.040634 0.000000 0.000000
# 5 0.000000 0.000000 0.000000 0.000000 0.040634 0.000000
# 6 0.000000 0.000000 0.000000 0.000000 0.000000 0.043458
#
#
# Mechanical properties :
#
#
# Convention : Reuss Voigt Hill
#
# Bulk Modulus (GPa) = 32.71788 44.49188 38.60488
# Shear Modulus (GPa) = 25.39129 28.10033 26.74581
#
# Velocity S-wave (km/s) = 3.57820 3.76424 3.67240
# Velocity P-wave (km/s) = 5.79389 6.42865 6.11951
#
# Compressibility (1/GPa) = 0.03056433
#
# Stress axis : x y z
#
# Youngs Moduli (GPa) = 100.62646 100.62646 37.86605
#
# Poissons Ratio (x) = 0.28680 0.09485
# Poissons Ratio (y) = 0.28680 0.09485
# Poissons Ratio (z) = 0.25206 0.25206
#
# Static dielectric constant tensor:
#      x y z
#    x 1.724190 0.000000 0.000000 
#    y 0.000000 1.724190 0.000000 
#    z 0.000000 0.000000 1.754980 
# 
# From -- ./inp_files/9389.got.cif
#   From: 2010.05.17/outbox.cif.g08.bks.cpg/sg122_5_cif.got.tgz:9389.got - 2010.05.20 11:37:33.
