data_PCOD9560099
_publ_section_title
;
Structure prediction by ZEFSAII (Michael W. Deem and Ramdas Pophale) SiO2 
 PCOD9560099
Probable space group: I -4 2 M
;
_chemical_formula_sum "Si O2"
_cell_formula_units_Z 72
_cell_length_a 13.519948
_cell_length_b 13.519948
_cell_length_c 21.880426
_cell_angle_alpha 90.000000
_cell_angle_beta 90.000000
_cell_angle_gamma 90.000000
_cell_volume 3999.501055
_symmetry_space_group_name_H-M "I -4 2 M"
_symmetry_group_IT_number 121
_symmetry_cell_setting 'tetragonal'
loop_
_space_group_symop_operation_xyz
x,y,z
y,-x,-z
-x,-y,z
-y,x,-z
x,-y,-z
-x,y,-z
-y,-x,z
y,x,z
1/2+x,1/2+y,1/2+z
1/2+y,1/2-x,1/2-z
1/2-x,1/2-y,1/2+z
1/2-y,1/2+x,1/2-z
1/2+x,1/2-y,1/2-z
1/2-x,1/2+y,1/2-z
1/2-y,1/2-x,1/2+z
1/2+y,1/2+x,1/2+z
loop_
_atom_site_type_symbol
_atom_site_label
_atom_site_fract_x
_atom_site_fract_y
_atom_site_fract_z
Si Si1 0.735131 0.000000 0.000000
Si Si2 0.658825 0.494576 0.381212
Si Si3 0.248920 0.917265 0.231798
Si Si4 0.443025 0.105329 0.940220
Si Si5 0.732036 0.901170 0.319493
O O1 0.799217 0.042097 0.945100
O O2 0.664326 0.922677 0.966309
O O3 0.588130 0.411871 0.352776
O O4 0.589894 0.589894 0.394261
O O5 0.740187 0.524677 0.332427
O O6 0.153976 0.846025 0.235841
O O7 0.343069 0.846294 0.224018
O O8 0.245330 0.996434 0.285497
O O9 0.428611 0.177530 0.883156
O O10 0.500000 0.000000 0.925145
O O11 0.500000 0.146795 0.000000
O O12 0.825789 0.825789 0.327419
#
# Coordination Sequence:
#
# PCOD9560099 Si02
#       5
#     8  16  16  16  16
#     4  10  17  31  52  78 112 148 194 235 283 346
#     4  10  19  31  50  80 117 152 184 228 293 355
#     4  10  23  39  58  88 121 156 201 249 301 358
#     4   9  21  38  58  83 115 155 197 242 297 346
#     4  11  23  39  63  90 119 160 204 248 300 358
#
# _framework density 18.002247000000001
#
# number of rings (size 3 to 8) (size 9 to 14) (size 15 to 20)
#    0.000    2.222    2.222    1.333    3.111    3.111 
#    0.000    1.111    0.000    1.333    0.000    0.000 
#    0.000    0.000    0.000    0.000    0.000    0.000 
#
# Total GULP energy -200561.790899 kJ/mol
# GULP energy per Si atom -5571.160858 kJ/mol
# Density = 1.796127 g / cm^3
# Si number density = 18.002247 Si / 1000 Ang^3
#
#
#
# Elastic Constant Matrix: (Units=GPa)
#
#
# Indices 1 2 3 4 5 6 
#
# 1 69.6761 25.1797 43.3912 0.0000 0.0000 0.0000
# 2 25.1797 69.6757 43.3927 0.0000 0.0000 0.0000
# 3 43.3912 43.3927 110.0324 0.0000 0.0000 0.0000
# 4 0.0000 0.0000 0.0000 24.9504 0.0000 0.0000
# 5 0.0000 0.0000 0.0000 0.0000 24.9509 0.0000
# 6 0.0000 0.0000 0.0000 0.0000 0.0000 12.2991
#
#
#
# Elastic Compliance Matrix: (Units=1/GPa)
#
#
# Indices 1 2 3 4 5 6 
#
# 1 0.019483 -0.002990 -0.006504 0.000000 0.000000 0.000000
# 2 -0.002990 0.019484 -0.006504 0.000000 0.000000 0.000000
# 3 -0.006504 -0.006504 0.014218 0.000000 0.000000 0.000000
# 4 0.000000 0.000000 0.000000 0.040079 0.000000 0.000000
# 5 0.000000 0.000000 0.000000 0.000000 0.040079 0.000000
# 6 0.000000 0.000000 0.000000 0.000000 0.000000 0.081307
#
#
# Mechanical properties :
#
#
# Convention : Reuss Voigt Hill
#
# Bulk Modulus (GPa) = 47.19732 52.59015 49.89373
# Shear Modulus (GPa) = 19.70757 21.60146 20.65451
#
# Velocity S-wave (km/s) = 3.31226 3.46776 3.39090
# Velocity P-wave (km/s) = 6.39550 6.73130 6.56555
#
# Compressibility (1/GPa) = 0.02118764
#
# Stress axis : x y z
#
# Youngs Moduli (GPa) = 51.32650 51.32499 70.33294
#
# Poissons Ratio (x) = 0.15348 0.45743
# Poissons Ratio (y) = 0.15349 0.45747
# Poissons Ratio (z) = 0.33382 0.33384
#
# Static dielectric constant tensor:
#      x y z
#    x 1.645800 0.000000 0.000000 
#    y 0.000000 1.645800 0.000000 
#    z 0.000000 0.000000 1.629290 
# 
# From -- ./inp_files/5188.got.cif
#   From: 2010.05.17/outbox.cif.g08.bks.cpg/sg121_3_cif.got.tgz:5188.got - 2010.05.20 11:32:06.
