data_PCOD9560126
_publ_section_title
;
Structure prediction by ZEFSAII (Michael W. Deem and Ramdas Pophale) SiO2 
 PCOD9560126
Probable space group: I -4 2 M
;
_chemical_formula_sum "Si O2"
_cell_formula_units_Z 96
_cell_length_a 26.012589
_cell_length_b 26.012589
_cell_length_c 9.933822
_cell_angle_alpha 90.000000
_cell_angle_beta 90.000000
_cell_angle_gamma 90.000000
_cell_volume 6721.768204
_symmetry_space_group_name_H-M "I -4 2 M"
_symmetry_group_IT_number 121
_symmetry_cell_setting 'tetragonal'
loop_
_space_group_symop_operation_xyz
x,y,z
y,-x,-z
-x,-y,z
-y,x,-z
x,-y,-z
-x,y,-z
-y,-x,z
y,x,z
1/2+x,1/2+y,1/2+z
1/2+y,1/2-x,1/2-z
1/2-x,1/2-y,1/2+z
1/2-y,1/2+x,1/2-z
1/2+x,1/2-y,1/2-z
1/2-x,1/2+y,1/2-z
1/2-y,1/2-x,1/2+z
1/2+y,1/2+x,1/2+z
loop_
_atom_site_type_symbol
_atom_site_label
_atom_site_fract_x
_atom_site_fract_y
_atom_site_fract_z
Si Si1 0.838084 0.749839 0.458682
Si Si2 0.118074 0.796316 0.978871
Si Si3 0.057922 0.808204 0.507212
Si Si4 0.722781 0.189045 0.834837
Si Si5 0.933609 0.848259 0.792668
Si Si6 0.448490 0.633397 0.281843
O O1 0.799940 0.799940 0.458918
O O2 0.896277 0.769331 0.459532
O O3 0.825738 0.718882 0.321501
O O4 0.824125 0.715795 0.588539
O O5 0.168041 0.831960 0.003968
O O6 0.140491 0.743685 0.920507
O O7 0.084364 0.825038 0.865696
O O8 0.085146 0.800856 0.114628
O O9 0.070009 0.833224 0.363268
O O10 0.056010 0.850400 0.625708
O O11 0.000000 0.785765 0.500000
O O12 0.767902 0.232099 0.838308
O O13 0.895868 0.895868 0.821708
O O14 0.992223 0.863348 0.822286
O O15 0.421071 0.578930 0.304102
#
# Coordination Sequence:
#
# PCOD9560126 Si02
#       6
#    16  16  16  16  16  16
#     4  10  18  30  46  67  90 113 146 187 225 271
#     4   9  17  30  43  59  83 109 138 179 231 281
#     4  10  20  32  46  62  85 120 154 184 230 276
#     4   9  18  28  45  67  87 111 137 178 233 273
#     4  10  20  29  42  63  82 110 156 201 232 265
#     4  10  18  31  46  57  79 117 155 194 240 272
#
# _framework density 14.281955999999999
#
# number of rings (size 3 to 8) (size 9 to 14) (size 15 to 20)
#    0.000    2.333    1.667    2.000    2.333    0.333 
#    0.000    0.000    0.000    6.000    0.000    0.000 
#    0.000    0.000    0.000    0.000    0.000   12.500 
#
# Total GULP energy -267412.197872 kJ/mol
# GULP energy per Si atom -5571.087456 kJ/mol
# Density = 1.424945 g / cm^3
# Si number density = 14.281956 Si / 1000 Ang^3
#
#
#
# Elastic Constant Matrix: (Units=GPa)
#
#
# Indices 1 2 3 4 5 6 
#
# 1 37.0584 23.1096 5.6847 0.0000 0.0000 0.0000
# 2 23.1096 37.0570 5.6828 0.0000 0.0000 0.0000
# 3 5.6847 5.6828 40.6479 0.0000 0.0000 0.0000
# 4 0.0000 0.0000 0.0000 16.3796 0.0000 0.0000
# 5 0.0000 0.0000 0.0000 0.0000 16.3794 0.0000
# 6 0.0000 0.0000 0.0000 0.0000 0.0000 16.1190
#
#
#
# Elastic Compliance Matrix: (Units=1/GPa)
#
#
# Indices 1 2 3 4 5 6 
#
# 1 0.044382 -0.027311 -0.002389 0.000000 0.000000 0.000000
# 2 -0.027311 0.044383 -0.002385 0.000000 0.000000 0.000000
# 3 -0.002389 -0.002385 0.025269 0.000000 0.000000 0.000000
# 4 0.000000 0.000000 0.000000 0.061052 0.000000 0.000000
# 5 0.000000 0.000000 0.000000 0.000000 0.061052 0.000000
# 6 0.000000 0.000000 0.000000 0.000000 0.000000 0.062039
#
#
# Mechanical properties :
#
#
# Convention : Reuss Voigt Hill
#
# Bulk Modulus (GPa) = 20.05475 20.41305 20.23390
# Shear Modulus (GPa) = 13.19368 15.12801 14.16085
#
# Velocity S-wave (km/s) = 3.04271 3.25813 3.15226
# Velocity P-wave (km/s) = 5.13971 5.33646 5.23901
#
# Compressibility (1/GPa) = 0.04986349
#
# Stress axis : x y z
#
# Youngs Moduli (GPa) = 22.53158 22.53103 39.57404
#
# Poissons Ratio (x) = 0.61535 0.09453
# Poissons Ratio (y) = 0.61537 0.09440
# Poissons Ratio (z) = 0.05382 0.05375
#
# Static dielectric constant tensor:
#      x y z
#    x 1.459920 0.000000 0.000000 
#    y 0.000000 1.459920 0.000000 
#    z 0.000000 0.000000 1.515770 
# 
# From -- ./inp_files/2073.got.cif
#   From: 2010.05.17/outbox.cif.g08.bks.cpg/sg121_2_cif.got.tgz:2073.got - 2010.05.20 11:32:06.
