data_PCOD9560090
_publ_section_title
;
Structure prediction by ZEFSAII (Michael W. Deem and Ramdas Pophale) SiO2 
 PCOD9560090
Probable space group: I -4 2 M
;
_chemical_formula_sum "Si O2"
_cell_formula_units_Z 104
_cell_length_a 22.455462
_cell_length_b 22.455462
_cell_length_c 13.878805
_cell_angle_alpha 90.000000
_cell_angle_beta 90.000000
_cell_angle_gamma 90.000000
_cell_volume 6998.356522
_symmetry_space_group_name_H-M "I -4 2 M"
_symmetry_group_IT_number 121
_symmetry_cell_setting 'tetragonal'
loop_
_space_group_symop_operation_xyz
x,y,z
y,-x,-z
-x,-y,z
-y,x,-z
x,-y,-z
-x,y,-z
-y,-x,z
y,x,z
1/2+x,1/2+y,1/2+z
1/2+y,1/2-x,1/2-z
1/2-x,1/2-y,1/2+z
1/2-y,1/2+x,1/2-z
1/2+x,1/2-y,1/2-z
1/2-x,1/2+y,1/2-z
1/2-y,1/2-x,1/2+z
1/2+y,1/2+x,1/2+z
loop_
_atom_site_type_symbol
_atom_site_label
_atom_site_fract_x
_atom_site_fract_y
_atom_site_fract_z
Si Si1 0.729387 0.370019 0.749927
Si Si2 0.823447 0.020460 0.346598
Si Si3 0.807575 0.094123 0.537426
Si Si4 0.220406 0.321598 0.064325
Si Si5 0.132291 0.232964 0.976573
Si Si6 0.809050 0.000000 0.000000
Si Si7 0.999026 0.097387 0.828794
O O1 0.667885 0.332116 0.766249
O O2 0.718172 0.438037 0.780235
O O3 0.776596 0.343456 0.825413
O O4 0.743776 0.363306 0.638313
O O5 0.832727 0.060391 0.442100
O O6 0.799350 0.956972 0.383165
O O7 0.880107 0.008052 0.279922
O O8 0.855333 0.144668 0.566462
O O9 0.746617 0.125807 0.502922
O O10 0.270668 0.270668 0.056058
O O11 0.161084 0.289066 0.030929
O O12 0.173616 0.173616 0.996095
O O13 0.063274 0.224337 0.002442
O O14 0.849833 0.997744 0.904839
O O15 0.937325 0.062676 0.838253
O O16 0.051452 0.051452 0.852609
#
# Coordination Sequence:
#
# PCOD9560090 Si02
#       7
#    16  16  16  16  16   8  16
#     4   9  16  30  49  65  89 125 159 189 236 293
#     4  10  17  28  46  65  90 125 156 193 238 282
#     4   9  17  29  46  68  93 118 156 204 244 286
#     4   8  16  31  49  68  88 117 155 199 246 293
#     4  10  19  33  50  67  90 122 159 196 241 287
#     4  12  22  33  46  64  90 125 166 206 232 268
#     4  11  21  31  42  59  89 130 171 200 224 258
#
# _framework density 14.860632000000001
#
# number of rings (size 3 to 8) (size 9 to 14) (size 15 to 20)
#    0.000    2.308    1.538    4.154    0.000    0.615 
#    2.769    0.000    0.000    5.538    0.000    0.000 
#    0.000    9.846    0.000   11.077    0.000    0.154 
#
# Total GULP energy -289552.498189 kJ/mol
# GULP energy per Si atom -5568.317273 kJ/mol
# Density = 1.482681 g / cm^3
# Si number density = 14.860632 Si / 1000 Ang^3
#
#
#
# Elastic Constant Matrix: (Units=GPa)
#
#
# Indices 1 2 3 4 5 6 
#
# 1 70.6154 41.7042 25.5693 0.0000 0.0000 0.0000
# 2 41.7042 70.6134 25.5685 0.0000 0.0000 0.0000
# 3 25.5693 25.5685 46.9837 0.0000 0.0000 0.0000
# 4 0.0000 0.0000 0.0000 19.7471 0.0000 0.0000
# 5 0.0000 0.0000 0.0000 0.0000 19.7475 0.0000
# 6 0.0000 0.0000 0.0000 0.0000 0.0000 11.8586
#
#
#
# Elastic Compliance Matrix: (Units=1/GPa)
#
#
# Indices 1 2 3 4 5 6 
#
# 1 0.023213 -0.011377 -0.006441 0.000000 0.000000 0.000000
# 2 -0.011377 0.023213 -0.006441 0.000000 0.000000 0.000000
# 3 -0.006441 -0.006441 0.028295 0.000000 0.000000 0.000000
# 4 0.000000 0.000000 0.000000 0.050640 0.000000 0.000000
# 5 0.000000 0.000000 0.000000 0.000000 0.050639 0.000000
# 6 0.000000 0.000000 0.000000 0.000000 0.000000 0.084327
#
#
# Mechanical properties :
#
#
# Convention : Reuss Voigt Hill
#
# Bulk Modulus (GPa) = 38.16548 41.54406 39.85477
# Shear Modulus (GPa) = 15.74407 16.62867 16.18637
#
# Velocity S-wave (km/s) = 3.25845 3.34874 3.30390
# Velocity P-wave (km/s) = 6.31622 6.55504 6.43674
#
# Compressibility (1/GPa) = 0.02620169
#
# Stress axis : x y z
#
# Youngs Moduli (GPa) = 43.07998 43.07915 35.34243
#
# Poissons Ratio (x) = 0.49011 0.22765
# Poissons Ratio (y) = 0.49012 0.22764
# Poissons Ratio (z) = 0.27749 0.27747
#
# Static dielectric constant tensor:
#      x y z
#    x 1.492860 0.000000 0.000000 
#    y 0.000000 1.492860 0.000000 
#    z 0.000000 0.000000 1.518950 
# 
# From -- ./inp_files/4571.got.cif
#   From: 2010.05.17/outbox.cif.g08.bks.cpg/sg121_3_cif.got.tgz:4571.got - 2010.05.20 11:32:06.
