data_PCOD9560904
_publ_section_title
;
Structure prediction by ZEFSAII (Michael W. Deem and Ramdas Pophale) SiO2 
 PCOD9560904
Probable space group: I -4 2 D
;
_chemical_formula_sum "Si O2"
_cell_formula_units_Z 40
_cell_length_a 19.904599
_cell_length_b 19.904599
_cell_length_c 4.879275
_cell_angle_alpha 90.000000
_cell_angle_beta 90.000000
_cell_angle_gamma 90.000000
_cell_volume 1933.134899
_symmetry_space_group_name_H-M "I -4 2 D"
_symmetry_group_IT_number 122
_symmetry_cell_setting 'tetragonal'
loop_
_space_group_symop_operation_xyz
x,y,z
y,-x,-z
-x,-y,z
-y,x,-z
x,1/2-y,1/4-z
-x,1/2+y,1/4-z
-y,1/2-x,1/4+z
y,1/2+x,1/4+z
1/2+x,1/2+y,1/2+z
1/2+y,1/2-x,1/2-z
1/2-x,1/2-y,1/2+z
1/2-y,1/2+x,1/2-z
1/2+x,-y,3/4-z
1/2-x,y,3/4-z
1/2-y,-x,3/4+z
1/2+y,x,3/4+z
loop_
_atom_site_type_symbol
_atom_site_label
_atom_site_fract_x
_atom_site_fract_y
_atom_site_fract_z
Si Si1 0.314779 0.073620 0.207044
Si Si2 0.604591 0.535142 0.550497
Si Si3 0.705100 0.250000 0.125000
O O1 0.250000 0.045236 0.375000
O O2 0.376840 0.050588 0.388787
O O3 0.303316 0.153727 0.238806
O O4 0.332745 0.053082 0.899107
O O5 0.581710 0.458532 0.524477
O O6 0.750000 0.276680 0.375000
#
# Coordination Sequence:
#
# PCOD9560904 Si02
#       3
#    16  16   8
#     4  10  22  39  63  86 126 161 201 270 305 364
#     4  11  22  40  63  90 124 169 207 248 316 378
#     4  10  20  38  64  86 120 166 196 244 334 358
#
# _framework density 20.691776999999998
#
# number of rings (size 3 to 8) (size 9 to 14) (size 15 to 20)
#    1.200    0.400    0.000    6.000    0.000    3.200 
#    0.000   20.000    0.000    0.000    0.000    0.000 
#    0.000    0.000    0.000    0.000    0.000    0.000 
#
# Total GULP energy -111463.983322 kJ/mol
# GULP energy per Si atom -5573.199166 kJ/mol
# Density = 2.064468 g / cm^3
# Si number density = 20.691777 Si / 1000 Ang^3
#
#
#
# Elastic Constant Matrix: (Units=GPa)
#
#
# Indices 1 2 3 4 5 6 
#
# 1 52.0943 12.4324 1.8108 0.0000 0.0000 0.0000
# 2 12.4324 52.0943 1.8108 0.0000 0.0000 0.0000
# 3 1.8108 1.8108 100.4221 0.0000 0.0000 0.0000
# 4 0.0000 0.0000 0.0000 4.3188 0.0000 0.0000
# 5 0.0000 0.0000 0.0000 0.0000 4.3188 0.0000
# 6 0.0000 0.0000 0.0000 0.0000 0.0000 16.2964
#
#
#
# Elastic Compliance Matrix: (Units=1/GPa)
#
#
# Indices 1 2 3 4 5 6 
#
# 1 0.020363 -0.004850 -0.000280 0.000000 0.000000 0.000000
# 2 -0.004850 0.020363 -0.000280 0.000000 0.000000 0.000000
# 3 -0.000280 -0.000280 0.009968 0.000000 0.000000 0.000000
# 4 0.000000 0.000000 0.000000 0.231548 0.000000 0.000000
# 5 0.000000 0.000000 0.000000 0.000000 0.231548 0.000000
# 6 0.000000 0.000000 0.000000 0.000000 0.000000 0.061363
#
#
# Mechanical properties :
#
#
# Convention : Reuss Voigt Hill
#
# Bulk Modulus (GPa) = 25.07808 26.30207 25.69008
# Shear Modulus (GPa) = 8.34355 17.55723 12.95039
#
# Velocity S-wave (km/s) = 2.01024 2.91608 2.50446
# Velocity P-wave (km/s) = 4.18739 4.90683 4.56132
#
# Compressibility (1/GPa) = 0.03987545
#
# Stress axis : x y z
#
# Youngs Moduli (GPa) = 49.10834 49.10834 100.32047
#
# Poissons Ratio (x) = 0.23817 0.02806
# Poissons Ratio (y) = 0.23817 0.02806
# Poissons Ratio (z) = 0.01374 0.01374
#
# Static dielectric constant tensor:
#      x y z
#    x 1.768050 0.000000 0.000000 
#    y 0.000000 1.768050 0.000000 
#    z 0.000000 0.000000 1.684920 
# 
# From -- ./inp_files/428.got.cif
#   From: 2010.05.17/outbox.cif.g08.bks.cpg/sg122_1_cif.got.tgz:428.got - 2010.05.20 11:37:33.
