data_PCOD9560532
_publ_section_title
;
Structure prediction by ZEFSAII (Michael W. Deem and Ramdas Pophale) SiO2 
 PCOD9560532
Probable space group: I -4 2 M
;
_chemical_formula_sum "Si O2"
_cell_formula_units_Z 64
_cell_length_a 11.855960
_cell_length_b 11.855960
_cell_length_c 19.997813
_cell_angle_alpha 90.000000
_cell_angle_beta 90.000000
_cell_angle_gamma 90.000000
_cell_volume 2810.968337
_symmetry_space_group_name_H-M "I -4 2 M"
_symmetry_group_IT_number 121
_symmetry_cell_setting 'tetragonal'
loop_
_space_group_symop_operation_xyz
x,y,z
y,-x,-z
-x,-y,z
-y,x,-z
x,-y,-z
-x,y,-z
-y,-x,z
y,x,z
1/2+x,1/2+y,1/2+z
1/2+y,1/2-x,1/2-z
1/2-x,1/2-y,1/2+z
1/2-y,1/2+x,1/2-z
1/2+x,1/2-y,1/2-z
1/2-x,1/2+y,1/2-z
1/2-y,1/2-x,1/2+z
1/2+y,1/2+x,1/2+z
loop_
_atom_site_type_symbol
_atom_site_label
_atom_site_fract_x
_atom_site_fract_y
_atom_site_fract_z
Si Si1 0.370529 0.191748 0.979572
Si Si2 0.440971 0.842965 0.166577
Si Si3 0.039956 0.229520 0.778494
Si Si4 0.693677 0.871563 0.117353
O O1 0.312684 0.312684 0.985606
O O2 0.369116 0.161160 0.901778
O O3 0.500000 0.195566 0.000000
O O4 0.310845 0.116969 0.036963
O O5 0.356209 0.907204 0.216459
O O6 0.472034 0.730957 0.208657
O O7 0.564544 0.884900 0.142305
O O8 0.135538 0.135538 0.780934
O O9 0.957248 0.228911 0.841832
O O10 0.747580 0.747580 0.131034
#
# Coordination Sequence:
#
# PCOD9560532 Si02
#       4
#    16  16  16  16
#     4   9  20  39  64  94 131 174 222 275 333 399
#     4  11  22  40  65  94 130 175 229 278 331 395
#     4  12  25  40  66 100 138 181 223 277 341 406
#     4  10  22  42  67  97 136 177 222 277 336 405
#
# _framework density 22.767956000000002
#
# number of rings (size 3 to 8) (size 9 to 14) (size 15 to 20)
#    0.000    1.500    2.500    2.250    0.000    3.750 
#    0.000    3.750    0.000    6.750    0.000    3.500 
#    0.000    0.000    0.000    0.000    0.000    0.000 
#
# Total GULP energy -178412.458175 kJ/mol
# GULP energy per Si atom -5575.389318 kJ/mol
# Density = 2.271614 g / cm^3
# Si number density = 22.767956 Si / 1000 Ang^3
#
#
#
# Elastic Constant Matrix: (Units=GPa)
#
#
# Indices 1 2 3 4 5 6 
#
# 1 18.1906 87.3388 36.9527 0.0000 0.0000 0.0000
# 2 87.3388 18.1906 36.9527 0.0000 0.0000 0.0000
# 3 36.9527 36.9527 191.4886 0.0000 0.0000 0.0000
# 4 0.0000 0.0000 0.0000 24.9579 0.0000 0.0000
# 5 0.0000 0.0000 0.0000 0.0000 24.9579 0.0000
# 6 0.0000 0.0000 0.0000 0.0000 0.0000 41.5556
#
#
#
# Elastic Compliance Matrix: (Units=1/GPa)
#
#
# Indices 1 2 3 4 5 6 
#
# 1 -0.001752 0.012709 -0.002114 0.000000 0.000000 0.000000
# 2 0.012709 -0.001752 -0.002114 0.000000 0.000000 0.000000
# 3 -0.002114 -0.002114 0.006038 0.000000 0.000000 0.000000
# 4 0.000000 0.000000 0.000000 0.040067 0.000000 0.000000
# 5 0.000000 0.000000 0.000000 0.000000 0.040067 0.000000
# 6 0.000000 0.000000 0.000000 0.000000 0.000000 0.024064
#
#
# Mechanical properties :
#
#
# Convention : Reuss Voigt Hill
#
# Bulk Modulus (GPa) = 51.29697 61.15089 56.22393
# Shear Modulus (GPa) = 51.93747 22.73601 37.33674
#
# Velocity S-wave (km/s) = 4.78134 3.16349 4.05394
# Velocity P-wave (km/s) = 7.28429 6.34509 6.83085
#
# Compressibility (1/GPa) = 0.01949433
#
# Stress axis : x y z
#
# Youngs Moduli (GPa) = -570.63398 -570.63401 165.60960
#
# Poissons Ratio (x) = 7.25233 0.35016
# Poissons Ratio (y) = 7.25233 0.35016
# Poissons Ratio (z) = -1.20655 -1.20655
#
# Static dielectric constant tensor:
#      x y z
#    x 1.861340 0.000000 0.000000 
#    y 0.000000 1.861340 0.000000 
#    z 0.000000 0.000000 1.947470 
# 
# From -- ./inp_files/6019.got.cif
#   From: 2010.05.17/outbox.cif.g08.bks.cpg/sg121_4_cif.got.tgz:6019.got - 2010.05.20 11:32:06.
