data_PCOD9560954
_publ_section_title
;
Structure prediction by ZEFSAII (Michael W. Deem and Ramdas Pophale) SiO2 
 PCOD9560954
Probable space group: I -4 2 D
;
_chemical_formula_sum "Si O2"
_cell_formula_units_Z 80
_cell_length_a 18.756838
_cell_length_b 18.756838
_cell_length_c 12.002801
_cell_angle_alpha 90.000000
_cell_angle_beta 90.000000
_cell_angle_gamma 90.000000
_cell_volume 4222.813106
_symmetry_space_group_name_H-M "I -4 2 D"
_symmetry_group_IT_number 122
_symmetry_cell_setting 'tetragonal'
loop_
_space_group_symop_operation_xyz
x,y,z
y,-x,-z
-x,-y,z
-y,x,-z
x,1/2-y,1/4-z
-x,1/2+y,1/4-z
-y,1/2-x,1/4+z
y,1/2+x,1/4+z
1/2+x,1/2+y,1/2+z
1/2+y,1/2-x,1/2-z
1/2-x,1/2-y,1/2+z
1/2-y,1/2+x,1/2-z
1/2+x,-y,3/4-z
1/2-x,y,3/4-z
1/2-y,-x,3/4+z
1/2+y,x,3/4+z
loop_
_atom_site_type_symbol
_atom_site_label
_atom_site_fract_x
_atom_site_fract_y
_atom_site_fract_z
Si Si1 0.917485 0.021542 0.789189
Si Si2 0.394933 0.834620 0.621575
Si Si3 0.950446 0.088560 0.449368
Si Si4 0.853412 0.667057 0.142106
Si Si5 0.166922 0.816994 0.368234
O O1 0.873115 0.970213 0.870248
O O2 0.899462 0.996001 0.663272
O O3 0.888280 0.099900 0.819215
O O4 0.000000 0.000000 0.805341
O O5 0.405441 0.750000 0.625000
O O6 0.351009 0.860865 0.727302
O O7 0.356886 0.845335 0.503213
O O8 0.886986 0.144907 0.453386
O O9 0.009747 0.085250 0.546598
O O10 0.873644 0.750000 0.125000
O O11 0.768444 0.659725 0.119878
O O12 0.250000 0.834386 0.375000
#
# Coordination Sequence:
#
# PCOD9560954 Si02
#       5
#    16  16  16  16  16
#     4  11  22  37  58  86 120 156 201 244 304 367
#     4   9  20  38  58  84 121 154 192 251 304 350
#     4  10  20  42  59  82 126 159 193 260 314 357
#     4  10  22  39  61  89 124 160 206 256 305 372
#     4   9  20  41  64  89 117 160 208 252 309 373
#
# _framework density 18.944717000000001
#
# number of rings (size 3 to 8) (size 9 to 14) (size 15 to 20)
#    0.000    2.200    2.000    0.600    2.800    1.600 
#    7.200    3.000    0.000    0.000    0.000    0.000 
#    0.000    0.000    0.000    0.000    0.000    0.000 
#
# Total GULP energy -222808.767748 kJ/mol
# GULP energy per Si atom -5570.219194 kJ/mol
# Density = 1.890160 g / cm^3
# Si number density = 18.944717 Si / 1000 Ang^3
#
#
#
# Elastic Constant Matrix: (Units=GPa)
#
#
# Indices 1 2 3 4 5 6 
#
# 1 67.2790 44.7899 24.6775 0.0000 0.0000 0.0000
# 2 44.7899 67.2790 24.6775 0.0000 0.0000 0.0000
# 3 24.6775 24.6775 38.5369 0.0000 0.0000 0.0000
# 4 0.0000 0.0000 0.0000 -25.8309 0.0000 0.0000
# 5 0.0000 0.0000 0.0000 0.0000 -25.8309 0.0000
# 6 0.0000 0.0000 0.0000 0.0000 0.0000 38.5190
#
#
#
# Elastic Compliance Matrix: (Units=1/GPa)
#
#
# Indices 1 2 3 4 5 6 
#
# 1 0.028447 -0.016019 -0.007958 0.000000 0.000000 0.000000
# 2 -0.016019 0.028447 -0.007958 0.000000 0.000000 0.000000
# 3 -0.007958 -0.007958 0.036142 0.000000 0.000000 0.000000
# 4 0.000000 0.000000 0.000000 -0.038713 0.000000 0.000000
# 5 0.000000 0.000000 0.000000 0.000000 -0.038713 0.000000
# 6 0.000000 0.000000 0.000000 0.000000 0.000000 0.025961
#
#
# Mechanical properties :
#
#
# Convention : Reuss Voigt Hill
#
# Bulk Modulus (GPa) = 34.28880 40.15384 37.22132
# Shear Modulus (GPa) = 43.41669 2.63476 23.02573
#
# Velocity S-wave (km/s) = 4.79242 1.18059 3.49006
# Velocity P-wave (km/s) = 6.98296 4.80621 5.99422
#
# Compressibility (1/GPa) = 0.02916404
#
# Stress axis : x y z
#
# Youngs Moduli (GPa) = 35.15307 35.15307 27.66901
#
# Poissons Ratio (x) = 0.56312 0.22020
# Poissons Ratio (y) = 0.56312 0.22020
# Poissons Ratio (z) = 0.27976 0.27976
#
# Static dielectric constant tensor:
#      x y z
#    x 1.689580 0.000000 0.000000 
#    y 0.000000 1.689580 0.000000 
#    z 0.000000 0.000000 1.690100 
# 
# From -- ./inp_files/5279.got.cif
#   From: 2010.05.17/outbox.cif.g08.bks.cpg/sg122_3_cif.got.tgz:5279.got - 2010.05.20 11:37:33.
