data_PCOD9560227
_publ_section_title
;
Structure prediction by ZEFSAII (Michael W. Deem and Ramdas Pophale) SiO2 
 PCOD9560227
Probable space group: I -4 2 M
;
_chemical_formula_sum "Si O2"
_cell_formula_units_Z 96
_cell_length_a 15.793508
_cell_length_b 15.793508
_cell_length_c 18.885601
_cell_angle_alpha 90.000000
_cell_angle_beta 90.000000
_cell_angle_gamma 90.000000
_cell_volume 4710.727901
_symmetry_space_group_name_H-M "I -4 2 M"
_symmetry_group_IT_number 121
_symmetry_cell_setting 'tetragonal'
loop_
_space_group_symop_operation_xyz
x,y,z
y,-x,-z
-x,-y,z
-y,x,-z
x,-y,-z
-x,y,-z
-y,-x,z
y,x,z
1/2+x,1/2+y,1/2+z
1/2+y,1/2-x,1/2-z
1/2-x,1/2-y,1/2+z
1/2-y,1/2+x,1/2-z
1/2+x,1/2-y,1/2-z
1/2-x,1/2+y,1/2-z
1/2-y,1/2-x,1/2+z
1/2+y,1/2+x,1/2+z
loop_
_atom_site_type_symbol
_atom_site_label
_atom_site_fract_x
_atom_site_fract_y
_atom_site_fract_z
Si Si1 0.863858 0.007313 0.677918
Si Si2 0.978719 0.258095 0.795375
Si Si3 0.211267 0.929028 0.952209
Si Si4 0.319032 0.828603 0.208849
Si Si5 0.066282 0.794572 0.449205
Si Si6 0.171731 0.316184 0.456624
O O1 0.905957 0.094044 0.651250
O O2 0.832576 0.020345 0.756703
O O3 0.788475 0.977928 0.626618
O O4 0.935359 0.935359 0.675236
O O5 0.963407 0.247641 0.878630
O O6 0.898282 0.304712 0.758993
O O7 0.073313 0.292928 0.779939
O O8 0.147838 0.852163 0.936216
O O9 0.284771 0.894569 0.004127
O O10 0.166397 0.000000 0.000000
O O11 0.240027 0.759974 0.218464
O O12 0.346617 0.825966 0.126198
O O13 0.148961 0.851040 0.438026
O O14 0.094796 0.714309 0.494303
O O15 0.000000 0.842305 0.500000
O O16 0.242010 0.242010 0.458330
#
# Coordination Sequence:
#
# PCOD9560227 Si02
#       6
#    16  16  16  16  16  16
#     4  10  21  36  56  91 135 172 218 285 352 415
#     4  12  25  42  68  97 134 182 234 279 342 412
#     4  11  23  42  68  98 130 170 222 284 346 408
#     4  11  24  44  70  99 137 182 230 286 348 413
#     4  10  19  32  57  88 123 164 212 264 328 401
#     4   9  20  40  63  90 125 167 217 269 330 403
#
# _framework density 20.379016
#
# number of rings (size 3 to 8) (size 9 to 14) (size 15 to 20)
#    0.000    1.500    1.667    3.500    2.333    3.333 
#    0.000    0.000    0.000    0.500    0.000    0.000 
#    0.000    0.000    0.000    0.000    0.000    0.000 
#
# Total GULP energy -267588.829592 kJ/mol
# GULP energy per Si atom -5574.767283 kJ/mol
# Density = 2.033263 g / cm^3
# Si number density = 20.379016 Si / 1000 Ang^3
#
#
#
# Elastic Constant Matrix: (Units=GPa)
#
#
# Indices 1 2 3 4 5 6 
#
# 1 92.5980 41.2329 42.6769 0.0000 0.0000 0.0000
# 2 41.2329 92.5976 42.6768 0.0000 0.0000 0.0000
# 3 42.6769 42.6768 146.6761 0.0000 0.0000 0.0000
# 4 0.0000 0.0000 0.0000 31.6549 0.0000 0.0000
# 5 0.0000 0.0000 0.0000 0.0000 31.6549 0.0000
# 6 0.0000 0.0000 0.0000 0.0000 0.0000 17.7363
#
#
#
# Elastic Compliance Matrix: (Units=1/GPa)
#
#
# Indices 1 2 3 4 5 6 
#
# 1 0.014322 -0.005147 -0.002669 0.000000 0.000000 0.000000
# 2 -0.005147 0.014322 -0.002669 0.000000 0.000000 0.000000
# 3 -0.002669 -0.002669 0.008371 0.000000 0.000000 0.000000
# 4 0.000000 0.000000 0.000000 0.031591 0.000000 0.000000
# 5 0.000000 0.000000 0.000000 0.000000 0.031591 0.000000
# 6 0.000000 0.000000 0.000000 0.000000 0.000000 0.056382
#
#
# Mechanical properties :
#
#
# Convention : Reuss Voigt Hill
#
# Bulk Modulus (GPa) = 62.33398 65.00499 63.66948
# Shear Modulus (GPa) = 27.33787 29.89489 28.61638
#
# Velocity S-wave (km/s) = 3.66658 3.83423 3.75134
# Velocity P-wave (km/s) = 6.96985 7.18115 7.07629
#
# Compressibility (1/GPa) = 0.01604261
#
# Stress axis : x y z
#
# Youngs Moduli (GPa) = 69.82476 69.82453 119.45788
#
# Poissons Ratio (x) = 0.35938 0.31889
# Poissons Ratio (y) = 0.35939 0.31889
# Poissons Ratio (z) = 0.18639 0.18639
#
# Static dielectric constant tensor:
#      x y z
#    x 1.768030 0.000000 0.000000 
#    y 0.000000 1.768030 0.000000 
#    z 0.000000 0.000000 1.731790 
# 
# From -- ./inp_files/6439.got.cif
#   From: 2010.05.17/outbox.cif.g08.bks.cpg/sg121_4_cif.got.tgz:6439.got - 2010.05.20 11:32:06.
