data_PCOD9560311
_publ_section_title
;
Structure prediction by ZEFSAII (Michael W. Deem and Ramdas Pophale) SiO2 
 PCOD9560311
Probable space group: I -4 2 M
;
_chemical_formula_sum "Si O2"
_cell_formula_units_Z 112
_cell_length_a 15.560310
_cell_length_b 15.560310
_cell_length_c 26.168118
_cell_angle_alpha 90.000000
_cell_angle_beta 90.000000
_cell_angle_gamma 90.000000
_cell_volume 6335.909706
_symmetry_space_group_name_H-M "I -4 2 M"
_symmetry_group_IT_number 121
_symmetry_cell_setting 'tetragonal'
loop_
_space_group_symop_operation_xyz
x,y,z
y,-x,-z
-x,-y,z
-y,x,-z
x,-y,-z
-x,y,-z
-y,-x,z
y,x,z
1/2+x,1/2+y,1/2+z
1/2+y,1/2-x,1/2-z
1/2-x,1/2-y,1/2+z
1/2-y,1/2+x,1/2-z
1/2+x,1/2-y,1/2-z
1/2-x,1/2+y,1/2-z
1/2-y,1/2-x,1/2+z
1/2+y,1/2+x,1/2+z
loop_
_atom_site_type_symbol
_atom_site_label
_atom_site_fract_x
_atom_site_fract_y
_atom_site_fract_z
Si Si1 0.468995 0.138260 0.244993
Si Si2 0.142600 0.996398 0.441609
Si Si3 0.643617 0.218324 0.667675
Si Si4 0.210300 0.532507 0.139718
Si Si5 0.095088 0.460106 0.052125
Si Si6 0.619653 0.756732 0.537582
Si Si7 0.942688 0.193157 0.070902
O O1 0.557514 0.094846 0.264979
O O2 0.422908 0.191929 0.288838
O O3 0.489149 0.195193 0.195051
O O4 0.069480 0.069480 0.440941
O O5 0.205506 0.013908 0.394227
O O6 0.178498 0.000000 0.500000
O O7 0.094773 0.905228 0.435436
O O8 0.713317 0.286684 0.686691
O O9 0.693097 0.133399 0.648223
O O10 0.592559 0.260808 0.620993
O O11 0.137614 0.494846 0.102995
O O12 0.106179 0.357056 0.049935
O O13 0.000000 0.500000 0.053332
O O14 0.133194 0.500000 0.000000
O O15 0.711792 0.711792 0.547833
O O16 0.544558 0.703009 0.565902
O O17 0.597858 0.742879 0.477781
O O18 0.902444 0.097557 0.068810
#
# Coordination Sequence:
#
# PCOD9560311 Si02
#       7
#    16  16  16  16  16  16  16
#     4   9  21  36  54  79 107 145 185 232 288 334
#     4   9  19  36  56  80 113 147 181 225 278 339
#     4  10  20  36  58  80 106 142 191 239 276 329
#     4  11  21  33  57  80 107 144 185 229 275 341
#     4  11  22  34  53  82 115 151 182 224 282 346
#     4  10  20  34  52  82 119 149 188 236 284 342
#     4   9  18  33  55  78 107 150 193 232 278 332
#
# _framework density 17.677019999999999
#
# number of rings (size 3 to 8) (size 9 to 14) (size 15 to 20)
#    0.000    2.143    0.000    4.714    6.000    1.429 
#    0.000    5.000    0.000    0.857    0.000    0.000 
#    0.000    0.000    0.000    0.000    0.000    0.000 
#
# Total GULP energy -312122.054287 kJ/mol
# GULP energy per Si atom -5573.608112 kJ/mol
# Density = 1.763679 g / cm^3
# Si number density = 17.677020 Si / 1000 Ang^3
#
#
#
# Elastic Constant Matrix: (Units=GPa)
#
#
# Indices 1 2 3 4 5 6 
#
# 1 91.0438 37.0769 32.8341 0.0000 0.0000 0.0000
# 2 37.0769 91.0458 32.8357 0.0000 0.0000 0.0000
# 3 32.8341 32.8357 79.6706 0.0000 0.0000 0.0000
# 4 0.0000 0.0000 0.0000 17.0801 0.0000 0.0000
# 5 0.0000 0.0000 0.0000 0.0000 17.0761 0.0000
# 6 0.0000 0.0000 0.0000 0.0000 0.0000 12.1745
#
#
#
# Elastic Compliance Matrix: (Units=1/GPa)
#
#
# Indices 1 2 3 4 5 6 
#
# 1 0.014213 -0.004317 -0.004078 0.000000 0.000000 0.000000
# 2 -0.004317 0.014212 -0.004078 0.000000 0.000000 0.000000
# 3 -0.004078 -0.004078 0.015913 0.000000 0.000000 0.000000
# 4 0.000000 0.000000 0.000000 0.058548 0.000000 0.000000
# 5 0.000000 0.000000 0.000000 0.000000 0.058561 0.000000
# 6 0.000000 0.000000 0.000000 0.000000 0.000000 0.082139
#
#
# Mechanical properties :
#
#
# Convention : Reuss Voigt Hill
#
# Bulk Modulus (GPa) = 51.56996 51.91708 51.74352
# Shear Modulus (GPa) = 18.18201 19.86703 19.02452
#
# Velocity S-wave (km/s) = 3.21061 3.35608 3.28415
# Velocity P-wave (km/s) = 6.55597 6.66718 6.61181
#
# Compressibility (1/GPa) = 0.01939113
#
# Stress axis : x y z
#
# Youngs Moduli (GPa) = 70.36039 70.36102 62.84076
#
# Poissons Ratio (x) = 0.30375 0.25627
# Poissons Ratio (y) = 0.30375 0.25629
# Poissons Ratio (z) = 0.28694 0.28696
#
# Static dielectric constant tensor:
#      x y z
#    x 1.664600 0.000000 0.000000 
#    y 0.000000 1.664600 0.000000 
#    z 0.000000 0.000000 1.586040 
# 
# From -- ./inp_files/7196.got.cif
#   From: 2010.05.17/outbox.cif.g08.bks.cpg/sg121_4_cif.got.tgz:7196.got - 2010.05.20 11:32:06.
