data_PCOD9560694
_publ_section_title
;
Structure prediction by ZEFSAII (Michael W. Deem and Ramdas Pophale) SiO2 
 PCOD9560694
Probable space group: I -4 2 D
;
_chemical_formula_sum "Si O2"
_cell_formula_units_Z 60
_cell_length_a 10.198651
_cell_length_b 10.198651
_cell_length_c 23.429961
_cell_angle_alpha 90.000000
_cell_angle_beta 90.000000
_cell_angle_gamma 90.000000
_cell_volume 2437.008402
_symmetry_space_group_name_H-M "I -4 2 D"
_symmetry_group_IT_number 122
_symmetry_cell_setting 'tetragonal'
loop_
_space_group_symop_operation_xyz
x,y,z
y,-x,-z
-x,-y,z
-y,x,-z
x,1/2-y,1/4-z
-x,1/2+y,1/4-z
-y,1/2-x,1/4+z
y,1/2+x,1/4+z
1/2+x,1/2+y,1/2+z
1/2+y,1/2-x,1/2-z
1/2-x,1/2-y,1/2+z
1/2-y,1/2+x,1/2-z
1/2+x,-y,3/4-z
1/2-x,y,3/4-z
1/2-y,-x,3/4+z
1/2+y,x,3/4+z
loop_
_atom_site_type_symbol
_atom_site_label
_atom_site_fract_x
_atom_site_fract_y
_atom_site_fract_z
Si Si1 0.500000 0.500000 0.500000
Si Si2 0.401034 0.681732 0.418654
Si Si3 0.342552 0.530529 0.822057
Si Si4 0.250000 0.067511 0.875000
Si Si5 0.843324 0.027400 0.197348
O O1 0.508690 0.636204 0.464025
O O2 0.331209 0.812218 0.437560
O O3 0.331860 0.541431 0.410412
O O4 0.448464 0.716469 0.355180
O O5 0.500000 0.500000 0.830227
O O6 0.250000 0.491637 0.875000
O O7 0.297192 0.482879 0.759401
O O8 0.173426 0.155773 0.829311
O O9 0.000000 0.000000 0.198347
#
# Coordination Sequence:
#
# PCOD9560694 Si02
#       5
#     4  16  16   8  16
#     4  12  20  36  72 112 128 156 216 270 356 424
#     4  11  21  38  64 100 129 169 214 277 343 402
#     4  11  25  48  66  93 132 186 231 280 332 404
#     4  10  16  38  64  96 138 164 200 280 348 402
#     4   9  20  39  62  94 133 161 213 271 340 399
#
# _framework density 24.620349000000001
#
# number of rings (size 3 to 8) (size 9 to 14) (size 15 to 20)
#    0.000    1.600    5.333    1.600    0.000    0.000 
#    7.200    0.000    0.000    0.000    0.000    0.000 
#    0.000    0.000    0.000    0.000    0.000    0.000 
#
# Total GULP energy -167047.765541 kJ/mol
# GULP energy per Si atom -5568.258851 kJ/mol
# Density = 2.456431 g / cm^3
# Si number density = 24.620349 Si / 1000 Ang^3
#
#
#
# Elastic Constant Matrix: (Units=GPa)
#
#
# Indices 1 2 3 4 5 6 
#
# 1 45.0296 3.4016 14.4283 0.0000 0.0000 0.0000
# 2 3.4016 45.0296 14.4283 0.0000 0.0000 0.0000
# 3 14.4283 14.4283 141.4268 0.0000 0.0000 0.0000
# 4 0.0000 0.0000 0.0000 -1.4094 0.0000 0.0000
# 5 0.0000 0.0000 0.0000 0.0000 -1.4094 0.0000
# 6 0.0000 0.0000 0.0000 0.0000 0.0000 11.0327
#
#
#
# Elastic Compliance Matrix: (Units=1/GPa)
#
#
# Indices 1 2 3 4 5 6 
#
# 1 0.023003 -0.001019 -0.002243 0.000000 0.000000 0.000000
# 2 -0.001019 0.023003 -0.002243 0.000000 0.000000 0.000000
# 3 -0.002243 -0.002243 0.007528 0.000000 0.000000 0.000000
# 4 0.000000 0.000000 0.000000 -0.709531 0.000000 0.000000
# 5 0.000000 0.000000 0.000000 0.000000 -0.709530 0.000000
# 6 0.000000 0.000000 0.000000 0.000000 0.000000 0.090640
#
#
# Mechanical properties :
#
#
# Convention : Reuss Voigt Hill
#
# Bulk Modulus (GPa) = 23.51532 32.88915 28.20223
# Shear Modulus (GPa) = -4.00095 14.92464 5.46184
#
# Velocity S-wave (km/s) = -1.27616 2.46477 1.49105
# Velocity P-wave (km/s) = 2.72038 4.63547 3.80053
#
# Compressibility (1/GPa) = 0.04252547
#
# Stress axis : x y z
#
# Youngs Moduli (GPa) = 43.47216 43.47216 132.83010
#
# Poissons Ratio (x) = 0.04430 0.29791
# Poissons Ratio (y) = 0.04430 0.29791
# Poissons Ratio (z) = 0.09750 0.09750
#
# Static dielectric constant tensor:
#      x y z
#    x 2.429330 0.000000 0.000000 
#    y 0.000000 2.429330 0.000000 
#    z 0.000000 0.000000 2.392030 
# 
# From -- ./inp_files/6979.got.cif
#   From: 2010.05.17/outbox.cif.g08.bks.cpg/sg122_4_cif.got.tgz:6979.got - 2010.05.20 11:37:33.
