data_PCOD9560808
_publ_section_title
;
Structure prediction by ZEFSAII (Michael W. Deem and Ramdas Pophale) SiO2 
 PCOD9560808
Probable space group: I -4 2 D
;
_chemical_formula_sum "Si O2"
_cell_formula_units_Z 76
_cell_length_a 11.705683
_cell_length_b 11.705683
_cell_length_c 30.797978
_cell_angle_alpha 90.000000
_cell_angle_beta 90.000000
_cell_angle_gamma 90.000000
_cell_volume 4220.031786
_symmetry_space_group_name_H-M "I -4 2 D"
_symmetry_group_IT_number 122
_symmetry_cell_setting 'tetragonal'
loop_
_space_group_symop_operation_xyz
x,y,z
y,-x,-z
-x,-y,z
-y,x,-z
x,1/2-y,1/4-z
-x,1/2+y,1/4-z
-y,1/2-x,1/4+z
y,1/2+x,1/4+z
1/2+x,1/2+y,1/2+z
1/2+y,1/2-x,1/2-z
1/2-x,1/2-y,1/2+z
1/2-y,1/2+x,1/2-z
1/2+x,-y,3/4-z
1/2-x,y,3/4-z
1/2-y,-x,3/4+z
1/2+y,x,3/4+z
loop_
_atom_site_type_symbol
_atom_site_label
_atom_site_fract_x
_atom_site_fract_y
_atom_site_fract_z
Si Si1 0.873918 0.550855 0.433801
Si Si2 0.000000 0.000000 0.000000
Si Si3 0.225640 0.750000 0.125000
Si Si4 0.866166 0.634342 0.950929
Si Si5 0.127791 0.878528 0.284280
Si Si6 0.137920 0.211902 0.037476
O O1 0.842004 0.644187 0.398336
O O2 0.864526 0.605601 0.482293
O O3 0.782763 0.447652 0.432376
O O4 0.000000 0.500000 0.429329
O O5 0.090044 0.922155 0.973233
O O6 0.303515 0.806804 0.088593
O O7 0.822906 0.504870 0.958334
O O8 0.002203 0.625500 0.944743
O O9 0.853130 0.712840 0.993525
O O10 0.193983 0.768237 0.301555
#
# Coordination Sequence:
#
# PCOD9560808 Si02
#       6
#    16   4   8  16  16  16
#     4  11  22  39  60  92 127 158 199 257 323 362
#     4  12  16  24  56 100 112 132 208 264 280 344
#     4  12  24  38  60  94 122 158 194 276 314 348
#     4  10  20  37  60  85 121 161 201 241 309 361
#     4  10  19  38  64  84 115 169 208 238 285 390
#     4  11  19  34  62  91 116 160 210 245 294 383
#
# _framework density 18.009342
#
# number of rings (size 3 to 8) (size 9 to 14) (size 15 to 20)
#    0.000    1.263   10.526    0.000    0.000    1.684 
#    1.895    5.263    0.000    3.158    0.000    0.000 
#    0.000    0.000    0.000    0.000    0.000    0.000 
#
# Total GULP energy -212002.041479 kJ/mol
# GULP energy per Si atom -5579.001092 kJ/mol
# Density = 1.796835 g / cm^3
# Si number density = 18.009342 Si / 1000 Ang^3
#
#
#
# Elastic Constant Matrix: (Units=GPa)
#
#
# Indices 1 2 3 4 5 6 
#
# 1 103.9714 38.6860 16.5173 0.0000 0.0000 0.0000
# 2 38.6860 103.9714 16.5173 0.0000 0.0000 0.0000
# 3 16.5173 16.5173 20.2499 0.0000 0.0000 0.0000
# 4 0.0000 0.0000 0.0000 -1.9757 0.0000 0.0000
# 5 0.0000 0.0000 0.0000 0.0000 -1.9757 0.0000
# 6 0.0000 0.0000 0.0000 0.0000 0.0000 31.1581
#
#
#
# Elastic Compliance Matrix: (Units=1/GPa)
#
#
# Indices 1 2 3 4 5 6 
#
# 1 0.011980 -0.003338 -0.007049 0.000000 0.000000 0.000000
# 2 -0.003338 0.011980 -0.007049 0.000000 0.000000 0.000000
# 3 -0.007049 -0.007049 0.060883 0.000000 0.000000 0.000000
# 4 0.000000 0.000000 0.000000 -0.506156 0.000000 0.000000
# 5 0.000000 0.000000 0.000000 0.000000 -0.506155 0.000000
# 6 0.000000 0.000000 0.000000 0.000000 0.000000 0.032094
#
#
# Mechanical properties :
#
#
# Convention : Reuss Voigt Hill
#
# Bulk Modulus (GPa) = 20.01191 41.29266 30.65228
# Shear Modulus (GPa) = -5.92525 15.87282 4.97378
#
# Velocity S-wave (km/s) = -1.81583 2.97200 1.66366
# Velocity P-wave (km/s) = 2.59610 5.89536 4.55495
#
# Compressibility (1/GPa) = 0.04997025
#
# Stress axis : x y z
#
# Youngs Moduli (GPa) = 83.47413 83.47413 16.42504
#
# Poissons Ratio (x) = 0.27860 0.11578
# Poissons Ratio (y) = 0.27860 0.11578
# Poissons Ratio (z) = 0.58842 0.58842
#
# Static dielectric constant tensor:
#      x y z
#    x 1.627410 0.000000 0.000000 
#    y 0.000000 1.627410 0.000000 
#    z 0.000000 0.000000 1.613630 
# 
# From -- ./inp_files/9404.got.cif
#   From: 2010.05.17/outbox.cif.g08.bks.cpg/sg122_5_cif.got.tgz:9404.got - 2010.05.20 11:37:33.
