data_PCOD9560759
_publ_section_title
;
Structure prediction by ZEFSAII (Michael W. Deem and Ramdas Pophale) SiO2 
 PCOD9560759
Probable space group: I -4 2 D
;
_chemical_formula_sum "Si O2"
_cell_formula_units_Z 52
_cell_length_a 15.834450
_cell_length_b 15.834450
_cell_length_c 7.500561
_cell_angle_alpha 90.000000
_cell_angle_beta 90.000000
_cell_angle_gamma 90.000000
_cell_volume 1880.614210
_symmetry_space_group_name_H-M "I -4 2 D"
_symmetry_group_IT_number 122
_symmetry_cell_setting 'tetragonal'
loop_
_space_group_symop_operation_xyz
x,y,z
y,-x,-z
-x,-y,z
-y,x,-z
x,1/2-y,1/4-z
-x,1/2+y,1/4-z
-y,1/2-x,1/4+z
y,1/2+x,1/4+z
1/2+x,1/2+y,1/2+z
1/2+y,1/2-x,1/2-z
1/2-x,1/2-y,1/2+z
1/2-y,1/2+x,1/2-z
1/2+x,-y,3/4-z
1/2-x,y,3/4-z
1/2-y,-x,3/4+z
1/2+y,x,3/4+z
loop_
_atom_site_type_symbol
_atom_site_label
_atom_site_fract_x
_atom_site_fract_y
_atom_site_fract_z
Si Si1 0.419867 0.887233 0.739164
Si Si2 0.824800 0.522489 0.619770
Si Si3 0.000000 0.000000 0.500000
Si Si4 0.826764 0.338244 0.595971
O O1 0.393087 0.982857 0.693442
O O2 0.428680 0.829298 0.565687
O O3 0.570586 0.781731 0.361115
O O4 0.649531 0.639436 0.644118
O O5 0.920536 0.488656 0.627796
O O6 0.821216 0.592235 0.773460
O O7 0.776926 0.250000 0.625000
#
# Coordination Sequence:
#
# PCOD9560759 Si02
#       4
#    16  16   4  16
#     4   9  15  26  46  69  93 117 141 180 239 288
#     4   9  16  28  43  65  94 115 141 187 227 278
#     4   8  12  24  46  64  88 110 132 176 254 276
#     4  10  19  29  45  70  91 121 150 185 233 274
#
# _framework density 27.650542000000002
#
# number of rings (size 3 to 8) (size 9 to 14) (size 15 to 20)
#    0.000    2.769    0.000    7.385    0.000    1.231 
#    0.000    0.000    0.000    0.000   16.000    0.000 
#    0.000    0.000    0.000    0.000    0.000    0.000 
#
# Total GULP energy -145150.788684 kJ/mol
# GULP energy per Si atom -5582.722642 kJ/mol
# Density = 2.758761 g / cm^3
# Si number density = 27.650542 Si / 1000 Ang^3
#
#
#
# Elastic Constant Matrix: (Units=GPa)
#
#
# Indices 1 2 3 4 5 6 
#
# 1 76.2562 40.1885 23.1940 0.0000 0.0000 0.0000
# 2 40.1885 76.2562 23.1940 0.0000 0.0000 0.0000
# 3 23.1940 23.1940 133.3712 0.0000 0.0000 0.0000
# 4 0.0000 0.0000 0.0000 6.4195 0.0000 0.0000
# 5 0.0000 0.0000 0.0000 0.0000 6.4195 0.0000
# 6 0.0000 0.0000 0.0000 0.0000 0.0000 -6.3336
#
#
#
# Elastic Compliance Matrix: (Units=1/GPa)
#
#
# Indices 1 2 3 4 5 6 
#
# 1 0.018476 -0.009249 -0.001605 0.000000 0.000000 0.000000
# 2 -0.009249 0.018476 -0.001605 0.000000 0.000000 0.000000
# 3 -0.001605 -0.001605 0.008056 0.000000 0.000000 0.000000
# 4 0.000000 0.000000 0.000000 0.155776 0.000000 0.000000
# 5 0.000000 0.000000 0.000000 0.000000 0.155776 0.000000
# 6 0.000000 0.000000 0.000000 0.000000 0.000000 -0.157889
#
#
# Mechanical properties :
#
#
# Convention : Reuss Voigt Hill
#
# Bulk Modulus (GPa) = 49.77237 51.00407 50.38822
# Shear Modulus (GPa) = 21.71213 14.58821 18.15017
#
# Velocity S-wave (km/s) = 2.80524 2.29943 2.56484
# Velocity P-wave (km/s) = 5.34154 5.05330 5.19942
#
# Compressibility (1/GPa) = 0.02009147
#
# Stress axis : x y z
#
# Youngs Moduli (GPa) = 54.12329 54.12329 124.13141
#
# Poissons Ratio (x) = 0.50060 0.19918
# Poissons Ratio (y) = 0.50060 0.19918
# Poissons Ratio (z) = 0.08685 0.08685
#
# Static dielectric constant tensor:
#      x y z
#    x 2.296060 0.000000 0.000000 
#    y 0.000000 2.296060 0.000000 
#    z 0.000000 0.000000 2.180460 
# 
# From -- ./inp_files/2211.got.cif
#   From: 2010.05.17/outbox.cif.g08.bks.cpg/sg122_2_cif.got.tgz:2211.got - 2010.05.20 11:37:33.
