data_PCOD9560412
_publ_section_title
;
Structure prediction by ZEFSAII (Michael W. Deem and Ramdas Pophale) SiO2 
 PCOD9560412
Probable space group: I -4 2 M
;
_chemical_formula_sum "Si O2"
_cell_formula_units_Z 112
_cell_length_a 23.049718
_cell_length_b 23.049718
_cell_length_c 11.781225
_cell_angle_alpha 90.000000
_cell_angle_beta 90.000000
_cell_angle_gamma 90.000000
_cell_volume 6259.241138
_symmetry_space_group_name_H-M "I -4 2 M"
_symmetry_group_IT_number 121
_symmetry_cell_setting 'tetragonal'
loop_
_space_group_symop_operation_xyz
x,y,z
y,-x,-z
-x,-y,z
-y,x,-z
x,-y,-z
-x,y,-z
-y,-x,z
y,x,z
1/2+x,1/2+y,1/2+z
1/2+y,1/2-x,1/2-z
1/2-x,1/2-y,1/2+z
1/2-y,1/2+x,1/2-z
1/2+x,1/2-y,1/2-z
1/2-x,1/2+y,1/2-z
1/2-y,1/2-x,1/2+z
1/2+y,1/2+x,1/2+z
loop_
_atom_site_type_symbol
_atom_site_label
_atom_site_fract_x
_atom_site_fract_y
_atom_site_fract_z
Si Si1 0.642920 0.262481 0.937178
Si Si2 0.472085 0.754200 0.809730
Si Si3 0.101133 0.252159 0.307602
Si Si4 0.440603 0.189233 0.427926
Si Si5 0.526558 0.883741 0.114798
Si Si6 0.166169 0.261679 0.078571
Si Si7 0.610611 0.913876 0.277873
O O1 0.684671 0.315330 0.912834
O O2 0.630888 0.258633 0.071868
O O3 0.680176 0.205252 0.902455
O O4 0.583400 0.272991 0.869929
O O5 0.535870 0.726245 0.810576
O O6 0.456733 0.771071 0.680835
O O7 0.476754 0.814476 0.880068
O O8 0.092493 0.321409 0.294685
O O9 0.138775 0.238253 0.196473
O O10 0.500000 0.181885 0.500000
O O11 0.387670 0.219059 0.497860
O O12 0.418839 0.129381 0.368650
O O13 0.590600 0.898827 0.151492
O O14 0.480782 0.905492 0.206917
O O15 0.500000 0.905952 0.000000
O O16 0.211968 0.211968 0.035321
#
# Coordination Sequence:
#
# PCOD9560412 Si02
#       7
#    16  16  16  16  16  16  16
#     4  11  23  37  58  88 121 155 192 243 297 352
#     4  10  21  36  58  81 108 153 193 232 284 347
#     4  11  20  38  60  80 116 152 196 234 288 350
#     4  11  21  38  57  80 109 151 195 240 292 345
#     4  10  21  34  51  72 102 142 195 247 285 325
#     4  11  23  36  57  85 117 152 190 240 297 352
#     4  10  22  34  52  75 104 146 198 237 288 334
#
# _framework density 17.893543000000001
#
# number of rings (size 3 to 8) (size 9 to 14) (size 15 to 20)
#    0.000    1.429    2.857    4.286    2.000    0.857 
#    0.000    0.714    0.000    0.000    0.000    0.000 
#    0.000   11.143    0.000    0.000    0.000    0.000 
#
# Total GULP energy -312271.794101 kJ/mol
# GULP energy per Si atom -5576.282038 kJ/mol
# Density = 1.785282 g / cm^3
# Si number density = 17.893543 Si / 1000 Ang^3
#
#
#
# Elastic Constant Matrix: (Units=GPa)
#
#
# Indices 1 2 3 4 5 6 
#
# 1 72.9183 41.7735 22.4052 0.0000 0.0000 0.0000
# 2 41.7735 72.9227 22.4067 0.0000 0.0000 0.0000
# 3 22.4052 22.4067 76.0370 0.0000 0.0000 0.0000
# 4 0.0000 0.0000 0.0000 16.1355 0.0000 0.0000
# 5 0.0000 0.0000 0.0000 0.0000 16.1390 0.0000
# 6 0.0000 0.0000 0.0000 0.0000 0.0000 22.5303
#
#
#
# Elastic Compliance Matrix: (Units=1/GPa)
#
#
# Indices 1 2 3 4 5 6 
#
# 1 0.020980 -0.011126 -0.002903 0.000000 0.000000 0.000000
# 2 -0.011126 0.020979 -0.002904 0.000000 0.000000 0.000000
# 3 -0.002903 -0.002904 0.014863 0.000000 0.000000 0.000000
# 4 0.000000 0.000000 0.000000 0.061975 0.000000 0.000000
# 5 0.000000 0.000000 0.000000 0.000000 0.061962 0.000000
# 6 0.000000 0.000000 0.000000 0.000000 0.000000 0.044385
#
#
# Mechanical properties :
#
#
# Convention : Reuss Voigt Hill
#
# Bulk Modulus (GPa) = 43.56302 43.89432 43.72867
# Shear Modulus (GPa) = 18.75036 19.98046 19.36541
#
# Velocity S-wave (km/s) = 3.24062 3.34523 3.29334
# Velocity P-wave (km/s) = 6.19682 6.28528 6.24121
#
# Compressibility (1/GPa) = 0.02295525
#
# Stress axis : x y z
#
# Youngs Moduli (GPa) = 47.66424 47.66679 67.28276
#
# Poissons Ratio (x) = 0.53035 0.19534
# Poissons Ratio (y) = 0.53032 0.19536
# Poissons Ratio (z) = 0.13839 0.13841
#
# Static dielectric constant tensor:
#      x y z
#    x 1.642580 0.000000 0.000000 
#    y 0.000000 1.642590 0.000000 
#    z 0.000000 0.000000 1.673530 
# 
# From -- ./inp_files/3504.got.cif
#   From: 2010.05.17/outbox.cif.g08.bks.cpg/sg121_2_cif.got.tgz:3504.got - 2010.05.20 11:32:06.
