data_PCOD9560971
_publ_section_title
;
Structure prediction by ZEFSAII (Michael W. Deem and Ramdas Pophale) SiO2 
 PCOD9560971
Probable space group: I -4 2 D
;
_chemical_formula_sum "Si O2"
_cell_formula_units_Z 40
_cell_length_a 13.568143
_cell_length_b 13.568143
_cell_length_c 8.510070
_cell_angle_alpha 90.000000
_cell_angle_beta 90.000000
_cell_angle_gamma 90.000000
_cell_volume 1566.657120
_symmetry_space_group_name_H-M "I -4 2 D"
_symmetry_group_IT_number 122
_symmetry_cell_setting 'tetragonal'
loop_
_space_group_symop_operation_xyz
x,y,z
y,-x,-z
-x,-y,z
-y,x,-z
x,1/2-y,1/4-z
-x,1/2+y,1/4-z
-y,1/2-x,1/4+z
y,1/2+x,1/4+z
1/2+x,1/2+y,1/2+z
1/2+y,1/2-x,1/2-z
1/2-x,1/2-y,1/2+z
1/2-y,1/2+x,1/2-z
1/2+x,-y,3/4-z
1/2-x,y,3/4-z
1/2-y,-x,3/4+z
1/2+y,x,3/4+z
loop_
_atom_site_type_symbol
_atom_site_label
_atom_site_fract_x
_atom_site_fract_y
_atom_site_fract_z
Si Si1 0.293461 0.644481 0.199014
Si Si2 0.500000 0.000000 0.250000
Si Si3 0.145596 0.970494 0.248271
Si Si4 0.000000 0.500000 0.250000
O O1 0.264872 0.750000 0.125000
O O2 0.250000 0.629140 0.375000
O O3 0.248572 0.569641 0.067125
O O4 0.411475 0.646346 0.226629
O O5 0.423044 0.939088 0.356275
O O6 0.074360 0.940698 0.105764
#
# Coordination Sequence:
#
# PCOD9560971 Si02
#       4
#    16   4  16   4
#     4  12  30  49  86 120 171 224 296 360 450 539
#     4  10  28  46  84 114 188 218 288 358 444 534
#     4  11  26  51  79 124 163 232 279 364 434 531
#     4  10  20  50  80 106 156 214 280 326 428 506
#
# _framework density 25.532070999999998
#
# number of rings (size 3 to 8) (size 9 to 14) (size 15 to 20)
#    0.000    0.800    4.000    0.000   11.200    4.800 
#    0.000    0.000    0.000    0.000    0.000    0.000 
#    0.000    0.000    0.000    0.000    0.000    0.000 
#
# Total GULP energy -111627.453323 kJ/mol
# GULP energy per Si atom -5581.372666 kJ/mol
# Density = 2.547396 g / cm^3
# Si number density = 25.532071 Si / 1000 Ang^3
#
#
#
# Elastic Constant Matrix: (Units=GPa)
#
#
# Indices 1 2 3 4 5 6 
#
# 1 144.5316 26.1460 57.9600 0.0000 0.0000 0.0000
# 2 26.1460 144.5316 57.9600 0.0000 0.0000 0.0000
# 3 57.9600 57.9600 173.4308 0.0000 0.0000 0.0000
# 4 0.0000 0.0000 0.0000 43.5723 0.0000 0.0000
# 5 0.0000 0.0000 0.0000 0.0000 43.5723 0.0000
# 6 0.0000 0.0000 0.0000 0.0000 0.0000 25.3409
#
#
#
# Elastic Compliance Matrix: (Units=1/GPa)
#
#
# Indices 1 2 3 4 5 6 
#
# 1 0.008013 -0.000434 -0.002533 0.000000 0.000000 0.000000
# 2 -0.000434 0.008013 -0.002533 0.000000 0.000000 0.000000
# 3 -0.002533 -0.002533 0.007459 0.000000 0.000000 0.000000
# 4 0.000000 0.000000 0.000000 0.022950 0.000000 0.000000
# 5 0.000000 0.000000 0.000000 0.000000 0.022950 0.000000
# 6 0.000000 0.000000 0.000000 0.000000 0.000000 0.039462
#
#
# Mechanical properties :
#
#
# Convention : Reuss Voigt Hill
#
# Bulk Modulus (GPa) = 80.09133 82.95845 81.52489
# Shear Modulus (GPa) = 40.31952 43.85898 42.08925
#
# Velocity S-wave (km/s) = 3.97819 4.14913 4.06456
# Velocity P-wave (km/s) = 7.24833 7.45091 7.35032
#
# Compressibility (1/GPa) = 0.01248575
#
# Stress axis : x y z
#
# Youngs Moduli (GPa) = 124.79469 124.79469 134.06578
#
# Poissons Ratio (x) = 0.05414 0.33959
# Poissons Ratio (y) = 0.05414 0.33959
# Poissons Ratio (z) = 0.31610 0.31610
#
# Static dielectric constant tensor:
#      x y z
#    x 2.051800 0.000000 0.000000 
#    y 0.000000 2.051800 0.000000 
#    z 0.000000 0.000000 2.096460 
# 
# From -- ./inp_files/1908.got.cif
#   From: 2010.05.17/outbox.cif.g08.bks.cpg/sg122_1_cif.got.tgz:1908.got - 2010.05.20 11:37:33.
