data_PCOD9560524
_publ_section_title
;
Structure prediction by ZEFSAII (Michael W. Deem and Ramdas Pophale) SiO2 
 PCOD9560524
Probable space group: I -4 2 M
;
_chemical_formula_sum "Si O2"
_cell_formula_units_Z 84
_cell_length_a 16.120058
_cell_length_b 16.120058
_cell_length_c 18.372661
_cell_angle_alpha 90.000000
_cell_angle_beta 90.000000
_cell_angle_gamma 90.000000
_cell_volume 4774.251156
_symmetry_space_group_name_H-M "I -4 2 M"
_symmetry_group_IT_number 121
_symmetry_cell_setting 'tetragonal'
loop_
_space_group_symop_operation_xyz
x,y,z
y,-x,-z
-x,-y,z
-y,x,-z
x,-y,-z
-x,y,-z
-y,-x,z
y,x,z
1/2+x,1/2+y,1/2+z
1/2+y,1/2-x,1/2-z
1/2-x,1/2-y,1/2+z
1/2-y,1/2+x,1/2-z
1/2+x,1/2-y,1/2-z
1/2-x,1/2+y,1/2-z
1/2-y,1/2-x,1/2+z
1/2+y,1/2+x,1/2+z
loop_
_atom_site_type_symbol
_atom_site_label
_atom_site_fract_x
_atom_site_fract_y
_atom_site_fract_z
Si Si1 0.677244 0.540557 0.079298
Si Si2 0.094069 0.771982 0.695888
Si Si3 0.476680 0.826520 0.331175
Si Si4 0.000000 0.500000 0.250000
Si Si5 0.152129 0.712899 0.103119
Si Si6 0.816581 0.320161 0.933548
O O1 0.598350 0.598350 0.094187
O O2 0.689122 0.470212 0.139053
O O3 0.757489 0.600516 0.078219
O O4 0.668584 0.500000 0.000000
O O5 0.157837 0.842164 0.722018
O O6 0.046885 0.729203 0.761926
O O7 0.148168 0.704015 0.652164
O O8 0.557858 0.791016 0.370892
O O9 0.398156 0.826960 0.384944
O O10 0.494528 0.918521 0.300418
O O11 0.198727 0.801274 0.111570
O O12 0.161029 0.686986 0.018811
O O13 0.760370 0.239631 0.914725
#
# Coordination Sequence:
#
# PCOD9560524 Si02
#       6
#    16  16  16   4  16  16
#     4  11  22  38  61  89 122 160 202 246 296 363
#     4  11  23  40  59  86 124 159 198 247 303 358
#     4  12  23  40  61  89 121 162 199 253 302 359
#     4  12  24  36  54  92 128 148 202 244 292 364
#     4  10  22  41  62  85 118 160 203 250 297 355
#     4  10  22  40  63  90 119 157 204 247 303 366
#
# _framework density 17.594382
#
# number of rings (size 3 to 8) (size 9 to 14) (size 15 to 20)
#    0.000    1.143    3.810    2.857    0.000    2.095 
#    0.000    0.952    0.000    1.714    0.000    5.333 
#    0.000    0.000    0.000    0.000    0.000    0.000 
#
# Total GULP energy -234782.507856 kJ/mol
# GULP energy per Si atom -5590.059711 kJ/mol
# Density = 1.755434 g / cm^3
# Si number density = 17.594382 Si / 1000 Ang^3
#
#
#
# Elastic Constant Matrix: (Units=GPa)
#
#
# Indices 1 2 3 4 5 6 
#
# 1 67.3672 16.4654 1.4073 0.0000 0.0000 0.0000
# 2 16.4654 67.3785 1.4112 0.0000 0.0000 0.0000
# 3 1.4073 1.4112 22.8417 0.0000 0.0000 0.0000
# 4 0.0000 0.0000 0.0000 20.3204 0.0000 0.0000
# 5 0.0000 0.0000 0.0000 0.0000 20.3132 0.0000
# 6 0.0000 0.0000 0.0000 0.0000 0.0000 16.6899
#
#
#
# Elastic Compliance Matrix: (Units=1/GPa)
#
#
# Indices 1 2 3 4 5 6 
#
# 1 0.015799 -0.003845 -0.000736 0.000000 0.000000 0.000000
# 2 -0.003845 0.015797 -0.000739 0.000000 0.000000 0.000000
# 3 -0.000736 -0.000739 0.043871 0.000000 0.000000 0.000000
# 4 0.000000 0.000000 0.000000 0.049212 0.000000 0.000000
# 5 0.000000 0.000000 0.000000 0.000000 0.049229 0.000000
# 6 0.000000 0.000000 0.000000 0.000000 0.000000 0.059917
#
#
# Mechanical properties :
#
#
# Convention : Reuss Voigt Hill
#
# Bulk Modulus (GPa) = 15.42592 21.79500 18.61046
# Shear Modulus (GPa) = 18.79182 20.68493 19.73838
#
# Velocity S-wave (km/s) = 3.27166 3.43250 3.35305
# Velocity P-wave (km/s) = 4.80190 5.30319 5.05876
#
# Compressibility (1/GPa) = 0.06482595
#
# Stress axis : x y z
#
# Youngs Moduli (GPa) = 63.29402 63.30426 22.79434
#
# Poissons Ratio (x) = 0.24343 0.01677
# Poissons Ratio (y) = 0.24340 0.01684
# Poissons Ratio (z) = 0.04657 0.04678
#
# Static dielectric constant tensor:
#      x y z
#    x 1.582540 0.000000 0.000000 
#    y 0.000000 1.582540 0.000000 
#    z 0.000000 0.000000 1.566670 
# 
# From -- ./inp_files/6287.got.cif
#   From: 2010.05.17/outbox.cif.g08.bks.cpg/sg121_4_cif.got.tgz:6287.got - 2010.05.20 11:32:06.
