data_PCOD9560310
_publ_section_title
;
Structure prediction by ZEFSAII (Michael W. Deem and Ramdas Pophale) SiO2 
 PCOD9560310
Probable space group: I -4 2 M
;
_chemical_formula_sum "Si O2"
_cell_formula_units_Z 88
_cell_length_a 13.845362
_cell_length_b 13.845362
_cell_length_c 25.520294
_cell_angle_alpha 90.000000
_cell_angle_beta 90.000000
_cell_angle_gamma 90.000000
_cell_volume 4892.088486
_symmetry_space_group_name_H-M "I -4 2 M"
_symmetry_group_IT_number 121
_symmetry_cell_setting 'tetragonal'
loop_
_space_group_symop_operation_xyz
x,y,z
y,-x,-z
-x,-y,z
-y,x,-z
x,-y,-z
-x,y,-z
-y,-x,z
y,x,z
1/2+x,1/2+y,1/2+z
1/2+y,1/2-x,1/2-z
1/2-x,1/2-y,1/2+z
1/2-y,1/2+x,1/2-z
1/2+x,1/2-y,1/2-z
1/2-x,1/2+y,1/2-z
1/2-y,1/2-x,1/2+z
1/2+y,1/2+x,1/2+z
loop_
_atom_site_type_symbol
_atom_site_label
_atom_site_fract_x
_atom_site_fract_y
_atom_site_fract_z
Si Si1 0.717451 0.435226 0.330051
Si Si2 0.386538 0.028306 0.383761
Si Si3 0.329246 0.831228 0.925478
Si Si4 0.500000 0.759300 0.500000
Si Si5 0.253006 0.105338 0.902002
Si Si6 0.544858 0.849233 0.764981
O O1 0.612694 0.387307 0.333030
O O2 0.784186 0.376556 0.371796
O O3 0.726256 0.543863 0.350888
O O4 0.761009 0.427141 0.272164
O O5 0.392229 0.132555 0.410469
O O6 0.337525 0.043054 0.327187
O O7 0.500000 0.000000 0.375092
O O8 0.331215 0.943834 0.414653
O O9 0.266524 0.733477 0.935691
O O10 0.312607 0.910351 0.971222
O O11 0.451003 0.706428 0.548866
O O12 0.210798 0.210798 0.898332
O O13 0.438412 0.884743 0.748112
#
# Coordination Sequence:
#
# PCOD9560310 Si02
#       6
#    16  16  16   8  16  16
#     4  10  20  34  52  78 114 152 190 231 283 345
#     4  12  19  35  58  85 112 150 189 244 288 336
#     4  10  20  34  56  85 114 148 190 235 290 342
#     4  10  20  37  58  81 114 146 186 231 280 347
#     4  11  23  37  56  84 115 151 193 237 287 340
#     4  11  16  30  54  79 107 142 189 235 280 333
#
# _framework density 17.988226000000001
#
# number of rings (size 3 to 8) (size 9 to 14) (size 15 to 20)
#    0.000    1.273    9.091    0.545    0.000    3.273 
#    0.000    0.909    0.000    4.091    0.000    0.000 
#    0.000    2.909    0.000    0.000    0.000    0.000 
#
# Total GULP energy -245109.971899 kJ/mol
# GULP energy per Si atom -5570.681180 kJ/mol
# Density = 1.794728 g / cm^3
# Si number density = 17.988226 Si / 1000 Ang^3
#
#
#
# Elastic Constant Matrix: (Units=GPa)
#
#
# Indices 1 2 3 4 5 6 
#
# 1 59.6671 46.2674 28.8898 0.0000 0.0000 0.0000
# 2 46.2674 59.6663 28.8896 0.0000 0.0000 0.0000
# 3 28.8898 28.8896 68.4121 0.0000 0.0000 0.0000
# 4 0.0000 0.0000 0.0000 6.3435 0.0000 0.0000
# 5 0.0000 0.0000 0.0000 0.0000 6.3442 0.0000
# 6 0.0000 0.0000 0.0000 0.0000 0.0000 15.0821
#
#
#
# Elastic Compliance Matrix: (Units=1/GPa)
#
#
# Indices 1 2 3 4 5 6 
#
# 1 0.043447 -0.031183 -0.005179 0.000000 0.000000 0.000000
# 2 -0.031183 0.043448 -0.005179 0.000000 0.000000 0.000000
# 3 -0.005179 -0.005179 0.018992 0.000000 0.000000 0.000000
# 4 0.000000 0.000000 0.000000 0.157643 0.000000 0.000000
# 5 0.000000 0.000000 0.000000 0.000000 0.157624 0.000000
# 6 0.000000 0.000000 0.000000 0.000000 0.000000 0.066304
#
#
# Mechanical properties :
#
#
# Convention : Reuss Voigt Hill
#
# Bulk Modulus (GPa) = 43.85194 43.98212 43.91703
# Shear Modulus (GPa) = 8.64840 11.13387 9.89113
#
# Velocity S-wave (km/s) = 2.19505 2.49058 2.34747
# Velocity P-wave (km/s) = 5.55476 5.72488 5.64046
#
# Compressibility (1/GPa) = 0.02280401
#
# Stress axis : x y z
#
# Youngs Moduli (GPa) = 23.01637 23.01602 52.65479
#
# Poissons Ratio (x) = 0.71771 0.27271
# Poissons Ratio (y) = 0.71772 0.27272
# Poissons Ratio (z) = 0.11921 0.11921
#
# Static dielectric constant tensor:
#      x y z
#    x 1.632590 0.000000 0.000000 
#    y 0.000000 1.632590 0.000000 
#    z 0.000000 0.000000 1.646910 
# 
# From -- ./inp_files/7082.got.cif
#   From: 2010.05.17/outbox.cif.g08.bks.cpg/sg121_4_cif.got.tgz:7082.got - 2010.05.20 11:32:06.
