data_PCOD9560550
_publ_section_title
;
Structure prediction by ZEFSAII (Michael W. Deem and Ramdas Pophale) SiO2 
 PCOD9560550
Probable space group: I -4 2 M
;
_chemical_formula_sum "Si O2"
_cell_formula_units_Z 88
_cell_length_a 12.274275
_cell_length_b 12.274275
_cell_length_c 29.812399
_cell_angle_alpha 90.000000
_cell_angle_beta 90.000000
_cell_angle_gamma 90.000000
_cell_volume 4491.471244
_symmetry_space_group_name_H-M "I -4 2 M"
_symmetry_group_IT_number 121
_symmetry_cell_setting 'tetragonal'
loop_
_space_group_symop_operation_xyz
x,y,z
y,-x,-z
-x,-y,z
-y,x,-z
x,-y,-z
-x,y,-z
-y,-x,z
y,x,z
1/2+x,1/2+y,1/2+z
1/2+y,1/2-x,1/2-z
1/2-x,1/2-y,1/2+z
1/2-y,1/2+x,1/2-z
1/2+x,1/2-y,1/2-z
1/2-x,1/2+y,1/2-z
1/2-y,1/2-x,1/2+z
1/2+y,1/2+x,1/2+z
loop_
_atom_site_type_symbol
_atom_site_label
_atom_site_fract_x
_atom_site_fract_y
_atom_site_fract_z
Si Si1 0.784971 0.464650 0.201914
Si Si2 0.124543 0.546401 0.632883
Si Si3 0.214586 0.598786 0.534262
Si Si4 0.906903 0.906903 0.560951
Si Si5 0.374424 0.197891 0.702082
Si Si6 0.000000 0.280086 0.500000
Si Si7 0.412380 0.412380 0.157337
O O1 0.845862 0.391909 0.164358
O O2 0.760405 0.411702 0.249488
O O3 0.859718 0.569491 0.210807
O O4 0.677448 0.520755 0.183219
O O5 0.183744 0.565041 0.585401
O O6 0.196637 0.462547 0.662440
O O7 0.000000 0.500000 0.625583
O O8 0.242618 0.500000 0.500000
O O9 0.309895 0.690106 0.534324
O O10 0.101916 0.650080 0.516114
O O11 0.800484 0.956120 0.538124
O O12 0.869899 0.869899 0.610239
O O13 0.000000 0.000000 0.555822
O O14 0.265292 0.265292 0.689839
O O15 0.500000 0.500000 0.142665
#
# Coordination Sequence:
#
# PCOD9560550 Si02
#       7
#    16  16  16   8  16   8   8
#     4  11  21  41  65  96 135 172 215 278 335 403
#     4  10  23  42  69 100 131 171 229 281 336 402
#     4  12  27  47  70  99 137 184 235 285 336 398
#     4  11  20  36  64 103 141 173 201 272 358 423
#     4  11  22  40  68  95 132 176 223 275 335 394
#     4  12  20  42  70 102 136 171 219 280 346 412
#     4  11  24  36  56  95 136 170 216 261 336 403
#
# _framework density 19.592690000000001
#
# number of rings (size 3 to 8) (size 9 to 14) (size 15 to 20)
#    0.000    0.909    4.545    3.000    0.000    5.273 
#    1.636    0.000    0.000    0.000    0.000    0.000 
#    0.000    0.000    0.000    0.000    0.000    0.000 
#
# Total GULP energy -245453.767177 kJ/mol
# GULP energy per Si atom -5578.494709 kJ/mol
# Density = 1.954810 g / cm^3
# Si number density = 19.592690 Si / 1000 Ang^3
#
#
#
# Elastic Constant Matrix: (Units=GPa)
#
#
# Indices 1 2 3 4 5 6 
#
# 1 75.9472 53.3616 61.0382 0.0000 0.0000 0.0000
# 2 53.3616 75.9464 61.0377 0.0000 0.0000 0.0000
# 3 61.0382 61.0377 161.3532 0.0000 0.0000 0.0000
# 4 0.0000 0.0000 0.0000 -1.4979 0.0000 0.0000
# 5 0.0000 0.0000 0.0000 0.0000 -1.4944 0.0000
# 6 0.0000 0.0000 0.0000 0.0000 0.0000 23.0437
#
#
#
# Elastic Compliance Matrix: (Units=1/GPa)
#
#
# Indices 1 2 3 4 5 6 
#
# 1 0.028153 -0.016124 -0.004551 0.000000 0.000000 0.000000
# 2 -0.016124 0.028153 -0.004551 0.000000 0.000000 0.000000
# 3 -0.004551 -0.004551 0.009640 0.000000 0.000000 0.000000
# 4 0.000000 0.000000 0.000000 -0.667589 0.000000 0.000000
# 5 0.000000 0.000000 0.000000 0.000000 -0.669164 0.000000
# 6 0.000000 0.000000 0.000000 0.000000 0.000000 0.043396
#
#
# Mechanical properties :
#
#
# Convention : Reuss Voigt Hill
#
# Bulk Modulus (GPa) = 64.52836 73.79129 69.15983
# Shear Modulus (GPa) = -4.26696 13.19757 4.46530
#
# Velocity S-wave (km/s) = -1.47735 2.59819 1.51130
# Velocity P-wave (km/s) = 5.48601 6.83705 6.19845
#
# Compressibility (1/GPa) = 0.01549706
#
# Stress axis : x y z
#
# Youngs Moduli (GPa) = 35.52014 35.51984 103.72930
#
# Poissons Ratio (x) = 0.57271 0.47204
# Poissons Ratio (y) = 0.57271 0.47203
# Poissons Ratio (z) = 0.16164 0.16164
#
# Static dielectric constant tensor:
#      x y z
#    x 1.710290 0.000000 0.000000 
#    y 0.000000 1.710290 0.000000 
#    z 0.000000 0.000000 1.771070 
# 
# From -- ./inp_files/8245.got.cif
#   From: 2010.05.17/outbox.cif.g08.bks.cpg/sg121_5_cif.got.tgz:8245.got - 2010.05.20 11:32:06.
