data_PCOD9560392
_publ_section_title
;
Structure prediction by ZEFSAII (Michael W. Deem and Ramdas Pophale) SiO2 
 PCOD9560392
Probable space group: I -4 2 M
;
_chemical_formula_sum "Si O2"
_cell_formula_units_Z 112
_cell_length_a 31.096262
_cell_length_b 31.096262
_cell_length_c 5.235284
_cell_angle_alpha 90.000000
_cell_angle_beta 90.000000
_cell_angle_gamma 90.000000
_cell_volume 5062.401888
_symmetry_space_group_name_H-M "I -4 2 M"
_symmetry_group_IT_number 121
_symmetry_cell_setting 'tetragonal'
loop_
_space_group_symop_operation_xyz
x,y,z
y,-x,-z
-x,-y,z
-y,x,-z
x,-y,-z
-x,y,-z
-y,-x,z
y,x,z
1/2+x,1/2+y,1/2+z
1/2+y,1/2-x,1/2-z
1/2-x,1/2-y,1/2+z
1/2-y,1/2+x,1/2-z
1/2+x,1/2-y,1/2-z
1/2-x,1/2+y,1/2-z
1/2-y,1/2-x,1/2+z
1/2+y,1/2+x,1/2+z
loop_
_atom_site_type_symbol
_atom_site_label
_atom_site_fract_x
_atom_site_fract_y
_atom_site_fract_z
Si Si1 0.113973 0.750691 0.895766
Si Si2 0.453390 0.616269 0.398024
Si Si3 0.305578 0.765239 0.067744
Si Si4 0.951426 0.412208 0.086884
Si Si5 0.609446 0.674034 0.262275
Si Si6 0.293803 0.543475 0.121761
Si Si7 0.658684 0.119220 0.131360
O O1 0.145818 0.741557 0.659429
O O2 0.064761 0.763625 0.832445
O O3 0.114097 0.708355 0.066507
O O4 0.130582 0.793968 0.034278
O O5 0.500000 0.601313 0.500000
O O6 0.423214 0.576787 0.301940
O O7 0.423994 0.640808 0.607450
O O8 0.462920 0.656726 0.212890
O O9 0.279319 0.720682 0.081326
O O10 0.284362 0.795545 0.288327
O O11 0.931477 0.443589 0.869061
O O12 0.924828 0.367756 0.091415
O O13 0.000000 0.405494 0.000000
O O14 0.645450 0.645450 0.127106
O O15 0.581065 0.702749 0.082134
O O16 0.277571 0.500000 0.000000
O O17 0.637454 0.149618 0.913129
#
# Coordination Sequence:
#
# PCOD9560392 Si02
#       7
#    16  16  16  16  16  16  16
#     4  11  24  38  63  93 123 167 219 260 314 392
#     4  10  20  38  61  86 118 158 203 258 330 401
#     4  10  22  39  61  92 130 167 210 269 324 376
#     4  10  21  39  62  94 128 165 211 266 323 384
#     4  10  22  39  63  89 121 160 202 264 325 385
#     4  11  23  41  62  89 125 164 213 270 329 395
#     4  10  23  43  66  92 134 180 221 265 327 387
#
# _framework density 22.123885000000001
#
# number of rings (size 3 to 8) (size 9 to 14) (size 15 to 20)
#    0.000    1.714    1.429    2.143    4.000    2.714 
#    2.571    0.000    0.000    0.000    0.000    0.000 
#    0.000    0.000    0.000    0.000    0.000    0.000 
#
# Total GULP energy -312919.307481 kJ/mol
# GULP energy per Si atom -5587.844776 kJ/mol
# Density = 2.207353 g / cm^3
# Si number density = 22.123885 Si / 1000 Ang^3
#
#
#
# Elastic Constant Matrix: (Units=GPa)
#
#
# Indices 1 2 3 4 5 6 
#
# 1 70.0904 66.4801 4.5299 0.0000 0.0000 0.0000
# 2 66.4801 70.0825 4.5267 0.0000 0.0000 0.0000
# 3 4.5299 4.5267 68.4005 0.0000 0.0000 0.0000
# 4 0.0000 0.0000 0.0000 20.9081 0.0000 0.0000
# 5 0.0000 0.0000 0.0000 0.0000 20.9044 0.0000
# 6 0.0000 0.0000 0.0000 0.0000 0.0000 18.3081
#
#
#
# Elastic Compliance Matrix: (Units=1/GPa)
#
#
# Indices 1 2 3 4 5 6 
#
# 1 0.142314 -0.134967 -0.000493 0.000000 0.000000 0.000000
# 2 -0.134967 0.142329 -0.000481 0.000000 0.000000 0.000000
# 3 -0.000493 -0.000481 0.014684 0.000000 0.000000 0.000000
# 4 0.000000 0.000000 0.000000 0.047828 0.000000 0.000000
# 5 0.000000 0.000000 0.000000 0.000000 0.047837 0.000000
# 6 0.000000 0.000000 0.000000 0.000000 0.000000 0.054621
#
#
# Mechanical properties :
#
#
# Convention : Reuss Voigt Hill
#
# Bulk Modulus (GPa) = 36.43507 39.96076 38.19792
# Shear Modulus (GPa) = 6.84328 20.89323 13.86825
#
# Velocity S-wave (km/s) = 1.76065 3.07640 2.50640
# Velocity P-wave (km/s) = 4.54286 5.54261 5.06745
#
# Compressibility (1/GPa) = 0.02744608
#
# Stress axis : x y z
#
# Youngs Moduli (GPa) = 7.02671 7.02595 68.10023
#
# Poissons Ratio (x) = 0.94827 0.03356
# Poissons Ratio (y) = 0.94837 0.03276
# Poissons Ratio (z) = 0.00346 0.00338
#
# Static dielectric constant tensor:
#      x y z
#    x 1.809880 0.000000 0.000000 
#    y 0.000000 1.809880 0.000000 
#    z 0.000000 0.000000 1.917670 
# 
# From -- ./inp_files/710.got.cif
#   From: 2010.05.17/outbox.cif.g08.bks.cpg/sg121_1_cif.got.tgz:710.got - 2010.05.20 11:32:06.
