data_PCOD9560346
_publ_section_title
;
Structure prediction by ZEFSAII (Michael W. Deem and Ramdas Pophale) SiO2 
 PCOD9560346
Probable space group: I -4 2 M
;
_chemical_formula_sum "Si O2"
_cell_formula_units_Z 80
_cell_length_a 12.035681
_cell_length_b 12.035681
_cell_length_c 25.917972
_cell_angle_alpha 90.000000
_cell_angle_beta 90.000000
_cell_angle_gamma 90.000000
_cell_volume 3754.415665
_symmetry_space_group_name_H-M "I -4 2 M"
_symmetry_group_IT_number 121
_symmetry_cell_setting 'tetragonal'
loop_
_space_group_symop_operation_xyz
x,y,z
y,-x,-z
-x,-y,z
-y,x,-z
x,-y,-z
-x,y,-z
-y,-x,z
y,x,z
1/2+x,1/2+y,1/2+z
1/2+y,1/2-x,1/2-z
1/2-x,1/2-y,1/2+z
1/2-y,1/2+x,1/2-z
1/2+x,1/2-y,1/2-z
1/2-x,1/2+y,1/2-z
1/2-y,1/2-x,1/2+z
1/2+y,1/2+x,1/2+z
loop_
_atom_site_type_symbol
_atom_site_label
_atom_site_fract_x
_atom_site_fract_y
_atom_site_fract_z
Si Si1 0.175655 0.353976 0.409326
Si Si2 0.219408 0.396135 0.578648
Si Si3 0.541625 0.716380 0.055504
Si Si4 0.612643 0.206384 0.197945
Si Si5 0.641676 0.821258 0.190246
O O1 0.280002 0.280002 0.425088
O O2 0.190555 0.476160 0.432955
O O3 0.174084 0.363719 0.346638
O O4 0.066377 0.279078 0.421118
O O5 0.341966 0.341966 0.570206
O O6 0.132994 0.314118 0.550551
O O7 0.190660 0.379667 0.639607
O O8 0.612061 0.612061 0.079770
O O9 0.500000 0.678534 0.000000
O O10 0.675093 0.324908 0.198172
O O11 0.485554 0.206224 0.182374
O O12 0.617252 0.158874 0.255649
O O13 0.707940 0.707940 0.196551
#
# Coordination Sequence:
#
# PCOD9560346 Si02
#       5
#    16  16  16  16  16
#     4  11  23  38  60  92 126 163 210 263 321 386
#     4  10  22  40  62  89 122 165 216 263 314 382
#     4  11  24  43  67  94 125 164 211 268 329 388
#     4  10  21  34  54  85 118 158 207 258 316 380
#     4  10  20  36  56  82 118 162 208 257 316 377
#
# _framework density 21.308240999999999
#
# number of rings (size 3 to 8) (size 9 to 14) (size 15 to 20)
#    0.000    1.600    2.000    2.400    0.000    5.800 
#    0.000    2.000    0.000    7.200    0.000    2.800 
#    0.000    0.000    0.000    0.000    0.000    0.000 
#
# Total GULP energy -223031.696720 kJ/mol
# GULP energy per Si atom -5575.792418 kJ/mol
# Density = 2.125974 g / cm^3
# Si number density = 21.308241 Si / 1000 Ang^3
#
#
#
# Elastic Constant Matrix: (Units=GPa)
#
#
# Indices 1 2 3 4 5 6 
#
# 1 138.0002 21.3872 10.5273 0.0000 0.0000 0.0000
# 2 21.3872 138.0023 10.5263 0.0000 0.0000 0.0000
# 3 10.5273 10.5263 52.5942 0.0000 0.0000 0.0000
# 4 0.0000 0.0000 0.0000 26.3541 0.0000 0.0000
# 5 0.0000 0.0000 0.0000 0.0000 26.3519 0.0000
# 6 0.0000 0.0000 0.0000 0.0000 0.0000 14.7813
#
#
#
# Elastic Compliance Matrix: (Units=1/GPa)
#
#
# Indices 1 2 3 4 5 6 
#
# 1 0.007510 -0.001065 -0.001290 0.000000 0.000000 0.000000
# 2 -0.001065 0.007510 -0.001290 0.000000 0.000000 0.000000
# 3 -0.001290 -0.001290 0.019530 0.000000 0.000000 0.000000
# 4 0.000000 0.000000 0.000000 0.037945 0.000000 0.000000
# 5 0.000000 0.000000 0.000000 0.000000 0.037948 0.000000
# 6 0.000000 0.000000 0.000000 0.000000 0.000000 0.067653
#
#
# Mechanical properties :
#
#
# Convention : Reuss Voigt Hill
#
# Bulk Modulus (GPa) = 36.68492 45.94203 41.31347
# Shear Modulus (GPa) = 25.71063 32.57450 29.14257
#
# Velocity S-wave (km/s) = 3.47739 3.91414 3.70221
# Velocity P-wave (km/s) = 5.77725 6.48342 6.14050
#
# Compressibility (1/GPa) = 0.02725916
#
# Stress axis : x y z
#
# Youngs Moduli (GPa) = 133.15766 133.16005 51.20371
#
# Poissons Ratio (x) = 0.14188 0.06605
# Poissons Ratio (y) = 0.14188 0.06604
# Poissons Ratio (z) = 0.17176 0.17174
#
# Static dielectric constant tensor:
#      x y z
#    x 1.690170 0.000000 0.000000 
#    y 0.000000 1.690280 0.000000 
#    z 0.000000 0.000000 1.879690 
# 
# From -- ./inp_files/8034.got.cif
#   From: 2010.05.17/outbox.cif.g08.bks.cpg/sg121_5_cif.got.tgz:8034.got - 2010.05.20 11:32:06.
