data_PCOD9560243
_publ_section_title
;
Structure prediction by ZEFSAII (Michael W. Deem and Ramdas Pophale) SiO2 
 PCOD9560243
Probable space group: I -4 2 M
;
_chemical_formula_sum "Si O2"
_cell_formula_units_Z 120
_cell_length_a 20.930896
_cell_length_b 20.930896
_cell_length_c 14.307832
_cell_angle_alpha 90.000000
_cell_angle_beta 90.000000
_cell_angle_gamma 90.000000
_cell_volume 6268.295643
_symmetry_space_group_name_H-M "I -4 2 M"
_symmetry_group_IT_number 121
_symmetry_cell_setting 'tetragonal'
loop_
_space_group_symop_operation_xyz
x,y,z
y,-x,-z
-x,-y,z
-y,x,-z
x,-y,-z
-x,y,-z
-y,-x,z
y,x,z
1/2+x,1/2+y,1/2+z
1/2+y,1/2-x,1/2-z
1/2-x,1/2-y,1/2+z
1/2-y,1/2+x,1/2-z
1/2+x,1/2-y,1/2-z
1/2-x,1/2+y,1/2-z
1/2-y,1/2-x,1/2+z
1/2+y,1/2+x,1/2+z
loop_
_atom_site_type_symbol
_atom_site_label
_atom_site_fract_x
_atom_site_fract_y
_atom_site_fract_z
Si Si1 0.500000 0.139781 0.000000
Si Si2 0.267213 0.158868 0.899495
Si Si3 0.491366 0.099711 0.210124
Si Si4 0.607208 0.763407 0.921044
Si Si5 0.775189 0.329741 0.391387
Si Si6 0.464369 0.756146 0.730433
Si Si7 0.629884 0.269326 0.875270
Si Si8 0.312025 0.414969 0.737955
O O1 0.517252 0.101620 0.903711
O O2 0.443332 0.184992 0.960434
O O3 0.206291 0.206291 0.890597
O O4 0.330928 0.199995 0.880293
O O5 0.260810 0.096997 0.835989
O O6 0.276834 0.137944 0.007743
O O7 0.557127 0.064182 0.240837
O O8 0.491105 0.172521 0.249172
O O9 0.583360 0.714654 0.843266
O O10 0.627326 0.726296 0.013949
O O11 0.735124 0.264877 0.409326
O O12 0.841965 0.301948 0.356463
O O13 0.736370 0.369246 0.317706
O O14 0.438036 0.729256 0.828237
O O15 0.516077 0.704809 0.695917
O O16 0.676321 0.323680 0.835814
O O17 0.381169 0.381169 0.732318
#
# Coordination Sequence:
#
# PCOD9560243 Si02
#       8
#     8  16  16  16  16  16  16  16
#     4  12  22  43  66  92 132 167 218 270 308 392
#     4  10  21  37  59  89 117 153 208 268 332 386
#     4  11  26  44  61  86 126 177 223 258 309 381
#     4  11  19  36  61  90 120 157 198 265 325 380
#     4   8  18  35  56  83 117 148 187 257 324 378
#     4  12  23  36  60  85 119 165 207 261 318 384
#     4  10  19  33  57  89 116 146 192 248 320 383
#     4  11  22  36  55  82 117 157 205 258 325 393
#
# _framework density 19.143958999999999
#
# number of rings (size 3 to 8) (size 9 to 14) (size 15 to 20)
#    0.000    1.467    2.667    4.000    1.867    2.667 
#    0.000    1.333    0.000    1.600    0.000    0.000 
#    0.000   11.733    0.000    0.000    0.000    0.400 
#
# Total GULP energy -334575.763630 kJ/mol
# GULP energy per Si atom -5576.262727 kJ/mol
# Density = 1.910039 g / cm^3
# Si number density = 19.143959 Si / 1000 Ang^3
#
#
#
# Elastic Constant Matrix: (Units=GPa)
#
#
# Indices 1 2 3 4 5 6 
#
# 1 80.8462 43.8868 24.6441 0.0000 0.0000 0.0000
# 2 43.8868 80.8481 24.6432 0.0000 0.0000 0.0000
# 3 24.6441 24.6432 67.3889 0.0000 0.0000 0.0000
# 4 0.0000 0.0000 0.0000 25.5828 0.0000 0.0000
# 5 0.0000 0.0000 0.0000 0.0000 25.5823 0.0000
# 6 0.0000 0.0000 0.0000 0.0000 0.0000 32.2065
#
#
#
# Elastic Compliance Matrix: (Units=1/GPa)
#
#
# Indices 1 2 3 4 5 6 
#
# 1 0.018214 -0.008842 -0.003427 0.000000 0.000000 0.000000
# 2 -0.008842 0.018213 -0.003427 0.000000 0.000000 0.000000
# 3 -0.003427 -0.003427 0.017346 0.000000 0.000000 0.000000
# 4 0.000000 0.000000 0.000000 0.039089 0.000000 0.000000
# 5 0.000000 0.000000 0.000000 0.000000 0.039089 0.000000
# 6 0.000000 0.000000 0.000000 0.000000 0.000000 0.031050
#
#
# Mechanical properties :
#
#
# Convention : Reuss Voigt Hill
#
# Bulk Modulus (GPa) = 44.68245 46.15905 45.42075
# Shear Modulus (GPa) = 24.77041 25.73491 25.25266
#
# Velocity S-wave (km/s) = 3.60099 3.67043 3.63587
# Velocity P-wave (km/s) = 6.37812 6.49050 6.43455
#
# Compressibility (1/GPa) = 0.02238015
#
# Stress axis : x y z
#
# Youngs Moduli (GPa) = 54.90297 54.90497 57.65119
#
# Poissons Ratio (x) = 0.48549 0.19759
# Poissons Ratio (y) = 0.48547 0.19755
# Poissons Ratio (z) = 0.18817 0.18814
#
# Static dielectric constant tensor:
#      x y z
#    x 1.696290 0.000000 0.000000 
#    y 0.000000 1.696290 0.000000 
#    z 0.000000 0.000000 1.719660 
# 
# From -- ./inp_files/4616.got.cif
#   From: 2010.05.17/outbox.cif.g08.bks.cpg/sg121_3_cif.got.tgz:4616.got - 2010.05.20 11:32:06.
