data_PCOD9560529
_publ_section_title
;
Structure prediction by ZEFSAII (Michael W. Deem and Ramdas Pophale) SiO2 
 PCOD9560529
Probable space group: I -4 2 M
;
_chemical_formula_sum "Si O2"
_cell_formula_units_Z 116
_cell_length_a 17.885266
_cell_length_b 17.885266
_cell_length_c 18.087086
_cell_angle_alpha 90.000000
_cell_angle_beta 90.000000
_cell_angle_gamma 90.000000
_cell_volume 5785.746626
_symmetry_space_group_name_H-M "I -4 2 M"
_symmetry_group_IT_number 121
_symmetry_cell_setting 'tetragonal'
loop_
_space_group_symop_operation_xyz
x,y,z
y,-x,-z
-x,-y,z
-y,x,-z
x,-y,-z
-x,y,-z
-y,-x,z
y,x,z
1/2+x,1/2+y,1/2+z
1/2+y,1/2-x,1/2-z
1/2-x,1/2-y,1/2+z
1/2-y,1/2+x,1/2-z
1/2+x,1/2-y,1/2-z
1/2-x,1/2+y,1/2-z
1/2-y,1/2-x,1/2+z
1/2+y,1/2+x,1/2+z
loop_
_atom_site_type_symbol
_atom_site_label
_atom_site_fract_x
_atom_site_fract_y
_atom_site_fract_z
Si Si1 0.614165 0.807946 0.263181
Si Si2 0.500000 0.500000 0.217053
Si Si3 0.470960 0.915939 0.841579
Si Si4 0.241674 0.879933 0.810012
Si Si5 0.509686 0.681668 0.207824
Si Si6 0.928901 0.327659 0.946894
Si Si7 0.775243 0.464113 0.079949
Si Si8 0.183138 0.694961 0.078539
O O1 0.559364 0.873751 0.232221
O O2 0.691007 0.828329 0.220820
O O3 0.580272 0.727367 0.241263
O O4 0.629045 0.809198 0.350310
O O5 0.502099 0.593318 0.216721
O O6 0.404608 0.921899 0.901874
O O7 0.525817 0.854444 0.877284
O O8 0.500000 0.000000 0.832013
O O9 0.172759 0.827242 0.828558
O O10 0.267004 0.926016 0.881813
O O11 0.219234 0.938289 0.747359
O O12 0.505736 0.709624 0.123512
O O13 0.860382 0.313562 0.001915
O O14 0.000000 0.327231 0.000000
O O15 0.761771 0.375978 0.080180
O O16 0.783616 0.500000 0.000000
O O17 0.229289 0.770712 0.082846
#
# Coordination Sequence:
#
# PCOD9560529 Si02
#       8
#    16   4  16  16  16  16  16  16
#     4  10  24  43  68 105 136 182 235 288 343 427
#     4  12  28  48  77 100 129 184 248 310 368 408
#     4  10  22  41  66 100 145 186 223 276 348 428
#     4  11  22  44  71  97 138 176 226 289 351 409
#     4  11  25  47  70 103 135 179 240 295 351 420
#     4  11  23  40  65 100 139 177 223 275 346 430
#     4  11  23  44  66  97 143 188 230 281 349 420
#     4  12  24  41  69  99 136 184 231 281 347 417
#
# _framework density 20.049271999999998
#
# number of rings (size 3 to 8) (size 9 to 14) (size 15 to 20)
#    0.000    1.103    3.448    2.483    2.897    1.103 
#    1.241    1.034    0.000    0.000    0.000    0.966 
#    0.000    0.000    0.000    0.000    0.000    0.000 
#
# Total GULP energy -323617.197288 kJ/mol
# GULP energy per Si atom -5579.606850 kJ/mol
# Density = 2.000364 g / cm^3
# Si number density = 20.049272 Si / 1000 Ang^3
#
#
#
# Elastic Constant Matrix: (Units=GPa)
#
#
# Indices 1 2 3 4 5 6 
#
# 1 120.1409 52.6660 42.0948 0.0000 0.0000 0.0000
# 2 52.6660 120.1345 42.0971 0.0000 0.0000 0.0000
# 3 42.0948 42.0971 103.1760 0.0000 0.0000 0.0000
# 4 0.0000 0.0000 0.0000 -1.9146 0.0000 0.0000
# 5 0.0000 0.0000 0.0000 0.0000 -1.9004 0.0000
# 6 0.0000 0.0000 0.0000 0.0000 0.0000 18.7381
#
#
#
# Elastic Compliance Matrix: (Units=1/GPa)
#
#
# Indices 1 2 3 4 5 6 
#
# 1 0.011021 -0.003799 -0.002947 0.000000 0.000000 0.000000
# 2 -0.003799 0.011022 -0.002947 0.000000 0.000000 0.000000
# 3 -0.002947 -0.002947 0.012097 0.000000 0.000000 0.000000
# 4 0.000000 0.000000 0.000000 -0.522302 0.000000 0.000000
# 5 0.000000 0.000000 0.000000 0.000000 -0.526200 0.000000
# 6 0.000000 0.000000 0.000000 0.000000 0.000000 0.053367
#
#
# Mechanical properties :
#
#
# Convention : Reuss Voigt Hill
#
# Bulk Modulus (GPa) = 67.77496 68.57413 68.17455
# Shear Modulus (GPa) = -5.33794 16.75752 5.70979
#
# Velocity S-wave (km/s) = -1.63346 2.89419 1.68940
# Velocity P-wave (km/s) = 5.50636 6.74133 6.15490
#
# Compressibility (1/GPa) = 0.01475471
#
# Stress axis : x y z
#
# Youngs Moduli (GPa) = 90.73266 90.72531 82.66643
#
# Poissons Ratio (x) = 0.34468 0.24358
# Poissons Ratio (y) = 0.34471 0.24363
# Poissons Ratio (z) = 0.26734 0.26739
#
# Static dielectric constant tensor:
#      x y z
#    x 1.725820 0.000000 0.000000 
#    y 0.000000 1.725810 0.000000 
#    z 0.000000 0.000000 1.708150 
# 
# From -- ./inp_files/5532.got.cif
#   From: 2010.05.17/outbox.cif.g08.bks.cpg/sg121_3_cif.got.tgz:5532.got - 2010.05.20 11:32:06.
