data_PCOD9560460
_publ_section_title
;
Structure prediction by ZEFSAII (Michael W. Deem and Ramdas Pophale) SiO2 
 PCOD9560460
Probable space group: I -4 2 M
;
_chemical_formula_sum "Si O2"
_cell_formula_units_Z 120
_cell_length_a 27.344694
_cell_length_b 27.344694
_cell_length_c 8.433252
_cell_angle_alpha 90.000000
_cell_angle_beta 90.000000
_cell_angle_gamma 90.000000
_cell_volume 6305.814830
_symmetry_space_group_name_H-M "I -4 2 M"
_symmetry_group_IT_number 121
_symmetry_cell_setting 'tetragonal'
loop_
_space_group_symop_operation_xyz
x,y,z
y,-x,-z
-x,-y,z
-y,x,-z
x,-y,-z
-x,y,-z
-y,-x,z
y,x,z
1/2+x,1/2+y,1/2+z
1/2+y,1/2-x,1/2-z
1/2-x,1/2-y,1/2+z
1/2-y,1/2+x,1/2-z
1/2+x,1/2-y,1/2-z
1/2-x,1/2+y,1/2-z
1/2-y,1/2-x,1/2+z
1/2+y,1/2+x,1/2+z
loop_
_atom_site_type_symbol
_atom_site_label
_atom_site_fract_x
_atom_site_fract_y
_atom_site_fract_z
Si Si1 0.272086 0.607462 0.377969
Si Si2 0.436930 0.205949 0.347963
Si Si3 0.748048 0.150715 0.311867
Si Si4 0.842961 0.842961 0.881089
Si Si5 0.024099 0.748315 0.656823
Si Si6 0.673338 0.785880 0.846426
Si Si7 0.946555 0.604801 0.015143
Si Si8 0.921620 0.648125 0.358172
O O1 0.230840 0.585470 0.495050
O O2 0.317900 0.621269 0.483883
O O3 0.278407 0.567681 0.238692
O O4 0.248876 0.655129 0.294841
O O5 0.396578 0.213914 0.211998
O O6 0.484091 0.235220 0.289195
O O7 0.447842 0.150157 0.390363
O O8 0.801533 0.138660 0.250237
O O9 0.725488 0.191206 0.193233
O O10 0.742290 0.170055 0.488545
O O11 0.046563 0.695906 0.605773
O O12 0.000000 0.770869 0.500000
O O13 0.633851 0.830435 0.854791
O O14 0.937359 0.628124 0.186752
O O15 0.898111 0.574388 0.973611
O O16 0.000000 0.580547 0.000000
#
# Coordination Sequence:
#
# PCOD9560460 Si02
#       8
#    16  16  16   8  16  16  16  16
#     4  10  21  38  56  80 112 144 185 226 280 346
#     4  11  18  36  57  80 104 135 178 233 283 334
#     4  11  22  33  52  74 108 137 183 221 273 334
#     4  10  24  38  52  74 106 158 178 211 272 332
#     4  11  22  36  59  90 109 136 186 244 294 340
#     4  11  20  34  51  79 105 138 176 235 273 331
#     4  12  22  37  55  79 101 134 172 230 293 360
#     4  11  23  34  55  81 105 132 175 231 300 350
#
# _framework density 19.030055000000001
#
# number of rings (size 3 to 8) (size 9 to 14) (size 15 to 20)
#    0.000    1.067    5.333    4.400    1.867    2.667 
#    0.000    0.000    0.000    3.200    0.000    0.000 
#    0.000    0.000    0.000    0.000    0.000  107.000 
#
# Total GULP energy -334296.504748 kJ/mol
# GULP energy per Si atom -5571.608412 kJ/mol
# Density = 1.898674 g / cm^3
# Si number density = 19.030055 Si / 1000 Ang^3
#
#
#
# Elastic Constant Matrix: (Units=GPa)
#
#
# Indices 1 2 3 4 5 6 
#
# 1 7.7133 40.6455 11.5178 0.0000 0.0000 0.0000
# 2 40.6455 7.7133 11.5178 0.0000 0.0000 0.0000
# 3 11.5178 11.5178 92.6155 0.0000 0.0000 0.0000
# 4 0.0000 0.0000 0.0000 29.5395 0.0000 0.0000
# 5 0.0000 0.0000 0.0000 0.0000 29.5395 0.0000
# 6 0.0000 0.0000 0.0000 0.0000 0.0000 12.2701
#
#
#
# Elastic Compliance Matrix: (Units=1/GPa)
#
#
# Indices 1 2 3 4 5 6 
#
# 1 -0.004192 0.026173 -0.002734 0.000000 0.000000 0.000000
# 2 0.026173 -0.004192 -0.002734 0.000000 0.000000 0.000000
# 3 -0.002734 -0.002734 0.011477 0.000000 0.000000 0.000000
# 4 0.000000 0.000000 0.000000 0.033853 0.000000 0.000000
# 5 0.000000 0.000000 0.000000 0.000000 0.033853 0.000000
# 6 0.000000 0.000000 0.000000 0.000000 0.000000 0.081499
#
#
# Mechanical properties :
#
#
# Convention : Reuss Voigt Hill
#
# Bulk Modulus (GPa) = 22.46952 26.15604 24.31278
# Shear Modulus (GPa) = 39.77067 17.22721 28.49894
#
# Velocity S-wave (km/s) = 4.57649 3.01202 3.87405
# Velocity P-wave (km/s) = 6.30545 5.08634 5.72842
#
# Compressibility (1/GPa) = 0.04450474
#
# Stress axis : x y z
#
# Youngs Moduli (GPa) = -238.53571 -238.53571 87.12897
#
# Poissons Ratio (x) = 6.24324 0.23818
# Poissons Ratio (y) = 6.24324 0.23818
# Poissons Ratio (z) = -0.65206 -0.65206
#
# Static dielectric constant tensor:
#      x y z
#    x 1.686210 0.000000 0.000000 
#    y 0.000000 1.686210 0.000000 
#    z 0.000000 0.000000 1.709600 
# 
# From -- ./inp_files/2168.got.cif
#   From: 2010.05.17/outbox.cif.g08.bks.cpg/sg121_2_cif.got.tgz:2168.got - 2010.05.20 11:32:06.
