data_PCOD9560714
_publ_section_title
;
Structure prediction by ZEFSAII (Michael W. Deem and Ramdas Pophale) SiO2 
 PCOD9560714
Probable space group: I -4 2 D
;
_chemical_formula_sum "Si O2"
_cell_formula_units_Z 72
_cell_length_a 19.551374
_cell_length_b 19.551374
_cell_length_c 9.581990
_cell_angle_alpha 90.000000
_cell_angle_beta 90.000000
_cell_angle_gamma 90.000000
_cell_volume 3662.775328
_symmetry_space_group_name_H-M "I -4 2 D"
_symmetry_group_IT_number 122
_symmetry_cell_setting 'tetragonal'
loop_
_space_group_symop_operation_xyz
x,y,z
y,-x,-z
-x,-y,z
-y,x,-z
x,1/2-y,1/4-z
-x,1/2+y,1/4-z
-y,1/2-x,1/4+z
y,1/2+x,1/4+z
1/2+x,1/2+y,1/2+z
1/2+y,1/2-x,1/2-z
1/2-x,1/2-y,1/2+z
1/2-y,1/2+x,1/2-z
1/2+x,-y,3/4-z
1/2-x,y,3/4-z
1/2-y,-x,3/4+z
1/2+y,x,3/4+z
loop_
_atom_site_type_symbol
_atom_site_label
_atom_site_fract_x
_atom_site_fract_y
_atom_site_fract_z
Si Si1 0.919170 0.659502 0.496968
Si Si2 0.184167 0.377303 0.277660
Si Si3 0.250000 0.768858 0.875000
Si Si4 0.310581 0.858168 0.219264
Si Si5 0.928698 0.317827 0.528246
O O1 0.883128 0.617451 0.373053
O O2 0.881419 0.648009 0.643575
O O3 0.903649 0.740921 0.462873
O O4 0.997837 0.646249 0.530286
O O5 0.250000 0.386923 0.375000
O O6 0.187262 0.300398 0.217578
O O7 0.193518 0.419641 0.136878
O O8 0.212835 0.717553 0.767407
O O9 0.362005 0.856646 0.089496
O O10 0.934101 0.250000 0.625000
#
# Coordination Sequence:
#
# PCOD9560714 Si02
#       5
#    16  16   8  16  16
#     4  10  22  40  58  95 129 156 215 272 317 400
#     4  12  21  35  58  91 124 159 200 267 330 377
#     4  10  18  30  62  90 120 144 202 248 344 368
#     4  10  19  36  62  89 124 158 204 262 322 386
#     4  12  22  38  62  92 125 171 203 259 330 400
#
# _framework density 19.657225
#
# number of rings (size 3 to 8) (size 9 to 14) (size 15 to 20)
#    0.000    1.333    8.889    1.333    0.000    0.000 
#    6.000    0.000    0.000    4.000    0.000    0.000 
#    0.000    0.000    0.000    0.000    0.000    0.000 
#
# Total GULP energy -200645.691781 kJ/mol
# GULP energy per Si atom -5573.491438 kJ/mol
# Density = 1.961248 g / cm^3
# Si number density = 19.657225 Si / 1000 Ang^3
#
#
#
# Elastic Constant Matrix: (Units=GPa)
#
#
# Indices 1 2 3 4 5 6 
#
# 1 44.6056 -10.3861 16.4475 0.0000 0.0000 0.0000
# 2 -10.3861 44.6056 16.4475 0.0000 0.0000 0.0000
# 3 16.4475 16.4475 135.5053 0.0000 0.0000 0.0000
# 4 0.0000 0.0000 0.0000 19.4458 0.0000 0.0000
# 5 0.0000 0.0000 0.0000 0.0000 19.4458 0.0000
# 6 0.0000 0.0000 0.0000 0.0000 0.0000 6.4008
#
#
#
# Elastic Compliance Matrix: (Units=1/GPa)
#
#
# Indices 1 2 3 4 5 6 
#
# 1 0.025634 0.007449 -0.004016 0.000000 0.000000 0.000000
# 2 0.007449 0.025634 -0.004016 0.000000 0.000000 0.000000
# 3 -0.004016 -0.004016 0.008355 0.000000 0.000000 0.000000
# 4 0.000000 0.000000 0.000000 0.051425 0.000000 0.000000
# 5 0.000000 0.000000 0.000000 0.000000 0.051425 0.000000
# 6 0.000000 0.000000 0.000000 0.000000 0.000000 0.156229
#
#
# Mechanical properties :
#
#
# Convention : Reuss Voigt Hill
#
# Bulk Modulus (GPa) = 17.10608 29.97049 23.53828
# Shear Modulus (GPa) = 14.73396 22.53898 18.63647
#
# Velocity S-wave (km/s) = 2.74075 3.38982 3.08242
# Velocity P-wave (km/s) = 4.32859 5.53180 4.96677
#
# Compressibility (1/GPa) = 0.05845875
#
# Stress axis : x y z
#
# Youngs Moduli (GPa) = 39.01078 39.01078 119.69437
#
# Poissons Ratio (x) = -0.29061 0.48065
# Poissons Ratio (y) = -0.29061 0.48065
# Poissons Ratio (z) = 0.15665 0.15665
#
# Static dielectric constant tensor:
#      x y z
#    x 1.679250 0.000000 0.000000 
#    y 0.000000 1.679250 0.000000 
#    z 0.000000 0.000000 1.748530 
# 
# From -- ./inp_files/2664.got.cif
#   From: 2010.05.17/outbox.cif.g08.bks.cpg/sg122_2_cif.got.tgz:2664.got - 2010.05.20 11:37:33.
