data_PCOD9560372
_publ_section_title
;
Structure prediction by ZEFSAII (Michael W. Deem and Ramdas Pophale) SiO2 
 PCOD9560372
Probable space group: I -4 2 M
;
_chemical_formula_sum "Si O2"
_cell_formula_units_Z 72
_cell_length_a 14.353037
_cell_length_b 14.353037
_cell_length_c 19.197261
_cell_angle_alpha 90.000000
_cell_angle_beta 90.000000
_cell_angle_gamma 90.000000
_cell_volume 3954.821425
_symmetry_space_group_name_H-M "I -4 2 M"
_symmetry_group_IT_number 121
_symmetry_cell_setting 'tetragonal'
loop_
_space_group_symop_operation_xyz
x,y,z
y,-x,-z
-x,-y,z
-y,x,-z
x,-y,-z
-x,y,-z
-y,-x,z
y,x,z
1/2+x,1/2+y,1/2+z
1/2+y,1/2-x,1/2-z
1/2-x,1/2-y,1/2+z
1/2-y,1/2+x,1/2-z
1/2+x,1/2-y,1/2-z
1/2-x,1/2+y,1/2-z
1/2-y,1/2-x,1/2+z
1/2+y,1/2+x,1/2+z
loop_
_atom_site_type_symbol
_atom_site_label
_atom_site_fract_x
_atom_site_fract_y
_atom_site_fract_z
Si Si1 0.408433 0.251380 0.400178
Si Si2 0.090766 0.249876 0.626385
Si Si3 0.843817 0.000000 0.500000
Si Si4 0.051006 0.354786 0.760653
Si Si5 0.617639 0.228139 0.442710
O O1 0.343013 0.343013 0.390023
O O2 0.407832 0.184949 0.332902
O O3 0.518253 0.264909 0.416248
O O4 0.378285 0.207756 0.474446
O O5 0.169457 0.169457 0.630834
O O6 0.016632 0.215743 0.569437
O O7 0.054568 0.274547 0.702490
O O8 0.138748 0.343233 0.596652
O O9 0.910742 0.089259 0.508888
O O10 0.109902 0.444612 0.735740
O O11 0.689994 0.310007 0.429578
#
# Coordination Sequence:
#
# PCOD9560372 Si02
#       5
#    16  16   8  16  16
#     4  10  20  37  59  83 113 148 191 240 292 346
#     4  10  20  38  60  83 117 153 189 240 294 346
#     4   9  20  38  60  87 116 152 200 247 294 350
#     4  11  23  38  54  82 119 155 196 240 288 345
#     4   9  19  36  59  86 112 146 192 237 288 350
#
# _framework density 18.205625999999999
#
# number of rings (size 3 to 8) (size 9 to 14) (size 15 to 20)
#    0.000    2.111    2.222    0.667    3.111    0.444 
#    0.000    4.444    0.000    2.667    0.000    0.000 
#    0.000    0.000    0.000    0.000    0.000    0.000 
#
# Total GULP energy -200513.042724 kJ/mol
# GULP energy per Si atom -5569.806742 kJ/mol
# Density = 1.816419 g / cm^3
# Si number density = 18.205626 Si / 1000 Ang^3
#
#
#
# Elastic Constant Matrix: (Units=GPa)
#
#
# Indices 1 2 3 4 5 6 
#
# 1 57.2906 24.5070 39.0830 0.0000 0.0000 0.0000
# 2 24.5070 57.2901 39.0824 0.0000 0.0000 0.0000
# 3 39.0830 39.0824 94.7621 0.0000 0.0000 0.0000
# 4 0.0000 0.0000 0.0000 31.6962 0.0000 0.0000
# 5 0.0000 0.0000 0.0000 0.0000 31.6957 0.0000
# 6 0.0000 0.0000 0.0000 0.0000 0.0000 6.6618
#
#
#
# Elastic Compliance Matrix: (Units=1/GPa)
#
#
# Indices 1 2 3 4 5 6 
#
# 1 0.025340 -0.005163 -0.008322 0.000000 0.000000 0.000000
# 2 -0.005163 0.025341 -0.008322 0.000000 0.000000 0.000000
# 3 -0.008322 -0.008322 0.017417 0.000000 0.000000 0.000000
# 4 0.000000 0.000000 0.000000 0.031550 0.000000 0.000000
# 5 0.000000 0.000000 0.000000 0.000000 0.031550 0.000000
# 6 0.000000 0.000000 0.000000 0.000000 0.000000 0.150109
#
#
# Mechanical properties :
#
#
# Convention : Reuss Voigt Hill
#
# Bulk Modulus (GPa) = 40.84132 46.07641 43.45887
# Shear Modulus (GPa) = 15.01135 21.12211 18.06673
#
# Velocity S-wave (km/s) = 2.87460 3.40986 3.15361
# Velocity P-wave (km/s) = 5.78791 6.39271 6.09781
#
# Compressibility (1/GPa) = 0.02448500
#
# Stress axis : x y z
#
# Youngs Moduli (GPa) = 39.46255 39.46249 57.41475
#
# Poissons Ratio (x) = 0.20374 0.47780
# Poissons Ratio (y) = 0.20374 0.47779
# Poissons Ratio (z) = 0.32841 0.32840
#
# Static dielectric constant tensor:
#      x y z
#    x 1.617290 0.000000 0.000000 
#    y 0.000000 1.617290 0.000000 
#    z 0.000000 0.000000 1.633770 
# 
# From -- ./inp_files/5176.got.cif
#   From: 2010.05.17/outbox.cif.g08.bks.cpg/sg121_3_cif.got.tgz:5176.got - 2010.05.20 11:32:06.
