data_PCOD9560522
_publ_section_title
;
Structure prediction by ZEFSAII (Michael W. Deem and Ramdas Pophale) SiO2 
 PCOD9560522
Probable space group: I -4 2 M
;
_chemical_formula_sum "Si O2"
_cell_formula_units_Z 96
_cell_length_a 23.887402
_cell_length_b 23.887402
_cell_length_c 8.999260
_cell_angle_alpha 90.000000
_cell_angle_beta 90.000000
_cell_angle_gamma 90.000000
_cell_volume 5135.049519
_symmetry_space_group_name_H-M "I -4 2 M"
_symmetry_group_IT_number 121
_symmetry_cell_setting 'tetragonal'
loop_
_space_group_symop_operation_xyz
x,y,z
y,-x,-z
-x,-y,z
-y,x,-z
x,-y,-z
-x,y,-z
-y,-x,z
y,x,z
1/2+x,1/2+y,1/2+z
1/2+y,1/2-x,1/2-z
1/2-x,1/2-y,1/2+z
1/2-y,1/2+x,1/2-z
1/2+x,1/2-y,1/2-z
1/2-x,1/2+y,1/2-z
1/2-y,1/2-x,1/2+z
1/2+y,1/2+x,1/2+z
loop_
_atom_site_type_symbol
_atom_site_label
_atom_site_fract_x
_atom_site_fract_y
_atom_site_fract_z
Si Si1 0.260976 0.739025 0.337503
Si Si2 0.312385 0.312385 0.958732
Si Si3 0.717457 0.561318 0.999070
Si Si4 0.029815 0.433170 0.341001
Si Si5 0.137087 0.311272 0.046192
Si Si6 0.683258 0.039672 0.731438
Si Si7 0.408871 0.804033 0.777818
O O1 0.277928 0.722073 0.168302
O O2 0.214231 0.785770 0.388395
O O3 0.235611 0.681709 0.404029
O O4 0.305527 0.379276 0.943791
O O5 0.769899 0.548810 0.891608
O O6 0.687094 0.500000 0.000000
O O7 0.742056 0.578548 0.159454
O O8 0.064836 0.487621 0.300914
O O9 0.062149 0.375946 0.328867
O O10 0.000000 0.434876 0.500000
O O11 0.076964 0.303516 0.125966
O O12 0.163170 0.370452 0.102307
O O13 0.126391 0.306793 0.872075
O O14 0.675771 0.972741 0.746442
#
# Coordination Sequence:
#
# PCOD9560522 Si02
#       7
#     8   8  16  16  16  16  16
#     4  12  24  38  60  92 118 161 199 243 304 357
#     4  12  22  42  64  89 130 159 201 252 296 375
#     4  10  22  40  61  88 120 157 195 242 308 366
#     4  11  23  38  54  72 101 144 203 258 296 337
#     4  12  23  38  57  84 116 153 198 248 297 358
#     4  11  23  39  55  80 112 151 197 243 301 355
#     4  11  23  37  57  82 115 154 197 248 297 357
#
# _framework density 18.695048
#
# number of rings (size 3 to 8) (size 9 to 14) (size 15 to 20)
#    0.000    0.833    3.333    6.000    0.000    5.333 
#    0.000    0.000    0.000    0.250    0.000    0.000 
#    0.000    0.000    0.000    0.083    0.000    0.000 
#
# Total GULP energy -267555.606497 kJ/mol
# GULP energy per Si atom -5574.075135 kJ/mol
# Density = 1.865250 g / cm^3
# Si number density = 18.695048 Si / 1000 Ang^3
#
#
#
# Elastic Constant Matrix: (Units=GPa)
#
#
# Indices 1 2 3 4 5 6 
#
# 1 92.1135 42.0455 27.8803 0.0000 0.0000 0.0000
# 2 42.0455 92.1103 27.8802 0.0000 0.0000 0.0000
# 3 27.8803 27.8802 99.8893 0.0000 0.0000 0.0000
# 4 0.0000 0.0000 0.0000 21.9000 0.0000 0.0000
# 5 0.0000 0.0000 0.0000 0.0000 21.8999 0.0000
# 6 0.0000 0.0000 0.0000 0.0000 0.0000 36.4256
#
#
#
# Elastic Compliance Matrix: (Units=1/GPa)
#
#
# Indices 1 2 3 4 5 6 
#
# 1 0.014203 -0.005771 -0.002353 0.000000 0.000000 0.000000
# 2 -0.005771 0.014203 -0.002354 0.000000 0.000000 0.000000
# 3 -0.002353 -0.002354 0.011325 0.000000 0.000000 0.000000
# 4 0.000000 0.000000 0.000000 0.045662 0.000000 0.000000
# 5 0.000000 0.000000 0.000000 0.000000 0.045662 0.000000
# 6 0.000000 0.000000 0.000000 0.000000 0.000000 0.027453
#
#
# Mechanical properties :
#
#
# Convention : Reuss Voigt Hill
#
# Bulk Modulus (GPa) = 53.26202 53.30279 53.28241
# Shear Modulus (GPa) = 26.92199 28.46558 27.69379
#
# Velocity S-wave (km/s) = 3.79893 3.90632 3.85300
# Velocity P-wave (km/s) = 6.91334 6.99424 6.95391
#
# Compressibility (1/GPa) = 0.01877510
#
# Stress axis : x y z
#
# Youngs Moduli (GPa) = 70.40992 70.40729 88.30129
#
# Poissons Ratio (x) = 0.40630 0.20781
# Poissons Ratio (y) = 0.40631 0.20782
# Poissons Ratio (z) = 0.16571 0.16571
#
# Static dielectric constant tensor:
#      x y z
#    x 1.714590 0.000000 0.000000 
#    y 0.000000 1.714590 0.000000 
#    z 0.000000 0.000000 1.685980 
# 
# From -- ./inp_files/2002.got.cif
#   From: 2010.05.17/outbox.cif.g08.bks.cpg/sg121_2_cif.got.tgz:2002.got - 2010.05.20 11:32:06.
