data_PCOD9560278
_publ_section_title
;
Structure prediction by ZEFSAII (Michael W. Deem and Ramdas Pophale) SiO2 
 PCOD9560278
Probable space group: I -4 2 M
;
_chemical_formula_sum "Si O2"
_cell_formula_units_Z 116
_cell_length_a 18.156276
_cell_length_b 18.156276
_cell_length_c 18.271712
_cell_angle_alpha 90.000000
_cell_angle_beta 90.000000
_cell_angle_gamma 90.000000
_cell_volume 6023.276406
_symmetry_space_group_name_H-M "I -4 2 M"
_symmetry_group_IT_number 121
_symmetry_cell_setting 'tetragonal'
loop_
_space_group_symop_operation_xyz
x,y,z
y,-x,-z
-x,-y,z
-y,x,-z
x,-y,-z
-x,y,-z
-y,-x,z
y,x,z
1/2+x,1/2+y,1/2+z
1/2+y,1/2-x,1/2-z
1/2-x,1/2-y,1/2+z
1/2-y,1/2+x,1/2-z
1/2+x,1/2-y,1/2-z
1/2-x,1/2+y,1/2-z
1/2-y,1/2-x,1/2+z
1/2+y,1/2+x,1/2+z
loop_
_atom_site_type_symbol
_atom_site_label
_atom_site_fract_x
_atom_site_fract_y
_atom_site_fract_z
Si Si1 0.501342 0.621906 0.870967
Si Si2 0.293118 0.496408 0.718719
Si Si3 0.935496 0.810738 0.940032
Si Si4 0.291598 0.831493 0.984948
Si Si5 0.500000 0.000000 0.250000
Si Si6 0.065961 0.652594 0.289886
Si Si7 0.443473 0.769666 0.945546
Si Si8 0.229119 0.347383 0.682380
O O1 0.441460 0.558541 0.882436
O O2 0.581213 0.581213 0.880955
O O3 0.492020 0.653769 0.788326
O O4 0.476792 0.689505 0.923680
O O5 0.315794 0.532938 0.642103
O O6 0.211405 0.527172 0.737172
O O7 0.284319 0.409257 0.709466
O O8 0.876204 0.876204 0.949999
O O9 0.894090 0.732452 0.957225
O O10 0.000000 0.818263 0.000000
O O11 0.226804 0.773197 0.990061
O O12 0.365465 0.782511 0.985356
O O13 0.287282 0.864793 0.902886
O O14 0.427294 0.970858 0.290980
O O15 0.060984 0.688612 0.369350
O O16 0.153066 0.648735 0.273644
O O17 0.500000 0.806835 0.000000
O O18 0.267640 0.267640 0.686294
#
# Coordination Sequence:
#
# PCOD9560278 Si02
#       8
#    16  16  16  16   4  16  16  16
#     4  10  22  39  61  91 125 163 207 259 321 381
#     4  11  21  38  61  89 125 164 206 256 312 372
#     4  11  23  38  60  91 128 169 212 256 310 376
#     4   9  19  37  59  83 118 162 206 253 302 364
#     4  12  20  40  62  92 128 156 204 254 320 376
#     4  10  23  38  63  89 121 161 203 258 314 376
#     4  10  22  41  62  90 120 158 209 261 318 376
#     4  10  19  36  60  85 115 162 208 249 304 364
#
# _framework density 19.258621000000002
#
# number of rings (size 3 to 8) (size 9 to 14) (size 15 to 20)
#    0.000    1.793    2.759    1.241    0.000    6.759 
#    0.000    1.034    0.000    0.000    0.000    0.000 
#    0.000    0.000    0.000    0.000    0.000    0.000 
#
# Total GULP energy -323010.263124 kJ/mol
# GULP energy per Si atom -5569.142468 kJ/mol
# Density = 1.921479 g / cm^3
# Si number density = 19.258621 Si / 1000 Ang^3
#
#
#
# Elastic Constant Matrix: (Units=GPa)
#
#
# Indices 1 2 3 4 5 6 
#
# 1 101.9271 29.0099 22.0322 0.0000 0.0000 0.0000
# 2 29.0099 101.9255 22.0321 0.0000 0.0000 0.0000
# 3 22.0322 22.0321 57.0677 0.0000 0.0000 0.0000
# 4 0.0000 0.0000 0.0000 -17.7302 0.0000 0.0000
# 5 0.0000 0.0000 0.0000 0.0000 -17.7271 0.0000
# 6 0.0000 0.0000 0.0000 0.0000 0.0000 74.2744
#
#
#
# Elastic Compliance Matrix: (Units=1/GPa)
#
#
# Indices 1 2 3 4 5 6 
#
# 1 0.011246 -0.002468 -0.003389 0.000000 0.000000 0.000000
# 2 -0.002468 0.011246 -0.003389 0.000000 0.000000 0.000000
# 3 -0.003389 -0.003389 0.020140 0.000000 0.000000 0.000000
# 4 0.000000 0.000000 0.000000 -0.056401 0.000000 0.000000
# 5 0.000000 0.000000 0.000000 0.000000 -0.056411 0.000000
# 6 0.000000 0.000000 0.000000 0.000000 0.000000 0.013464
#
#
# Mechanical properties :
#
#
# Convention : Reuss Voigt Hill
#
# Bulk Modulus (GPa) = 41.42521 45.22986 43.32753
# Shear Modulus (GPa) = -165.68620 20.28648 -72.69986
#
# Velocity S-wave (km/s) = -9.28542 3.24909 -6.15071
# Velocity P-wave (km/s) = 9.66447 6.13286 5.28157
#
# Compressibility (1/GPa) = 0.02413989
#
# Stress axis : x y z
#
# Youngs Moduli (GPa) = 88.92084 88.91945 49.65313
#
# Poissons Ratio (x) = 0.21948 0.16827
# Poissons Ratio (y) = 0.21948 0.16827
# Poissons Ratio (z) = 0.30134 0.30133
#
# Static dielectric constant tensor:
#      x y z
#    x 1.704420 0.000000 0.000000 
#    y 0.000000 1.704410 0.000000 
#    z 0.000000 0.000000 1.394930 
# 
# From -- ./inp_files/5526.got.cif
#   From: 2010.05.17/outbox.cif.g08.bks.cpg/sg121_3_cif.got.tgz:5526.got - 2010.05.20 11:32:06.
