data_PCOD9560743
_publ_section_title
;
Structure prediction by ZEFSAII (Michael W. Deem and Ramdas Pophale) SiO2 
 PCOD9560743
Probable space group: I -4 2 D
;
_chemical_formula_sum "Si O2"
_cell_formula_units_Z 72
_cell_length_a 15.923325
_cell_length_b 15.923325
_cell_length_c 11.912927
_cell_angle_alpha 90.000000
_cell_angle_beta 90.000000
_cell_angle_gamma 90.000000
_cell_volume 3020.549791
_symmetry_space_group_name_H-M "I -4 2 D"
_symmetry_group_IT_number 122
_symmetry_cell_setting 'tetragonal'
loop_
_space_group_symop_operation_xyz
x,y,z
y,-x,-z
-x,-y,z
-y,x,-z
x,1/2-y,1/4-z
-x,1/2+y,1/4-z
-y,1/2-x,1/4+z
y,1/2+x,1/4+z
1/2+x,1/2+y,1/2+z
1/2+y,1/2-x,1/2-z
1/2-x,1/2-y,1/2+z
1/2-y,1/2+x,1/2-z
1/2+x,-y,3/4-z
1/2-x,y,3/4-z
1/2-y,-x,3/4+z
1/2+y,x,3/4+z
loop_
_atom_site_type_symbol
_atom_site_label
_atom_site_fract_x
_atom_site_fract_y
_atom_site_fract_z
Si Si1 0.870599 0.469116 0.230178
Si Si2 0.600915 0.008414 0.110199
Si Si3 0.836771 0.065141 0.399812
Si Si4 0.659956 0.915308 0.523430
Si Si5 0.750000 0.149606 0.875000
O O1 0.951563 0.410823 0.202382
O O2 0.833686 0.517171 0.122401
O O3 0.802805 0.409713 0.289225
O O4 0.644125 0.047856 0.219585
O O5 0.621709 0.911274 0.100948
O O6 0.500000 0.000000 0.129666
O O7 0.612581 0.063751 0.001422
O O8 0.750000 0.108348 0.375000
O O9 0.828811 0.973939 0.336660
O O10 0.698439 0.825207 0.557449
#
# Coordination Sequence:
#
# PCOD9560743 Si02
#       5
#    16  16  16  16   8
#     4   9  20  35  56  89 111 149 199 242 284 346
#     4  10  18  38  59  88 116 141 198 256 284 340
#     4  11  21  34  63  88 113 152 196 247 299 351
#     4  10  21  37  61  83 120 152 194 252 287 350
#     4  10  22  36  60  84 122 152 200 246 300 348
#
# _framework density 23.836721000000001
#
# number of rings (size 3 to 8) (size 9 to 14) (size 15 to 20)
#    0.000    2.000    4.444    0.000   21.778    0.000 
#    0.000    0.000   12.222    0.000    0.000    0.000 
#    0.000    0.000    0.000    0.000    0.000    0.000 
#
# Total GULP energy -200521.978560 kJ/mol
# GULP energy per Si atom -5570.054960 kJ/mol
# Density = 2.378247 g / cm^3
# Si number density = 23.836721 Si / 1000 Ang^3
#
#
#
# Elastic Constant Matrix: (Units=GPa)
#
#
# Indices 1 2 3 4 5 6 
#
# 1 70.4726 -19.8571 7.1048 0.0000 0.0000 0.0000
# 2 -19.8571 70.4726 7.1048 0.0000 0.0000 0.0000
# 3 7.1048 7.1048 68.9432 0.0000 0.0000 0.0000
# 4 0.0000 0.0000 0.0000 22.4649 0.0000 0.0000
# 5 0.0000 0.0000 0.0000 0.0000 22.4649 0.0000
# 6 0.0000 0.0000 0.0000 0.0000 0.0000 14.9649
#
#
#
# Elastic Compliance Matrix: (Units=1/GPa)
#
#
# Indices 1 2 3 4 5 6 
#
# 1 0.015708 0.004637 -0.002097 0.000000 0.000000 0.000000
# 2 0.004637 0.015708 -0.002097 0.000000 0.000000 0.000000
# 3 -0.002097 -0.002097 0.014937 0.000000 0.000000 0.000000
# 4 0.000000 0.000000 0.000000 0.044514 0.000000 0.000000
# 5 0.000000 0.000000 0.000000 0.000000 0.044514 0.000000
# 6 0.000000 0.000000 0.000000 0.000000 0.000000 0.066823
#
#
# Mechanical properties :
#
#
# Convention : Reuss Voigt Hill
#
# Bulk Modulus (GPa) = 21.16804 22.06592 21.61698
# Shear Modulus (GPa) = 23.03486 26.34800 24.69143
#
# Velocity S-wave (km/s) = 3.11201 3.32829 3.22196
# Velocity P-wave (km/s) = 4.67038 4.90380 4.78851
#
# Compressibility (1/GPa) = 0.04724103
#
# Stress axis : x y z
#
# Youngs Moduli (GPa) = 63.66196 63.66196 66.94867
#
# Poissons Ratio (x) = -0.29523 0.14037
# Poissons Ratio (y) = -0.29523 0.14037
# Poissons Ratio (z) = 0.13348 0.13348
#
# Static dielectric constant tensor:
#      x y z
#    x 2.102500 0.000000 0.000000 
#    y 0.000000 2.102500 0.000000 
#    z 0.000000 0.000000 1.927630 
# 
# From -- ./inp_files/4167.got.cif
#   From: 2010.05.17/outbox.cif.g08.bks.cpg/sg122_3_cif.got.tgz:4167.got - 2010.05.20 11:37:33.
