data_PCOD9560318
_publ_section_title
;
Structure prediction by ZEFSAII (Michael W. Deem and Ramdas Pophale) SiO2 
 PCOD9560318
Probable space group: I -4 2 M
;
_chemical_formula_sum "Si O2"
_cell_formula_units_Z 56
_cell_length_a 16.340946
_cell_length_b 16.340946
_cell_length_c 9.948606
_cell_angle_alpha 90.000000
_cell_angle_beta 90.000000
_cell_angle_gamma 90.000000
_cell_volume 2656.541601
_symmetry_space_group_name_H-M "I -4 2 M"
_symmetry_group_IT_number 121
_symmetry_cell_setting 'tetragonal'
loop_
_space_group_symop_operation_xyz
x,y,z
y,-x,-z
-x,-y,z
-y,x,-z
x,-y,-z
-x,y,-z
-y,-x,z
y,x,z
1/2+x,1/2+y,1/2+z
1/2+y,1/2-x,1/2-z
1/2-x,1/2-y,1/2+z
1/2-y,1/2+x,1/2-z
1/2+x,1/2-y,1/2-z
1/2-x,1/2+y,1/2-z
1/2-y,1/2-x,1/2+z
1/2+y,1/2+x,1/2+z
loop_
_atom_site_type_symbol
_atom_site_label
_atom_site_fract_x
_atom_site_fract_y
_atom_site_fract_z
Si Si1 0.131728 0.000000 0.500000
Si Si2 0.678988 0.187127 0.417580
Si Si3 0.253295 0.886732 0.176913
Si Si4 0.185984 0.057209 0.218495
O O1 0.180943 0.960141 0.621853
O O2 0.071141 0.928860 0.443924
O O3 0.762248 0.237753 0.444432
O O4 0.703979 0.112653 0.322721
O O5 0.633414 0.182196 0.559285
O O6 0.621492 0.245065 0.325363
O O7 0.186162 0.813839 0.175722
O O8 0.206700 0.970889 0.152580
O O9 0.100071 0.100071 0.181392
#
# Coordination Sequence:
#
# PCOD9560318 Si02
#       4
#     8  16  16  16
#     4   9  18  30  48  80 118 153 186 234 298 355
#     4   9  20  35  53  80 112 150 197 241 290 351
#     4  10  20  35  56  81 113 154 195 244 295 351
#     4  10  20  34  55  82 115 151 195 245 296 353
#
# _framework density 21.08004
#
# number of rings (size 3 to 8) (size 9 to 14) (size 15 to 20)
#    0.000    2.429    0.000    1.714    4.000    1.714 
#    0.000    1.429    0.000   11.143    0.000    4.000 
#    0.000    0.000    0.000    0.000    0.000    0.000 
#
# Total GULP energy -156208.235499 kJ/mol
# GULP energy per Si atom -5578.865554 kJ/mol
# Density = 2.103206 g / cm^3
# Si number density = 21.080040 Si / 1000 Ang^3
#
#
#
# Elastic Constant Matrix: (Units=GPa)
#
#
# Indices 1 2 3 4 5 6 
#
# 1 43.4690 27.0625 24.1078 0.0000 0.0000 0.0000
# 2 27.0625 43.4680 24.1087 0.0000 0.0000 0.0000
# 3 24.1078 24.1087 76.0227 0.0000 0.0000 0.0000
# 4 0.0000 0.0000 0.0000 27.1130 0.0000 0.0000
# 5 0.0000 0.0000 0.0000 0.0000 27.1131 0.0000
# 6 0.0000 0.0000 0.0000 0.0000 0.0000 22.2155
#
#
#
# Elastic Compliance Matrix: (Units=1/GPa)
#
#
# Indices 1 2 3 4 5 6 
#
# 1 0.039527 -0.021425 -0.005740 0.000000 0.000000 0.000000
# 2 -0.021425 0.039529 -0.005741 0.000000 0.000000 0.000000
# 3 -0.005740 -0.005741 0.016795 0.000000 0.000000 0.000000
# 4 0.000000 0.000000 0.000000 0.036883 0.000000 0.000000
# 5 0.000000 0.000000 0.000000 0.000000 0.036883 0.000000
# 6 0.000000 0.000000 0.000000 0.000000 0.000000 0.045014
#
#
# Mechanical properties :
#
#
# Convention : Reuss Voigt Hill
#
# Bulk Modulus (GPa) = 33.29179 34.83530 34.06354
# Shear Modulus (GPa) = 17.21434 21.13371 19.17403
#
# Velocity S-wave (km/s) = 2.86075 3.16974 3.01920
# Velocity P-wave (km/s) = 5.17100 5.47334 5.32431
#
# Compressibility (1/GPa) = 0.03003744
#
# Stress axis : x y z
#
# Youngs Moduli (GPa) = 25.29911 25.29799 59.54177
#
# Poissons Ratio (x) = 0.54202 0.34177
# Poissons Ratio (y) = 0.54204 0.34185
# Poissons Ratio (z) = 0.14522 0.14524
#
# Static dielectric constant tensor:
#      x y z
#    x 1.761090 0.000000 0.000000 
#    y 0.000000 1.761090 0.000000 
#    z 0.000000 0.000000 1.836630 
# 
# From -- ./inp_files/2742.got.cif
#   From: 2010.05.17/outbox.cif.g08.bks.cpg/sg121_2_cif.got.tgz:2742.got - 2010.05.20 11:32:06.
