data_PCOD9560194
_publ_section_title
;
Structure prediction by ZEFSAII (Michael W. Deem and Ramdas Pophale) SiO2 
 PCOD9560194
Probable space group: I -4 2 M
;
_chemical_formula_sum "Si O2"
_cell_formula_units_Z 112
_cell_length_a 20.332092
_cell_length_b 20.332092
_cell_length_c 17.536057
_cell_angle_alpha 90.000000
_cell_angle_beta 90.000000
_cell_angle_gamma 90.000000
_cell_volume 7249.300135
_symmetry_space_group_name_H-M "I -4 2 M"
_symmetry_group_IT_number 121
_symmetry_cell_setting 'tetragonal'
loop_
_space_group_symop_operation_xyz
x,y,z
y,-x,-z
-x,-y,z
-y,x,-z
x,-y,-z
-x,y,-z
-y,-x,z
y,x,z
1/2+x,1/2+y,1/2+z
1/2+y,1/2-x,1/2-z
1/2-x,1/2-y,1/2+z
1/2-y,1/2+x,1/2-z
1/2+x,1/2-y,1/2-z
1/2-x,1/2+y,1/2-z
1/2-y,1/2-x,1/2+z
1/2+y,1/2+x,1/2+z
loop_
_atom_site_type_symbol
_atom_site_label
_atom_site_fract_x
_atom_site_fract_y
_atom_site_fract_z
Si Si1 0.232097 0.880340 0.323440
Si Si2 0.368768 0.741720 0.525704
Si Si3 0.074907 0.186888 0.515487
Si Si4 0.274039 0.160856 0.411151
Si Si5 0.934708 0.174551 0.170696
Si Si6 0.694327 0.582325 0.628665
Si Si7 0.167863 0.281033 0.235774
O O1 0.178804 0.821197 0.326730
O O2 0.223743 0.916917 0.403394
O O3 0.210314 0.923813 0.251386
O O4 0.301026 0.844526 0.305586
O O5 0.308286 0.691715 0.510582
O O6 0.335117 0.812060 0.539399
O O7 0.401523 0.718180 0.604197
O O8 0.415563 0.729966 0.453745
O O9 0.123999 0.123999 0.515787
O O10 0.100999 0.236792 0.450830
O O11 0.000000 0.167819 0.500000
O O12 0.220201 0.220201 0.410141
O O13 0.294102 0.150014 0.323631
O O14 0.893668 0.106333 0.172353
O O15 0.010810 0.168417 0.150594
O O16 0.633677 0.633677 0.627681
O O17 0.747253 0.609408 0.689251
O O18 0.226295 0.226295 0.236782
#
# Coordination Sequence:
#
# PCOD9560194 Si02
#       7
#    16  16  16  16  16  16  16
#     4   9  17  32  49  66  89 125 164 205 254 288
#     4   9  16  30  48  67  90 122 159 199 245 285
#     4  10  21  33  48  70 100 136 171 202 236 284
#     4   9  16  29  49  69  90 119 157 206 257 291
#     4  10  19  31  47  66  98 135 163 187 227 289
#     4  10  20  29  44  70  98 127 162 199 231 276
#     4   9  16  29  49  70  91 118 158 209 256 287
#
# _framework density 15.449768000000001
#
# number of rings (size 3 to 8) (size 9 to 14) (size 15 to 20)
#    0.000    2.571    1.429    1.286    2.000    3.857 
#    0.000    0.000    0.000    5.143    0.000    0.000 
#    0.000   14.286    0.000    0.000    0.000    0.000 
#
# Total GULP energy -311871.535828 kJ/mol
# GULP energy per Si atom -5569.134568 kJ/mol
# Density = 1.541460 g / cm^3
# Si number density = 15.449768 Si / 1000 Ang^3
#
#
#
# Elastic Constant Matrix: (Units=GPa)
#
#
# Indices 1 2 3 4 5 6 
#
# 1 46.8484 49.7148 34.9332 0.0000 0.0000 0.0000
# 2 49.7148 46.8505 34.9341 0.0000 0.0000 0.0000
# 3 34.9332 34.9341 87.2105 0.0000 0.0000 0.0000
# 4 0.0000 0.0000 0.0000 12.9626 0.0000 0.0000
# 5 0.0000 0.0000 0.0000 0.0000 12.9618 0.0000
# 6 0.0000 0.0000 0.0000 0.0000 0.0000 9.4495
#
#
#
# Elastic Compliance Matrix: (Units=1/GPa)
#
#
# Indices 1 2 3 4 5 6 
#
# 1 -0.167212 0.181791 -0.005841 0.000000 0.000000 0.000000
# 2 0.181791 -0.167205 -0.005841 0.000000 0.000000 0.000000
# 3 -0.005841 -0.005841 0.016146 0.000000 0.000000 0.000000
# 4 0.000000 0.000000 0.000000 0.077145 0.000000 0.000000
# 5 0.000000 0.000000 0.000000 0.000000 0.077150 0.000000
# 6 0.000000 0.000000 0.000000 0.000000 0.000000 0.105826
#
#
# Mechanical properties :
#
#
# Convention : Reuss Voigt Hill
#
# Bulk Modulus (GPa) = 45.56698 46.67483 46.12091
# Shear Modulus (GPa) = -12.78603 11.16325 -0.81139
#
# Velocity S-wave (km/s) = -2.87990 2.69095 -0.72548
# Velocity P-wave (km/s) = 4.30107 6.31912 5.40511
#
# Compressibility (1/GPa) = 0.02194572
#
# Stress axis : x y z
#
# Youngs Moduli (GPa) = -5.98043 -5.98068 61.93487
#
# Poissons Ratio (x) = 1.08723 0.36178
# Poissons Ratio (y) = 1.08719 0.36175
# Poissons Ratio (z) = -0.03493 -0.03493
#
# Static dielectric constant tensor:
#      x y z
#    x 1.501750 0.000000 0.000000 
#    y 0.000000 1.501750 0.000000 
#    z 0.000000 0.000000 1.539800 
# 
# From -- ./inp_files/5593.got.cif
#   From: 2010.05.17/outbox.cif.g08.bks.cpg/sg121_3_cif.got.tgz:5593.got - 2010.05.20 11:32:06.
