data_PCOD9560735
_publ_section_title
;
Structure prediction by ZEFSAII (Michael W. Deem and Ramdas Pophale) SiO2 
 PCOD9560735
Probable space group: I -4 2 D
;
_chemical_formula_sum "Si O2"
_cell_formula_units_Z 80
_cell_length_a 22.050472
_cell_length_b 22.050472
_cell_length_c 8.684584
_cell_angle_alpha 90.000000
_cell_angle_beta 90.000000
_cell_angle_gamma 90.000000
_cell_volume 4222.647226
_symmetry_space_group_name_H-M "I -4 2 D"
_symmetry_group_IT_number 122
_symmetry_cell_setting 'tetragonal'
loop_
_space_group_symop_operation_xyz
x,y,z
y,-x,-z
-x,-y,z
-y,x,-z
x,1/2-y,1/4-z
-x,1/2+y,1/4-z
-y,1/2-x,1/4+z
y,1/2+x,1/4+z
1/2+x,1/2+y,1/2+z
1/2+y,1/2-x,1/2-z
1/2-x,1/2-y,1/2+z
1/2-y,1/2+x,1/2-z
1/2+x,-y,3/4-z
1/2-x,y,3/4-z
1/2-y,-x,3/4+z
1/2+y,x,3/4+z
loop_
_atom_site_type_symbol
_atom_site_label
_atom_site_fract_x
_atom_site_fract_y
_atom_site_fract_z
Si Si1 0.190175 0.038829 0.777697
Si Si2 0.142268 0.589870 0.541381
Si Si3 0.299968 0.126909 0.251586
Si Si4 0.549991 0.084423 0.768888
Si Si5 0.338148 0.250000 0.625000
Si Si6 0.250000 0.245751 0.375000
O O1 0.250000 0.022275 0.875000
O O2 0.205055 0.091763 0.657166
O O3 0.138892 0.058045 0.899831
O O4 0.163831 0.979415 0.689430
O O5 0.124934 0.631328 0.686176
O O6 0.085904 0.592843 0.425913
O O7 0.197437 0.623501 0.453950
O O8 0.250000 0.101480 0.375000
O O9 0.282966 0.198220 0.258133
O O10 0.478705 0.075120 0.799104
O O11 0.298204 0.277754 0.484192
#
# Coordination Sequence:
#
# PCOD9560735 Si02
#       6
#    16  16  16  16   8   8
#     4  11  21  34  61  86 107 152 195 237 294 340
#     4  10  20  37  57  80 118 141 188 250 285 339
#     4   9  20  37  52  77 113 148 182 228 285 349
#     4   9  20  37  56  82 110 146 191 234 281 345
#     4  10  18  36  52  80 110 148 182 236 282 336
#     4   8  20  34  56  70 110 148 180 222 276 348
#
# _framework density 18.945461000000002
#
# number of rings (size 3 to 8) (size 9 to 14) (size 15 to 20)
#    0.600    1.800    1.000    1.200    0.000    3.200 
#    0.000    0.000    8.800    0.000    0.000    0.000 
#    0.000    0.000    0.000    0.000    0.000    0.000 
#
# Total GULP energy -222823.396922 kJ/mol
# GULP energy per Si atom -5570.584923 kJ/mol
# Density = 1.890234 g / cm^3
# Si number density = 18.945461 Si / 1000 Ang^3
#
#
#
# Elastic Constant Matrix: (Units=GPa)
#
#
# Indices 1 2 3 4 5 6 
#
# 1 47.1946 6.2429 20.6480 0.0000 0.0000 0.0000
# 2 6.2429 47.1946 20.6480 0.0000 0.0000 0.0000
# 3 20.6480 20.6480 34.1962 0.0000 0.0000 0.0000
# 4 0.0000 0.0000 0.0000 28.7581 0.0000 0.0000
# 5 0.0000 0.0000 0.0000 0.0000 28.7581 0.0000
# 6 0.0000 0.0000 0.0000 0.0000 0.0000 14.9133
#
#
#
# Elastic Compliance Matrix: (Units=1/GPa)
#
#
# Indices 1 2 3 4 5 6 
#
# 1 0.029752 0.005333 -0.021184 0.000000 0.000000 0.000000
# 2 0.005333 0.029752 -0.021184 0.000000 0.000000 0.000000
# 3 -0.021184 -0.021184 0.054826 0.000000 0.000000 0.000000
# 4 0.000000 0.000000 0.000000 0.034773 0.000000 0.000000
# 5 0.000000 0.000000 0.000000 0.000000 0.034773 0.000000
# 6 0.000000 0.000000 0.000000 0.000000 0.000000 0.067054
#
#
# Mechanical properties :
#
#
# Convention : Reuss Voigt Hill
#
# Bulk Modulus (GPa) = 24.84023 24.85144 24.84584
# Shear Modulus (GPa) = 14.77456 19.88902 17.33179
#
# Velocity S-wave (km/s) = 2.79560 3.24358 3.02789
# Velocity P-wave (km/s) = 4.85391 5.21283 5.03657
#
# Compressibility (1/GPa) = 0.04025727
#
# Stress axis : x y z
#
# Youngs Moduli (GPa) = 33.61145 33.61145 18.23966
#
# Poissons Ratio (x) = -0.17924 0.38639
# Poissons Ratio (y) = -0.17924 0.38639
# Poissons Ratio (z) = 0.71204 0.71204
#
# Static dielectric constant tensor:
#      x y z
#    x 1.692180 0.000000 0.000000 
#    y 0.000000 1.692180 0.000000 
#    z 0.000000 0.000000 1.656830 
# 
# From -- ./inp_files/2844.got.cif
#   From: 2010.05.17/outbox.cif.g08.bks.cpg/sg122_2_cif.got.tgz:2844.got - 2010.05.20 11:37:33.
