data_PCOD9560702
_publ_section_title
;
Structure prediction by ZEFSAII (Michael W. Deem and Ramdas Pophale) SiO2 
 PCOD9560702
Probable space group: I -4 2 D
;
_chemical_formula_sum "Si O2"
_cell_formula_units_Z 96
_cell_length_a 15.032687
_cell_length_b 15.032687
_cell_length_c 18.045611
_cell_angle_alpha 90.000000
_cell_angle_beta 90.000000
_cell_angle_gamma 90.000000
_cell_volume 4077.977462
_symmetry_space_group_name_H-M "I -4 2 D"
_symmetry_group_IT_number 122
_symmetry_cell_setting 'tetragonal'
loop_
_space_group_symop_operation_xyz
x,y,z
y,-x,-z
-x,-y,z
-y,x,-z
x,1/2-y,1/4-z
-x,1/2+y,1/4-z
-y,1/2-x,1/4+z
y,1/2+x,1/4+z
1/2+x,1/2+y,1/2+z
1/2+y,1/2-x,1/2-z
1/2-x,1/2-y,1/2+z
1/2-y,1/2+x,1/2-z
1/2+x,-y,3/4-z
1/2-x,y,3/4-z
1/2-y,-x,3/4+z
1/2+y,x,3/4+z
loop_
_atom_site_type_symbol
_atom_site_label
_atom_site_fract_x
_atom_site_fract_y
_atom_site_fract_z
Si Si1 0.831500 0.264769 0.236061
Si Si2 0.219018 0.896085 0.632571
Si Si3 0.638245 0.750000 0.625000
Si Si4 0.887938 0.402953 0.754787
Si Si5 0.838779 0.443691 0.018024
Si Si6 0.250000 0.559874 0.875000
Si Si7 0.336312 0.502820 0.273103
O O1 0.782020 0.324361 0.174317
O O2 0.800554 0.305959 0.312965
O O3 0.807396 0.160550 0.239481
O O4 0.937083 0.250761 0.223008
O O5 0.150665 0.860051 0.570489
O O6 0.285226 0.966909 0.591533
O O7 0.165311 0.947958 0.695043
O O8 0.576276 0.677406 0.665093
O O9 0.881700 0.508908 0.737939
O O10 0.830449 0.390555 0.830028
O O11 0.941548 0.423336 0.028744
O O12 0.803429 0.487503 0.942792
#
# Coordination Sequence:
#
# PCOD9560702 Si02
#       7
#    16  16   8  16  16   8  16
#     4   9  19  32  52  83 109 136 182 241 274 316
#     4  10  18  34  57  80 107 145 187 219 281 346
#     4  10  17  32  52  75 108 144 180 214 280 345
#     4  10  22  40  57  80 119 154 185 235 288 341
#     4   9  18  32  53  79 113 135 183 242 270 314
#     4  10  19  36  56  83 106 148 192 224 282 345
#     4   9  19  31  52  79 111 144 171 233 284 323
#
# _framework density 23.541080000000001
#
# number of rings (size 3 to 8) (size 9 to 14) (size 15 to 20)
#    1.000    1.500    0.000    3.000    0.000    0.000 
#    6.000    5.000    0.000   19.000    0.000    0.000 
#    0.000    0.000    0.000    0.000    0.000    0.000 
#
# Total GULP energy -267301.473513 kJ/mol
# GULP energy per Si atom -5568.780698 kJ/mol
# Density = 2.348750 g / cm^3
# Si number density = 23.541080 Si / 1000 Ang^3
#
#
#
# Elastic Constant Matrix: (Units=GPa)
#
#
# Indices 1 2 3 4 5 6 
#
# 1 71.4812 18.8216 22.4720 0.0000 0.0000 0.0000
# 2 18.8216 71.4812 22.4720 0.0000 0.0000 0.0000
# 3 22.4720 22.4720 137.8631 0.0000 0.0000 0.0000
# 4 0.0000 0.0000 0.0000 21.7931 0.0000 0.0000
# 5 0.0000 0.0000 0.0000 0.0000 21.7931 0.0000
# 6 0.0000 0.0000 0.0000 0.0000 0.0000 256.9403
#
#
#
# Elastic Compliance Matrix: (Units=1/GPa)
#
#
# Indices 1 2 3 4 5 6 
#
# 1 0.015521 -0.003469 -0.001964 0.000000 0.000000 0.000000
# 2 -0.003469 0.015521 -0.001964 0.000000 0.000000 0.000000
# 3 -0.001964 -0.001964 0.007894 0.000000 0.000000 0.000000
# 4 0.000000 0.000000 0.000000 0.045886 0.000000 0.000000
# 5 0.000000 0.000000 0.000000 0.000000 0.045886 0.000000
# 6 0.000000 0.000000 0.000000 0.000000 0.000000 0.003892
#
#
# Mechanical properties :
#
#
# Convention : Reuss Voigt Hill
#
# Bulk Modulus (GPa) = 41.42609 45.37295 43.39952
# Shear Modulus (GPa) = 31.75775 74.57597 53.16686
#
# Velocity S-wave (km/s) = 3.67691 5.63452 4.75749
# Velocity P-wave (km/s) = 5.97175 7.85151 6.97524
#
# Compressibility (1/GPa) = 0.02413938
#
# Stress axis : x y z
#
# Youngs Moduli (GPa) = 64.42998 64.42998 126.67872
#
# Poissons Ratio (x) = 0.22352 0.24885
# Poissons Ratio (y) = 0.22352 0.24885
# Poissons Ratio (z) = 0.12657 0.12657
#
# Static dielectric constant tensor:
#      x y z
#    x 1.988720 0.000000 0.000000 
#    y 0.000000 1.988720 0.000000 
#    z 0.000000 0.000000 1.581600 
# 
# From -- ./inp_files/6341.got.cif
#   From: 2010.05.17/outbox.cif.g08.bks.cpg/sg122_4_cif.got.tgz:6341.got - 2010.05.20 11:37:33.
