data_PCOD9560514
_publ_section_title
;
Structure prediction by ZEFSAII (Michael W. Deem and Ramdas Pophale) SiO2 
 PCOD9560514
Probable space group: I -4 2 M
;
_chemical_formula_sum "Si O2"
_cell_formula_units_Z 64
_cell_length_a 19.107576
_cell_length_b 19.107576
_cell_length_c 8.253145
_cell_angle_alpha 90.000000
_cell_angle_beta 90.000000
_cell_angle_gamma 90.000000
_cell_volume 3013.218788
_symmetry_space_group_name_H-M "I -4 2 M"
_symmetry_group_IT_number 121
_symmetry_cell_setting 'tetragonal'
loop_
_space_group_symop_operation_xyz
x,y,z
y,-x,-z
-x,-y,z
-y,x,-z
x,-y,-z
-x,y,-z
-y,-x,z
y,x,z
1/2+x,1/2+y,1/2+z
1/2+y,1/2-x,1/2-z
1/2-x,1/2-y,1/2+z
1/2-y,1/2+x,1/2-z
1/2+x,1/2-y,1/2-z
1/2-x,1/2+y,1/2-z
1/2-y,1/2-x,1/2+z
1/2+y,1/2+x,1/2+z
loop_
_atom_site_type_symbol
_atom_site_label
_atom_site_fract_x
_atom_site_fract_y
_atom_site_fract_z
Si Si1 0.829793 0.829793 0.726492
Si Si2 0.762319 0.762319 0.408305
Si Si3 0.128852 0.426555 0.411219
Si Si4 0.603237 0.798446 0.729243
Si Si5 0.971462 0.246273 0.316570
O O1 0.788690 0.788690 0.582214
O O2 0.797164 0.797164 0.890558
O O3 0.810108 0.910756 0.705338
O O4 0.829695 0.732558 0.314523
O O5 0.105333 0.500000 0.500000
O O6 0.171991 0.387514 0.551044
O O7 0.078904 0.367208 0.336051
O O8 0.182255 0.441635 0.263663
O O9 0.543554 0.739801 0.718514
O O10 0.000000 0.249990 0.500000
#
# Coordination Sequence:
#
# PCOD9560514 Si02
#       5
#     8   8  16  16  16
#     4  12  24  38  64  96 126 175 218 276 333 387
#     4  12  22  36  66  94 124 163 226 272 329 381
#     4  10  22  38  64  94 130 173 213 263 329 402
#     4  11  21  38  61  95 131 171 218 274 326 392
#     4  11  22  39  61  93 134 168 215 269 331 388
#
# _framework density 21.239744999999999
#
# number of rings (size 3 to 8) (size 9 to 14) (size 15 to 20)
#    0.000    1.000    5.000    3.000    0.000    0.000 
#    0.000    0.000    0.000   51.375    0.000    0.000 
#    0.000   10.000    0.000    0.000    0.000    0.000 
#
# Total GULP energy -178414.016125 kJ/mol
# GULP energy per Si atom -5575.438004 kJ/mol
# Density = 2.119140 g / cm^3
# Si number density = 21.239745 Si / 1000 Ang^3
#
#
#
# Elastic Constant Matrix: (Units=GPa)
#
#
# Indices 1 2 3 4 5 6 
#
# 1 94.5844 70.5188 26.7186 0.0000 0.0000 0.0000
# 2 70.5188 94.5844 26.7186 0.0000 0.0000 0.0000
# 3 26.7186 26.7186 82.4284 0.0000 0.0000 0.0000
# 4 0.0000 0.0000 0.0000 27.5255 0.0000 0.0000
# 5 0.0000 0.0000 0.0000 0.0000 27.5255 0.0000
# 6 0.0000 0.0000 0.0000 0.0000 0.0000 35.5417
#
#
#
# Elastic Compliance Matrix: (Units=1/GPa)
#
#
# Indices 1 2 3 4 5 6 
#
# 1 0.024160 -0.017393 -0.002193 0.000000 0.000000 0.000000
# 2 -0.017393 0.024160 -0.002193 0.000000 0.000000 0.000000
# 3 -0.002193 -0.002193 0.013554 0.000000 0.000000 0.000000
# 4 0.000000 0.000000 0.000000 0.036330 0.000000 0.000000
# 5 0.000000 0.000000 0.000000 0.000000 0.036330 0.000000
# 6 0.000000 0.000000 0.000000 0.000000 0.000000 0.028136
#
#
# Mechanical properties :
#
#
# Convention : Reuss Voigt Hill
#
# Bulk Modulus (GPa) = 54.60426 57.72324 56.16375
# Shear Modulus (GPa) = 23.54786 27.96131 25.75458
#
# Velocity S-wave (km/s) = 3.33328 3.63224 3.48597
# Velocity P-wave (km/s) = 6.37014 6.69529 6.53474
#
# Compressibility (1/GPa) = 0.01831359
#
# Stress axis : x y z
#
# Youngs Moduli (GPa) = 41.39098 41.39098 73.78073
#
# Poissons Ratio (x) = 0.71992 0.16183
# Poissons Ratio (y) = 0.71992 0.16183
# Poissons Ratio (z) = 0.09079 0.09079
#
# Static dielectric constant tensor:
#      x y z
#    x 1.807140 0.000000 0.000000 
#    y 0.000000 1.807140 0.000000 
#    z 0.000000 0.000000 1.887130 
# 
# From -- ./inp_files/1633.got.cif
#   From: 2010.05.17/outbox.cif.g08.bks.cpg/sg121_1_cif.got.tgz:1633.got - 2010.05.20 11:32:06.
