data_PCOD9560587
_publ_section_title
;
Structure prediction by ZEFSAII (Michael W. Deem and Ramdas Pophale) SiO2 
 PCOD9560587
Probable space group: I -4 2 M
;
_chemical_formula_sum "Si O2"
_cell_formula_units_Z 96
_cell_length_a 15.536698
_cell_length_b 15.536698
_cell_length_c 23.893733
_cell_angle_alpha 90.000000
_cell_angle_beta 90.000000
_cell_angle_gamma 90.000000
_cell_volume 5767.683951
_symmetry_space_group_name_H-M "I -4 2 M"
_symmetry_group_IT_number 121
_symmetry_cell_setting 'tetragonal'
loop_
_space_group_symop_operation_xyz
x,y,z
y,-x,-z
-x,-y,z
-y,x,-z
x,-y,-z
-x,y,-z
-y,-x,z
y,x,z
1/2+x,1/2+y,1/2+z
1/2+y,1/2-x,1/2-z
1/2-x,1/2-y,1/2+z
1/2-y,1/2+x,1/2-z
1/2+x,1/2-y,1/2-z
1/2-x,1/2+y,1/2-z
1/2-y,1/2-x,1/2+z
1/2+y,1/2+x,1/2+z
loop_
_atom_site_type_symbol
_atom_site_label
_atom_site_fract_x
_atom_site_fract_y
_atom_site_fract_z
Si Si1 0.220355 0.636001 0.150341
Si Si2 0.727583 0.415568 0.601484
Si Si3 0.286719 0.860251 0.986683
Si Si4 0.562671 0.869434 0.744044
Si Si5 0.101258 0.248336 0.139963
Si Si6 0.584358 0.269644 0.032954
O O1 0.299834 0.700167 0.161361
O O2 0.141625 0.697626 0.130492
O O3 0.192456 0.584853 0.204472
O O4 0.246106 0.575724 0.098219
O O5 0.642494 0.357507 0.601667
O O6 0.759440 0.424291 0.536950
O O7 0.711182 0.504702 0.632946
O O8 0.213315 0.786686 0.990868
O O9 0.288300 0.885102 0.921956
O O10 0.375103 0.814648 0.003970
O O11 0.460864 0.890282 0.744966
O O12 0.595208 0.820955 0.688022
O O13 0.175336 0.175336 0.149510
O O14 0.655334 0.344667 0.029923
O O15 0.500000 0.295377 0.000000
#
# Coordination Sequence:
#
# PCOD9560587 Si02
#       6
#    16  16  16  16  16  16
#     4   9  18  36  57  75 102 144 181 212 271 332
#     4   9  17  34  56  77 108 139 170 214 266 325
#     4   8  17  32  51  78 107 135 168 210 262 321
#     4  11  23  37  53  76 108 142 185 235 269 305
#     4  11  21  34  55  81 108 140 178 218 266 322
#     4   9  18  32  54  80 105 138 177 221 271 328
#
# _framework density 16.644462999999998
#
# number of rings (size 3 to 8) (size 9 to 14) (size 15 to 20)
#    0.000    2.500    1.667    3.000    2.333    0.500 
#    0.000    0.000    0.000    5.000    0.000    2.333 
#    0.000    0.000    0.000    0.000    0.000    0.000 
#
# Total GULP energy -267209.574729 kJ/mol
# GULP energy per Si atom -5566.866140 kJ/mol
# Density = 1.660658 g / cm^3
# Si number density = 16.644463 Si / 1000 Ang^3
#
#
#
# Elastic Constant Matrix: (Units=GPa)
#
#
# Indices 1 2 3 4 5 6 
#
# 1 53.9788 12.6477 41.5184 0.0000 0.0000 0.0000
# 2 12.6477 53.9786 41.5184 0.0000 0.0000 0.0000
# 3 41.5184 41.5184 101.5506 0.0000 0.0000 0.0000
# 4 0.0000 0.0000 0.0000 30.2330 0.0000 0.0000
# 5 0.0000 0.0000 0.0000 0.0000 30.2330 0.0000
# 6 0.0000 0.0000 0.0000 0.0000 0.0000 14.3824
#
#
#
# Elastic Compliance Matrix: (Units=1/GPa)
#
#
# Indices 1 2 3 4 5 6 
#
# 1 0.027399 0.003204 -0.012512 0.000000 0.000000 0.000000
# 2 0.003204 0.027399 -0.012512 0.000000 0.000000 0.000000
# 3 -0.012512 -0.012512 0.020078 0.000000 0.000000 0.000000
# 4 0.000000 0.000000 0.000000 0.033076 0.000000 0.000000
# 5 0.000000 0.000000 0.000000 0.000000 0.033076 0.000000
# 6 0.000000 0.000000 0.000000 0.000000 0.000000 0.069529
#
#
# Mechanical properties :
#
#
# Convention : Reuss Voigt Hill
#
# Bulk Modulus (GPa) = 32.01419 44.54191 38.27805
# Shear Modulus (GPa) = 18.89584 22.55792 20.72688
#
# Velocity S-wave (km/s) = 3.37302 3.68541 3.53267
# Velocity P-wave (km/s) = 5.86904 6.70287 6.29977
#
# Compressibility (1/GPa) = 0.03123615
#
# Stress axis : x y z
#
# Youngs Moduli (GPa) = 36.49829 36.49813 49.80596
#
# Poissons Ratio (x) = -0.11693 0.62315
# Poissons Ratio (y) = -0.11693 0.62315
# Poissons Ratio (z) = 0.45665 0.45665
#
# Static dielectric constant tensor:
#      x y z
#    x 1.555810 0.000000 0.000000 
#    y 0.000000 1.555810 0.000000 
#    z 0.000000 0.000000 1.572020 
# 
# From -- ./inp_files/6404.got.cif
#   From: 2010.05.17/outbox.cif.g08.bks.cpg/sg121_4_cif.got.tgz:6404.got - 2010.05.20 11:32:06.
