data_PCOD9560688
_publ_section_title
;
Structure prediction by ZEFSAII (Michael W. Deem and Ramdas Pophale) SiO2 
 PCOD9560688
Probable space group: I -4 2 D
;
_chemical_formula_sum "Si O2"
_cell_formula_units_Z 104
_cell_length_a 18.532635
_cell_length_b 18.532635
_cell_length_c 15.367708
_cell_angle_alpha 90.000000
_cell_angle_beta 90.000000
_cell_angle_gamma 90.000000
_cell_volume 5278.170861
_symmetry_space_group_name_H-M "I -4 2 D"
_symmetry_group_IT_number 122
_symmetry_cell_setting 'tetragonal'
loop_
_space_group_symop_operation_xyz
x,y,z
y,-x,-z
-x,-y,z
-y,x,-z
x,1/2-y,1/4-z
-x,1/2+y,1/4-z
-y,1/2-x,1/4+z
y,1/2+x,1/4+z
1/2+x,1/2+y,1/2+z
1/2+y,1/2-x,1/2-z
1/2-x,1/2-y,1/2+z
1/2-y,1/2+x,1/2-z
1/2+x,-y,3/4-z
1/2-x,y,3/4-z
1/2-y,-x,3/4+z
1/2+y,x,3/4+z
loop_
_atom_site_type_symbol
_atom_site_label
_atom_site_fract_x
_atom_site_fract_y
_atom_site_fract_z
Si Si1 0.366511 0.505964 0.279602
Si Si2 0.439138 0.380824 0.394464
Si Si3 0.356624 0.568385 0.893558
Si Si4 0.414931 0.778495 0.400544
Si Si5 0.500000 0.500000 0.149317
Si Si6 0.888295 0.381228 0.336907
Si Si7 0.033046 0.262181 0.482538
O O1 0.398462 0.446271 0.346606
O O2 0.299996 0.471810 0.226461
O O3 0.431667 0.519596 0.211084
O O4 0.349012 0.576421 0.335707
O O5 0.416245 0.374542 0.493734
O O6 0.525792 0.391379 0.392619
O O7 0.425117 0.308300 0.339708
O O8 0.368463 0.649744 0.860972
O O9 0.432164 0.528293 0.904477
O O10 0.315299 0.526831 0.815405
O O11 0.308682 0.569604 0.979153
O O12 0.374764 0.704061 0.419499
O O13 0.459388 0.762817 0.312446
#
# Coordination Sequence:
#
# PCOD9560688 Si02
#       7
#    16  16  16  16   8  16  16
#     4  11  19  35  61  93 125 155 211 267 324 383
#     4  11  19  35  63  94 120 160 202 268 335 379
#     4  10  21  39  65  87 129 173 212 264 327 385
#     4  10  23  38  61  95 124 165 216 260 322 398
#     4  10  16  32  62  96 114 152 214 268 309 373
#     4  11  21  35  62  92 127 156 207 271 328 376
#     4  10  21  41  61  89 130 169 207 270 325 380
#
# _framework density 19.703796000000001
#
# number of rings (size 3 to 8) (size 9 to 14) (size 15 to 20)
#    0.000    1.538    6.154    0.923    0.000    3.077 
#    0.000    0.769   16.923    0.000    0.000    0.000 
#    0.000    0.000    0.000    0.000    0.000    0.000 
#
# Total GULP energy -290299.620125 kJ/mol
# GULP energy per Si atom -5582.685002 kJ/mol
# Density = 1.965895 g / cm^3
# Si number density = 19.703796 Si / 1000 Ang^3
#
#
#
# Elastic Constant Matrix: (Units=GPa)
#
#
# Indices 1 2 3 4 5 6 
#
# 1 68.0068 6.5609 35.7952 0.0000 0.0000 0.0000
# 2 6.5609 68.0068 35.7952 0.0000 0.0000 0.0000
# 3 35.7952 35.7952 84.3859 0.0000 0.0000 0.0000
# 4 0.0000 0.0000 0.0000 27.3255 0.0000 0.0000
# 5 0.0000 0.0000 0.0000 0.0000 27.3255 0.0000
# 6 0.0000 0.0000 0.0000 0.0000 0.0000 4.8619
#
#
#
# Elastic Compliance Matrix: (Units=1/GPa)
#
#
# Indices 1 2 3 4 5 6 
#
# 1 0.019449 0.003175 -0.009597 0.000000 0.000000 0.000000
# 2 0.003175 0.019449 -0.009597 0.000000 0.000000 0.000000
# 3 -0.009597 -0.009597 0.019992 0.000000 0.000000 0.000000
# 4 0.000000 0.000000 0.000000 0.036596 0.000000 0.000000
# 5 0.000000 0.000000 0.000000 0.000000 0.036596 0.000000
# 6 0.000000 0.000000 0.000000 0.000000 0.000000 0.205683
#
#
# Mechanical properties :
#
#
# Convention : Reuss Voigt Hill
#
# Bulk Modulus (GPa) = 37.23958 41.85578 39.54768
# Shear Modulus (GPa) = 13.20117 21.38577 17.29347
#
# Velocity S-wave (km/s) = 2.59121 3.29806 2.96577
# Velocity P-wave (km/s) = 5.28140 5.98260 5.64290
#
# Compressibility (1/GPa) = 0.02685315
#
# Stress axis : x y z
#
# Youngs Moduli (GPa) = 51.41539 51.41539 50.01985
#
# Poissons Ratio (x) = -0.16324 0.48004
# Poissons Ratio (y) = -0.16324 0.48004
# Poissons Ratio (z) = 0.49343 0.49343
#
# Static dielectric constant tensor:
#      x y z
#    x 1.708370 0.000000 0.000000 
#    y 0.000000 1.708370 0.000000 
#    z 0.000000 0.000000 1.695520 
# 
# From -- ./inp_files/6406.got.cif
#   From: 2010.05.17/outbox.cif.g08.bks.cpg/sg122_4_cif.got.tgz:6406.got - 2010.05.20 11:37:33.
