data_PCOD9560531
_publ_section_title
;
Structure prediction by ZEFSAII (Michael W. Deem and Ramdas Pophale) SiO2 
 PCOD9560531
Probable space group: I -4 2 M
;
_chemical_formula_sum "Si O2"
_cell_formula_units_Z 112
_cell_length_a 19.916328
_cell_length_b 19.916328
_cell_length_c 12.312346
_cell_angle_alpha 90.000000
_cell_angle_beta 90.000000
_cell_angle_gamma 90.000000
_cell_volume 4883.816654
_symmetry_space_group_name_H-M "I -4 2 M"
_symmetry_group_IT_number 121
_symmetry_cell_setting 'tetragonal'
loop_
_space_group_symop_operation_xyz
x,y,z
y,-x,-z
-x,-y,z
-y,x,-z
x,-y,-z
-x,y,-z
-y,-x,z
y,x,z
1/2+x,1/2+y,1/2+z
1/2+y,1/2-x,1/2-z
1/2-x,1/2-y,1/2+z
1/2-y,1/2+x,1/2-z
1/2+x,1/2-y,1/2-z
1/2-x,1/2+y,1/2-z
1/2-y,1/2-x,1/2+z
1/2+y,1/2+x,1/2+z
loop_
_atom_site_type_symbol
_atom_site_label
_atom_site_fract_x
_atom_site_fract_y
_atom_site_fract_z
Si Si1 0.737740 0.844770 0.713620
Si Si2 0.160056 0.056746 0.837559
Si Si3 0.390198 0.140015 0.400491
Si Si4 0.489871 0.105908 0.719213
Si Si5 0.273530 0.623538 0.472294
Si Si6 0.241311 0.066200 0.253600
Si Si7 0.077202 0.268590 0.485779
O O1 0.770752 0.770752 0.711916
O O2 0.791167 0.890628 0.777516
O O3 0.617429 0.733373 0.655552
O O4 0.737129 0.876755 0.592401
O O5 0.084420 0.084420 0.823071
O O6 0.180359 0.069239 0.964017
O O7 0.184850 0.988478 0.782223
O O8 0.465761 0.117726 0.386241
O O9 0.386056 0.200618 0.482218
O O10 0.346122 0.081737 0.450937
O O11 0.358027 0.171261 0.287723
O O12 0.431273 0.050041 0.710771
O O13 0.468303 0.183140 0.748417
O O14 0.305445 0.694556 0.502509
O O15 0.231680 0.096762 0.373194
O O16 0.000000 0.248664 0.500000
#
# Coordination Sequence:
#
# PCOD9560531 Si02
#       7
#    16  16  16  16  16  16  16
#     4  10  22  42  66  93 128 173 228 290 361 420
#     4   9  18  38  67  96 128 174 228 281 347 428
#     4  11  23  43  69  88 131 181 230 295 354 407
#     4  11  23  41  63  90 129 178 238 283 325 411
#     4  10  23  41  66 102 136 173 230 290 360 434
#     4  12  22  41  70  94 139 183 225 288 356 424
#     4  12  25  41  62  94 133 178 232 293 349 425
#
# _framework density 22.932884000000001
#
# number of rings (size 3 to 8) (size 9 to 14) (size 15 to 20)
#    0.000    1.286    5.714    1.714    2.000    2.857 
#    0.000    0.000    0.000    0.429    0.000    2.000 
#    0.000    0.286    0.000    0.000    0.000    0.000 
#
# Total GULP energy -311998.611291 kJ/mol
# GULP energy per Si atom -5571.403773 kJ/mol
# Density = 2.288069 g / cm^3
# Si number density = 22.932884 Si / 1000 Ang^3
#
#
#
# Elastic Constant Matrix: (Units=GPa)
#
#
# Indices 1 2 3 4 5 6 
#
# 1 86.0751 -5.0259 18.9502 0.0000 0.0000 0.0000
# 2 -5.0259 86.0757 18.9509 0.0000 0.0000 0.0000
# 3 18.9502 18.9509 156.9101 0.0000 0.0000 0.0000
# 4 0.0000 0.0000 0.0000 22.4234 0.0000 0.0000
# 5 0.0000 0.0000 0.0000 0.0000 22.4235 0.0000
# 6 0.0000 0.0000 0.0000 0.0000 0.0000 29.6048
#
#
#
# Elastic Compliance Matrix: (Units=1/GPa)
#
#
# Indices 1 2 3 4 5 6 
#
# 1 0.012027 0.001050 -0.001579 0.000000 0.000000 0.000000
# 2 0.001050 0.012027 -0.001579 0.000000 0.000000 0.000000
# 3 -0.001579 -0.001579 0.006755 0.000000 0.000000 0.000000
# 4 0.000000 0.000000 0.000000 0.044596 0.000000 0.000000
# 5 0.000000 0.000000 0.000000 0.000000 0.044596 0.000000
# 6 0.000000 0.000000 0.000000 0.000000 0.000000 0.033778
#
#
# Mechanical properties :
#
#
# Convention : Reuss Voigt Hill
#
# Bulk Modulus (GPa) = 37.60723 43.86794 40.73759
# Shear Modulus (GPa) = 29.96531 34.63605 32.30068
#
# Velocity S-wave (km/s) = 3.61869 3.89050 3.75705
# Velocity P-wave (km/s) = 5.82188 6.27309 6.05169
#
# Compressibility (1/GPa) = 0.02659063
#
# Stress axis : x y z
#
# Youngs Moduli (GPa) = 83.14790 83.14837 148.04830
#
# Poissons Ratio (x) = -0.08730 0.23381
# Poissons Ratio (y) = -0.08730 0.23382
# Poissons Ratio (z) = 0.13131 0.13132
#
# Static dielectric constant tensor:
#      x y z
#    x 1.892020 0.000000 0.000000 
#    y 0.000000 1.892020 0.000000 
#    z 0.000000 0.000000 1.943700 
# 
# From -- ./inp_files/5607.got.cif
#   From: 2010.05.17/outbox.cif.g08.bks.cpg/sg121_3_cif.got.tgz:5607.got - 2010.05.20 11:32:06.
