data_PCOD9560539
_publ_section_title
;
Structure prediction by ZEFSAII (Michael W. Deem and Ramdas Pophale) SiO2 
 PCOD9560539
Probable space group: I -4 2 M
;
_chemical_formula_sum "Si O2"
_cell_formula_units_Z 96
_cell_length_a 16.131533
_cell_length_b 16.131533
_cell_length_c 18.429687
_cell_angle_alpha 90.000000
_cell_angle_beta 90.000000
_cell_angle_gamma 90.000000
_cell_volume 4795.890307
_symmetry_space_group_name_H-M "I -4 2 M"
_symmetry_group_IT_number 121
_symmetry_cell_setting 'tetragonal'
loop_
_space_group_symop_operation_xyz
x,y,z
y,-x,-z
-x,-y,z
-y,x,-z
x,-y,-z
-x,y,-z
-y,-x,z
y,x,z
1/2+x,1/2+y,1/2+z
1/2+y,1/2-x,1/2-z
1/2-x,1/2-y,1/2+z
1/2-y,1/2+x,1/2-z
1/2+x,1/2-y,1/2-z
1/2-x,1/2+y,1/2-z
1/2-y,1/2-x,1/2+z
1/2+y,1/2+x,1/2+z
loop_
_atom_site_type_symbol
_atom_site_label
_atom_site_fract_x
_atom_site_fract_y
_atom_site_fract_z
Si Si1 0.713255 0.847405 0.045802
Si Si2 0.255588 0.029291 0.165851
Si Si3 0.148442 0.288110 0.883944
Si Si4 0.714109 0.575306 0.058107
Si Si5 0.433928 0.566073 0.165252
Si Si6 0.242137 0.451425 0.835808
Si Si7 0.434391 0.434391 0.659888
O O1 0.793552 0.793552 0.068760
O O2 0.695558 0.914221 0.108002
O O3 0.643279 0.778879 0.029675
O O4 0.726850 0.883985 0.965926
O O5 0.265958 0.056509 0.249360
O O6 0.159438 0.040703 0.142930
O O7 0.277887 0.932831 0.164254
O O8 0.219255 0.219255 0.869220
O O9 0.189221 0.377864 0.870454
O O10 0.628900 0.628900 0.072170
O O11 0.767565 0.540892 0.127306
O O12 0.703055 0.500000 0.000000
O O13 0.500000 0.500000 0.135838
O O14 0.447168 0.660350 0.144695
O O15 0.438694 0.561307 0.252275
O O16 0.500000 0.500000 0.629575
#
# Coordination Sequence:
#
# PCOD9560539 Si02
#       7
#    16  16  16  16   8  16   8
#     4  10  22  43  67  92 130 177 221 268 331 404
#     4  11  23  40  68  95 129 178 223 276 335 400
#     4  11  23  41  67  95 135 176 220 272 346 409
#     4  11  24  42  67  99 135 175 222 277 342 411
#     4   9  18  34  59  88 134 171 201 260 339 389
#     4  11  23  40  61  99 131 170 218 279 331 403
#     4   9  18  36  59  96 132 158 216 279 328 379
#
# _framework density 20.017139
#
# number of rings (size 3 to 8) (size 9 to 14) (size 15 to 20)
#    0.000    1.500    3.333    1.500    3.500    2.167 
#    0.000    0.833    0.000    0.000    0.000    0.000 
#    0.000    0.000    0.000    0.000    0.000    0.000 
#
# Total GULP energy -267317.877342 kJ/mol
# GULP energy per Si atom -5569.122445 kJ/mol
# Density = 1.997158 g / cm^3
# Si number density = 20.017139 Si / 1000 Ang^3
#
#
#
# Elastic Constant Matrix: (Units=GPa)
#
#
# Indices 1 2 3 4 5 6 
#
# 1 78.3329 43.9052 28.7659 0.0000 0.0000 0.0000
# 2 43.9052 78.3359 28.7638 0.0000 0.0000 0.0000
# 3 28.7659 28.7638 82.8975 0.0000 0.0000 0.0000
# 4 0.0000 0.0000 0.0000 27.0201 0.0000 0.0000
# 5 0.0000 0.0000 0.0000 0.0000 27.0199 0.0000
# 6 0.0000 0.0000 0.0000 0.0000 0.0000 37.4914
#
#
#
# Elastic Compliance Matrix: (Units=1/GPa)
#
#
# Indices 1 2 3 4 5 6 
#
# 1 0.019412 -0.009634 -0.003393 0.000000 0.000000 0.000000
# 2 -0.009634 0.019411 -0.003392 0.000000 0.000000 0.000000
# 3 -0.003393 -0.003392 0.014418 0.000000 0.000000 0.000000
# 4 0.000000 0.000000 0.000000 0.037009 0.000000 0.000000
# 5 0.000000 0.000000 0.000000 0.000000 0.037010 0.000000
# 6 0.000000 0.000000 0.000000 0.000000 0.000000 0.026673
#
#
# Mechanical properties :
#
#
# Convention : Reuss Voigt Hill
#
# Bulk Modulus (GPa) = 49.01584 49.15957 49.08771
# Shear Modulus (GPa) = 25.83032 27.51505 26.67268
#
# Velocity S-wave (km/s) = 3.59612 3.71155 3.65429
# Velocity P-wave (km/s) = 6.46397 6.55588 6.51009
#
# Compressibility (1/GPa) = 0.02040157
#
# Stress axis : x y z
#
# Youngs Moduli (GPa) = 51.51488 51.51825 69.35992
#
# Poissons Ratio (x) = 0.49632 0.23536
# Poissons Ratio (y) = 0.49629 0.23527
# Poissons Ratio (z) = 0.17480 0.17475
#
# Static dielectric constant tensor:
#      x y z
#    x 1.599090 0.000000 0.000000 
#    y 0.000000 1.599100 0.000000 
#    z 0.000000 0.000000 1.718540 
# 
# From -- ./inp_files/6460.got.cif
#   From: 2010.05.17/outbox.cif.g08.bks.cpg/sg121_4_cif.got.tgz:6460.got - 2010.05.20 11:32:06.
