data_PCOD9560754
_publ_section_title
;
Structure prediction by ZEFSAII (Michael W. Deem and Ramdas Pophale) SiO2 
 PCOD9560754
Probable space group: I -4 2 D
;
_chemical_formula_sum "Si O2"
_cell_formula_units_Z 120
_cell_length_a 18.549350
_cell_length_b 18.549350
_cell_length_c 15.064858
_cell_angle_alpha 90.000000
_cell_angle_beta 90.000000
_cell_angle_gamma 90.000000
_cell_volume 5183.492017
_symmetry_space_group_name_H-M "I -4 2 D"
_symmetry_group_IT_number 122
_symmetry_cell_setting 'tetragonal'
loop_
_space_group_symop_operation_xyz
x,y,z
y,-x,-z
-x,-y,z
-y,x,-z
x,1/2-y,1/4-z
-x,1/2+y,1/4-z
-y,1/2-x,1/4+z
y,1/2+x,1/4+z
1/2+x,1/2+y,1/2+z
1/2+y,1/2-x,1/2-z
1/2-x,1/2-y,1/2+z
1/2-y,1/2+x,1/2-z
1/2+x,-y,3/4-z
1/2-x,y,3/4-z
1/2-y,-x,3/4+z
1/2+y,x,3/4+z
loop_
_atom_site_type_symbol
_atom_site_label
_atom_site_fract_x
_atom_site_fract_y
_atom_site_fract_z
Si Si1 0.221554 0.379103 0.024049
Si Si2 0.000000 0.500000 0.128432
Si Si3 0.027185 0.260431 0.796203
Si Si4 0.245880 0.863355 0.777601
Si Si5 0.098301 0.388451 0.479286
Si Si6 0.871438 0.907507 0.048042
Si Si7 0.020465 0.768474 0.253000
Si Si8 0.168883 0.879247 0.414380
O O1 0.235341 0.458796 0.986487
O O2 0.183136 0.312494 0.973731
O O3 0.167152 0.396048 0.106180
O O4 0.299161 0.353098 0.057767
O O5 0.946357 0.553379 0.182168
O O6 0.946438 0.452328 0.068090
O O7 0.078601 0.190766 0.806563
O O8 0.997181 0.280768 0.892687
O O9 0.069499 0.324174 0.749047
O O10 0.250000 0.826858 0.875000
O O11 0.329174 0.873064 0.751624
O O12 0.215493 0.943759 0.790509
O O13 0.180054 0.416343 0.469777
O O14 0.090121 0.380705 0.585837
O O15 0.814466 0.956301 0.994935
O O16 0.250000 0.876036 0.375000
#
# Coordination Sequence:
#
# PCOD9560754 Si02
#       8
#    16   8  16  16  16  16  16  16
#     4  10  18  41  63  85 127 165 221 277 330 417
#     4  12  22  40  69  97 138 178 222 286 356 416
#     4  10  22  40  62  98 128 170 230 285 342 416
#     4  10  22  38  66  92 121 177 226 271 340 411
#     4  11  21  39  68  90 126 185 217 276 345 413
#     4  10  21  39  64  92 131 177 219 275 339 420
#     4  11  22  42  62  95 138 171 231 280 343 426
#     4  10  20  37  67  91 121 175 225 272 346 409
#
# _framework density 23.150417000000001
#
# number of rings (size 3 to 8) (size 9 to 14) (size 15 to 20)
#    0.000    1.600    5.333    2.800    1.867    1.067 
#    4.800    2.000    0.000    0.000    0.000    0.000 
#    0.000    0.000    0.000    0.000    0.000    0.000 
#
# Total GULP energy -334957.904570 kJ/mol
# GULP energy per Si atom -5582.631743 kJ/mol
# Density = 2.309773 g / cm^3
# Si number density = 23.150417 Si / 1000 Ang^3
#
#
#
# Elastic Constant Matrix: (Units=GPa)
#
#
# Indices 1 2 3 4 5 6 
#
# 1 129.0667 44.2781 32.9016 0.0000 0.0000 0.0000
# 2 44.2781 129.0667 32.9016 0.0000 0.0000 0.0000
# 3 32.9016 32.9016 61.2509 0.0000 0.0000 0.0000
# 4 0.0000 0.0000 0.0000 25.7349 0.0000 0.0000
# 5 0.0000 0.0000 0.0000 0.0000 25.7349 0.0000
# 6 0.0000 0.0000 0.0000 0.0000 0.0000 49.6655
#
#
#
# Elastic Compliance Matrix: (Units=1/GPa)
#
#
# Indices 1 2 3 4 5 6 
#
# 1 0.009520 -0.002274 -0.003893 0.000000 0.000000 0.000000
# 2 -0.002274 0.009520 -0.003893 0.000000 0.000000 0.000000
# 3 -0.003893 -0.003893 0.020508 0.000000 0.000000 0.000000
# 4 0.000000 0.000000 0.000000 0.038858 0.000000 0.000000
# 5 0.000000 0.000000 0.000000 0.000000 0.038858 0.000000
# 6 0.000000 0.000000 0.000000 0.000000 0.000000 0.020135
#
#
# Mechanical properties :
#
#
# Convention : Reuss Voigt Hill
#
# Bulk Modulus (GPa) = 51.46422 59.94966 55.70694
# Shear Modulus (GPa) = 30.48902 34.18059 32.33481
#
# Velocity S-wave (km/s) = 3.63298 3.84664 3.74134
# Velocity P-wave (km/s) = 6.31480 6.75875 6.54055
#
# Compressibility (1/GPa) = 0.01943097
#
# Stress axis : x y z
#
# Youngs Moduli (GPa) = 105.03911 105.03911 48.76112
#
# Poissons Ratio (x) = 0.23884 0.18980
# Poissons Ratio (y) = 0.23884 0.18980
# Poissons Ratio (z) = 0.40887 0.40887
#
# Static dielectric constant tensor:
#      x y z
#    x 1.899450 0.000000 0.000000 
#    y 0.000000 1.899450 0.000000 
#    z 0.000000 0.000000 1.941120 
# 
# From -- ./inp_files/7498.got.cif
#   From: 2010.05.17/outbox.cif.g08.bks.cpg/sg122_4_cif.got.tgz:7498.got - 2010.05.20 11:37:33.
