data_PCOD9560024
_publ_section_title
;
Structure prediction by ZEFSAII (Michael W. Deem and Ramdas Pophale) SiO2 
 PCOD9560024
Probable space group: I -4 C 2
;
_chemical_formula_sum "Si O2"
_cell_formula_units_Z 112
_cell_length_a 13.785524
_cell_length_b 13.785524
_cell_length_c 24.249259
_cell_angle_alpha 90.000000
_cell_angle_beta 90.000000
_cell_angle_gamma 90.000000
_cell_volume 4608.345475
_symmetry_space_group_name_H-M "I -4 C 2"
_symmetry_group_IT_number 120
_symmetry_cell_setting 'tetragonal'
loop_
_space_group_symop_operation_xyz
x,y,z
y,-x,-z
-x,-y,z
-y,x,-z
y,x,1/2-z
-y,-x,1/2-z
-x,y,1/2+z
x,-y,1/2+z
1/2+x,1/2+y,1/2+z
1/2+y,1/2-x,1/2-z
1/2-x,1/2-y,1/2+z
1/2-y,1/2+x,1/2-z
1/2+y,1/2+x,-z
1/2-y,1/2-x,-z
1/2-x,1/2+y,z
1/2+x,1/2-y,z
loop_
_atom_site_type_symbol
_atom_site_label
_atom_site_fract_x
_atom_site_fract_y
_atom_site_fract_z
Si Si1 0.931102 0.408620 0.601554
Si Si2 0.131073 0.469247 0.221985
Si Si3 0.769523 0.989393 0.581805
Si Si4 0.558048 0.711504 0.541401
Si Si5 0.580797 0.647391 0.119416
Si Si6 0.996854 0.157436 0.737703
Si Si7 0.309288 0.214107 0.939771
O O1 0.904184 0.414827 0.666747
O O2 0.825143 0.422963 0.576675
O O3 0.971219 0.311690 0.573167
O O4 0.000000 0.500000 0.589713
O O5 0.087915 0.577728 0.228197
O O6 0.244919 0.479804 0.229211
O O7 0.726300 0.094071 0.596617
O O8 0.804629 0.984935 0.518910
O O9 0.850974 0.947143 0.621879
O O10 0.507245 0.629837 0.577730
O O11 0.673826 0.711586 0.544074
O O12 0.525346 0.680032 0.174344
O O13 0.655730 0.726370 0.092623
O O14 0.074360 0.074360 0.750000
O O15 0.891755 0.108246 0.750000
O O16 0.331794 0.168207 0.000000
#
# Coordination Sequence:
#
# PCOD9560024 Si02
#       7
#    16  16  16  16  16  16  16
#     4  12  24  40  71 107 144 198 248 320 389 446
#     4  11  24  48  74 108 150 192 263 326 385 471
#     4  12  25  43  73 109 158 198 249 320 386 472
#     4  12  24  44  72 108 155 201 255 313 382 480
#     4  12  26  49  74 107 150 205 259 313 398 469
#     4  11  28  53  76 107 148 198 263 331 394 473
#     4  12  24  45  69 108 153 199 257 311 383 475
#
# _framework density 24.303733000000001
#
# number of rings (size 3 to 8) (size 9 to 14) (size 15 to 20)
#    0.000    0.286    5.714    3.000    2.000    5.143 
#    0.000    1.429    0.000    0.000    0.000    0.000 
#    0.000    0.000    0.000    0.000    0.000    0.000 
#
# Total GULP energy -312894.781158 kJ/mol
# GULP energy per Si atom -5587.406806 kJ/mol
# Density = 2.424842 g / cm^3
# Si number density = 24.303733 Si / 1000 Ang^3
#
#
#
# Elastic Constant Matrix: (Units=GPa)
#
#
# Indices 1 2 3 4 5 6 
#
# 1 99.6497 28.3323 17.2475 0.0000 0.0000 0.0000
# 2 28.3323 99.6483 17.2464 0.0000 0.0000 0.0000
# 3 17.2475 17.2464 92.5534 0.0000 0.0000 0.0000
# 4 0.0000 0.0000 0.0000 20.3456 0.0000 0.0000
# 5 0.0000 0.0000 0.0000 0.0000 20.3472 0.0000
# 6 0.0000 0.0000 0.0000 0.0000 0.0000 33.8590
#
#
#
# Elastic Compliance Matrix: (Units=1/GPa)
#
#
# Indices 1 2 3 4 5 6 
#
# 1 0.011124 -0.002898 -0.001533 0.000000 0.000000 0.000000
# 2 -0.002898 0.011124 -0.001533 0.000000 0.000000 0.000000
# 3 -0.001533 -0.001533 0.011376 0.000000 0.000000 0.000000
# 4 0.000000 0.000000 0.000000 0.049151 0.000000 0.000000
# 5 0.000000 0.000000 0.000000 0.000000 0.049147 0.000000
# 6 0.000000 0.000000 0.000000 0.000000 0.000000 0.029534
#
#
# Mechanical properties :
#
#
# Convention : Reuss Voigt Hill
#
# Bulk Modulus (GPa) = 46.08840 46.38932 46.23886
# Shear Modulus (GPa) = 27.68301 30.17871 28.93086
#
# Velocity S-wave (km/s) = 3.37863 3.52764 3.45394
# Velocity P-wave (km/s) = 5.85020 5.97672 5.91380
#
# Compressibility (1/GPa) = 0.02169743
#
# Stress axis : x y z
#
# Youngs Moduli (GPa) = 89.89300 89.89200 87.90498
#
# Poissons Ratio (x) = 0.26047 0.13477
# Poissons Ratio (y) = 0.26047 0.13476
# Poissons Ratio (z) = 0.13782 0.13780
#
# Static dielectric constant tensor:
#      x y z
#    x 1.956120 0.000000 0.000000 
#    y 0.000000 1.956120 0.000000 
#    z 0.000000 0.000000 2.053850 
# 
# From -- ./inp_files/5930.got.cif
#   From: 2010.05.17/outbox.cif.g08.bks.cpg/sg120_3_cif.got.tgz:5930.got - 2010.05.20 11:28:13.
