data_PCOD9560030
_publ_section_title
;
Structure prediction by ZEFSAII (Michael W. Deem and Ramdas Pophale) SiO2 
 PCOD9560030
Probable space group: I -4 C 2
;
_chemical_formula_sum "Si O2"
_cell_formula_units_Z 56
_cell_length_a 13.074788
_cell_length_b 13.074788
_cell_length_c 14.872740
_cell_angle_alpha 90.000000
_cell_angle_beta 90.000000
_cell_angle_gamma 90.000000
_cell_volume 2542.496111
_symmetry_space_group_name_H-M "I -4 C 2"
_symmetry_group_IT_number 120
_symmetry_cell_setting 'tetragonal'
loop_
_space_group_symop_operation_xyz
x,y,z
y,-x,-z
-x,-y,z
-y,x,-z
y,x,1/2-z
-y,-x,1/2-z
-x,y,1/2+z
x,-y,1/2+z
1/2+x,1/2+y,1/2+z
1/2+y,1/2-x,1/2-z
1/2-x,1/2-y,1/2+z
1/2-y,1/2+x,1/2-z
1/2+y,1/2+x,-z
1/2-y,1/2-x,-z
1/2-x,1/2+y,z
1/2+x,1/2-y,z
loop_
_atom_site_type_symbol
_atom_site_label
_atom_site_fract_x
_atom_site_fract_y
_atom_site_fract_z
Si Si1 0.775728 0.275728 0.500000
Si Si2 0.956520 0.785028 0.273925
Si Si3 0.154693 0.043111 0.532295
Si Si4 0.151420 0.720496 0.178068
O O1 0.895158 0.249828 0.508711
O O2 0.739969 0.208921 0.415418
O O3 0.874888 0.874888 0.250000
O O4 0.895344 0.681369 0.297372
O O5 0.014488 0.823034 0.364324
O O6 0.036071 0.756395 0.195692
O O7 0.058807 0.119187 0.518216
O O8 0.212738 0.787263 0.250000
#
# Coordination Sequence:
#
# PCOD9560030 Si02
#       4
#     8  16  16  16
#     4  12  24  46  68 110 154 186 244 310 382 428
#     4  11  26  46  73 109 147 195 253 307 368 446
#     4  11  25  44  74 111 141 194 250 308 371 449
#     4  11  25  45  70 106 149 196 241 310 368 439
#
# _framework density 22.025599
#
# number of rings (size 3 to 8) (size 9 to 14) (size 15 to 20)
#    0.000    0.857    5.714    0.000    8.000    1.143 
#    0.000    0.000    0.000    2.571    0.000    0.000 
#    0.000    0.000    0.000    0.000    0.000    0.000 
#
# Total GULP energy -156405.409318 kJ/mol
# GULP energy per Si atom -5585.907476 kJ/mol
# Density = 2.197547 g / cm^3
# Si number density = 22.025599 Si / 1000 Ang^3
#
#
#
# Elastic Constant Matrix: (Units=GPa)
#
#
# Indices 1 2 3 4 5 6 
#
# 1 81.5142 49.6235 49.8430 0.0000 0.0000 0.0000
# 2 49.6235 81.5136 49.8434 0.0000 0.0000 0.0000
# 3 49.8430 49.8434 130.2471 0.0000 0.0000 0.0000
# 4 0.0000 0.0000 0.0000 34.9046 0.0000 0.0000
# 5 0.0000 0.0000 0.0000 0.0000 34.9047 0.0000
# 6 0.0000 0.0000 0.0000 0.0000 0.0000 59.3233
#
#
#
# Elastic Compliance Matrix: (Units=1/GPa)
#
#
# Indices 1 2 3 4 5 6 
#
# 1 0.021056 -0.010302 -0.004115 0.000000 0.000000 0.000000
# 2 -0.010302 0.021056 -0.004115 0.000000 0.000000 0.000000
# 3 -0.004115 -0.004115 0.010827 0.000000 0.000000 0.000000
# 4 0.000000 0.000000 0.000000 0.028650 0.000000 0.000000
# 5 0.000000 0.000000 0.000000 0.000000 0.028649 0.000000
# 6 0.000000 0.000000 0.000000 0.000000 0.000000 0.016857
#
#
# Mechanical properties :
#
#
# Convention : Reuss Voigt Hill
#
# Bulk Modulus (GPa) = 62.99622 65.76609 64.38116
# Shear Modulus (GPa) = 29.50709 35.42416 32.46563
#
# Velocity S-wave (km/s) = 3.66412 4.01473 3.84343
# Velocity P-wave (km/s) = 6.82382 7.17039 6.99925
#
# Compressibility (1/GPa) = 0.01587397
#
# Stress axis : x y z
#
# Youngs Moduli (GPa) = 47.49346 47.49275 92.35794
#
# Poissons Ratio (x) = 0.48926 0.38007
# Poissons Ratio (y) = 0.48927 0.38009
# Poissons Ratio (z) = 0.19545 0.19545
#
# Static dielectric constant tensor:
#      x y z
#    x 1.869570 0.000000 0.000000 
#    y 0.000000 1.869580 0.000000 
#    z 0.000000 0.000000 1.842090 
# 
# From -- ./inp_files/3227.got.cif
#   From: 2010.05.17/outbox.cif.g08.bks.cpg/sg120_2_cif.got.tgz:3227.got - 2010.05.20 11:28:13.
