data_PCOD9560231
_publ_section_title
;
Structure prediction by ZEFSAII (Michael W. Deem and Ramdas Pophale) SiO2 
 PCOD9560231
Probable space group: I -4 2 M
;
_chemical_formula_sum "Si O2"
_cell_formula_units_Z 96
_cell_length_a 26.043882
_cell_length_b 26.043882
_cell_length_c 9.138936
_cell_angle_alpha 90.000000
_cell_angle_beta 90.000000
_cell_angle_gamma 90.000000
_cell_volume 6198.792143
_symmetry_space_group_name_H-M "I -4 2 M"
_symmetry_group_IT_number 121
_symmetry_cell_setting 'tetragonal'
loop_
_space_group_symop_operation_xyz
x,y,z
y,-x,-z
-x,-y,z
-y,x,-z
x,-y,-z
-x,y,-z
-y,-x,z
y,x,z
1/2+x,1/2+y,1/2+z
1/2+y,1/2-x,1/2-z
1/2-x,1/2-y,1/2+z
1/2-y,1/2+x,1/2-z
1/2+x,1/2-y,1/2-z
1/2-x,1/2+y,1/2-z
1/2-y,1/2-x,1/2+z
1/2+y,1/2+x,1/2+z
loop_
_atom_site_type_symbol
_atom_site_label
_atom_site_fract_x
_atom_site_fract_y
_atom_site_fract_z
Si Si1 0.130385 0.950991 0.904121
Si Si2 0.287817 0.441610 0.034051
Si Si3 0.101927 0.977172 0.354478
Si Si4 0.876939 0.208208 0.762691
Si Si5 0.728583 0.184212 0.976285
Si Si6 0.156137 0.755607 0.302269
O O1 0.082196 0.917805 0.959052
O O2 0.176450 0.911894 0.876890
O O3 0.115269 0.976046 0.750068
O O4 0.143962 0.000000 0.000000
O O5 0.346024 0.449891 0.090918
O O6 0.264347 0.403097 0.154871
O O7 0.268608 0.500000 0.000000
O O8 0.284329 0.410116 0.882646
O O9 0.063445 0.936555 0.285162
O O10 0.078244 0.000000 0.500000
O O11 0.828619 0.171382 0.723406
O O12 0.856523 0.257592 0.849323
O O13 0.775850 0.224151 0.972838
O O14 0.680292 0.217554 0.924117
O O15 0.730470 0.162658 0.141080
O O16 0.191948 0.808053 0.304782
#
# Coordination Sequence:
#
# PCOD9560231 Si02
#       6
#    16  16  16  16  16  16
#     4  11  23  35  46  62  88 123 167 219 270 306
#     4  11  21  33  48  68  95 129 165 203 251 298
#     4  11  21  33  47  63  83 120 171 219 261 300
#     4  10  19  34  49  65  91 121 158 208 256 305
#     4   9  19  32  53  78  97 122 157 206 264 312
#     4  10  19  33  52  76  99 123 161 208 255 307
#
# _framework density 15.486886999999999
#
# number of rings (size 3 to 8) (size 9 to 14) (size 15 to 20)
#    0.000    1.667    3.333    3.500    2.333    4.667 
#    0.000    0.000    0.000    0.000    0.000    0.000 
#    0.000    0.000    0.000    0.000    0.000   54.167 
#
# Total GULP energy -267490.623642 kJ/mol
# GULP energy per Si atom -5572.721326 kJ/mol
# Density = 1.545164 g / cm^3
# Si number density = 15.486887 Si / 1000 Ang^3
#
#
#
# Elastic Constant Matrix: (Units=GPa)
#
#
# Indices 1 2 3 4 5 6 
#
# 1 52.1875 30.2300 13.5563 0.0000 0.0000 0.0000
# 2 30.2300 52.1858 13.5562 0.0000 0.0000 0.0000
# 3 13.5563 13.5562 52.4062 0.0000 0.0000 0.0000
# 4 0.0000 0.0000 0.0000 20.5933 0.0000 0.0000
# 5 0.0000 0.0000 0.0000 0.0000 20.5937 0.0000
# 6 0.0000 0.0000 0.0000 0.0000 0.0000 24.7019
#
#
#
# Elastic Compliance Matrix: (Units=1/GPa)
#
#
# Indices 1 2 3 4 5 6 
#
# 1 0.029403 -0.016141 -0.003431 0.000000 0.000000 0.000000
# 2 -0.016141 0.029404 -0.003431 0.000000 0.000000 0.000000
# 3 -0.003431 -0.003431 0.020857 0.000000 0.000000 0.000000
# 4 0.000000 0.000000 0.000000 0.048560 0.000000 0.000000
# 5 0.000000 0.000000 0.000000 0.000000 0.048558 0.000000
# 6 0.000000 0.000000 0.000000 0.000000 0.000000 0.040483
#
#
# Mechanical properties :
#
#
# Convention : Reuss Voigt Hill
#
# Bulk Modulus (GPa) = 29.71037 30.16272 29.93655
# Shear Modulus (GPa) = 18.21576 19.80691 19.01133
#
# Velocity S-wave (km/s) = 3.43331 3.58012 3.50748
# Velocity P-wave (km/s) = 5.91123 6.05047 5.98126
#
# Compressibility (1/GPa) = 0.03365828
#
# Stress axis : x y z
#
# Youngs Moduli (GPa) = 34.01049 34.00939 47.94659
#
# Poissons Ratio (x) = 0.54895 0.16448
# Poissons Ratio (y) = 0.54897 0.16449
# Poissons Ratio (z) = 0.11667 0.11667
#
# Static dielectric constant tensor:
#      x y z
#    x 1.523090 0.000000 0.000000 
#    y 0.000000 1.523090 0.000000 
#    z 0.000000 0.000000 1.590350 
# 
# From -- ./inp_files/1923.got.cif
#   From: 2010.05.17/outbox.cif.g08.bks.cpg/sg121_1_cif.got.tgz:1923.got - 2010.05.20 11:32:06.
