data_PCOD9560252
_publ_section_title
;
Structure prediction by ZEFSAII (Michael W. Deem and Ramdas Pophale) SiO2 
 PCOD9560252
Probable space group: I -4 2 M
;
_chemical_formula_sum "Si O2"
_cell_formula_units_Z 96
_cell_length_a 14.226317
_cell_length_b 14.226317
_cell_length_c 26.205645
_cell_angle_alpha 90.000000
_cell_angle_beta 90.000000
_cell_angle_gamma 90.000000
_cell_volume 5303.710580
_symmetry_space_group_name_H-M "I -4 2 M"
_symmetry_group_IT_number 121
_symmetry_cell_setting 'tetragonal'
loop_
_space_group_symop_operation_xyz
x,y,z
y,-x,-z
-x,-y,z
-y,x,-z
x,-y,-z
-x,y,-z
-y,-x,z
y,x,z
1/2+x,1/2+y,1/2+z
1/2+y,1/2-x,1/2-z
1/2-x,1/2-y,1/2+z
1/2-y,1/2+x,1/2-z
1/2+x,1/2-y,1/2-z
1/2-x,1/2+y,1/2-z
1/2-y,1/2-x,1/2+z
1/2+y,1/2+x,1/2+z
loop_
_atom_site_type_symbol
_atom_site_label
_atom_site_fract_x
_atom_site_fract_y
_atom_site_fract_z
Si Si1 0.819925 0.331317 0.432063
Si Si2 0.286910 0.135753 0.450935
Si Si3 0.032327 0.184326 0.598982
Si Si4 0.488262 0.146769 0.269453
Si Si5 0.611283 0.023061 0.112034
Si Si6 0.996590 0.153832 0.716355
O O1 0.717432 0.282569 0.427984
O O2 0.855560 0.316053 0.489999
O O3 0.890808 0.267605 0.398826
O O4 0.832526 0.438140 0.415044
O O5 0.229205 0.229205 0.437610
O O6 0.379589 0.124633 0.417347
O O7 0.217985 0.048471 0.439191
O O8 0.090555 0.090555 0.584271
O O9 0.991314 0.171489 0.655498
O O10 0.408203 0.085307 0.241651
O O11 0.469557 0.143809 0.329612
O O12 0.493322 0.249895 0.246346
O O13 0.500000 0.000000 0.111384
O O14 0.905183 0.094818 0.732206
O O15 0.086481 0.086481 0.724211
#
# Coordination Sequence:
#
# PCOD9560252 Si02
#       6
#    16  16  16  16  16  16
#     4  10  22  38  58  87 117 149 193 237 281 339
#     4  11  23  37  57  88 119 150 194 236 279 340
#     4  10  19  34  56  84 119 155 187 226 280 339
#     4  11  22  38  57  84 117 144 186 241 287 332
#     4  12  22  38  64  83 113 153 191 236 287 337
#     4  10  22  39  59  83 113 151 193 231 276 341
#
# _framework density 18.100536000000002
#
# number of rings (size 3 to 8) (size 9 to 14) (size 15 to 20)
#    0.000    1.333    3.333    3.500    0.000    3.667 
#    0.000    0.833    0.000    6.500    0.000    2.333 
#    0.000    0.000    0.000    0.000    0.000    0.000 
#
# Total GULP energy -268215.054362 kJ/mol
# GULP energy per Si atom -5587.813633 kJ/mol
# Density = 1.805934 g / cm^3
# Si number density = 18.100536 Si / 1000 Ang^3
#
#
#
# Elastic Constant Matrix: (Units=GPa)
#
#
# Indices 1 2 3 4 5 6 
#
# 1 74.0960 25.4878 35.9743 0.0000 0.0000 0.0000
# 2 25.4878 74.0928 35.9735 0.0000 0.0000 0.0000
# 3 35.9743 35.9735 62.7179 0.0000 0.0000 0.0000
# 4 0.0000 0.0000 0.0000 2.5401 0.0000 0.0000
# 5 0.0000 0.0000 0.0000 0.0000 2.5426 0.0000
# 6 0.0000 0.0000 0.0000 0.0000 0.0000 17.7412
#
#
#
# Elastic Compliance Matrix: (Units=1/GPa)
#
#
# Indices 1 2 3 4 5 6 
#
# 1 0.018861 -0.001712 -0.009836 0.000000 0.000000 0.000000
# 2 -0.001712 0.018861 -0.009836 0.000000 0.000000 0.000000
# 3 -0.009836 -0.009836 0.027228 0.000000 0.000000 0.000000
# 4 0.000000 0.000000 0.000000 0.393691 0.000000 0.000000
# 5 0.000000 0.000000 0.000000 0.000000 0.393299 0.000000
# 6 0.000000 0.000000 0.000000 0.000000 0.000000 0.056366
#
#
# Mechanical properties :
#
#
# Convention : Reuss Voigt Hill
#
# Bulk Modulus (GPa) = 45.08426 45.08643 45.08535
# Shear Modulus (GPa) = 5.21665 12.12950 8.67308
#
# Velocity S-wave (km/s) = 1.69950 2.59147 2.19135
# Velocity P-wave (km/s) = 5.36776 5.82385 5.60045
#
# Compressibility (1/GPa) = 0.02218069
#
# Stress axis : x y z
#
# Youngs Moduli (GPa) = 53.02082 53.01856 36.72684
#
# Poissons Ratio (x) = 0.09079 0.36125
# Poissons Ratio (y) = 0.09079 0.36125
# Poissons Ratio (z) = 0.52151 0.52150
#
# Static dielectric constant tensor:
#      x y z
#    x 1.615090 0.000000 0.000000 
#    y 0.000000 1.615090 0.000000 
#    z 0.000000 0.000000 1.607760 
# 
# From -- ./inp_files/6440.got.cif
#   From: 2010.05.17/outbox.cif.g08.bks.cpg/sg121_4_cif.got.tgz:6440.got - 2010.05.20 11:32:06.
