data_PCOD9560934
_publ_section_title
;
Structure prediction by ZEFSAII (Michael W. Deem and Ramdas Pophale) SiO2 
 PCOD9560934
Probable space group: I -4 2 D
;
_chemical_formula_sum "Si O2"
_cell_formula_units_Z 64
_cell_length_a 12.351855
_cell_length_b 12.351855
_cell_length_c 21.950702
_cell_angle_alpha 90.000000
_cell_angle_beta 90.000000
_cell_angle_gamma 90.000000
_cell_volume 3348.981770
_symmetry_space_group_name_H-M "I -4 2 D"
_symmetry_group_IT_number 122
_symmetry_cell_setting 'tetragonal'
loop_
_space_group_symop_operation_xyz
x,y,z
y,-x,-z
-x,-y,z
-y,x,-z
x,1/2-y,1/4-z
-x,1/2+y,1/4-z
-y,1/2-x,1/4+z
y,1/2+x,1/4+z
1/2+x,1/2+y,1/2+z
1/2+y,1/2-x,1/2-z
1/2-x,1/2-y,1/2+z
1/2-y,1/2+x,1/2-z
1/2+x,-y,3/4-z
1/2-x,y,3/4-z
1/2-y,-x,3/4+z
1/2+y,x,3/4+z
loop_
_atom_site_type_symbol
_atom_site_label
_atom_site_fract_x
_atom_site_fract_y
_atom_site_fract_z
Si Si1 0.500000 0.000000 0.549266
Si Si2 0.575621 0.093787 0.429142
Si Si3 0.051184 0.750000 0.625000
Si Si4 0.603884 0.146248 0.239631
Si Si5 0.700711 0.868965 0.600526
O O1 0.543362 0.090047 0.500169
O O2 0.401904 0.053721 0.586843
O O3 0.579613 0.209071 0.396448
O O4 0.500000 0.000000 0.398658
O O5 0.686763 0.031477 0.418441
O O6 0.123869 0.681051 0.670435
O O7 0.474892 0.142400 0.250137
O O8 0.648266 0.233043 0.287510
O O9 0.669007 0.750000 0.625000
#
# Coordination Sequence:
#
# PCOD9560934 Si02
#       5
#     8  16   8  16  16
#     4  10  26  44  62  98 146 178 230 290 326 428
#     4  10  20  40  65 100 132 163 226 288 338 410
#     4  12  18  34  58  96 128 160 204 278 344 384
#     4  11  21  32  60 100 133 162 209 276 349 407
#     4  12  23  42  69  96 139 187 226 284 358 416
#
# _framework density 19.110285999999999
#
# number of rings (size 3 to 8) (size 9 to 14) (size 15 to 20)
#    0.750    0.250    6.250    1.500    0.000    0.000 
#    0.000    2.500   11.000    0.000    0.000    0.000 
#    0.000    0.000    0.000    0.000    0.000    0.000 
#
# Total GULP energy -178226.102715 kJ/mol
# GULP energy per Si atom -5569.565710 kJ/mol
# Density = 1.906679 g / cm^3
# Si number density = 19.110286 Si / 1000 Ang^3
#
#
#
# Elastic Constant Matrix: (Units=GPa)
#
#
# Indices 1 2 3 4 5 6 
#
# 1 84.0372 29.4121 50.1882 0.0000 0.0000 0.0000
# 2 29.4121 84.0372 50.1882 0.0000 0.0000 0.0000
# 3 50.1882 50.1882 100.6125 0.0000 0.0000 0.0000
# 4 0.0000 0.0000 0.0000 1.3584 0.0000 0.0000
# 5 0.0000 0.0000 0.0000 0.0000 1.3584 0.0000
# 6 0.0000 0.0000 0.0000 0.0000 0.0000 10.3308
#
#
#
# Elastic Compliance Matrix: (Units=1/GPa)
#
#
# Indices 1 2 3 4 5 6 
#
# 1 0.017042 -0.001264 -0.007871 0.000000 0.000000 0.000000
# 2 -0.001264 0.017042 -0.007871 0.000000 0.000000 0.000000
# 3 -0.007871 -0.007871 0.017791 0.000000 0.000000 0.000000
# 4 0.000000 0.000000 0.000000 0.736184 0.000000 0.000000
# 5 0.000000 0.000000 0.000000 0.000000 0.736183 0.000000
# 6 0.000000 0.000000 0.000000 0.000000 0.000000 0.096798
#
#
# Mechanical properties :
#
#
# Convention : Reuss Voigt Hill
#
# Bulk Modulus (GPa) = 55.97457 58.69599 57.33528
# Shear Modulus (GPa) = 3.01022 11.86940 7.43981
#
# Velocity S-wave (km/s) = 1.25643 2.49489 1.97523
# Velocity P-wave (km/s) = 5.60880 6.25143 5.93881
#
# Compressibility (1/GPa) = 0.01786525
#
# Stress axis : x y z
#
# Youngs Moduli (GPa) = 58.67733 58.67733 56.20755
#
# Poissons Ratio (x) = 0.07418 0.44238
# Poissons Ratio (y) = 0.07418 0.44238
# Poissons Ratio (z) = 0.46182 0.46182
#
# Static dielectric constant tensor:
#      x y z
#    x 1.848140 0.000000 0.000000 
#    y 0.000000 1.848140 0.000000 
#    z 0.000000 0.000000 1.706690 
# 
# From -- ./inp_files/7908.got.cif
#   From: 2010.05.17/outbox.cif.g08.bks.cpg/sg122_4_cif.got.tgz:7908.got - 2010.05.20 11:37:33.
