data_PCOD9560530
_publ_section_title
;
Structure prediction by ZEFSAII (Michael W. Deem and Ramdas Pophale) SiO2 
 PCOD9560530
Probable space group: I -4 2 M
;
_chemical_formula_sum "Si O2"
_cell_formula_units_Z 52
_cell_length_a 14.819153
_cell_length_b 14.819153
_cell_length_c 10.125200
_cell_angle_alpha 90.000000
_cell_angle_beta 90.000000
_cell_angle_gamma 90.000000
_cell_volume 2223.567790
_symmetry_space_group_name_H-M "I -4 2 M"
_symmetry_group_IT_number 121
_symmetry_cell_setting 'tetragonal'
loop_
_space_group_symop_operation_xyz
x,y,z
y,-x,-z
-x,-y,z
-y,x,-z
x,-y,-z
-x,y,-z
-y,-x,z
y,x,z
1/2+x,1/2+y,1/2+z
1/2+y,1/2-x,1/2-z
1/2-x,1/2-y,1/2+z
1/2-y,1/2+x,1/2-z
1/2+x,1/2-y,1/2-z
1/2-x,1/2+y,1/2-z
1/2-y,1/2-x,1/2+z
1/2+y,1/2+x,1/2+z
loop_
_atom_site_type_symbol
_atom_site_label
_atom_site_fract_x
_atom_site_fract_y
_atom_site_fract_z
Si Si1 0.345336 0.500000 0.500000
Si Si2 0.244486 0.244486 0.280708
Si Si3 0.684722 0.684722 0.037561
Si Si4 0.000000 0.267035 0.500000
Si Si5 0.694190 0.960292 0.212141
Si Si6 0.500000 0.000000 0.250000
O O1 0.412690 0.587311 0.496071
O O2 0.275111 0.500508 0.623795
O O3 0.246740 0.246740 0.439916
O O4 0.277460 0.145045 0.231676
O O5 0.307098 0.307098 0.193161
O O6 0.706572 0.586500 0.993735
O O7 0.999635 0.314440 0.359810
O O8 0.592719 0.983878 0.165216
#
# Coordination Sequence:
#
# PCOD9560530 Si02
#       6
#     8   8   8   8  16   4
#     4  11  26  51  80 110 152 207 268 325 386 462
#     4  10  22  44  69  95 148 193 255 297 376 447
#     4  10  22  41  66  98 137 193 239 305 368 453
#     4  10  24  42  68 104 144 188 246 307 382 449
#     4  11  25  47  71 114 152 203 250 315 386 467
#     4  12  28  46  80 118 164 202 252 322 400 470
#
# _framework density 23.385840999999999
#
# number of rings (size 3 to 8) (size 9 to 14) (size 15 to 20)
#    0.000    1.385    1.538    1.846    2.154   11.385 
#    2.769    0.000    0.000    0.000    0.000    0.000 
#    0.000    0.000    0.000    0.000    0.000    0.000 
#
# Total GULP energy -144890.781860 kJ/mol
# GULP energy per Si atom -5572.722379 kJ/mol
# Density = 2.333261 g / cm^3
# Si number density = 23.385841 Si / 1000 Ang^3
#
#
#
# Elastic Constant Matrix: (Units=GPa)
#
#
# Indices 1 2 3 4 5 6 
#
# 1 131.5194 59.3495 46.0739 0.0000 0.0000 0.0000
# 2 59.3495 131.5187 46.0739 0.0000 0.0000 0.0000
# 3 46.0739 46.0739 127.5802 0.0000 0.0000 0.0000
# 4 0.0000 0.0000 0.0000 23.7521 0.0000 0.0000
# 5 0.0000 0.0000 0.0000 0.0000 23.7521 0.0000
# 6 0.0000 0.0000 0.0000 0.0000 0.0000 -18.9777
#
#
#
# Elastic Compliance Matrix: (Units=1/GPa)
#
#
# Indices 1 2 3 4 5 6 
#
# 1 0.010101 -0.003755 -0.002292 0.000000 0.000000 0.000000
# 2 -0.003755 0.010101 -0.002292 0.000000 0.000000 0.000000
# 3 -0.002292 -0.002292 0.009493 0.000000 0.000000 0.000000
# 4 0.000000 0.000000 0.000000 0.042102 0.000000 0.000000
# 5 0.000000 0.000000 0.000000 0.000000 0.042102 0.000000
# 6 0.000000 0.000000 0.000000 0.000000 0.000000 -0.052693
#
#
# Mechanical properties :
#
#
# Convention : Reuss Voigt Hill
#
# Bulk Modulus (GPa) = 76.81648 77.06808 76.94228
# Shear Modulus (GPa) = 60.81135 21.64669 41.22902
#
# Velocity S-wave (km/s) = 5.10489 3.04572 4.20335
# Velocity P-wave (km/s) = 8.22589 6.73759 7.51866
#
# Compressibility (1/GPa) = 0.01301804
#
# Stress axis : x y z
#
# Youngs Moduli (GPa) = 99.00130 99.00067 105.33656
#
# Poissons Ratio (x) = 0.37178 0.24139
# Poissons Ratio (y) = 0.37178 0.24139
# Poissons Ratio (z) = 0.22687 0.22687
#
# Static dielectric constant tensor:
#      x y z
#    x 1.893870 0.000000 0.000000 
#    y 0.000000 1.893870 0.000000 
#    z 0.000000 0.000000 2.181880 
# 
# From -- ./inp_files/2793.got.cif
#   From: 2010.05.17/outbox.cif.g08.bks.cpg/sg121_2_cif.got.tgz:2793.got - 2010.05.20 11:32:06.
