data_PCOD9560598
_publ_section_title
;
Structure prediction by ZEFSAII (Michael W. Deem and Ramdas Pophale) SiO2 
 PCOD9560598
Probable space group: I -4 2 M
;
_chemical_formula_sum "Si O2"
_cell_formula_units_Z 112
_cell_length_a 17.662581
_cell_length_b 17.662581
_cell_length_c 22.459700
_cell_angle_alpha 90.000000
_cell_angle_beta 90.000000
_cell_angle_gamma 90.000000
_cell_volume 7006.680010
_symmetry_space_group_name_H-M "I -4 2 M"
_symmetry_group_IT_number 121
_symmetry_cell_setting 'tetragonal'
loop_
_space_group_symop_operation_xyz
x,y,z
y,-x,-z
-x,-y,z
-y,x,-z
x,-y,-z
-x,y,-z
-y,-x,z
y,x,z
1/2+x,1/2+y,1/2+z
1/2+y,1/2-x,1/2-z
1/2-x,1/2-y,1/2+z
1/2-y,1/2+x,1/2-z
1/2+x,1/2-y,1/2-z
1/2-x,1/2+y,1/2-z
1/2-y,1/2-x,1/2+z
1/2+y,1/2+x,1/2+z
loop_
_atom_site_type_symbol
_atom_site_label
_atom_site_fract_x
_atom_site_fract_y
_atom_site_fract_z
Si Si1 0.561048 0.933608 0.829105
Si Si2 0.576769 0.917597 0.969841
Si Si3 0.485835 0.193585 0.738245
Si Si4 0.309376 0.810865 0.972069
Si Si5 0.290381 0.165680 0.162960
Si Si6 0.684571 0.437884 0.948943
Si Si7 0.791804 0.918850 0.683757
O O1 0.564747 0.923290 0.899687
O O2 0.534090 0.858672 0.795270
O O3 0.500000 0.000000 0.817423
O O4 0.641212 0.959807 0.802178
O O5 0.500000 0.884351 0.000000
O O6 0.650780 0.869039 0.984183
O O7 0.585178 0.000000 0.000000
O O8 0.409880 0.207436 0.701072
O O9 0.525460 0.268792 0.763247
O O10 0.233870 0.766130 0.991499
O O11 0.294424 0.848967 0.907893
O O12 0.372601 0.746518 0.960480
O O13 0.216256 0.216256 0.174547
O O14 0.361716 0.220087 0.177471
O O15 0.603505 0.396495 0.952499
O O16 0.697509 0.460700 0.879944
O O17 0.691079 0.500000 0.000000
O O18 0.864827 0.864827 0.692989
#
# Coordination Sequence:
#
# PCOD9560598 Si02
#       7
#    16  16  16  16  16  16  16
#     4  12  21  32  47  79 106 138 169 209 262 310
#     4  11  22  32  50  76 108 136 167 211 267 314
#     4  12  20  33  53  74 107 136 179 214 251 314
#     4   9  19  35  53  72 100 133 172 211 254 312
#     4   9  18  34  54  73  97 137 179 213 252 307
#     4   9  18  32  51  72  96 134 178 214 252 298
#     4   9  19  34  50  72 102 139 173 214 266 307
#
# _framework density 15.984745999999999
#
# number of rings (size 3 to 8) (size 9 to 14) (size 15 to 20)
#    0.000    1.857    4.286    3.000    6.000    0.143 
#    0.000    2.143    0.000    1.286    0.000    0.000 
#    0.000    1.429    0.000    0.000    0.000    0.000 
#
# Total GULP energy -312287.977793 kJ/mol
# GULP energy per Si atom -5576.571032 kJ/mol
# Density = 1.594836 g / cm^3
# Si number density = 15.984746 Si / 1000 Ang^3
#
#
#
# Elastic Constant Matrix: (Units=GPa)
#
#
# Indices 1 2 3 4 5 6 
#
# 1 60.2697 29.8679 46.4118 0.0000 0.0000 0.0000
# 2 29.8679 60.2692 46.4117 0.0000 0.0000 0.0000
# 3 46.4118 46.4117 118.2804 0.0000 0.0000 0.0000
# 4 0.0000 0.0000 0.0000 24.7648 0.0000 0.0000
# 5 0.0000 0.0000 0.0000 0.0000 24.7655 0.0000
# 6 0.0000 0.0000 0.0000 0.0000 0.0000 20.5758
#
#
#
# Elastic Compliance Matrix: (Units=1/GPa)
#
#
# Indices 1 2 3 4 5 6 
#
# 1 0.025755 -0.007138 -0.007305 0.000000 0.000000 0.000000
# 2 -0.007138 0.025755 -0.007305 0.000000 0.000000 0.000000
# 3 -0.007305 -0.007305 0.014187 0.000000 0.000000 0.000000
# 4 0.000000 0.000000 0.000000 0.040380 0.000000 0.000000
# 5 0.000000 0.000000 0.000000 0.000000 0.040379 0.000000
# 6 0.000000 0.000000 0.000000 0.000000 0.000000 0.048601
#
#
# Mechanical properties :
#
#
# Convention : Reuss Voigt Hill
#
# Bulk Modulus (GPa) = 45.04308 53.80024 49.42166
# Shear Modulus (GPa) = 20.32906 21.76308 21.04607
#
# Velocity S-wave (km/s) = 3.57007 3.69384 3.63248
# Velocity P-wave (km/s) = 6.72561 7.20576 6.96982
#
# Compressibility (1/GPa) = 0.02220097
#
# Stress axis : x y z
#
# Youngs Moduli (GPa) = 38.82763 38.82723 70.48548
#
# Poissons Ratio (x) = 0.27715 0.51490
# Poissons Ratio (y) = 0.27715 0.51490
# Poissons Ratio (z) = 0.28364 0.28364
#
# Static dielectric constant tensor:
#      x y z
#    x 1.542340 0.000000 0.000000 
#    y 0.000000 1.542340 0.000000 
#    z 0.000000 0.000000 1.531130 
# 
# From -- ./inp_files/6613.got.cif
#   From: 2010.05.17/outbox.cif.g08.bks.cpg/sg121_4_cif.got.tgz:6613.got - 2010.05.20 11:32:06.
