data_PCOD9560396
_publ_section_title
;
Structure prediction by ZEFSAII (Michael W. Deem and Ramdas Pophale) SiO2 
 PCOD9560396
Probable space group: I -4 2 M
;
_chemical_formula_sum "Si O2"
_cell_formula_units_Z 56
_cell_length_a 14.453979
_cell_length_b 14.453979
_cell_length_c 12.100541
_cell_angle_alpha 90.000000
_cell_angle_beta 90.000000
_cell_angle_gamma 90.000000
_cell_volume 2528.014882
_symmetry_space_group_name_H-M "I -4 2 M"
_symmetry_group_IT_number 121
_symmetry_cell_setting 'tetragonal'
loop_
_space_group_symop_operation_xyz
x,y,z
y,-x,-z
-x,-y,z
-y,x,-z
x,-y,-z
-x,y,-z
-y,-x,z
y,x,z
1/2+x,1/2+y,1/2+z
1/2+y,1/2-x,1/2-z
1/2-x,1/2-y,1/2+z
1/2-y,1/2+x,1/2-z
1/2+x,1/2-y,1/2-z
1/2-x,1/2+y,1/2-z
1/2-y,1/2-x,1/2+z
1/2+y,1/2+x,1/2+z
loop_
_atom_site_type_symbol
_atom_site_label
_atom_site_fract_x
_atom_site_fract_y
_atom_site_fract_z
Si Si1 0.303920 0.545861 0.740150
Si Si2 0.652077 0.500000 0.500000
Si Si3 0.588977 0.261289 0.079280
Si Si4 0.113215 0.587900 0.718141
O O1 0.395779 0.604222 0.759991
O O2 0.294792 0.529470 0.609302
O O3 0.303012 0.451267 0.806448
O O4 0.212476 0.603232 0.774641
O O5 0.584551 0.415450 0.468058
O O6 0.677507 0.322493 0.044575
O O7 0.608017 0.154479 0.112001
O O8 0.500000 0.268660 0.000000
O O9 0.108990 0.476398 0.706142
#
# Coordination Sequence:
#
# PCOD9560396 Si02
#       4
#    16   8  16  16
#     4  10  20  38  62  92 128 167 215 266 320 381
#     4   9  18  34  58  91 128 170 220 273 326 377
#     4  11  23  40  64  96 130 166 207 261 329 392
#     4   9  20  42  61  85 120 166 217 258 305 365
#
# _framework density 22.151768000000001
#
# number of rings (size 3 to 8) (size 9 to 14) (size 15 to 20)
#    0.000    2.143    0.000    2.571    0.000    3.143 
#   25.714    1.429    0.000    0.000    0.000    0.000 
#    0.000    0.000    0.000    0.000    0.000    0.000 
#
# Total GULP energy -156031.872647 kJ/mol
# GULP energy per Si atom -5572.566880 kJ/mol
# Density = 2.210135 g / cm^3
# Si number density = 22.151768 Si / 1000 Ang^3
#
#
#
# Elastic Constant Matrix: (Units=GPa)
#
#
# Indices 1 2 3 4 5 6 
#
# 1 89.8045 43.4637 26.5956 0.0000 0.0000 0.0000
# 2 43.4637 89.8126 26.5954 0.0000 0.0000 0.0000
# 3 26.5956 26.5954 44.3140 0.0000 0.0000 0.0000
# 4 0.0000 0.0000 0.0000 32.5984 0.0000 0.0000
# 5 0.0000 0.0000 0.0000 0.0000 32.5986 0.0000
# 6 0.0000 0.0000 0.0000 0.0000 0.0000 26.4830
#
#
#
# Elastic Compliance Matrix: (Units=1/GPa)
#
#
# Indices 1 2 3 4 5 6 
#
# 1 0.015723 -0.005855 -0.005922 0.000000 0.000000 0.000000
# 2 -0.005855 0.015721 -0.005921 0.000000 0.000000 0.000000
# 3 -0.005922 -0.005921 0.029674 0.000000 0.000000 0.000000
# 4 0.000000 0.000000 0.000000 0.030676 0.000000 0.000000
# 5 0.000000 0.000000 0.000000 0.000000 0.030676 0.000000
# 6 0.000000 0.000000 0.000000 0.000000 0.000000 0.037760
#
#
# Mechanical properties :
#
#
# Convention : Reuss Voigt Hill
#
# Bulk Modulus (GPa) = 38.87858 46.36004 42.61931
# Shear Modulus (GPa) = 24.48556 26.82110 25.65333
#
# Velocity S-wave (km/s) = 3.32829 3.48341 3.40674
# Velocity P-wave (km/s) = 5.68851 6.09530 5.89542
#
# Compressibility (1/GPa) = 0.02572110
#
# Stress axis : x y z
#
# Youngs Moduli (GPa) = 63.60108 63.60824 33.69935
#
# Poissons Ratio (x) = 0.37244 0.19958
# Poissons Ratio (y) = 0.37240 0.19954
# Poissons Ratio (z) = 0.37666 0.37663
#
# Static dielectric constant tensor:
#      x y z
#    x 1.851620 0.000000 0.000000 
#    y 0.000000 1.851620 0.000000 
#    z 0.000000 0.000000 1.836280 
# 
# From -- ./inp_files/2749.got.cif
#   From: 2010.05.17/outbox.cif.g08.bks.cpg/sg121_2_cif.got.tgz:2749.got - 2010.05.20 11:32:06.
