data_PCOD9560384
_publ_section_title
;
Structure prediction by ZEFSAII (Michael W. Deem and Ramdas Pophale) SiO2 
 PCOD9560384
Probable space group: I -4 2 M
;
_chemical_formula_sum "Si O2"
_cell_formula_units_Z 128
_cell_length_a 22.594941
_cell_length_b 22.594941
_cell_length_c 13.153916
_cell_angle_alpha 90.000000
_cell_angle_beta 90.000000
_cell_angle_gamma 90.000000
_cell_volume 6715.486609
_symmetry_space_group_name_H-M "I -4 2 M"
_symmetry_group_IT_number 121
_symmetry_cell_setting 'tetragonal'
loop_
_space_group_symop_operation_xyz
x,y,z
y,-x,-z
-x,-y,z
-y,x,-z
x,-y,-z
-x,y,-z
-y,-x,z
y,x,z
1/2+x,1/2+y,1/2+z
1/2+y,1/2-x,1/2-z
1/2-x,1/2-y,1/2+z
1/2-y,1/2+x,1/2-z
1/2+x,1/2-y,1/2-z
1/2-x,1/2+y,1/2-z
1/2-y,1/2-x,1/2+z
1/2+y,1/2+x,1/2+z
loop_
_atom_site_type_symbol
_atom_site_label
_atom_site_fract_x
_atom_site_fract_y
_atom_site_fract_z
Si Si1 0.413521 0.857337 0.535961
Si Si2 0.091732 0.513438 0.726616
Si Si3 0.421803 0.770100 0.364064
Si Si4 0.214371 0.514016 0.168713
Si Si5 0.834851 0.069746 0.013337
Si Si6 0.408688 0.796122 0.980549
Si Si7 0.710226 0.804116 0.656664
Si Si8 0.647684 0.256782 0.634922
O O1 0.452474 0.886869 0.624755
O O2 0.443646 0.820437 0.443751
O O3 0.367738 0.904851 0.489340
O O4 0.372287 0.805111 0.584704
O O5 0.055547 0.452941 0.710775
O O6 0.147222 0.495448 0.794594
O O7 0.467847 0.756285 0.275018
O O8 0.409106 0.710995 0.426758
O O9 0.359590 0.796057 0.324460
O O10 0.226607 0.455301 0.103548
O O11 0.223129 0.567876 0.090170
O O12 0.896377 0.103624 0.005319
O O13 0.801471 0.093170 0.114626
O O14 0.839624 0.000000 0.000000
O O15 0.344068 0.778540 0.942165
O O16 0.741247 0.741247 0.647293
O O17 0.740027 0.838167 0.750135
O O18 0.705639 0.294362 0.596943
#
# Coordination Sequence:
#
# PCOD9560384 Si02
#       8
#    16  16  16  16  16  16  16  16
#     4  10  20  38  59  82 108 150 199 256 304 354
#     4  11  24  39  57  76 112 156 210 260 294 341
#     4  10  23  37  61  86 118 157 199 249 310 369
#     4  11  23  39  55  78 114 159 200 249 299 356
#     4  10  22  39  60  93 125 158 201 249 304 384
#     4  10  22  37  56  80 114 150 198 246 300 362
#     4  10  20  37  63  90 119 151 191 255 311 368
#     4   9  19  36  61  92 120 149 195 247 309 375
#
# _framework density 19.060421000000002
#
# number of rings (size 3 to 8) (size 9 to 14) (size 15 to 20)
#    0.000    1.875    1.250    1.875    8.750    3.125 
#    0.000    1.250    0.000    0.000    0.000    0.000 
#    0.000    0.000    0.000    0.000    0.000    0.000 
#
# Total GULP energy -356856.206396 kJ/mol
# GULP energy per Si atom -5575.878225 kJ/mol
# Density = 1.901704 g / cm^3
# Si number density = 19.060421 Si / 1000 Ang^3
#
#
#
# Elastic Constant Matrix: (Units=GPa)
#
#
# Indices 1 2 3 4 5 6 
#
# 1 79.1236 26.7876 33.1773 0.0000 0.0000 0.0000
# 2 26.7876 79.1287 33.1778 0.0000 0.0000 0.0000
# 3 33.1773 33.1778 92.6198 0.0000 0.0000 0.0000
# 4 0.0000 0.0000 0.0000 23.1871 0.0000 0.0000
# 5 0.0000 0.0000 0.0000 0.0000 23.1870 0.0000
# 6 0.0000 0.0000 0.0000 0.0000 0.0000 25.7102
#
#
#
# Elastic Compliance Matrix: (Units=1/GPa)
#
#
# Indices 1 2 3 4 5 6 
#
# 1 0.015641 -0.003466 -0.004361 0.000000 0.000000 0.000000
# 2 -0.003466 0.015639 -0.004361 0.000000 0.000000 0.000000
# 3 -0.004361 -0.004361 0.013921 0.000000 0.000000 0.000000
# 4 0.000000 0.000000 0.000000 0.043127 0.000000 0.000000
# 5 0.000000 0.000000 0.000000 0.000000 0.043128 0.000000
# 6 0.000000 0.000000 0.000000 0.000000 0.000000 0.038895
#
#
# Mechanical properties :
#
#
# Convention : Reuss Voigt Hill
#
# Bulk Modulus (GPa) = 48.01854 48.57305 48.29579
# Shear Modulus (GPa) = 24.79315 24.93215 24.86265
#
# Velocity S-wave (km/s) = 3.61053 3.62063 3.61558
# Velocity P-wave (km/s) = 6.52907 6.55879 6.54394
#
# Compressibility (1/GPa) = 0.02082529
#
# Stress axis : x y z
#
# Youngs Moduli (GPa) = 63.93631 63.94078 71.83407
#
# Poissons Ratio (x) = 0.22164 0.31326
# Poissons Ratio (y) = 0.22163 0.31324
# Poissons Ratio (z) = 0.27882 0.27882
#
# Static dielectric constant tensor:
#      x y z
#    x 1.677340 0.000000 0.000000 
#    y 0.000000 1.677340 0.000000 
#    z 0.000000 0.000000 1.714040 
# 
# From -- ./inp_files/3553.got.cif
#   From: 2010.05.17/outbox.cif.g08.bks.cpg/sg121_2_cif.got.tgz:3553.got - 2010.05.20 11:32:06.
