data_PCOD9560544
_publ_section_title
;
Structure prediction by ZEFSAII (Michael W. Deem and Ramdas Pophale) SiO2 
 PCOD9560544
Probable space group: I -4 2 M
;
_chemical_formula_sum "Si O2"
_cell_formula_units_Z 64
_cell_length_a 13.225833
_cell_length_b 13.225833
_cell_length_c 16.366671
_cell_angle_alpha 90.000000
_cell_angle_beta 90.000000
_cell_angle_gamma 90.000000
_cell_volume 2862.901603
_symmetry_space_group_name_H-M "I -4 2 M"
_symmetry_group_IT_number 121
_symmetry_cell_setting 'tetragonal'
loop_
_space_group_symop_operation_xyz
x,y,z
y,-x,-z
-x,-y,z
-y,x,-z
x,-y,-z
-x,y,-z
-y,-x,z
y,x,z
1/2+x,1/2+y,1/2+z
1/2+y,1/2-x,1/2-z
1/2-x,1/2-y,1/2+z
1/2-y,1/2+x,1/2-z
1/2+x,1/2-y,1/2-z
1/2-x,1/2+y,1/2-z
1/2-y,1/2-x,1/2+z
1/2+y,1/2+x,1/2+z
loop_
_atom_site_type_symbol
_atom_site_label
_atom_site_fract_x
_atom_site_fract_y
_atom_site_fract_z
Si Si1 0.571381 0.898430 0.910719
Si Si2 0.268599 0.427683 0.140608
Si Si3 0.720334 0.878979 0.065040
Si Si4 0.434404 0.267015 0.327267
O O1 0.515557 0.790635 0.906294
O O2 0.650002 0.902776 0.836462
O O3 0.500000 0.000000 0.906043
O O4 0.640537 0.897415 0.992217
O O5 0.370607 0.370607 0.110117
O O6 0.182433 0.340388 0.134863
O O7 0.286523 0.462161 0.233264
O O8 0.805471 0.805471 0.031461
O O9 0.772083 0.974422 0.107950
O O10 0.343940 0.343940 0.346199
#
# Coordination Sequence:
#
# PCOD9560544 Si02
#       4
#    16  16  16  16
#     4  12  24  39  68  99 134 179 234 284 340 400
#     4  10  23  41  64  99 138 174 227 286 340 402
#     4  11  24  43  66 100 140 179 226 284 346 412
#     4  11  24  41  66 102 136 178 229 282 347 414
#
# _framework density 22.354941
#
# number of rings (size 3 to 8) (size 9 to 14) (size 15 to 20)
#    0.000    1.000    2.500    3.750    3.500    0.500 
#    0.000    1.250    0.000   10.500    0.000   10.500 
#    0.000    0.000    0.000    0.000    0.000    0.000 
#
# Total GULP energy -178386.698477 kJ/mol
# GULP energy per Si atom -5574.584327 kJ/mol
# Density = 2.230406 g / cm^3
# Si number density = 22.354941 Si / 1000 Ang^3
#
#
#
# Elastic Constant Matrix: (Units=GPa)
#
#
# Indices 1 2 3 4 5 6 
#
# 1 110.1192 74.4854 41.7646 0.0000 0.0000 0.0000
# 2 74.4854 110.1192 41.7646 0.0000 0.0000 0.0000
# 3 41.7646 41.7646 97.7316 0.0000 0.0000 0.0000
# 4 0.0000 0.0000 0.0000 28.4045 0.0000 0.0000
# 5 0.0000 0.0000 0.0000 0.0000 28.4045 0.0000
# 6 0.0000 0.0000 0.0000 0.0000 0.0000 65.5506
#
#
#
# Elastic Compliance Matrix: (Units=1/GPa)
#
#
# Indices 1 2 3 4 5 6 
#
# 1 0.017389 -0.010674 -0.002870 0.000000 0.000000 0.000000
# 2 -0.010674 0.017389 -0.002870 0.000000 0.000000 0.000000
# 3 -0.002870 -0.002870 0.012685 0.000000 0.000000 0.000000
# 4 0.000000 0.000000 0.000000 0.035206 0.000000 0.000000
# 5 0.000000 0.000000 0.000000 0.000000 0.035206 0.000000
# 6 0.000000 0.000000 0.000000 0.000000 0.000000 0.015255
#
#
# Mechanical properties :
#
#
# Convention : Reuss Voigt Hill
#
# Bulk Modulus (GPa) = 68.32159 70.44437 69.38298
# Shear Modulus (GPa) = 29.26778 35.13560 32.20169
#
# Velocity S-wave (km/s) = 3.62225 3.96879 3.79947
# Velocity P-wave (km/s) = 6.93706 7.25134 7.09594
#
# Compressibility (1/GPa) = 0.01463666
#
# Stress axis : x y z
#
# Youngs Moduli (GPa) = 57.50633 57.50633 78.83405
#
# Poissons Ratio (x) = 0.61382 0.22624
# Poissons Ratio (y) = 0.61382 0.22624
# Poissons Ratio (z) = 0.16503 0.16503
#
# Static dielectric constant tensor:
#      x y z
#    x 1.887480 0.000000 0.000000 
#    y 0.000000 1.887480 0.000000 
#    z 0.000000 0.000000 1.864800 
# 
# From -- ./inp_files/5091.got.cif
#   From: 2010.05.17/outbox.cif.g08.bks.cpg/sg121_3_cif.got.tgz:5091.got - 2010.05.20 11:32:06.
