data_PCOD9560979
_publ_section_title
;
Structure prediction by ZEFSAII (Michael W. Deem and Ramdas Pophale) SiO2 
 PCOD9560979
Probable space group: I -4 2 D
;
_chemical_formula_sum "Si O2"
_cell_formula_units_Z 60
_cell_length_a 9.818179
_cell_length_b 9.818179
_cell_length_c 24.833367
_cell_angle_alpha 90.000000
_cell_angle_beta 90.000000
_cell_angle_gamma 90.000000
_cell_volume 2393.853111
_symmetry_space_group_name_H-M "I -4 2 D"
_symmetry_group_IT_number 122
_symmetry_cell_setting 'tetragonal'
loop_
_space_group_symop_operation_xyz
x,y,z
y,-x,-z
-x,-y,z
-y,x,-z
x,1/2-y,1/4-z
-x,1/2+y,1/4-z
-y,1/2-x,1/4+z
y,1/2+x,1/4+z
1/2+x,1/2+y,1/2+z
1/2+y,1/2-x,1/2-z
1/2-x,1/2-y,1/2+z
1/2-y,1/2+x,1/2-z
1/2+x,-y,3/4-z
1/2-x,y,3/4-z
1/2-y,-x,3/4+z
1/2+y,x,3/4+z
loop_
_atom_site_type_symbol
_atom_site_label
_atom_site_fract_x
_atom_site_fract_y
_atom_site_fract_z
Si Si1 0.875154 0.891398 0.665255
Si Si2 0.000000 0.500000 0.750000
Si Si3 0.459434 0.156117 0.517043
Si Si4 0.750000 0.136539 0.875000
Si Si5 0.782433 0.878949 0.435199
O O1 0.745030 0.874848 0.627381
O O2 0.960863 0.754976 0.676640
O O3 0.808170 0.930767 0.722086
O O4 0.000000 0.000000 0.653869
O O5 0.930930 0.613517 0.788647
O O6 0.449681 0.239448 0.571291
O O7 0.321920 0.165676 0.481449
O O8 0.500000 0.000000 0.531088
O O9 0.750000 0.818895 0.375000
#
# Coordination Sequence:
#
# PCOD9560979 Si02
#       5
#    16   4  16   8  16
#     4   9  21  40  64  97 142 163 225 290 330 409
#     4  12  24  32  64 104 116 176 232 240 374 428
#     4   9  23  43  61  97 141 167 234 286 327 421
#     4  12  20  44  78  90 136 204 210 294 364 386
#     4  10  21  34  58  91 132 165 201 284 336 392
#
# _framework density 25.064193
#
# number of rings (size 3 to 8) (size 9 to 14) (size 15 to 20)
#    0.000    2.667    1.333    1.600    7.467    0.000 
#    4.800    0.000   11.733    0.000    0.000    0.000 
#    0.000    0.000    0.000    0.000    0.000    0.000 
#
# Total GULP energy -167151.082066 kJ/mol
# GULP energy per Si atom -5571.702736 kJ/mol
# Density = 2.500715 g / cm^3
# Si number density = 25.064193 Si / 1000 Ang^3
#
#
#
# Elastic Constant Matrix: (Units=GPa)
#
#
# Indices 1 2 3 4 5 6 
#
# 1 43.5376 5.6013 19.8211 0.0000 0.0000 0.0000
# 2 5.6013 43.5376 19.8211 0.0000 0.0000 0.0000
# 3 19.8211 19.8211 168.7426 0.0000 0.0000 0.0000
# 4 0.0000 0.0000 0.0000 38.2364 0.0000 0.0000
# 5 0.0000 0.0000 0.0000 0.0000 38.2364 0.0000
# 6 0.0000 0.0000 0.0000 0.0000 0.0000 26.7556
#
#
#
# Elastic Compliance Matrix: (Units=1/GPa)
#
#
# Indices 1 2 3 4 5 6 
#
# 1 0.024420 -0.001940 -0.002641 0.000000 0.000000 0.000000
# 2 -0.001940 0.024420 -0.002641 0.000000 0.000000 0.000000
# 3 -0.002641 -0.002641 0.006547 0.000000 0.000000 0.000000
# 4 0.000000 0.000000 0.000000 0.026153 0.000000 0.000000
# 5 0.000000 0.000000 0.000000 0.000000 0.026153 0.000000
# 6 0.000000 0.000000 0.000000 0.000000 0.000000 0.037375
#
#
# Mechanical properties :
#
#
# Convention : Reuss Voigt Hill
#
# Bulk Modulus (GPa) = 24.42270 38.47830 31.45050
# Shear Modulus (GPa) = 28.87515 34.68395 31.77955
#
# Velocity S-wave (km/s) = 3.39787 3.72399 3.56466
# Velocity P-wave (km/s) = 5.01589 5.82031 5.43301
#
# Compressibility (1/GPa) = 0.04094551
#
# Stress axis : x y z
#
# Youngs Moduli (GPa) = 40.94938 40.94938 152.75219
#
# Poissons Ratio (x) = 0.07942 0.40337
# Poissons Ratio (y) = 0.07942 0.40337
# Poissons Ratio (z) = 0.10813 0.10813
#
# Static dielectric constant tensor:
#      x y z
#    x 2.041190 0.000000 0.000000 
#    y 0.000000 2.041190 0.000000 
#    z 0.000000 0.000000 2.081600 
# 
# From -- ./inp_files/7880.got.cif
#   From: 2010.05.17/outbox.cif.g08.bks.cpg/sg122_4_cif.got.tgz:7880.got - 2010.05.20 11:37:33.
