data_PCOD9560668
_publ_section_title
;
Structure prediction by ZEFSAII (Michael W. Deem and Ramdas Pophale) SiO2 
 PCOD9560668
Probable space group: I -4 2 M
;
_chemical_formula_sum "Si O2"
_cell_formula_units_Z 40
_cell_length_a 12.891386
_cell_length_b 12.891386
_cell_length_c 10.802000
_cell_angle_alpha 90.000000
_cell_angle_beta 90.000000
_cell_angle_gamma 90.000000
_cell_volume 1795.160972
_symmetry_space_group_name_H-M "I -4 2 M"
_symmetry_group_IT_number 121
_symmetry_cell_setting 'tetragonal'
loop_
_space_group_symop_operation_xyz
x,y,z
y,-x,-z
-x,-y,z
-y,x,-z
x,-y,-z
-x,y,-z
-y,-x,z
y,x,z
1/2+x,1/2+y,1/2+z
1/2+y,1/2-x,1/2-z
1/2-x,1/2-y,1/2+z
1/2-y,1/2+x,1/2-z
1/2+x,1/2-y,1/2-z
1/2-x,1/2+y,1/2-z
1/2-y,1/2-x,1/2+z
1/2+y,1/2+x,1/2+z
loop_
_atom_site_type_symbol
_atom_site_label
_atom_site_fract_x
_atom_site_fract_y
_atom_site_fract_z
Si Si1 0.000000 0.286657 0.000000
Si Si2 0.301392 0.868391 0.602214
Si Si3 0.271911 0.437989 0.240840
O O1 0.102966 0.357019 0.992057
O O2 0.004863 0.219434 0.874861
O O3 0.208963 0.791038 0.564851
O O4 0.354890 0.818049 0.725640
O O5 0.260467 0.979973 0.638900
O O6 0.375001 0.375001 0.211434
#
# Coordination Sequence:
#
# PCOD9560668 Si02
#       3
#     8  16  16
#     4   8  18  38  61  89 132 182 226 267 319 404
#     4   9  19  36  59  94 136 174 226 282 326 396
#     4   9  19  37  62  96 138 177 220 281 339 389
#
# _framework density 22.282122000000001
#
# number of rings (size 3 to 8) (size 9 to 14) (size 15 to 20)
#    2.400    0.800    0.000    0.000    0.000    4.800 
#    0.000    4.000    0.000    0.600    0.000    5.600 
#    0.000    6.400    0.000    0.000    0.000    0.000 
#
# Total GULP energy -111445.172449 kJ/mol
# GULP energy per Si atom -5572.258622 kJ/mol
# Density = 2.223141 g / cm^3
# Si number density = 22.282122 Si / 1000 Ang^3
#
#
#
# Elastic Constant Matrix: (Units=GPa)
#
#
# Indices 1 2 3 4 5 6 
#
# 1 123.5519 107.4441 45.9926 0.0000 0.0000 0.0000
# 2 107.4441 123.5461 45.9899 0.0000 0.0000 0.0000
# 3 45.9926 45.9899 99.1885 0.0000 0.0000 0.0000
# 4 0.0000 0.0000 0.0000 34.9968 0.0000 0.0000
# 5 0.0000 0.0000 0.0000 0.0000 34.9963 0.0000
# 6 0.0000 0.0000 0.0000 0.0000 0.0000 19.8788
#
#
#
# Elastic Compliance Matrix: (Units=1/GPa)
#
#
# Indices 1 2 3 4 5 6 
#
# 1 0.033701 -0.028392 -0.002462 0.000000 0.000000 0.000000
# 2 -0.028392 0.033702 -0.002461 0.000000 0.000000 0.000000
# 3 -0.002462 -0.002461 0.012365 0.000000 0.000000 0.000000
# 4 0.000000 0.000000 0.000000 0.028574 0.000000 0.000000
# 5 0.000000 0.000000 0.000000 0.000000 0.028574 0.000000
# 6 0.000000 0.000000 0.000000 0.000000 0.000000 0.050305
#
#
# Mechanical properties :
#
#
# Convention : Reuss Voigt Hill
#
# Bulk Modulus (GPa) = 76.12503 82.79331 79.45917
# Shear Modulus (GPa) = 19.36260 27.76504 23.56382
#
# Velocity S-wave (km/s) = 2.95104 3.53380 3.25548
# Velocity P-wave (km/s) = 6.77125 7.34083 7.06179
#
# Compressibility (1/GPa) = 0.01313628
#
# Stress axis : x y z
#
# Youngs Moduli (GPa) = 29.67312 29.67216 80.87458
#
# Poissons Ratio (x) = 0.84244 0.19915
# Poissons Ratio (y) = 0.84247 0.19905
# Poissons Ratio (z) = 0.07307 0.07303
#
# Static dielectric constant tensor:
#      x y z
#    x 1.796060 0.000000 0.000000 
#    y 0.000000 1.796060 0.000000 
#    z 0.000000 0.000000 1.924530 
# 
# From -- ./inp_files/2507.got.cif
#   From: 2010.05.17/outbox.cif.g08.bks.cpg/sg121_2_cif.got.tgz:2507.got - 2010.05.20 11:32:06.
