data_PCOD9560566
_publ_section_title
;
Structure prediction by ZEFSAII (Michael W. Deem and Ramdas Pophale) SiO2 
 PCOD9560566
Probable space group: I -4 2 M
;
_chemical_formula_sum "Si O2"
_cell_formula_units_Z 68
_cell_length_a 16.493426
_cell_length_b 16.493426
_cell_length_c 12.644367
_cell_angle_alpha 90.000000
_cell_angle_beta 90.000000
_cell_angle_gamma 90.000000
_cell_volume 3439.686368
_symmetry_space_group_name_H-M "I -4 2 M"
_symmetry_group_IT_number 121
_symmetry_cell_setting 'tetragonal'
loop_
_space_group_symop_operation_xyz
x,y,z
y,-x,-z
-x,-y,z
-y,x,-z
x,-y,-z
-x,y,-z
-y,-x,z
y,x,z
1/2+x,1/2+y,1/2+z
1/2+y,1/2-x,1/2-z
1/2-x,1/2-y,1/2+z
1/2-y,1/2+x,1/2-z
1/2+x,1/2-y,1/2-z
1/2-x,1/2+y,1/2-z
1/2-y,1/2-x,1/2+z
1/2+y,1/2+x,1/2+z
loop_
_atom_site_type_symbol
_atom_site_label
_atom_site_fract_x
_atom_site_fract_y
_atom_site_fract_z
Si Si1 0.500000 0.000000 0.250000
Si Si2 0.629500 0.241041 0.871831
Si Si3 0.892455 0.233294 0.836562
Si Si4 0.827269 0.457552 0.669783
Si Si5 0.777693 0.645323 0.900196
O O1 0.501348 0.915602 0.314632
O O2 0.674741 0.325260 0.842953
O O3 0.700761 0.173636 0.873313
O O4 0.568721 0.208988 0.783850
O O5 0.599427 0.244513 0.992167
O O6 0.854416 0.145585 0.861112
O O7 0.893212 0.245539 0.708668
O O8 0.978902 0.263402 0.876764
O O9 0.841817 0.373553 0.609811
O O10 0.731646 0.731646 0.906570
#
# Coordination Sequence:
#
# PCOD9560566 Si02
#       5
#     4  16  16  16  16
#     4  12  20  32  42  80 108 138 152 192 254 320
#     4   9  18  33  52  70  92 133 176 203 240 297
#     4   9  18  32  47  67  98 133 169 206 246 301
#     4  11  19  33  49  72 110 131 160 209 253 298
#     4   9  18  33  52  70  92 133 176 203 240 297
#
# _framework density 19.769242999999999
#
# number of rings (size 3 to 8) (size 9 to 14) (size 15 to 20)
#    0.000    2.353    4.706    2.118    0.000    1.882 
#    0.000    1.176    0.000    2.824    0.000    0.000 
#    0.000   22.588    0.000    0.000    0.000    8.941 
#
# Total GULP energy -189504.704402 kJ/mol
# GULP energy per Si atom -5573.667777 kJ/mol
# Density = 1.972425 g / cm^3
# Si number density = 19.769243 Si / 1000 Ang^3
#
#
#
# Elastic Constant Matrix: (Units=GPa)
#
#
# Indices 1 2 3 4 5 6 
#
# 1 77.8729 42.9114 1.3022 0.0000 0.0000 0.0000
# 2 42.9114 77.8732 1.3021 0.0000 0.0000 0.0000
# 3 1.3022 1.3021 68.9054 0.0000 0.0000 0.0000
# 4 0.0000 0.0000 0.0000 2.1801 0.0000 0.0000
# 5 0.0000 0.0000 0.0000 0.0000 2.1800 0.0000
# 6 0.0000 0.0000 0.0000 0.0000 0.0000 20.2535
#
#
#
# Elastic Compliance Matrix: (Units=1/GPa)
#
#
# Indices 1 2 3 4 5 6 
#
# 1 0.018443 -0.010160 -0.000157 0.000000 0.000000 0.000000
# 2 -0.010160 0.018443 -0.000157 0.000000 0.000000 0.000000
# 3 -0.000157 -0.000157 0.014519 0.000000 0.000000 0.000000
# 4 0.000000 0.000000 0.000000 0.458685 0.000000 0.000000
# 5 0.000000 0.000000 0.000000 0.000000 0.458721 0.000000
# 6 0.000000 0.000000 0.000000 0.000000 0.000000 0.049374
#
#
# Mechanical properties :
#
#
# Convention : Reuss Voigt Hill
#
# Bulk Modulus (GPa) = 32.83249 35.07589 33.95419
# Shear Modulus (GPa) = 4.76516 16.86511 10.81513
#
# Velocity S-wave (km/s) = 1.55423 2.92395 2.34149
# Velocity P-wave (km/s) = 4.45699 5.40190 4.95203
#
# Compressibility (1/GPa) = 0.03045764
#
# Stress axis : x y z
#
# Youngs Moduli (GPa) = 54.22200 54.22221 68.87736
#
# Poissons Ratio (x) = 0.55090 0.01078
# Poissons Ratio (y) = 0.55090 0.01078
# Poissons Ratio (z) = 0.00849 0.00849
#
# Static dielectric constant tensor:
#      x y z
#    x 1.706280 0.000000 0.000000 
#    y 0.000000 1.706280 0.000000 
#    z 0.000000 0.000000 1.759180 
# 
# From -- ./inp_files/4161.got.cif
#   From: 2010.05.17/outbox.cif.g08.bks.cpg/sg121_3_cif.got.tgz:4161.got - 2010.05.20 11:32:06.
