data_PCOD9560163
_publ_section_title
;
Structure prediction by ZEFSAII (Michael W. Deem and Ramdas Pophale) SiO2 
 PCOD9560163
Probable space group: I -4 2 M
;
_chemical_formula_sum "Si O2"
_cell_formula_units_Z 72
_cell_length_a 21.441820
_cell_length_b 21.441820
_cell_length_c 8.606602
_cell_angle_alpha 90.000000
_cell_angle_beta 90.000000
_cell_angle_gamma 90.000000
_cell_volume 3956.899427
_symmetry_space_group_name_H-M "I -4 2 M"
_symmetry_group_IT_number 121
_symmetry_cell_setting 'tetragonal'
loop_
_space_group_symop_operation_xyz
x,y,z
y,-x,-z
-x,-y,z
-y,x,-z
x,-y,-z
-x,y,-z
-y,-x,z
y,x,z
1/2+x,1/2+y,1/2+z
1/2+y,1/2-x,1/2-z
1/2-x,1/2-y,1/2+z
1/2-y,1/2+x,1/2-z
1/2+x,1/2-y,1/2-z
1/2-x,1/2+y,1/2-z
1/2-y,1/2-x,1/2+z
1/2+y,1/2+x,1/2+z
loop_
_atom_site_type_symbol
_atom_site_label
_atom_site_fract_x
_atom_site_fract_y
_atom_site_fract_z
Si Si1 0.073979 0.073979 0.678988
Si Si2 0.743102 0.069275 0.065940
Si Si3 0.526422 0.176305 0.842904
Si Si4 0.869152 0.130849 0.999387
Si Si5 0.115638 0.439449 0.592730
Si Si6 0.575291 0.424710 0.176161
O O1 0.101766 0.101766 0.839981
O O2 0.094606 0.094606 0.502308
O O3 0.999415 0.085317 0.685333
O O4 0.730325 0.060825 0.247873
O O5 0.796409 0.114948 0.012657
O O6 0.674134 0.085414 0.005272
O O7 0.757992 0.000000 0.000000
O O8 0.469349 0.147672 0.743747
O O9 0.568924 0.115902 0.875179
O O10 0.500000 0.202858 0.000000
O O11 0.894784 0.105217 0.832890
O O12 0.088695 0.500000 0.500000
#
# Coordination Sequence:
#
# PCOD9560163 Si02
#       6
#     8  16  16   8  16   8
#     4   9  18  32  52  86 105 129 187 239 311 364
#     4   9  21  37  52  79 110 146 194 231 281 348
#     4  10  18  33  55  81 113 146 173 238 290 335
#     4  12  20  37  56  74 110 164 194 229 278 338
#     4   9  19  33  53  82 114 142 184 224 291 361
#     4   9  18  32  54  80 111 133 171 256 309 345
#
# _framework density 18.196065000000001
#
# number of rings (size 3 to 8) (size 9 to 14) (size 15 to 20)
#    0.000    2.889    0.000    5.333    0.000    3.556 
#   12.000    1.111    0.000    0.000    0.000    0.000 
#    0.000    0.000    0.000    0.000    0.000    0.000 
#
# Total GULP energy -200466.963800 kJ/mol
# GULP energy per Si atom -5568.526772 kJ/mol
# Density = 1.815465 g / cm^3
# Si number density = 18.196065 Si / 1000 Ang^3
#
#
#
# Elastic Constant Matrix: (Units=GPa)
#
#
# Indices 1 2 3 4 5 6 
#
# 1 47.5212 32.2463 26.0352 0.0000 0.0000 0.0000
# 2 32.2463 47.5236 26.0357 0.0000 0.0000 0.0000
# 3 26.0352 26.0357 137.5390 0.0000 0.0000 0.0000
# 4 0.0000 0.0000 0.0000 13.1488 0.0000 0.0000
# 5 0.0000 0.0000 0.0000 0.0000 13.1490 0.0000
# 6 0.0000 0.0000 0.0000 0.0000 0.0000 19.0432
#
#
#
# Elastic Compliance Matrix: (Units=1/GPa)
#
#
# Indices 1 2 3 4 5 6 
#
# 1 0.039884 -0.025579 -0.002708 0.000000 0.000000 0.000000
# 2 -0.025579 0.039882 -0.002708 0.000000 0.000000 0.000000
# 3 -0.002708 -0.002708 0.008296 0.000000 0.000000 0.000000
# 4 0.000000 0.000000 0.000000 0.076053 0.000000 0.000000
# 5 0.000000 0.000000 0.000000 0.000000 0.076052 0.000000
# 6 0.000000 0.000000 0.000000 0.000000 0.000000 0.052512
#
#
# Mechanical properties :
#
#
# Convention : Reuss Voigt Hill
#
# Bulk Modulus (GPa) = 38.35433 44.57981 41.46707
# Shear Modulus (GPa) = 13.76057 18.95264 16.35661
#
# Velocity S-wave (km/s) = 2.75296 3.23085 3.00143
# Velocity P-wave (km/s) = 5.58831 6.20248 5.90339
#
# Compressibility (1/GPa) = 0.02607268
#
# Stress axis : x y z
#
# Youngs Moduli (GPa) = 25.07285 25.07415 120.54372
#
# Poissons Ratio (x) = 0.64137 0.32640
# Poissons Ratio (y) = 0.64134 0.32638
# Poissons Ratio (z) = 0.06789 0.06789
#
# Static dielectric constant tensor:
#      x y z
#    x 1.609320 0.000000 0.000000 
#    y 0.000000 1.609310 0.000000 
#    z 0.000000 0.000000 1.731940 
# 
# From -- ./inp_files/1760.got.cif
#   From: 2010.05.17/outbox.cif.g08.bks.cpg/sg121_1_cif.got.tgz:1760.got - 2010.05.20 11:32:06.
