data_PCOD9560902
_publ_section_title
;
Structure prediction by ZEFSAII (Michael W. Deem and Ramdas Pophale) SiO2 
 PCOD9560902
Probable space group: I -4 2 D
;
_chemical_formula_sum "Si O2"
_cell_formula_units_Z 84
_cell_length_a 15.145377
_cell_length_b 15.145377
_cell_length_c 18.557881
_cell_angle_alpha 90.000000
_cell_angle_beta 90.000000
_cell_angle_gamma 90.000000
_cell_volume 4256.852108
_symmetry_space_group_name_H-M "I -4 2 D"
_symmetry_group_IT_number 122
_symmetry_cell_setting 'tetragonal'
loop_
_space_group_symop_operation_xyz
x,y,z
y,-x,-z
-x,-y,z
-y,x,-z
x,1/2-y,1/4-z
-x,1/2+y,1/4-z
-y,1/2-x,1/4+z
y,1/2+x,1/4+z
1/2+x,1/2+y,1/2+z
1/2+y,1/2-x,1/2-z
1/2-x,1/2-y,1/2+z
1/2-y,1/2+x,1/2-z
1/2+x,-y,3/4-z
1/2-x,y,3/4-z
1/2-y,-x,3/4+z
1/2+y,x,3/4+z
loop_
_atom_site_type_symbol
_atom_site_label
_atom_site_fract_x
_atom_site_fract_y
_atom_site_fract_z
Si Si1 0.523843 0.200285 0.847671
Si Si2 0.930382 0.623871 0.875280
Si Si3 0.226621 0.750000 0.625000
Si Si4 0.368134 0.840051 0.716652
Si Si5 0.426582 0.426013 0.712253
Si Si6 0.500000 0.000000 0.250000
Si Si7 0.518768 0.750000 0.625000
O O1 0.504424 0.303028 0.855455
O O2 0.607348 0.171167 0.799723
O O3 0.437314 0.157634 0.809893
O O4 0.537465 0.161569 0.926353
O O5 0.837179 0.671043 0.860335
O O6 0.956655 0.568947 0.805516
O O7 0.920789 0.574284 0.951558
O O8 0.290280 0.775403 0.691415
O O9 0.455382 0.808520 0.675268
O O10 0.500000 0.500000 0.690903
O O11 0.439998 0.326020 0.678775
#
# Coordination Sequence:
#
# PCOD9560902 Si02
#       7
#    16  16   8  16  16   4   8
#     4  11  23  38  67 100 139 180 219 273 354 419
#     4  11  26  47  68  94 129 178 239 284 336 405
#     4   9  24  44  66  93 136 170 224 289 334 402
#     4  10  20  38  63  98 141 177 213 271 346 421
#     4  12  24  41  67 102 139 182 221 284 358 423
#     4  12  28  52  72  88 128 182 240 296 320 400
#     4  11  20  38  62  99 148 174 218 279 340 430
#
# _framework density 19.732890999999999
#
# number of rings (size 3 to 8) (size 9 to 14) (size 15 to 20)
#    0.000    1.143    4.762    1.143    5.333    0.000 
#    0.000    0.000    0.000    0.000    0.000    0.000 
#    0.000    0.000    0.000    0.000    0.000    0.000 
#
# Total GULP energy -234278.730556 kJ/mol
# GULP energy per Si atom -5578.065013 kJ/mol
# Density = 1.968798 g / cm^3
# Si number density = 19.732891 Si / 1000 Ang^3
#
#
#
# Elastic Constant Matrix: (Units=GPa)
#
#
# Indices 1 2 3 4 5 6 
#
# 1 68.0699 36.7588 43.5733 0.0000 0.0000 0.0000
# 2 36.7588 68.0699 43.5733 0.0000 0.0000 0.0000
# 3 43.5733 43.5733 153.2733 0.0000 0.0000 0.0000
# 4 0.0000 0.0000 0.0000 27.1248 0.0000 0.0000
# 5 0.0000 0.0000 0.0000 0.0000 27.1248 0.0000
# 6 0.0000 0.0000 0.0000 0.0000 0.0000 13.4949
#
#
#
# Elastic Compliance Matrix: (Units=1/GPa)
#
#
# Indices 1 2 3 4 5 6 
#
# 1 0.022215 -0.009723 -0.003551 0.000000 0.000000 0.000000
# 2 -0.009723 0.022215 -0.003551 0.000000 0.000000 0.000000
# 3 -0.003551 -0.003551 0.008543 0.000000 0.000000 0.000000
# 4 0.000000 0.000000 0.000000 0.036867 0.000000 0.000000
# 5 0.000000 0.000000 0.000000 0.000000 0.036867 0.000000
# 6 0.000000 0.000000 0.000000 0.000000 0.000000 0.074102
#
#
# Mechanical properties :
#
#
# Convention : Reuss Voigt Hill
#
# Bulk Modulus (GPa) = 51.75495 59.69155 55.72325
# Shear Modulus (GPa) = 20.75559 24.58274 22.66917
#
# Velocity S-wave (km/s) = 3.24671 3.53338 3.39307
# Velocity P-wave (km/s) = 6.35134 6.85287 6.60687
#
# Compressibility (1/GPa) = 0.01932182
#
# Stress axis : x y z
#
# Youngs Moduli (GPa) = 45.01553 45.01552 117.04970
#
# Poissons Ratio (x) = 0.43769 0.41566
# Poissons Ratio (y) = 0.43769 0.41566
# Poissons Ratio (z) = 0.15986 0.15986
#
# Static dielectric constant tensor:
#      x y z
#    x 1.704030 0.000000 0.000000 
#    y 0.000000 1.704030 0.000000 
#    z 0.000000 0.000000 1.706020 
# 
# From -- ./inp_files/7241.got.cif
#   From: 2010.05.17/outbox.cif.g08.bks.cpg/sg122_4_cif.got.tgz:7241.got - 2010.05.20 11:37:33.
