data_PCOD9560223
_publ_section_title
;
Structure prediction by ZEFSAII (Michael W. Deem and Ramdas Pophale) SiO2 
 PCOD9560223
Probable space group: I -4 2 M
;
_chemical_formula_sum "Si O2"
_cell_formula_units_Z 112
_cell_length_a 18.399282
_cell_length_b 18.399282
_cell_length_c 14.615881
_cell_angle_alpha 90.000000
_cell_angle_beta 90.000000
_cell_angle_gamma 90.000000
_cell_volume 4947.966492
_symmetry_space_group_name_H-M "I -4 2 M"
_symmetry_group_IT_number 121
_symmetry_cell_setting 'tetragonal'
loop_
_space_group_symop_operation_xyz
x,y,z
y,-x,-z
-x,-y,z
-y,x,-z
x,-y,-z
-x,y,-z
-y,-x,z
y,x,z
1/2+x,1/2+y,1/2+z
1/2+y,1/2-x,1/2-z
1/2-x,1/2-y,1/2+z
1/2-y,1/2+x,1/2-z
1/2+x,1/2-y,1/2-z
1/2-x,1/2+y,1/2-z
1/2-y,1/2-x,1/2+z
1/2+y,1/2+x,1/2+z
loop_
_atom_site_type_symbol
_atom_site_label
_atom_site_fract_x
_atom_site_fract_y
_atom_site_fract_z
Si Si1 0.083217 0.202190 0.361995
Si Si2 0.304918 0.582480 0.638728
Si Si3 0.804919 0.082479 0.861270
Si Si4 0.661060 0.847912 0.144878
Si Si5 0.161059 0.347910 0.355124
Si Si6 0.499999 0.916007 0.609933
Si Si7 0.797808 0.916781 0.638006
O O1 0.138214 0.138214 0.389846
O O2 0.081296 0.200747 0.250169
O O3 0.115011 0.280472 0.392479
O O4 0.999999 0.192696 0.391925
O O5 0.380968 0.619033 0.614703
O O6 0.296185 0.500000 0.607518
O O7 0.239508 0.633369 0.604868
O O8 0.299252 0.581298 0.750168
O O9 0.880969 0.119032 0.885296
O O10 0.739509 0.133368 0.895131
O O11 0.673535 0.826467 0.250001
O O12 0.615011 0.780475 0.107523
O O13 0.619989 0.925313 0.143316
O O14 0.119987 0.425310 0.356686
O O15 0.500000 0.910483 0.500000
O O16 0.500000 0.000000 0.636317
O O17 0.861782 0.861782 0.610155
#
# Coordination Sequence:
#
# PCOD9560223 Si02
#       7
#    16  16  16  16  16  16  16
#     4   9  17  28  45  73 106 138 175 220 269 313
#     4   9  16  27  44  72 104 135 175 223 269 308
#     4   9  16  27  44  72 104 135 175 223 269 308
#     4  10  19  32  53  76 101 137 179 219 259 316
#     4  10  19  32  53  76 101 137 179 219 259 316
#     4  11  24  36  50  78 111 139 169 215 266 313
#     4   9  17  28  45  73 106 138 175 220 269 313
#
# _framework density 22.635560999999999
#
# number of rings (size 3 to 8) (size 9 to 14) (size 15 to 20)
#    0.000    2.429    1.429    1.714    4.000    4.000 
#    0.000    2.857    0.000    3.429    0.000    0.000 
#    0.000    1.143    0.000    6.000    0.000    5.714 
#
# Total GULP energy -312822.693291 kJ/mol
# GULP energy per Si atom -5586.119523 kJ/mol
# Density = 2.258404 g / cm^3
# Si number density = 22.635561 Si / 1000 Ang^3
#
#
#
# Elastic Constant Matrix: (Units=GPa)
#
#
# Indices 1 2 3 4 5 6 
#
# 1 159.1963 131.9051 -4.1304 0.0000 0.0000 0.0000
# 2 131.9051 159.2153 -4.1307 0.0000 0.0000 0.0000
# 3 -4.1304 -4.1307 87.1989 0.0000 0.0000 0.0000
# 4 0.0000 0.0000 0.0000 -34.8424 0.0000 0.0000
# 5 0.0000 0.0000 0.0000 0.0000 -34.8407 0.0000
# 6 0.0000 0.0000 0.0000 0.0000 0.0000 19.0888
#
#
#
# Elastic Compliance Matrix: (Units=1/GPa)
#
#
# Indices 1 2 3 4 5 6 
#
# 1 0.020036 -0.016595 0.000163 0.000000 0.000000 0.000000
# 2 -0.016595 0.020033 0.000163 0.000000 0.000000 0.000000
# 3 0.000163 0.000163 0.011483 0.000000 0.000000 0.000000
# 4 0.000000 0.000000 0.000000 -0.028701 0.000000 0.000000
# 5 0.000000 0.000000 0.000000 0.000000 -0.028702 0.000000
# 6 0.000000 0.000000 0.000000 0.000000 0.000000 0.052387
#
#
# Mechanical properties :
#
#
# Convention : Reuss Voigt Hill
#
# Bulk Modulus (GPa) = 52.59087 72.54429 62.56758
# Shear Modulus (GPa) = 58.53969 8.67891 33.60930
#
# Velocity S-wave (km/s) = 5.09097 1.96023 3.85749
# Velocity P-wave (km/s) = 7.60536 6.10260 6.89504
#
# Compressibility (1/GPa) = 0.01901471
#
# Stress axis : x y z
#
# Youngs Moduli (GPa) = 49.91114 49.91708 87.08167
#
# Poissons Ratio (x) = 0.82836 -0.01419
# Poissons Ratio (y) = 0.82826 -0.01419
# Poissons Ratio (z) = -0.00813 -0.00813
#
# Static dielectric constant tensor:
#      x y z
#    x 1.839540 0.000000 0.000000 
#    y 0.000000 1.839540 0.000000 
#    z 0.000000 0.000000 1.862230 
# 
# From -- ./inp_files/6634.got.cif
#   From: 2010.05.17/outbox.cif.g08.bks.cpg/sg121_4_cif.got.tgz:6634.got - 2010.05.20 11:32:06.
