data_PCOD9560890
_publ_section_title
;
Structure prediction by ZEFSAII (Michael W. Deem and Ramdas Pophale) SiO2 
 PCOD9560890
Probable space group: I -4 2 D
;
_chemical_formula_sum "Si O2"
_cell_formula_units_Z 128
_cell_length_a 20.764156
_cell_length_b 20.764156
_cell_length_c 11.478192
_cell_angle_alpha 90.000000
_cell_angle_beta 90.000000
_cell_angle_gamma 90.000000
_cell_volume 4948.824483
_symmetry_space_group_name_H-M "I -4 2 D"
_symmetry_group_IT_number 122
_symmetry_cell_setting 'tetragonal'
loop_
_space_group_symop_operation_xyz
x,y,z
y,-x,-z
-x,-y,z
-y,x,-z
x,1/2-y,1/4-z
-x,1/2+y,1/4-z
-y,1/2-x,1/4+z
y,1/2+x,1/4+z
1/2+x,1/2+y,1/2+z
1/2+y,1/2-x,1/2-z
1/2-x,1/2-y,1/2+z
1/2-y,1/2+x,1/2-z
1/2+x,-y,3/4-z
1/2-x,y,3/4-z
1/2-y,-x,3/4+z
1/2+y,x,3/4+z
loop_
_atom_site_type_symbol
_atom_site_label
_atom_site_fract_x
_atom_site_fract_y
_atom_site_fract_z
Si Si1 0.923011 0.870735 0.626425
Si Si2 0.791256 0.680360 0.243509
Si Si3 0.526037 0.309334 0.544076
Si Si4 0.608427 0.935351 0.368703
Si Si5 0.766632 0.495238 0.662567
Si Si6 0.282047 0.130910 0.491082
Si Si7 0.992128 0.106771 0.249114
Si Si8 0.644553 0.775198 0.959700
O O1 0.903166 0.907710 0.509383
O O2 0.875961 0.818613 0.678726
O O3 0.997517 0.853825 0.610505
O O4 0.920879 0.921921 0.731140
O O5 0.799473 0.603902 0.281190
O O6 0.722171 0.714220 0.268169
O O7 0.848044 0.712371 0.319461
O O8 0.790873 0.674091 0.103983
O O9 0.504370 0.250000 0.625000
O O10 0.497052 0.298164 0.417113
O O11 0.503552 0.371775 0.615195
O O12 0.648081 0.887290 0.447226
O O13 0.542218 0.940014 0.438714
O O14 0.756257 0.563899 0.730178
O O15 0.828206 0.504334 0.578953
O O16 0.769139 0.421741 0.711706
O O17 0.250000 0.159532 0.375000
#
# Coordination Sequence:
#
# PCOD9560890 Si02
#       8
#    16  16  16  16  16  16  16  16
#     4  12  22  41  59  93 135 171 215 273 330 413
#     4  10  20  37  66  95 123 171 216 275 338 391
#     4   9  16  35  57  87 118 163 215 258 327 392
#     4  12  25  38  61  95 129 174 218 267 343 404
#     4  10  22  37  62  94 124 165 226 277 321 396
#     4  11  23  41  62  95 130 170 225 274 334 405
#     4  11  22  38  61  89 132 175 215 269 332 406
#     4  11  20  38  65  96 122 167 223 272 333 397
#
# _framework density 25.864727999999999
#
# number of rings (size 3 to 8) (size 9 to 14) (size 15 to 20)
#    0.000    1.250    5.000    3.375    1.750    0.000 
#    0.000    0.000    2.750    0.000    0.000    0.000 
#    0.000    0.000    0.000    0.000    0.000    0.000 
#
# Total GULP energy -356846.635932 kJ/mol
# GULP energy per Si atom -5575.728686 kJ/mol
# Density = 2.580586 g / cm^3
# Si number density = 25.864728 Si / 1000 Ang^3
#
#
#
# Elastic Constant Matrix: (Units=GPa)
#
#
# Indices 1 2 3 4 5 6 
#
# 1 92.0436 20.1656 36.9860 0.0000 0.0000 0.0000
# 2 20.1656 92.0436 36.9860 0.0000 0.0000 0.0000
# 3 36.9860 36.9860 151.4870 0.0000 0.0000 0.0000
# 4 0.0000 0.0000 0.0000 35.0006 0.0000 0.0000
# 5 0.0000 0.0000 0.0000 0.0000 35.0006 0.0000
# 6 0.0000 0.0000 0.0000 0.0000 0.0000 202.7506
#
#
#
# Elastic Compliance Matrix: (Units=1/GPa)
#
#
# Indices 1 2 3 4 5 6 
#
# 1 0.012267 -0.001645 -0.002593 0.000000 0.000000 0.000000
# 2 -0.001645 0.012267 -0.002593 0.000000 0.000000 0.000000
# 3 -0.002593 -0.002593 0.007868 0.000000 0.000000 0.000000
# 4 0.000000 0.000000 0.000000 0.028571 0.000000 0.000000
# 5 0.000000 0.000000 0.000000 0.000000 0.028571 0.000000
# 6 0.000000 0.000000 0.000000 0.000000 0.000000 0.004932
#
#
# Mechanical properties :
#
#
# Convention : Reuss Voigt Hill
#
# Bulk Modulus (GPa) = 53.36909 58.20550 55.78729
# Shear Modulus (GPa) = 43.71188 70.64614 57.17901
#
# Velocity S-wave (km/s) = 4.11544 5.23192 4.70690
# Velocity P-wave (km/s) = 6.57733 7.68440 7.15231
#
# Compressibility (1/GPa) = 0.01873744
#
# Stress axis : x y z
#
# Youngs Moduli (GPa) = 81.51972 81.51972 127.10469
#
# Poissons Ratio (x) = 0.13414 0.32962
# Poissons Ratio (y) = 0.13414 0.32962
# Poissons Ratio (z) = 0.21140 0.21140
#
# Static dielectric constant tensor:
#      x y z
#    x 2.062000 0.000000 0.000000 
#    y 0.000000 2.062000 0.000000 
#    z 0.000000 0.000000 1.592900 
# 
# From -- ./inp_files/4622.got.cif
#   From: 2010.05.17/outbox.cif.g08.bks.cpg/sg122_3_cif.got.tgz:4622.got - 2010.05.20 11:37:33.
