data_PCOD9560644
_publ_section_title
;
Structure prediction by ZEFSAII (Michael W. Deem and Ramdas Pophale) SiO2 
 PCOD9560644
Probable space group: I -4 2 M
;
_chemical_formula_sum "Si O2"
_cell_formula_units_Z 64
_cell_length_a 14.659390
_cell_length_b 14.659390
_cell_length_c 13.875603
_cell_angle_alpha 90.000000
_cell_angle_beta 90.000000
_cell_angle_gamma 90.000000
_cell_volume 2981.835381
_symmetry_space_group_name_H-M "I -4 2 M"
_symmetry_group_IT_number 121
_symmetry_cell_setting 'tetragonal'
loop_
_space_group_symop_operation_xyz
x,y,z
y,-x,-z
-x,-y,z
-y,x,-z
x,-y,-z
-x,y,-z
-y,-x,z
y,x,z
1/2+x,1/2+y,1/2+z
1/2+y,1/2-x,1/2-z
1/2-x,1/2-y,1/2+z
1/2-y,1/2+x,1/2-z
1/2+x,1/2-y,1/2-z
1/2-x,1/2+y,1/2-z
1/2-y,1/2-x,1/2+z
1/2+y,1/2+x,1/2+z
loop_
_atom_site_type_symbol
_atom_site_label
_atom_site_fract_x
_atom_site_fract_y
_atom_site_fract_z
Si Si1 0.973490 0.334344 0.147655
Si Si2 0.643776 0.206303 0.050726
Si Si3 0.646643 0.056170 0.369288
Si Si4 0.003440 0.857014 0.116001
O O1 0.889082 0.308745 0.078714
O O2 0.936200 0.353212 0.254301
O O3 0.041886 0.411922 0.109800
O O4 0.025967 0.239704 0.155932
O O5 0.706707 0.293294 0.076997
O O6 0.544917 0.183317 0.101387
O O7 0.622077 0.206309 0.936785
O O8 0.930422 0.930422 0.149052
O O9 0.102019 0.897982 0.145430
O O10 0.000000 0.855130 0.000000
#
# Coordination Sequence:
#
# PCOD9560644 Si02
#       4
#    16  16  16  16
#     4  12  22  41  68  99 134 178 233 294 356 422
#     4  11  25  44  67  98 139 185 232 285 353 432
#     4  11  25  43  67  98 141 182 231 292 360 416
#     4   9  19  36  59  93 135 175 219 281 356 424
#
# _framework density 21.463291999999999
#
# number of rings (size 3 to 8) (size 9 to 14) (size 15 to 20)
#    0.000    1.250    2.500    4.500    0.000    8.000 
#    0.000    0.000    0.000    6.000    0.000    0.000 
#    0.000    0.000    0.000    0.000    0.000    0.000 
#
# Total GULP energy -178137.475018 kJ/mol
# GULP energy per Si atom -5566.796094 kJ/mol
# Density = 2.141444 g / cm^3
# Si number density = 21.463292 Si / 1000 Ang^3
#
#
#
# Elastic Constant Matrix: (Units=GPa)
#
#
# Indices 1 2 3 4 5 6 
#
# 1 127.4640 55.7521 19.1777 0.0000 0.0000 0.0000
# 2 55.7521 127.4638 19.1786 0.0000 0.0000 0.0000
# 3 19.1777 19.1786 70.7747 0.0000 0.0000 0.0000
# 4 0.0000 0.0000 0.0000 15.5059 0.0000 0.0000
# 5 0.0000 0.0000 0.0000 0.0000 15.5068 0.0000
# 6 0.0000 0.0000 0.0000 0.0000 0.0000 43.7564
#
#
#
# Elastic Compliance Matrix: (Units=1/GPa)
#
#
# Indices 1 2 3 4 5 6 
#
# 1 0.009865 -0.004079 -0.001568 0.000000 0.000000 0.000000
# 2 -0.004079 0.009866 -0.001568 0.000000 0.000000 0.000000
# 3 -0.001568 -0.001568 0.014979 0.000000 0.000000 0.000000
# 4 0.000000 0.000000 0.000000 0.064491 0.000000 0.000000
# 5 0.000000 0.000000 0.000000 0.000000 0.064488 0.000000
# 6 0.000000 0.000000 0.000000 0.000000 0.000000 0.022854
#
#
# Mechanical properties :
#
#
# Convention : Reuss Voigt Hill
#
# Bulk Modulus (GPa) = 49.30990 57.10215 53.20603
# Shear Modulus (GPa) = 24.06933 30.39345 27.23139
#
# Velocity S-wave (km/s) = 3.35239 3.76715 3.56581
# Velocity P-wave (km/s) = 6.16511 6.75161 6.46501
#
# Compressibility (1/GPa) = 0.02027990
#
# Stress axis : x y z
#
# Youngs Moduli (GPa) = 101.36371 101.36313 66.75979
#
# Poissons Ratio (x) = 0.41348 0.10467
# Poissons Ratio (y) = 0.41348 0.10468
# Poissons Ratio (z) = 0.15892 0.15894
#
# Static dielectric constant tensor:
#      x y z
#    x 1.883580 0.000000 0.000000 
#    y 0.000000 1.883580 0.000000 
#    z 0.000000 0.000000 1.808230 
# 
# From -- ./inp_files/4074.got.cif
#   From: 2010.05.17/outbox.cif.g08.bks.cpg/sg121_3_cif.got.tgz:4074.got - 2010.05.20 11:32:06.
