data_PCOD9560868
_publ_section_title
;
Structure prediction by ZEFSAII (Michael W. Deem and Ramdas Pophale) SiO2 
 PCOD9560868
Probable space group: I -4 2 D
;
_chemical_formula_sum "Si O2"
_cell_formula_units_Z 56
_cell_length_a 19.388645
_cell_length_b 19.388645
_cell_length_c 7.361654
_cell_angle_alpha 90.000000
_cell_angle_beta 90.000000
_cell_angle_gamma 90.000000
_cell_volume 2767.389695
_symmetry_space_group_name_H-M "I -4 2 D"
_symmetry_group_IT_number 122
_symmetry_cell_setting 'tetragonal'
loop_
_space_group_symop_operation_xyz
x,y,z
y,-x,-z
-x,-y,z
-y,x,-z
x,1/2-y,1/4-z
-x,1/2+y,1/4-z
-y,1/2-x,1/4+z
y,1/2+x,1/4+z
1/2+x,1/2+y,1/2+z
1/2+y,1/2-x,1/2-z
1/2-x,1/2-y,1/2+z
1/2-y,1/2+x,1/2-z
1/2+x,-y,3/4-z
1/2-x,y,3/4-z
1/2-y,-x,3/4+z
1/2+y,x,3/4+z
loop_
_atom_site_type_symbol
_atom_site_label
_atom_site_fract_x
_atom_site_fract_y
_atom_site_fract_z
Si Si1 0.728006 0.250000 0.125000
Si Si2 0.112364 0.650853 0.645542
Si Si3 0.880965 0.813558 0.025036
Si Si4 0.452686 0.328083 0.159127
O O1 0.669285 0.204320 0.230597
O O2 0.778144 0.309785 0.201505
O O3 0.135814 0.637331 0.438522
O O4 0.121489 0.583761 0.767870
O O5 0.033649 0.672341 0.631481
O O6 0.919820 0.750000 0.125000
O O7 0.926464 0.843586 0.862832
O O8 0.427564 0.250000 0.125000
#
# Coordination Sequence:
#
# PCOD9560868 Si02
#       4
#     8  16  16  16
#     4  10  20  36  68 100 126 164 214 286 342 374
#     4  11  26  42  67  98 135 180 217 280 341 404
#     4  10  23  40  65 100 137 160 226 287 328 399
#     4  12  24  44  67  98 137 176 228 272 341 417
#
# _framework density 20.235675000000001
#
# number of rings (size 3 to 8) (size 9 to 14) (size 15 to 20)
#    0.000    1.143    7.143    0.000   12.000    2.857 
#    2.571    0.000    0.000    0.000    0.000    0.000 
#    0.000    0.000    0.000    0.000    0.000    0.000 
#
# Total GULP energy -155886.136484 kJ/mol
# GULP energy per Si atom -5567.362017 kJ/mol
# Density = 2.018962 g / cm^3
# Si number density = 20.235675 Si / 1000 Ang^3
#
#
#
# Elastic Constant Matrix: (Units=GPa)
#
#
# Indices 1 2 3 4 5 6 
#
# 1 94.3972 34.7645 47.4866 0.0000 0.0000 0.0000
# 2 34.7645 94.3972 47.4866 0.0000 0.0000 0.0000
# 3 47.4866 47.4866 112.7951 0.0000 0.0000 0.0000
# 4 0.0000 0.0000 0.0000 19.2449 0.0000 0.0000
# 5 0.0000 0.0000 0.0000 0.0000 19.2449 0.0000
# 6 0.0000 0.0000 0.0000 0.0000 0.0000 18.6183
#
#
#
# Elastic Compliance Matrix: (Units=1/GPa)
#
#
# Indices 1 2 3 4 5 6 
#
# 1 0.013991 -0.002778 -0.004721 0.000000 0.000000 0.000000
# 2 -0.002778 0.013991 -0.004721 0.000000 0.000000 0.000000
# 3 -0.004721 -0.004721 0.012841 0.000000 0.000000 0.000000
# 4 0.000000 0.000000 0.000000 0.051962 0.000000 0.000000
# 5 0.000000 0.000000 0.000000 0.000000 0.051962 0.000000
# 6 0.000000 0.000000 0.000000 0.000000 0.000000 0.053711
#
#
# Mechanical properties :
#
#
# Convention : Reuss Voigt Hill
#
# Bulk Modulus (GPa) = 61.03470 62.34055 61.68763
# Shear Modulus (GPa) = 21.89542 22.87842 22.38692
#
# Velocity S-wave (km/s) = 3.29298 3.36608 3.32973
# Velocity P-wave (km/s) = 6.68473 6.78097 6.73302
#
# Compressibility (1/GPa) = 0.01638412
#
# Stress axis : x y z
#
# Youngs Moduli (GPa) = 71.47238 71.47238 77.87798
#
# Poissons Ratio (x) = 0.19854 0.36765
# Poissons Ratio (y) = 0.19854 0.36765
# Poissons Ratio (z) = 0.33741 0.33741
#
# Static dielectric constant tensor:
#      x y z
#    x 1.734320 0.000000 0.000000 
#    y 0.000000 1.734320 0.000000 
#    z 0.000000 0.000000 1.845910 
# 
# From -- ./inp_files/2280.got.cif
#   From: 2010.05.17/outbox.cif.g08.bks.cpg/sg122_2_cif.got.tgz:2280.got - 2010.05.20 11:37:33.
