data_PCOD9560179
_publ_section_title
;
Structure prediction by ZEFSAII (Michael W. Deem and Ramdas Pophale) SiO2 
 PCOD9560179
Probable space group: I -4 2 M
;
_chemical_formula_sum "Si O2"
_cell_formula_units_Z 128
_cell_length_a 19.921045
_cell_length_b 19.921045
_cell_length_c 18.437787
_cell_angle_alpha 90.000000
_cell_angle_beta 90.000000
_cell_angle_gamma 90.000000
_cell_volume 7316.999520
_symmetry_space_group_name_H-M "I -4 2 M"
_symmetry_group_IT_number 121
_symmetry_cell_setting 'tetragonal'
loop_
_space_group_symop_operation_xyz
x,y,z
y,-x,-z
-x,-y,z
-y,x,-z
x,-y,-z
-x,y,-z
-y,-x,z
y,x,z
1/2+x,1/2+y,1/2+z
1/2+y,1/2-x,1/2-z
1/2-x,1/2-y,1/2+z
1/2-y,1/2+x,1/2-z
1/2+x,1/2-y,1/2-z
1/2-x,1/2+y,1/2-z
1/2-y,1/2-x,1/2+z
1/2+y,1/2+x,1/2+z
loop_
_atom_site_type_symbol
_atom_site_label
_atom_site_fract_x
_atom_site_fract_y
_atom_site_fract_z
Si Si1 0.452785 0.656804 0.058403
Si Si2 0.145631 0.739443 0.944663
Si Si3 0.689754 0.419891 0.576106
Si Si4 0.259424 0.851265 0.513032
Si Si5 0.012085 0.215965 0.293923
Si Si6 0.761621 0.870755 0.765604
Si Si7 0.672046 0.560203 0.642431
Si Si8 0.342552 0.232429 0.817459
O O1 0.389461 0.610539 0.076953
O O2 0.423398 0.724550 0.020536
O O3 0.489916 0.674205 0.132261
O O4 0.500000 0.622772 0.000000
O O5 0.206774 0.793227 0.947221
O O6 0.103145 0.760108 0.874118
O O7 0.098397 0.758410 0.012732
O O8 0.180057 0.667662 0.959198
O O9 0.622941 0.377060 0.560879
O O10 0.719386 0.393138 0.652447
O O11 0.672829 0.497343 0.588421
O O12 0.198559 0.801442 0.492813
O O13 0.280274 0.833526 0.596058
O O14 0.030625 0.172324 0.223135
O O15 0.078386 0.262157 0.302933
O O16 0.939174 0.247149 0.278943
O O17 0.823313 0.823313 0.739212
O O18 0.696679 0.823650 0.772418
O O19 0.610125 0.610125 0.631100
O O20 0.303160 0.303160 0.802872
#
# Coordination Sequence:
#
# PCOD9560179 Si02
#       8
#    16  16  16  16  16  16  16  16
#     4  10  21  37  55  73  97 134 176 216 265 320
#     4   9  15  26  44  67  94 125 162 204 245 289
#     4   9  16  27  43  64  94 130 169 202 232 287
#     4   8  14  28  51  72  92 122 164 211 256 300
#     4  10  20  34  51  75 106 136 174 218 265 319
#     4   9  17  30  50  75 101 132 173 219 263 313
#     4  10  19  28  41  67 102 136 164 199 248 297
#     4   9  15  29  53  72  94 137 179 213 262 319
#
# _framework density 17.493510000000001
#
# number of rings (size 3 to 8) (size 9 to 14) (size 15 to 20)
#    0.000    2.750    1.250    2.250    0.000    0.875 
#    2.250    0.000    0.000    6.750    0.000    0.000 
#    0.000    2.000    0.000    0.000    0.000    0.000 
#
# Total GULP energy -356316.105237 kJ/mol
# GULP energy per Si atom -5567.439144 kJ/mol
# Density = 1.745369 g / cm^3
# Si number density = 17.493510 Si / 1000 Ang^3
#
#
#
# Elastic Constant Matrix: (Units=GPa)
#
#
# Indices 1 2 3 4 5 6 
#
# 1 53.0714 22.3567 6.2980 0.0000 0.0000 0.0000
# 2 22.3567 53.0712 6.2980 0.0000 0.0000 0.0000
# 3 6.2980 6.2980 50.8005 0.0000 0.0000 0.0000
# 4 0.0000 0.0000 0.0000 20.9200 0.0000 0.0000
# 5 0.0000 0.0000 0.0000 0.0000 20.9199 0.0000
# 6 0.0000 0.0000 0.0000 0.0000 0.0000 11.7280
#
#
#
# Elastic Compliance Matrix: (Units=1/GPa)
#
#
# Indices 1 2 3 4 5 6 
#
# 1 0.023048 -0.009510 -0.001678 0.000000 0.000000 0.000000
# 2 -0.009510 0.023048 -0.001678 0.000000 0.000000 0.000000
# 3 -0.001678 -0.001678 0.020101 0.000000 0.000000 0.000000
# 4 0.000000 0.000000 0.000000 0.047801 0.000000 0.000000
# 5 0.000000 0.000000 0.000000 0.000000 0.047801 0.000000
# 6 0.000000 0.000000 0.000000 0.000000 0.000000 0.085266
#
#
# Mechanical properties :
#
#
# Convention : Reuss Voigt Hill
#
# Bulk Modulus (GPa) = 24.71367 25.20537 24.95952
# Shear Modulus (GPa) = 17.46504 18.84628 18.15566
#
# Velocity S-wave (km/s) = 3.16313 3.28583 3.22507
# Velocity P-wave (km/s) = 5.24390 5.36985 5.30725
#
# Compressibility (1/GPa) = 0.04046344
#
# Stress axis : x y z
#
# Youngs Moduli (GPa) = 43.38803 43.38787 49.74882
#
# Poissons Ratio (x) = 0.41261 0.08350
# Poissons Ratio (y) = 0.41262 0.08350
# Poissons Ratio (z) = 0.07282 0.07282
#
# Static dielectric constant tensor:
#      x y z
#    x 1.605510 0.000000 0.000000 
#    y 0.000000 1.605510 0.000000 
#    z 0.000000 0.000000 1.641190 
# 
# From -- ./inp_files/5654.got.cif
#   From: 2010.05.17/outbox.cif.g08.bks.cpg/sg121_3_cif.got.tgz:5654.got - 2010.05.20 11:32:06.
