data_PCOD9560065
_publ_section_title
;
Structure prediction by ZEFSAII (Michael W. Deem and Ramdas Pophale) SiO2 
 PCOD9560065
Probable space group: I -4 C 2
;
_chemical_formula_sum "Si O2"
_cell_formula_units_Z 64
_cell_length_a 12.523880
_cell_length_b 12.523880
_cell_length_c 15.877051
_cell_angle_alpha 90.000000
_cell_angle_beta 90.000000
_cell_angle_gamma 90.000000
_cell_volume 2490.276872
_symmetry_space_group_name_H-M "I -4 C 2"
_symmetry_group_IT_number 120
_symmetry_cell_setting 'tetragonal'
loop_
_space_group_symop_operation_xyz
x,y,z
y,-x,-z
-x,-y,z
-y,x,-z
y,x,1/2-z
-y,-x,1/2-z
-x,y,1/2+z
x,-y,1/2+z
1/2+x,1/2+y,1/2+z
1/2+y,1/2-x,1/2-z
1/2-x,1/2-y,1/2+z
1/2-y,1/2+x,1/2-z
1/2+y,1/2+x,-z
1/2-y,1/2-x,-z
1/2-x,1/2+y,z
1/2+x,1/2-y,z
loop_
_atom_site_type_symbol
_atom_site_label
_atom_site_fract_x
_atom_site_fract_y
_atom_site_fract_z
Si Si1 0.018047 0.877822 0.361172
Si Si2 0.198026 0.632726 0.733074
Si Si3 0.789446 0.884288 0.994772
Si Si4 0.123398 0.502829 0.388314
O O1 0.048877 0.792213 0.290609
O O2 0.117921 0.878654 0.425852
O O3 0.919060 0.837309 0.416419
O O4 0.000000 0.000000 0.336783
O O5 0.256464 0.743537 0.750000
O O6 0.141099 0.587013 0.815889
O O7 0.115203 0.642879 0.657213
O O8 0.704467 0.973111 0.962347
O O9 0.724918 0.775083 0.000000
O O10 0.000000 0.500000 0.411505
#
# Coordination Sequence:
#
# PCOD9560065 Si02
#       4
#    16  16  16  16
#     4  12  27  50  74 111 154 196 260 316 375 466
#     4  12  26  45  77 110 147 201 245 312 385 440
#     4  12  27  46  77 109 149 203 247 317 381 445
#     4  12  26  51  74 110 153 192 258 312 370 464
#
# _framework density 25.699954000000002
#
# number of rings (size 3 to 8) (size 9 to 14) (size 15 to 20)
#    0.000    0.000    7.500    1.500    3.500    5.000 
#    0.000    0.000    0.000    0.000    0.000    0.000 
#    0.000    0.000    0.000    0.000    0.000    0.000 
#
# Total GULP energy -179887.142440 kJ/mol
# GULP energy per Si atom -5621.473201 kJ/mol
# Density = 2.564146 g / cm^3
# Si number density = 25.699954 Si / 1000 Ang^3
#
#
#
# Elastic Constant Matrix: (Units=GPa)
#
#
# Indices 1 2 3 4 5 6 
#
# 1 142.4322 34.0873 34.1454 0.0000 0.0000 0.0000
# 2 34.0873 142.4331 34.1456 0.0000 0.0000 0.0000
# 3 34.1454 34.1456 91.7318 0.0000 0.0000 0.0000
# 4 0.0000 0.0000 0.0000 24.2060 0.0000 0.0000
# 5 0.0000 0.0000 0.0000 0.0000 24.2055 0.0000
# 6 0.0000 0.0000 0.0000 0.0000 0.0000 59.7514
#
#
#
# Elastic Compliance Matrix: (Units=1/GPa)
#
#
# Indices 1 2 3 4 5 6 
#
# 1 0.007924 -0.001306 -0.002463 0.000000 0.000000 0.000000
# 2 -0.001306 0.007924 -0.002463 0.000000 0.000000 0.000000
# 3 -0.002463 -0.002463 0.012735 0.000000 0.000000 0.000000
# 4 0.000000 0.000000 0.000000 0.041312 0.000000 0.000000
# 5 0.000000 0.000000 0.000000 0.000000 0.041313 0.000000
# 6 0.000000 0.000000 0.000000 0.000000 0.000000 0.016736
#
#
# Mechanical properties :
#
#
# Convention : Reuss Voigt Hill
#
# Bulk Modulus (GPa) = 62.04373 64.59487 63.31930
# Shear Modulus (GPa) = 34.29773 39.91385 37.10579
#
# Velocity S-wave (km/s) = 3.65711 3.94518 3.80387
# Velocity P-wave (km/s) = 6.48279 6.77801 6.63204
#
# Compressibility (1/GPa) = 0.01611766
#
# Stress axis : x y z
#
# Youngs Moduli (GPa) = 126.19944 126.20018 78.52179
#
# Poissons Ratio (x) = 0.16479 0.19344
# Poissons Ratio (y) = 0.16479 0.19344
# Poissons Ratio (z) = 0.31089 0.31089
#
# Static dielectric constant tensor:
#      x y z
#    x 1.998900 0.000000 0.000000 
#    y 0.000000 1.998900 0.000000 
#    z 0.000000 0.000000 1.963530 
# 
# From -- ./inp_files/5001.got.cif
#   From: 2010.05.17/outbox.cif.g08.bks.cpg/sg120_3_cif.got.tgz:5001.got - 2010.05.20 11:28:13.
