data_PCOD9560297
_publ_section_title
;
Structure prediction by ZEFSAII (Michael W. Deem and Ramdas Pophale) SiO2 
 PCOD9560297
Probable space group: I -4 2 M
;
_chemical_formula_sum "Si O2"
_cell_formula_units_Z 80
_cell_length_a 28.511259
_cell_length_b 28.511259
_cell_length_c 5.103540
_cell_angle_alpha 90.000000
_cell_angle_beta 90.000000
_cell_angle_gamma 90.000000
_cell_volume 4148.626275
_symmetry_space_group_name_H-M "I -4 2 M"
_symmetry_group_IT_number 121
_symmetry_cell_setting 'tetragonal'
loop_
_space_group_symop_operation_xyz
x,y,z
y,-x,-z
-x,-y,z
-y,x,-z
x,-y,-z
-x,y,-z
-y,-x,z
y,x,z
1/2+x,1/2+y,1/2+z
1/2+y,1/2-x,1/2-z
1/2-x,1/2-y,1/2+z
1/2-y,1/2+x,1/2-z
1/2+x,1/2-y,1/2-z
1/2-x,1/2+y,1/2-z
1/2-y,1/2-x,1/2+z
1/2+y,1/2+x,1/2+z
loop_
_atom_site_type_symbol
_atom_site_label
_atom_site_fract_x
_atom_site_fract_y
_atom_site_fract_z
Si Si1 0.722060 0.185122 0.448285
Si Si2 0.180963 0.033828 0.246657
Si Si3 0.786282 0.467124 0.249907
Si Si4 0.130644 0.130644 0.262604
Si Si5 0.606944 0.857939 0.971285
Si Si6 0.675507 0.675507 0.256591
O O1 0.724344 0.204002 0.743513
O O2 0.681724 0.146247 0.469087
O O3 0.770145 0.167023 0.323072
O O4 0.234167 0.055181 0.226303
O O5 0.144603 0.076353 0.235517
O O6 0.177031 0.000000 0.500000
O O7 0.175629 0.000000 0.000000
O O8 0.794824 0.500000 0.500000
O O9 0.782067 0.500000 0.000000
O O10 0.828073 0.432262 0.179055
O O11 0.145422 0.145422 0.553747
O O12 0.160332 0.160332 0.046500
O O13 0.601725 0.878187 0.263997
#
# Coordination Sequence:
#
# PCOD9560297 Si02
#       6
#    16  16  16   8  16   8
#     4  10  20  33  48  70 109 156 188 221 265 314
#     4  10  22  40  60  83 112 144 181 230 284 342
#     4  10  20  35  56  80 111 148 186 229 282 335
#     4  12  24  37  60  85 106 140 184 239 290 337
#     4  10  20  33  51  76 109 145 184 228 273 323
#     4  12  22  33  52  80 110 141 192 231 260 325
#
# _framework density 19.283491999999999
#
# number of rings (size 3 to 8) (size 9 to 14) (size 15 to 20)
#    0.000    1.600    0.000    5.400    0.000    6.400 
#    0.000    0.000    0.000    1.800    0.000    0.000 
#    0.000   28.000    0.000    0.000    0.000    0.000 
#
# Total GULP energy -223025.927045 kJ/mol
# GULP energy per Si atom -5575.648176 kJ/mol
# Density = 1.923960 g / cm^3
# Si number density = 19.283492 Si / 1000 Ang^3
#
#
#
# Elastic Constant Matrix: (Units=GPa)
#
#
# Indices 1 2 3 4 5 6 
#
# 1 54.8469 27.9168 19.6209 0.0000 0.0000 0.0000
# 2 27.9168 54.8469 19.6209 0.0000 0.0000 0.0000
# 3 19.6209 19.6209 116.0837 0.0000 0.0000 0.0000
# 4 0.0000 0.0000 0.0000 8.0881 0.0000 0.0000
# 5 0.0000 0.0000 0.0000 0.0000 8.0881 0.0000
# 6 0.0000 0.0000 0.0000 0.0000 0.0000 3.4635
#
#
#
# Elastic Compliance Matrix: (Units=1/GPa)
#
#
# Indices 1 2 3 4 5 6 
#
# 1 0.025134 -0.011999 -0.002220 0.000000 0.000000 0.000000
# 2 -0.011999 0.025134 -0.002220 0.000000 0.000000 0.000000
# 3 -0.002220 -0.002220 0.009365 0.000000 0.000000 0.000000
# 4 0.000000 0.000000 0.000000 0.123638 0.000000 0.000000
# 5 0.000000 0.000000 0.000000 0.000000 0.123638 0.000000
# 6 0.000000 0.000000 0.000000 0.000000 0.000000 0.288728
#
#
# Mechanical properties :
#
#
# Convention : Reuss Voigt Hill
#
# Bulk Modulus (GPa) = 37.37641 40.01054 38.69347
# Shear Modulus (GPa) = 7.84393 14.50252 11.17323
#
# Velocity S-wave (km/s) = 2.01904 2.74536 2.40972
# Velocity P-wave (km/s) = 4.98598 5.55365 5.27745
#
# Compressibility (1/GPa) = 0.02675484
#
# Stress axis : x y z
#
# Youngs Moduli (GPa) = 39.78640 39.78640 106.78054
#
# Poissons Ratio (x) = 0.47739 0.23707
# Poissons Ratio (y) = 0.47739 0.23707
# Poissons Ratio (z) = 0.08833 0.08833
#
# Static dielectric constant tensor:
#      x y z
#    x 1.764040 0.000000 0.000000 
#    y 0.000000 1.764040 0.000000 
#    z 0.000000 0.000000 1.790080 
# 
# From -- ./inp_files/612.got.cif
#   From: 2010.05.17/outbox.cif.g08.bks.cpg/sg121_1_cif.got.tgz:612.got - 2010.05.20 11:32:06.
