data_PCOD9560039
_publ_section_title
;
Structure prediction by ZEFSAII (Michael W. Deem and Ramdas Pophale) SiO2 
 PCOD9560039
Probable space group: I -4 C 2
;
_chemical_formula_sum "Si O2"
_cell_formula_units_Z 80
_cell_length_a 11.566193
_cell_length_b 11.566193
_cell_length_c 28.672358
_cell_angle_alpha 90.000000
_cell_angle_beta 90.000000
_cell_angle_gamma 90.000000
_cell_volume 3835.696890
_symmetry_space_group_name_H-M "I -4 C 2"
_symmetry_group_IT_number 120
_symmetry_cell_setting 'tetragonal'
loop_
_space_group_symop_operation_xyz
x,y,z
y,-x,-z
-x,-y,z
-y,x,-z
y,x,1/2-z
-y,-x,1/2-z
-x,y,1/2+z
x,-y,1/2+z
1/2+x,1/2+y,1/2+z
1/2+y,1/2-x,1/2-z
1/2-x,1/2-y,1/2+z
1/2-y,1/2+x,1/2-z
1/2+y,1/2+x,-z
1/2-y,1/2-x,-z
1/2-x,1/2+y,z
1/2+x,1/2-y,z
loop_
_atom_site_type_symbol
_atom_site_label
_atom_site_fract_x
_atom_site_fract_y
_atom_site_fract_z
Si Si1 0.695951 0.987643 0.638951
Si Si2 0.899568 0.094156 0.303023
Si Si3 0.361991 0.527138 0.555655
Si Si4 0.815150 0.510254 0.367160
Si Si5 0.416219 0.240546 0.031556
O O1 0.793311 0.957634 0.675454
O O2 0.772605 0.021408 0.593378
O O3 0.614005 0.874367 0.639180
O O4 0.609070 0.093076 0.646942
O O5 0.870339 0.129662 0.250000
O O6 0.798779 0.041606 0.336822
O O7 0.000000 0.000000 0.301365
O O8 0.500000 0.500000 0.565247
O O9 0.319876 0.485124 0.505161
O O10 0.335013 0.664110 0.555723
O O11 0.803260 0.515674 0.423689
O O12 0.354521 0.145480 0.000000
#
# Coordination Sequence:
#
# PCOD9560039 Si02
#       5
#    16  16  16  16  16
#     4  11  26  47  70 104 145 183 237 299 363 425
#     4  11  27  48  78 108 140 186 240 296 360 438
#     4  12  24  40  63  97 136 190 242 286 344 420
#     4  11  27  46  72 106 144 189 236 302 358 424
#     4  12  24  39  64  97 139 188 238 286 348 417
#
# _framework density 20.856705000000002
#
# number of rings (size 3 to 8) (size 9 to 14) (size 15 to 20)
#    0.000    0.600    6.000    0.600    5.600    2.400 
#    0.000    2.000    0.000    0.000    0.000    0.000 
#    0.000    0.000    0.000    0.000    0.000    0.000 
#
# Total GULP energy -222934.810648 kJ/mol
# GULP energy per Si atom -5573.370266 kJ/mol
# Density = 2.080923 g / cm^3
# Si number density = 20.856705 Si / 1000 Ang^3
#
#
#
# Elastic Constant Matrix: (Units=GPa)
#
#
# Indices 1 2 3 4 5 6 
#
# 1 76.5045 17.4862 48.4120 0.0000 0.0000 0.0000
# 2 17.4862 76.5062 48.4106 0.0000 0.0000 0.0000
# 3 48.4120 48.4106 121.0602 0.0000 0.0000 0.0000
# 4 0.0000 0.0000 0.0000 83.4701 0.0000 0.0000
# 5 0.0000 0.0000 0.0000 0.0000 83.5165 0.0000
# 6 0.0000 0.0000 0.0000 0.0000 0.0000 17.3513
#
#
#
# Elastic Compliance Matrix: (Units=1/GPa)
#
#
# Indices 1 2 3 4 5 6 
#
# 1 0.017518 0.000574 -0.007235 0.000000 0.000000 0.000000
# 2 0.000574 0.017517 -0.007235 0.000000 0.000000 0.000000
# 3 -0.007235 -0.007235 0.014047 0.000000 0.000000 0.000000
# 4 0.000000 0.000000 0.000000 0.011980 0.000000 0.000000
# 5 0.000000 0.000000 0.000000 0.000000 0.011974 0.000000
# 6 0.000000 0.000000 0.000000 0.000000 0.000000 0.057633
#
#
# Mechanical properties :
#
#
# Convention : Reuss Voigt Hill
#
# Bulk Modulus (GPa) = 46.96764 55.85425 51.41095
# Shear Modulus (GPa) = 30.20098 47.51839 38.85968
#
# Velocity S-wave (km/s) = 3.80942 4.77836 4.32113
# Velocity P-wave (km/s) = 6.47433 7.56847 7.04268
#
# Compressibility (1/GPa) = 0.02129125
#
# Stress axis : x y z
#
# Youngs Moduli (GPa) = 57.08312 57.08597 71.19083
#
# Poissons Ratio (x) = -0.03278 0.51508
# Poissons Ratio (y) = -0.03278 0.51504
# Poissons Ratio (z) = 0.41301 0.41300
#
# Static dielectric constant tensor:
#      x y z
#    x 1.779500 0.000000 0.000000 
#    y 0.000000 1.779500 0.000000 
#    z 0.000000 0.000000 1.838010 
# 
# From -- ./inp_files/6506.got.cif
#   From: 2010.05.17/outbox.cif.g08.bks.cpg/sg120_4_cif.got.tgz:6506.got - 2010.05.20 11:28:13.
