data_PCOD9560693
_publ_section_title
;
Structure prediction by ZEFSAII (Michael W. Deem and Ramdas Pophale) SiO2 
 PCOD9560693
Probable space group: I -4 2 D
;
_chemical_formula_sum "Si O2"
_cell_formula_units_Z 96
_cell_length_a 15.873969
_cell_length_b 15.873969
_cell_length_c 17.185625
_cell_angle_alpha 90.000000
_cell_angle_beta 90.000000
_cell_angle_gamma 90.000000
_cell_volume 4330.483485
_symmetry_space_group_name_H-M "I -4 2 D"
_symmetry_group_IT_number 122
_symmetry_cell_setting 'tetragonal'
loop_
_space_group_symop_operation_xyz
x,y,z
y,-x,-z
-x,-y,z
-y,x,-z
x,1/2-y,1/4-z
-x,1/2+y,1/4-z
-y,1/2-x,1/4+z
y,1/2+x,1/4+z
1/2+x,1/2+y,1/2+z
1/2+y,1/2-x,1/2-z
1/2-x,1/2-y,1/2+z
1/2-y,1/2+x,1/2-z
1/2+x,-y,3/4-z
1/2-x,y,3/4-z
1/2-y,-x,3/4+z
1/2+y,x,3/4+z
loop_
_atom_site_type_symbol
_atom_site_label
_atom_site_fract_x
_atom_site_fract_y
_atom_site_fract_z
Si Si1 0.982619 0.396097 0.174265
Si Si2 0.830108 0.498828 0.822863
Si Si3 0.843639 0.627577 0.581731
Si Si4 0.351933 0.953605 0.145325
Si Si5 0.914369 0.820973 0.830360
Si Si6 0.089000 0.841158 0.908129
O O1 0.901719 0.376736 0.123340
O O2 0.958612 0.357801 0.258586
O O3 0.000000 0.500000 0.170495
O O4 0.072006 0.361678 0.146101
O O5 0.750000 0.526110 0.875000
O O6 0.845687 0.402133 0.846980
O O7 0.905473 0.560615 0.848102
O O8 0.830758 0.497103 0.729262
O O9 0.853204 0.525917 0.580486
O O10 0.884447 0.671124 0.507375
O O11 0.744272 0.641629 0.588892
O O12 0.270398 0.894166 0.133979
O O13 0.015051 0.830739 0.844536
#
# Coordination Sequence:
#
# PCOD9560693 Si02
#       6
#    16  16  16  16  16  16
#     4  10  16  37  66  92 136 180 208 265 335 405
#     4  12  24  45  68  93 136 181 228 287 354 405
#     4  11  24  39  67 100 130 172 231 281 332 408
#     4  11  24  43  67  98 129 180 228 285 348 411
#     4  10  21  40  64  99 135 173 228 277 334 404
#     4  10  19  37  65  98 131 181 219 263 339 406
#
# _framework density 22.168424000000002
#
# number of rings (size 3 to 8) (size 9 to 14) (size 15 to 20)
#    0.000    1.333    6.667    0.500    0.000    4.667 
#    3.000    0.000    3.667    0.000    0.000    0.000 
#    0.000    0.000    0.000    0.000    0.000    0.000 
#
# Total GULP energy -267566.571051 kJ/mol
# GULP energy per Si atom -5574.303564 kJ/mol
# Density = 2.211797 g / cm^3
# Si number density = 22.168424 Si / 1000 Ang^3
#
#
#
# Elastic Constant Matrix: (Units=GPa)
#
#
# Indices 1 2 3 4 5 6 
#
# 1 91.8034 22.6521 24.1396 0.0000 0.0000 0.0000
# 2 22.6521 91.8034 24.1396 0.0000 0.0000 0.0000
# 3 24.1396 24.1396 32.1457 0.0000 0.0000 0.0000
# 4 0.0000 0.0000 0.0000 25.8616 0.0000 0.0000
# 5 0.0000 0.0000 0.0000 0.0000 25.8616 0.0000
# 6 0.0000 0.0000 0.0000 0.0000 0.0000 11.4927
#
#
#
# Elastic Compliance Matrix: (Units=1/GPa)
#
#
# Indices 1 2 3 4 5 6 
#
# 1 0.013624 -0.000837 -0.009603 0.000000 0.000000 0.000000
# 2 -0.000837 0.013624 -0.009603 0.000000 0.000000 0.000000
# 3 -0.009603 -0.009603 0.045531 0.000000 0.000000 0.000000
# 4 0.000000 0.000000 0.000000 0.038667 0.000000 0.000000
# 5 0.000000 0.000000 0.000000 0.000000 0.038667 0.000000
# 6 0.000000 0.000000 0.000000 0.000000 0.000000 0.087012
#
#
# Mechanical properties :
#
#
# Convention : Reuss Voigt Hill
#
# Bulk Modulus (GPa) = 30.58591 39.73503 35.16047
# Shear Modulus (GPa) = 17.35454 22.29793 19.82623
#
# Velocity S-wave (km/s) = 2.80098 3.17494 2.99381
# Velocity P-wave (km/s) = 4.92825 5.60387 5.27689
#
# Compressibility (1/GPa) = 0.03269479
#
# Stress axis : x y z
#
# Youngs Moduli (GPa) = 73.39800 73.39800 21.96316
#
# Poissons Ratio (x) = 0.06141 0.21091
# Poissons Ratio (y) = 0.06141 0.21091
# Poissons Ratio (z) = 0.70483 0.70483
#
# Static dielectric constant tensor:
#      x y z
#    x 1.872080 0.000000 0.000000 
#    y 0.000000 1.872080 0.000000 
#    z 0.000000 0.000000 1.830930 
# 
# From -- ./inp_files/6283.got.cif
#   From: 2010.05.17/outbox.cif.g08.bks.cpg/sg122_4_cif.got.tgz:6283.got - 2010.05.20 11:37:33.
