data_PCOD9560600
_publ_section_title
;
Structure prediction by ZEFSAII (Michael W. Deem and Ramdas Pophale) SiO2 
 PCOD9560600
Probable space group: I -4 2 M
;
_chemical_formula_sum "Si O2"
_cell_formula_units_Z 72
_cell_length_a 21.550448
_cell_length_b 21.550448
_cell_length_c 7.612754
_cell_angle_alpha 90.000000
_cell_angle_beta 90.000000
_cell_angle_gamma 90.000000
_cell_volume 3535.528984
_symmetry_space_group_name_H-M "I -4 2 M"
_symmetry_group_IT_number 121
_symmetry_cell_setting 'tetragonal'
loop_
_space_group_symop_operation_xyz
x,y,z
y,-x,-z
-x,-y,z
-y,x,-z
x,-y,-z
-x,y,-z
-y,-x,z
y,x,z
1/2+x,1/2+y,1/2+z
1/2+y,1/2-x,1/2-z
1/2-x,1/2-y,1/2+z
1/2-y,1/2+x,1/2-z
1/2+x,1/2-y,1/2-z
1/2-x,1/2+y,1/2-z
1/2-y,1/2-x,1/2+z
1/2+y,1/2+x,1/2+z
loop_
_atom_site_type_symbol
_atom_site_label
_atom_site_fract_x
_atom_site_fract_y
_atom_site_fract_z
Si Si1 0.399550 0.701804 0.122072
Si Si2 0.452660 0.830802 0.728831
Si Si3 0.000000 0.906684 0.000000
Si Si4 0.305216 0.458033 0.254075
Si Si5 0.915044 0.660731 0.361922
O O1 0.349115 0.650886 0.179291
O O2 0.469446 0.695599 0.196065
O O3 0.381527 0.772949 0.170713
O O4 0.413020 0.692152 0.913677
O O5 0.445406 0.761151 0.658055
O O6 0.401394 0.875097 0.647381
O O7 0.525714 0.847103 0.732012
O O8 0.437481 0.830508 0.937571
O O9 0.957810 0.862875 0.881873
O O10 0.952751 0.952751 0.100871
#
# Coordination Sequence:
#
# PCOD9560600 Si02
#       5
#    16  16   8  16  16
#     4   9  17  34  56  75 101 140 182 216 257 316
#     4   9  19  35  53  75 104 135 172 212 261 316
#     4  11  22  34  50  78 110 137 176 226 272 321
#     4   9  19  34  53  76 105 140 174 218 269 314
#     4   9  19  34  52  77 105 135 171 216 260 312
#
# _framework density 20.364704
#
# number of rings (size 3 to 8) (size 9 to 14) (size 15 to 20)
#    0.000    2.778    0.000    4.000    0.000    4.889 
#    0.000    7.778    0.000    5.333    0.000    0.000 
#    0.000    0.000    0.000    0.000    0.000    0.000 
#
# Total GULP energy -200475.491820 kJ/mol
# GULP energy per Si atom -5568.763662 kJ/mol
# Density = 2.031835 g / cm^3
# Si number density = 20.364704 Si / 1000 Ang^3
#
#
#
# Elastic Constant Matrix: (Units=GPa)
#
#
# Indices 1 2 3 4 5 6 
#
# 1 118.7122 88.5054 12.6427 0.0000 0.0000 0.0000
# 2 88.5054 118.7155 12.6436 0.0000 0.0000 0.0000
# 3 12.6427 12.6436 17.7539 0.0000 0.0000 0.0000
# 4 0.0000 0.0000 0.0000 23.8083 0.0000 0.0000
# 5 0.0000 0.0000 0.0000 0.0000 23.8077 0.0000
# 6 0.0000 0.0000 0.0000 0.0000 0.0000 41.1425
#
#
#
# Elastic Compliance Matrix: (Units=1/GPa)
#
#
# Indices 1 2 3 4 5 6 
#
# 1 0.019194 -0.013909 -0.003763 0.000000 0.000000 0.000000
# 2 -0.013909 0.019194 -0.003764 0.000000 0.000000 0.000000
# 3 -0.003763 -0.003764 0.061686 0.000000 0.000000 0.000000
# 4 0.000000 0.000000 0.000000 0.042002 0.000000 0.000000
# 5 0.000000 0.000000 0.000000 0.000000 0.042003 0.000000
# 6 0.000000 0.000000 0.000000 0.000000 0.000000 0.024306
#
#
# Mechanical properties :
#
#
# Convention : Reuss Voigt Hill
#
# Bulk Modulus (GPa) = 17.48203 53.64055 35.56129
# Shear Modulus (GPa) = 18.49618 27.17767 22.83693
#
# Velocity S-wave (km/s) = 3.01698 3.65711 3.35236
# Velocity P-wave (km/s) = 4.55405 6.65054 5.69952
#
# Compressibility (1/GPa) = 0.05720160
#
# Stress axis : x y z
#
# Youngs Moduli (GPa) = 52.09856 52.09949 16.21108
#
# Poissons Ratio (x) = 0.72466 0.06100
# Poissons Ratio (y) = 0.72465 0.06103
# Poissons Ratio (z) = 0.19604 0.19613
#
# Static dielectric constant tensor:
#      x y z
#    x 1.734450 0.000000 0.000000 
#    y 0.000000 1.734450 0.000000 
#    z 0.000000 0.000000 1.792560 
# 
# From -- ./inp_files/1728.got.cif
#   From: 2010.05.17/outbox.cif.g08.bks.cpg/sg121_1_cif.got.tgz:1728.got - 2010.05.20 11:32:06.
