data_PCOD9560977
_publ_section_title
;
Structure prediction by ZEFSAII (Michael W. Deem and Ramdas Pophale) SiO2 
 PCOD9560977
Probable space group: I -4 2 D
;
_chemical_formula_sum "Si O2"
_cell_formula_units_Z 120
_cell_length_a 26.688614
_cell_length_b 26.688614
_cell_length_c 8.683206
_cell_angle_alpha 90.000000
_cell_angle_beta 90.000000
_cell_angle_gamma 90.000000
_cell_volume 6184.892354
_symmetry_space_group_name_H-M "I -4 2 D"
_symmetry_group_IT_number 122
_symmetry_cell_setting 'tetragonal'
loop_
_space_group_symop_operation_xyz
x,y,z
y,-x,-z
-x,-y,z
-y,x,-z
x,1/2-y,1/4-z
-x,1/2+y,1/4-z
-y,1/2-x,1/4+z
y,1/2+x,1/4+z
1/2+x,1/2+y,1/2+z
1/2+y,1/2-x,1/2-z
1/2-x,1/2-y,1/2+z
1/2-y,1/2+x,1/2-z
1/2+x,-y,3/4-z
1/2-x,y,3/4-z
1/2-y,-x,3/4+z
1/2+y,x,3/4+z
loop_
_atom_site_type_symbol
_atom_site_label
_atom_site_fract_x
_atom_site_fract_y
_atom_site_fract_z
Si Si1 0.485916 0.220743 0.860720
Si Si2 0.554551 0.441119 0.000831
Si Si3 0.189013 0.580530 0.625842
Si Si4 0.640478 0.011492 0.886811
Si Si5 0.354152 0.397628 0.791536
Si Si6 0.906682 0.107669 0.032293
Si Si7 0.575827 0.648627 0.204231
Si Si8 0.750000 0.941539 0.375000
O O1 0.436066 0.254648 0.842354
O O2 0.497564 0.194016 0.700023
O O3 0.471975 0.173918 0.969273
O O4 0.524891 0.250827 0.967968
O O5 0.569248 0.397055 0.120750
O O6 0.497929 0.438875 0.939499
O O7 0.595103 0.436799 0.866993
O O8 0.156773 0.534308 0.551653
O O9 0.160222 0.628020 0.555332
O O10 0.182427 0.588117 0.807851
O O11 0.608921 0.055033 0.799019
O O12 0.611033 0.960016 0.866194
O O13 0.354464 0.409179 0.610457
O O14 0.300796 0.409739 0.864313
O O15 0.863491 0.115115 0.160597
#
# Coordination Sequence:
#
# PCOD9560977 Si02
#       8
#    16  16  16  16  16  16  16   8
#     4  11  20  37  63  88 116 160 215 263 317 380
#     4  10  22  36  53  81 121 162 199 244 301 376
#     4  10  21  37  57  84 116 153 203 264 313 375
#     4  10  22  38  57  86 121 163 211 260 317 380
#     4  10  23  38  58  87 123 156 209 254 319 374
#     4  10  22  36  53  82 123 160 208 254 301 386
#     4  10  21  34  56  85 117 159 206 252 306 360
#     4  12  20  36  66  84 126 158 204 274 312 376
#
# _framework density 19.402114999999998
#
# number of rings (size 3 to 8) (size 9 to 14) (size 15 to 20)
#    0.000    1.733    2.667    1.200    9.333    1.333 
#    0.000    0.000    0.000    0.000    0.000   22.400 
#    0.000    0.000    0.000    0.000    0.000    0.000 
#
# Total GULP energy -334148.823435 kJ/mol
# GULP energy per Si atom -5569.147057 kJ/mol
# Density = 1.935795 g / cm^3
# Si number density = 19.402115 Si / 1000 Ang^3
#
#
#
# Elastic Constant Matrix: (Units=GPa)
#
#
# Indices 1 2 3 4 5 6 
#
# 1 77.0820 20.2878 20.3399 0.0000 0.0000 0.0000
# 2 20.2878 77.0820 20.3399 0.0000 0.0000 0.0000
# 3 20.3399 20.3399 75.7830 0.0000 0.0000 0.0000
# 4 0.0000 0.0000 0.0000 20.9997 0.0000 0.0000
# 5 0.0000 0.0000 0.0000 0.0000 20.9997 0.0000
# 6 0.0000 0.0000 0.0000 0.0000 0.0000 25.1194
#
#
#
# Elastic Compliance Matrix: (Units=1/GPa)
#
#
# Indices 1 2 3 4 5 6 
#
# 1 0.014587 -0.003020 -0.003105 0.000000 0.000000 0.000000
# 2 -0.003020 0.014587 -0.003105 0.000000 0.000000 0.000000
# 3 -0.003105 -0.003105 0.014862 0.000000 0.000000 0.000000
# 4 0.000000 0.000000 0.000000 0.047620 0.000000 0.000000
# 5 0.000000 0.000000 0.000000 0.000000 0.047620 0.000000
# 6 0.000000 0.000000 0.000000 0.000000 0.000000 0.039810
#
#
# Mechanical properties :
#
#
# Convention : Reuss Voigt Hill
#
# Bulk Modulus (GPa) = 39.09594 39.09800 39.09697
# Shear Modulus (GPa) = 24.26352 24.68906 24.47629
#
# Velocity S-wave (km/s) = 3.54016 3.57107 3.55565
# Velocity P-wave (km/s) = 6.07490 6.09906 6.08699
#
# Compressibility (1/GPa) = 0.02557810
#
# Stress axis : x y z
#
# Youngs Moduli (GPa) = 68.55279 68.55279 67.28525
#
# Poissons Ratio (x) = 0.20704 0.20889
# Poissons Ratio (y) = 0.20704 0.20889
# Poissons Ratio (z) = 0.21283 0.21283
#
# Static dielectric constant tensor:
#      x y z
#    x 1.708800 0.000000 0.000000 
#    y 0.000000 1.708800 0.000000 
#    z 0.000000 0.000000 1.766380 
# 
# From -- ./inp_files/3101.got.cif
#   From: 2010.05.17/outbox.cif.g08.bks.cpg/sg122_2_cif.got.tgz:3101.got - 2010.05.20 11:37:33.
