data_PCOD9560713
_publ_section_title
;
Structure prediction by ZEFSAII (Michael W. Deem and Ramdas Pophale) SiO2 
 PCOD9560713
Probable space group: I -4 2 D
;
_chemical_formula_sum "Si O2"
_cell_formula_units_Z 128
_cell_length_a 17.310314
_cell_length_b 17.310314
_cell_length_c 23.480821
_cell_angle_alpha 90.000000
_cell_angle_beta 90.000000
_cell_angle_gamma 90.000000
_cell_volume 7035.956884
_symmetry_space_group_name_H-M "I -4 2 D"
_symmetry_group_IT_number 122
_symmetry_cell_setting 'tetragonal'
loop_
_space_group_symop_operation_xyz
x,y,z
y,-x,-z
-x,-y,z
-y,x,-z
x,1/2-y,1/4-z
-x,1/2+y,1/4-z
-y,1/2-x,1/4+z
y,1/2+x,1/4+z
1/2+x,1/2+y,1/2+z
1/2+y,1/2-x,1/2-z
1/2-x,1/2-y,1/2+z
1/2-y,1/2+x,1/2-z
1/2+x,-y,3/4-z
1/2-x,y,3/4-z
1/2-y,-x,3/4+z
1/2+y,x,3/4+z
loop_
_atom_site_type_symbol
_atom_site_label
_atom_site_fract_x
_atom_site_fract_y
_atom_site_fract_z
Si Si1 0.692953 0.979325 0.117295
Si Si2 0.227920 0.925502 0.309127
Si Si3 0.037988 0.151328 0.938871
Si Si4 0.556883 0.427232 0.768467
Si Si5 0.590915 0.524383 0.359534
Si Si6 0.474390 0.124623 0.264464
Si Si7 0.870196 0.401674 0.305618
Si Si8 0.259253 0.180280 0.090882
O O1 0.636394 0.971868 0.063439
O O2 0.650649 0.018685 0.169960
O O3 0.710921 0.889135 0.130929
O O4 0.773913 0.017545 0.098939
O O5 0.250000 0.944364 0.375000
O O6 0.143966 0.953210 0.286427
O O7 0.214885 0.832659 0.308465
O O8 0.299122 0.953107 0.271206
O O9 0.094756 0.095745 0.903499
O O10 0.962663 0.099164 0.952047
O O11 0.066192 0.173733 0.001259
O O12 0.500000 0.500000 0.771621
O O13 0.551425 0.392067 0.704758
O O14 0.500000 0.500000 0.356087
O O15 0.638364 0.452919 0.387060
O O16 0.412090 0.056565 0.254641
O O17 0.853390 0.310890 0.306289
O O18 0.223210 0.250000 0.125000
#
# Coordination Sequence:
#
# PCOD9560713 Si02
#       8
#    16  16  16  16  16  16  16  16
#     4  10  22  36  57  86 117 151 196 256 308 359
#     4  10  21  40  62  85 120 165 198 251 322 375
#     4  10  18  33  54  84 120 155 195 241 295 353
#     4  10  21  37  60  84 123 158 201 251 305 374
#     4   9  18  31  53  85 114 155 193 242 297 346
#     4  11  23  38  66  93 115 155 212 266 322 383
#     4  10  18  30  57  84 114 156 202 239 280 361
#     4   9  19  36  56  78 116 158 196 237 304 368
#
# _framework density 18.192267000000001
#
# number of rings (size 3 to 8) (size 9 to 14) (size 15 to 20)
#    0.000    2.125    1.250    3.000    3.500    2.000 
#    0.000    1.250    0.000    1.500    0.000    0.000 
#    0.000    0.000    0.000    0.000    0.000    0.000 
#
# Total GULP energy -356304.477093 kJ/mol
# GULP energy per Si atom -5567.257455 kJ/mol
# Density = 1.815086 g / cm^3
# Si number density = 18.192267 Si / 1000 Ang^3
#
#
#
# Elastic Constant Matrix: (Units=GPa)
#
#
# Indices 1 2 3 4 5 6 
#
# 1 64.0780 35.5365 31.8282 0.0000 0.0000 0.0000
# 2 35.5365 64.0780 31.8282 0.0000 0.0000 0.0000
# 3 31.8282 31.8282 121.5233 0.0000 0.0000 0.0000
# 4 0.0000 0.0000 0.0000 14.5305 0.0000 0.0000
# 5 0.0000 0.0000 0.0000 0.0000 14.5305 0.0000
# 6 0.0000 0.0000 0.0000 0.0000 0.0000 17.6382
#
#
#
# Elastic Compliance Matrix: (Units=1/GPa)
#
#
# Indices 1 2 3 4 5 6 
#
# 1 0.023547 -0.011490 -0.003158 0.000000 0.000000 0.000000
# 2 -0.011490 0.023547 -0.003158 0.000000 0.000000 0.000000
# 3 -0.003158 -0.003158 0.009883 0.000000 0.000000 0.000000
# 4 0.000000 0.000000 0.000000 0.068821 0.000000 0.000000
# 5 0.000000 0.000000 0.000000 0.000000 0.068821 0.000000
# 6 0.000000 0.000000 0.000000 0.000000 0.000000 0.056695
#
#
# Mechanical properties :
#
#
# Convention : Reuss Voigt Hill
#
# Bulk Modulus (GPa) = 46.80515 49.78498 48.29506
# Shear Modulus (GPa) = 17.00419 19.37230 18.18824
#
# Velocity S-wave (km/s) = 3.06059 3.26677 3.16536
# Velocity P-wave (km/s) = 6.18656 6.45402 6.32171
#
# Compressibility (1/GPa) = 0.02136517
#
# Stress axis : x y z
#
# Youngs Moduli (GPa) = 42.46893 42.46893 101.18426
#
# Poissons Ratio (x) = 0.48797 0.31951
# Poissons Ratio (y) = 0.48797 0.31951
# Poissons Ratio (z) = 0.13411 0.13411
#
# Static dielectric constant tensor:
#      x y z
#    x 1.659460 0.000000 0.000000 
#    y 0.000000 1.659460 0.000000 
#    z 0.000000 0.000000 1.645380 
# 
# From -- ./inp_files/8238.got.cif
#   From: 2010.05.17/outbox.cif.g08.bks.cpg/sg122_5_cif.got.tgz:8238.got - 2010.05.20 11:37:33.
