data_PCOD9560399
_publ_section_title
;
Structure prediction by ZEFSAII (Michael W. Deem and Ramdas Pophale) SiO2 
 PCOD9560399
Probable space group: I -4 2 M
;
_chemical_formula_sum "Si O2"
_cell_formula_units_Z 96
_cell_length_a 23.193664
_cell_length_b 23.193664
_cell_length_c 9.046709
_cell_angle_alpha 90.000000
_cell_angle_beta 90.000000
_cell_angle_gamma 90.000000
_cell_volume 4866.641370
_symmetry_space_group_name_H-M "I -4 2 M"
_symmetry_group_IT_number 121
_symmetry_cell_setting 'tetragonal'
loop_
_space_group_symop_operation_xyz
x,y,z
y,-x,-z
-x,-y,z
-y,x,-z
x,-y,-z
-x,y,-z
-y,-x,z
y,x,z
1/2+x,1/2+y,1/2+z
1/2+y,1/2-x,1/2-z
1/2-x,1/2-y,1/2+z
1/2-y,1/2+x,1/2-z
1/2+x,1/2-y,1/2-z
1/2-x,1/2+y,1/2-z
1/2-y,1/2-x,1/2+z
1/2+y,1/2+x,1/2+z
loop_
_atom_site_type_symbol
_atom_site_label
_atom_site_fract_x
_atom_site_fract_y
_atom_site_fract_z
Si Si1 0.842556 0.750973 0.029549
Si Si2 0.062052 0.731948 0.550952
Si Si3 0.394291 0.851105 0.301294
Si Si4 0.096312 0.000000 0.000000
Si Si5 0.411867 0.213204 0.265201
Si Si6 0.179938 0.500000 0.500000
Si Si7 0.426549 0.667576 0.282164
O O1 0.781873 0.781873 0.044220
O O2 0.859788 0.736567 0.863416
O O3 0.850166 0.691904 0.116564
O O4 0.890536 0.793929 0.099757
O O5 0.089502 0.682057 0.650897
O O6 0.089928 0.743616 0.392358
O O7 0.057958 0.788926 0.650955
O O8 0.000000 0.710437 0.500000
O O9 0.355710 0.906232 0.265509
O O10 0.449886 0.853941 0.409497
O O11 0.136479 0.020793 0.134803
O O12 0.054039 0.054039 0.964500
O O13 0.467586 0.217542 0.373449
O O14 0.382473 0.617528 0.231317
#
# Coordination Sequence:
#
# PCOD9560399 Si02
#       7
#    16  16  16   8  16   8  16
#     4   9  20  36  57  85 121 159 191 232 286 349
#     4  11  21  34  56  87 114 149 191 243 290 341
#     4  10  21  39  61  85 115 151 195 236 288 351
#     4   9  18  35  62  89 116 161 212 252 296 350
#     4  11  22  37  61  89 114 154 196 234 292 351
#     4  10  20  39  60  82 114 147 186 236 276 350
#     4   9  20  36  55  83 120 156 199 250 293 343
#
# _framework density 19.726127999999999
#
# number of rings (size 3 to 8) (size 9 to 14) (size 15 to 20)
#    0.000    2.083    1.667    2.000    2.333    2.667 
#    0.000    4.167    0.000    1.500    0.000    0.000 
#    0.000    0.000    0.000    0.000    0.000    0.000 
#
# Total GULP energy -267651.199945 kJ/mol
# GULP energy per Si atom -5576.066666 kJ/mol
# Density = 1.968123 g / cm^3
# Si number density = 19.726128 Si / 1000 Ang^3
#
#
#
# Elastic Constant Matrix: (Units=GPa)
#
#
# Indices 1 2 3 4 5 6 
#
# 1 62.1741 28.6931 38.0765 0.0000 0.0000 0.0000
# 2 28.6931 62.1745 38.0761 0.0000 0.0000 0.0000
# 3 38.0765 38.0761 150.6068 0.0000 0.0000 0.0000
# 4 0.0000 0.0000 0.0000 20.0215 0.0000 0.0000
# 5 0.0000 0.0000 0.0000 0.0000 20.0222 0.0000
# 6 0.0000 0.0000 0.0000 0.0000 0.0000 4.6697
#
#
#
# Elastic Compliance Matrix: (Units=1/GPa)
#
#
# Indices 1 2 3 4 5 6 
#
# 1 0.021916 -0.007952 -0.003530 0.000000 0.000000 0.000000
# 2 -0.007952 0.021915 -0.003530 0.000000 0.000000 0.000000
# 3 -0.003530 -0.003530 0.008425 0.000000 0.000000 0.000000
# 4 0.000000 0.000000 0.000000 0.049946 0.000000 0.000000
# 5 0.000000 0.000000 0.000000 0.000000 0.049945 0.000000
# 6 0.000000 0.000000 0.000000 0.000000 0.000000 0.214148
#
#
# Mechanical properties :
#
#
# Convention : Reuss Voigt Hill
#
# Bulk Modulus (GPa) = 44.98218 53.84964 49.41591
# Shear Modulus (GPa) = 12.38452 20.28332 16.33392
#
# Velocity S-wave (km/s) = 2.50836 3.21011 2.88068
# Velocity P-wave (km/s) = 5.58945 6.41074 6.01413
#
# Compressibility (1/GPa) = 0.02223103
#
# Stress axis : x y z
#
# Youngs Moduli (GPa) = 45.62948 45.62993 118.69645
#
# Poissons Ratio (x) = 0.36284 0.41904
# Poissons Ratio (y) = 0.36284 0.41902
# Poissons Ratio (z) = 0.16109 0.16108
#
# Static dielectric constant tensor:
#      x y z
#    x 1.728760 0.000000 0.000000 
#    y 0.000000 1.728760 0.000000 
#    z 0.000000 0.000000 1.770480 
# 
# From -- ./inp_files/2003.got.cif
#   From: 2010.05.17/outbox.cif.g08.bks.cpg/sg121_2_cif.got.tgz:2003.got - 2010.05.20 11:32:06.
