data_PCOD9560950
_publ_section_title
;
Structure prediction by ZEFSAII (Michael W. Deem and Ramdas Pophale) SiO2 
 PCOD9560950
Probable space group: I -4 2 D
;
_chemical_formula_sum "Si O2"
_cell_formula_units_Z 80
_cell_length_a 16.837766
_cell_length_b 16.837766
_cell_length_c 14.760794
_cell_angle_alpha 90.000000
_cell_angle_beta 90.000000
_cell_angle_gamma 90.000000
_cell_volume 4184.838078
_symmetry_space_group_name_H-M "I -4 2 D"
_symmetry_group_IT_number 122
_symmetry_cell_setting 'tetragonal'
loop_
_space_group_symop_operation_xyz
x,y,z
y,-x,-z
-x,-y,z
-y,x,-z
x,1/2-y,1/4-z
-x,1/2+y,1/4-z
-y,1/2-x,1/4+z
y,1/2+x,1/4+z
1/2+x,1/2+y,1/2+z
1/2+y,1/2-x,1/2-z
1/2-x,1/2-y,1/2+z
1/2-y,1/2+x,1/2-z
1/2+x,-y,3/4-z
1/2-x,y,3/4-z
1/2-y,-x,3/4+z
1/2+y,x,3/4+z
loop_
_atom_site_type_symbol
_atom_site_label
_atom_site_fract_x
_atom_site_fract_y
_atom_site_fract_z
Si Si1 0.061370 0.094898 0.949343
Si Si2 0.897557 0.282189 0.522822
Si Si3 0.916431 0.467869 0.992060
Si Si4 0.680862 0.842087 0.109731
Si Si5 0.215824 0.695343 0.214524
O O1 0.057634 0.068670 0.845630
O O2 0.111878 0.173969 0.952566
O O3 0.973857 0.102265 0.990982
O O4 0.908760 0.250000 0.625000
O O5 0.889333 0.211684 0.448375
O O6 0.808563 0.317515 0.516537
O O7 0.964714 0.347848 0.505264
O O8 0.000000 0.500000 0.954697
O O9 0.886358 0.391860 0.937015
O O10 0.654816 0.750000 0.125000
O O11 0.755762 0.828624 0.043112
O O12 0.210029 0.750000 0.125000
#
# Coordination Sequence:
#
# PCOD9560950 Si02
#       5
#    16  16  16  16  16
#     4  11  22  39  61  93 139 168 204 266 324 386
#     4  10  24  45  67  92 127 171 221 279 327 385
#     4  12  24  42  63  99 134 170 217 271 329 391
#     4  10  22  43  69  93 128 174 223 268 330 399
#     4  10  20  41  68  96 123 170 219 261 330 399
#
# _framework density 19.116631000000002
#
# number of rings (size 3 to 8) (size 9 to 14) (size 15 to 20)
#    0.000    1.400    4.000    1.800    0.000    3.200 
#    3.600    0.000    0.000    0.000    0.000    0.000 
#    0.000    0.000    0.000    0.000    0.000    0.000 
#
# Total GULP energy -223280.529439 kJ/mol
# GULP energy per Si atom -5582.013236 kJ/mol
# Density = 1.907312 g / cm^3
# Si number density = 19.116631 Si / 1000 Ang^3
#
#
#
# Elastic Constant Matrix: (Units=GPa)
#
#
# Indices 1 2 3 4 5 6 
#
# 1 48.3324 39.0454 14.4128 0.0000 0.0000 0.0000
# 2 39.0454 48.3324 14.4128 0.0000 0.0000 0.0000
# 3 14.4128 14.4128 98.2581 0.0000 0.0000 0.0000
# 4 0.0000 0.0000 0.0000 17.5249 0.0000 0.0000
# 5 0.0000 0.0000 0.0000 0.0000 17.5249 0.0000
# 6 0.0000 0.0000 0.0000 0.0000 0.0000 34.1850
#
#
#
# Elastic Compliance Matrix: (Units=1/GPa)
#
#
# Indices 1 2 3 4 5 6 
#
# 1 0.059852 -0.047825 -0.001764 0.000000 0.000000 0.000000
# 2 -0.047825 0.059852 -0.001764 0.000000 0.000000 0.000000
# 3 -0.001764 -0.001764 0.010695 0.000000 0.000000 0.000000
# 4 0.000000 0.000000 0.000000 0.057062 0.000000 0.000000
# 5 0.000000 0.000000 0.000000 0.000000 0.057062 0.000000
# 6 0.000000 0.000000 0.000000 0.000000 0.000000 0.029253
#
#
# Mechanical properties :
#
#
# Convention : Reuss Voigt Hill
#
# Bulk Modulus (GPa) = 36.11215 36.74052 36.42634
# Shear Modulus (GPa) = 12.96306 22.31708 17.64007
#
# Velocity S-wave (km/s) = 2.60687 3.42046 3.04099
# Velocity P-wave (km/s) = 5.29079 5.90425 5.60592
#
# Compressibility (1/GPa) = 0.02769151
#
# Stress axis : x y z
#
# Youngs Moduli (GPa) = 16.70797 16.70797 93.50336
#
# Poissons Ratio (x) = 0.79906 0.16495
# Poissons Ratio (y) = 0.79906 0.16495
# Poissons Ratio (z) = 0.02947 0.02947
#
# Static dielectric constant tensor:
#      x y z
#    x 1.648440 0.000000 0.000000 
#    y 0.000000 1.648440 0.000000 
#    z 0.000000 0.000000 1.681760 
# 
# From -- ./inp_files/5319.got.cif
#   From: 2010.05.17/outbox.cif.g08.bks.cpg/sg122_3_cif.got.tgz:5319.got - 2010.05.20 11:37:33.
