data_PCOD9560426
_publ_section_title
;
Structure prediction by ZEFSAII (Michael W. Deem and Ramdas Pophale) SiO2 
 PCOD9560426
Probable space group: I -4 2 M
;
_chemical_formula_sum "Si O2"
_cell_formula_units_Z 80
_cell_length_a 13.443252
_cell_length_b 13.443252
_cell_length_c 21.395483
_cell_angle_alpha 90.000000
_cell_angle_beta 90.000000
_cell_angle_gamma 90.000000
_cell_volume 3866.613604
_symmetry_space_group_name_H-M "I -4 2 M"
_symmetry_group_IT_number 121
_symmetry_cell_setting 'tetragonal'
loop_
_space_group_symop_operation_xyz
x,y,z
y,-x,-z
-x,-y,z
-y,x,-z
x,-y,-z
-x,y,-z
-y,-x,z
y,x,z
1/2+x,1/2+y,1/2+z
1/2+y,1/2-x,1/2-z
1/2-x,1/2-y,1/2+z
1/2-y,1/2+x,1/2-z
1/2+x,1/2-y,1/2-z
1/2-x,1/2+y,1/2-z
1/2-y,1/2-x,1/2+z
1/2+y,1/2+x,1/2+z
loop_
_atom_site_type_symbol
_atom_site_label
_atom_site_fract_x
_atom_site_fract_y
_atom_site_fract_z
Si Si1 0.659749 0.509332 0.197642
Si Si2 0.398839 0.938586 0.879593
Si Si3 0.993716 0.738085 0.432228
Si Si4 0.303334 0.138880 0.243562
Si Si5 0.796495 0.635356 0.381518
O O1 0.575023 0.424978 0.198879
O O2 0.611038 0.611038 0.221251
O O3 0.693192 0.520196 0.126213
O O4 0.747687 0.463319 0.237937
O O5 0.430143 0.855673 0.929849
O O6 0.370616 0.882965 0.815764
O O7 0.500000 0.000000 0.868163
O O8 0.314310 0.019192 0.897020
O O9 0.000000 0.785741 0.500000
O O10 0.883199 0.696537 0.417427
O O11 0.219569 0.219569 0.226375
O O12 0.352359 0.175366 0.308096
O O13 0.691746 0.691746 0.392006
#
# Coordination Sequence:
#
# PCOD9560426 Si02
#       5
#    16  16  16  16  16
#     4   9  19  35  54  79 113 155 193 230 288 357
#     4  10  22  33  54  80 106 144 190 232 283 346
#     4  10  21  36  54  79 113 148 187 240 287 341
#     4   9  19  34  49  74 112 139 173 231 287 335
#     4   9  20  35  52  74 105 143 179 229 287 342
#
# _framework density 20.689938999999999
#
# number of rings (size 3 to 8) (size 9 to 14) (size 15 to 20)
#    0.000    2.600    0.000    1.800    8.400    6.800 
#    0.000    1.000    0.000    0.000    0.000    0.000 
#    0.000    0.000    0.000    0.000    0.000    0.000 
#
# Total GULP energy -223365.232294 kJ/mol
# GULP energy per Si atom -5584.130807 kJ/mol
# Density = 2.064285 g / cm^3
# Si number density = 20.689939 Si / 1000 Ang^3
#
#
#
# Elastic Constant Matrix: (Units=GPa)
#
#
# Indices 1 2 3 4 5 6 
#
# 1 52.4969 27.3028 3.8281 0.0000 0.0000 0.0000
# 2 27.3028 52.4969 3.8281 0.0000 0.0000 0.0000
# 3 3.8281 3.8281 53.2158 0.0000 0.0000 0.0000
# 4 0.0000 0.0000 0.0000 10.5155 0.0000 0.0000
# 5 0.0000 0.0000 0.0000 0.0000 10.5160 0.0000
# 6 0.0000 0.0000 0.0000 0.0000 0.0000 43.3732
#
#
#
# Elastic Compliance Matrix: (Units=1/GPa)
#
#
# Indices 1 2 3 4 5 6 
#
# 1 0.026155 -0.013537 -0.000908 0.000000 0.000000 0.000000
# 2 -0.013537 0.026155 -0.000908 0.000000 0.000000 0.000000
# 3 -0.000908 -0.000908 0.018922 0.000000 0.000000 0.000000
# 4 0.000000 0.000000 0.000000 0.095098 0.000000 0.000000
# 5 0.000000 0.000000 0.000000 0.000000 0.095094 0.000000
# 6 0.000000 0.000000 0.000000 0.000000 0.000000 0.023056
#
#
# Mechanical properties :
#
#
# Convention : Reuss Voigt Hill
#
# Bulk Modulus (GPa) = 24.67426 25.34752 25.01089
# Shear Modulus (GPa) = 15.21175 21.09764 18.15470
#
# Velocity S-wave (km/s) = 2.71444 3.19675 2.96542
# Velocity P-wave (km/s) = 4.66646 5.08953 4.88258
#
# Compressibility (1/GPa) = 0.04052807
#
# Stress axis : x y z
#
# Youngs Moduli (GPa) = 38.23343 38.23339 52.84853
#
# Poissons Ratio (x) = 0.51755 0.04797
# Poissons Ratio (y) = 0.51755 0.04797
# Poissons Ratio (z) = 0.03471 0.03470
#
# Static dielectric constant tensor:
#      x y z
#    x 1.790800 0.000000 0.000000 
#    y 0.000000 1.790800 0.000000 
#    z 0.000000 0.000000 1.690480 
# 
# From -- ./inp_files/6222.got.cif
#   From: 2010.05.17/outbox.cif.g08.bks.cpg/sg121_4_cif.got.tgz:6222.got - 2010.05.20 11:32:06.
