data_PCOD9560234
_publ_section_title
;
Structure prediction by ZEFSAII (Michael W. Deem and Ramdas Pophale) SiO2 
 PCOD9560234
Probable space group: I -4 2 M
;
_chemical_formula_sum "Si O2"
_cell_formula_units_Z 96
_cell_length_a 23.392292
_cell_length_b 23.392292
_cell_length_c 9.944638
_cell_angle_alpha 90.000000
_cell_angle_beta 90.000000
_cell_angle_gamma 90.000000
_cell_volume 5441.699201
_symmetry_space_group_name_H-M "I -4 2 M"
_symmetry_group_IT_number 121
_symmetry_cell_setting 'tetragonal'
loop_
_space_group_symop_operation_xyz
x,y,z
y,-x,-z
-x,-y,z
-y,x,-z
x,-y,-z
-x,y,-z
-y,-x,z
y,x,z
1/2+x,1/2+y,1/2+z
1/2+y,1/2-x,1/2-z
1/2-x,1/2-y,1/2+z
1/2-y,1/2+x,1/2-z
1/2+x,1/2-y,1/2-z
1/2-x,1/2+y,1/2-z
1/2-y,1/2-x,1/2+z
1/2+y,1/2+x,1/2+z
loop_
_atom_site_type_symbol
_atom_site_label
_atom_site_fract_x
_atom_site_fract_y
_atom_site_fract_z
Si Si1 0.749225 0.844170 0.261253
Si Si2 0.872616 0.965512 0.121955
Si Si3 0.630246 0.538619 0.115117
Si Si4 0.711893 0.384761 0.511635
Si Si5 0.252169 0.155300 0.719201
Si Si6 0.746994 0.066762 0.504717
O O1 0.808308 0.808308 0.286762
O O2 0.747577 0.859720 0.103472
O O3 0.697859 0.799608 0.280638
O O4 0.745810 0.900905 0.351959
O O5 0.913817 0.913817 0.164533
O O6 0.816369 0.939985 0.052941
O O7 0.858829 0.002489 0.251601
O O8 0.901505 0.000000 0.000000
O O9 0.590910 0.590910 0.154450
O O10 0.687745 0.560295 0.045428
O O11 0.601298 0.500000 0.000000
O O12 0.660682 0.339319 0.525172
O O13 0.735774 0.387814 0.660586
O O14 0.198058 0.198058 0.682859
O O15 0.275092 0.115863 0.598276
O O16 0.725030 0.000000 0.500000
#
# Coordination Sequence:
#
# PCOD9560234 Si02
#       6
#    16  16  16  16  16  16
#     4  10  19  33  54  79 107 141 183 227 269 321
#     4  11  22  34  47  63  88 128 178 229 271 306
#     4  11  22  34  48  66  93 133 177 220 262 306
#     4   9  18  31  46  67  93 123 166 219 273 319
#     4  10  19  33  55  79 105 141 184 227 269 321
#     4  11  22  35  52  78 111 143 171 211 274 335
#
# _framework density 17.641549000000001
#
# number of rings (size 3 to 8) (size 9 to 14) (size 15 to 20)
#    0.000    1.667    0.000    6.500    0.000    7.333 
#    0.000    0.000    0.000    0.000    0.000    0.000 
#    0.000    2.000    0.000    0.000    0.000    0.000 
#
# Total GULP energy -267581.304288 kJ/mol
# GULP energy per Si atom -5574.610506 kJ/mol
# Density = 1.760140 g / cm^3
# Si number density = 17.641549 Si / 1000 Ang^3
#
#
#
# Elastic Constant Matrix: (Units=GPa)
#
#
# Indices 1 2 3 4 5 6 
#
# 1 52.8270 12.6811 6.3559 0.0000 0.0000 0.0000
# 2 12.6811 52.8266 6.3566 0.0000 0.0000 0.0000
# 3 6.3559 6.3566 73.2975 0.0000 0.0000 0.0000
# 4 0.0000 0.0000 0.0000 29.3839 0.0000 0.0000
# 5 0.0000 0.0000 0.0000 0.0000 29.3840 0.0000
# 6 0.0000 0.0000 0.0000 0.0000 0.0000 16.5209
#
#
#
# Elastic Compliance Matrix: (Units=1/GPa)
#
#
# Indices 1 2 3 4 5 6 
#
# 1 0.020218 -0.004691 -0.001346 0.000000 0.000000 0.000000
# 2 -0.004691 0.020218 -0.001347 0.000000 0.000000 0.000000
# 3 -0.001346 -0.001347 0.013877 0.000000 0.000000 0.000000
# 4 0.000000 0.000000 0.000000 0.034032 0.000000 0.000000
# 5 0.000000 0.000000 0.000000 0.000000 0.034032 0.000000
# 6 0.000000 0.000000 0.000000 0.000000 0.000000 0.060529
#
#
# Mechanical properties :
#
#
# Convention : Reuss Voigt Hill
#
# Bulk Modulus (GPa) = 25.28825 25.52646 25.40736
# Shear Modulus (GPa) = 23.71288 25.29492 24.50390
#
# Velocity S-wave (km/s) = 3.67024 3.79070 3.73096
# Velocity P-wave (km/s) = 5.68564 5.80173 5.74398
#
# Compressibility (1/GPa) = 0.03954405
#
# Stress axis : x y z
#
# Youngs Moduli (GPa) = 49.46125 49.46081 72.06396
#
# Poissons Ratio (x) = 0.23204 0.09702
# Poissons Ratio (y) = 0.23204 0.09704
# Poissons Ratio (z) = 0.06659 0.06660
#
# Static dielectric constant tensor:
#      x y z
#    x 1.662400 0.000000 0.000000 
#    y 0.000000 1.662400 0.000000 
#    z 0.000000 0.000000 1.657750 
# 
# From -- ./inp_files/1918.got.cif
#   From: 2010.05.17/outbox.cif.g08.bks.cpg/sg121_1_cif.got.tgz:1918.got - 2010.05.20 11:32:06.
