data_PCOD9560071
_publ_section_title
;
Structure prediction by ZEFSAII (Michael W. Deem and Ramdas Pophale) SiO2 
 PCOD9560071
Probable space group: I -4 C 2
;
_chemical_formula_sum "Si O2"
_cell_formula_units_Z 60
_cell_length_a 16.711171
_cell_length_b 16.711171
_cell_length_c 8.683987
_cell_angle_alpha 90.000000
_cell_angle_beta 90.000000
_cell_angle_gamma 90.000000
_cell_volume 2425.118313
_symmetry_space_group_name_H-M "I -4 C 2"
_symmetry_group_IT_number 120
_symmetry_cell_setting 'tetragonal'
loop_
_space_group_symop_operation_xyz
x,y,z
y,-x,-z
-x,-y,z
-y,x,-z
y,x,1/2-z
-y,-x,1/2-z
-x,y,1/2+z
x,-y,1/2+z
1/2+x,1/2+y,1/2+z
1/2+y,1/2-x,1/2-z
1/2-x,1/2-y,1/2+z
1/2-y,1/2+x,1/2-z
1/2+y,1/2+x,-z
1/2-y,1/2-x,-z
1/2-x,1/2+y,z
1/2+x,1/2-y,z
loop_
_atom_site_type_symbol
_atom_site_label
_atom_site_fract_x
_atom_site_fract_y
_atom_site_fract_z
Si Si1 0.168028 0.331973 0.500000
Si Si2 0.500000 0.000000 0.750000
Si Si3 0.170408 0.948334 0.844570
Si Si4 0.599607 0.852772 0.667650
Si Si5 0.835800 0.866806 0.902378
O O1 0.131750 0.357194 0.666211
O O2 0.148382 0.238328 0.486951
O O3 0.464882 0.076081 0.659278
O O4 0.106028 0.893973 0.750000
O O5 0.264156 0.936277 0.810224
O O6 0.154014 0.042079 0.850486
O O7 0.161037 0.915765 0.017163
O O8 0.644551 0.855450 0.500000
O O9 0.817004 0.817004 0.750000
#
# Coordination Sequence:
#
# PCOD9560071 Si02
#       5
#     8   4  16  16  16
#     4  12  28  51  84 118 164 217 280 346 426 518
#     4  12  30  52  82 126 176 230 278 360 434 522
#     4  12  27  51  78 116 164 215 283 355 431 516
#     4  12  29  50  80 119 168 219 283 346 427 520
#     4  12  28  47  79 117 159 217 277 355 430 509
#
# _framework density 24.741059
#
# number of rings (size 3 to 8) (size 9 to 14) (size 15 to 20)
#    0.000    0.000    2.667    5.200   13.067    3.200 
#    0.000    0.000    0.000    0.000    0.000    0.000 
#    0.000    0.000    0.000    0.000    0.000    0.000 
#
# Total GULP energy -167607.660873 kJ/mol
# GULP energy per Si atom -5586.922029 kJ/mol
# Density = 2.468475 g / cm^3
# Si number density = 24.741059 Si / 1000 Ang^3
#
#
#
# Elastic Constant Matrix: (Units=GPa)
#
#
# Indices 1 2 3 4 5 6 
#
# 1 80.9410 72.5711 19.2054 0.0000 0.0000 0.0000
# 2 72.5711 80.9345 19.2032 0.0000 0.0000 0.0000
# 3 19.2054 19.2032 139.7678 0.0000 0.0000 0.0000
# 4 0.0000 0.0000 0.0000 6.0541 0.0000 0.0000
# 5 0.0000 0.0000 0.0000 0.0000 6.0551 0.0000
# 6 0.0000 0.0000 0.0000 0.0000 0.0000 32.4463
#
#
#
# Elastic Compliance Matrix: (Units=1/GPa)
#
#
# Indices 1 2 3 4 5 6 
#
# 1 0.063132 -0.056388 -0.000928 0.000000 0.000000 0.000000
# 2 -0.056388 0.063137 -0.000926 0.000000 0.000000 0.000000
# 3 -0.000928 -0.000926 0.007409 0.000000 0.000000 0.000000
# 4 0.000000 0.000000 0.000000 0.165177 0.000000 0.000000
# 5 0.000000 0.000000 0.000000 0.000000 0.165150 0.000000
# 6 0.000000 0.000000 0.000000 0.000000 0.000000 0.030820
#
#
# Mechanical properties :
#
#
# Convention : Reuss Voigt Hill
#
# Bulk Modulus (GPa) = 58.15945 58.17807 58.16876
# Shear Modulus (GPa) = 8.10318 21.62201 14.86260
#
# Velocity S-wave (km/s) = 1.81171 2.95944 2.45363
# Velocity P-wave (km/s) = 5.28533 5.93663 5.62042
#
# Compressibility (1/GPa) = 0.01719411
#
# Stress axis : x y z
#
# Youngs Moduli (GPa) = 15.83981 15.83861 134.96280
#
# Poissons Ratio (x) = 0.89311 0.12518
# Poissons Ratio (y) = 0.89318 0.12502
# Poissons Ratio (z) = 0.01469 0.01467
#
# Static dielectric constant tensor:
#      x y z
#    x 1.950240 0.000000 0.000000 
#    y 0.000000 1.950250 0.000000 
#    z 0.000000 0.000000 2.208010 
# 
# From -- ./inp_files/1095.got.cif
#   From: 2010.05.17/outbox.cif.g08.bks.cpg/sg120_1_cif.got.tgz:1095.got - 2010.05.20 11:28:13.
