data_PCOD9560893
_publ_section_title
;
Structure prediction by ZEFSAII (Michael W. Deem and Ramdas Pophale) SiO2 
 PCOD9560893
Probable space group: I -4 2 D
;
_chemical_formula_sum "Si O2"
_cell_formula_units_Z 112
_cell_length_a 22.784270
_cell_length_b 22.784270
_cell_length_c 11.247916
_cell_angle_alpha 90.000000
_cell_angle_beta 90.000000
_cell_angle_gamma 90.000000
_cell_volume 5839.051441
_symmetry_space_group_name_H-M "I -4 2 D"
_symmetry_group_IT_number 122
_symmetry_cell_setting 'tetragonal'
loop_
_space_group_symop_operation_xyz
x,y,z
y,-x,-z
-x,-y,z
-y,x,-z
x,1/2-y,1/4-z
-x,1/2+y,1/4-z
-y,1/2-x,1/4+z
y,1/2+x,1/4+z
1/2+x,1/2+y,1/2+z
1/2+y,1/2-x,1/2-z
1/2-x,1/2-y,1/2+z
1/2-y,1/2+x,1/2-z
1/2+x,-y,3/4-z
1/2-x,y,3/4-z
1/2-y,-x,3/4+z
1/2+y,x,3/4+z
loop_
_atom_site_type_symbol
_atom_site_label
_atom_site_fract_x
_atom_site_fract_y
_atom_site_fract_z
Si Si1 0.374713 0.623354 0.952289
Si Si2 0.564468 0.778885 0.743924
Si Si3 0.343583 0.680640 0.395511
Si Si4 0.667743 0.508871 0.962108
Si Si5 0.973760 0.199175 0.806674
Si Si6 0.197052 0.697622 0.970048
Si Si7 0.208507 0.839775 0.649486
O O1 0.350921 0.558371 0.973516
O O2 0.349904 0.650158 0.829072
O O3 0.443943 0.627338 0.970954
O O4 0.344605 0.662602 0.056705
O O5 0.536480 0.750000 0.625000
O O6 0.619655 0.819234 0.700213
O O7 0.521812 0.808997 0.838874
O O8 0.594233 0.724140 0.812126
O O9 0.411392 0.680593 0.360157
O O10 0.332335 0.739012 0.470711
O O11 0.308096 0.691129 0.271889
O O12 0.666955 0.518533 0.819447
O O13 0.732433 0.521661 0.016113
O O14 0.250000 0.695537 0.875000
O O15 0.232286 0.681805 0.087888
#
# Coordination Sequence:
#
# PCOD9560893 Si02
#       7
#    16  16  16  16  16  16  16
#     4  11  21  37  60  95 125 169 208 262 324 388
#     4  10  22  40  63  87 125 173 208 253 321 383
#     4  11  22  39  62  92 124 175 205 261 333 388
#     4  11  23  38  67  92 127 167 213 272 327 385
#     4  11  22  42  63  95 126 164 220 264 322 399
#     4  10  21  32  57  95 130 156 205 259 326 394
#     4  10  20  38  57  87 129 162 199 254 324 384
#
# _framework density 19.181197000000001
#
# number of rings (size 3 to 8) (size 9 to 14) (size 15 to 20)
#    0.000    1.429    4.286    2.143    4.000    5.429 
#    2.571    0.000    0.000    0.429    0.000    0.000 
#    0.000    0.000    0.000    0.000    0.000    0.000 
#
# Total GULP energy -312424.318080 kJ/mol
# GULP energy per Si atom -5579.005680 kJ/mol
# Density = 1.913754 g / cm^3
# Si number density = 19.181197 Si / 1000 Ang^3
#
#
#
# Elastic Constant Matrix: (Units=GPa)
#
#
# Indices 1 2 3 4 5 6 
#
# 1 87.7062 20.8506 38.0883 0.0000 0.0000 0.0000
# 2 20.8506 87.7062 38.0883 0.0000 0.0000 0.0000
# 3 38.0883 38.0883 94.1257 0.0000 0.0000 0.0000
# 4 0.0000 0.0000 0.0000 30.6567 0.0000 0.0000
# 5 0.0000 0.0000 0.0000 0.0000 30.6567 0.0000
# 6 0.0000 0.0000 0.0000 0.0000 0.0000 18.7217
#
#
#
# Elastic Compliance Matrix: (Units=1/GPa)
#
#
# Indices 1 2 3 4 5 6 
#
# 1 0.013911 -0.001046 -0.005206 0.000000 0.000000 0.000000
# 2 -0.001046 0.013911 -0.005206 0.000000 0.000000 0.000000
# 3 -0.005206 -0.005206 0.014837 0.000000 0.000000 0.000000
# 4 0.000000 0.000000 0.000000 0.032619 0.000000 0.000000
# 5 0.000000 0.000000 0.000000 0.000000 0.032619 0.000000
# 6 0.000000 0.000000 0.000000 0.000000 0.000000 0.053414
#
#
# Mechanical properties :
#
#
# Convention : Reuss Voigt Hill
#
# Bulk Modulus (GPa) = 50.64930 51.51025 51.07978
# Shear Modulus (GPa) = 26.20419 27.50776 26.85598
#
# Velocity S-wave (km/s) = 3.70014 3.79106 3.74588
# Velocity P-wave (km/s) = 6.68713 6.78791 6.73771
#
# Compressibility (1/GPa) = 0.01974361
#
# Stress axis : x y z
#
# Youngs Moduli (GPa) = 71.88459 71.88459 67.39836
#
# Poissons Ratio (x) = 0.07522 0.35086
# Poissons Ratio (y) = 0.07522 0.35086
# Poissons Ratio (z) = 0.37421 0.37421
#
# Static dielectric constant tensor:
#      x y z
#    x 1.675020 0.000000 0.000000 
#    y 0.000000 1.675020 0.000000 
#    z 0.000000 0.000000 1.732350 
# 
# From -- ./inp_files/4600.got.cif
#   From: 2010.05.17/outbox.cif.g08.bks.cpg/sg122_3_cif.got.tgz:4600.got - 2010.05.20 11:37:33.
