data_PCOD9560120
_publ_section_title
;
Structure prediction by ZEFSAII (Michael W. Deem and Ramdas Pophale) SiO2 
 PCOD9560120
Probable space group: I -4 2 M
;
_chemical_formula_sum "Si O2"
_cell_formula_units_Z 96
_cell_length_a 13.599686
_cell_length_b 13.599686
_cell_length_c 32.966217
_cell_angle_alpha 90.000000
_cell_angle_beta 90.000000
_cell_angle_gamma 90.000000
_cell_volume 6097.149942
_symmetry_space_group_name_H-M "I -4 2 M"
_symmetry_group_IT_number 121
_symmetry_cell_setting 'tetragonal'
loop_
_space_group_symop_operation_xyz
x,y,z
y,-x,-z
-x,-y,z
-y,x,-z
x,-y,-z
-x,y,-z
-y,-x,z
y,x,z
1/2+x,1/2+y,1/2+z
1/2+y,1/2-x,1/2-z
1/2-x,1/2-y,1/2+z
1/2-y,1/2+x,1/2-z
1/2+x,1/2-y,1/2-z
1/2-x,1/2+y,1/2-z
1/2-y,1/2-x,1/2+z
1/2+y,1/2+x,1/2+z
loop_
_atom_site_type_symbol
_atom_site_label
_atom_site_fract_x
_atom_site_fract_y
_atom_site_fract_z
Si Si1 0.725704 0.993257 0.627938
Si Si2 0.701541 0.137124 0.838907
Si Si3 0.835088 0.002713 0.455027
Si Si4 0.993720 0.841764 0.709846
Si Si5 0.056454 0.396221 0.828566
Si Si6 0.641044 0.804191 0.755752
O O1 0.684777 0.882664 0.633390
O O2 0.765215 0.009478 0.583192
O O3 0.808356 0.999054 0.663030
O O4 0.642544 0.072017 0.640532
O O5 0.804900 0.195101 0.844200
O O6 0.671349 0.152208 0.791531
O O7 0.686077 0.020112 0.843998
O O8 0.896138 0.103863 0.450314
O O9 0.788784 0.000000 0.500000
O O10 0.916484 0.916484 0.454572
O O11 0.070718 0.929283 0.715651
O O12 0.038667 0.754710 0.736699
O O13 0.886515 0.886515 0.719306
O O14 0.107108 0.362857 0.787037
O O15 0.000000 0.500000 0.821383
O O16 0.728286 0.728286 0.766690
#
# Coordination Sequence:
#
# PCOD9560120 Si02
#       6
#    16  16  16  16  16  16
#     4  10  18  29  45  68  92 123 161 196 235 291
#     4  10  20  31  44  62  86 121 166 210 247 290
#     4   9  17  29  48  76 107 133 154 185 240 308
#     4   9  16  26  41  62  88 117 149 192 242 285
#     4   9  20  30  47  65  89 125 162 201 249 286
#     4   9  19  31  43  64  89 117 160 206 247 290
#
# _framework density 15.745063
#
# number of rings (size 3 to 8) (size 9 to 14) (size 15 to 20)
#    0.000    2.667    0.000    2.500    7.000    2.000 
#    0.000    0.000    0.000    5.000    0.000    0.000 
#    0.000    0.000    0.000    1.500    0.000   30.667 
#
# Total GULP energy -267474.955196 kJ/mol
# GULP energy per Si atom -5572.394900 kJ/mol
# Density = 1.570923 g / cm^3
# Si number density = 15.745063 Si / 1000 Ang^3
#
#
#
# Elastic Constant Matrix: (Units=GPa)
#
#
# Indices 1 2 3 4 5 6 
#
# 1 65.3815 24.7690 23.2105 0.0000 0.0000 0.0000
# 2 24.7690 65.3808 23.2101 0.0000 0.0000 0.0000
# 3 23.2105 23.2101 81.0725 0.0000 0.0000 0.0000
# 4 0.0000 0.0000 0.0000 12.6385 0.0000 0.0000
# 5 0.0000 0.0000 0.0000 0.0000 12.6591 0.0000
# 6 0.0000 0.0000 0.0000 0.0000 0.0000 35.4939
#
#
#
# Elastic Compliance Matrix: (Units=1/GPa)
#
#
# Indices 1 2 3 4 5 6 
#
# 1 0.018817 -0.005806 -0.003725 0.000000 0.000000 0.000000
# 2 -0.005806 0.018817 -0.003725 0.000000 0.000000 0.000000
# 3 -0.003725 -0.003725 0.014467 0.000000 0.000000 0.000000
# 4 0.000000 0.000000 0.000000 0.079123 0.000000 0.000000
# 5 0.000000 0.000000 0.000000 0.000000 0.078994 0.000000
# 6 0.000000 0.000000 0.000000 0.000000 0.000000 0.028174
#
#
# Mechanical properties :
#
#
# Convention : Reuss Voigt Hill
#
# Bulk Modulus (GPa) = 39.07875 39.35711 39.21793
# Shear Modulus (GPa) = 18.28592 21.53465 19.91029
#
# Velocity S-wave (km/s) = 3.41159 3.70227 3.55990
# Velocity P-wave (km/s) = 6.35548 6.58228 6.46988
#
# Compressibility (1/GPa) = 0.02558935
#
# Stress axis : x y z
#
# Youngs Moduli (GPa) = 53.14394 53.14357 69.12090
#
# Poissons Ratio (x) = 0.30857 0.25747
# Poissons Ratio (y) = 0.30857 0.25746
# Poissons Ratio (z) = 0.19795 0.19795
#
# Static dielectric constant tensor:
#      x y z
#    x 1.574540 0.000000 0.000000 
#    y 0.000000 1.574530 0.000000 
#    z 0.000000 0.000000 1.489510 
# 
# From -- ./inp_files/8343.got.cif
#   From: 2010.05.17/outbox.cif.g08.bks.cpg/sg121_5_cif.got.tgz:8343.got - 2010.05.20 11:32:06.
