data_PCOD9560864
_publ_section_title
;
Structure prediction by ZEFSAII (Michael W. Deem and Ramdas Pophale) SiO2 
 PCOD9560864
Probable space group: I -4 2 D
;
_chemical_formula_sum "Si O2"
_cell_formula_units_Z 56
_cell_length_a 8.342648
_cell_length_b 8.342648
_cell_length_c 35.079330
_cell_angle_alpha 90.000000
_cell_angle_beta 90.000000
_cell_angle_gamma 90.000000
_cell_volume 2441.513498
_symmetry_space_group_name_H-M "I -4 2 D"
_symmetry_group_IT_number 122
_symmetry_cell_setting 'tetragonal'
loop_
_space_group_symop_operation_xyz
x,y,z
y,-x,-z
-x,-y,z
-y,x,-z
x,1/2-y,1/4-z
-x,1/2+y,1/4-z
-y,1/2-x,1/4+z
y,1/2+x,1/4+z
1/2+x,1/2+y,1/2+z
1/2+y,1/2-x,1/2-z
1/2-x,1/2-y,1/2+z
1/2-y,1/2+x,1/2-z
1/2+x,-y,3/4-z
1/2-x,y,3/4-z
1/2-y,-x,3/4+z
1/2+y,x,3/4+z
loop_
_atom_site_type_symbol
_atom_site_label
_atom_site_fract_x
_atom_site_fract_y
_atom_site_fract_z
Si Si1 0.073112 0.727150 0.317795
Si Si2 0.081144 0.245714 0.513258
Si Si3 0.500000 0.000000 0.886628
Si Si4 0.752467 0.584999 0.299787
O O1 0.842955 0.417663 0.294867
O O2 0.063453 0.646878 0.360102
O O3 0.886731 0.721932 0.306037
O O4 0.181779 0.879129 0.305475
O O5 0.189695 0.092005 0.501431
O O6 0.143116 0.383823 0.485894
O O7 0.640092 0.933020 0.913328
#
# Coordination Sequence:
#
# PCOD9560864 Si02
#       4
#    16  16   8  16
#     4  10  20  36  61  92 119 157 207 254 313 384
#     4  11  24  39  58  88 126 167 213 269 328 381
#     4  10  20  38  67  96 126 162 208 264 324 388
#     4  10  20  36  62  92 122 158 205 258 315 384
#
# _framework density 22.936589999999999
#
# number of rings (size 3 to 8) (size 9 to 14) (size 15 to 20)
#    0.000    2.000    0.000    6.857    0.000    8.000 
#    0.000    0.000    0.000   54.857    0.000    0.000 
#    0.000    0.000    0.000    0.000    0.000    0.000 
#
# Total GULP energy -156106.888759 kJ/mol
# GULP energy per Si atom -5575.246027 kJ/mol
# Density = 2.288439 g / cm^3
# Si number density = 22.936590 Si / 1000 Ang^3
#
#
#
# Elastic Constant Matrix: (Units=GPa)
#
#
# Indices 1 2 3 4 5 6 
#
# 1 98.9010 43.7800 32.6210 0.0000 0.0000 0.0000
# 2 43.7800 98.9010 32.6210 0.0000 0.0000 0.0000
# 3 32.6210 32.6210 104.5696 0.0000 0.0000 0.0000
# 4 0.0000 0.0000 0.0000 27.2443 0.0000 0.0000
# 5 0.0000 0.0000 0.0000 0.0000 27.2443 0.0000
# 6 0.0000 0.0000 0.0000 0.0000 0.0000 40.7165
#
#
#
# Elastic Compliance Matrix: (Units=1/GPa)
#
#
# Indices 1 2 3 4 5 6 
#
# 1 0.013158 -0.004984 -0.002550 0.000000 0.000000 0.000000
# 2 -0.004984 0.013158 -0.002550 0.000000 0.000000 0.000000
# 3 -0.002550 -0.002550 0.011154 0.000000 0.000000 0.000000
# 4 0.000000 0.000000 0.000000 0.036705 0.000000 0.000000
# 5 0.000000 0.000000 0.000000 0.000000 0.036705 0.000000
# 6 0.000000 0.000000 0.000000 0.000000 0.000000 0.024560
#
#
# Mechanical properties :
#
#
# Convention : Reuss Voigt Hill
#
# Bulk Modulus (GPa) = 57.79369 57.82395 57.80882
# Shear Modulus (GPa) = 30.98356 31.93101 31.45729
#
# Velocity S-wave (km/s) = 3.67936 3.73519 3.70738
# Velocity P-wave (km/s) = 6.58043 6.62324 6.60187
#
# Compressibility (1/GPa) = 0.01730293
#
# Stress axis : x y z
#
# Youngs Moduli (GPa) = 75.99757 75.99756 89.65343
#
# Poissons Ratio (x) = 0.37874 0.22863
# Poissons Ratio (y) = 0.37874 0.22863
# Poissons Ratio (z) = 0.19380 0.19380
#
# Static dielectric constant tensor:
#      x y z
#    x 1.943800 0.000000 0.000000 
#    y 0.000000 1.943800 0.000000 
#    z 0.000000 0.000000 1.904060 
# 
# From -- ./inp_files/8459.got.cif
#   From: 2010.05.17/outbox.cif.g08.bks.cpg/sg122_5_cif.got.tgz:8459.got - 2010.05.20 11:37:33.
