data_PCOD9560825
_publ_section_title
;
Structure prediction by ZEFSAII (Michael W. Deem and Ramdas Pophale) SiO2 
 PCOD9560825
Probable space group: I -4 2 D
;
_chemical_formula_sum "Si O2"
_cell_formula_units_Z 96
_cell_length_a 16.217042
_cell_length_b 16.217042
_cell_length_c 17.761709
_cell_angle_alpha 90.000000
_cell_angle_beta 90.000000
_cell_angle_gamma 90.000000
_cell_volume 4671.195388
_symmetry_space_group_name_H-M "I -4 2 D"
_symmetry_group_IT_number 122
_symmetry_cell_setting 'tetragonal'
loop_
_space_group_symop_operation_xyz
x,y,z
y,-x,-z
-x,-y,z
-y,x,-z
x,1/2-y,1/4-z
-x,1/2+y,1/4-z
-y,1/2-x,1/4+z
y,1/2+x,1/4+z
1/2+x,1/2+y,1/2+z
1/2+y,1/2-x,1/2-z
1/2-x,1/2-y,1/2+z
1/2-y,1/2+x,1/2-z
1/2+x,-y,3/4-z
1/2-x,y,3/4-z
1/2-y,-x,3/4+z
1/2+y,x,3/4+z
loop_
_atom_site_type_symbol
_atom_site_label
_atom_site_fract_x
_atom_site_fract_y
_atom_site_fract_z
Si Si1 0.281876 0.455011 0.291149
Si Si2 0.869376 0.015169 0.028826
Si Si3 0.894733 0.220500 0.711836
Si Si4 0.249831 0.523416 0.663442
Si Si5 0.774436 0.212031 0.208594
Si Si6 0.592538 0.026827 0.053043
O O1 0.250000 0.445915 0.375000
O O2 0.219028 0.523424 0.260594
O O3 0.273560 0.363690 0.254768
O O4 0.374417 0.482336 0.272957
O O5 0.834878 0.009455 0.114439
O O6 0.932928 0.087128 0.005757
O O7 0.901006 0.250000 0.625000
O O8 0.804960 0.245128 0.743639
O O9 0.906707 0.123429 0.710706
O O10 0.962760 0.256861 0.766579
O O11 0.256506 0.616007 0.694940
O O12 0.166732 0.511456 0.613243
O O13 0.778769 0.250000 0.125000
O O14 0.500000 0.000000 0.073972
#
# Coordination Sequence:
#
# PCOD9560825 Si02
#       6
#    16  16  16  16  16  16
#     4  10  22  37  66  96 133 186 226 283 348 414
#     4  10  22  38  60 100 140 174 224 279 347 423
#     4  11  24  44  70  96 138 191 234 293 354 411
#     4  11  23  43  70  98 136 181 235 289 354 420
#     4  10  19  42  67  90 132 184 223 278 351 408
#     4  11  24  44  65 104 140 178 238 291 353 416
#
# _framework density 20.551486000000001
#
# number of rings (size 3 to 8) (size 9 to 14) (size 15 to 20)
#    0.000    1.500    3.333    3.000    4.667    1.333 
#    0.000    3.333    0.000    0.000    0.000    0.000 
#    0.000    0.000    0.000    0.000    0.000    0.000 
#
# Total GULP energy -267429.932746 kJ/mol
# GULP energy per Si atom -5571.456932 kJ/mol
# Density = 2.050471 g / cm^3
# Si number density = 20.551486 Si / 1000 Ang^3
#
#
#
# Elastic Constant Matrix: (Units=GPa)
#
#
# Indices 1 2 3 4 5 6 
#
# 1 125.0335 22.2150 19.7701 0.0000 0.0000 0.0000
# 2 22.2150 125.0335 19.7702 0.0000 0.0000 0.0000
# 3 19.7701 19.7702 41.8439 0.0000 0.0000 0.0000
# 4 0.0000 0.0000 0.0000 21.8186 0.0000 0.0000
# 5 0.0000 0.0000 0.0000 0.0000 21.8186 0.0000
# 6 0.0000 0.0000 0.0000 0.0000 0.0000 32.5855
#
#
#
# Elastic Compliance Matrix: (Units=1/GPa)
#
#
# Indices 1 2 3 4 5 6 
#
# 1 0.008752 -0.000974 -0.003675 0.000000 0.000000 0.000000
# 2 -0.000974 0.008752 -0.003675 0.000000 0.000000 0.000000
# 3 -0.003675 -0.003675 0.027371 0.000000 0.000000 0.000000
# 4 0.000000 0.000000 0.000000 0.045832 0.000000 0.000000
# 5 0.000000 0.000000 0.000000 0.000000 0.045832 0.000000
# 6 0.000000 0.000000 0.000000 0.000000 0.000000 0.030689
#
#
# Mechanical properties :
#
#
# Convention : Reuss Voigt Hill
#
# Bulk Modulus (GPa) = 35.42659 46.15792 40.79226
# Shear Modulus (GPa) = 25.86852 30.58823 28.22838
#
# Velocity S-wave (km/s) = 3.55169 3.86213 3.71016
# Velocity P-wave (km/s) = 5.83907 6.51125 6.18430
#
# Compressibility (1/GPa) = 0.02822739
#
# Stress axis : x y z
#
# Youngs Moduli (GPa) = 114.25996 114.25996 36.53501
#
# Poissons Ratio (x) = 0.11128 0.13426
# Poissons Ratio (y) = 0.11128 0.13426
# Poissons Ratio (z) = 0.41990 0.41990
#
# Static dielectric constant tensor:
#      x y z
#    x 1.729630 0.000000 0.000000 
#    y 0.000000 1.729630 0.000000 
#    z 0.000000 0.000000 1.814500 
# 
# From -- ./inp_files/7302.got.cif
#   From: 2010.05.17/outbox.cif.g08.bks.cpg/sg122_4_cif.got.tgz:7302.got - 2010.05.20 11:37:33.
