data_PCOD9560141
_publ_section_title
;
Structure prediction by ZEFSAII (Michael W. Deem and Ramdas Pophale) SiO2 
 PCOD9560141
Probable space group: I -4 2 M
;
_chemical_formula_sum "Si O2"
_cell_formula_units_Z 48
_cell_length_a 22.315405
_cell_length_b 22.315405
_cell_length_c 5.001006
_cell_angle_alpha 90.000000
_cell_angle_beta 90.000000
_cell_angle_gamma 90.000000
_cell_volume 2490.387467
_symmetry_space_group_name_H-M "I -4 2 M"
_symmetry_group_IT_number 121
_symmetry_cell_setting 'tetragonal'
loop_
_space_group_symop_operation_xyz
x,y,z
y,-x,-z
-x,-y,z
-y,x,-z
x,-y,-z
-x,y,-z
-y,-x,z
y,x,z
1/2+x,1/2+y,1/2+z
1/2+y,1/2-x,1/2-z
1/2-x,1/2-y,1/2+z
1/2-y,1/2+x,1/2-z
1/2+x,1/2-y,1/2-z
1/2-x,1/2+y,1/2-z
1/2-y,1/2-x,1/2+z
1/2+y,1/2+x,1/2+z
loop_
_atom_site_type_symbol
_atom_site_label
_atom_site_fract_x
_atom_site_fract_y
_atom_site_fract_z
Si Si1 0.705321 0.705321 0.657073
Si Si2 0.039848 0.227056 0.748972
Si Si3 0.633322 0.180093 0.494061
Si Si4 0.851644 0.148356 0.335579
O O1 0.771109 0.685767 0.566322
O O2 0.663659 0.663659 0.470668
O O3 0.687671 0.687671 0.957135
O O4 0.081534 0.280155 0.870772
O O5 0.081382 0.173195 0.635859
O O6 0.000000 0.248342 0.500000
O O7 0.000000 0.206698 0.000000
O O8 0.628144 0.152376 0.199813
#
# Coordination Sequence:
#
# PCOD9560141 Si02
#       4
#     8  16  16   8
#     4  10  18  31  50  78 110 141 170 211 274 356
#     4  11  22  37  56  79 112 151 192 236 283 336
#     4  11  20  32  51  79 112 143 178 218 275 346
#     4  10  20  35  54  77 106 146 190 230 278 329
#
# _framework density 19.27411
#
# number of rings (size 3 to 8) (size 9 to 14) (size 15 to 20)
#    0.000    1.333    0.000   11.000    0.000    0.000 
#    0.000    0.000    0.000    3.000    0.000    0.000 
#    0.000   46.667    0.000    0.000    0.000    0.000 
#
# Total GULP energy -133717.550783 kJ/mol
# GULP energy per Si atom -5571.564616 kJ/mol
# Density = 1.923024 g / cm^3
# Si number density = 19.274110 Si / 1000 Ang^3
#
#
#
# Elastic Constant Matrix: (Units=GPa)
#
#
# Indices 1 2 3 4 5 6 
#
# 1 169.6587 -73.4645 42.5789 0.0000 0.0000 0.0000
# 2 -73.4645 169.6544 42.6105 0.0000 0.0000 0.0000
# 3 42.5789 42.6105 111.3528 0.0000 0.0000 0.0000
# 4 0.0000 0.0000 0.0000 38.5228 0.0000 0.0000
# 5 0.0000 0.0000 0.0000 0.0000 38.5218 0.0000
# 6 0.0000 0.0000 0.0000 0.0000 0.0000 11.0592
#
#
#
# Elastic Compliance Matrix: (Units=1/GPa)
#
#
# Indices 1 2 3 4 5 6 
#
# 1 0.009917 0.005804 -0.006013 0.000000 0.000000 0.000000
# 2 0.005804 0.009918 -0.006015 0.000000 0.000000 0.000000
# 3 -0.006013 -0.006015 0.013581 0.000000 0.000000 0.000000
# 4 0.000000 0.000000 0.000000 0.025959 0.000000 0.000000
# 5 0.000000 0.000000 0.000000 0.000000 0.025959 0.000000
# 6 0.000000 0.000000 0.000000 0.000000 0.000000 0.090422
#
#
# Mechanical properties :
#
#
# Convention : Reuss Voigt Hill
#
# Bulk Modulus (GPa) = 47.68847 52.67953 50.18400
# Shear Modulus (GPa) = 25.61558 46.88349 36.24954
#
# Velocity S-wave (km/s) = 3.64952 4.93735 4.34145
# Velocity P-wave (km/s) = 6.52339 7.73914 7.15713
#
# Compressibility (1/GPa) = 0.02096943
#
# Stress axis : x y z
#
# Youngs Moduli (GPa) = 100.84061 100.82189 73.63018
#
# Poissons Ratio (x) = -0.58521 0.44274
# Poissons Ratio (y) = -0.58532 0.44288
# Poissons Ratio (z) = 0.60636 0.60643
#
# Static dielectric constant tensor:
#      x y z
#    x 1.732530 0.000000 0.000000 
#    y 0.000000 1.732540 0.000000 
#    z 0.000000 0.000000 1.716420 
# 
# From -- ./inp_files/308.got.cif
#   From: 2010.05.17/outbox.cif.g08.bks.cpg/sg121_1_cif.got.tgz:308.got - 2010.05.20 11:32:06.
