data_PCOD9560547
_publ_section_title
;
Structure prediction by ZEFSAII (Michael W. Deem and Ramdas Pophale) SiO2 
 PCOD9560547
Probable space group: I -4 2 M
;
_chemical_formula_sum "Si O2"
_cell_formula_units_Z 88
_cell_length_a 12.846793
_cell_length_b 12.846793
_cell_length_c 27.713889
_cell_angle_alpha 90.000000
_cell_angle_beta 90.000000
_cell_angle_gamma 90.000000
_cell_volume 4573.902745
_symmetry_space_group_name_H-M "I -4 2 M"
_symmetry_group_IT_number 121
_symmetry_cell_setting 'tetragonal'
loop_
_space_group_symop_operation_xyz
x,y,z
y,-x,-z
-x,-y,z
-y,x,-z
x,-y,-z
-x,y,-z
-y,-x,z
y,x,z
1/2+x,1/2+y,1/2+z
1/2+y,1/2-x,1/2-z
1/2-x,1/2-y,1/2+z
1/2-y,1/2+x,1/2-z
1/2+x,1/2-y,1/2-z
1/2-x,1/2+y,1/2-z
1/2-y,1/2-x,1/2+z
1/2+y,1/2+x,1/2+z
loop_
_atom_site_type_symbol
_atom_site_label
_atom_site_fract_x
_atom_site_fract_y
_atom_site_fract_z
Si Si1 0.837782 0.503254 0.769911
Si Si2 0.190744 0.500000 0.500000
Si Si3 0.583711 0.241542 0.400894
Si Si4 0.005405 0.171174 0.807248
Si Si5 0.125846 0.488317 0.117390
Si Si6 0.101136 0.278654 0.471265
O O1 0.901841 0.600155 0.748471
O O2 0.727731 0.501271 0.743850
O O3 0.842692 0.505529 0.827330
O O4 0.249181 0.485170 0.550791
O O5 0.129023 0.391600 0.494341
O O6 0.666895 0.333106 0.402283
O O7 0.516723 0.252087 0.351939
O O8 0.642386 0.131485 0.397579
O O9 0.916808 0.083193 0.809414
O O10 0.115098 0.115098 0.813618
O O11 0.189460 0.564014 0.082388
O O12 0.000000 0.500000 0.111972
O O13 0.197759 0.197759 0.472828
O O14 0.000000 0.237104 0.500000
#
# Coordination Sequence:
#
# PCOD9560547 Si02
#       6
#    16   8  16  16  16  16
#     4  11  21  37  63  95 125 162 214 267 315 379
#     4  12  23  42  66  95 128 167 222 270 313 396
#     4  11  23  40  64  93 127 169 213 265 330 389
#     4  10  23  42  61  88 129 171 211 263 329 391
#     4  12  21  41  67  97 130 167 219 273 317 386
#     4  12  26  44  70 101 133 174 219 272 333 391
#
# _framework density 19.239585999999999
#
# number of rings (size 3 to 8) (size 9 to 14) (size 15 to 20)
#    0.000    0.727    7.273    0.818    0.000    3.818 
#    0.000    0.000    0.000    2.455    0.000    0.000 
#    0.000    0.000    0.000    0.000    0.000    0.000 
#
# Total GULP energy -245681.313348 kJ/mol
# GULP energy per Si atom -5583.666212 kJ/mol
# Density = 1.919580 g / cm^3
# Si number density = 19.239586 Si / 1000 Ang^3
#
#
#
# Elastic Constant Matrix: (Units=GPa)
#
#
# Indices 1 2 3 4 5 6 
#
# 1 81.0036 37.6420 37.8668 0.0000 0.0000 0.0000
# 2 37.6420 81.0035 37.8668 0.0000 0.0000 0.0000
# 3 37.8668 37.8668 162.6582 0.0000 0.0000 0.0000
# 4 0.0000 0.0000 0.0000 23.4093 0.0000 0.0000
# 5 0.0000 0.0000 0.0000 0.0000 23.4089 0.0000
# 6 0.0000 0.0000 0.0000 0.0000 0.0000 33.9546
#
#
#
# Elastic Compliance Matrix: (Units=1/GPa)
#
#
# Indices 1 2 3 4 5 6 
#
# 1 0.016481 -0.006581 -0.002305 0.000000 0.000000 0.000000
# 2 -0.006581 0.016481 -0.002305 0.000000 0.000000 0.000000
# 3 -0.002305 -0.002305 0.007221 0.000000 0.000000 0.000000
# 4 0.000000 0.000000 0.000000 0.042718 0.000000 0.000000
# 5 0.000000 0.000000 0.000000 0.000000 0.042719 0.000000
# 6 0.000000 0.000000 0.000000 0.000000 0.000000 0.029451
#
#
# Mechanical properties :
#
#
# Convention : Reuss Voigt Hill
#
# Bulk Modulus (GPa) = 56.17496 61.26849 58.72173
# Shear Modulus (GPa) = 27.26504 30.24053 28.75279
#
# Velocity S-wave (km/s) = 3.76857 3.96888 3.87002
# Velocity P-wave (km/s) = 6.94241 7.27439 7.11034
#
# Compressibility (1/GPa) = 0.01780153
#
# Stress axis : x y z
#
# Youngs Moduli (GPa) = 60.67700 60.67695 138.48721
#
# Poissons Ratio (x) = 0.39933 0.31916
# Poissons Ratio (y) = 0.39933 0.31916
# Poissons Ratio (z) = 0.13984 0.13984
#
# Static dielectric constant tensor:
#      x y z
#    x 1.683930 0.000000 0.000000 
#    y 0.000000 1.683930 0.000000 
#    z 0.000000 0.000000 1.688160 
# 
# From -- ./inp_files/8227.got.cif
#   From: 2010.05.17/outbox.cif.g08.bks.cpg/sg121_5_cif.got.tgz:8227.got - 2010.05.20 11:32:06.
