data_PCOD9560241
_publ_section_title
;
Structure prediction by ZEFSAII (Michael W. Deem and Ramdas Pophale) SiO2 
 PCOD9560241
Probable space group: I -4 2 M
;
_chemical_formula_sum "Si O2"
_cell_formula_units_Z 128
_cell_length_a 23.874214
_cell_length_b 23.874214
_cell_length_c 12.046690
_cell_angle_alpha 90.000000
_cell_angle_beta 90.000000
_cell_angle_gamma 90.000000
_cell_volume 6866.349407
_symmetry_space_group_name_H-M "I -4 2 M"
_symmetry_group_IT_number 121
_symmetry_cell_setting 'tetragonal'
loop_
_space_group_symop_operation_xyz
x,y,z
y,-x,-z
-x,-y,z
-y,x,-z
x,-y,-z
-x,y,-z
-y,-x,z
y,x,z
1/2+x,1/2+y,1/2+z
1/2+y,1/2-x,1/2-z
1/2-x,1/2-y,1/2+z
1/2-y,1/2+x,1/2-z
1/2+x,1/2-y,1/2-z
1/2-x,1/2+y,1/2-z
1/2-y,1/2-x,1/2+z
1/2+y,1/2+x,1/2+z
loop_
_atom_site_type_symbol
_atom_site_label
_atom_site_fract_x
_atom_site_fract_y
_atom_site_fract_z
Si Si1 0.502483 0.407205 0.121296
Si Si2 0.915403 0.172235 0.955527
Si Si3 0.021848 0.178480 0.815025
Si Si4 0.547195 0.082115 0.091407
Si Si5 0.736903 0.171313 0.041098
Si Si6 0.127647 0.362359 0.571988
Si Si7 0.290560 0.081413 0.774758
Si Si8 0.486940 0.126204 0.668861
O O1 0.561894 0.438107 0.136212
O O2 0.456099 0.456099 0.115143
O O3 0.487999 0.368397 0.223815
O O4 0.500000 0.378508 0.000000
O O5 0.883196 0.116804 0.915801
O O6 0.961909 0.193064 0.869653
O O7 0.942963 0.160199 0.076130
O O8 0.870069 0.219802 0.979597
O O9 0.054570 0.229627 0.758039
O O10 0.524101 0.108211 0.204594
O O11 0.575382 0.022459 0.116964
O O12 0.500000 0.076019 0.000000
O O13 0.591282 0.125391 0.037612
O O14 0.770849 0.229152 0.060951
O O15 0.718364 0.137292 0.151722
O O16 0.682325 0.172073 0.963839
O O17 0.095828 0.327450 0.667107
O O18 0.138286 0.426144 0.616290
O O19 0.323469 0.031632 0.838862
#
# Coordination Sequence:
#
# PCOD9560241 Si02
#       8
#    16  16  16  16  16  16  16  16
#     4   9  18  34  56  82 115 156 197 241 302 374
#     4   9  18  33  57  87 117 151 194 250 313 368
#     4  10  19  33  56  87 121 152 198 248 308 375
#     4  12  24  40  60  91 130 166 206 256 310 388
#     4  10  22  41  63  86 114 157 212 262 306 363
#     4  12  23  40  62  89 124 166 206 257 312 375
#     4  11  23  40  60  90 119 164 203 254 312 371
#     4  12  23  40  60  91 128 165 211 250 319 382
#
# _framework density 18.641638
#
# number of rings (size 3 to 8) (size 9 to 14) (size 15 to 20)
#    0.000    1.375    3.750    2.250    0.000    5.250 
#    2.250    0.000    0.000    3.000    0.000    0.000 
#    0.000    0.000    0.000    0.000    0.000    0.000 
#
# Total GULP energy -357134.119068 kJ/mol
# GULP energy per Si atom -5580.220610 kJ/mol
# Density = 1.859921 g / cm^3
# Si number density = 18.641638 Si / 1000 Ang^3
#
#
#
# Elastic Constant Matrix: (Units=GPa)
#
#
# Indices 1 2 3 4 5 6 
#
# 1 85.4591 34.7003 34.9162 0.0000 0.0000 0.0000
# 2 34.7003 85.4584 34.9176 0.0000 0.0000 0.0000
# 3 34.9162 34.9176 84.9661 0.0000 0.0000 0.0000
# 4 0.0000 0.0000 0.0000 28.6205 0.0000 0.0000
# 5 0.0000 0.0000 0.0000 0.0000 28.6199 0.0000
# 6 0.0000 0.0000 0.0000 0.0000 0.0000 34.1041
#
#
#
# Elastic Compliance Matrix: (Units=1/GPa)
#
#
# Indices 1 2 3 4 5 6 
#
# 1 0.015317 -0.004384 -0.004493 0.000000 0.000000 0.000000
# 2 -0.004384 0.015318 -0.004493 0.000000 0.000000 0.000000
# 3 -0.004493 -0.004493 0.015462 0.000000 0.000000 0.000000
# 4 0.000000 0.000000 0.000000 0.034940 0.000000 0.000000
# 5 0.000000 0.000000 0.000000 0.000000 0.034941 0.000000
# 6 0.000000 0.000000 0.000000 0.000000 0.000000 0.029322
#
#
# Mechanical properties :
#
#
# Convention : Reuss Voigt Hill
#
# Bulk Modulus (GPa) = 51.66118 51.66129 51.66124
# Shear Modulus (GPa) = 28.01238 28.35886 28.18562
#
# Velocity S-wave (km/s) = 3.88064 3.90457 3.89263
# Velocity P-wave (km/s) = 6.91753 6.93546 6.92650
#
# Compressibility (1/GPa) = 0.01935689
#
# Stress axis : x y z
#
# Youngs Moduli (GPa) = 65.28604 65.28436 64.67318
#
# Poissons Ratio (x) = 0.28619 0.29057
# Poissons Ratio (y) = 0.28620 0.29060
# Poissons Ratio (z) = 0.29333 0.29335
#
# Static dielectric constant tensor:
#      x y z
#    x 1.669370 0.000000 0.000000 
#    y 0.000000 1.669370 0.000000 
#    z 0.000000 0.000000 1.642590 
# 
# From -- ./inp_files/3548.got.cif
#   From: 2010.05.17/outbox.cif.g08.bks.cpg/sg121_2_cif.got.tgz:3548.got - 2010.05.20 11:32:06.
