data_PCOD9560520
_publ_section_title
;
Structure prediction by ZEFSAII (Michael W. Deem and Ramdas Pophale) SiO2 
 PCOD9560520
Probable space group: I -4 2 M
;
_chemical_formula_sum "Si O2"
_cell_formula_units_Z 40
_cell_length_a 9.227259
_cell_length_b 9.227259
_cell_length_c 19.538277
_cell_angle_alpha 90.000000
_cell_angle_beta 90.000000
_cell_angle_gamma 90.000000
_cell_volume 1663.534011
_symmetry_space_group_name_H-M "I -4 2 M"
_symmetry_group_IT_number 121
_symmetry_cell_setting 'tetragonal'
loop_
_space_group_symop_operation_xyz
x,y,z
y,-x,-z
-x,-y,z
-y,x,-z
x,-y,-z
-x,y,-z
-y,-x,z
y,x,z
1/2+x,1/2+y,1/2+z
1/2+y,1/2-x,1/2-z
1/2-x,1/2-y,1/2+z
1/2-y,1/2+x,1/2-z
1/2+x,1/2-y,1/2-z
1/2-x,1/2+y,1/2-z
1/2-y,1/2-x,1/2+z
1/2+y,1/2+x,1/2+z
loop_
_atom_site_type_symbol
_atom_site_label
_atom_site_fract_x
_atom_site_fract_y
_atom_site_fract_z
Si Si1 0.738924 0.500000 0.000000
Si Si2 0.785027 0.451325 0.723056
Si Si3 0.931903 0.311029 0.074442
O O1 0.844697 0.539008 0.937544
O O2 0.635328 0.364673 0.985277
O O3 0.634653 0.365348 0.735829
O O4 0.832473 0.585153 0.770419
O O5 0.794560 0.513810 0.645588
O O6 0.808411 0.191590 0.083510
O O7 0.000000 0.281946 0.000000
#
# Coordination Sequence:
#
# PCOD9560520 Si02
#       3
#     8  16  16
#     4   9  19  34  56  88 119 153 198 248 306 361
#     4  10  24  43  63  93 129 168 212 256 312 378
#     4  10  22  39  61  89 122 161 205 254 305 362
#
# _framework density 24.045193999999999
#
# number of rings (size 3 to 8) (size 9 to 14) (size 15 to 20)
#    0.000    2.200    0.000    0.600   11.200    4.400 
#    0.000    8.000    0.000    0.000    0.000    0.000 
#    0.000    0.000    0.000    0.000    0.000    0.000 
#
# Total GULP energy -111551.371257 kJ/mol
# GULP energy per Si atom -5577.568563 kJ/mol
# Density = 2.399047 g / cm^3
# Si number density = 24.045194 Si / 1000 Ang^3
#
#
#
# Elastic Constant Matrix: (Units=GPa)
#
#
# Indices 1 2 3 4 5 6 
#
# 1 47.0116 7.8662 -4.1298 0.0000 0.0000 0.0000
# 2 7.8662 47.0076 -4.1316 0.0000 0.0000 0.0000
# 3 -4.1298 -4.1316 103.9739 0.0000 0.0000 0.0000
# 4 0.0000 0.0000 0.0000 5.8998 0.0000 0.0000
# 5 0.0000 0.0000 0.0000 0.0000 5.9037 0.0000
# 6 0.0000 0.0000 0.0000 0.0000 0.0000 22.5856
#
#
#
# Elastic Compliance Matrix: (Units=1/GPa)
#
#
# Indices 1 2 3 4 5 6 
#
# 1 0.021939 -0.003607 0.000728 0.000000 0.000000 0.000000
# 2 -0.003607 0.021941 0.000729 0.000000 0.000000 0.000000
# 3 0.000728 0.000729 0.009676 0.000000 0.000000 0.000000
# 4 0.000000 0.000000 0.000000 0.169498 0.000000 0.000000
# 5 0.000000 0.000000 0.000000 0.000000 0.169387 0.000000
# 6 0.000000 0.000000 0.000000 0.000000 0.000000 0.044276
#
#
# Mechanical properties :
#
#
# Convention : Reuss Voigt Hill
#
# Bulk Modulus (GPa) = 20.30284 21.91141 21.10712
# Shear Modulus (GPa) = 10.93051 20.10368 15.51710
#
# Velocity S-wave (km/s) = 2.13441 2.89464 2.54309
# Velocity P-wave (km/s) = 3.81264 4.50603 4.17376
#
# Compressibility (1/GPa) = 0.04925419
#
# Stress axis : x y z
#
# Youngs Moduli (GPa) = 45.58114 45.57715 103.35199
#
# Poissons Ratio (x) = 0.16441 -0.07525
# Poissons Ratio (y) = 0.16442 -0.07530
# Poissons Ratio (z) = -0.03319 -0.03321
#
# Static dielectric constant tensor:
#      x y z
#    x 1.944580 0.000000 0.000000 
#    y 0.000000 1.944580 0.000000 
#    z 0.000000 0.000000 1.911590 
# 
# From -- ./inp_files/3769.got.cif
#   From: 2010.05.17/outbox.cif.g08.bks.cpg/sg121_2_cif.got.tgz:3769.got - 2010.05.20 11:32:06.
