data_PCOD9560936
_publ_section_title
;
Structure prediction by ZEFSAII (Michael W. Deem and Ramdas Pophale) SiO2 
 PCOD9560936
Probable space group: I -4 2 D
;
_chemical_formula_sum "Si O2"
_cell_formula_units_Z 64
_cell_length_a 10.449041
_cell_length_b 10.449041
_cell_length_c 23.031838
_cell_angle_alpha 90.000000
_cell_angle_beta 90.000000
_cell_angle_gamma 90.000000
_cell_volume 2514.672681
_symmetry_space_group_name_H-M "I -4 2 D"
_symmetry_group_IT_number 122
_symmetry_cell_setting 'tetragonal'
loop_
_space_group_symop_operation_xyz
x,y,z
y,-x,-z
-x,-y,z
-y,x,-z
x,1/2-y,1/4-z
-x,1/2+y,1/4-z
-y,1/2-x,1/4+z
y,1/2+x,1/4+z
1/2+x,1/2+y,1/2+z
1/2+y,1/2-x,1/2-z
1/2-x,1/2-y,1/2+z
1/2-y,1/2+x,1/2-z
1/2+x,-y,3/4-z
1/2-x,y,3/4-z
1/2-y,-x,3/4+z
1/2+y,x,3/4+z
loop_
_atom_site_type_symbol
_atom_site_label
_atom_site_fract_x
_atom_site_fract_y
_atom_site_fract_z
Si Si1 0.067324 0.683838 0.775649
Si Si2 0.944388 0.368651 0.155008
Si Si3 0.110102 0.606021 0.901805
Si Si4 0.794516 0.167870 0.982458
O O1 0.153956 0.565810 0.753450
O O2 0.057020 0.683351 0.845175
O O3 0.146393 0.804287 0.754623
O O4 0.872478 0.250000 0.125000
O O5 0.860574 0.395333 0.212074
O O6 0.000000 0.500000 0.127838
O O7 0.068421 0.300174 0.180998
O O8 0.250000 0.559915 0.875000
O O9 0.140115 0.703620 0.954818
O O10 0.000000 0.500000 0.913016
#
# Coordination Sequence:
#
# PCOD9560936 Si02
#       4
#    16  16  16  16
#     4  10  20  40  66 102 148 187 239 306 376 444
#     4  12  26  51  74 103 147 193 251 313 375 454
#     4  10  21  39  64 102 141 189 238 306 370 449
#     4  11  24  45  70 100 144 187 242 304 378 449
#
# _framework density 25.450631000000001
#
# number of rings (size 3 to 8) (size 9 to 14) (size 15 to 20)
#    0.000    1.250    5.000    2.250    0.000    9.000 
#    0.000    0.000    0.000    0.000    0.000    0.000 
#    0.000    0.000    0.000    0.000    0.000    0.000 
#
# Total GULP energy -178575.231847 kJ/mol
# GULP energy per Si atom -5580.475995 kJ/mol
# Density = 2.539270 g / cm^3
# Si number density = 25.450631 Si / 1000 Ang^3
#
#
#
# Elastic Constant Matrix: (Units=GPa)
#
#
# Indices 1 2 3 4 5 6 
#
# 1 52.6330 27.0417 2.8079 0.0000 0.0000 0.0000
# 2 27.0417 52.6330 2.8079 0.0000 0.0000 0.0000
# 3 2.8079 2.8079 70.6578 0.0000 0.0000 0.0000
# 4 0.0000 0.0000 0.0000 -40.2892 0.0000 0.0000
# 5 0.0000 0.0000 0.0000 0.0000 -40.2892 0.0000
# 6 0.0000 0.0000 0.0000 0.0000 0.0000 53.1911
#
#
#
# Elastic Compliance Matrix: (Units=1/GPa)
#
#
# Indices 1 2 3 4 5 6 
#
# 1 0.025831 -0.013245 -0.000500 0.000000 0.000000 0.000000
# 2 -0.013245 0.025831 -0.000500 0.000000 0.000000 0.000000
# 3 -0.000500 -0.000500 0.014192 0.000000 0.000000 0.000000
# 4 0.000000 0.000000 0.000000 -0.024821 0.000000 0.000000
# 5 0.000000 0.000000 0.000000 0.000000 -0.024821 0.000000
# 6 0.000000 0.000000 0.000000 0.000000 0.000000 0.018800
#
#
# Mechanical properties :
#
#
# Convention : Reuss Voigt Hill
#
# Bulk Modulus (GPa) = 26.76347 26.80431 26.78389
# Shear Modulus (GPa) = 65.82561 4.07365 34.94963
#
# Velocity S-wave (km/s) = 5.09119 1.26652 3.70974
# Velocity P-wave (km/s) = 6.71557 3.56280 5.37552
#
# Compressibility (1/GPa) = 0.03736436
#
# Stress axis : x y z
#
# Youngs Moduli (GPa) = 38.71320 38.71320 70.45991
#
# Poissons Ratio (x) = 0.51274 0.03524
# Poissons Ratio (y) = 0.51274 0.03524
# Poissons Ratio (z) = 0.01936 0.01936
#
# Static dielectric constant tensor:
#      x y z
#    x 2.199980 0.000000 0.000000 
#    y 0.000000 2.199980 0.000000 
#    z 0.000000 0.000000 2.008430 
# 
# From -- ./inp_files/6941.got.cif
#   From: 2010.05.17/outbox.cif.g08.bks.cpg/sg122_4_cif.got.tgz:6941.got - 2010.05.20 11:37:33.
