data_PCOD9560164
_publ_section_title
;
Structure prediction by ZEFSAII (Michael W. Deem and Ramdas Pophale) SiO2 
 PCOD9560164
Probable space group: I -4 2 M
;
_chemical_formula_sum "Si O2"
_cell_formula_units_Z 112
_cell_length_a 17.584291
_cell_length_b 17.584291
_cell_length_c 19.006852
_cell_angle_alpha 90.000000
_cell_angle_beta 90.000000
_cell_angle_gamma 90.000000
_cell_volume 5877.057198
_symmetry_space_group_name_H-M "I -4 2 M"
_symmetry_group_IT_number 121
_symmetry_cell_setting 'tetragonal'
loop_
_space_group_symop_operation_xyz
x,y,z
y,-x,-z
-x,-y,z
-y,x,-z
x,-y,-z
-x,y,-z
-y,-x,z
y,x,z
1/2+x,1/2+y,1/2+z
1/2+y,1/2-x,1/2-z
1/2-x,1/2-y,1/2+z
1/2-y,1/2+x,1/2-z
1/2+x,1/2-y,1/2-z
1/2-x,1/2+y,1/2-z
1/2-y,1/2-x,1/2+z
1/2+y,1/2+x,1/2+z
loop_
_atom_site_type_symbol
_atom_site_label
_atom_site_fract_x
_atom_site_fract_y
_atom_site_fract_z
Si Si1 0.778516 0.341161 0.153888
Si Si2 0.534850 0.182028 0.349471
Si Si3 0.816761 0.060054 0.940934
Si Si4 0.941120 0.591885 0.563258
Si Si5 0.183254 0.493345 0.192062
Si Si6 0.681748 0.804931 0.501391
Si Si7 0.790196 0.331194 0.801066
O O1 0.695460 0.304541 0.151039
O O2 0.776047 0.429382 0.171662
O O3 0.819221 0.322554 0.081227
O O4 0.821638 0.300462 0.217692
O O5 0.519292 0.265816 0.380527
O O6 0.526398 0.117696 0.410044
O O7 0.497272 0.161216 0.274773
O O8 0.625548 0.183297 0.331489
O O9 0.886813 0.113188 0.916400
O O10 0.755568 0.117205 0.977081
O O11 0.841622 0.000000 0.000000
O O12 0.884683 0.660189 0.537956
O O13 0.000000 0.578899 0.500000
O O14 0.983652 0.615675 0.635384
O O15 0.232108 0.417160 0.183460
O O16 0.762043 0.762043 0.515974
O O17 0.731725 0.268276 0.826306
#
# Coordination Sequence:
#
# PCOD9560164 Si02
#       7
#    16  16  16  16  16  16  16
#     4   9  17  31  52  79 109 142 181 224 269 322
#     4   9  20  35  53  80 112 147 177 229 279 327
#     4  10  21  36  57  81 108 145 186 232 280 329
#     4  10  18  33  56  81 108 140 184 227 273 325
#     4  10  19  32  55  83 112 141 180 229 275 327
#     4   9  18  33  56  82 109 137 179 227 271 322
#     4   9  18  32  55  81 105 140 184 226 270 322
#
# _framework density 19.057155999999999
#
# number of rings (size 3 to 8) (size 9 to 14) (size 15 to 20)
#    0.000    2.571    1.429    0.429    2.000    4.143 
#    0.000    0.000    0.000   72.857    0.000    0.000 
#    0.000    0.286    0.000    0.000    0.000    0.000 
#
# Total GULP energy -312057.741339 kJ/mol
# GULP energy per Si atom -5572.459667 kJ/mol
# Density = 1.901378 g / cm^3
# Si number density = 19.057156 Si / 1000 Ang^3
#
#
#
# Elastic Constant Matrix: (Units=GPa)
#
#
# Indices 1 2 3 4 5 6 
#
# 1 58.7147 12.3936 7.0314 0.0000 0.0000 0.0000
# 2 12.3936 58.7161 7.0302 0.0000 0.0000 0.0000
# 3 7.0314 7.0302 125.8788 0.0000 0.0000 0.0000
# 4 0.0000 0.0000 0.0000 17.2044 0.0000 0.0000
# 5 0.0000 0.0000 0.0000 0.0000 17.2052 0.0000
# 6 0.0000 0.0000 0.0000 0.0000 0.0000 8.7530
#
#
#
# Elastic Compliance Matrix: (Units=1/GPa)
#
#
# Indices 1 2 3 4 5 6 
#
# 1 0.017904 -0.003684 -0.000794 0.000000 0.000000 0.000000
# 2 -0.003684 0.017904 -0.000794 0.000000 0.000000 0.000000
# 3 -0.000794 -0.000794 0.008033 0.000000 0.000000 0.000000
# 4 0.000000 0.000000 0.000000 0.058125 0.000000 0.000000
# 5 0.000000 0.000000 0.000000 0.000000 0.058122 0.000000
# 6 0.000000 0.000000 0.000000 0.000000 0.000000 0.114246
#
#
# Mechanical properties :
#
#
# Convention : Reuss Voigt Hill
#
# Bulk Modulus (GPa) = 30.03374 32.91332 31.47353
# Shear Modulus (GPa) = 16.89317 23.08950 19.99133
#
# Velocity S-wave (km/s) = 2.98056 3.48457 3.24237
# Velocity P-wave (km/s) = 5.25728 5.78774 5.52888
#
# Compressibility (1/GPa) = 0.03329588
#
# Stress axis : x y z
#
# Youngs Moduli (GPa) = 55.85259 55.85410 124.48852
#
# Poissons Ratio (x) = 0.20577 0.09889
# Poissons Ratio (y) = 0.20576 0.09886
# Poissons Ratio (z) = 0.04437 0.04435
#
# Static dielectric constant tensor:
#      x y z
#    x 1.688470 0.000000 0.000000 
#    y 0.000000 1.688470 0.000000 
#    z 0.000000 0.000000 1.746480 
# 
# From -- ./inp_files/6619.got.cif
#   From: 2010.05.17/outbox.cif.g08.bks.cpg/sg121_4_cif.got.tgz:6619.got - 2010.05.20 11:32:06.
