data_PCOD9560832
_publ_section_title
;
Structure prediction by ZEFSAII (Michael W. Deem and Ramdas Pophale) SiO2 
 PCOD9560832
Probable space group: I -4 2 D
;
_chemical_formula_sum "Si O2"
_cell_formula_units_Z 48
_cell_length_a 17.119509
_cell_length_b 17.119509
_cell_length_c 7.008706
_cell_angle_alpha 90.000000
_cell_angle_beta 90.000000
_cell_angle_gamma 90.000000
_cell_volume 2054.094652
_symmetry_space_group_name_H-M "I -4 2 D"
_symmetry_group_IT_number 122
_symmetry_cell_setting 'tetragonal'
loop_
_space_group_symop_operation_xyz
x,y,z
y,-x,-z
-x,-y,z
-y,x,-z
x,1/2-y,1/4-z
-x,1/2+y,1/4-z
-y,1/2-x,1/4+z
y,1/2+x,1/4+z
1/2+x,1/2+y,1/2+z
1/2+y,1/2-x,1/2-z
1/2-x,1/2-y,1/2+z
1/2-y,1/2+x,1/2-z
1/2+x,-y,3/4-z
1/2-x,y,3/4-z
1/2-y,-x,3/4+z
1/2+y,x,3/4+z
loop_
_atom_site_type_symbol
_atom_site_label
_atom_site_fract_x
_atom_site_fract_y
_atom_site_fract_z
Si Si1 0.657425 0.237517 0.398824
Si Si2 0.106274 0.080720 0.207467
Si Si3 0.434186 0.595398 0.753304
O O1 0.642109 0.250000 0.625000
O O2 0.750000 0.234237 0.375000
O O3 0.622583 0.309992 0.279410
O O4 0.616665 0.154142 0.372241
O O5 0.025248 0.119007 0.276881
O O6 0.093556 0.993438 0.289941
O O7 0.099457 0.076830 0.975953
#
# Coordination Sequence:
#
# PCOD9560832 Si02
#       3
#    16  16  16
#     4  10  20  32  51  79 107 135 173 219 262 309
#     4   8  15  29  50  73 100 136 174 212 258 311
#     4   8  15  29  49  74 101 133 174 217 258 304
#
# _framework density 23.367958999999999
#
# number of rings (size 3 to 8) (size 9 to 14) (size 15 to 20)
#    0.000    3.333    0.000    2.000    0.000    9.333 
#    0.000    1.667    0.000    0.000    0.000    4.667 
#    0.000    0.000    0.000    0.000    0.000    0.000 
#
# Total GULP energy -133812.589471 kJ/mol
# GULP energy per Si atom -5575.524561 kJ/mol
# Density = 2.331477 g / cm^3
# Si number density = 23.367959 Si / 1000 Ang^3
#
#
#
# Elastic Constant Matrix: (Units=GPa)
#
#
# Indices 1 2 3 4 5 6 
#
# 1 127.6139 113.1038 -3.2790 0.0000 0.0000 0.0000
# 2 113.1038 127.6139 -3.2790 0.0000 0.0000 0.0000
# 3 -3.2790 -3.2790 101.8617 0.0000 0.0000 0.0000
# 4 0.0000 0.0000 0.0000 23.3026 0.0000 0.0000
# 5 0.0000 0.0000 0.0000 0.0000 23.3026 0.0000
# 6 0.0000 0.0000 0.0000 0.0000 0.0000 37.7166
#
#
#
# Elastic Compliance Matrix: (Units=1/GPa)
#
#
# Indices 1 2 3 4 5 6 
#
# 1 0.036538 -0.032380 0.000134 0.000000 0.000000 0.000000
# 2 -0.032380 0.036538 0.000134 0.000000 0.000000 0.000000
# 3 0.000134 0.000134 0.009826 0.000000 0.000000 0.000000
# 4 0.000000 0.000000 0.000000 0.042914 0.000000 0.000000
# 5 0.000000 0.000000 0.000000 0.000000 0.042914 0.000000
# 6 0.000000 0.000000 0.000000 0.000000 0.000000 0.026514
#
#
# Mechanical properties :
#
#
# Convention : Reuss Voigt Hill
#
# Bulk Modulus (GPa) = 53.54173 63.35343 58.44758
# Shear Modulus (GPa) = 18.81877 33.56726 26.19301
#
# Velocity S-wave (km/s) = 2.84090 3.79418 3.35161
# Velocity P-wave (km/s) = 5.80716 6.80915 6.32802
#
# Compressibility (1/GPa) = 0.01867702
#
# Stress axis : x y z
#
# Youngs Moduli (GPa) = 27.36898 27.36898 101.77235
#
# Poissons Ratio (x) = 0.88620 -0.01362
# Poissons Ratio (y) = 0.88620 -0.01362
# Poissons Ratio (z) = -0.00366 -0.00366
#
# Static dielectric constant tensor:
#      x y z
#    x 1.880870 0.000000 0.000000 
#    y 0.000000 1.880870 0.000000 
#    z 0.000000 0.000000 2.037720 
# 
# From -- ./inp_files/2038.got.cif
#   From: 2010.05.17/outbox.cif.g08.bks.cpg/sg122_2_cif.got.tgz:2038.got - 2010.05.20 11:37:33.
