data_PCOD9560397
_publ_section_title
;
Structure prediction by ZEFSAII (Michael W. Deem and Ramdas Pophale) SiO2 
 PCOD9560397
Probable space group: I -4 2 M
;
_chemical_formula_sum "Si O2"
_cell_formula_units_Z 96
_cell_length_a 19.485821
_cell_length_b 19.485821
_cell_length_c 12.524229
_cell_angle_alpha 90.000000
_cell_angle_beta 90.000000
_cell_angle_gamma 90.000000
_cell_volume 4755.414934
_symmetry_space_group_name_H-M "I -4 2 M"
_symmetry_group_IT_number 121
_symmetry_cell_setting 'tetragonal'
loop_
_space_group_symop_operation_xyz
x,y,z
y,-x,-z
-x,-y,z
-y,x,-z
x,-y,-z
-x,y,-z
-y,-x,z
y,x,z
1/2+x,1/2+y,1/2+z
1/2+y,1/2-x,1/2-z
1/2-x,1/2-y,1/2+z
1/2-y,1/2+x,1/2-z
1/2+x,1/2-y,1/2-z
1/2-x,1/2+y,1/2-z
1/2-y,1/2-x,1/2+z
1/2+y,1/2+x,1/2+z
loop_
_atom_site_type_symbol
_atom_site_label
_atom_site_fract_x
_atom_site_fract_y
_atom_site_fract_z
Si Si1 0.821842 0.602773 0.897297
Si Si2 0.389964 0.722440 0.290006
Si Si3 0.261019 0.546190 0.732545
Si Si4 0.492193 0.104951 0.219458
Si Si5 0.859310 0.749416 0.964073
Si Si6 0.187329 0.926004 0.465508
O O1 0.789945 0.624066 0.781732
O O2 0.873116 0.539671 0.879882
O O3 0.854891 0.668345 0.950246
O O4 0.756145 0.581195 0.965235
O O5 0.338078 0.661923 0.257954
O O6 0.469946 0.707724 0.272240
O O7 0.381007 0.734955 0.415548
O O8 0.177831 0.536874 0.740002
O O9 0.276663 0.589596 0.627150
O O10 0.289517 0.577542 0.841998
O O11 0.432878 0.048507 0.204272
O O12 0.785702 0.785702 0.946914
O O13 0.134219 0.865782 0.488524
O O14 0.157897 0.000000 0.500000
#
# Coordination Sequence:
#
# PCOD9560397 Si02
#       6
#    16  16  16  16  16  16
#     4  11  23  41  66  94 135 170 222 275 337 394
#     4  10  22  40  63  89 126 172 215 271 334 392
#     4  11  23  41  64  94 131 169 218 278 332 396
#     4  10  20  38  65  93 129 174 216 260 323 403
#     4  11  23  39  63  96 129 171 225 275 329 395
#     4  12  25  42  67  96 131 176 222 279 345 410
#
# _framework density 20.187512000000002
#
# number of rings (size 3 to 8) (size 9 to 14) (size 15 to 20)
#    0.000    1.167    5.000    2.500    2.333    0.167 
#    0.000    0.000    0.000    3.500    0.000    4.667 
#    0.000    0.000    0.000    0.000    0.000    0.000 
#
# Total GULP energy -268091.549369 kJ/mol
# GULP energy per Si atom -5585.240612 kJ/mol
# Density = 2.014156 g / cm^3
# Si number density = 20.187512 Si / 1000 Ang^3
#
#
#
# Elastic Constant Matrix: (Units=GPa)
#
#
# Indices 1 2 3 4 5 6 
#
# 1 58.6719 27.8614 16.2225 0.0000 0.0000 0.0000
# 2 27.8614 58.6725 16.2228 0.0000 0.0000 0.0000
# 3 16.2225 16.2228 96.1276 0.0000 0.0000 0.0000
# 4 0.0000 0.0000 0.0000 27.3552 0.0000 0.0000
# 5 0.0000 0.0000 0.0000 0.0000 27.3550 0.0000
# 6 0.0000 0.0000 0.0000 0.0000 0.0000 32.8897
#
#
#
# Elastic Compliance Matrix: (Units=1/GPa)
#
#
# Indices 1 2 3 4 5 6 
#
# 1 0.022397 -0.010060 -0.002082 0.000000 0.000000 0.000000
# 2 -0.010060 0.022396 -0.002082 0.000000 0.000000 0.000000
# 3 -0.002082 -0.002082 0.011106 0.000000 0.000000 0.000000
# 4 0.000000 0.000000 0.000000 0.036556 0.000000 0.000000
# 5 0.000000 0.000000 0.000000 0.000000 0.036556 0.000000
# 6 0.000000 0.000000 0.000000 0.000000 0.000000 0.030405
#
#
# Mechanical properties :
#
#
# Convention : Reuss Voigt Hill
#
# Bulk Modulus (GPa) = 36.42815 37.12059 36.77437
# Shear Modulus (GPa) = 25.37900 27.73101 26.55501
#
# Velocity S-wave (km/s) = 3.54950 3.71033 3.63080
# Velocity P-wave (km/s) = 5.90615 6.06492 5.98606
#
# Compressibility (1/GPa) = 0.02745130
#
# Stress axis : x y z
#
# Youngs Moduli (GPa) = 44.64968 44.65011 90.04503
#
# Poissons Ratio (x) = 0.44916 0.18747
# Poissons Ratio (y) = 0.44916 0.18748
# Poissons Ratio (z) = 0.09296 0.09296
#
# Static dielectric constant tensor:
#      x y z
#    x 1.720810 0.000000 0.000000 
#    y 0.000000 1.720800 0.000000 
#    z 0.000000 0.000000 1.734450 
# 
# From -- ./inp_files/3325.got.cif
#   From: 2010.05.17/outbox.cif.g08.bks.cpg/sg121_2_cif.got.tgz:3325.got - 2010.05.20 11:32:06.
