data_PCOD9560722
_publ_section_title
;
Structure prediction by ZEFSAII (Michael W. Deem and Ramdas Pophale) SiO2 
 PCOD9560722
Probable space group: I -4 2 D
;
_chemical_formula_sum "Si O2"
_cell_formula_units_Z 88
_cell_length_a 29.526362
_cell_length_b 29.526362
_cell_length_c 5.373488
_cell_angle_alpha 90.000000
_cell_angle_beta 90.000000
_cell_angle_gamma 90.000000
_cell_volume 4684.639364
_symmetry_space_group_name_H-M "I -4 2 D"
_symmetry_group_IT_number 122
_symmetry_cell_setting 'tetragonal'
loop_
_space_group_symop_operation_xyz
x,y,z
y,-x,-z
-x,-y,z
-y,x,-z
x,1/2-y,1/4-z
-x,1/2+y,1/4-z
-y,1/2-x,1/4+z
y,1/2+x,1/4+z
1/2+x,1/2+y,1/2+z
1/2+y,1/2-x,1/2-z
1/2-x,1/2-y,1/2+z
1/2-y,1/2+x,1/2-z
1/2+x,-y,3/4-z
1/2-x,y,3/4-z
1/2-y,-x,3/4+z
1/2+y,x,3/4+z
loop_
_atom_site_type_symbol
_atom_site_label
_atom_site_fract_x
_atom_site_fract_y
_atom_site_fract_z
Si Si1 0.199748 0.472169 0.088023
Si Si2 0.194724 0.877110 0.849679
Si Si3 0.062723 0.695287 0.905464
Si Si4 0.250000 0.780471 0.375000
Si Si5 0.837732 0.196187 0.149073
Si Si6 0.924584 0.697288 0.598383
O O1 0.251062 0.451630 0.122719
O O2 0.179729 0.468802 0.364880
O O3 0.176318 0.443456 0.870930
O O4 0.198162 0.522369 0.973454
O O5 0.250000 0.875037 0.875000
O O6 0.179456 0.906383 0.612630
O O7 0.173888 0.827333 0.886964
O O8 0.177843 0.900208 0.106237
O O9 0.113407 0.685741 0.993008
O O10 0.243628 0.750000 0.625000
O O11 0.206007 0.811175 0.324865
O O12 0.838853 0.250000 0.125000
O O13 0.912961 0.750000 0.625000
#
# Coordination Sequence:
#
# PCOD9560722 Si02
#       6
#    16  16  16   8  16  16
#     4  10  18  33  54  80  92 124 168 240 308 323
#     4  10  24  35  50  73  97 149 188 230 275 312
#     4  10  20  31  54  80  98 126 171 245 292 332
#     4  10  26  36  52  64  96 160 196 242 276 306
#     4  11  24  39  52  73 112 148 204 235 271 324
#     4  10  19  35  54  70  98 120 182 245 271 351
#
# _framework density 18.784797999999999
#
# number of rings (size 3 to 8) (size 9 to 14) (size 15 to 20)
#    0.000    1.818    3.636    1.091   16.545    1.455 
#    0.000    0.000    0.000    0.000    0.000    0.000 
#    0.000    0.000    0.000    0.000    0.000   63.636 
#
# Total GULP energy -245012.013786 kJ/mol
# GULP energy per Si atom -5568.454859 kJ/mol
# Density = 1.874204 g / cm^3
# Si number density = 18.784798 Si / 1000 Ang^3
#
#
#
# Elastic Constant Matrix: (Units=GPa)
#
#
# Indices 1 2 3 4 5 6 
#
# 1 77.7238 2.9514 38.1540 0.0000 0.0000 0.0000
# 2 2.9514 77.7238 38.1540 0.0000 0.0000 0.0000
# 3 38.1540 38.1540 188.1688 0.0000 0.0000 0.0000
# 4 0.0000 0.0000 0.0000 23.9789 0.0000 0.0000
# 5 0.0000 0.0000 0.0000 0.0000 23.9789 0.0000
# 6 0.0000 0.0000 0.0000 0.0000 0.0000 -3.1638
#
#
#
# Elastic Compliance Matrix: (Units=1/GPa)
#
#
# Indices 1 2 3 4 5 6 
#
# 1 0.014355 0.000981 -0.003110 0.000000 0.000000 0.000000
# 2 0.000981 0.014355 -0.003110 0.000000 0.000000 0.000000
# 3 -0.003110 -0.003110 0.006575 0.000000 0.000000 0.000000
# 4 0.000000 0.000000 0.000000 0.041703 0.000000 0.000000
# 5 0.000000 0.000000 0.000000 0.000000 0.041703 0.000000
# 6 0.000000 0.000000 0.000000 0.000000 0.000000 -0.316077
#
#
# Mechanical properties :
#
#
# Convention : Reuss Voigt Hill
#
# Bulk Modulus (GPa) = 40.30627 55.79278 48.04953
# Shear Modulus (GPa) = -27.98959 26.58259 -0.70350
#
# Velocity S-wave (km/s) = -3.86426 3.76588 -0.61263
# Velocity P-wave (km/s) = 1.26233 6.97672 5.01339
#
# Compressibility (1/GPa) = 0.02481003
#
# Stress axis : x y z
#
# Youngs Moduli (GPa) = 69.66036 69.66036 152.08023
#
# Poissons Ratio (x) = -0.06837 0.47293
# Poissons Ratio (y) = -0.06837 0.47293
# Poissons Ratio (z) = 0.21663 0.21663
#
# Static dielectric constant tensor:
#      x y z
#    x 1.860360 0.000000 0.000000 
#    y 0.000000 1.860360 0.000000 
#    z 0.000000 0.000000 1.863890 
# 
# From -- ./inp_files/1427.got.cif
#   From: 2010.05.17/outbox.cif.g08.bks.cpg/sg122_1_cif.got.tgz:1427.got - 2010.05.20 11:37:33.
