data_PCOD9560817
_publ_section_title
;
Structure prediction by ZEFSAII (Michael W. Deem and Ramdas Pophale) SiO2 
 PCOD9560817
Probable space group: I -4 2 D
;
_chemical_formula_sum "Si O2"
_cell_formula_units_Z 76
_cell_length_a 11.654076
_cell_length_b 11.654076
_cell_length_c 28.820726
_cell_angle_alpha 90.000000
_cell_angle_beta 90.000000
_cell_angle_gamma 90.000000
_cell_volume 3914.358591
_symmetry_space_group_name_H-M "I -4 2 D"
_symmetry_group_IT_number 122
_symmetry_cell_setting 'tetragonal'
loop_
_space_group_symop_operation_xyz
x,y,z
y,-x,-z
-x,-y,z
-y,x,-z
x,1/2-y,1/4-z
-x,1/2+y,1/4-z
-y,1/2-x,1/4+z
y,1/2+x,1/4+z
1/2+x,1/2+y,1/2+z
1/2+y,1/2-x,1/2-z
1/2-x,1/2-y,1/2+z
1/2-y,1/2+x,1/2-z
1/2+x,-y,3/4-z
1/2-x,y,3/4-z
1/2-y,-x,3/4+z
1/2+y,x,3/4+z
loop_
_atom_site_type_symbol
_atom_site_label
_atom_site_fract_x
_atom_site_fract_y
_atom_site_fract_z
Si Si1 0.639882 0.630929 0.199523
Si Si2 0.697736 0.750000 0.625000
Si Si3 0.377056 0.633519 0.206555
Si Si4 0.867334 0.784270 0.457029
Si Si5 0.555549 0.123828 0.937996
Si Si6 0.500000 0.500000 0.000000
O O1 0.720721 0.691635 0.162939
O O2 0.505488 0.635873 0.185931
O O3 0.669139 0.495831 0.203380
O O4 0.646346 0.700695 0.247995
O O5 0.623518 0.845738 0.599629
O O6 0.306346 0.740736 0.187607
O O7 0.393385 0.658020 0.261771
O O8 0.958501 0.716978 0.425597
O O9 0.926144 0.905549 0.471480
O O10 0.500000 0.000000 0.944199
#
# Coordination Sequence:
#
# PCOD9560817 Si02
#       6
#    16   8  16  16  16   4
#     4  10  20  38  60  88 127 160 203 256 318 370
#     4  12  24  42  62  94 128 162 206 280 330 368
#     4  10  19  39  64  88 120 172 213 246 306 400
#     4  11  19  35  65  93 120 167 220 253 307 399
#     4  11  22  42  66  87 127 173 212 264 323 378
#     4  12  16  24  56 104 112 148 212 256 296 368
#
# _framework density 19.415697999999999
#
# number of rings (size 3 to 8) (size 9 to 14) (size 15 to 20)
#    0.000    1.263   10.526    0.000    0.000    0.000 
#   11.368    0.000    0.000    0.000    0.000    0.000 
#    0.000    0.000    0.000    0.000    0.000    0.000 
#
# Total GULP energy -212076.421321 kJ/mol
# GULP energy per Si atom -5580.958456 kJ/mol
# Density = 1.937151 g / cm^3
# Si number density = 19.415698 Si / 1000 Ang^3
#
#
#
# Elastic Constant Matrix: (Units=GPa)
#
#
# Indices 1 2 3 4 5 6 
#
# 1 98.3041 28.1057 1.0979 0.0000 0.0000 0.0000
# 2 28.1057 98.3041 1.0979 0.0000 0.0000 0.0000
# 3 1.0979 1.0979 20.1474 0.0000 0.0000 0.0000
# 4 0.0000 0.0000 0.0000 15.5396 0.0000 0.0000
# 5 0.0000 0.0000 0.0000 0.0000 15.5396 0.0000
# 6 0.0000 0.0000 0.0000 0.0000 0.0000 27.2482
#
#
#
# Elastic Compliance Matrix: (Units=1/GPa)
#
#
# Indices 1 2 3 4 5 6 
#
# 1 0.011082 -0.003164 -0.000431 0.000000 0.000000 0.000000
# 2 -0.003164 0.011082 -0.000431 0.000000 0.000000 0.000000
# 3 -0.000431 -0.000431 0.049681 0.000000 0.000000 0.000000
# 4 0.000000 0.000000 0.000000 0.064352 0.000000 0.000000
# 5 0.000000 0.000000 0.000000 0.000000 0.064352 0.000000
# 6 0.000000 0.000000 0.000000 0.000000 0.000000 0.036700
#
#
# Mechanical properties :
#
#
# Convention : Reuss Voigt Hill
#
# Bulk Modulus (GPa) = 15.67600 30.81761 23.24681
# Shear Modulus (GPa) = 18.75715 24.09574 21.42644
#
# Velocity S-wave (km/s) = 3.11156 3.52667 3.32560
# Velocity P-wave (km/s) = 4.58263 5.70001 5.17159
#
# Compressibility (1/GPa) = 0.06379178
#
# Stress axis : x y z
#
# Youngs Moduli (GPa) = 90.23795 90.23795 20.12837
#
# Poissons Ratio (x) = 0.28547 0.00868
# Poissons Ratio (y) = 0.28547 0.00868
# Poissons Ratio (z) = 0.03894 0.03894
#
# Static dielectric constant tensor:
#      x y z
#    x 1.679930 0.000000 0.000000 
#    y 0.000000 1.679930 0.000000 
#    z 0.000000 0.000000 1.686710 
# 
# From -- ./inp_files/9406.got.cif
#   From: 2010.05.17/outbox.cif.g08.bks.cpg/sg122_5_cif.got.tgz:9406.got - 2010.05.20 11:37:33.
