data_PCOD9560595
_publ_section_title
;
Structure prediction by ZEFSAII (Michael W. Deem and Ramdas Pophale) SiO2 
 PCOD9560595
Probable space group: I -4 2 M
;
_chemical_formula_sum "Si O2"
_cell_formula_units_Z 64
_cell_length_a 12.961229
_cell_length_b 12.961229
_cell_length_c 20.208306
_cell_angle_alpha 90.000000
_cell_angle_beta 90.000000
_cell_angle_gamma 90.000000
_cell_volume 3394.863189
_symmetry_space_group_name_H-M "I -4 2 M"
_symmetry_group_IT_number 121
_symmetry_cell_setting 'tetragonal'
loop_
_space_group_symop_operation_xyz
x,y,z
y,-x,-z
-x,-y,z
-y,x,-z
x,-y,-z
-x,y,-z
-y,-x,z
y,x,z
1/2+x,1/2+y,1/2+z
1/2+y,1/2-x,1/2-z
1/2-x,1/2-y,1/2+z
1/2-y,1/2+x,1/2-z
1/2+x,1/2-y,1/2-z
1/2-x,1/2+y,1/2-z
1/2-y,1/2-x,1/2+z
1/2+y,1/2+x,1/2+z
loop_
_atom_site_type_symbol
_atom_site_label
_atom_site_fract_x
_atom_site_fract_y
_atom_site_fract_z
Si Si1 0.119633 0.468615 0.924668
Si Si2 0.566375 0.261370 0.566373
Si Si3 0.946077 0.777086 0.201525
Si Si4 0.394607 0.226133 0.184644
O O1 0.124438 0.345596 0.917903
O O2 0.190059 0.529840 0.873558
O O3 0.000000 0.500000 0.912299
O O4 0.143547 0.500000 0.000000
O O5 0.500000 0.244960 0.500000
O O6 0.646570 0.353431 0.556670
O O7 0.491956 0.285164 0.627862
O O8 0.876886 0.876886 0.216800
O O9 0.870438 0.678239 0.203609
O O10 0.037972 0.761384 0.253014
O O11 0.317658 0.317658 0.163852
#
# Coordination Sequence:
#
# PCOD9560595 Si02
#       4
#    16  16  16  16
#     4  11  21  42  67  90 124 164 209 256 312 375
#     4  12  24  40  66  98 129 166 210 259 324 387
#     4  11  24  41  61  91 129 168 213 263 319 379
#     4  11  24  40  64  93 125 168 215 262 316 380
#
# _framework density 18.852012999999999
#
# number of rings (size 3 to 8) (size 9 to 14) (size 15 to 20)
#    0.000    0.750    5.000    3.000    0.000    9.250 
#    0.000    0.000    0.000    0.000    0.000    1.750 
#    0.000    0.000    0.000    0.000    0.000    0.000 
#
# Total GULP energy -179023.510469 kJ/mol
# GULP energy per Si atom -5594.484702 kJ/mol
# Density = 1.880910 g / cm^3
# Si number density = 18.852013 Si / 1000 Ang^3
#
#
#
# Elastic Constant Matrix: (Units=GPa)
#
#
# Indices 1 2 3 4 5 6 
#
# 1 68.4005 59.7121 27.9466 0.0000 0.0000 0.0000
# 2 59.7121 68.3950 27.9475 0.0000 0.0000 0.0000
# 3 27.9466 27.9475 91.4578 0.0000 0.0000 0.0000
# 4 0.0000 0.0000 0.0000 15.3766 0.0000 0.0000
# 5 0.0000 0.0000 0.0000 0.0000 15.3784 0.0000
# 6 0.0000 0.0000 0.0000 0.0000 0.0000 26.1813
#
#
#
# Elastic Compliance Matrix: (Units=1/GPa)
#
#
# Indices 1 2 3 4 5 6 
#
# 1 0.062066 -0.053063 -0.002751 0.000000 0.000000 0.000000
# 2 -0.053063 0.062073 -0.002754 0.000000 0.000000 0.000000
# 3 -0.002751 -0.002754 0.012616 0.000000 0.000000 0.000000
# 4 0.000000 0.000000 0.000000 0.065034 0.000000 0.000000
# 5 0.000000 0.000000 0.000000 0.000000 0.065026 0.000000
# 6 0.000000 0.000000 0.000000 0.000000 0.000000 0.038195
#
#
# Mechanical properties :
#
#
# Convention : Reuss Voigt Hill
#
# Bulk Modulus (GPa) = 50.96722 51.05173 51.00947
# Shear Modulus (GPa) = 11.66357 18.89704 15.28031
#
# Velocity S-wave (km/s) = 2.49005 3.16949 2.85009
# Velocity P-wave (km/s) = 5.94653 6.36657 6.16013
#
# Compressibility (1/GPa) = 0.01962046
#
# Stress axis : x y z
#
# Youngs Moduli (GPa) = 16.11179 16.11015 79.26451
#
# Poissons Ratio (x) = 0.85485 0.21803
# Poissons Ratio (y) = 0.85494 0.21827
# Poissons Ratio (z) = 0.04432 0.04436
#
# Static dielectric constant tensor:
#      x y z
#    x 1.640530 0.000000 0.000000 
#    y 0.000000 1.640530 0.000000 
#    z 0.000000 0.000000 1.623610 
# 
# From -- ./inp_files/6003.got.cif
#   From: 2010.05.17/outbox.cif.g08.bks.cpg/sg121_4_cif.got.tgz:6003.got - 2010.05.20 11:32:06.
