data_PCOD9560331
_publ_section_title
;
Structure prediction by ZEFSAII (Michael W. Deem and Ramdas Pophale) SiO2 
 PCOD9560331
Probable space group: I -4 2 M
;
_chemical_formula_sum "Si O2"
_cell_formula_units_Z 84
_cell_length_a 12.794171
_cell_length_b 12.794171
_cell_length_c 27.630822
_cell_angle_alpha 90.000000
_cell_angle_beta 90.000000
_cell_angle_gamma 90.000000
_cell_volume 4522.911678
_symmetry_space_group_name_H-M "I -4 2 M"
_symmetry_group_IT_number 121
_symmetry_cell_setting 'tetragonal'
loop_
_space_group_symop_operation_xyz
x,y,z
y,-x,-z
-x,-y,z
-y,x,-z
x,-y,-z
-x,y,-z
-y,-x,z
y,x,z
1/2+x,1/2+y,1/2+z
1/2+y,1/2-x,1/2-z
1/2-x,1/2-y,1/2+z
1/2-y,1/2+x,1/2-z
1/2+x,1/2-y,1/2-z
1/2-x,1/2+y,1/2-z
1/2-y,1/2-x,1/2+z
1/2+y,1/2+x,1/2+z
loop_
_atom_site_type_symbol
_atom_site_label
_atom_site_fract_x
_atom_site_fract_y
_atom_site_fract_z
Si Si1 0.832388 0.167613 0.076302
Si Si2 0.126533 0.377456 0.592965
Si Si3 0.623555 0.097341 0.605644
Si Si4 0.691539 0.132494 0.204302
Si Si5 0.778348 0.610705 0.696646
Si Si6 0.837414 0.837414 0.037147
Si Si7 0.500000 0.500000 0.586184
O O1 0.845659 0.289902 0.086088
O O2 0.912186 0.087815 0.104544
O O3 0.851944 0.148057 0.019695
O O4 0.103379 0.500122 0.596427
O O5 0.170856 0.351544 0.646274
O O6 0.218792 0.359256 0.554761
O O7 0.010685 0.330460 0.584717
O O8 0.646248 0.103104 0.663162
O O9 0.784258 0.215743 0.196000
O O10 0.646920 0.153413 0.257541
O O11 0.729658 0.014021 0.197800
O O12 0.666628 0.666628 0.700835
O O13 0.918453 0.918453 0.061593
#
# Coordination Sequence:
#
# PCOD9560331 Si02
#       7
#     8  16  16  16  16   8   4
#     4  12  23  38  59  86 119 157 194 243 304 356
#     4  10  21  37  57  85 117 152 193 236 289 352
#     4  10  21  37  57  85 117 152 193 236 289 352
#     4  10  20  35  56  84 116 151 189 234 289 345
#     4  10  20  35  56  84 116 151 189 234 289 345
#     4  12  23  38  59  86 119 157 194 243 304 356
#     4  12  25  40  60  88 128 160 188 244 324 368
#
# _framework density 18.572106000000002
#
# number of rings (size 3 to 8) (size 9 to 14) (size 15 to 20)
#    0.000    1.524    3.810    2.000    0.000    3.048 
#    0.000    1.905    0.000    0.571    0.000    1.333 
#    0.000    0.000    0.000    0.000    0.000    0.000 
#
# Total GULP energy -233925.914817 kJ/mol
# GULP energy per Si atom -5569.664639 kJ/mol
# Density = 1.852984 g / cm^3
# Si number density = 18.572106 Si / 1000 Ang^3
#
#
#
# Elastic Constant Matrix: (Units=GPa)
#
#
# Indices 1 2 3 4 5 6 
#
# 1 89.3392 36.6471 4.1682 0.0000 0.0000 0.0000
# 2 36.6471 89.3355 4.1681 0.0000 0.0000 0.0000
# 3 4.1682 4.1681 26.3411 0.0000 0.0000 0.0000
# 4 0.0000 0.0000 0.0000 17.0509 0.0000 0.0000
# 5 0.0000 0.0000 0.0000 0.0000 17.0506 0.0000
# 6 0.0000 0.0000 0.0000 0.0000 0.0000 14.4755
#
#
#
# Elastic Compliance Matrix: (Units=1/GPa)
#
#
# Indices 1 2 3 4 5 6 
#
# 1 0.013500 -0.005479 -0.001269 0.000000 0.000000 0.000000
# 2 -0.005479 0.013500 -0.001269 0.000000 0.000000 0.000000
# 3 -0.001269 -0.001269 0.038365 0.000000 0.000000 0.000000
# 4 0.000000 0.000000 0.000000 0.058648 0.000000 0.000000
# 5 0.000000 0.000000 0.000000 0.000000 0.058649 0.000000
# 6 0.000000 0.000000 0.000000 0.000000 0.000000 0.069082
#
#
# Mechanical properties :
#
#
# Convention : Reuss Voigt Hill
#
# Bulk Modulus (GPa) = 20.27126 32.77584 26.52355
# Shear Modulus (GPa) = 17.59185 20.38425 18.98805
#
# Velocity S-wave (km/s) = 3.08103 3.31656 3.20096
# Velocity P-wave (km/s) = 4.85753 5.68791 5.28904
#
# Compressibility (1/GPa) = 0.04933091
#
# Stress axis : x y z
#
# Youngs Moduli (GPa) = 74.07473 74.07169 26.06535
#
# Poissons Ratio (x) = 0.40582 0.03308
# Poissons Ratio (y) = 0.40583 0.03308
# Poissons Ratio (z) = 0.09402 0.09402
#
# Static dielectric constant tensor:
#      x y z
#    x 1.616200 0.000000 0.000000 
#    y 0.000000 1.616190 0.000000 
#    z 0.000000 0.000000 1.685820 
# 
# From -- ./inp_files/8278.got.cif
#   From: 2010.05.17/outbox.cif.g08.bks.cpg/sg121_5_cif.got.tgz:8278.got - 2010.05.20 11:32:06.
