data_PCOD9560500
_publ_section_title
;
Structure prediction by ZEFSAII (Michael W. Deem and Ramdas Pophale) SiO2 
 PCOD9560500
Probable space group: I -4 2 M
;
_chemical_formula_sum "Si O2"
_cell_formula_units_Z 84
_cell_length_a 15.505338
_cell_length_b 15.505338
_cell_length_c 18.437845
_cell_angle_alpha 90.000000
_cell_angle_beta 90.000000
_cell_angle_gamma 90.000000
_cell_volume 4432.743844
_symmetry_space_group_name_H-M "I -4 2 M"
_symmetry_group_IT_number 121
_symmetry_cell_setting 'tetragonal'
loop_
_space_group_symop_operation_xyz
x,y,z
y,-x,-z
-x,-y,z
-y,x,-z
x,-y,-z
-x,y,-z
-y,-x,z
y,x,z
1/2+x,1/2+y,1/2+z
1/2+y,1/2-x,1/2-z
1/2-x,1/2-y,1/2+z
1/2-y,1/2+x,1/2-z
1/2+x,1/2-y,1/2-z
1/2-x,1/2+y,1/2-z
1/2-y,1/2-x,1/2+z
1/2+y,1/2+x,1/2+z
loop_
_atom_site_type_symbol
_atom_site_label
_atom_site_fract_x
_atom_site_fract_y
_atom_site_fract_z
Si Si1 0.707819 0.145428 0.955032
Si Si2 0.430937 0.714178 0.934622
Si Si3 0.500000 0.500000 0.634290
Si Si4 0.701903 0.151455 0.121138
Si Si5 0.707570 0.516095 0.657707
Si Si6 0.073764 0.214957 0.320762
O O1 0.784821 0.215180 0.955980
O O2 0.623681 0.197827 0.929721
O O3 0.741933 0.071024 0.902884
O O4 0.691037 0.120115 0.038361
O O5 0.362985 0.637016 0.947931
O O6 0.483975 0.700320 0.861208
O O7 0.500000 0.717984 0.000000
O O8 0.607761 0.500824 0.635848
O O9 0.772598 0.227402 0.120047
O O10 0.616410 0.195692 0.152674
O O11 0.741935 0.073648 0.165929
O O12 0.710969 0.563781 0.734699
O O13 0.138607 0.138607 0.343636
#
# Coordination Sequence:
#
# PCOD9560500 Si02
#       6
#    16  16   4  16  16  16
#     4  10  21  42  64  94 132 172 217 266 334 399
#     4  11  23  40  67  97 129 170 217 268 329 397
#     4  12  24  44  61 112 133 164 224 278 332 392
#     4  10  22  41  65  91 128 176 217 265 329 400
#     4  12  24  42  67  96 135 172 219 276 334 389
#     4  11  24  41  64  96 135 168 217 270 331 400
#
# _framework density 18.949888000000001
#
# number of rings (size 3 to 8) (size 9 to 14) (size 15 to 20)
#    0.000    1.143    4.762    1.143    4.000    1.333 
#    0.000    2.857    0.000    0.000    0.000    0.000 
#    0.000    0.000    0.000    0.000    0.000    0.000 
#
# Total GULP energy -233958.319229 kJ/mol
# GULP energy per Si atom -5570.436172 kJ/mol
# Density = 1.890676 g / cm^3
# Si number density = 18.949888 Si / 1000 Ang^3
#
#
#
# Elastic Constant Matrix: (Units=GPa)
#
#
# Indices 1 2 3 4 5 6 
#
# 1 93.0763 53.1401 35.2264 0.0000 0.0000 0.0000
# 2 53.1401 93.0782 35.2261 0.0000 0.0000 0.0000
# 3 35.2264 35.2261 66.4666 0.0000 0.0000 0.0000
# 4 0.0000 0.0000 0.0000 24.4795 0.0000 0.0000
# 5 0.0000 0.0000 0.0000 0.0000 24.4802 0.0000
# 6 0.0000 0.0000 0.0000 0.0000 0.0000 35.0805
#
#
#
# Elastic Compliance Matrix: (Units=1/GPa)
#
#
# Indices 1 2 3 4 5 6 
#
# 1 0.017112 -0.007927 -0.004868 0.000000 0.000000 0.000000
# 2 -0.007927 0.017112 -0.004867 0.000000 0.000000 0.000000
# 3 -0.004868 -0.004867 0.020205 0.000000 0.000000 0.000000
# 4 0.000000 0.000000 0.000000 0.040851 0.000000 0.000000
# 5 0.000000 0.000000 0.000000 0.000000 0.040849 0.000000
# 6 0.000000 0.000000 0.000000 0.000000 0.000000 0.028506
#
#
# Mechanical properties :
#
#
# Convention : Reuss Voigt Hill
#
# Bulk Modulus (GPa) = 52.34739 55.53404 53.94072
# Shear Modulus (GPa) = 24.23331 25.40994 24.82162
#
# Velocity S-wave (km/s) = 3.57993 3.66580 3.62312
# Velocity P-wave (km/s) = 6.69118 6.87654 6.78450
#
# Compressibility (1/GPa) = 0.01910315
#
# Stress axis : x y z
#
# Youngs Moduli (GPa) = 58.43778 58.43961 49.49337
#
# Poissons Ratio (x) = 0.46327 0.24093
# Poissons Ratio (y) = 0.46326 0.24091
# Poissons Ratio (z) = 0.28447 0.28445
#
# Static dielectric constant tensor:
#      x y z
#    x 1.654170 0.000000 0.000000 
#    y 0.000000 1.654170 0.000000 
#    z 0.000000 0.000000 1.682730 
# 
# From -- ./inp_files/6303.got.cif
#   From: 2010.05.17/outbox.cif.g08.bks.cpg/sg121_4_cif.got.tgz:6303.got - 2010.05.20 11:32:06.
