data_PCOD9560655
_publ_section_title
;
Structure prediction by ZEFSAII (Michael W. Deem and Ramdas Pophale) SiO2 
 PCOD9560655
Probable space group: I -4 2 M
;
_chemical_formula_sum "Si O2"
_cell_formula_units_Z 44
_cell_length_a 10.777316
_cell_length_b 10.777316
_cell_length_c 17.973974
_cell_angle_alpha 90.000000
_cell_angle_beta 90.000000
_cell_angle_gamma 90.000000
_cell_volume 2087.686789
_symmetry_space_group_name_H-M "I -4 2 M"
_symmetry_group_IT_number 121
_symmetry_cell_setting 'tetragonal'
loop_
_space_group_symop_operation_xyz
x,y,z
y,-x,-z
-x,-y,z
-y,x,-z
x,-y,-z
-x,y,-z
-y,-x,z
y,x,z
1/2+x,1/2+y,1/2+z
1/2+y,1/2-x,1/2-z
1/2-x,1/2-y,1/2+z
1/2-y,1/2+x,1/2-z
1/2+x,1/2-y,1/2-z
1/2-x,1/2+y,1/2-z
1/2-y,1/2-x,1/2+z
1/2+y,1/2+x,1/2+z
loop_
_atom_site_type_symbol
_atom_site_label
_atom_site_fract_x
_atom_site_fract_y
_atom_site_fract_z
Si Si1 0.654812 0.000000 0.000000
Si Si2 0.500000 0.500000 0.303774
Si Si3 0.645383 0.354618 0.820917
Si Si4 0.675082 0.675082 0.603257
Si Si5 0.935814 0.260746 0.575582
O O1 0.733592 0.904354 0.050415
O O2 0.586338 0.094289 0.057988
O O3 0.411575 0.411575 0.253823
O O4 0.583652 0.416348 0.355863
O O5 0.750015 0.249986 0.833100
O O6 0.710574 0.472060 0.861660
O O7 0.804407 0.195594 0.586899
O O8 0.000000 0.212724 0.500000
#
# Coordination Sequence:
#
# PCOD9560655 Si02
#       5
#     8   4   8   8  16
#     4  12  23  43  70 112 134 167 219 296 364 404
#     4  12  30  47  63  90 148 196 234 268 336 434
#     4  12  26  44  71 103 134 183 239 283 349 420
#     4  12  27  45  68 100 138 183 229 281 351 419
#     4  12  21  38  71 108 137 165 219 295 358 403
#
# _framework density 21.075958
#
# number of rings (size 3 to 8) (size 9 to 14) (size 15 to 20)
#    0.000    0.000    9.091    1.636    0.000    2.909 
#    0.000    0.000    0.000    0.000    0.000    0.000 
#    0.000    0.000    0.000    0.000    0.000    0.000 
#
# Total GULP energy -122728.994449 kJ/mol
# GULP energy per Si atom -5578.590657 kJ/mol
# Density = 2.102799 g / cm^3
# Si number density = 21.075958 Si / 1000 Ang^3
#
#
#
# Elastic Constant Matrix: (Units=GPa)
#
#
# Indices 1 2 3 4 5 6 
#
# 1 141.2770 72.2933 25.3435 0.0000 0.0000 0.0000
# 2 72.2933 141.2759 25.3434 0.0000 0.0000 0.0000
# 3 25.3435 25.3434 55.4575 0.0000 0.0000 0.0000
# 4 0.0000 0.0000 0.0000 -17.0162 0.0000 0.0000
# 5 0.0000 0.0000 0.0000 0.0000 -17.0136 0.0000
# 6 0.0000 0.0000 0.0000 0.0000 0.0000 74.7563
#
#
#
# Elastic Compliance Matrix: (Units=1/GPa)
#
#
# Indices 1 2 3 4 5 6 
#
# 1 0.009874 -0.004622 -0.002400 0.000000 0.000000 0.000000
# 2 -0.004622 0.009874 -0.002400 0.000000 0.000000 0.000000
# 3 -0.002400 -0.002400 0.020225 0.000000 0.000000 0.000000
# 4 0.000000 0.000000 0.000000 -0.058768 0.000000 0.000000
# 5 0.000000 0.000000 0.000000 0.000000 -0.058776 0.000000
# 6 0.000000 0.000000 0.000000 0.000000 0.000000 0.013377
#
#
# Mechanical properties :
#
#
# Convention : Reuss Voigt Hill
#
# Bulk Modulus (GPa) = 47.32829 64.88562 56.10695
# Shear Modulus (GPa) = -130.52790 22.48065 -54.02362
#
# Velocity S-wave (km/s) = -7.87823 3.26950 -5.06838
# Velocity P-wave (km/s) = 7.76213 6.71612 2.75176
#
# Compressibility (1/GPa) = 0.02112901
#
# Stress axis : x y z
#
# Youngs Moduli (GPa) = 101.27544 101.27459 49.44271
#
# Poissons Ratio (x) = 0.46811 0.11867
# Poissons Ratio (y) = 0.46811 0.11867
# Poissons Ratio (z) = 0.24307 0.24307
#
# Static dielectric constant tensor:
#      x y z
#    x 1.842580 0.000000 0.000000 
#    y 0.000000 1.842580 0.000000 
#    z 0.000000 0.000000 1.715500 
# 
# From -- ./inp_files/4952.got.cif
#   From: 2010.05.17/outbox.cif.g08.bks.cpg/sg121_3_cif.got.tgz:4952.got - 2010.05.20 11:32:06.
