data_PCOD9560075
_publ_section_title
;
Structure prediction by ZEFSAII (Michael W. Deem and Ramdas Pophale) SiO2 
 PCOD9560075
Probable space group: I -4 C 2
;
_chemical_formula_sum "Si O2"
_cell_formula_units_Z 64
_cell_length_a 24.000000
_cell_length_b 24.000000
_cell_length_c 12.000000
_cell_angle_alpha 90.000000
_cell_angle_beta 90.000000
_cell_angle_gamma 90.000000
_cell_volume 6912.000000
_symmetry_space_group_name_H-M "I -4 C 2"
_symmetry_group_IT_number 120
_symmetry_cell_setting 'tetragonal'
loop_
_space_group_symop_operation_xyz
x,y,z
y,-x,-z
-x,-y,z
-y,x,-z
y,x,1/2-z
-y,-x,1/2-z
-x,y,1/2+z
x,-y,1/2+z
1/2+x,1/2+y,1/2+z
1/2+y,1/2-x,1/2-z
1/2-x,1/2-y,1/2+z
1/2-y,1/2+x,1/2-z
1/2+y,1/2+x,-z
1/2-y,1/2-x,-z
1/2-x,1/2+y,z
1/2+x,1/2-y,z
loop_
_atom_site_type_symbol
_atom_site_label
_atom_site_fract_x
_atom_site_fract_y
_atom_site_fract_z
Si Si1 0.670340 0.212898 0.195473
Si Si2 0.532142 0.240970 0.859764
Si Si3 0.574362 0.155794 0.049088
Si Si4 0.854476 0.220222 0.321928
Si Si5 0.637787 0.976015 0.779137
Si Si6 0.591780 0.766848 0.906502
Si Si7 0.437742 0.893808 0.396212
Si Si8 0.803103 0.217356 0.968066
O O1 0.626493 0.183541 0.113051
O O2 0.720137 0.169423 0.222182
O O3 0.632248 0.228224 0.299879
O O4 0.697374 0.268104 0.139992
O O5 0.579896 0.284661 0.836057
O O6 0.532275 0.201569 0.752016
O O7 0.468945 0.258035 0.882909
O O8 0.553609 0.200897 0.959298
O O9 0.522840 0.139211 0.126285
O O10 0.599963 0.099963 0.000000
O O11 0.827770 0.172231 0.250000
O O12 0.827180 0.216267 0.442543
O O13 0.607579 0.919609 0.812277
O O14 0.610156 0.005314 0.671461
O O15 0.579158 0.831632 0.937036
O O16 0.630892 0.727049 0.978590
O O17 0.435015 0.935015 0.500000
O O18 0.776696 0.276696 0.000000
#
# Coordination Sequence:
#
# PCOD9560075 Si02
#       8
#    16  16  16  16  16  16  16  16
#     4  11  18  37  58  82 111 146 194 238 292 351
#     4  11  22  36  56  83 116 152 191 230 291 353
#     4  12  20  37  59  77 105 152 201 239 286 353
#     4  11  22  35  57  86 117 154 188 238 292 353
#     4  11  23  38  56  77 106 151 197 244 294 328
#     4  11  22  37  57  87 112 148 188 239 292 351
#     4  11  23  39  53  75 104 142 194 245 285 326
#     4  10  20  35  56  86 117 145 186 237 291 348
#
# _framework density 9.2592590000000001
#
# number of rings (size 3 to 8) (size 9 to 14) (size 15 to 20)
#    0.000    1.000    5.000    5.625    0.000    2.250 
#    0.000    0.625    0.000    0.750    0.000    0.000 
#    0.000    6.500    0.000    0.000    0.000    0.000 
#
# Total GULP energy -357070.093093 kJ/mol
# GULP energy per Si atom -5579.220205 kJ/mol
# Density = 0.923818 g / cm^3
# Si number density = 9.259259 Si / 1000 Ang^3
#
#
#
# Elastic Constant Matrix: (Units=GPa)
#
#
# Indices 1 2 3 4 5 6 
#
# 1 88.3479 33.7095 8.1704 0.0000 0.0000 0.0000
# 2 33.7095 88.3473 8.1709 0.0000 0.0000 0.0000
# 3 8.1704 8.1709 43.8901 0.0000 0.0000 0.0000
# 4 0.0000 0.0000 0.0000 17.2133 0.0000 0.0000
# 5 0.0000 0.0000 0.0000 0.0000 17.2129 0.0000
# 6 0.0000 0.0000 0.0000 0.0000 0.0000 26.8396
#
#
#
# Elastic Compliance Matrix: (Units=1/GPa)
#
#
# Indices 1 2 3 4 5 6 
#
# 1 0.013352 -0.004950 -0.001564 0.000000 0.000000 0.000000
# 2 -0.004950 0.013352 -0.001564 0.000000 0.000000 0.000000
# 3 -0.001564 -0.001564 0.023367 0.000000 0.000000 0.000000
# 4 0.000000 0.000000 0.000000 0.058095 0.000000 0.000000
# 5 0.000000 0.000000 0.000000 0.000000 0.058096 0.000000
# 6 0.000000 0.000000 0.000000 0.000000 0.000000 0.037258
#
#
# Mechanical properties :
#
#
# Convention : Reuss Voigt Hill
#
# Bulk Modulus (GPa) = 29.48600 35.63190 32.55895
# Shear Modulus (GPa) = 21.64673 23.62211 22.63442
#
# Velocity S-wave (km/s) = 3.42266 3.57542 3.49987
# Velocity P-wave (km/s) = 5.61930 6.02726 5.82685
#
# Compressibility (1/GPa) = 0.03391440
#
# Stress axis : x y z
#
# Youngs Moduli (GPa) = 74.89394 74.89328 42.79624
#
# Poissons Ratio (x) = 0.37072 0.06694
# Poissons Ratio (y) = 0.37072 0.06695
# Poissons Ratio (z) = 0.11714 0.11716
#
# Static dielectric constant tensor:
#      x y z
#    x 1.690360 0.000000 0.000000 
#    y 0.000000 1.690360 0.000000 
#    z 0.000000 0.000000 1.867010 
# 
# From -- ./inp_files/2904.got.cif
#   From: 2010.05.17/outbox.ucp.g08.bks.cvg/sg120_2_cif.got.tgz:2904.got - 2010.06.11 11:34:49.
