data_PCOD9560225
_publ_section_title
;
Structure prediction by ZEFSAII (Michael W. Deem and Ramdas Pophale) SiO2 
 PCOD9560225
Probable space group: I -4 2 M
;
_chemical_formula_sum "Si O2"
_cell_formula_units_Z 96
_cell_length_a 13.988620
_cell_length_b 13.988620
_cell_length_c 25.498738
_cell_angle_alpha 90.000000
_cell_angle_beta 90.000000
_cell_angle_gamma 90.000000
_cell_volume 4989.631032
_symmetry_space_group_name_H-M "I -4 2 M"
_symmetry_group_IT_number 121
_symmetry_cell_setting 'tetragonal'
loop_
_space_group_symop_operation_xyz
x,y,z
y,-x,-z
-x,-y,z
-y,x,-z
x,-y,-z
-x,y,-z
-y,-x,z
y,x,z
1/2+x,1/2+y,1/2+z
1/2+y,1/2-x,1/2-z
1/2-x,1/2-y,1/2+z
1/2-y,1/2+x,1/2-z
1/2+x,1/2-y,1/2-z
1/2-x,1/2+y,1/2-z
1/2-y,1/2-x,1/2+z
1/2+y,1/2+x,1/2+z
loop_
_atom_site_type_symbol
_atom_site_label
_atom_site_fract_x
_atom_site_fract_y
_atom_site_fract_z
Si Si1 0.415248 0.253003 0.041709
Si Si2 0.622972 0.922664 0.732207
Si Si3 0.245930 0.593404 0.463727
Si Si4 0.240366 0.608648 0.344909
Si Si5 0.492622 0.343980 0.863001
Si Si6 0.318790 0.526105 0.743444
O O1 0.343550 0.343550 0.036324
O O2 0.348832 0.160118 0.033785
O O3 0.466609 0.263412 0.098489
O O4 0.500000 0.257183 0.000000
O O5 0.536810 0.888990 0.769683
O O6 0.611212 0.865821 0.678422
O O7 0.726945 0.903773 0.755685
O O8 0.243450 0.500000 0.500000
O O9 0.336646 0.663355 0.475258
O O10 0.250977 0.565098 0.402309
O O11 0.285095 0.714906 0.348432
O O12 0.299452 0.549277 0.301944
O O13 0.574351 0.425650 0.863170
O O14 0.395535 0.395535 0.882095
O O15 0.482260 0.317981 0.801958
O O16 0.415023 0.584977 0.736011
#
# Coordination Sequence:
#
# PCOD9560225 Si02
#       6
#    16  16  16  16  16  16
#     4  10  20  36  60  88 119 154 190 230 283 350
#     4   9  18  33  52  77 108 148 188 222 264 326
#     4  10  23  43  63  83 108 145 198 253 303 355
#     4  10  20  36  59  81 106 144 186 231 286 343
#     4   9  17  30  52  85 122 154 185 226 276 337
#     4  10  19  32  53  83 118 149 180 223 274 332
#
# _framework density 19.239899999999999
#
# number of rings (size 3 to 8) (size 9 to 14) (size 15 to 20)
#    0.000    2.333    0.000    2.500    0.000    5.667 
#    0.000   16.667    0.000    4.000    0.000    0.000 
#    0.000    0.000    0.000    0.000    0.000    0.000 
#
# Total GULP energy -267576.410256 kJ/mol
# GULP energy per Si atom -5574.508547 kJ/mol
# Density = 1.919611 g / cm^3
# Si number density = 19.239900 Si / 1000 Ang^3
#
#
#
# Elastic Constant Matrix: (Units=GPa)
#
#
# Indices 1 2 3 4 5 6 
#
# 1 98.4089 44.0341 63.4618 0.0000 0.0000 0.0000
# 2 44.0341 98.4100 63.4593 0.0000 0.0000 0.0000
# 3 63.4618 63.4593 143.1190 0.0000 0.0000 0.0000
# 4 0.0000 0.0000 0.0000 32.4236 0.0000 0.0000
# 5 0.0000 0.0000 0.0000 0.0000 32.4236 0.0000
# 6 0.0000 0.0000 0.0000 0.0000 0.0000 18.0240
#
#
#
# Elastic Compliance Matrix: (Units=1/GPa)
#
#
# Indices 1 2 3 4 5 6 
#
# 1 0.014998 -0.003393 -0.005146 0.000000 0.000000 0.000000
# 2 -0.003393 0.014998 -0.005146 0.000000 0.000000 0.000000
# 3 -0.005146 -0.005146 0.011551 0.000000 0.000000 0.000000
# 4 0.000000 0.000000 0.000000 0.030842 0.000000 0.000000
# 5 0.000000 0.000000 0.000000 0.000000 0.030842 0.000000
# 6 0.000000 0.000000 0.000000 0.000000 0.000000 0.055482
#
#
# Mechanical properties :
#
#
# Convention : Reuss Voigt Hill
#
# Bulk Modulus (GPa) = 70.53272 75.76094 73.14683
# Shear Modulus (GPa) = 26.20443 27.83975 27.02209
#
# Velocity S-wave (km/s) = 3.69451 3.80805 3.75171
# Velocity P-wave (km/s) = 7.41204 7.66795 7.54108
#
# Compressibility (1/GPa) = 0.01417782
#
# Stress axis : x y z
#
# Youngs Moduli (GPa) = 66.67336 66.67645 86.57386
#
# Poissons Ratio (x) = 0.22620 0.44554
# Poissons Ratio (y) = 0.22619 0.44549
# Poissons Ratio (z) = 0.34313 0.34310
#
# Static dielectric constant tensor:
#      x y z
#    x 1.712190 0.000000 0.000000 
#    y 0.000000 1.712190 0.000000 
#    z 0.000000 0.000000 1.665340 
# 
# From -- ./inp_files/6423.got.cif
#   From: 2010.05.17/outbox.cif.g08.bks.cpg/sg121_4_cif.got.tgz:6423.got - 2010.05.20 11:32:06.
