data_PCOD9560577
_publ_section_title
;
Structure prediction by ZEFSAII (Michael W. Deem and Ramdas Pophale) SiO2 
 PCOD9560577
Probable space group: I -4 2 M
;
_chemical_formula_sum "Si O2"
_cell_formula_units_Z 56
_cell_length_a 17.222465
_cell_length_b 17.222465
_cell_length_c 8.676122
_cell_angle_alpha 90.000000
_cell_angle_beta 90.000000
_cell_angle_gamma 90.000000
_cell_volume 2573.453183
_symmetry_space_group_name_H-M "I -4 2 M"
_symmetry_group_IT_number 121
_symmetry_cell_setting 'tetragonal'
loop_
_space_group_symop_operation_xyz
x,y,z
y,-x,-z
-x,-y,z
-y,x,-z
x,-y,-z
-x,y,-z
-y,-x,z
y,x,z
1/2+x,1/2+y,1/2+z
1/2+y,1/2-x,1/2-z
1/2-x,1/2-y,1/2+z
1/2-y,1/2+x,1/2-z
1/2+x,1/2-y,1/2-z
1/2-x,1/2+y,1/2-z
1/2-y,1/2-x,1/2+z
1/2+y,1/2+x,1/2+z
loop_
_atom_site_type_symbol
_atom_site_label
_atom_site_fract_x
_atom_site_fract_y
_atom_site_fract_z
Si Si1 0.611957 0.797487 0.470992
Si Si2 0.914542 0.914542 0.437069
Si Si3 0.094412 0.429677 0.216713
Si Si4 0.643180 0.356821 0.376471
Si Si5 0.292332 0.292332 0.924990
O O1 0.580406 0.824625 0.306143
O O2 0.584678 0.861988 0.592444
O O3 0.598499 0.708425 0.523356
O O4 0.704237 0.808919 0.462368
O O5 0.906343 0.906343 0.249099
O O6 0.852391 0.852391 0.499037
O O7 0.000000 0.895769 0.500000
O O8 0.085818 0.519788 0.172040
O O9 0.694562 0.305439 0.257045
#
# Coordination Sequence:
#
# PCOD9560577 Si02
#       5
#    16   8  16   8   8
#     4  11  20  38  58  83 121 164 204 265 300 366
#     4   9  18  36  60  92 122 152 198 263 317 381
#     4  11  23  37  56  86 125 168 210 251 304 368
#     4   9  20  37  60  90 115 157 207 261 315 370
#     4   9  20  35  58  84 115 151 203 251 312 363
#
# _framework density 21.760643999999999
#
# number of rings (size 3 to 8) (size 9 to 14) (size 15 to 20)
#    0.857    1.000    2.857    1.714    0.000    6.857 
#    0.000    0.000    0.000    0.000    0.000    6.000 
#    0.000    4.571    0.000    0.000    0.000    0.000 
#
# Total GULP energy -155973.705038 kJ/mol
# GULP energy per Si atom -5570.489466 kJ/mol
# Density = 2.171112 g / cm^3
# Si number density = 21.760644 Si / 1000 Ang^3
#
#
#
# Elastic Constant Matrix: (Units=GPa)
#
#
# Indices 1 2 3 4 5 6 
#
# 1 86.0077 32.6683 2.0499 0.0000 0.0000 0.0000
# 2 32.6683 86.0076 2.0494 0.0000 0.0000 0.0000
# 3 2.0499 2.0494 40.6032 0.0000 0.0000 0.0000
# 4 0.0000 0.0000 0.0000 29.3694 0.0000 0.0000
# 5 0.0000 0.0000 0.0000 0.0000 29.3699 0.0000
# 6 0.0000 0.0000 0.0000 0.0000 0.0000 19.2709
#
#
#
# Elastic Compliance Matrix: (Units=1/GPa)
#
#
# Indices 1 2 3 4 5 6 
#
# 1 0.013594 -0.005153 -0.000426 0.000000 0.000000 0.000000
# 2 -0.005153 0.013594 -0.000426 0.000000 0.000000 0.000000
# 3 -0.000426 -0.000426 0.024672 0.000000 0.000000 0.000000
# 4 0.000000 0.000000 0.000000 0.034049 0.000000 0.000000
# 5 0.000000 0.000000 0.000000 0.000000 0.034049 0.000000
# 6 0.000000 0.000000 0.000000 0.000000 0.000000 0.051892
#
#
# Mechanical properties :
#
#
# Convention : Reuss Voigt Hill
#
# Bulk Modulus (GPa) = 25.09457 31.79486 28.44471
# Shear Modulus (GPa) = 25.36215 27.32543 26.34379
#
# Velocity S-wave (km/s) = 3.41765 3.54747 3.48317
# Velocity P-wave (km/s) = 5.20874 5.60556 5.41079
#
# Compressibility (1/GPa) = 0.03984926
#
# Stress axis : x y z
#
# Youngs Moduli (GPa) = 73.55938 73.55938 40.53241
#
# Poissons Ratio (x) = 0.37908 0.01728
# Poissons Ratio (y) = 0.37908 0.01727
# Poissons Ratio (z) = 0.03135 0.03134
#
# Static dielectric constant tensor:
#      x y z
#    x 1.798000 0.000000 0.000000 
#    y 0.000000 1.798000 0.000000 
#    z 0.000000 0.000000 1.837450 
# 
# From -- ./inp_files/1384.got.cif
#   From: 2010.05.17/outbox.cif.g08.bks.cpg/sg121_1_cif.got.tgz:1384.got - 2010.05.20 11:32:06.
