data_PCOD9560302
_publ_section_title
;
Structure prediction by ZEFSAII (Michael W. Deem and Ramdas Pophale) SiO2 
 PCOD9560302
Probable space group: I -4 2 M
;
_chemical_formula_sum "Si O2"
_cell_formula_units_Z 120
_cell_length_a 15.334700
_cell_length_b 15.334700
_cell_length_c 29.123545
_cell_angle_alpha 90.000000
_cell_angle_beta 90.000000
_cell_angle_gamma 90.000000
_cell_volume 6848.489679
_symmetry_space_group_name_H-M "I -4 2 M"
_symmetry_group_IT_number 121
_symmetry_cell_setting 'tetragonal'
loop_
_space_group_symop_operation_xyz
x,y,z
y,-x,-z
-x,-y,z
-y,x,-z
x,-y,-z
-x,y,-z
-y,-x,z
y,x,z
1/2+x,1/2+y,1/2+z
1/2+y,1/2-x,1/2-z
1/2-x,1/2-y,1/2+z
1/2-y,1/2+x,1/2-z
1/2+x,1/2-y,1/2-z
1/2-x,1/2+y,1/2-z
1/2-y,1/2-x,1/2+z
1/2+y,1/2+x,1/2+z
loop_
_atom_site_type_symbol
_atom_site_label
_atom_site_fract_x
_atom_site_fract_y
_atom_site_fract_z
Si Si1 0.500000 0.364500 0.500000
Si Si2 0.781648 0.463031 0.430644
Si Si3 0.810399 0.668337 0.430807
Si Si4 0.748599 0.892605 0.339871
Si Si5 0.218812 0.076037 0.616465
Si Si6 0.142808 0.711951 0.840255
Si Si7 0.432566 0.869286 0.248336
Si Si8 0.645603 0.791205 0.029615
O O1 0.426288 0.426288 0.479366
O O2 0.458535 0.305414 0.539166
O O3 0.808542 0.563901 0.433683
O O4 0.771588 0.430564 0.378729
O O5 0.843966 0.391003 0.454004
O O6 0.715180 0.715180 0.433936
O O7 0.851081 0.696604 0.382701
O O8 0.862544 0.705965 0.474862
O O9 0.825721 0.825721 0.327324
O O10 0.685020 0.910454 0.297256
O O11 0.784823 0.983673 0.359235
O O12 0.129674 0.129674 0.620750
O O13 0.294047 0.135099 0.640494
O O14 0.245764 0.075212 0.562553
O O15 0.203610 0.796391 0.835208
O O16 0.101301 0.682127 0.792735
O O17 0.535925 0.886889 0.252206
O O18 0.734988 0.734988 0.039694
#
# Coordination Sequence:
#
# PCOD9560302 Si02
#       8
#     8  16  16  16  16  16  16  16
#     4  11  20  28  46  78 115 152 192 234 269 324
#     4  11  18  31  52  77 109 150 195 229 275 332
#     4  10  20  33  51  79 118 155 188 233 280 335
#     4  11  23  39  59  86 116 148 187 231 291 346
#     4   9  19  37  60  83 109 143 188 234 275 333
#     4  10  20  36  58  81 108 147 191 234 282 342
#     4  11  22  39  61  86 114 146 185 238 288 336
#     4   9  17  32  54  79 110 152 193 228 275 332
#
# _framework density 17.522110999999999
#
# number of rings (size 3 to 8) (size 9 to 14) (size 15 to 20)
#    0.000    1.800    2.667    3.600    0.000    0.800 
#    0.000    0.000    0.000    4.000    0.000    3.733 
#    0.000    0.000    0.000    0.000    0.000    0.000 
#
# Total GULP energy -334656.337486 kJ/mol
# GULP energy per Si atom -5577.605625 kJ/mol
# Density = 1.748223 g / cm^3
# Si number density = 17.522111 Si / 1000 Ang^3
#
#
#
# Elastic Constant Matrix: (Units=GPa)
#
#
# Indices 1 2 3 4 5 6 
#
# 1 84.4687 36.2993 52.2432 0.0000 0.0000 0.0000
# 2 36.2993 84.4683 52.2435 0.0000 0.0000 0.0000
# 3 52.2432 52.2435 135.9543 0.0000 0.0000 0.0000
# 4 0.0000 0.0000 0.0000 25.1505 0.0000 0.0000
# 5 0.0000 0.0000 0.0000 0.0000 25.1497 0.0000
# 6 0.0000 0.0000 0.0000 0.0000 0.0000 15.0689
#
#
#
# Elastic Compliance Matrix: (Units=1/GPa)
#
#
# Indices 1 2 3 4 5 6 
#
# 1 0.016582 -0.004178 -0.004767 0.000000 0.000000 0.000000
# 2 -0.004178 0.016582 -0.004767 0.000000 0.000000 0.000000
# 3 -0.004767 -0.004767 0.011019 0.000000 0.000000 0.000000
# 4 0.000000 0.000000 0.000000 0.039761 0.000000 0.000000
# 5 0.000000 0.000000 0.000000 0.000000 0.039762 0.000000
# 6 0.000000 0.000000 0.000000 0.000000 0.000000 0.066362
#
#
# Mechanical properties :
#
#
# Convention : Reuss Voigt Hill
#
# Bulk Modulus (GPa) = 59.66240 65.16258 62.41249
# Shear Modulus (GPa) = 22.41377 24.01418 23.21398
#
# Velocity S-wave (km/s) = 3.58043 3.70605 3.64378
# Velocity P-wave (km/s) = 7.15656 7.45537 7.30749
#
# Compressibility (1/GPa) = 0.01676097
#
# Stress axis : x y z
#
# Youngs Moduli (GPa) = 60.30566 60.30511 90.75411
#
# Poissons Ratio (x) = 0.25195 0.43259
# Poissons Ratio (y) = 0.25195 0.43260
# Poissons Ratio (z) = 0.28745 0.28746
#
# Static dielectric constant tensor:
#      x y z
#    x 1.591980 0.000000 0.000000 
#    y 0.000000 1.591980 0.000000 
#    z 0.000000 0.000000 1.590360 
# 
# From -- ./inp_files/8452.got.cif
#   From: 2010.05.17/outbox.cif.g08.bks.cpg/sg121_5_cif.got.tgz:8452.got - 2010.05.20 11:32:06.
