data_PCOD9560353
_publ_section_title
;
Structure prediction by ZEFSAII (Michael W. Deem and Ramdas Pophale) SiO2 
 PCOD9560353
Probable space group: I -4 2 M
;
_chemical_formula_sum "Si O2"
_cell_formula_units_Z 96
_cell_length_a 23.754489
_cell_length_b 23.754489
_cell_length_c 9.688639
_cell_angle_alpha 90.000000
_cell_angle_beta 90.000000
_cell_angle_gamma 90.000000
_cell_volume 5467.064015
_symmetry_space_group_name_H-M "I -4 2 M"
_symmetry_group_IT_number 121
_symmetry_cell_setting 'tetragonal'
loop_
_space_group_symop_operation_xyz
x,y,z
y,-x,-z
-x,-y,z
-y,x,-z
x,-y,-z
-x,y,-z
-y,-x,z
y,x,z
1/2+x,1/2+y,1/2+z
1/2+y,1/2-x,1/2-z
1/2-x,1/2-y,1/2+z
1/2-y,1/2+x,1/2-z
1/2+x,1/2-y,1/2-z
1/2-x,1/2+y,1/2-z
1/2-y,1/2-x,1/2+z
1/2+y,1/2+x,1/2+z
loop_
_atom_site_type_symbol
_atom_site_label
_atom_site_fract_x
_atom_site_fract_y
_atom_site_fract_z
Si Si1 0.567613 0.432388 0.000001
Si Si2 0.566390 0.853112 0.836964
Si Si3 0.065935 0.762286 0.165433
Si Si4 0.126555 0.126555 0.755300
Si Si5 0.873444 0.873444 0.244699
Si Si6 0.146888 0.566390 0.836964
Si Si7 0.934397 0.065604 1.000000
Si Si8 0.565936 0.262286 0.334568
O O1 0.598433 0.401568 0.124124
O O2 0.500000 0.423461 0.000000
O O3 0.598433 0.401568 0.875877
O O4 0.500000 0.867241 0.833290
O O5 0.601954 0.898046 0.750000
O O6 0.572795 0.794019 0.755672
O O7 0.582699 0.849699 0.000000
O O8 0.108949 0.808818 0.223463
O O9 0.072795 0.705981 0.255672
O O10 1.000000 0.780781 0.181011
O O11 0.074802 0.753684 0.000001
O O12 0.094112 0.094112 0.873490
O O13 0.905888 0.905888 0.126510
O O14 0.808818 0.891050 0.223462
O O15 0.000000 0.076022 0.000000
#
# Coordination Sequence:
#
# PCOD9560353 Si02
#       8
#     8  16  16   8   8  16   8  16
#     4  11  24  36  48  74 113 154 198 256 315 358
#     4  10  22  40  64  93 123 154 189 233 287 350
#     4  10  20  36  58  84 116 156 202 249 295 348
#     4  12  22  35  55  80 114 158 205 248 299 352
#     4  12  22  35  55  80 114 158 205 248 299 352
#     4  10  22  40  64  93 123 154 189 233 287 350
#     4  11  20  32  52  78 109 146 198 258 307 350
#     4  10  20  36  58  84 116 156 202 249 295 348
#
# _framework density 17.559698999999998
#
# number of rings (size 3 to 8) (size 9 to 14) (size 15 to 20)
#    0.000    1.500    1.667    4.000    2.333    3.667 
#    0.000    2.500    0.000    0.000    0.000    0.000 
#    0.000    0.000    0.000    0.000    0.000    0.000 
#
# Total GULP energy -267692.930087 kJ/mol
# GULP energy per Si atom -5576.936043 kJ/mol
# Density = 1.751973 g / cm^3
# Si number density = 17.559699 Si / 1000 Ang^3
#
#
#
# Elastic Constant Matrix: (Units=GPa)
#
#
# Indices 1 2 3 4 5 6 
#
# 1 96.8825 76.0590 67.0680 0.0000 0.0000 0.0000
# 2 76.0590 96.8822 67.0678 0.0000 0.0000 0.0000
# 3 67.0680 67.0678 176.5288 0.0000 0.0000 0.0000
# 4 0.0000 0.0000 0.0000 31.9174 0.0000 0.0000
# 5 0.0000 0.0000 0.0000 0.0000 31.9166 0.0000
# 6 0.0000 0.0000 0.0000 0.0000 0.0000 34.3779
#
#
#
# Elastic Compliance Matrix: (Units=1/GPa)
#
#
# Indices 1 2 3 4 5 6 
#
# 1 0.028111 -0.019913 -0.003115 0.000000 0.000000 0.000000
# 2 -0.019913 0.028111 -0.003115 0.000000 0.000000 0.000000
# 3 -0.003115 -0.003115 0.008031 0.000000 0.000000 0.000000
# 4 0.000000 0.000000 0.000000 0.031331 0.000000 0.000000
# 5 0.000000 0.000000 0.000000 0.000000 0.031332 0.000000
# 6 0.000000 0.000000 0.000000 0.000000 0.000000 0.029088
#
#
# Mechanical properties :
#
#
# Convention : Reuss Voigt Hill
#
# Bulk Modulus (GPa) = 83.54923 87.85367 85.70145
# Shear Modulus (GPa) = 23.55412 30.31562 26.93487
#
# Velocity S-wave (km/s) = 3.66645 4.15954 3.92076
# Velocity P-wave (km/s) = 8.09983 8.55623 8.33116
#
# Compressibility (1/GPa) = 0.01196899
#
# Stress axis : x y z
#
# Youngs Moduli (GPa) = 35.57380 35.57372 124.50995
#
# Poissons Ratio (x) = 0.70836 0.38781
# Poissons Ratio (y) = 0.70836 0.38781
# Poissons Ratio (z) = 0.11080 0.11080
#
# Static dielectric constant tensor:
#      x y z
#    x 1.667950 0.000000 0.000000 
#    y 0.000000 1.667930 0.000000 
#    z 0.000000 0.000000 1.568910 
# 
# From -- ./inp_files/2028.got.cif
#   From: 2010.05.17/outbox.cif.g08.bks.cpg/sg121_2_cif.got.tgz:2028.got - 2010.05.20 11:32:06.
