data_PCOD9560945
_publ_section_title
;
Structure prediction by ZEFSAII (Michael W. Deem and Ramdas Pophale) SiO2 
 PCOD9560945
Probable space group: I -4 2 D
;
_chemical_formula_sum "Si O2"
_cell_formula_units_Z 100
_cell_length_a 14.210984
_cell_length_b 14.210984
_cell_length_c 23.704935
_cell_angle_alpha 90.000000
_cell_angle_beta 90.000000
_cell_angle_gamma 90.000000
_cell_volume 4787.260604
_symmetry_space_group_name_H-M "I -4 2 D"
_symmetry_group_IT_number 122
_symmetry_cell_setting 'tetragonal'
loop_
_space_group_symop_operation_xyz
x,y,z
y,-x,-z
-x,-y,z
-y,x,-z
x,1/2-y,1/4-z
-x,1/2+y,1/4-z
-y,1/2-x,1/4+z
y,1/2+x,1/4+z
1/2+x,1/2+y,1/2+z
1/2+y,1/2-x,1/2-z
1/2-x,1/2-y,1/2+z
1/2-y,1/2+x,1/2-z
1/2+x,-y,3/4-z
1/2-x,y,3/4-z
1/2-y,-x,3/4+z
1/2+y,x,3/4+z
loop_
_atom_site_type_symbol
_atom_site_label
_atom_site_fract_x
_atom_site_fract_y
_atom_site_fract_z
Si Si1 0.750000 0.427721 0.375000
Si Si2 0.303111 0.793021 0.062404
Si Si3 0.604953 0.750000 0.125000
Si Si4 0.400151 0.638818 0.578130
Si Si5 0.764275 0.857343 0.190707
Si Si6 0.000000 0.000000 0.000000
Si Si7 0.485796 0.901175 0.061426
Si Si8 0.394314 0.969051 0.565607
O O1 0.691255 0.500221 0.414030
O O2 0.800353 0.356579 0.418438
O O3 0.316109 0.750000 0.125000
O O4 0.192506 0.812577 0.053696
O O5 0.374083 0.882315 0.057984
O O6 0.338584 0.739739 0.006193
O O7 0.675199 0.822249 0.155995
O O8 0.535792 0.812305 0.087974
O O9 0.422642 0.547706 0.540387
O O10 0.372632 0.615676 0.642919
O O11 0.805234 0.961186 0.179865
O O12 0.500000 0.000000 0.092114
O O13 0.538380 0.908810 0.000944
O O14 0.500000 0.000000 0.585984
#
# Coordination Sequence:
#
# PCOD9560945 Si02
#       8
#     8  16   8  16  16   4  16  16
#     4  11  20  39  60  94 138 167 220 251 328 396
#     4  11  24  43  64  93 130 166 223 271 323 398
#     4  11  24  43  70  94 130 163 224 285 328 392
#     4  12  23  38  64  95 133 181 212 269 319 400
#     4  10  23  41  62  96 129 171 210 273 330 389
#     4  12  24  40  56 100 144 168 228 264 334 396
#     4  10  24  45  68  94 124 170 221 277 335 390
#     4  10  20  41  65  89 129 170 215 258 328 403
#
# _framework density 20.888771999999999
#
# number of rings (size 3 to 8) (size 9 to 14) (size 15 to 20)
#    0.000    1.280    4.000    0.960    4.480    1.280 
#    0.000    0.000    0.000    0.000    0.000    0.000 
#    0.000    0.000    0.000    0.000    0.000    0.000 
#
# Total GULP energy -278435.607692 kJ/mol
# GULP energy per Si atom -5568.712154 kJ/mol
# Density = 2.084123 g / cm^3
# Si number density = 20.888772 Si / 1000 Ang^3
#
#
#
# Elastic Constant Matrix: (Units=GPa)
#
#
# Indices 1 2 3 4 5 6 
#
# 1 44.4087 6.3702 -2.1978 0.0000 0.0000 0.0000
# 2 6.3702 44.4087 -2.1978 0.0000 0.0000 0.0000
# 3 -2.1978 -2.1978 45.2454 0.0000 0.0000 0.0000
# 4 0.0000 0.0000 0.0000 18.0632 0.0000 0.0000
# 5 0.0000 0.0000 0.0000 0.0000 18.0632 0.0000
# 6 0.0000 0.0000 0.0000 0.0000 0.0000 16.2313
#
#
#
# Elastic Compliance Matrix: (Units=1/GPa)
#
#
# Indices 1 2 3 4 5 6 
#
# 1 0.023033 -0.003256 0.000961 0.000000 0.000000 0.000000
# 2 -0.003256 0.023033 0.000961 0.000000 0.000000 0.000000
# 3 0.000961 0.000961 0.022195 0.000000 0.000000 0.000000
# 4 0.000000 0.000000 0.000000 0.055361 0.000000 0.000000
# 5 0.000000 0.000000 0.000000 0.000000 0.055361 0.000000
# 6 0.000000 0.000000 0.000000 0.000000 0.000000 0.061609
#
#
# Mechanical properties :
#
#
# Convention : Reuss Voigt Hill
#
# Bulk Modulus (GPa) = 15.24616 15.33468 15.29042
# Shear Modulus (GPa) = 18.85897 19.27743 19.06820
#
# Velocity S-wave (km/s) = 3.00797 3.04116 3.02461
# Velocity P-wave (km/s) = 4.40209 4.43718 4.41967
#
# Compressibility (1/GPa) = 0.06559029
#
# Stress axis : x y z
#
# Youngs Moduli (GPa) = 43.41641 43.41641 45.05517
#
# Poissons Ratio (x) = 0.14138 -0.04328
# Poissons Ratio (y) = 0.14138 -0.04328
# Poissons Ratio (z) = -0.04171 -0.04171
#
# Static dielectric constant tensor:
#      x y z
#    x 1.849870 0.000000 0.000000 
#    y 0.000000 1.849870 0.000000 
#    z 0.000000 0.000000 1.770960 
# 
# From -- ./inp_files/8070.got.cif
#   From: 2010.05.17/outbox.cif.g08.bks.cpg/sg122_5_cif.got.tgz:8070.got - 2010.05.20 11:37:33.
