data_PCOD9560640
_publ_section_title
;
Structure prediction by ZEFSAII (Michael W. Deem and Ramdas Pophale) SiO2 
 PCOD9560640
Probable space group: I -4 2 M
;
_chemical_formula_sum "Si O2"
_cell_formula_units_Z 60
_cell_length_a 17.228493
_cell_length_b 17.228493
_cell_length_c 9.504824
_cell_angle_alpha 90.000000
_cell_angle_beta 90.000000
_cell_angle_gamma 90.000000
_cell_volume 2821.231089
_symmetry_space_group_name_H-M "I -4 2 M"
_symmetry_group_IT_number 121
_symmetry_cell_setting 'tetragonal'
loop_
_space_group_symop_operation_xyz
x,y,z
y,-x,-z
-x,-y,z
-y,x,-z
x,-y,-z
-x,y,-z
-y,-x,z
y,x,z
1/2+x,1/2+y,1/2+z
1/2+y,1/2-x,1/2-z
1/2-x,1/2-y,1/2+z
1/2-y,1/2+x,1/2-z
1/2+x,1/2-y,1/2-z
1/2-x,1/2+y,1/2-z
1/2-y,1/2-x,1/2+z
1/2+y,1/2+x,1/2+z
loop_
_atom_site_type_symbol
_atom_site_label
_atom_site_fract_x
_atom_site_fract_y
_atom_site_fract_z
Si Si1 0.247598 0.878467 0.456416
Si Si2 0.267584 0.528316 0.229023
Si Si3 0.626919 0.500000 0.500000
Si Si4 0.373239 0.077004 0.092887
Si Si5 0.000000 0.500000 0.250000
O O1 0.198881 0.801120 0.425848
O O2 0.210964 0.920293 0.593315
O O3 0.339555 0.863988 0.478007
O O4 0.243307 0.941121 0.330107
O O5 0.323492 0.524117 0.363684
O O6 0.189477 0.567973 0.285387
O O7 0.571568 0.428433 0.539994
O O8 0.458926 0.065036 0.156444
O O9 0.361022 0.000000 0.000000
#
# Coordination Sequence:
#
# PCOD9560640 Si02
#       5
#    16  16   8  16   4
#     4  11  26  45  70 104 143 188 236 293 363 431
#     4  11  24  46  68 101 141 181 230 293 357 423
#     4  11  24  44  72  99 130 180 236 293 352 418
#     4  12  24  42  67 101 139 182 231 286 352 427
#     4  12  22  40  72 102 140 186 228 278 348 438
#
# _framework density 21.267313000000001
#
# number of rings (size 3 to 8) (size 9 to 14) (size 15 to 20)
#    0.000    0.667    4.000    3.600    3.733    2.133 
#    0.000    0.000    0.000    6.400    0.000    0.000 
#    0.000    0.000    0.000    0.000    0.000    0.000 
#
# Total GULP energy -167619.961595 kJ/mol
# GULP energy per Si atom -5587.332053 kJ/mol
# Density = 2.121891 g / cm^3
# Si number density = 21.267313 Si / 1000 Ang^3
#
#
#
# Elastic Constant Matrix: (Units=GPa)
#
#
# Indices 1 2 3 4 5 6 
#
# 1 119.9185 55.8412 33.8660 0.0000 0.0000 0.0000
# 2 55.8412 119.9211 33.8656 0.0000 0.0000 0.0000
# 3 33.8660 33.8656 90.8082 0.0000 0.0000 0.0000
# 4 0.0000 0.0000 0.0000 28.6171 0.0000 0.0000
# 5 0.0000 0.0000 0.0000 0.0000 28.6182 0.0000
# 6 0.0000 0.0000 0.0000 0.0000 0.0000 29.9132
#
#
#
# Elastic Compliance Matrix: (Units=1/GPa)
#
#
# Indices 1 2 3 4 5 6 
#
# 1 0.011125 -0.004481 -0.002478 0.000000 0.000000 0.000000
# 2 -0.004481 0.011125 -0.002478 0.000000 0.000000 0.000000
# 3 -0.002478 -0.002478 0.012860 0.000000 0.000000 0.000000
# 4 0.000000 0.000000 0.000000 0.034944 0.000000 0.000000
# 5 0.000000 0.000000 0.000000 0.000000 0.034943 0.000000
# 6 0.000000 0.000000 0.000000 0.000000 0.000000 0.033430
#
#
# Mechanical properties :
#
#
# Convention : Reuss Voigt Hill
#
# Bulk Modulus (GPa) = 61.58577 64.19927 62.89252
# Shear Modulus (GPa) = 30.72885 31.23470 30.98178
#
# Velocity S-wave (km/s) = 3.80529 3.83648 3.82092
# Velocity P-wave (km/s) = 6.95182 7.06238 7.00732
#
# Compressibility (1/GPa) = 0.01623752
#
# Stress axis : x y z
#
# Youngs Moduli (GPa) = 89.88524 89.88767 77.75758
#
# Poissons Ratio (x) = 0.40276 0.19269
# Poissons Ratio (y) = 0.40275 0.19267
# Poissons Ratio (z) = 0.22274 0.22273
#
# Static dielectric constant tensor:
#      x y z
#    x 1.777510 0.000000 0.000000 
#    y 0.000000 1.777510 0.000000 
#    z 0.000000 0.000000 1.830880 
# 
# From -- ./inp_files/1399.got.cif
#   From: 2010.05.17/outbox.cif.g08.bks.cpg/sg121_1_cif.got.tgz:1399.got - 2010.05.20 11:32:06.
