data_PCOD9560329
_publ_section_title
;
Structure prediction by ZEFSAII (Michael W. Deem and Ramdas Pophale) SiO2 
 PCOD9560329
Probable space group: I -4 2 M
;
_chemical_formula_sum "Si O2"
_cell_formula_units_Z 48
_cell_length_a 22.881120
_cell_length_b 22.881120
_cell_length_c 4.855271
_cell_angle_alpha 90.000000
_cell_angle_beta 90.000000
_cell_angle_gamma 90.000000
_cell_volume 2541.956024
_symmetry_space_group_name_H-M "I -4 2 M"
_symmetry_group_IT_number 121
_symmetry_cell_setting 'tetragonal'
loop_
_space_group_symop_operation_xyz
x,y,z
y,-x,-z
-x,-y,z
-y,x,-z
x,-y,-z
-x,y,-z
-y,-x,z
y,x,z
1/2+x,1/2+y,1/2+z
1/2+y,1/2-x,1/2-z
1/2-x,1/2-y,1/2+z
1/2-y,1/2+x,1/2-z
1/2+x,1/2-y,1/2-z
1/2-x,1/2+y,1/2-z
1/2-y,1/2-x,1/2+z
1/2+y,1/2+x,1/2+z
loop_
_atom_site_type_symbol
_atom_site_label
_atom_site_fract_x
_atom_site_fract_y
_atom_site_fract_z
Si Si1 0.437995 0.110805 0.066445
Si Si2 0.040537 0.733427 0.730450
Si Si3 0.328665 0.770001 0.395418
O O1 0.390734 0.076076 0.886390
O O2 0.443262 0.174197 0.934766
O O3 0.500000 0.081538 0.000000
O O4 0.105591 0.750986 0.831100
O O5 0.000000 0.766432 0.500000
O O6 0.000000 0.726172 0.000000
O O7 0.285486 0.714515 0.380262
O O8 0.318033 0.802036 0.684942
#
# Coordination Sequence:
#
# PCOD9560329 Si02
#       3
#    16  16  16
#     4  11  21  32  44  59  83 119 160 202 242 278
#     4  11  21  34  51  73 100 129 163 203 252 308
#     4  10  20  35  56  79 104 135 171 214 260 307
#
# _framework density 18.883095000000001
#
# number of rings (size 3 to 8) (size 9 to 14) (size 15 to 20)
#    0.000    1.333    0.000    9.000    0.000    2.000 
#    0.000    0.000    0.000    0.000    0.000    0.000 
#    0.000    4.000    0.000    0.000    0.000    0.000 
#
# Total GULP energy -133837.576060 kJ/mol
# GULP energy per Si atom -5576.565669 kJ/mol
# Density = 1.884012 g / cm^3
# Si number density = 18.883095 Si / 1000 Ang^3
#
#
#
# Elastic Constant Matrix: (Units=GPa)
#
#
# Indices 1 2 3 4 5 6 
#
# 1 81.8723 11.5808 0.7445 0.0000 0.0000 0.0000
# 2 11.5808 81.8665 0.7445 0.0000 0.0000 0.0000
# 3 0.7445 0.7445 72.4990 0.0000 0.0000 0.0000
# 4 0.0000 0.0000 0.0000 17.7698 0.0000 0.0000
# 5 0.0000 0.0000 0.0000 0.0000 17.7687 0.0000
# 6 0.0000 0.0000 0.0000 0.0000 0.0000 18.8017
#
#
#
# Elastic Compliance Matrix: (Units=1/GPa)
#
#
# Indices 1 2 3 4 5 6 
#
# 1 0.012464 -0.001762 -0.000110 0.000000 0.000000 0.000000
# 2 -0.001762 0.012465 -0.000110 0.000000 0.000000 0.000000
# 3 -0.000110 -0.000110 0.013796 0.000000 0.000000 0.000000
# 4 0.000000 0.000000 0.000000 0.056275 0.000000 0.000000
# 5 0.000000 0.000000 0.000000 0.000000 0.056279 0.000000
# 6 0.000000 0.000000 0.000000 0.000000 0.000000 0.053187
#
#
# Mechanical properties :
#
#
# Convention : Reuss Voigt Hill
#
# Bulk Modulus (GPa) = 28.76771 29.15305 28.96038
# Shear Modulus (GPa) = 22.72552 25.74592 24.23572
#
# Velocity S-wave (km/s) = 3.47289 3.69648 3.58643
# Velocity P-wave (km/s) = 5.59902 5.80438 5.70262
#
# Compressibility (1/GPa) = 0.03476119
#
# Stress axis : x y z
#
# Youngs Moduli (GPa) = 80.22847 80.22275 72.48717
#
# Poissons Ratio (x) = 0.14137 0.00797
# Poissons Ratio (y) = 0.14138 0.00797
# Poissons Ratio (z) = 0.00882 0.00882
#
# Static dielectric constant tensor:
#      x y z
#    x 1.729950 0.000000 0.000000 
#    y 0.000000 1.729950 0.000000 
#    z 0.000000 0.000000 1.702720 
# 
# From -- ./inp_files/299.got.cif
#   From: 2010.05.17/outbox.cif.g08.bks.cpg/sg121_1_cif.got.tgz:299.got - 2010.05.20 11:32:06.
