data_PCOD9560200
_publ_section_title
;
Structure prediction by ZEFSAII (Michael W. Deem and Ramdas Pophale) SiO2 
 PCOD9560200
Probable space group: I -4 2 M
;
_chemical_formula_sum "Si O2"
_cell_formula_units_Z 104
_cell_length_a 18.758643
_cell_length_b 18.758643
_cell_length_c 17.363803
_cell_angle_alpha 90.000000
_cell_angle_beta 90.000000
_cell_angle_gamma 90.000000
_cell_volume 6110.091115
_symmetry_space_group_name_H-M "I -4 2 M"
_symmetry_group_IT_number 121
_symmetry_cell_setting 'tetragonal'
loop_
_space_group_symop_operation_xyz
x,y,z
y,-x,-z
-x,-y,z
-y,x,-z
x,-y,-z
-x,y,-z
-y,-x,z
y,x,z
1/2+x,1/2+y,1/2+z
1/2+y,1/2-x,1/2-z
1/2-x,1/2-y,1/2+z
1/2-y,1/2+x,1/2-z
1/2+x,1/2-y,1/2-z
1/2-x,1/2+y,1/2-z
1/2-y,1/2-x,1/2+z
1/2+y,1/2+x,1/2+z
loop_
_atom_site_type_symbol
_atom_site_label
_atom_site_fract_x
_atom_site_fract_y
_atom_site_fract_z
Si Si1 0.000000 0.889649 0.000000
Si Si2 0.656038 0.776985 0.620642
Si Si3 0.659792 0.451835 0.342612
Si Si4 0.048591 0.571477 0.641751
Si Si5 0.420775 0.186762 0.464202
Si Si6 0.786039 0.902500 0.814807
Si Si7 0.425725 0.152344 0.209454
O O1 0.960657 0.847050 0.065055
O O2 0.941698 0.941698 0.961860
O O3 0.728489 0.728489 0.623462
O O4 0.595917 0.729763 0.664312
O O5 0.633516 0.794578 0.532882
O O6 0.650949 0.852319 0.663035
O O7 0.593138 0.406863 0.314607
O O8 0.661619 0.530504 0.311235
O O9 0.107794 0.582910 0.575027
O O10 0.094108 0.567702 0.721401
O O11 0.000000 0.500000 0.630610
O O12 0.992145 0.635192 0.654044
O O13 0.500000 0.192387 0.500000
O O14 0.407846 0.243968 0.396092
O O15 0.829052 0.829052 0.807046
O O16 0.727897 0.920937 0.750965
#
# Coordination Sequence:
#
# PCOD9560200 Si02
#       7
#     8  16  16  16  16  16  16
#     4   9  16  26  42  66  94 125 160 196 240 293
#     4  11  22  36  53  77 110 147 184 224 270 325
#     4  10  19  31  49  71 100 137 174 213 257 306
#     4  11  21  35  58  83 109 138 178 231 281 327
#     4  11  22  35  55  82 111 143 179 223 276 330
#     4  11  22  36  53  77 110 147 184 221 265 324
#     4  11  21  37  56  77 106 145 182 226 277 324
#
# _framework density 17.021021999999999
#
# number of rings (size 3 to 8) (size 9 to 14) (size 15 to 20)
#    0.000    1.308    3.077    4.154    0.000    4.308 
#    0.000    0.000    0.000    0.923    0.000    0.000 
#    0.000    0.000    0.000    0.000    0.000    0.923 
#
# Total GULP energy -289897.301707 kJ/mol
# GULP energy per Si atom -5574.948110 kJ/mol
# Density = 1.698228 g / cm^3
# Si number density = 17.021022 Si / 1000 Ang^3
#
#
#
# Elastic Constant Matrix: (Units=GPa)
#
#
# Indices 1 2 3 4 5 6 
#
# 1 90.1374 38.0159 11.2678 0.0000 0.0000 0.0000
# 2 38.0159 90.1359 11.2662 0.0000 0.0000 0.0000
# 3 11.2678 11.2662 17.4448 0.0000 0.0000 0.0000
# 4 0.0000 0.0000 0.0000 12.8696 0.0000 0.0000
# 5 0.0000 0.0000 0.0000 0.0000 12.8696 0.0000
# 6 0.0000 0.0000 0.0000 0.0000 0.0000 25.6020
#
#
#
# Elastic Compliance Matrix: (Units=1/GPa)
#
#
# Indices 1 2 3 4 5 6 
#
# 1 0.013995 -0.005192 -0.005686 0.000000 0.000000 0.000000
# 2 -0.005192 0.013995 -0.005685 0.000000 0.000000 0.000000
# 3 -0.005686 -0.005685 0.064668 0.000000 0.000000 0.000000
# 4 0.000000 0.000000 0.000000 0.077703 0.000000 0.000000
# 5 0.000000 0.000000 0.000000 0.000000 0.077703 0.000000
# 6 0.000000 0.000000 0.000000 0.000000 0.000000 0.039060
#
#
# Mechanical properties :
#
#
# Convention : Reuss Voigt Hill
#
# Bulk Modulus (GPa) = 16.79782 35.42423 26.11103
# Shear Modulus (GPa) = 14.70194 19.41276 17.05735
#
# Velocity S-wave (km/s) = 2.94215 3.38082 3.16908
# Velocity P-wave (km/s) = 4.62947 6.00809 5.36326
#
# Compressibility (1/GPa) = 0.05953152
#
# Stress axis : x y z
#
# Youngs Moduli (GPa) = 71.45596 71.45647 15.46366
#
# Poissons Ratio (x) = 0.37098 0.08793
# Poissons Ratio (y) = 0.37097 0.08790
# Poissons Ratio (z) = 0.40633 0.40620
#
# Static dielectric constant tensor:
#      x y z
#    x 1.644870 0.000000 0.000000 
#    y 0.000000 1.644880 0.000000 
#    z 0.000000 0.000000 1.653390 
# 
# From -- ./inp_files/5489.got.cif
#   From: 2010.05.17/outbox.cif.g08.bks.cpg/sg121_3_cif.got.tgz:5489.got - 2010.05.20 11:32:06.
