data_PCOD9560032
_publ_section_title
;
Structure prediction by ZEFSAII (Michael W. Deem and Ramdas Pophale) SiO2 
 PCOD9560032
Probable space group: I -4 C 2
;
_chemical_formula_sum "Si O2"
_cell_formula_units_Z 60
_cell_length_a 13.677693
_cell_length_b 13.677693
_cell_length_c 12.992926
_cell_angle_alpha 90.000000
_cell_angle_beta 90.000000
_cell_angle_gamma 90.000000
_cell_volume 2430.707317
_symmetry_space_group_name_H-M "I -4 C 2"
_symmetry_group_IT_number 120
_symmetry_cell_setting 'tetragonal'
loop_
_space_group_symop_operation_xyz
x,y,z
y,-x,-z
-x,-y,z
-y,x,-z
y,x,1/2-z
-y,-x,1/2-z
-x,y,1/2+z
x,-y,1/2+z
1/2+x,1/2+y,1/2+z
1/2+y,1/2-x,1/2-z
1/2-x,1/2-y,1/2+z
1/2-y,1/2+x,1/2-z
1/2+y,1/2+x,-z
1/2-y,1/2-x,-z
1/2-x,1/2+y,z
1/2+x,1/2-y,z
loop_
_atom_site_type_symbol
_atom_site_label
_atom_site_fract_x
_atom_site_fract_y
_atom_site_fract_z
Si Si1 0.865943 0.937269 0.517194
Si Si2 0.467388 0.810406 0.855953
Si Si3 0.204678 0.655080 0.222808
Si Si4 0.270526 0.229475 0.000000
Si Si5 0.500000 0.000000 0.000000
O O1 0.793572 0.993911 0.594111
O O2 0.798367 0.844343 0.488027
O O3 0.970844 0.895582 0.555772
O O4 0.542846 0.822201 0.763284
O O5 0.361558 0.794536 0.808312
O O6 0.487609 0.902391 0.929700
O O7 0.313926 0.686075 0.250000
O O8 0.182149 0.688382 0.105805
#
# Coordination Sequence:
#
# PCOD9560032 Si02
#       5
#    16  16  16   8   4
#     4  11  25  47  80 114 154 210 269 330 411 482
#     4  12  26  48  74 119 154 204 260 333 397 492
#     4  12  27  46  75 112 153 202 261 322 400 483
#     4  12  24  50  76 110 157 217 256 338 399 481
#     4  12  28  46  88 110 162 204 260 328 398 488
#
# _framework density 24.684173000000001
#
# number of rings (size 3 to 8) (size 9 to 14) (size 15 to 20)
#    0.000    0.267    5.333    3.200    0.000    2.133 
#    0.000    0.000    0.000    0.000    0.000    0.000 
#    0.000    0.000    0.000    0.000    0.000    0.000 
#
# Total GULP energy -167151.121561 kJ/mol
# GULP energy per Si atom -5571.704052 kJ/mol
# Density = 2.462799 g / cm^3
# Si number density = 24.684173 Si / 1000 Ang^3
#
#
#
# Elastic Constant Matrix: (Units=GPa)
#
#
# Indices 1 2 3 4 5 6 
#
# 1 125.0931 31.1302 25.9843 0.0000 0.0000 0.0000
# 2 31.1302 125.0976 25.9829 0.0000 0.0000 0.0000
# 3 25.9843 25.9829 75.1847 0.0000 0.0000 0.0000
# 4 0.0000 0.0000 0.0000 22.6167 0.0000 0.0000
# 5 0.0000 0.0000 0.0000 0.0000 22.6166 0.0000
# 6 0.0000 0.0000 0.0000 0.0000 0.0000 49.1926
#
#
#
# Elastic Compliance Matrix: (Units=1/GPa)
#
#
# Indices 1 2 3 4 5 6 
#
# 1 0.008938 -0.001705 -0.002500 0.000000 0.000000 0.000000
# 2 -0.001705 0.008937 -0.002499 0.000000 0.000000 0.000000
# 3 -0.002500 -0.002499 0.015028 0.000000 0.000000 0.000000
# 4 0.000000 0.000000 0.000000 0.044215 0.000000 0.000000
# 5 0.000000 0.000000 0.000000 0.000000 0.044215 0.000000
# 6 0.000000 0.000000 0.000000 0.000000 0.000000 0.020328
#
#
# Mechanical properties :
#
#
# Convention : Reuss Voigt Hill
#
# Bulk Modulus (GPa) = 51.29502 54.61892 52.95697
# Shear Modulus (GPa) = 30.94675 35.03705 32.99190
#
# Velocity S-wave (km/s) = 3.54462 3.77160 3.65987
# Velocity P-wave (km/s) = 6.13009 6.41418 6.27375
#
# Compressibility (1/GPa) = 0.01949507
#
# Stress axis : x y z
#
# Youngs Moduli (GPa) = 111.88743 111.89275 66.54146
#
# Poissons Ratio (x) = 0.19077 0.16633
# Poissons Ratio (y) = 0.19076 0.16631
# Poissons Ratio (z) = 0.27968 0.27966
#
# Static dielectric constant tensor:
#      x y z
#    x 1.955250 0.000000 0.000000 
#    y 0.000000 1.955240 0.000000 
#    z 0.000000 0.000000 1.941830 
# 
# From -- ./inp_files/3343.got.cif
#   From: 2010.05.17/outbox.cif.g08.bks.cpg/sg120_2_cif.got.tgz:3343.got - 2010.05.20 11:28:13.
