data_PCOD9560174
_publ_section_title
;
Structure prediction by ZEFSAII (Michael W. Deem and Ramdas Pophale) SiO2 
 PCOD9560174
Probable space group: I -4 2 M
;
_chemical_formula_sum "Si O2"
_cell_formula_units_Z 96
_cell_length_a 21.662768
_cell_length_b 21.662768
_cell_length_c 11.782038
_cell_angle_alpha 90.000000
_cell_angle_beta 90.000000
_cell_angle_gamma 90.000000
_cell_volume 5529.021979
_symmetry_space_group_name_H-M "I -4 2 M"
_symmetry_group_IT_number 121
_symmetry_cell_setting 'tetragonal'
loop_
_space_group_symop_operation_xyz
x,y,z
y,-x,-z
-x,-y,z
-y,x,-z
x,-y,-z
-x,y,-z
-y,-x,z
y,x,z
1/2+x,1/2+y,1/2+z
1/2+y,1/2-x,1/2-z
1/2-x,1/2-y,1/2+z
1/2-y,1/2+x,1/2-z
1/2+x,1/2-y,1/2-z
1/2-x,1/2+y,1/2-z
1/2-y,1/2-x,1/2+z
1/2+y,1/2+x,1/2+z
loop_
_atom_site_type_symbol
_atom_site_label
_atom_site_fract_x
_atom_site_fract_y
_atom_site_fract_z
Si Si1 0.778931 0.058751 0.374882
Si Si2 0.352468 0.933873 0.504904
Si Si3 0.427680 0.811165 0.470024
Si Si4 0.851525 0.749740 0.826045
Si Si5 0.621095 0.210489 0.224427
Si Si6 0.578038 0.671236 0.882336
O O1 0.708460 0.059088 0.424534
O O2 0.778714 0.102726 0.267029
O O3 0.818437 0.081273 0.482337
O O4 0.806082 0.990717 0.348993
O O5 0.397658 0.879315 0.470245
O O6 0.328313 0.917286 0.630754
O O7 0.384264 0.000000 0.500000
O O8 0.500000 0.811550 0.500000
O O9 0.390199 0.772610 0.564847
O O10 0.413085 0.787236 0.344263
O O11 0.798530 0.798530 0.856656
O O12 0.819835 0.688731 0.771516
O O13 0.622956 0.278870 0.174195
O O14 0.603277 0.603277 0.854260
#
# Coordination Sequence:
#
# PCOD9560174 Si02
#       6
#    16  16  16  16  16  16
#     4  10  18  36  56  80 117 147 183 237 292 346
#     4  10  19  36  60  79 112 157 193 232 279 341
#     4  11  24  37  56  85 120 155 192 237 287 347
#     4  11  23  37  57  82 112 151 194 242 297 347
#     4  10  20  36  56  83 116 146 189 242 289 340
#     4  10  19  32  58  86 107 145 187 232 293 345
#
# _framework density 17.362926999999999
#
# number of rings (size 3 to 8) (size 9 to 14) (size 15 to 20)
#    0.000    1.667    5.000    2.000    0.000    1.667 
#    0.000    0.000    0.000   10.500    0.000    0.000 
#    0.000    0.000    0.000    0.000    0.000    0.000 
#
# Total GULP energy -267598.829279 kJ/mol
# GULP energy per Si atom -5574.975610 kJ/mol
# Density = 1.732341 g / cm^3
# Si number density = 17.362927 Si / 1000 Ang^3
#
#
#
# Elastic Constant Matrix: (Units=GPa)
#
#
# Indices 1 2 3 4 5 6 
#
# 1 96.8556 73.2478 31.4891 0.0000 0.0000 0.0000
# 2 73.2478 96.8556 31.4891 0.0000 0.0000 0.0000
# 3 31.4891 31.4891 57.5503 0.0000 0.0000 0.0000
# 4 0.0000 0.0000 0.0000 0.8840 0.0000 0.0000
# 5 0.0000 0.0000 0.0000 0.0000 0.8840 0.0000
# 6 0.0000 0.0000 0.0000 0.0000 0.0000 28.9147
#
#
#
# Elastic Compliance Matrix: (Units=1/GPa)
#
#
# Indices 1 2 3 4 5 6 
#
# 1 0.024866 -0.017493 -0.004034 0.000000 0.000000 0.000000
# 2 -0.017493 0.024866 -0.004034 0.000000 0.000000 0.000000
# 3 -0.004034 -0.004034 0.021790 0.000000 0.000000 0.000000
# 4 0.000000 0.000000 0.000000 1.131221 0.000000 0.000000
# 5 0.000000 0.000000 0.000000 0.000000 1.131221 0.000000
# 6 0.000000 0.000000 0.000000 0.000000 0.000000 0.034584
#
#
# Mechanical properties :
#
#
# Convention : Reuss Voigt Hill
#
# Bulk Modulus (GPa) = 49.02035 58.19038 53.60536
# Shear Modulus (GPa) = 2.06061 13.80557 7.93309
#
# Velocity S-wave (km/s) = 1.09058 2.82284 2.13984
# Velocity P-wave (km/s) = 5.46625 6.64917 6.08652
#
# Compressibility (1/GPa) = 0.02039969
#
# Stress axis : x y z
#
# Youngs Moduli (GPa) = 40.21623 40.21623 45.89191
#
# Poissons Ratio (x) = 0.70352 0.18512
# Poissons Ratio (y) = 0.70352 0.18512
# Poissons Ratio (z) = 0.16222 0.16222
#
# Static dielectric constant tensor:
#      x y z
#    x 1.611710 0.000000 0.000000 
#    y 0.000000 1.611710 0.000000 
#    z 0.000000 0.000000 1.584680 
# 
# From -- ./inp_files/3316.got.cif
#   From: 2010.05.17/outbox.cif.g08.bks.cpg/sg121_2_cif.got.tgz:3316.got - 2010.05.20 11:32:06.
