data_PCOD9560908
_publ_section_title
;
Structure prediction by ZEFSAII (Michael W. Deem and Ramdas Pophale) SiO2 
 PCOD9560908
Probable space group: I -4 2 D
;
_chemical_formula_sum "Si O2"
_cell_formula_units_Z 52
_cell_length_a 20.202548
_cell_length_b 20.202548
_cell_length_c 5.070803
_cell_angle_alpha 90.000000
_cell_angle_beta 90.000000
_cell_angle_gamma 90.000000
_cell_volume 2069.612473
_symmetry_space_group_name_H-M "I -4 2 D"
_symmetry_group_IT_number 122
_symmetry_cell_setting 'tetragonal'
loop_
_space_group_symop_operation_xyz
x,y,z
y,-x,-z
-x,-y,z
-y,x,-z
x,1/2-y,1/4-z
-x,1/2+y,1/4-z
-y,1/2-x,1/4+z
y,1/2+x,1/4+z
1/2+x,1/2+y,1/2+z
1/2+y,1/2-x,1/2-z
1/2-x,1/2-y,1/2+z
1/2-y,1/2+x,1/2-z
1/2+x,-y,3/4-z
1/2-x,y,3/4-z
1/2-y,-x,3/4+z
1/2+y,x,3/4+z
loop_
_atom_site_type_symbol
_atom_site_label
_atom_site_fract_x
_atom_site_fract_y
_atom_site_fract_z
Si Si1 0.087066 0.250000 0.625000
Si Si2 0.393077 0.689260 0.285650
Si Si3 0.182578 0.250000 0.125000
Si Si4 0.894190 0.405846 0.961743
Si Si5 0.500000 0.500000 0.000000
O O1 0.135207 0.244519 0.374910
O O2 0.057033 0.322074 0.549161
O O3 0.320156 0.718683 0.366788
O O4 0.408005 0.647016 0.552762
O O5 0.427316 0.750000 0.125000
O O6 0.392982 0.634221 0.060512
O O7 0.951551 0.458469 0.935592
#
# Coordination Sequence:
#
# PCOD9560908 Si02
#       5
#     8  16   8  16   4
#     4   8  16  37  60  94 134 182 239 304 374 448
#     4  10  20  38  66 104 147 189 245 309 387 470
#     4   8  16  29  58  98 138 182 225 290 376 460
#     4  10  23  41  68 100 145 195 253 316 384 472
#     4  12  28  50  72 106 148 214 276 326 400 478
#
# _framework density 25.125478000000001
#
# number of rings (size 3 to 8) (size 9 to 14) (size 15 to 20)
#    0.000    2.462    0.000    0.923    0.000   11.077 
#    2.769    0.000   20.308    0.000    0.000    0.000 
#    0.000    0.000    0.000    0.000    0.000    0.000 
#
# Total GULP energy -144759.325025 kJ/mol
# GULP energy per Si atom -5567.666347 kJ/mol
# Density = 2.506829 g / cm^3
# Si number density = 25.125478 Si / 1000 Ang^3
#
#
#
# Elastic Constant Matrix: (Units=GPa)
#
#
# Indices 1 2 3 4 5 6 
#
# 1 86.1979 65.4921 33.2730 0.0000 0.0000 0.0000
# 2 65.4921 86.1979 33.2730 0.0000 0.0000 0.0000
# 3 33.2730 33.2730 213.1624 0.0000 0.0000 0.0000
# 4 0.0000 0.0000 0.0000 15.9946 0.0000 0.0000
# 5 0.0000 0.0000 0.0000 0.0000 15.9946 0.0000
# 6 0.0000 0.0000 0.0000 0.0000 0.0000 11.8068
#
#
#
# Elastic Compliance Matrix: (Units=1/GPa)
#
#
# Indices 1 2 3 4 5 6 
#
# 1 0.027686 -0.020609 -0.001105 0.000000 0.000000 0.000000
# 2 -0.020609 0.027686 -0.001105 0.000000 0.000000 0.000000
# 3 -0.001105 -0.001105 0.005036 0.000000 0.000000 0.000000
# 4 0.000000 0.000000 0.000000 0.062521 0.000000 0.000000
# 5 0.000000 0.000000 0.000000 0.000000 0.062521 0.000000
# 6 0.000000 0.000000 0.000000 0.000000 0.000000 0.084697
#
#
# Mechanical properties :
#
#
# Convention : Reuss Voigt Hill
#
# Bulk Modulus (GPa) = 67.69807 72.18159 69.93983
# Shear Modulus (GPa) = 15.59045 25.66055 20.62550
#
# Velocity S-wave (km/s) = 2.49369 3.19924 2.86824
# Velocity P-wave (km/s) = 5.94086 6.51442 6.23424
#
# Compressibility (1/GPa) = 0.01477147
#
# Stress axis : x y z
#
# Youngs Moduli (GPa) = 36.11887 36.11887 198.56568
#
# Poissons Ratio (x) = 0.74439 0.21935
# Poissons Ratio (y) = 0.74439 0.21935
# Poissons Ratio (z) = 0.03990 0.03990
#
# Static dielectric constant tensor:
#      x y z
#    x 2.116900 0.000000 0.000000 
#    y 0.000000 2.116900 0.000000 
#    z 0.000000 0.000000 1.912600 
# 
# From -- ./inp_files/888.got.cif
#   From: 2010.05.17/outbox.cif.g08.bks.cpg/sg122_1_cif.got.tgz:888.got - 2010.05.20 11:37:33.
