data_PCOD9560984
_publ_section_title
;
Structure prediction by ZEFSAII (Michael W. Deem and Ramdas Pophale) SiO2 
 PCOD9560984
Probable space group: I -4 2 D
;
_chemical_formula_sum "Si O2"
_cell_formula_units_Z 80
_cell_length_a 11.391607
_cell_length_b 11.391607
_cell_length_c 23.389158
_cell_angle_alpha 90.000000
_cell_angle_beta 90.000000
_cell_angle_gamma 90.000000
_cell_volume 3035.180863
_symmetry_space_group_name_H-M "I -4 2 D"
_symmetry_group_IT_number 122
_symmetry_cell_setting 'tetragonal'
loop_
_space_group_symop_operation_xyz
x,y,z
y,-x,-z
-x,-y,z
-y,x,-z
x,1/2-y,1/4-z
-x,1/2+y,1/4-z
-y,1/2-x,1/4+z
y,1/2+x,1/4+z
1/2+x,1/2+y,1/2+z
1/2+y,1/2-x,1/2-z
1/2-x,1/2-y,1/2+z
1/2-y,1/2+x,1/2-z
1/2+x,-y,3/4-z
1/2-x,y,3/4-z
1/2-y,-x,3/4+z
1/2+y,x,3/4+z
loop_
_atom_site_type_symbol
_atom_site_label
_atom_site_fract_x
_atom_site_fract_y
_atom_site_fract_z
Si Si1 0.786957 0.750000 0.625000
Si Si2 0.526689 0.365768 0.924602
Si Si3 0.503260 0.715401 0.798876
Si Si4 0.085801 0.750000 0.125000
Si Si5 0.625686 0.059732 0.537422
Si Si6 0.656156 0.094657 0.785703
O O1 0.862744 0.835428 0.587457
O O2 0.705601 0.829358 0.666078
O O3 0.500000 0.500000 0.939300
O O4 0.471569 0.327832 0.862135
O O5 0.503057 0.251266 0.963829
O O6 0.417558 0.621117 0.770267
O O7 0.475883 0.852128 0.773094
O O8 0.615701 0.728167 0.755479
O O9 0.149203 0.663263 0.082795
O O10 0.007113 0.672896 0.167395
O O11 0.500000 0.000000 0.557240
#
# Coordination Sequence:
#
# PCOD9560984 Si02
#       6
#     8  16  16   8  16  16
#     4   9  20  43  58  82 126 176 202 268 346 410
#     4  11  24  41  67  94 128 176 227 283 351 413
#     4  10  21  36  60  97 129 169 220 282 342 423
#     4   9  20  37  58  92 124 174 212 282 344 426
#     4  11  22  39  65  93 132 177 227 280 351 426
#     4   9  18  35  58  89 130 165 211 271 350 405
#
# _framework density 26.357571
#
# number of rings (size 3 to 8) (size 9 to 14) (size 15 to 20)
#    0.000    2.000    0.000    5.400    5.600    1.200 
#    3.600    0.000    4.400    0.000    0.000    0.000 
#    0.000    0.000    0.000    0.000    0.000    0.000 
#
# Total GULP energy -222687.069705 kJ/mol
# GULP energy per Si atom -5567.176743 kJ/mol
# Density = 2.629758 g / cm^3
# Si number density = 26.357571 Si / 1000 Ang^3
#
#
#
# Elastic Constant Matrix: (Units=GPa)
#
#
# Indices 1 2 3 4 5 6 
#
# 1 137.7302 77.1439 21.3972 0.0000 0.0000 0.0000
# 2 77.1439 137.7302 21.3972 0.0000 0.0000 0.0000
# 3 21.3972 21.3972 125.9532 0.0000 0.0000 0.0000
# 4 0.0000 0.0000 0.0000 0.8244 0.0000 0.0000
# 5 0.0000 0.0000 0.0000 0.0000 0.8244 0.0000
# 6 0.0000 0.0000 0.0000 0.0000 0.0000 42.7920
#
#
#
# Elastic Compliance Matrix: (Units=1/GPa)
#
#
# Indices 1 2 3 4 5 6 
#
# 1 0.010661 -0.005844 -0.000818 0.000000 0.000000 0.000000
# 2 -0.005844 0.010661 -0.000818 0.000000 0.000000 0.000000
# 3 -0.000818 -0.000818 0.008217 0.000000 0.000000 0.000000
# 4 0.000000 0.000000 0.000000 1.213049 0.000000 0.000000
# 5 0.000000 0.000000 0.000000 0.000000 1.213049 0.000000
# 6 0.000000 0.000000 0.000000 0.000000 0.000000 0.023369
#
#
# Mechanical properties :
#
#
# Convention : Reuss Voigt Hill
#
# Bulk Modulus (GPa) = 68.59647 71.25448 69.92547
# Shear Modulus (GPa) = 2.00094 27.65316 14.82705
#
# Velocity S-wave (km/s) = 0.87224 3.24258 2.37435
# Velocity P-wave (km/s) = 5.20540 6.41183 5.83985
#
# Compressibility (1/GPa) = 0.01457801
#
# Stress axis : x y z
#
# Youngs Moduli (GPa) = 93.79880 93.79880 121.69169
#
# Poissons Ratio (x) = 0.54818 0.09958
# Poissons Ratio (y) = 0.54818 0.09958
# Poissons Ratio (z) = 0.07676 0.07676
#
# Static dielectric constant tensor:
#      x y z
#    x 1.611410 0.000000 0.000000 
#    y 0.000000 1.611410 0.000000 
#    z 0.000000 0.000000 1.981890 
# 
# From -- ./inp_files/9402.got.cif
#   From: 2010.05.17/outbox.cif.g08.bks.cpg/sg122_5_cif.got.tgz:9402.got - 2010.05.20 11:37:33.
