data_PCOD9560361
_publ_section_title
;
Structure prediction by ZEFSAII (Michael W. Deem and Ramdas Pophale) SiO2 
 PCOD9560361
Probable space group: I -4 2 M
;
_chemical_formula_sum "Si O2"
_cell_formula_units_Z 88
_cell_length_a 13.445733
_cell_length_b 13.445733
_cell_length_c 27.202885
_cell_angle_alpha 90.000000
_cell_angle_beta 90.000000
_cell_angle_gamma 90.000000
_cell_volume 4917.947989
_symmetry_space_group_name_H-M "I -4 2 M"
_symmetry_group_IT_number 121
_symmetry_cell_setting 'tetragonal'
loop_
_space_group_symop_operation_xyz
x,y,z
y,-x,-z
-x,-y,z
-y,x,-z
x,-y,-z
-x,y,-z
-y,-x,z
y,x,z
1/2+x,1/2+y,1/2+z
1/2+y,1/2-x,1/2-z
1/2-x,1/2-y,1/2+z
1/2-y,1/2+x,1/2-z
1/2+x,1/2-y,1/2-z
1/2-x,1/2+y,1/2-z
1/2-y,1/2-x,1/2+z
1/2+y,1/2+x,1/2+z
loop_
_atom_site_type_symbol
_atom_site_label
_atom_site_fract_x
_atom_site_fract_y
_atom_site_fract_z
Si Si1 0.773285 0.064033 0.173591
Si Si2 0.500000 0.664016 0.500000
Si Si3 0.885752 0.722452 0.361376
Si Si4 0.766191 0.400175 0.408175
Si Si5 0.881175 0.486109 0.943034
Si Si6 0.335050 0.496859 0.218848
O O1 0.876432 0.123569 0.161052
O O2 0.685569 0.143152 0.165358
O O3 0.749164 0.971044 0.138765
O O4 0.783334 0.029927 0.229815
O O5 0.591416 0.591416 0.486186
O O6 0.534100 0.730406 0.545317
O O7 0.816433 0.816433 0.374550
O O8 0.969002 0.760295 0.323393
O O9 0.933846 0.672753 0.408894
O O10 0.692175 0.307826 0.403748
O O11 0.876841 0.364079 0.420447
O O12 0.000000 0.500000 0.940585
O O13 0.851461 0.500000 0.000000
O O14 0.411302 0.588699 0.227433
O O15 0.403035 0.403035 0.203926
#
# Coordination Sequence:
#
# PCOD9560361 Si02
#       6
#    16   8  16  16  16  16
#     4  10  20  36  59  89 124 159 192 239 302 365
#     4   9  18  32  51  82 122 156 189 234 289 352
#     4  10  22  40  62  85 115 158 200 240 297 354
#     4  11  22  35  57  88 117 154 198 244 294 357
#     4  11  23  41  59  82 117 157 196 243 296 347
#     4   9  19  37  60  86 118 156 199 246 291 344
#
# _framework density 17.893643000000001
#
# number of rings (size 3 to 8) (size 9 to 14) (size 15 to 20)
#    0.000    1.909    1.818    2.182    0.000    4.727 
#    0.000    1.818    0.000    0.000    0.000    1.273 
#    0.000    0.000    0.000    0.000    0.000    0.000 
#
# Total GULP energy -245657.563036 kJ/mol
# GULP energy per Si atom -5583.126433 kJ/mol
# Density = 1.785292 g / cm^3
# Si number density = 17.893643 Si / 1000 Ang^3
#
#
#
# Elastic Constant Matrix: (Units=GPa)
#
#
# Indices 1 2 3 4 5 6 
#
# 1 78.3374 22.3235 57.1987 0.0000 0.0000 0.0000
# 2 22.3235 78.3375 57.1998 0.0000 0.0000 0.0000
# 3 57.1987 57.1998 117.4724 0.0000 0.0000 0.0000
# 4 0.0000 0.0000 0.0000 24.5670 0.0000 0.0000
# 5 0.0000 0.0000 0.0000 0.0000 24.5663 0.0000
# 6 0.0000 0.0000 0.0000 0.0000 0.0000 3.9130
#
#
#
# Elastic Compliance Matrix: (Units=1/GPa)
#
#
# Indices 1 2 3 4 5 6 
#
# 1 0.020048 0.002195 -0.010830 0.000000 0.000000 0.000000
# 2 0.002195 0.020048 -0.010831 0.000000 0.000000 0.000000
# 3 -0.010830 -0.010831 0.019060 0.000000 0.000000 0.000000
# 4 0.000000 0.000000 0.000000 0.040705 0.000000 0.000000
# 5 0.000000 0.000000 0.000000 0.000000 0.040706 0.000000
# 6 0.000000 0.000000 0.000000 0.000000 0.000000 0.255555
#
#
# Mechanical properties :
#
#
# Convention : Reuss Voigt Hill
#
# Bulk Modulus (GPa) = 49.44700 60.84349 55.14524
# Shear Modulus (GPa) = 11.31748 19.77094 15.54421
#
# Velocity S-wave (km/s) = 2.51766 3.32763 2.95057
# Velocity P-wave (km/s) = 6.01209 6.98862 6.51867
#
# Compressibility (1/GPa) = 0.02022367
#
# Stress axis : x y z
#
# Youngs Moduli (GPa) = 49.88137 49.88041 52.46685
#
# Poissons Ratio (x) = -0.10949 0.56823
# Poissons Ratio (y) = -0.10949 0.56825
# Poissons Ratio (z) = 0.54023 0.54023
#
# Static dielectric constant tensor:
#      x y z
#    x 1.615610 0.000000 0.000000 
#    y 0.000000 1.615600 0.000000 
#    z 0.000000 0.000000 1.577140 
# 
# From -- ./inp_files/8236.got.cif
#   From: 2010.05.17/outbox.cif.g08.bks.cpg/sg121_5_cif.got.tgz:8236.got - 2010.05.20 11:32:06.
