data_PCOD9560466
_publ_section_title
;
Structure prediction by ZEFSAII (Michael W. Deem and Ramdas Pophale) SiO2 
 PCOD9560466
Probable space group: I -4 2 M
;
_chemical_formula_sum "Si O2"
_cell_formula_units_Z 64
_cell_length_a 11.231452
_cell_length_b 11.231452
_cell_length_c 22.756527
_cell_angle_alpha 90.000000
_cell_angle_beta 90.000000
_cell_angle_gamma 90.000000
_cell_volume 2870.633796
_symmetry_space_group_name_H-M "I -4 2 M"
_symmetry_group_IT_number 121
_symmetry_cell_setting 'tetragonal'
loop_
_space_group_symop_operation_xyz
x,y,z
y,-x,-z
-x,-y,z
-y,x,-z
x,-y,-z
-x,y,-z
-y,-x,z
y,x,z
1/2+x,1/2+y,1/2+z
1/2+y,1/2-x,1/2-z
1/2-x,1/2-y,1/2+z
1/2-y,1/2+x,1/2-z
1/2+x,1/2-y,1/2-z
1/2-x,1/2+y,1/2-z
1/2-y,1/2-x,1/2+z
1/2+y,1/2+x,1/2+z
loop_
_atom_site_type_symbol
_atom_site_label
_atom_site_fract_x
_atom_site_fract_y
_atom_site_fract_z
Si Si1 0.761148 0.950299 0.637139
Si Si2 0.503721 0.697831 0.732069
Si Si3 0.140326 0.519610 0.379809
Si Si4 0.311611 0.120321 0.461060
O O1 0.889024 0.889024 0.632441
O O2 0.740106 0.981419 0.705350
O O3 0.661691 0.857525 0.614187
O O4 0.748990 0.065735 0.597492
O O5 0.405132 0.594869 0.727619
O O6 0.631898 0.631898 0.732001
O O7 0.488339 0.782626 0.676613
O O8 0.168521 0.437975 0.436290
O O9 0.000000 0.500000 0.368554
O O10 0.222592 0.222592 0.484258
O O11 0.327725 0.000000 0.500000
#
# Coordination Sequence:
#
# PCOD9560466 Si02
#       4
#    16  16  16  16
#     4  10  22  37  59  91 128 170 217 267 322 387
#     4  10  21  38  61  91 131 177 221 266 323 392
#     4  10  23  37  59  89 127 167 214 267 326 387
#     4  11  24  42  65  91 124 168 218 271 331 391
#
# _framework density 22.294726000000001
#
# number of rings (size 3 to 8) (size 9 to 14) (size 15 to 20)
#    0.000    1.750    0.000    3.000    7.000    7.250 
#    0.000    0.000    0.000    0.000    0.000    0.000 
#    0.000   36.000    0.000    0.000    0.000    0.000 
#
# Total GULP energy -178683.681419 kJ/mol
# GULP energy per Si atom -5583.865044 kJ/mol
# Density = 2.224398 g / cm^3
# Si number density = 22.294726 Si / 1000 Ang^3
#
#
#
# Elastic Constant Matrix: (Units=GPa)
#
#
# Indices 1 2 3 4 5 6 
#
# 1 69.4356 31.0597 41.2558 0.0000 0.0000 0.0000
# 2 31.0597 69.4361 41.2560 0.0000 0.0000 0.0000
# 3 41.2558 41.2560 127.7463 0.0000 0.0000 0.0000
# 4 0.0000 0.0000 0.0000 40.0167 0.0000 0.0000
# 5 0.0000 0.0000 0.0000 0.0000 40.0164 0.0000
# 6 0.0000 0.0000 0.0000 0.0000 0.0000 24.8745
#
#
#
# Elastic Compliance Matrix: (Units=1/GPa)
#
#
# Indices 1 2 3 4 5 6 
#
# 1 0.019800 -0.006258 -0.004373 0.000000 0.000000 0.000000
# 2 -0.006258 0.019800 -0.004373 0.000000 0.000000 0.000000
# 3 -0.004373 -0.004373 0.010653 0.000000 0.000000 0.000000
# 4 0.000000 0.000000 0.000000 0.024990 0.000000 0.000000
# 5 0.000000 0.000000 0.000000 0.000000 0.024990 0.000000
# 6 0.000000 0.000000 0.000000 0.000000 0.000000 0.040202
#
#
# Mechanical properties :
#
#
# Convention : Reuss Voigt Hill
#
# Bulk Modulus (GPa) = 49.40098 54.86233 52.13166
# Shear Modulus (GPa) = 28.21834 31.18462 29.70148
#
# Velocity S-wave (km/s) = 3.56152 3.74404 3.65392
# Velocity P-wave (km/s) = 6.25450 6.58419 6.42146
#
# Compressibility (1/GPa) = 0.02024251
#
# Stress axis : x y z
#
# Youngs Moduli (GPa) = 50.50603 50.50627 93.87321
#
# Poissons Ratio (x) = 0.31608 0.41052
# Poissons Ratio (y) = 0.31608 0.41053
# Poissons Ratio (z) = 0.22087 0.22087
#
# Static dielectric constant tensor:
#      x y z
#    x 1.856820 0.000000 0.000000 
#    y 0.000000 1.856820 0.000000 
#    z 0.000000 0.000000 1.842630 
# 
# From -- ./inp_files/6011.got.cif
#   From: 2010.05.17/outbox.cif.g08.bks.cpg/sg121_4_cif.got.tgz:6011.got - 2010.05.20 11:32:06.
