data_PCOD9560441
_publ_section_title
;
Structure prediction by ZEFSAII (Michael W. Deem and Ramdas Pophale) SiO2 
 PCOD9560441
Probable space group: I -4 2 M
;
_chemical_formula_sum "Si O2"
_cell_formula_units_Z 56
_cell_length_a 20.166820
_cell_length_b 20.166820
_cell_length_c 7.166401
_cell_angle_alpha 90.000000
_cell_angle_beta 90.000000
_cell_angle_gamma 90.000000
_cell_volume 2914.579794
_symmetry_space_group_name_H-M "I -4 2 M"
_symmetry_group_IT_number 121
_symmetry_cell_setting 'tetragonal'
loop_
_space_group_symop_operation_xyz
x,y,z
y,-x,-z
-x,-y,z
-y,x,-z
x,-y,-z
-x,y,-z
-y,-x,z
y,x,z
1/2+x,1/2+y,1/2+z
1/2+y,1/2-x,1/2-z
1/2-x,1/2-y,1/2+z
1/2-y,1/2+x,1/2-z
1/2+x,1/2-y,1/2-z
1/2-x,1/2+y,1/2-z
1/2-y,1/2-x,1/2+z
1/2+y,1/2+x,1/2+z
loop_
_atom_site_type_symbol
_atom_site_label
_atom_site_fract_x
_atom_site_fract_y
_atom_site_fract_z
Si Si1 0.783327 0.015253 0.721661
Si Si2 0.345240 0.239200 0.853088
Si Si3 0.261043 0.632409 0.711063
Si Si4 0.000000 0.104790 0.000000
O O1 0.740458 0.082490 0.740573
O O2 0.791301 0.000000 0.500000
O O3 0.759488 0.946381 0.816550
O O4 0.851715 0.027148 0.829470
O O5 0.294503 0.294503 0.771987
O O6 0.303717 0.171460 0.858203
O O7 0.358597 0.258646 0.065969
O O8 0.326811 0.673190 0.647035
O O9 0.941919 0.058082 0.074332
#
# Coordination Sequence:
#
# PCOD9560441 Si02
#       4
#    16  16  16   8
#     4  10  21  37  55  77 109 145 181 223 272 323
#     4   9  18  32  52  77 103 135 176 223 271 319
#     4   9  18  32  52  77 103 135 176 223 271 319
#     4  11  24  36  52  80 110 147 186 218 264 327
#
# _framework density 19.213747000000001
#
# number of rings (size 3 to 8) (size 9 to 14) (size 15 to 20)
#    0.000    2.429    0.000    1.714    4.000    3.429 
#    0.000    1.429    0.000    0.857    0.000    6.000 
#    0.000    0.000    0.000    0.000    0.000    0.000 
#
# Total GULP energy -156071.634675 kJ/mol
# GULP energy per Si atom -5573.986953 kJ/mol
# Density = 1.917002 g / cm^3
# Si number density = 19.213747 Si / 1000 Ang^3
#
#
#
# Elastic Constant Matrix: (Units=GPa)
#
#
# Indices 1 2 3 4 5 6 
#
# 1 114.6623 60.9495 -2.3099 0.0000 0.0000 0.0000
# 2 60.9495 114.6641 -2.3092 0.0000 0.0000 0.0000
# 3 -2.3099 -2.3092 41.8378 0.0000 0.0000 0.0000
# 4 0.0000 0.0000 0.0000 21.3745 0.0000 0.0000
# 5 0.0000 0.0000 0.0000 0.0000 21.3729 0.0000
# 6 0.0000 0.0000 0.0000 0.0000 0.0000 30.1846
#
#
#
# Elastic Compliance Matrix: (Units=1/GPa)
#
#
# Indices 1 2 3 4 5 6 
#
# 1 0.012160 -0.006457 0.000315 0.000000 0.000000 0.000000
# 2 -0.006457 0.012160 0.000315 0.000000 0.000000 0.000000
# 3 0.000315 0.000315 0.023937 0.000000 0.000000 0.000000
# 4 0.000000 0.000000 0.000000 0.046785 0.000000 0.000000
# 5 0.000000 0.000000 0.000000 0.000000 0.046788 0.000000
# 6 0.000000 0.000000 0.000000 0.000000 0.000000 0.033129
#
#
# Mechanical properties :
#
#
# Convention : Reuss Voigt Hill
#
# Bulk Modulus (GPa) = 27.32161 42.64721 34.98441
# Shear Modulus (GPa) = 25.14905 28.90865 27.02885
#
# Velocity S-wave (km/s) = 3.62181 3.88310 3.75473
# Velocity P-wave (km/s) = 5.63389 6.50761 6.08645
#
# Compressibility (1/GPa) = 0.03660106
#
# Stress axis : x y z
#
# Youngs Moduli (GPa) = 82.23666 82.23799 41.77701
#
# Poissons Ratio (x) = 0.53104 -0.01316
# Poissons Ratio (y) = 0.53103 -0.01314
# Poissons Ratio (z) = -0.02590 -0.02587
#
# Static dielectric constant tensor:
#      x y z
#    x 1.688650 0.000000 0.000000 
#    y 0.000000 1.688640 0.000000 
#    z 0.000000 0.000000 1.746100 
# 
# From -- ./inp_files/1323.got.cif
#   From: 2010.05.17/outbox.cif.g08.bks.cpg/sg121_1_cif.got.tgz:1323.got - 2010.05.20 11:32:06.
