data_PCOD9560819
_publ_section_title
;
Structure prediction by ZEFSAII (Michael W. Deem and Ramdas Pophale) SiO2 
 PCOD9560819
Probable space group: I -4 2 D
;
_chemical_formula_sum "Si O2"
_cell_formula_units_Z 60
_cell_length_a 16.466414
_cell_length_b 16.466414
_cell_length_c 12.722343
_cell_angle_alpha 90.000000
_cell_angle_beta 90.000000
_cell_angle_gamma 90.000000
_cell_volume 3449.571577
_symmetry_space_group_name_H-M "I -4 2 D"
_symmetry_group_IT_number 122
_symmetry_cell_setting 'tetragonal'
loop_
_space_group_symop_operation_xyz
x,y,z
y,-x,-z
-x,-y,z
-y,x,-z
x,1/2-y,1/4-z
-x,1/2+y,1/4-z
-y,1/2-x,1/4+z
y,1/2+x,1/4+z
1/2+x,1/2+y,1/2+z
1/2+y,1/2-x,1/2-z
1/2-x,1/2-y,1/2+z
1/2-y,1/2+x,1/2-z
1/2+x,-y,3/4-z
1/2-x,y,3/4-z
1/2-y,-x,3/4+z
1/2+y,x,3/4+z
loop_
_atom_site_type_symbol
_atom_site_label
_atom_site_fract_x
_atom_site_fract_y
_atom_site_fract_z
Si Si1 0.500000 0.000000 0.250000
Si Si2 0.816290 0.723117 0.959543
Si Si3 0.679131 0.477913 0.087743
Si Si4 0.753357 0.643056 0.582367
Si Si5 0.907041 0.750000 0.625000
O O1 0.583137 0.005187 0.181359
O O2 0.750000 0.698386 0.875000
O O3 0.900535 0.697524 0.909911
O O4 0.799359 0.818271 0.987773
O O5 0.793858 0.675408 0.064971
O O6 0.726472 0.550466 0.145322
O O7 0.714096 0.459054 0.970721
O O8 0.842716 0.684820 0.578614
#
# Coordination Sequence:
#
# PCOD9560819 Si02
#       5
#     4  16  16  16   8
#     4  12  24  32  60 112 112 150 204 280 344 320
#     4  10  19  40  59  81 120 163 203 245 310 384
#     4  12  22  37  61  89 128 150 207 269 307 378
#     4  10  22  37  58  88 110 168 211 230 323 369
#     4  10  20  36  58  86 116 160 194 258 322 366
#
# _framework density 17.393464000000002
#
# number of rings (size 3 to 8) (size 9 to 14) (size 15 to 20)
#    0.000    1.600    8.000    0.000    5.600    0.000 
#    4.800    0.000    0.000    4.000    0.000    0.000 
#    0.000    0.000    0.000    0.000    0.000    0.000 
#
# Total GULP energy -167039.790391 kJ/mol
# GULP energy per Si atom -5567.993013 kJ/mol
# Density = 1.735388 g / cm^3
# Si number density = 17.393464 Si / 1000 Ang^3
#
#
#
# Elastic Constant Matrix: (Units=GPa)
#
#
# Indices 1 2 3 4 5 6 
#
# 1 123.8038 34.4833 22.1422 0.0000 0.0000 0.0000
# 2 34.4833 123.8038 22.1422 0.0000 0.0000 0.0000
# 3 22.1422 22.1422 43.6569 0.0000 0.0000 0.0000
# 4 0.0000 0.0000 0.0000 26.8943 0.0000 0.0000
# 5 0.0000 0.0000 0.0000 0.0000 26.8943 0.0000
# 6 0.0000 0.0000 0.0000 0.0000 0.0000 22.9444
#
#
#
# Elastic Compliance Matrix: (Units=1/GPa)
#
#
# Indices 1 2 3 4 5 6 
#
# 1 0.009279 -0.001917 -0.003734 0.000000 0.000000 0.000000
# 2 -0.001917 0.009279 -0.003734 0.000000 0.000000 0.000000
# 3 -0.003734 -0.003734 0.026694 0.000000 0.000000 0.000000
# 4 0.000000 0.000000 0.000000 0.037183 0.000000 0.000000
# 5 0.000000 0.000000 0.000000 0.000000 0.037183 0.000000
# 6 0.000000 0.000000 0.000000 0.000000 0.000000 0.043584
#
#
# Mechanical properties :
#
#
# Convention : Reuss Voigt Hill
#
# Bulk Modulus (GPa) = 37.76152 49.86667 43.81410
# Shear Modulus (GPa) = 26.20581 29.51305 27.85943
#
# Velocity S-wave (km/s) = 3.88577 4.12368 4.00649
# Velocity P-wave (km/s) = 6.47221 7.16973 6.82988
#
# Compressibility (1/GPa) = 0.02648198
#
# Stress axis : x y z
#
# Youngs Moduli (GPa) = 107.77047 107.77047 37.46209
#
# Poissons Ratio (x) = 0.20656 0.13989
# Poissons Ratio (y) = 0.20656 0.13989
# Poissons Ratio (z) = 0.40242 0.40242
#
# Static dielectric constant tensor:
#      x y z
#    x 1.589340 0.000000 0.000000 
#    y 0.000000 1.589340 0.000000 
#    z 0.000000 0.000000 1.590760 
# 
# From -- ./inp_files/5185.got.cif
#   From: 2010.05.17/outbox.cif.g08.bks.cpg/sg122_3_cif.got.tgz:5185.got - 2010.05.20 11:37:33.
