data_PCOD9560822
_publ_section_title
;
Structure prediction by ZEFSAII (Michael W. Deem and Ramdas Pophale) SiO2 
 PCOD9560822
Probable space group: I -4 2 D
;
_chemical_formula_sum "Si O2"
_cell_formula_units_Z 88
_cell_length_a 12.973454
_cell_length_b 12.973454
_cell_length_c 25.777805
_cell_angle_alpha 90.000000
_cell_angle_beta 90.000000
_cell_angle_gamma 90.000000
_cell_volume 4338.675472
_symmetry_space_group_name_H-M "I -4 2 D"
_symmetry_group_IT_number 122
_symmetry_cell_setting 'tetragonal'
loop_
_space_group_symop_operation_xyz
x,y,z
y,-x,-z
-x,-y,z
-y,x,-z
x,1/2-y,1/4-z
-x,1/2+y,1/4-z
-y,1/2-x,1/4+z
y,1/2+x,1/4+z
1/2+x,1/2+y,1/2+z
1/2+y,1/2-x,1/2-z
1/2-x,1/2-y,1/2+z
1/2-y,1/2+x,1/2-z
1/2+x,-y,3/4-z
1/2-x,y,3/4-z
1/2-y,-x,3/4+z
1/2+y,x,3/4+z
loop_
_atom_site_type_symbol
_atom_site_label
_atom_site_fract_x
_atom_site_fract_y
_atom_site_fract_z
Si Si1 0.924644 0.245305 0.968706
Si Si2 0.583723 0.288700 0.268435
Si Si3 0.568575 0.903871 0.417728
Si Si4 0.750000 0.794019 0.375000
Si Si5 0.734036 0.422855 0.434188
Si Si6 0.352314 0.250823 0.974005
O O1 0.835284 0.325587 0.983698
O O2 0.989584 0.226608 0.021516
O O3 0.867241 0.147693 0.943798
O O4 0.000817 0.303608 0.930116
O O5 0.569653 0.366325 0.219627
O O6 0.666077 0.350059 0.303765
O O7 0.471602 0.261608 0.290430
O O8 0.640987 0.185991 0.247802
O O9 0.652211 0.868283 0.376880
O O10 0.500000 0.000000 0.402501
O O11 0.728060 0.730805 0.323251
O O12 0.750000 0.459172 0.375000
#
# Coordination Sequence:
#
# PCOD9560822 Si02
#       6
#    16  16  16   8  16  16
#     4  10  22  42  65  87 132 164 215 275 321 408
#     4   9  20  38  61  87 121 160 208 250 321 389
#     4  10  19  41  61  83 124 167 196 256 322 371
#     4  10  24  36  58  96 120 148 216 258 310 376
#     4  10  23  41  63  97 125 172 221 273 339 402
#     4  10  20  40  61  87 121 163 198 263 315 384
#
# _framework density 20.282686999999999
#
# number of rings (size 3 to 8) (size 9 to 14) (size 15 to 20)
#    0.000    2.182    1.818    1.091    3.818    0.727 
#    8.182    1.818    0.000    0.000    0.000    0.000 
#    0.000    0.000    0.000    0.000    0.000    0.000 
#
# Total GULP energy -245314.235708 kJ/mol
# GULP energy per Si atom -5575.323539 kJ/mol
# Density = 2.023652 g / cm^3
# Si number density = 20.282687 Si / 1000 Ang^3
#
#
#
# Elastic Constant Matrix: (Units=GPa)
#
#
# Indices 1 2 3 4 5 6 
#
# 1 95.4655 34.2457 2.9683 0.0000 0.0000 0.0000
# 2 34.2457 95.4655 2.9683 0.0000 0.0000 0.0000
# 3 2.9683 2.9683 38.0956 0.0000 0.0000 0.0000
# 4 0.0000 0.0000 0.0000 16.4180 0.0000 0.0000
# 5 0.0000 0.0000 0.0000 0.0000 16.4180 0.0000
# 6 0.0000 0.0000 0.0000 0.0000 0.0000 11.6984
#
#
#
# Elastic Compliance Matrix: (Units=1/GPa)
#
#
# Indices 1 2 3 4 5 6 
#
# 1 0.012036 -0.004299 -0.000603 0.000000 0.000000 0.000000
# 2 -0.004299 0.012036 -0.000603 0.000000 0.000000 0.000000
# 3 -0.000603 -0.000603 0.026344 0.000000 0.000000 0.000000
# 4 0.000000 0.000000 0.000000 0.060909 0.000000 0.000000
# 5 0.000000 0.000000 0.000000 0.000000 0.060909 0.000000
# 6 0.000000 0.000000 0.000000 0.000000 0.000000 0.085482
#
#
# Mechanical properties :
#
#
# Convention : Reuss Voigt Hill
#
# Bulk Modulus (GPa) = 25.37659 34.37678 29.87668
# Shear Modulus (GPa) = 17.73937 21.49651 19.61794
#
# Velocity S-wave (km/s) = 2.96058 3.25906 3.11340
# Velocity P-wave (km/s) = 4.92193 5.58100 5.26179
#
# Compressibility (1/GPa) = 0.03940640
#
# Stress axis : x y z
#
# Youngs Moduli (GPa) = 83.08538 83.08538 37.95974
#
# Poissons Ratio (x) = 0.35717 0.02288
# Poissons Ratio (y) = 0.35717 0.02288
# Poissons Ratio (z) = 0.05009 0.05009
#
# Static dielectric constant tensor:
#      x y z
#    x 1.720580 0.000000 0.000000 
#    y 0.000000 1.720580 0.000000 
#    z 0.000000 0.000000 1.787530 
# 
# From -- ./inp_files/9502.got.cif
#   From: 2010.05.17/outbox.cif.g08.bks.cpg/sg122_5_cif.got.tgz:9502.got - 2010.05.20 11:37:33.
