data_PCOD9560066
_publ_section_title
;
Structure prediction by ZEFSAII (Michael W. Deem and Ramdas Pophale) SiO2 
 PCOD9560066
Probable space group: I -4 C 2
;
_chemical_formula_sum "Si O2"
_cell_formula_units_Z 60
_cell_length_a 16.388267
_cell_length_b 16.388267
_cell_length_c 8.805928
_cell_angle_alpha 90.000000
_cell_angle_beta 90.000000
_cell_angle_gamma 90.000000
_cell_volume 2365.054713
_symmetry_space_group_name_H-M "I -4 C 2"
_symmetry_group_IT_number 120
_symmetry_cell_setting 'tetragonal'
loop_
_space_group_symop_operation_xyz
x,y,z
y,-x,-z
-x,-y,z
-y,x,-z
y,x,1/2-z
-y,-x,1/2-z
-x,y,1/2+z
x,-y,1/2+z
1/2+x,1/2+y,1/2+z
1/2+y,1/2-x,1/2-z
1/2-x,1/2-y,1/2+z
1/2-y,1/2+x,1/2-z
1/2+y,1/2+x,-z
1/2-y,1/2-x,-z
1/2-x,1/2+y,z
1/2+x,1/2-y,z
loop_
_atom_site_type_symbol
_atom_site_label
_atom_site_fract_x
_atom_site_fract_y
_atom_site_fract_z
Si Si1 0.500000 0.500000 0.000000
Si Si2 0.924443 0.158375 0.613037
Si Si3 0.923370 0.423370 0.000000
Si Si4 0.844777 0.251799 0.368423
Si Si5 0.172802 0.507701 0.264525
O O1 0.582920 0.514483 0.906335
O O2 0.865114 0.134887 0.750000
O O3 0.880645 0.172387 0.452554
O O4 0.962498 0.245785 0.652670
O O5 0.850039 0.436403 0.120298
O O6 0.997456 0.402949 0.117461
O O7 0.777953 0.222048 0.250000
O O8 0.804403 0.304403 0.500000
O O9 0.918115 0.302329 0.294684
#
# Coordination Sequence:
#
# PCOD9560066 Si02
#       5
#     4  16   8  16  16
#     4  12  26  48  84 118 162 212 276 358 402 512
#     4  12  26  50  78 121 160 214 273 342 419 491
#     4  12  30  53  84 116 170 218 280 347 412 492
#     4  12  27  48  77 117 163 217 271 339 416 497
#     4  12  28  53  81 120 168 221 280 347 416 505
#
# _framework density 25.369391
#
# number of rings (size 3 to 8) (size 9 to 14) (size 15 to 20)
#    0.000    0.000    2.667    6.000    5.600    1.600 
#    0.000    0.000    0.000    0.000    0.000    0.000 
#    0.000    0.000    0.000    0.000    0.000    0.000 
#
# Total GULP energy -167967.830715 kJ/mol
# GULP energy per Si atom -5598.927691 kJ/mol
# Density = 2.531165 g / cm^3
# Si number density = 25.369391 Si / 1000 Ang^3
#
#
#
# Elastic Constant Matrix: (Units=GPa)
#
#
# Indices 1 2 3 4 5 6 
#
# 1 127.2890 68.6866 59.5405 0.0000 0.0000 0.0000
# 2 68.6866 127.2847 59.5392 0.0000 0.0000 0.0000
# 3 59.5405 59.5392 131.2745 0.0000 0.0000 0.0000
# 4 0.0000 0.0000 0.0000 48.0381 0.0000 0.0000
# 5 0.0000 0.0000 0.0000 0.0000 48.0398 0.0000
# 6 0.0000 0.0000 0.0000 0.0000 0.0000 50.1662
#
#
#
# Elastic Compliance Matrix: (Units=1/GPa)
#
#
# Indices 1 2 3 4 5 6 
#
# 1 0.012054 -0.005010 -0.003195 0.000000 0.000000 0.000000
# 2 -0.005010 0.012055 -0.003195 0.000000 0.000000 0.000000
# 3 -0.003195 -0.003195 0.010516 0.000000 0.000000 0.000000
# 4 0.000000 0.000000 0.000000 0.020817 0.000000 0.000000
# 5 0.000000 0.000000 0.000000 0.000000 0.020816 0.000000
# 6 0.000000 0.000000 0.000000 0.000000 0.000000 0.019934
#
#
# Mechanical properties :
#
#
# Convention : Reuss Voigt Hill
#
# Bulk Modulus (GPa) = 84.57102 84.59786 84.58444
# Shear Modulus (GPa) = 40.67270 42.45429 41.56349
#
# Velocity S-wave (km/s) = 4.00837 4.09521 4.05202
# Velocity P-wave (km/s) = 7.40479 7.46859 7.43676
#
# Compressibility (1/GPa) = 0.01182438
#
# Stress axis : x y z
#
# Youngs Moduli (GPa) = 82.95854 82.95603 95.09620
#
# Poissons Ratio (x) = 0.41564 0.30382
# Poissons Ratio (y) = 0.41565 0.30382
# Poissons Ratio (z) = 0.26504 0.26503
#
# Static dielectric constant tensor:
#      x y z
#    x 2.046470 0.000000 0.000000 
#    y 0.000000 2.046490 0.000000 
#    z 0.000000 0.000000 1.984800 
# 
# From -- ./inp_files/1102.got.cif
#   From: 2010.05.17/outbox.cif.g08.bks.cpg/sg120_1_cif.got.tgz:1102.got - 2010.05.20 11:28:13.
