data_PCOD9560122
_publ_section_title
;
Structure prediction by ZEFSAII (Michael W. Deem and Ramdas Pophale) SiO2 
 PCOD9560122
Probable space group: I -4 2 M
;
_chemical_formula_sum "Si O2"
_cell_formula_units_Z 96
_cell_length_a 16.692139
_cell_length_b 16.692139
_cell_length_c 19.816954
_cell_angle_alpha 90.000000
_cell_angle_beta 90.000000
_cell_angle_gamma 90.000000
_cell_volume 5521.548438
_symmetry_space_group_name_H-M "I -4 2 M"
_symmetry_group_IT_number 121
_symmetry_cell_setting 'tetragonal'
loop_
_space_group_symop_operation_xyz
x,y,z
y,-x,-z
-x,-y,z
-y,x,-z
x,-y,-z
-x,y,-z
-y,-x,z
y,x,z
1/2+x,1/2+y,1/2+z
1/2+y,1/2-x,1/2-z
1/2-x,1/2-y,1/2+z
1/2-y,1/2+x,1/2-z
1/2+x,1/2-y,1/2-z
1/2-x,1/2+y,1/2-z
1/2-y,1/2-x,1/2+z
1/2+y,1/2+x,1/2+z
loop_
_atom_site_type_symbol
_atom_site_label
_atom_site_fract_x
_atom_site_fract_y
_atom_site_fract_z
Si Si1 0.945866 0.816169 0.372172
Si Si2 0.737597 0.399663 0.655143
Si Si3 0.330613 0.196636 0.941149
Si Si4 0.191066 0.328322 0.213184
Si Si5 0.108801 0.754365 0.423233
Si Si6 0.194947 0.938547 0.784626
O O1 0.895927 0.895927 0.390896
O O2 0.884509 0.743013 0.385813
O O3 0.965939 0.820322 0.292777
O O4 0.024030 0.798370 0.415607
O O5 0.666625 0.333376 0.654007
O O6 0.794257 0.383512 0.590698
O O7 0.791223 0.381562 0.721472
O O8 0.700453 0.486733 0.665617
O O9 0.254279 0.254279 0.952846
O O10 0.379803 0.199900 0.010528
O O11 0.260252 0.260252 0.214077
O O12 0.203212 0.376903 0.144365
O O13 0.109212 0.278790 0.214732
O O14 0.176634 0.823367 0.425681
O O15 0.124724 0.875277 0.801575
#
# Coordination Sequence:
#
# PCOD9560122 Si02
#       6
#    16  16  16  16  16  16
#     4  10  18  29  48  76 109 140 171 214 272 330
#     4  10  18  32  53  74 101 140 182 225 268 320
#     4   9  18  32  49  70  99 140 183 215 257 319
#     4   9  17  31  49  71 100 136 178 218 260 317
#     4  10  19  31  49  74 104 141 183 225 265 318
#     4  10  19  31  51  79 108 136 171 223 279 326
#
# _framework density 17.386427999999999
#
# number of rings (size 3 to 8) (size 9 to 14) (size 15 to 20)
#    0.000    2.333    3.333    0.500    0.000    0.667 
#    0.000    2.500    0.000    6.500    0.000    2.333 
#    0.000    6.667    0.000    0.000    0.000    0.333 
#
# Total GULP energy -267419.501716 kJ/mol
# GULP energy per Si atom -5571.239619 kJ/mol
# Density = 1.734686 g / cm^3
# Si number density = 17.386428 Si / 1000 Ang^3
#
#
#
# Elastic Constant Matrix: (Units=GPa)
#
#
# Indices 1 2 3 4 5 6 
#
# 1 33.7888 64.6928 38.0846 0.0000 0.0000 0.0000
# 2 64.6928 33.7753 38.0840 0.0000 0.0000 0.0000
# 3 38.0846 38.0840 75.8113 0.0000 0.0000 0.0000
# 4 0.0000 0.0000 0.0000 24.0850 0.0000 0.0000
# 5 0.0000 0.0000 0.0000 0.0000 24.0854 0.0000
# 6 0.0000 0.0000 0.0000 0.0000 0.0000 17.6980
#
#
#
# Elastic Compliance Matrix: (Units=1/GPa)
#
#
# Indices 1 2 3 4 5 6 
#
# 1 -0.007868 0.024480 -0.008345 0.000000 0.000000 0.000000
# 2 0.024480 -0.007875 -0.008342 0.000000 0.000000 0.000000
# 3 -0.008345 -0.008342 0.021573 0.000000 0.000000 0.000000
# 4 0.000000 0.000000 0.000000 0.041520 0.000000 0.000000
# 5 0.000000 0.000000 0.000000 0.000000 0.041519 0.000000
# 6 0.000000 0.000000 0.000000 0.000000 0.000000 0.056503
#
#
# Mechanical properties :
#
#
# Convention : Reuss Voigt Hill
#
# Bulk Modulus (GPa) = 46.69259 47.23314 46.96286
# Shear Modulus (GPa) = 36.51639 13.34128 24.92884
#
# Velocity S-wave (km/s) = 4.58785 2.77309 3.79068
# Velocity P-wave (km/s) = 7.41476 6.12201 6.79918
#
# Compressibility (1/GPa) = 0.02141668
#
# Stress axis : x y z
#
# Youngs Moduli (GPa) = -127.09757 -126.98501 46.35374
#
# Poissons Ratio (x) = 3.10856 0.38682
# Poissons Ratio (y) = 3.11131 0.38667
# Poissons Ratio (z) = -1.06062 -1.05926
#
# Static dielectric constant tensor:
#      x y z
#    x 1.588140 0.000000 0.000000 
#    y 0.000000 1.588140 0.000000 
#    z 0.000000 0.000000 1.625380 
# 
# From -- ./inp_files/5385.got.cif
#   From: 2010.05.17/outbox.cif.g08.bks.cpg/sg121_3_cif.got.tgz:5385.got - 2010.05.20 11:32:06.
