data_PCOD9560753
_publ_section_title
;
Structure prediction by ZEFSAII (Michael W. Deem and Ramdas Pophale) SiO2 
 PCOD9560753
Probable space group: I -4 2 D
;
_chemical_formula_sum "Si O2"
_cell_formula_units_Z 96
_cell_length_a 16.559687
_cell_length_b 16.559687
_cell_length_c 17.398559
_cell_angle_alpha 90.000000
_cell_angle_beta 90.000000
_cell_angle_gamma 90.000000
_cell_volume 4771.089108
_symmetry_space_group_name_H-M "I -4 2 D"
_symmetry_group_IT_number 122
_symmetry_cell_setting 'tetragonal'
loop_
_space_group_symop_operation_xyz
x,y,z
y,-x,-z
-x,-y,z
-y,x,-z
x,1/2-y,1/4-z
-x,1/2+y,1/4-z
-y,1/2-x,1/4+z
y,1/2+x,1/4+z
1/2+x,1/2+y,1/2+z
1/2+y,1/2-x,1/2-z
1/2-x,1/2-y,1/2+z
1/2-y,1/2+x,1/2-z
1/2+x,-y,3/4-z
1/2-x,y,3/4-z
1/2-y,-x,3/4+z
1/2+y,x,3/4+z
loop_
_atom_site_type_symbol
_atom_site_label
_atom_site_fract_x
_atom_site_fract_y
_atom_site_fract_z
Si Si1 0.994228 0.330284 0.174182
Si Si2 0.831300 0.500944 0.826591
Si Si3 0.917661 0.542471 0.563108
Si Si4 0.330177 0.915415 0.163333
Si Si5 0.894540 0.849531 0.826511
Si Si6 0.029864 0.904185 0.910427
O O1 0.000092 0.250000 0.125000
O O2 0.908105 0.363541 0.143379
O O3 0.988590 0.348731 0.265417
O O4 0.075695 0.377381 0.150803
O O5 0.750000 0.486503 0.875000
O O6 0.904519 0.452062 0.866624
O O7 0.854558 0.595053 0.828683
O O8 0.824626 0.469221 0.740323
O O9 0.855654 0.474947 0.593471
O O10 0.877381 0.603968 0.502602
O O11 0.000000 0.500000 0.530510
O O12 0.242832 0.873136 0.159990
O O13 0.990983 0.859110 0.838672
O O14 0.000000 0.000000 0.917747
#
# Coordination Sequence:
#
# PCOD9560753 Si02
#       6
#    16  16  16  16  16  16
#     4  11  21  36  65  88 116 165 202 246 313 366
#     4  11  21  40  61  88 125 164 202 254 316 364
#     4  10  21  35  61  92 112 152 212 250 291 371
#     4  11  23  37  63  91 124 161 208 256 307 371
#     4  11  22  38  61  90 120 155 204 256 304 361
#     4  10  18  41  61  84 123 159 201 257 303 356
#
# _framework density 20.121192000000001
#
# number of rings (size 3 to 8) (size 9 to 14) (size 15 to 20)
#    0.000    1.333    6.667    1.500    2.333    0.667 
#    0.000    0.000    3.667    1.000    0.000    0.000 
#    0.000    0.000    0.000    0.000    0.000    0.000 
#
# Total GULP energy -267242.747852 kJ/mol
# GULP energy per Si atom -5567.557247 kJ/mol
# Density = 2.007540 g / cm^3
# Si number density = 20.121192 Si / 1000 Ang^3
#
#
#
# Elastic Constant Matrix: (Units=GPa)
#
#
# Indices 1 2 3 4 5 6 
#
# 1 36.6270 -9.1547 -0.7945 0.0000 0.0000 0.0000
# 2 -9.1547 36.6270 -0.7945 0.0000 0.0000 0.0000
# 3 -0.7945 -0.7945 55.5892 0.0000 0.0000 0.0000
# 4 0.0000 0.0000 0.0000 23.7507 0.0000 0.0000
# 5 0.0000 0.0000 0.0000 0.0000 23.7507 0.0000
# 6 0.0000 0.0000 0.0000 0.0000 0.0000 12.8479
#
#
#
# Elastic Compliance Matrix: (Units=1/GPa)
#
#
# Indices 1 2 3 4 5 6 
#
# 1 0.029137 0.007294 0.000521 0.000000 0.000000 0.000000
# 2 0.007294 0.029137 0.000521 0.000000 0.000000 0.000000
# 3 0.000521 0.000521 0.018004 0.000000 0.000000 0.000000
# 4 0.000000 0.000000 0.000000 0.042104 0.000000 0.000000
# 5 0.000000 0.000000 0.000000 0.000000 0.042104 0.000000
# 6 0.000000 0.000000 0.000000 0.000000 0.000000 0.077834
#
#
# Mechanical properties :
#
#
# Convention : Reuss Voigt Hill
#
# Bulk Modulus (GPa) = 10.75877 11.92842 11.34360
# Shear Modulus (GPa) = 19.79173 21.37567 20.58370
#
# Velocity S-wave (km/s) = 3.13968 3.26290 3.20189
# Velocity P-wave (km/s) = 4.30140 4.48737 4.39537
#
# Compressibility (1/GPa) = 0.09294745
#
# Stress axis : x y z
#
# Youngs Moduli (GPa) = 34.32115 34.32114 55.54327
#
# Poissons Ratio (x) = -0.25033 -0.02892
# Poissons Ratio (y) = -0.25033 -0.02892
# Poissons Ratio (z) = -0.01787 -0.01787
#
# Static dielectric constant tensor:
#      x y z
#    x 1.799440 0.000000 0.000000 
#    y 0.000000 1.799440 0.000000 
#    z 0.000000 0.000000 1.754380 
# 
# From -- ./inp_files/6284.got.cif
#   From: 2010.05.17/outbox.cif.g08.bks.cpg/sg122_4_cif.got.tgz:6284.got - 2010.05.20 11:37:33.
