data_PCOD9560763
_publ_section_title
;
Structure prediction by ZEFSAII (Michael W. Deem and Ramdas Pophale) SiO2 
 PCOD9560763
Probable space group: I -4 2 D
;
_chemical_formula_sum "Si O2"
_cell_formula_units_Z 88
_cell_length_a 18.966358
_cell_length_b 18.966358
_cell_length_c 11.628790
_cell_angle_alpha 90.000000
_cell_angle_beta 90.000000
_cell_angle_gamma 90.000000
_cell_volume 4183.140153
_symmetry_space_group_name_H-M "I -4 2 D"
_symmetry_group_IT_number 122
_symmetry_cell_setting 'tetragonal'
loop_
_space_group_symop_operation_xyz
x,y,z
y,-x,-z
-x,-y,z
-y,x,-z
x,1/2-y,1/4-z
-x,1/2+y,1/4-z
-y,1/2-x,1/4+z
y,1/2+x,1/4+z
1/2+x,1/2+y,1/2+z
1/2+y,1/2-x,1/2-z
1/2-x,1/2-y,1/2+z
1/2-y,1/2+x,1/2-z
1/2+x,-y,3/4-z
1/2-x,y,3/4-z
1/2-y,-x,3/4+z
1/2+y,x,3/4+z
loop_
_atom_site_type_symbol
_atom_site_label
_atom_site_fract_x
_atom_site_fract_y
_atom_site_fract_z
Si Si1 0.354718 0.039193 0.523551
Si Si2 0.250000 0.544204 0.375000
Si Si3 0.000000 0.000000 0.180980
Si Si4 0.366715 0.437544 0.456928
Si Si5 0.811605 0.161268 0.710110
Si Si6 0.619605 0.694736 0.293944
Si Si7 0.780243 0.750000 0.625000
O O1 0.364732 0.067387 0.655581
O O2 0.326844 0.105023 0.452263
O O3 0.435269 0.023596 0.491004
O O4 0.314628 0.964140 0.522403
O O5 0.305263 0.493021 0.434571
O O6 0.206779 0.594081 0.459931
O O7 0.969901 0.062948 0.101123
O O8 0.358703 0.363422 0.390351
O O9 0.770444 0.140219 0.595469
O O10 0.778415 0.227865 0.776237
O O11 0.668666 0.690786 0.181242
#
# Coordination Sequence:
#
# PCOD9560763 Si02
#       7
#    16   8   8  16  16  16   8
#     4  11  21  38  63  94 130 170 213 274 338 399
#     4  11  20  32  60  97 132 158 212 265 340 392
#     4  10  19  32  52  90 131 158 203 264 336 394
#     4  11  20  33  61  93 131 167 209 278 333 397
#     4  11  23  41  63  96 126 170 217 271 326 398
#     4  11  25  43  64  94 133 173 223 275 339 404
#     4  11  26  44  62  93 132 170 222 271 328 406
#
# _framework density 21.036829000000001
#
# number of rings (size 3 to 8) (size 9 to 14) (size 15 to 20)
#    0.000    1.091    3.636    5.455    5.091    0.000 
#    3.273    0.000    0.000    0.000    0.000    1.273 
#    0.000    0.000    0.000    0.000    0.000    0.000 
#
# Total GULP energy -245708.312705 kJ/mol
# GULP energy per Si atom -5584.279834 kJ/mol
# Density = 2.098895 g / cm^3
# Si number density = 21.036829 Si / 1000 Ang^3
#
#
#
# Elastic Constant Matrix: (Units=GPa)
#
#
# Indices 1 2 3 4 5 6 
#
# 1 119.2713 50.5677 21.8988 0.0000 0.0000 0.0000
# 2 50.5677 119.2713 21.8988 0.0000 0.0000 0.0000
# 3 21.8988 21.8988 21.7512 0.0000 0.0000 0.0000
# 4 0.0000 0.0000 0.0000 24.9750 0.0000 0.0000
# 5 0.0000 0.0000 0.0000 0.0000 24.9750 0.0000
# 6 0.0000 0.0000 0.0000 0.0000 0.0000 21.6391
#
#
#
# Elastic Compliance Matrix: (Units=1/GPa)
#
#
# Indices 1 2 3 4 5 6 
#
# 1 0.011254 -0.003301 -0.008007 0.000000 0.000000 0.000000
# 2 -0.003301 0.011254 -0.008007 0.000000 0.000000 0.000000
# 3 -0.008007 -0.008007 0.062096 0.000000 0.000000 0.000000
# 4 0.000000 0.000000 0.000000 0.040040 0.000000 0.000000
# 5 0.000000 0.000000 0.000000 0.000000 0.040040 0.000000
# 6 0.000000 0.000000 0.000000 0.000000 0.000000 0.046213
#
#
# Mechanical properties :
#
#
# Convention : Reuss Voigt Hill
#
# Bulk Modulus (GPa) = 21.75088 49.89161 35.82125
# Shear Modulus (GPa) = 18.87853 25.37971 22.12912
#
# Velocity S-wave (km/s) = 2.99892 3.47716 3.24685
# Velocity P-wave (km/s) = 4.72792 6.31574 5.57861
#
# Compressibility (1/GPa) = 0.04597514
#
# Stress axis : x y z
#
# Youngs Moduli (GPa) = 88.85760 88.85760 16.10403
#
# Poissons Ratio (x) = 0.29335 0.12894
# Poissons Ratio (y) = 0.29335 0.12894
# Poissons Ratio (z) = 0.71145 0.71145
#
# Static dielectric constant tensor:
#      x y z
#    x 1.839860 0.000000 0.000000 
#    y 0.000000 1.839860 0.000000 
#    z 0.000000 0.000000 1.809930 
# 
# From -- ./inp_files/5412.got.cif
#   From: 2010.05.17/outbox.cif.g08.bks.cpg/sg122_3_cif.got.tgz:5412.got - 2010.05.20 11:37:33.
