data_PCOD9560091
_publ_section_title
;
Structure prediction by ZEFSAII (Michael W. Deem and Ramdas Pophale) SiO2 
 PCOD9560091
Probable space group: I -4 2 M
;
_chemical_formula_sum "Si O2"
_cell_formula_units_Z 128
_cell_length_a 18.001806
_cell_length_b 18.001806
_cell_length_c 26.325836
_cell_angle_alpha 90.000000
_cell_angle_beta 90.000000
_cell_angle_gamma 90.000000
_cell_volume 8531.282550
_symmetry_space_group_name_H-M "I -4 2 M"
_symmetry_group_IT_number 121
_symmetry_cell_setting 'tetragonal'
loop_
_space_group_symop_operation_xyz
x,y,z
y,-x,-z
-x,-y,z
-y,x,-z
x,-y,-z
-x,y,-z
-y,-x,z
y,x,z
1/2+x,1/2+y,1/2+z
1/2+y,1/2-x,1/2-z
1/2-x,1/2-y,1/2+z
1/2-y,1/2+x,1/2-z
1/2+x,1/2-y,1/2-z
1/2-x,1/2+y,1/2-z
1/2-y,1/2-x,1/2+z
1/2+y,1/2+x,1/2+z
loop_
_atom_site_type_symbol
_atom_site_label
_atom_site_fract_x
_atom_site_fract_y
_atom_site_fract_z
Si Si1 0.290554 0.587621 0.710049
Si Si2 0.731445 0.849812 0.104660
Si Si3 0.587628 0.705625 0.500000
Si Si4 0.586626 0.084869 0.639384
Si Si5 0.132052 0.632048 0.750000
Si Si6 0.209451 0.087624 0.210049
Si Si7 0.584867 0.086630 0.860617
Si Si8 0.268552 0.849815 0.104661
O O1 0.362390 0.637611 0.721534
O O2 0.219422 0.615732 0.742256
O O3 0.301287 0.499998 0.717432
O O4 0.267970 0.603947 0.651284
O O5 0.768015 0.768015 0.108559
O O6 0.767964 0.896049 0.151284
O O7 0.644018 0.859589 0.112870
O O8 0.754416 0.883059 0.050671
O O9 0.500000 0.703428 0.500000
O O10 0.624353 0.624353 0.500001
O O11 0.616940 0.745583 0.449329
O O12 0.601266 0.093191 0.699554
O O13 0.499998 0.104556 0.629640
O O14 0.640407 0.144022 0.612872
O O15 0.598520 0.000002 0.623934
O O16 0.115733 0.719418 0.757743
O O17 0.101272 0.593188 0.800447
O O18 0.137616 0.137616 0.221533
O O19 0.231983 0.768018 0.108561
#
# Coordination Sequence:
#
# PCOD9560091 Si02
#       8
#    16  16  16  16  16  16  16  16
#     4  10  19  30  44  62  84 110 140 173 208 247
#     4   9  18  31  45  61  83 112 143 172 206 250
#     4  10  18  29  45  61  81 111 144 178 212 244
#     4  10  18  28  44  66  89 110 136 173 212 248
#     4  10  17  29  44  62  86 111 141 170 204 248
#     4  10  19  30  44  62  84 110 140 173 208 247
#     4  10  18  28  44  66  89 110 136 173 212 248
#     4   9  18  31  45  61  83 112 143 172 206 250
#
# _framework density 15.003606
#
# number of rings (size 3 to 8) (size 9 to 14) (size 15 to 20)
#    0.000    2.250    0.000    6.375    0.000    2.375 
#    0.000    0.625    0.000    6.750    0.000    0.000 
#    0.000    0.500    0.000    0.000    0.000    7.000 
#
# Total GULP energy -356740.535542 kJ/mol
# GULP energy per Si atom -5574.070868 kJ/mol
# Density = 1.496946 g / cm^3
# Si number density = 15.003606 Si / 1000 Ang^3
#
#
#
# Elastic Constant Matrix: (Units=GPa)
#
#
# Indices 1 2 3 4 5 6 
#
# 1 107.9401 69.4252 18.5384 0.0000 0.0000 0.0000
# 2 69.4252 107.9394 18.5365 0.0000 0.0000 0.0000
# 3 18.5384 18.5365 37.4096 0.0000 0.0000 0.0000
# 4 0.0000 0.0000 0.0000 10.0469 0.0000 0.0000
# 5 0.0000 0.0000 0.0000 0.0000 10.0468 0.0000
# 6 0.0000 0.0000 0.0000 0.0000 0.0000 22.9501
#
#
#
# Elastic Compliance Matrix: (Units=1/GPa)
#
#
# Indices 1 2 3 4 5 6 
#
# 1 0.016127 -0.009837 -0.003117 0.000000 0.000000 0.000000
# 2 -0.009837 0.016127 -0.003116 0.000000 0.000000 0.000000
# 3 -0.003117 -0.003116 0.029820 0.000000 0.000000 0.000000
# 4 0.000000 0.000000 0.000000 0.099534 0.000000 0.000000
# 5 0.000000 0.000000 0.000000 0.000000 0.099535 0.000000
# 6 0.000000 0.000000 0.000000 0.000000 0.000000 0.043573
#
#
# Mechanical properties :
#
#
# Convention : Reuss Voigt Hill
#
# Bulk Modulus (GPa) = 33.40858 51.80991 42.60925
# Shear Modulus (GPa) = 14.41614 18.39467 16.40541
#
# Velocity S-wave (km/s) = 3.10311 3.50525 3.31029
# Velocity P-wave (km/s) = 5.92912 7.14066 6.56290
#
# Compressibility (1/GPa) = 0.02993243
#
# Stress axis : x y z
#
# Youngs Moduli (GPa) = 62.00791 62.00865 33.53467
#
# Poissons Ratio (x) = 0.61000 0.10454
# Poissons Ratio (y) = 0.60999 0.10449
# Poissons Ratio (z) = 0.19330 0.19322
#
# Static dielectric constant tensor:
#      x y z
#    x 1.501790 0.000000 0.000000 
#    y 0.000000 1.501790 0.000000 
#    z 0.000000 0.000000 1.486510 
# 
# From -- ./inp_files/7338.got.cif
#   From: 2010.05.17/outbox.cif.g08.bks.cpg/sg121_4_cif.got.tgz:7338.got - 2010.05.20 11:32:06.
