data_PCOD9560542
_publ_section_title
;
Structure prediction by ZEFSAII (Michael W. Deem and Ramdas Pophale) SiO2 
 PCOD9560542
Probable space group: I -4 2 M
;
_chemical_formula_sum "Si O2"
_cell_formula_units_Z 92
_cell_length_a 14.898908
_cell_length_b 14.898908
_cell_length_c 21.532863
_cell_angle_alpha 90.000000
_cell_angle_beta 90.000000
_cell_angle_gamma 90.000000
_cell_volume 4779.810226
_symmetry_space_group_name_H-M "I -4 2 M"
_symmetry_group_IT_number 121
_symmetry_cell_setting 'tetragonal'
loop_
_space_group_symop_operation_xyz
x,y,z
y,-x,-z
-x,-y,z
-y,x,-z
x,-y,-z
-x,y,-z
-y,-x,z
y,x,z
1/2+x,1/2+y,1/2+z
1/2+y,1/2-x,1/2-z
1/2-x,1/2-y,1/2+z
1/2-y,1/2+x,1/2-z
1/2+x,1/2-y,1/2-z
1/2-x,1/2+y,1/2-z
1/2-y,1/2-x,1/2+z
1/2+y,1/2+x,1/2+z
loop_
_atom_site_type_symbol
_atom_site_label
_atom_site_fract_x
_atom_site_fract_y
_atom_site_fract_z
Si Si1 0.328224 0.088487 0.958528
Si Si2 0.000000 0.848714 0.500000
Si Si3 0.807306 0.673706 0.582680
Si Si4 0.500000 0.500000 0.344710
Si Si5 0.012105 0.694250 0.602589
Si Si6 0.505685 0.849553 0.757790
Si Si7 0.783412 0.003878 0.856023
O O1 0.417054 0.124323 0.925433
O O2 0.253193 0.065313 0.907934
O O3 0.297710 0.160141 0.009183
O O4 0.346363 0.000000 0.000000
O O5 0.985124 0.783844 0.440138
O O6 0.086085 0.913916 0.491827
O O7 0.771210 0.771210 0.601105
O O8 0.747623 0.599907 0.616718
O O9 0.910918 0.659217 0.596243
O O10 0.388821 0.499813 0.346419
O O11 0.027514 0.697306 0.676393
O O12 0.417316 0.913249 0.760644
O O13 0.490636 0.773972 0.706267
#
# Coordination Sequence:
#
# PCOD9560542 Si02
#       7
#    16   8  16   4  16  16  16
#     4  10  23  38  67 105 137 175 225 291 348 405
#     4  11  26  50  69  98 144 188 237 294 352 423
#     4  11  22  40  66  99 140 183 227 281 349 418
#     4  12  28  52  69  88 144 189 232 280 342 420
#     4  12  22  41  72 101 141 178 232 292 350 411
#     4  11  23  42  71 106 141 173 228 298 364 410
#     4  11  24  47  67  98 137 183 229 290 341 420
#
# _framework density 19.247626
#
# number of rings (size 3 to 8) (size 9 to 14) (size 15 to 20)
#    0.000    0.957    6.087    0.522    1.217    4.870 
#    4.696    4.783    0.000    0.000    0.000    0.000 
#    0.000    0.000    0.000    0.000    0.000    0.000 
#
# Total GULP energy -256269.993714 kJ/mol
# GULP energy per Si atom -5571.086820 kJ/mol
# Density = 1.920382 g / cm^3
# Si number density = 19.247626 Si / 1000 Ang^3
#
#
#
# Elastic Constant Matrix: (Units=GPa)
#
#
# Indices 1 2 3 4 5 6 
#
# 1 99.7922 61.2369 28.8873 0.0000 0.0000 0.0000
# 2 61.2369 99.7922 28.8873 0.0000 0.0000 0.0000
# 3 28.8873 28.8873 125.1196 0.0000 0.0000 0.0000
# 4 0.0000 0.0000 0.0000 4.3633 0.0000 0.0000
# 5 0.0000 0.0000 0.0000 0.0000 4.3638 0.0000
# 6 0.0000 0.0000 0.0000 0.0000 0.0000 36.1340
#
#
#
# Elastic Compliance Matrix: (Units=1/GPa)
#
#
# Indices 1 2 3 4 5 6 
#
# 1 0.016354 -0.009583 -0.001563 0.000000 0.000000 0.000000
# 2 -0.009583 0.016354 -0.001563 0.000000 0.000000 0.000000
# 3 -0.001563 -0.001563 0.008714 0.000000 0.000000 0.000000
# 4 0.000000 0.000000 0.000000 0.229186 0.000000 0.000000
# 5 0.000000 0.000000 0.000000 0.000000 0.229160 0.000000
# 6 0.000000 0.000000 0.000000 0.000000 0.000000 0.027675
#
#
# Mechanical properties :
#
#
# Convention : Reuss Voigt Hill
#
# Bulk Modulus (GPa) = 62.48818 62.52523 62.50670
# Shear Modulus (GPa) = 8.95743 22.68504 15.82123
#
# Velocity S-wave (km/s) = 2.15960 3.43678 2.87014
# Velocity P-wave (km/s) = 6.22530 6.95009 6.59766
#
# Compressibility (1/GPa) = 0.01600303
#
# Stress axis : x y z
#
# Youngs Moduli (GPa) = 61.14769 61.14769 114.75531
#
# Poissons Ratio (x) = 0.58597 0.17939
# Poissons Ratio (y) = 0.58597 0.17939
# Poissons Ratio (z) = 0.09559 0.09559
#
# Static dielectric constant tensor:
#      x y z
#    x 1.672020 0.000000 0.000000 
#    y 0.000000 1.672020 0.000000 
#    z 0.000000 0.000000 1.681260 
# 
# From -- ./inp_files/6481.got.cif
#   From: 2010.05.17/outbox.cif.g08.bks.cpg/sg121_4_cif.got.tgz:6481.got - 2010.05.20 11:32:06.
