data_PCOD9560857
_publ_section_title
;
Structure prediction by ZEFSAII (Michael W. Deem and Ramdas Pophale) SiO2 
 PCOD9560857
Probable space group: I -4 2 D
;
_chemical_formula_sum "Si O2"
_cell_formula_units_Z 72
_cell_length_a 13.765677
_cell_length_b 13.765677
_cell_length_c 18.945031
_cell_angle_alpha 90.000000
_cell_angle_beta 90.000000
_cell_angle_gamma 90.000000
_cell_volume 3589.967114
_symmetry_space_group_name_H-M "I -4 2 D"
_symmetry_group_IT_number 122
_symmetry_cell_setting 'tetragonal'
loop_
_space_group_symop_operation_xyz
x,y,z
y,-x,-z
-x,-y,z
-y,x,-z
x,1/2-y,1/4-z
-x,1/2+y,1/4-z
-y,1/2-x,1/4+z
y,1/2+x,1/4+z
1/2+x,1/2+y,1/2+z
1/2+y,1/2-x,1/2-z
1/2-x,1/2-y,1/2+z
1/2-y,1/2+x,1/2-z
1/2+x,-y,3/4-z
1/2-x,y,3/4-z
1/2-y,-x,3/4+z
1/2+y,x,3/4+z
loop_
_atom_site_type_symbol
_atom_site_label
_atom_site_fract_x
_atom_site_fract_y
_atom_site_fract_z
Si Si1 0.020711 0.197431 0.553328
Si Si2 0.000000 0.500000 0.250000
Si Si3 0.500000 0.000000 0.250000
Si Si4 0.446812 0.815112 0.808026
Si Si5 0.296933 0.820000 0.693055
Si Si6 0.138847 0.755119 0.451126
O O1 0.995454 0.250000 0.625000
O O2 0.976649 0.089316 0.550131
O O3 0.135802 0.182549 0.548463
O O4 0.967182 0.247208 0.488120
O O5 0.068578 0.438216 0.199649
O O6 0.395691 0.785266 0.733934
O O7 0.562594 0.798021 0.820502
O O8 0.381323 0.776007 0.871378
O O9 0.282092 0.750000 0.625000
O O10 0.210858 0.805206 0.749784
#
# Coordination Sequence:
#
# PCOD9560857 Si02
#       6
#    16   4   4  16  16  16
#     4  10  20  36  56  81 115 151 191 241 295 356
#     4   8  20  40  58  88 124 160 208 262 308 368
#     4   8  20  36  54  76 108 144 184 234 288 344
#     4  10  22  39  62  88 122 161 203 254 310 371
#     4  11  23  40  63  92 122 160 205 253 309 372
#     4  11  22  38  60  88 120 158 201 250 305 367
#
# _framework density 20.055893999999999
#
# number of rings (size 3 to 8) (size 9 to 14) (size 15 to 20)
#    0.000    1.778    0.000    4.000    0.000    8.889 
#    0.000    1.111    0.000    2.667    0.000    0.000 
#    0.000    0.000    0.000    0.000    0.000    0.000 
#
# Total GULP energy -200429.546765 kJ/mol
# GULP energy per Si atom -5567.487410 kJ/mol
# Density = 2.001025 g / cm^3
# Si number density = 20.055894 Si / 1000 Ang^3
#
#
#
# Elastic Constant Matrix: (Units=GPa)
#
#
# Indices 1 2 3 4 5 6 
#
# 1 79.3894 30.6424 47.6828 0.0000 0.0000 0.0000
# 2 30.6424 79.3894 47.6828 0.0000 0.0000 0.0000
# 3 47.6828 47.6828 111.9762 0.0000 0.0000 0.0000
# 4 0.0000 0.0000 0.0000 31.0059 0.0000 0.0000
# 5 0.0000 0.0000 0.0000 0.0000 31.0059 0.0000
# 6 0.0000 0.0000 0.0000 0.0000 0.0000 16.9970
#
#
#
# Elastic Compliance Matrix: (Units=1/GPa)
#
#
# Indices 1 2 3 4 5 6 
#
# 1 0.017459 -0.003055 -0.006134 0.000000 0.000000 0.000000
# 2 -0.003055 0.017459 -0.006134 0.000000 0.000000 0.000000
# 3 -0.006134 -0.006134 0.014154 0.000000 0.000000 0.000000
# 4 0.000000 0.000000 0.000000 0.032252 0.000000 0.000000
# 5 0.000000 0.000000 0.000000 0.000000 0.032252 0.000000
# 6 0.000000 0.000000 0.000000 0.000000 0.000000 0.058834
#
#
# Mechanical properties :
#
#
# Convention : Reuss Voigt Hill
#
# Bulk Modulus (GPa) = 54.26511 58.08566 56.17539
# Shear Modulus (GPa) = 23.90071 25.45155 24.67613
#
# Velocity S-wave (km/s) = 3.45585 3.56621 3.51147
# Velocity P-wave (km/s) = 6.56046 6.78100 6.67164
#
# Compressibility (1/GPa) = 0.01842805
#
# Stress axis : x y z
#
# Youngs Moduli (GPa) = 57.27589 57.27589 70.64904
#
# Poissons Ratio (x) = 0.17496 0.43336
# Poissons Ratio (y) = 0.17496 0.43336
# Poissons Ratio (z) = 0.35133 0.35133
#
# Static dielectric constant tensor:
#      x y z
#    x 1.768380 0.000000 0.000000 
#    y 0.000000 1.768380 0.000000 
#    z 0.000000 0.000000 1.795200 
# 
# From -- ./inp_files/6178.got.cif
#   From: 2010.05.17/outbox.cif.g08.bks.cpg/sg122_4_cif.got.tgz:6178.got - 2010.05.20 11:37:33.
