data_PCOD9560168
_publ_section_title
;
Structure prediction by ZEFSAII (Michael W. Deem and Ramdas Pophale) SiO2 
 PCOD9560168
Probable space group: I -4 2 M
;
_chemical_formula_sum "Si O2"
_cell_formula_units_Z 88
_cell_length_a 14.989494
_cell_length_b 14.989494
_cell_length_c 20.989546
_cell_angle_alpha 90.000000
_cell_angle_beta 90.000000
_cell_angle_gamma 90.000000
_cell_volume 4716.034682
_symmetry_space_group_name_H-M "I -4 2 M"
_symmetry_group_IT_number 121
_symmetry_cell_setting 'tetragonal'
loop_
_space_group_symop_operation_xyz
x,y,z
y,-x,-z
-x,-y,z
-y,x,-z
x,-y,-z
-x,y,-z
-y,-x,z
y,x,z
1/2+x,1/2+y,1/2+z
1/2+y,1/2-x,1/2-z
1/2-x,1/2-y,1/2+z
1/2-y,1/2+x,1/2-z
1/2+x,1/2-y,1/2-z
1/2-x,1/2+y,1/2-z
1/2-y,1/2-x,1/2+z
1/2+y,1/2+x,1/2+z
loop_
_atom_site_type_symbol
_atom_site_label
_atom_site_fract_x
_atom_site_fract_y
_atom_site_fract_z
Si Si1 0.776688 0.633159 0.451269
Si Si2 0.000000 0.500000 0.614676
Si Si3 0.668025 0.816373 0.714972
Si Si4 0.569250 0.279605 0.058330
Si Si5 0.444537 0.188081 0.586166
Si Si6 0.482965 0.186895 0.817217
O O1 0.695842 0.695842 0.433147
O O2 0.864870 0.694392 0.449176
O O3 0.777502 0.545393 0.408073
O O4 0.770265 0.600265 0.524178
O O5 0.082430 0.461658 0.575051
O O6 0.972364 0.415519 0.657926
O O7 0.753685 0.753685 0.718022
O O8 0.615843 0.802142 0.648092
O O9 0.598999 0.794025 0.770919
O O10 0.691012 0.921240 0.716627
O O11 0.633305 0.366696 0.061670
O O12 0.518596 0.255278 0.123607
O O13 0.500000 0.286125 0.000000
#
# Coordination Sequence:
#
# PCOD9560168 Si02
#       6
#    16   8  16  16  16  16
#     4  10  21  35  55  84 117 154 199 248 305 365
#     4  10  18  34  56  88 118 141 193 244 312 358
#     4  11  23  40  62  90 126 159 201 253 306 369
#     4  11  23  39  59  87 123 164 211 257 304 369
#     4  10  20  34  58  84 116 156 193 253 305 364
#     4  11  22  38  61  93 122 165 200 253 313 374
#
# _framework density 18.659742999999999
#
# number of rings (size 3 to 8) (size 9 to 14) (size 15 to 20)
#    0.000    1.455    1.818    5.455    0.000    3.818 
#    0.000    0.000    0.000   12.000    0.000    0.000 
#    0.000    0.000    0.000    0.000    0.000    0.000 
#
# Total GULP energy -245698.497508 kJ/mol
# GULP energy per Si atom -5584.056762 kJ/mol
# Density = 1.861727 g / cm^3
# Si number density = 18.659743 Si / 1000 Ang^3
#
#
#
# Elastic Constant Matrix: (Units=GPa)
#
#
# Indices 1 2 3 4 5 6 
#
# 1 79.7544 38.6557 15.2962 0.0000 0.0000 0.0000
# 2 38.6557 79.7545 15.2962 0.0000 0.0000 0.0000
# 3 15.2962 15.2962 54.5278 0.0000 0.0000 0.0000
# 4 0.0000 0.0000 0.0000 25.7568 0.0000 0.0000
# 5 0.0000 0.0000 0.0000 0.0000 25.7568 0.0000
# 6 0.0000 0.0000 0.0000 0.0000 0.0000 22.6253
#
#
#
# Elastic Compliance Matrix: (Units=1/GPa)
#
#
# Indices 1 2 3 4 5 6 
#
# 1 0.016718 -0.007613 -0.002554 0.000000 0.000000 0.000000
# 2 -0.007613 0.016718 -0.002554 0.000000 0.000000 0.000000
# 3 -0.002554 -0.002554 0.019772 0.000000 0.000000 0.000000
# 4 0.000000 0.000000 0.000000 0.038825 0.000000 0.000000
# 5 0.000000 0.000000 0.000000 0.000000 0.038825 0.000000
# 6 0.000000 0.000000 0.000000 0.000000 0.000000 0.044198
#
#
# Mechanical properties :
#
#
# Convention : Reuss Voigt Hill
#
# Bulk Modulus (GPa) = 36.01551 39.17031 37.59291
# Shear Modulus (GPa) = 23.83729 24.48034 24.15881
#
# Velocity S-wave (km/s) = 3.57805 3.62599 3.60210
# Velocity P-wave (km/s) = 6.03432 6.21030 6.12294
#
# Compressibility (1/GPa) = 0.02776581
#
# Stress axis : x y z
#
# Youngs Moduli (GPa) = 59.81428 59.81436 50.57585
#
# Poissons Ratio (x) = 0.45538 0.12918
# Poissons Ratio (y) = 0.45538 0.12918
# Poissons Ratio (z) = 0.15278 0.15278
#
# Static dielectric constant tensor:
#      x y z
#    x 1.633730 0.000000 0.000000 
#    y 0.000000 1.633740 0.000000 
#    z 0.000000 0.000000 1.662280 
# 
# From -- ./inp_files/6310.got.cif
#   From: 2010.05.17/outbox.cif.g08.bks.cpg/sg121_4_cif.got.tgz:6310.got - 2010.05.20 11:32:06.
