data_PCOD9560751
_publ_section_title
;
Structure prediction by ZEFSAII (Michael W. Deem and Ramdas Pophale) SiO2 
 PCOD9560751
Probable space group: I -4 2 D
;
_chemical_formula_sum "Si O2"
_cell_formula_units_Z 72
_cell_length_a 11.905949
_cell_length_b 11.905949
_cell_length_c 23.843615
_cell_angle_alpha 90.000000
_cell_angle_beta 90.000000
_cell_angle_gamma 90.000000
_cell_volume 3379.871091
_symmetry_space_group_name_H-M "I -4 2 D"
_symmetry_group_IT_number 122
_symmetry_cell_setting 'tetragonal'
loop_
_space_group_symop_operation_xyz
x,y,z
y,-x,-z
-x,-y,z
-y,x,-z
x,1/2-y,1/4-z
-x,1/2+y,1/4-z
-y,1/2-x,1/4+z
y,1/2+x,1/4+z
1/2+x,1/2+y,1/2+z
1/2+y,1/2-x,1/2-z
1/2-x,1/2-y,1/2+z
1/2-y,1/2+x,1/2-z
1/2+x,-y,3/4-z
1/2-x,y,3/4-z
1/2-y,-x,3/4+z
1/2+y,x,3/4+z
loop_
_atom_site_type_symbol
_atom_site_label
_atom_site_fract_x
_atom_site_fract_y
_atom_site_fract_z
Si Si1 0.500000 0.000000 0.090774
Si Si2 0.503423 0.132164 0.902016
Si Si3 0.901339 0.676471 0.998383
Si Si4 0.853343 0.287353 0.028458
Si Si5 0.811688 0.636952 0.596876
O O1 0.409021 0.939254 0.050764
O O2 0.576591 0.913798 0.124772
O O3 0.380141 0.166795 0.923944
O O4 0.549254 0.210259 0.852823
O O5 0.500000 0.000000 0.888274
O O6 0.592758 0.145411 0.953319
O O7 0.817219 0.769611 0.974289
O O8 0.012039 0.734042 0.026524
O O9 0.836446 0.342431 0.967047
O O10 0.773513 0.750000 0.625000
#
# Coordination Sequence:
#
# PCOD9560751 Si02
#       5
#     8  16  16  16  16
#     4  10  22  40  56  85 126 158 198 263 320 368
#     4  10  20  40  61  85 125 164 198 256 327 366
#     4  10  18  39  62  81 120 169 192 253 326 364
#     4  10  21  38  62  87 122 164 204 251 312 388
#     4  11  21  37  62  89 117 160 212 252 310 389
#
# _framework density 21.302589000000001
#
# number of rings (size 3 to 8) (size 9 to 14) (size 15 to 20)
#    0.000    1.778    7.778    0.000    0.000    2.222 
#    8.000    3.333    0.000    0.000    0.000    0.000 
#    0.000    0.000    0.000    0.000    0.000    0.000 
#
# Total GULP energy -200693.121833 kJ/mol
# GULP energy per Si atom -5574.808940 kJ/mol
# Density = 2.125410 g / cm^3
# Si number density = 21.302589 Si / 1000 Ang^3
#
#
#
# Elastic Constant Matrix: (Units=GPa)
#
#
# Indices 1 2 3 4 5 6 
#
# 1 114.0357 81.0415 2.7320 0.0000 0.0000 0.0000
# 2 81.0415 114.0357 2.7320 0.0000 0.0000 0.0000
# 3 2.7320 2.7320 20.3959 0.0000 0.0000 0.0000
# 4 0.0000 0.0000 0.0000 2.9523 0.0000 0.0000
# 5 0.0000 0.0000 0.0000 0.0000 2.9523 0.0000
# 6 0.0000 0.0000 0.0000 0.0000 0.0000 52.4731
#
#
#
# Elastic Compliance Matrix: (Units=1/GPa)
#
#
# Indices 1 2 3 4 5 6 
#
# 1 0.017727 -0.012581 -0.000689 0.000000 0.000000 0.000000
# 2 -0.012581 0.017727 -0.000689 0.000000 0.000000 0.000000
# 3 -0.000689 -0.000689 0.049214 0.000000 0.000000 0.000000
# 4 0.000000 0.000000 0.000000 0.338721 0.000000 0.000000
# 5 0.000000 0.000000 0.000000 0.000000 0.338721 0.000000
# 6 0.000000 0.000000 0.000000 0.000000 0.000000 0.019057
#
#
# Mechanical properties :
#
#
# Convention : Reuss Voigt Hill
#
# Bulk Modulus (GPa) = 17.62174 46.83095 32.22635
# Shear Modulus (GPa) = 6.03863 22.47299 14.25581
#
# Velocity S-wave (km/s) = 1.68548 3.25151 2.58971
# Velocity P-wave (km/s) = 3.47532 6.01064 4.90947
#
# Compressibility (1/GPa) = 0.05674807
#
# Stress axis : x y z
#
# Youngs Moduli (GPa) = 56.41138 56.41138 20.31940
#
# Poissons Ratio (x) = 0.70974 0.01400
# Poissons Ratio (y) = 0.70974 0.01400
# Poissons Ratio (z) = 0.03888 0.03888
#
# Static dielectric constant tensor:
#      x y z
#    x 1.822060 0.000000 0.000000 
#    y 0.000000 1.822060 0.000000 
#    z 0.000000 0.000000 1.770570 
# 
# From -- ./inp_files/8614.got.cif
#   From: 2010.05.17/outbox.cif.g08.bks.cpg/sg122_5_cif.got.tgz:8614.got - 2010.05.20 11:37:33.
