data_PCOD9560576
_publ_section_title
;
Structure prediction by ZEFSAII (Michael W. Deem and Ramdas Pophale) SiO2 
 PCOD9560576
Probable space group: I -4 2 M
;
_chemical_formula_sum "Si O2"
_cell_formula_units_Z 112
_cell_length_a 13.477916
_cell_length_b 13.477916
_cell_length_c 36.507044
_cell_angle_alpha 90.000000
_cell_angle_beta 90.000000
_cell_angle_gamma 90.000000
_cell_volume 6631.658591
_symmetry_space_group_name_H-M "I -4 2 M"
_symmetry_group_IT_number 121
_symmetry_cell_setting 'tetragonal'
loop_
_space_group_symop_operation_xyz
x,y,z
y,-x,-z
-x,-y,z
-y,x,-z
x,-y,-z
-x,y,-z
-y,-x,z
y,x,z
1/2+x,1/2+y,1/2+z
1/2+y,1/2-x,1/2-z
1/2-x,1/2-y,1/2+z
1/2-y,1/2+x,1/2-z
1/2+x,1/2-y,1/2-z
1/2-x,1/2+y,1/2-z
1/2-y,1/2-x,1/2+z
1/2+y,1/2+x,1/2+z
loop_
_atom_site_type_symbol
_atom_site_label
_atom_site_fract_x
_atom_site_fract_y
_atom_site_fract_z
Si Si1 0.418841 0.743184 0.532666
Si Si2 0.766711 0.606458 0.176529
Si Si3 0.213521 0.047595 0.102829
Si Si4 0.611617 0.030044 0.542223
Si Si5 0.783950 0.618848 0.093546
Si Si6 0.166319 0.507427 0.752934
Si Si7 0.561961 0.724821 0.683980
O O1 0.500000 0.752181 0.500000
O O2 0.333042 0.666959 0.521320
O O3 0.528713 0.706650 0.430161
O O4 0.378228 0.851902 0.542500
O O5 0.664996 0.664996 0.183200
O O6 0.770078 0.574755 0.134288
O O7 0.785043 0.526190 0.207669
O O8 0.853808 0.689390 0.179887
O O9 0.117478 0.117478 0.102952
O O10 0.306192 0.121625 0.094959
O O11 0.223568 0.008009 0.144486
O O12 0.500000 0.000000 0.555007
O O13 0.618443 0.000000 0.500000
O O14 0.689946 0.967237 0.565361
O O15 0.689040 0.689040 0.085238
O O16 0.090961 0.598613 0.745991
O O17 0.243663 0.499136 0.719599
O O18 0.622588 0.622588 0.689002
#
# Coordination Sequence:
#
# PCOD9560576 Si02
#       7
#    16  16  16  16  16  16  16
#     4  12  24  37  54  79 113 149 181 216 265 320
#     4   8  15  28  46  71  98 127 167 212 257 312
#     4   9  17  31  50  74 103 139 182 218 257 323
#     4  11  20  36  55  81 111 137 175 222 265 306
#     4   9  17  32  57  81 102 137 179 219 268 319
#     4   9  16  26  42  70  99 125 165 218 263 303
#     4   8  15  28  46  67  96 132 168 207 257 316
#
# _framework density 16.888686
#
# number of rings (size 3 to 8) (size 9 to 14) (size 15 to 20)
#    0.000    2.571    2.857    2.143    0.000    3.857 
#    2.571    0.714    0.000    6.000    0.000    3.000 
#    0.000    0.000    0.000    0.000    0.000    0.000 
#
# Total GULP energy -311969.452398 kJ/mol
# GULP energy per Si atom -5570.883079 kJ/mol
# Density = 1.685025 g / cm^3
# Si number density = 16.888686 Si / 1000 Ang^3
#
#
#
# Elastic Constant Matrix: (Units=GPa)
#
#
# Indices 1 2 3 4 5 6 
#
# 1 52.9157 31.7091 44.9864 0.0000 0.0000 0.0000
# 2 31.7091 52.9160 44.9853 0.0000 0.0000 0.0000
# 3 44.9864 44.9853 106.2924 0.0000 0.0000 0.0000
# 4 0.0000 0.0000 0.0000 12.4957 0.0000 0.0000
# 5 0.0000 0.0000 0.0000 0.0000 12.4965 0.0000
# 6 0.0000 0.0000 0.0000 0.0000 0.0000 7.6691
#
#
#
# Elastic Compliance Matrix: (Units=1/GPa)
#
#
# Indices 1 2 3 4 5 6 
#
# 1 0.034320 -0.012835 -0.009093 0.000000 0.000000 0.000000
# 2 -0.012835 0.034319 -0.009092 0.000000 0.000000 0.000000
# 3 -0.009093 -0.009092 0.017104 0.000000 0.000000 0.000000
# 4 0.000000 0.000000 0.000000 0.080027 0.000000 0.000000
# 5 0.000000 0.000000 0.000000 0.000000 0.080022 0.000000
# 6 0.000000 0.000000 0.000000 0.000000 0.000000 0.130393
#
#
# Mechanical properties :
#
#
# Convention : Reuss Voigt Hill
#
# Bulk Modulus (GPa) = 42.19058 50.60952 46.40005
# Shear Modulus (GPa) = 11.20754 12.56181 11.88468
#
# Velocity S-wave (km/s) = 2.57886 2.73023 2.65562
# Velocity P-wave (km/s) = 5.82264 6.32222 6.07757
#
# Compressibility (1/GPa) = 0.02370197
#
# Stress axis : x y z
#
# Youngs Moduli (GPa) = 29.13753 29.13865 58.46425
#
# Poissons Ratio (x) = 0.37401 0.53162
# Poissons Ratio (y) = 0.37399 0.53156
# Poissons Ratio (z) = 0.26495 0.26493
#
# Static dielectric constant tensor:
#      x y z
#    x 1.571140 0.000000 0.000000 
#    y 0.000000 1.571140 0.000000 
#    z 0.000000 0.000000 1.585940 
# 
# From -- ./inp_files/8417.got.cif
#   From: 2010.05.17/outbox.cif.g08.bks.cpg/sg121_5_cif.got.tgz:8417.got - 2010.05.20 11:32:06.
