data_PCOD9560464
_publ_section_title
;
Structure prediction by ZEFSAII (Michael W. Deem and Ramdas Pophale) SiO2 
 PCOD9560464
Probable space group: I -4 2 M
;
_chemical_formula_sum "Si O2"
_cell_formula_units_Z 80
_cell_length_a 12.396148
_cell_length_b 12.396148
_cell_length_c 23.527465
_cell_angle_alpha 90.000000
_cell_angle_beta 90.000000
_cell_angle_gamma 90.000000
_cell_volume 3615.335798
_symmetry_space_group_name_H-M "I -4 2 M"
_symmetry_group_IT_number 121
_symmetry_cell_setting 'tetragonal'
loop_
_space_group_symop_operation_xyz
x,y,z
y,-x,-z
-x,-y,z
-y,x,-z
x,-y,-z
-x,y,-z
-y,-x,z
y,x,z
1/2+x,1/2+y,1/2+z
1/2+y,1/2-x,1/2-z
1/2-x,1/2-y,1/2+z
1/2-y,1/2+x,1/2-z
1/2+x,1/2-y,1/2-z
1/2-x,1/2+y,1/2-z
1/2-y,1/2-x,1/2+z
1/2+y,1/2+x,1/2+z
loop_
_atom_site_type_symbol
_atom_site_label
_atom_site_fract_x
_atom_site_fract_y
_atom_site_fract_z
Si Si1 0.518860 0.177845 0.104690
Si Si2 0.757891 0.414603 0.582214
Si Si3 0.587711 0.412290 0.100969
Si Si4 0.589307 0.410694 0.239757
Si Si5 0.673245 0.987409 0.265690
Si Si6 0.699021 0.135988 0.949626
O O1 0.627715 0.110009 0.109974
O O2 0.554366 0.294041 0.081077
O O3 0.476971 0.190041 0.168845
O O4 0.425841 0.129333 0.065940
O O5 0.662669 0.337332 0.603167
O O6 0.779917 0.385291 0.515920
O O7 0.737903 0.541537 0.583418
O O8 0.500000 0.500000 0.084394
O O9 0.593017 0.406984 0.170144
O O10 0.500000 0.500000 0.255724
O O11 0.551407 0.289967 0.257143
O O12 0.588550 0.887819 0.262738
O O13 0.748388 0.251613 0.934498
#
# Coordination Sequence:
#
# PCOD9560464 Si02
#       6
#    16  16   8   8  16  16
#     4  11  20  38  62  85 120 158 196 250 306 367
#     4  10  21  38  60  88 122 159 201 243 300 362
#     4   9  18  34  58  88 113 152 196 238 309 363
#     4   9  20  40  64  85 116 155 203 258 311 367
#     4  10  24  40  60  91 119 161 209 260 315 366
#     4  10  22  37  60  91 119 157 203 248 298 364
#
# _framework density 22.127959000000001
#
# number of rings (size 3 to 8) (size 9 to 14) (size 15 to 20)
#    0.000    2.000    1.000    1.800    7.000    2.800 
#    0.000    2.000    0.000    0.000    0.000    0.000 
#    0.000    0.000    0.000    0.000    0.000    0.000 
#
# Total GULP energy -223362.210540 kJ/mol
# GULP energy per Si atom -5584.055263 kJ/mol
# Density = 2.207759 g / cm^3
# Si number density = 22.127959 Si / 1000 Ang^3
#
#
#
# Elastic Constant Matrix: (Units=GPa)
#
#
# Indices 1 2 3 4 5 6 
#
# 1 109.2721 43.9658 6.9522 0.0000 0.0000 0.0000
# 2 43.9658 109.2645 6.9517 0.0000 0.0000 0.0000
# 3 6.9522 6.9517 16.0260 0.0000 0.0000 0.0000
# 4 0.0000 0.0000 0.0000 14.7684 0.0000 0.0000
# 5 0.0000 0.0000 0.0000 0.0000 14.7686 0.0000
# 6 0.0000 0.0000 0.0000 0.0000 0.0000 24.7990
#
#
#
# Elastic Compliance Matrix: (Units=1/GPa)
#
#
# Indices 1 2 3 4 5 6 
#
# 1 0.011053 -0.004260 -0.002947 0.000000 0.000000 0.000000
# 2 -0.004260 0.011054 -0.002947 0.000000 0.000000 0.000000
# 3 -0.002947 -0.002947 0.064955 0.000000 0.000000 0.000000
# 4 0.000000 0.000000 0.000000 0.067712 0.000000 0.000000
# 5 0.000000 0.000000 0.000000 0.000000 0.067711 0.000000
# 6 0.000000 0.000000 0.000000 0.000000 0.000000 0.040324
#
#
# Mechanical properties :
#
#
# Convention : Reuss Voigt Hill
#
# Bulk Modulus (GPa) = 14.98033 38.92246 26.95140
# Shear Modulus (GPa) = 16.37367 22.64673 19.51020
#
# Velocity S-wave (km/s) = 2.72316 3.20260 2.97256
# Velocity P-wave (km/s) = 4.08314 5.59495 4.89773
#
# Compressibility (1/GPa) = 0.06675420
#
# Stress axis : x y z
#
# Youngs Moduli (GPa) = 90.47333 90.46721 15.39525
#
# Poissons Ratio (x) = 0.38539 0.04537
# Poissons Ratio (y) = 0.38542 0.04537
# Poissons Ratio (z) = 0.26662 0.26659
#
# Static dielectric constant tensor:
#      x y z
#    x 1.798370 0.000000 0.000000 
#    y 0.000000 1.798380 0.000000 
#    z 0.000000 0.000000 1.849370 
# 
# From -- ./inp_files/8086.got.cif
#   From: 2010.05.17/outbox.cif.g08.bks.cpg/sg121_5_cif.got.tgz:8086.got - 2010.05.20 11:32:06.
