data_PCOD9560093
_publ_section_title
;
Structure prediction by ZEFSAII (Michael W. Deem and Ramdas Pophale) SiO2 
 PCOD9560093
Probable space group: I -4 2 M
;
_chemical_formula_sum "Si O2"
_cell_formula_units_Z 80
_cell_length_a 17.837780
_cell_length_b 17.837780
_cell_length_c 15.047451
_cell_angle_alpha 90.000000
_cell_angle_beta 90.000000
_cell_angle_gamma 90.000000
_cell_volume 4787.894193
_symmetry_space_group_name_H-M "I -4 2 M"
_symmetry_group_IT_number 121
_symmetry_cell_setting 'tetragonal'
loop_
_space_group_symop_operation_xyz
x,y,z
y,-x,-z
-x,-y,z
-y,x,-z
x,-y,-z
-x,y,-z
-y,-x,z
y,x,z
1/2+x,1/2+y,1/2+z
1/2+y,1/2-x,1/2-z
1/2-x,1/2-y,1/2+z
1/2-y,1/2+x,1/2-z
1/2+x,1/2-y,1/2-z
1/2-x,1/2+y,1/2-z
1/2-y,1/2-x,1/2+z
1/2+y,1/2+x,1/2+z
loop_
_atom_site_type_symbol
_atom_site_label
_atom_site_fract_x
_atom_site_fract_y
_atom_site_fract_z
Si Si1 0.143837 0.635747 0.908252
Si Si2 0.031821 0.371176 0.362758
Si Si3 0.148575 0.264829 0.415520
Si Si4 0.641757 0.241246 0.728912
Si Si5 0.341854 0.990544 0.160789
O O1 0.120743 0.547747 0.910130
O O2 0.196356 0.643500 0.821591
O O3 0.064044 0.675794 0.895687
O O4 0.191664 0.661293 0.992124
O O5 0.064599 0.289456 0.389437
O O6 0.093924 0.435803 0.380224
O O7 0.019219 0.372625 0.256419
O O8 0.180602 0.180602 0.422024
O O9 0.195731 0.305002 0.338247
O O10 0.676567 0.323434 0.738666
O O11 0.560268 0.229429 0.686060
#
# Coordination Sequence:
#
# PCOD9560093 Si02
#       5
#    16  16  16  16  16
#     4  11  19  29  51  71  98 130 174 204 257 310
#     4  10  18  30  47  72 101 131 161 208 254 310
#     4  10  20  33  45  66  98 135 173 209 245 306
#     4   9  19  32  45  64 100 137 167 209 253 299
#     4  10  17  29  49  69 101 132 164 199 254 307
#
# _framework density 16.708807
#
# number of rings (size 3 to 8) (size 9 to 14) (size 15 to 20)
#    0.000    2.000    6.000    1.800    0.000    3.200 
#    0.000    4.000    0.000    0.000    0.000    0.000 
#    0.000   60.800    0.000   46.000    0.000    0.000 
#
# Total GULP energy -222694.647100 kJ/mol
# GULP energy per Si atom -5567.366178 kJ/mol
# Density = 1.667078 g / cm^3
# Si number density = 16.708807 Si / 1000 Ang^3
#
#
#
# Elastic Constant Matrix: (Units=GPa)
#
#
# Indices 1 2 3 4 5 6 
#
# 1 52.1986 43.9354 10.2439 0.0000 0.0000 0.0000
# 2 43.9354 52.1966 10.2437 0.0000 0.0000 0.0000
# 3 10.2439 10.2437 69.8131 0.0000 0.0000 0.0000
# 4 0.0000 0.0000 0.0000 46.5223 0.0000 0.0000
# 5 0.0000 0.0000 0.0000 0.0000 46.5223 0.0000
# 6 0.0000 0.0000 0.0000 0.0000 0.0000 39.6648
#
#
#
# Elastic Compliance Matrix: (Units=1/GPa)
#
#
# Indices 1 2 3 4 5 6 
#
# 1 0.065884 -0.055147 -0.001576 0.000000 0.000000 0.000000
# 2 -0.055147 0.065886 -0.001576 0.000000 0.000000 0.000000
# 3 -0.001576 -0.001576 0.014786 0.000000 0.000000 0.000000
# 4 0.000000 0.000000 0.000000 0.021495 0.000000 0.000000
# 5 0.000000 0.000000 0.000000 0.000000 0.021495 0.000000
# 6 0.000000 0.000000 0.000000 0.000000 0.000000 0.025211
#
#
# Mechanical properties :
#
#
# Convention : Reuss Voigt Hill
#
# Bulk Modulus (GPa) = 33.37785 33.67269 33.52527
# Shear Modulus (GPa) = 14.64808 33.86092 24.25450
#
# Velocity S-wave (km/s) = 2.96407 4.50658 3.81412
# Velocity P-wave (km/s) = 5.63328 6.87572 6.28527
#
# Compressibility (1/GPa) = 0.02995999
#
# Stress axis : x y z
#
# Youngs Moduli (GPa) = 15.17820 15.17763 67.63002
#
# Poissons Ratio (x) = 0.83700 0.10656
# Poissons Ratio (y) = 0.83703 0.10656
# Poissons Ratio (z) = 0.02392 0.02391
#
# Static dielectric constant tensor:
#      x y z
#    x 1.567430 0.000000 0.000000 
#    y 0.000000 1.567430 0.000000 
#    z 0.000000 0.000000 1.618150 
# 
# From -- ./inp_files/4219.got.cif
#   From: 2010.05.17/outbox.cif.g08.bks.cpg/sg121_3_cif.got.tgz:4219.got - 2010.05.20 11:32:06.
