data_PCOD9560256
_publ_section_title
;
Structure prediction by ZEFSAII (Michael W. Deem and Ramdas Pophale) SiO2 
 PCOD9560256
Probable space group: I -4 2 M
;
_chemical_formula_sum "Si O2"
_cell_formula_units_Z 96
_cell_length_a 14.622580
_cell_length_b 14.622580
_cell_length_c 24.554172
_cell_angle_alpha 90.000000
_cell_angle_beta 90.000000
_cell_angle_gamma 90.000000
_cell_volume 5250.169272
_symmetry_space_group_name_H-M "I -4 2 M"
_symmetry_group_IT_number 121
_symmetry_cell_setting 'tetragonal'
loop_
_space_group_symop_operation_xyz
x,y,z
y,-x,-z
-x,-y,z
-y,x,-z
x,-y,-z
-x,y,-z
-y,-x,z
y,x,z
1/2+x,1/2+y,1/2+z
1/2+y,1/2-x,1/2-z
1/2-x,1/2-y,1/2+z
1/2-y,1/2+x,1/2-z
1/2+x,1/2-y,1/2-z
1/2-x,1/2+y,1/2-z
1/2-y,1/2-x,1/2+z
1/2+y,1/2+x,1/2+z
loop_
_atom_site_type_symbol
_atom_site_label
_atom_site_fract_x
_atom_site_fract_y
_atom_site_fract_z
Si Si1 0.284468 0.439743 0.842685
Si Si2 0.099930 0.252313 0.025132
Si Si3 0.078885 0.921116 0.299229
Si Si4 0.180011 0.335288 0.923874
Si Si5 0.145279 0.544716 0.253378
Si Si6 0.922924 0.922924 0.827849
Si Si7 0.232399 0.499526 0.632901
O O1 0.362560 0.362560 0.838419
O O2 0.334858 0.535067 0.830098
O O3 0.234210 0.422227 0.900220
O O4 0.211195 0.424261 0.794967
O O5 0.163944 0.163944 0.022222
O O6 0.078250 0.276205 0.087180
O O7 0.147569 0.328354 0.986544
O O8 0.000000 0.232839 0.000000
O O9 0.100084 0.899917 0.235655
O O10 0.000000 0.000000 0.298402
O O11 0.248190 0.248190 0.915332
O O12 0.088269 0.322608 0.888361
O O13 0.108579 0.442895 0.241005
O O14 0.197995 0.537884 0.309966
O O15 0.963851 0.835199 0.858268
O O16 0.000000 0.000000 0.826431
#
# Coordination Sequence:
#
# PCOD9560256 Si02
#       7
#    16  16   8  16  16   8  16
#     4  10  19  34  57  80 113 153 194 243 301 351
#     4   9  19  31  48  77 115 154 199 237 272 336
#     4   9  18  30  48  82 114 145 186 241 297 356
#     4   9  17  32  51  76 105 155 200 229 274 340
#     4  11  23  37  54  79 114 151 189 239 288 354
#     4  11  20  28  48  78 120 158 190 245 293 345
#     4  11  19  32  51  74 113 158 196 229 287 345
#
# _framework density 18.285125000000001
#
# number of rings (size 3 to 8) (size 9 to 14) (size 15 to 20)
#    0.000    2.000    4.167    0.500    1.167    0.833 
#    1.500    0.000    0.000    1.000    0.000    0.000 
#    2.500    0.000    0.000    0.000    0.000    0.000 
#
# Total GULP energy -267596.971336 kJ/mol
# GULP energy per Si atom -5574.936903 kJ/mol
# Density = 1.824351 g / cm^3
# Si number density = 18.285125 Si / 1000 Ang^3
#
#
#
# Elastic Constant Matrix: (Units=GPa)
#
#
# Indices 1 2 3 4 5 6 
#
# 1 32.7624 18.8869 32.1617 0.0000 0.0000 0.0000
# 2 18.8869 32.7623 32.1613 0.0000 0.0000 0.0000
# 3 32.1617 32.1613 112.9567 0.0000 0.0000 0.0000
# 4 0.0000 0.0000 0.0000 25.8358 0.0000 0.0000
# 5 0.0000 0.0000 0.0000 0.0000 25.8359 0.0000
# 6 0.0000 0.0000 0.0000 0.0000 0.0000 10.0560
#
#
#
# Elastic Compliance Matrix: (Units=1/GPa)
#
#
# Indices 1 2 3 4 5 6 
#
# 1 0.051034 -0.021036 -0.008541 0.000000 0.000000 0.000000
# 2 -0.021036 0.051034 -0.008541 0.000000 0.000000 0.000000
# 3 -0.008541 -0.008541 0.013717 0.000000 0.000000 0.000000
# 4 0.000000 0.000000 0.000000 0.038706 0.000000 0.000000
# 5 0.000000 0.000000 0.000000 0.000000 0.038706 0.000000
# 6 0.000000 0.000000 0.000000 0.000000 0.000000 0.099443
#
#
# Mechanical properties :
#
#
# Convention : Reuss Voigt Hill
#
# Bulk Modulus (GPa) = 25.28529 38.32235 31.80382
# Shear Modulus (GPa) = 13.08698 18.69697 15.89198
#
# Velocity S-wave (km/s) = 2.67819 3.20116 2.95128
# Velocity P-wave (km/s) = 4.83962 5.88787 5.38929
#
# Compressibility (1/GPa) = 0.03954869
#
# Stress axis : x y z
#
# Youngs Moduli (GPa) = 19.59468 19.59479 72.90336
#
# Poissons Ratio (x) = 0.41219 0.62270
# Poissons Ratio (y) = 0.41218 0.62268
# Poissons Ratio (z) = 0.16737 0.16736
#
# Static dielectric constant tensor:
#      x y z
#    x 1.618880 0.000000 0.000000 
#    y 0.000000 1.618880 0.000000 
#    z 0.000000 0.000000 1.643710 
# 
# From -- ./inp_files/7162.got.cif
#   From: 2010.05.17/outbox.cif.g08.bks.cpg/sg121_4_cif.got.tgz:7162.got - 2010.05.20 11:32:06.
