data_PCOD9560696
_publ_section_title
;
Structure prediction by ZEFSAII (Michael W. Deem and Ramdas Pophale) SiO2 
 PCOD9560696
Probable space group: I -4 2 D
;
_chemical_formula_sum "Si O2"
_cell_formula_units_Z 64
_cell_length_a 13.139128
_cell_length_b 13.139128
_cell_length_c 13.419236
_cell_angle_alpha 90.000000
_cell_angle_beta 90.000000
_cell_angle_gamma 90.000000
_cell_volume 2316.652413
_symmetry_space_group_name_H-M "I -4 2 D"
_symmetry_group_IT_number 122
_symmetry_cell_setting 'tetragonal'
loop_
_space_group_symop_operation_xyz
x,y,z
y,-x,-z
-x,-y,z
-y,x,-z
x,1/2-y,1/4-z
-x,1/2+y,1/4-z
-y,1/2-x,1/4+z
y,1/2+x,1/4+z
1/2+x,1/2+y,1/2+z
1/2+y,1/2-x,1/2-z
1/2-x,1/2-y,1/2+z
1/2-y,1/2+x,1/2-z
1/2+x,-y,3/4-z
1/2-x,y,3/4-z
1/2-y,-x,3/4+z
1/2+y,x,3/4+z
loop_
_atom_site_type_symbol
_atom_site_label
_atom_site_fract_x
_atom_site_fract_y
_atom_site_fract_z
Si Si1 0.912446 0.897508 0.940583
Si Si2 0.511049 0.793640 0.999525
Si Si3 0.114744 0.037436 0.643636
Si Si4 0.135366 0.291874 0.013937
O O1 0.973104 0.873738 0.841493
O O2 0.834740 0.806572 0.949679
O O3 0.990494 0.878575 0.033979
O O4 0.506786 0.681787 0.948899
O O5 0.391682 0.805949 0.022534
O O6 0.591139 0.843558 0.078270
O O7 0.172849 0.980468 0.735008
O O8 0.000000 0.000000 0.632893
O O9 0.154732 0.250000 0.125000
#
# Coordination Sequence:
#
# PCOD9560696 Si02
#       4
#    16  16  16  16
#     4  10  18  26  46  76 116 155 192 249 325 394
#     4  10  19  33  52  83 119 166 202 266 334 397
#     4   9  20  34  55  87 127 159 210 268 336 402
#     4  10  17  29  48  80 117 158 199 257 322 407
#
# _framework density 27.626069000000001
#
# number of rings (size 3 to 8) (size 9 to 14) (size 15 to 20)
#    0.000    2.250    2.500    1.500    7.000    0.000 
#    0.000    0.000    0.000    0.000   13.000    0.000 
#    0.000    0.000    0.000    0.000    0.000    0.000 
#
# Total GULP energy -178220.248270 kJ/mol
# GULP energy per Si atom -5569.382758 kJ/mol
# Density = 2.756319 g / cm^3
# Si number density = 27.626069 Si / 1000 Ang^3
#
#
#
# Elastic Constant Matrix: (Units=GPa)
#
#
# Indices 1 2 3 4 5 6 
#
# 1 140.4464 7.1364 39.4795 0.0000 0.0000 0.0000
# 2 7.1364 140.4464 39.4795 0.0000 0.0000 0.0000
# 3 39.4795 39.4795 112.5068 0.0000 0.0000 0.0000
# 4 0.0000 0.0000 0.0000 30.9249 0.0000 0.0000
# 5 0.0000 0.0000 0.0000 0.0000 30.9249 0.0000
# 6 0.0000 0.0000 0.0000 0.0000 0.0000 -11.2131
#
#
#
# Elastic Compliance Matrix: (Units=1/GPa)
#
#
# Indices 1 2 3 4 5 6 
#
# 1 0.007922 0.000420 -0.002927 0.000000 0.000000 0.000000
# 2 0.000420 0.007922 -0.002927 0.000000 0.000000 0.000000
# 3 -0.002927 -0.002927 0.010943 0.000000 0.000000 0.000000
# 4 0.000000 0.000000 0.000000 0.032336 0.000000 0.000000
# 5 0.000000 0.000000 0.000000 0.000000 0.032336 0.000000
# 6 0.000000 0.000000 0.000000 0.000000 0.000000 -0.089181
#
#
# Mechanical properties :
#
#
# Convention : Reuss Voigt Hill
#
# Bulk Modulus (GPa) = 62.82329 62.84337 62.83333
# Shear Modulus (GPa) = 270.97297 30.61430 150.79363
#
# Velocity S-wave (km/s) = 9.91458 3.33253 7.39610
# Velocity P-wave (km/s) = 12.40384 6.13228 9.78417
#
# Compressibility (1/GPa) = 0.01591766
#
# Stress axis : x y z
#
# Youngs Moduli (GPa) = 126.23634 126.23634 91.38474
#
# Poissons Ratio (x) = -0.05306 0.26751
# Poissons Ratio (y) = -0.05306 0.26751
# Poissons Ratio (z) = 0.36953 0.36953
#
# Static dielectric constant tensor:
#      x y z
#    x 2.247200 0.000000 0.000000 
#    y 0.000000 2.247200 0.000000 
#    z 0.000000 0.000000 2.321840 
# 
# From -- ./inp_files/5147.got.cif
#   From: 2010.05.17/outbox.cif.g08.bks.cpg/sg122_3_cif.got.tgz:5147.got - 2010.05.20 11:37:33.
