data_PCOD9560788
_publ_section_title
;
Structure prediction by ZEFSAII (Michael W. Deem and Ramdas Pophale) SiO2 
 PCOD9560788
Probable space group: I -4 2 D
;
_chemical_formula_sum "Si O2"
_cell_formula_units_Z 96
_cell_length_a 17.542036
_cell_length_b 17.542036
_cell_length_c 12.484715
_cell_angle_alpha 90.000000
_cell_angle_beta 90.000000
_cell_angle_gamma 90.000000
_cell_volume 3841.834291
_symmetry_space_group_name_H-M "I -4 2 D"
_symmetry_group_IT_number 122
_symmetry_cell_setting 'tetragonal'
loop_
_space_group_symop_operation_xyz
x,y,z
y,-x,-z
-x,-y,z
-y,x,-z
x,1/2-y,1/4-z
-x,1/2+y,1/4-z
-y,1/2-x,1/4+z
y,1/2+x,1/4+z
1/2+x,1/2+y,1/2+z
1/2+y,1/2-x,1/2-z
1/2-x,1/2-y,1/2+z
1/2-y,1/2+x,1/2-z
1/2+x,-y,3/4-z
1/2-x,y,3/4-z
1/2-y,-x,3/4+z
1/2+y,x,3/4+z
loop_
_atom_site_type_symbol
_atom_site_label
_atom_site_fract_x
_atom_site_fract_y
_atom_site_fract_z
Si Si1 0.231863 0.927745 0.014906
Si Si2 0.835738 0.893157 0.498710
Si Si3 0.414631 0.972948 0.637865
Si Si4 0.890295 0.346112 0.502086
Si Si5 0.165505 0.071834 0.723041
Si Si6 0.732750 0.318474 0.706943
O O1 0.140242 0.947335 0.011200
O O2 0.303241 0.873389 0.968048
O O3 0.226123 0.892230 0.132702
O O4 0.272918 0.007990 0.003189
O O5 0.744569 0.902941 0.497754
O O6 0.867925 0.902551 0.378496
O O7 0.864829 0.938352 0.601611
O O8 0.841582 0.803908 0.527512
O O9 0.426393 0.901992 0.557213
O O10 0.500000 0.000000 0.654544
O O11 0.376471 0.043604 0.574126
O O12 0.204385 0.154549 0.738244
O O13 0.753808 0.250000 0.625000
#
# Coordination Sequence:
#
# PCOD9560788 Si02
#       6
#    16  16  16  16  16  16
#     4  10  20  37  61  83 118 162 202 250 314 374
#     4  10  19  37  58  83 121 160 201 257 305 368
#     4  11  22  37  59  91 128 168 205 257 317 369
#     4  10  19  36  58  81 125 166 197 254 316 369
#     4  11  22  34  60  91 120 157 209 254 305 388
#     4  10  20  38  62  82 115 159 205 254 310 366
#
# _framework density 24.988064000000001
#
# number of rings (size 3 to 8) (size 9 to 14) (size 15 to 20)
#    0.000    1.667    6.667    0.500    0.000    2.667 
#    3.000    0.000   11.000    0.000    0.000    0.000 
#    0.000    0.000    0.000    0.000    0.000    0.000 
#
# Total GULP energy -267301.450721 kJ/mol
# GULP energy per Si atom -5568.780223 kJ/mol
# Density = 2.493119 g / cm^3
# Si number density = 24.988064 Si / 1000 Ang^3
#
#
#
# Elastic Constant Matrix: (Units=GPa)
#
#
# Indices 1 2 3 4 5 6 
#
# 1 101.6178 23.0996 26.7607 0.0000 0.0000 0.0000
# 2 23.0996 101.6178 26.7607 0.0000 0.0000 0.0000
# 3 26.7607 26.7607 82.2325 0.0000 0.0000 0.0000
# 4 0.0000 0.0000 0.0000 2.1769 0.0000 0.0000
# 5 0.0000 0.0000 0.0000 0.0000 2.1769 0.0000
# 6 0.0000 0.0000 0.0000 0.0000 0.0000 29.6418
#
#
#
# Elastic Compliance Matrix: (Units=1/GPa)
#
#
# Indices 1 2 3 4 5 6 
#
# 1 0.011028 -0.001708 -0.003033 0.000000 0.000000 0.000000
# 2 -0.001708 0.011028 -0.003033 0.000000 0.000000 0.000000
# 3 -0.003033 -0.003033 0.014135 0.000000 0.000000 0.000000
# 4 0.000000 0.000000 0.000000 0.459378 0.000000 0.000000
# 5 0.000000 0.000000 0.000000 0.000000 0.459378 0.000000
# 6 0.000000 0.000000 0.000000 0.000000 0.000000 0.033736
#
#
# Mechanical properties :
#
#
# Convention : Reuss Voigt Hill
#
# Bulk Modulus (GPa) = 48.44391 48.74557 48.59474
# Shear Modulus (GPa) = 4.94506 20.72226 12.83366
#
# Velocity S-wave (km/s) = 1.40828 2.88286 2.26871
# Velocity P-wave (km/s) = 4.69822 5.53453 5.13343
#
# Compressibility (1/GPa) = 0.02064243
#
# Stress axis : x y z
#
# Youngs Moduli (GPa) = 90.68014 90.68014 70.74840
#
# Poissons Ratio (x) = 0.15489 0.21457
# Poissons Ratio (y) = 0.15489 0.21457
# Poissons Ratio (z) = 0.27502 0.27502
#
# Static dielectric constant tensor:
#      x y z
#    x 2.072570 0.000000 0.000000 
#    y 0.000000 2.072570 0.000000 
#    z 0.000000 0.000000 2.070560 
# 
# From -- ./inp_files/6311.got.cif
#   From: 2010.05.17/outbox.cif.g08.bks.cpg/sg122_4_cif.got.tgz:6311.got - 2010.05.20 11:37:33.
