data_PCOD9560247
_publ_section_title
;
Structure prediction by ZEFSAII (Michael W. Deem and Ramdas Pophale) SiO2 
 PCOD9560247
Probable space group: I -4 2 M
;
_chemical_formula_sum "Si O2"
_cell_formula_units_Z 60
_cell_length_a 20.742925
_cell_length_b 20.742925
_cell_length_c 8.099858
_cell_angle_alpha 90.000000
_cell_angle_beta 90.000000
_cell_angle_gamma 90.000000
_cell_volume 3485.117296
_symmetry_space_group_name_H-M "I -4 2 M"
_symmetry_group_IT_number 121
_symmetry_cell_setting 'tetragonal'
loop_
_space_group_symop_operation_xyz
x,y,z
y,-x,-z
-x,-y,z
-y,x,-z
x,-y,-z
-x,y,-z
-y,-x,z
y,x,z
1/2+x,1/2+y,1/2+z
1/2+y,1/2-x,1/2-z
1/2-x,1/2-y,1/2+z
1/2-y,1/2+x,1/2-z
1/2+x,1/2-y,1/2-z
1/2-x,1/2+y,1/2-z
1/2-y,1/2-x,1/2+z
1/2+y,1/2+x,1/2+z
loop_
_atom_site_type_symbol
_atom_site_label
_atom_site_fract_x
_atom_site_fract_y
_atom_site_fract_z
Si Si1 0.741544 0.363143 0.098743
Si Si2 0.682394 0.130612 0.920356
Si Si3 0.948287 0.635378 0.790917
Si Si4 0.000000 0.500000 0.250000
Si Si5 0.217264 0.500000 0.000000
O O1 0.676916 0.323085 0.073821
O O2 0.759303 0.369686 0.292234
O O3 0.801339 0.324104 0.015957
O O4 0.743253 0.434111 0.018720
O O5 0.617168 0.124919 0.813318
O O6 0.677816 0.073524 0.053607
O O7 0.994259 0.672167 0.662249
O O8 0.974239 0.564836 0.837260
#
# Coordination Sequence:
#
# PCOD9560247 Si02
#       5
#    16  16  16   4   8
#     4  10  19  34  54  75  99 131 174 218 267 318
#     4   9  19  33  50  71 100 136 176 221 255 291
#     4  10  20  31  44  69 103 141 179 214 249 296
#     4  12  20  26  44  66 100 150 184 198 232 294
#     4  10  22  35  48  71 104 134 168 220 270 314
#
# _framework density 17.216063999999999
#
# number of rings (size 3 to 8) (size 9 to 14) (size 15 to 20)
#    0.000    2.133    0.000    5.600    0.000    8.000 
#    0.000    1.333    0.000    0.400    0.000    0.000 
#    0.000    0.000    0.000    0.000    0.000    0.000 
#
# Total GULP energy -167425.451355 kJ/mol
# GULP energy per Si atom -5580.848378 kJ/mol
# Density = 1.717688 g / cm^3
# Si number density = 17.216064 Si / 1000 Ang^3
#
#
#
# Elastic Constant Matrix: (Units=GPa)
#
#
# Indices 1 2 3 4 5 6 
#
# 1 86.0864 56.3799 27.0112 0.0000 0.0000 0.0000
# 2 56.3799 86.0807 27.0097 0.0000 0.0000 0.0000
# 3 27.0112 27.0097 91.5369 0.0000 0.0000 0.0000
# 4 0.0000 0.0000 0.0000 18.4186 0.0000 0.0000
# 5 0.0000 0.0000 0.0000 0.0000 18.4194 0.0000
# 6 0.0000 0.0000 0.0000 0.0000 0.0000 39.9887
#
#
#
# Elastic Compliance Matrix: (Units=1/GPa)
#
#
# Indices 1 2 3 4 5 6 
#
# 1 0.020784 -0.012881 -0.002332 0.000000 0.000000 0.000000
# 2 -0.012881 0.020785 -0.002332 0.000000 0.000000 0.000000
# 3 -0.002332 -0.002332 0.012301 0.000000 0.000000 0.000000
# 4 0.000000 0.000000 0.000000 0.054293 0.000000 0.000000
# 5 0.000000 0.000000 0.000000 0.000000 0.054291 0.000000
# 6 0.000000 0.000000 0.000000 0.000000 0.000000 0.025007
#
#
# Mechanical properties :
#
#
# Convention : Reuss Voigt Hill
#
# Bulk Modulus (GPa) = 53.24954 53.83395 53.54175
# Shear Modulus (GPa) = 21.85201 25.58556 23.71878
#
# Velocity S-wave (km/s) = 3.56656 3.85924 3.71578
# Velocity P-wave (km/s) = 6.92515 7.15512 7.04108
#
# Compressibility (1/GPa) = 0.01877950
#
# Stress axis : x y z
#
# Youngs Moduli (GPa) = 48.11356 48.11062 81.29476
#
# Poissons Ratio (x) = 0.61972 0.18960
# Poissons Ratio (y) = 0.61976 0.18959
# Poissons Ratio (z) = 0.11221 0.11220
#
# Static dielectric constant tensor:
#      x y z
#    x 1.588940 0.000000 0.000000 
#    y 0.000000 1.588940 0.000000 
#    z 0.000000 0.000000 1.657290 
# 
# From -- ./inp_files/1415.got.cif
#   From: 2010.05.17/outbox.cif.g08.bks.cpg/sg121_1_cif.got.tgz:1415.got - 2010.05.20 11:32:06.
