data_PCOD9560989
_publ_section_title
;
Structure prediction by ZEFSAII (Michael W. Deem and Ramdas Pophale) SiO2 
 PCOD9560989
Probable space group: I -4 2 D
;
_chemical_formula_sum "Si O2"
_cell_formula_units_Z 80
_cell_length_a 23.008679
_cell_length_b 23.008679
_cell_length_c 7.055788
_cell_angle_alpha 90.000000
_cell_angle_beta 90.000000
_cell_angle_gamma 90.000000
_cell_volume 3735.329294
_symmetry_space_group_name_H-M "I -4 2 D"
_symmetry_group_IT_number 122
_symmetry_cell_setting 'tetragonal'
loop_
_space_group_symop_operation_xyz
x,y,z
y,-x,-z
-x,-y,z
-y,x,-z
x,1/2-y,1/4-z
-x,1/2+y,1/4-z
-y,1/2-x,1/4+z
y,1/2+x,1/4+z
1/2+x,1/2+y,1/2+z
1/2+y,1/2-x,1/2-z
1/2-x,1/2-y,1/2+z
1/2-y,1/2+x,1/2-z
1/2+x,-y,3/4-z
1/2-x,y,3/4-z
1/2-y,-x,3/4+z
1/2+y,x,3/4+z
loop_
_atom_site_type_symbol
_atom_site_label
_atom_site_fract_x
_atom_site_fract_y
_atom_site_fract_z
Si Si1 0.750000 0.048459 0.875000
Si Si2 0.344693 0.329098 0.722099
Si Si3 0.186158 0.431906 0.781997
Si Si4 0.244937 0.250000 0.625000
Si Si5 0.143178 0.831661 0.205418
Si Si6 0.807065 0.457113 0.990393
O O1 0.702698 0.093879 0.958249
O O2 0.717820 0.020004 0.694163
O O3 0.347841 0.378304 0.877314
O O4 0.294328 0.281793 0.758767
O O5 0.325338 0.356303 0.520778
O O6 0.250000 0.427759 0.875000
O O7 0.186153 0.416177 0.560966
O O8 0.164024 0.492964 0.862326
O O9 0.205311 0.196936 0.704418
O O10 0.155153 0.900147 0.230725
O O11 0.750000 0.438161 0.875000
#
# Coordination Sequence:
#
# PCOD9560989 Si02
#       6
#     8  16  16   8  16  16
#     4   9  20  36  58  78 112 150 189 220 288 356
#     4  10  22  33  53  85 110 147 183 227 279 342
#     4  11  23  34  53  81 114 148 186 230 282 338
#     4  11  20  30  54  80 116 146 177 220 268 346
#     4  11  22  36  55  81 112 149 188 228 276 341
#     4  10  21  37  54  77 113 154 187 229 281 338
#
# _framework density 21.417121999999999
#
# number of rings (size 3 to 8) (size 9 to 14) (size 15 to 20)
#    0.000    1.600    3.000    1.800    8.400    3.200 
#    0.000    0.000    0.000    0.600    0.000    0.000 
#    0.000    0.000    0.000    0.000    0.000    0.000 
#
# Total GULP energy -223335.425446 kJ/mol
# GULP energy per Si atom -5583.385636 kJ/mol
# Density = 2.136838 g / cm^3
# Si number density = 21.417122 Si / 1000 Ang^3
#
#
#
# Elastic Constant Matrix: (Units=GPa)
#
#
# Indices 1 2 3 4 5 6 
#
# 1 73.4811 0.4575 13.6909 0.0000 0.0000 0.0000
# 2 0.4575 73.4811 13.6909 0.0000 0.0000 0.0000
# 3 13.6909 13.6909 103.8699 0.0000 0.0000 0.0000
# 4 0.0000 0.0000 0.0000 37.7630 0.0000 0.0000
# 5 0.0000 0.0000 0.0000 0.0000 37.7630 0.0000
# 6 0.0000 0.0000 0.0000 0.0000 0.0000 9.0762
#
#
#
# Elastic Compliance Matrix: (Units=1/GPa)
#
#
# Indices 1 2 3 4 5 6 
#
# 1 0.013956 0.000262 -0.001874 0.000000 0.000000 0.000000
# 2 0.000262 0.013956 -0.001874 0.000000 0.000000 0.000000
# 3 -0.001874 -0.001874 0.010121 0.000000 0.000000 0.000000
# 4 0.000000 0.000000 0.000000 0.026481 0.000000 0.000000
# 5 0.000000 0.000000 0.000000 0.000000 0.026481 0.000000
# 6 0.000000 0.000000 0.000000 0.000000 0.000000 0.110178
#
#
# Mechanical properties :
#
#
# Convention : Reuss Voigt Hill
#
# Bulk Modulus (GPa) = 32.19323 34.05677 33.12500
# Shear Modulus (GPa) = 22.88327 31.78663 27.33495
#
# Velocity S-wave (km/s) = 3.27227 3.85667 3.57643
# Velocity P-wave (km/s) = 5.41675 5.98064 5.70567
#
# Compressibility (1/GPa) = 0.03106244
#
# Stress axis : x y z
#
# Youngs Moduli (GPa) = 71.65122 71.65122 98.79972
#
# Poissons Ratio (x) = -0.01879 0.18517
# Poissons Ratio (y) = -0.01879 0.18517
# Poissons Ratio (z) = 0.13429 0.13429
#
# Static dielectric constant tensor:
#      x y z
#    x 1.798260 0.000000 0.000000 
#    y 0.000000 1.798260 0.000000 
#    z 0.000000 0.000000 2.563570 
# 
# From -- ./inp_files/2803.got.cif
#   From: 2010.05.17/outbox.cif.g08.bks.cpg/sg122_2_cif.got.tgz:2803.got - 2010.05.20 11:37:33.
