data_PCOD9560387
_publ_section_title
;
Structure prediction by ZEFSAII (Michael W. Deem and Ramdas Pophale) SiO2 
 PCOD9560387
Probable space group: I -4 2 M
;
_chemical_formula_sum "Si O2"
_cell_formula_units_Z 64
_cell_length_a 16.529585
_cell_length_b 16.529585
_cell_length_c 11.460594
_cell_angle_alpha 90.000000
_cell_angle_beta 90.000000
_cell_angle_gamma 90.000000
_cell_volume 3131.345783
_symmetry_space_group_name_H-M "I -4 2 M"
_symmetry_group_IT_number 121
_symmetry_cell_setting 'tetragonal'
loop_
_space_group_symop_operation_xyz
x,y,z
y,-x,-z
-x,-y,z
-y,x,-z
x,-y,-z
-x,y,-z
-y,-x,z
y,x,z
1/2+x,1/2+y,1/2+z
1/2+y,1/2-x,1/2-z
1/2-x,1/2-y,1/2+z
1/2-y,1/2+x,1/2-z
1/2+x,1/2-y,1/2-z
1/2-x,1/2+y,1/2-z
1/2-y,1/2-x,1/2+z
1/2+y,1/2+x,1/2+z
loop_
_atom_site_type_symbol
_atom_site_label
_atom_site_fract_x
_atom_site_fract_y
_atom_site_fract_z
Si Si1 0.199050 0.519771 0.720721
Si Si2 0.998548 0.872466 0.860132
Si Si3 0.423062 0.883525 0.083323
Si Si4 0.589977 0.725809 0.051123
O O1 0.282295 0.482368 0.676842
O O2 0.140896 0.460636 0.792022
O O3 0.147570 0.555226 0.614572
O O4 0.234252 0.580537 0.820456
O O5 0.066707 0.933294 0.814623
O O6 0.912278 0.912278 0.823453
O O7 0.000000 0.875274 0.000000
O O8 0.500000 0.906071 0.000000
O O9 0.385929 0.801927 0.029043
O O10 0.652161 0.652161 0.047659
O O11 0.500000 0.703248 0.000000
#
# Coordination Sequence:
#
# PCOD9560387 Si02
#       4
#    16  16  16  16
#     4  10  20  38  59  81 111 155 197 238 300 363
#     4   9  19  35  55  83 116 147 186 236 288 350
#     4   9  22  40  56  82 117 149 194 252 301 354
#     4   9  20  37  56  84 120 154 197 250 301 362
#
# _framework density 20.438496000000001
#
# number of rings (size 3 to 8) (size 9 to 14) (size 15 to 20)
#    0.000    3.250    0.000    1.500    0.000   10.750 
#    0.000    7.500    0.000    0.000    0.000    0.000 
#    0.000    0.000    0.000    0.000    0.000    0.000 
#
# Total GULP energy -178294.223598 kJ/mol
# GULP energy per Si atom -5571.694487 kJ/mol
# Density = 2.039198 g / cm^3
# Si number density = 20.438496 Si / 1000 Ang^3
#
#
#
# Elastic Constant Matrix: (Units=GPa)
#
#
# Indices 1 2 3 4 5 6 
#
# 1 68.8766 46.1515 33.7576 0.0000 0.0000 0.0000
# 2 46.1515 68.8762 33.7573 0.0000 0.0000 0.0000
# 3 33.7576 33.7573 57.6777 0.0000 0.0000 0.0000
# 4 0.0000 0.0000 0.0000 13.2696 0.0000 0.0000
# 5 0.0000 0.0000 0.0000 0.0000 13.2696 0.0000
# 6 0.0000 0.0000 0.0000 0.0000 0.0000 28.1919
#
#
#
# Elastic Compliance Matrix: (Units=1/GPa)
#
#
# Indices 1 2 3 4 5 6 
#
# 1 0.028624 -0.015381 -0.007751 0.000000 0.000000 0.000000
# 2 -0.015381 0.028624 -0.007751 0.000000 0.000000 0.000000
# 3 -0.007751 -0.007751 0.026410 0.000000 0.000000 0.000000
# 4 0.000000 0.000000 0.000000 0.075360 0.000000 0.000000
# 5 0.000000 0.000000 0.000000 0.000000 0.075360 0.000000
# 6 0.000000 0.000000 0.000000 0.000000 0.000000 0.035471
#
#
# Mechanical properties :
#
#
# Convention : Reuss Voigt Hill
#
# Bulk Modulus (GPa) = 45.67650 46.97371 46.32510
# Shear Modulus (GPa) = 14.75313 16.39718 15.57515
#
# Velocity S-wave (km/s) = 2.68960 2.83551 2.76352
# Velocity P-wave (km/s) = 5.66057 5.80973 5.73564
#
# Compressibility (1/GPa) = 0.02189309
#
# Stress axis : x y z
#
# Youngs Moduli (GPa) = 34.93619 34.93608 37.86403
#
# Poissons Ratio (x) = 0.53735 0.29347
# Poissons Ratio (y) = 0.53735 0.29347
# Poissons Ratio (z) = 0.27078 0.27078
#
# Static dielectric constant tensor:
#      x y z
#    x 1.754550 0.000000 0.000000 
#    y 0.000000 1.754550 0.000000 
#    z 0.000000 0.000000 1.776270 
# 
# From -- ./inp_files/2897.got.cif
#   From: 2010.05.17/outbox.cif.g08.bks.cpg/sg121_2_cif.got.tgz:2897.got - 2010.05.20 11:32:06.
