data_PCOD9560581
_publ_section_title
;
Structure prediction by ZEFSAII (Michael W. Deem and Ramdas Pophale) SiO2 
 PCOD9560581
Probable space group: I -4 2 M
;
_chemical_formula_sum "Si O2"
_cell_formula_units_Z 60
_cell_length_a 10.661592
_cell_length_b 10.661592
_cell_length_c 23.352688
_cell_angle_alpha 90.000000
_cell_angle_beta 90.000000
_cell_angle_gamma 90.000000
_cell_volume 2654.489396
_symmetry_space_group_name_H-M "I -4 2 M"
_symmetry_group_IT_number 121
_symmetry_cell_setting 'tetragonal'
loop_
_space_group_symop_operation_xyz
x,y,z
y,-x,-z
-x,-y,z
-y,x,-z
x,-y,-z
-x,y,-z
-y,-x,z
y,x,z
1/2+x,1/2+y,1/2+z
1/2+y,1/2-x,1/2-z
1/2-x,1/2-y,1/2+z
1/2-y,1/2+x,1/2-z
1/2+x,1/2-y,1/2-z
1/2-x,1/2+y,1/2-z
1/2-y,1/2-x,1/2+z
1/2+y,1/2+x,1/2+z
loop_
_atom_site_type_symbol
_atom_site_label
_atom_site_fract_x
_atom_site_fract_y
_atom_site_fract_z
Si Si1 0.500000 0.500000 0.575765
Si Si2 0.864277 0.864277 0.176734
Si Si3 0.282710 0.717291 0.914605
Si Si4 0.851115 0.458292 0.104659
Si Si5 0.031021 0.304007 0.265389
Si Si6 0.700764 0.700764 0.462328
O O1 0.419671 0.419671 0.619959
O O2 0.595339 0.404662 0.545666
O O3 0.766928 0.766928 0.146990
O O4 0.965446 0.805590 0.219676
O O5 0.427665 0.763400 0.917823
O O6 0.221309 0.778692 0.970581
O O7 0.796064 0.433138 0.168337
O O8 0.840831 0.332310 0.067140
O O9 0.000000 0.500000 0.108371
O O10 0.130489 0.398531 0.237900
#
# Coordination Sequence:
#
# PCOD9560581 Si02
#       6
#     4   8   8  16  16   8
#     4  12  28  47  70 106 148 190 245 314 380 438
#     4  12  25  41  69 106 140 184 242 300 386 453
#     4  12  26  47  76 106 146 202 250 313 382 453
#     4  12  25  48  75 108 149 201 255 314 390 456
#     4  11  20  40  69  99 140 184 234 304 378 452
#     4  12  29  48  74 109 150 201 264 316 371 467
#
# _framework density 22.603214999999999
#
# number of rings (size 3 to 8) (size 9 to 14) (size 15 to 20)
#    0.000    0.267    5.333    4.800    0.000    8.533 
#    0.000    1.333    0.000    0.000    0.000    0.000 
#    0.000    0.000    0.000    0.000    0.000    0.000 
#
# Total GULP energy -167508.850963 kJ/mol
# GULP energy per Si atom -5583.628365 kJ/mol
# Density = 2.255177 g / cm^3
# Si number density = 22.603215 Si / 1000 Ang^3
#
#
#
# Elastic Constant Matrix: (Units=GPa)
#
#
# Indices 1 2 3 4 5 6 
#
# 1 116.1855 75.5508 59.8973 0.0000 0.0000 0.0000
# 2 75.5508 116.1839 59.8973 0.0000 0.0000 0.0000
# 3 59.8973 59.8973 181.2733 0.0000 0.0000 0.0000
# 4 0.0000 0.0000 0.0000 45.6474 0.0000 0.0000
# 5 0.0000 0.0000 0.0000 0.0000 45.6377 0.0000
# 6 0.0000 0.0000 0.0000 0.0000 0.0000 -88.4369
#
#
#
# Elastic Compliance Matrix: (Units=1/GPa)
#
#
# Indices 1 2 3 4 5 6 
#
# 1 0.015591 -0.009019 -0.002172 0.000000 0.000000 0.000000
# 2 -0.009019 0.015591 -0.002172 0.000000 0.000000 0.000000
# 3 -0.002172 -0.002172 0.006952 0.000000 0.000000 0.000000
# 4 0.000000 0.000000 0.000000 0.021907 0.000000 0.000000
# 5 0.000000 0.000000 0.000000 0.000000 0.021912 0.000000
# 6 0.000000 0.000000 0.000000 0.000000 0.000000 -0.011307
#
#
# Mechanical properties :
#
#
# Convention : Reuss Voigt Hill
#
# Bulk Modulus (GPa) = 87.64466 89.37039 88.50753
# Shear Modulus (GPa) = 49.42037 15.12278 32.27158
#
# Velocity S-wave (km/s) = 4.68100 2.58941 3.78265
# Velocity P-wave (km/s) = 8.25077 6.96884 7.63675
#
# Compressibility (1/GPa) = 0.01140971
#
# Stress axis : x y z
#
# Youngs Moduli (GPa) = 64.13941 64.13833 143.84993
#
# Poissons Ratio (x) = 0.57845 0.31239
# Poissons Ratio (y) = 0.57846 0.31240
# Poissons Ratio (z) = 0.13929 0.13929
#
# Static dielectric constant tensor:
#      x y z
#    x 1.728850 0.000000 0.000000 
#    y 0.000000 1.728880 0.000000 
#    z 0.000000 0.000000 1.861140 
# 
# From -- ./inp_files/6076.got.cif
#   From: 2010.05.17/outbox.cif.g08.bks.cpg/sg121_4_cif.got.tgz:6076.got - 2010.05.20 11:32:06.
