data_PCOD9560933
_publ_section_title
;
Structure prediction by ZEFSAII (Michael W. Deem and Ramdas Pophale) SiO2 
 PCOD9560933
Probable space group: I -4 2 D
;
_chemical_formula_sum "Si O2"
_cell_formula_units_Z 72
_cell_length_a 17.767422
_cell_length_b 17.767422
_cell_length_c 10.620692
_cell_angle_alpha 90.000000
_cell_angle_beta 90.000000
_cell_angle_gamma 90.000000
_cell_volume 3352.753693
_symmetry_space_group_name_H-M "I -4 2 D"
_symmetry_group_IT_number 122
_symmetry_cell_setting 'tetragonal'
loop_
_space_group_symop_operation_xyz
x,y,z
y,-x,-z
-x,-y,z
-y,x,-z
x,1/2-y,1/4-z
-x,1/2+y,1/4-z
-y,1/2-x,1/4+z
y,1/2+x,1/4+z
1/2+x,1/2+y,1/2+z
1/2+y,1/2-x,1/2-z
1/2-x,1/2-y,1/2+z
1/2-y,1/2+x,1/2-z
1/2+x,-y,3/4-z
1/2-x,y,3/4-z
1/2-y,-x,3/4+z
1/2+y,x,3/4+z
loop_
_atom_site_type_symbol
_atom_site_label
_atom_site_fract_x
_atom_site_fract_y
_atom_site_fract_z
Si Si1 0.936310 0.602257 0.211818
Si Si2 0.922966 0.750000 0.625000
Si Si3 0.815961 0.164066 0.154378
Si Si4 0.315115 0.014223 0.982876
Si Si5 0.125950 0.505971 0.749448
O O1 0.901266 0.519130 0.223185
O O2 0.884599 0.664650 0.279582
O O3 0.957383 0.621991 0.069872
O O4 0.871483 0.757732 0.748491
O O5 0.974898 0.677001 0.631718
O O6 0.795835 0.250000 0.125000
O O7 0.898111 0.164656 0.219863
O O8 0.250000 0.004706 0.875000
O O9 0.316067 0.000961 0.131635
O O10 0.075211 0.432156 0.764402
#
# Coordination Sequence:
#
# PCOD9560933 Si02
#       5
#    16   8  16  16  16
#     4   9  19  34  65  95 120 162 218 272 332 394
#     4  12  24  46  66  94 138 182 222 278 358 404
#     4  10  22  42  63  93 134 171 218 284 335 410
#     4  10  20  40  64  97 131 172 225 279 338 402
#     4  11  25  44  70 103 138 180 232 291 345 419
#
# _framework density 21.474886999999999
#
# number of rings (size 3 to 8) (size 9 to 14) (size 15 to 20)
#    0.000    1.778    2.222    1.333    3.111    1.778 
#    8.000    0.000    0.000    0.000    0.000    0.000 
#    0.000    0.000    0.000    0.000    0.000    0.000 
#
# Total GULP energy -200652.688513 kJ/mol
# GULP energy per Si atom -5573.685792 kJ/mol
# Density = 2.142601 g / cm^3
# Si number density = 21.474887 Si / 1000 Ang^3
#
#
#
# Elastic Constant Matrix: (Units=GPa)
#
#
# Indices 1 2 3 4 5 6 
#
# 1 62.3975 12.9325 -1.3530 0.0000 0.0000 0.0000
# 2 12.9325 62.3975 -1.3530 0.0000 0.0000 0.0000
# 3 -1.3530 -1.3530 36.6646 0.0000 0.0000 0.0000
# 4 0.0000 0.0000 0.0000 26.1812 0.0000 0.0000
# 5 0.0000 0.0000 0.0000 0.0000 26.1812 0.0000
# 6 0.0000 0.0000 0.0000 0.0000 0.0000 23.6804
#
#
#
# Elastic Compliance Matrix: (Units=1/GPa)
#
#
# Indices 1 2 3 4 5 6 
#
# 1 0.016754 -0.003462 0.000491 0.000000 0.000000 0.000000
# 2 -0.003462 0.016754 0.000491 0.000000 0.000000 0.000000
# 3 0.000491 0.000491 0.027310 0.000000 0.000000 0.000000
# 4 0.000000 0.000000 0.000000 0.038195 0.000000 0.000000
# 5 0.000000 0.000000 0.000000 0.000000 0.038195 0.000000
# 6 0.000000 0.000000 0.000000 0.000000 0.000000 0.042229
#
#
# Mechanical properties :
#
#
# Convention : Reuss Voigt Hill
#
# Bulk Modulus (GPa) = 17.90268 20.21254 19.05761
# Shear Modulus (GPa) = 24.62813 25.29077 24.95945
#
# Velocity S-wave (km/s) = 3.39017 3.43547 3.41290
# Velocity P-wave (km/s) = 4.86611 5.01690 4.94208
#
# Compressibility (1/GPa) = 0.05585755
#
# Stress axis : x y z
#
# Youngs Moduli (GPa) = 59.68573 59.68573 36.61603
#
# Poissons Ratio (x) = 0.20663 -0.01796
# Poissons Ratio (y) = 0.20663 -0.01796
# Poissons Ratio (z) = -0.02928 -0.02928
#
# Static dielectric constant tensor:
#      x y z
#    x 1.791380 0.000000 0.000000 
#    y 0.000000 1.791380 0.000000 
#    z 0.000000 0.000000 1.792300 
# 
# From -- ./inp_files/4147.got.cif
#   From: 2010.05.17/outbox.cif.g08.bks.cpg/sg122_3_cif.got.tgz:4147.got - 2010.05.20 11:37:33.
