data_PCOD9560162
_publ_section_title
;
Structure prediction by ZEFSAII (Michael W. Deem and Ramdas Pophale) SiO2 
 PCOD9560162
Probable space group: I -4 2 M
;
_chemical_formula_sum "Si O2"
_cell_formula_units_Z 96
_cell_length_a 19.599329
_cell_length_b 19.599329
_cell_length_c 10.600764
_cell_angle_alpha 90.000000
_cell_angle_beta 90.000000
_cell_angle_gamma 90.000000
_cell_volume 4072.110669
_symmetry_space_group_name_H-M "I -4 2 M"
_symmetry_group_IT_number 121
_symmetry_cell_setting 'tetragonal'
loop_
_space_group_symop_operation_xyz
x,y,z
y,-x,-z
-x,-y,z
-y,x,-z
x,-y,-z
-x,y,-z
-y,-x,z
y,x,z
1/2+x,1/2+y,1/2+z
1/2+y,1/2-x,1/2-z
1/2-x,1/2-y,1/2+z
1/2-y,1/2+x,1/2-z
1/2+x,1/2-y,1/2-z
1/2-x,1/2+y,1/2-z
1/2-y,1/2-x,1/2+z
1/2+y,1/2+x,1/2+z
loop_
_atom_site_type_symbol
_atom_site_label
_atom_site_fract_x
_atom_site_fract_y
_atom_site_fract_z
Si Si1 0.288482 0.393397 0.451672
Si Si2 0.793732 0.101829 0.750493
Si Si3 0.218595 0.562160 0.901983
Si Si4 0.048058 0.644176 0.744173
Si Si5 0.869030 0.597954 0.481286
Si Si6 0.647206 0.459194 0.780445
O O1 0.318122 0.318122 0.420467
O O2 0.301570 0.404314 0.598912
O O3 0.208480 0.406256 0.434780
O O4 0.332094 0.443656 0.364138
O O5 0.828202 0.171799 0.707788
O O6 0.713121 0.093963 0.731638
O O7 0.836409 0.038171 0.694016
O O8 0.172243 0.525997 0.795144
O O9 0.174077 0.621363 0.960716
O O10 0.293012 0.580877 0.854855
O O11 0.225679 0.500000 0.000000
O O12 0.075216 0.595446 0.631572
O O13 0.052417 0.621873 0.890839
O O14 0.574056 0.425945 0.806661
#
# Coordination Sequence:
#
# PCOD9560162 Si02
#       6
#    16  16  16  16  16  16
#     4   9  18  30  48  77 106 130 169 226 277 322
#     4   9  18  33  50  73 109 146 177 218 272 322
#     4   9  19  35  52  76 109 143 177 217 271 328
#     4   9  19  33  53  80 107 138 177 220 264 317
#     4  10  18  33  55  77 104 140 175 212 270 330
#     4  10  19  32  51  75 103 138 183 227 264 314
#
# _framework density 23.574998000000001
#
# number of rings (size 3 to 8) (size 9 to 14) (size 15 to 20)
#    0.000    2.667    0.000    1.500    0.000    1.667 
#    0.000   12.500    0.000    3.500    0.000   12.833 
#    0.000    0.000    0.000    0.000    0.000    0.000 
#
# Total GULP energy -267801.682537 kJ/mol
# GULP energy per Si atom -5579.201720 kJ/mol
# Density = 2.352134 g / cm^3
# Si number density = 23.574998 Si / 1000 Ang^3
#
#
#
# Elastic Constant Matrix: (Units=GPa)
#
#
# Indices 1 2 3 4 5 6 
#
# 1 43.0359 27.2808 23.9677 0.0000 0.0000 0.0000
# 2 27.2808 43.0289 23.9662 0.0000 0.0000 0.0000
# 3 23.9677 23.9662 111.7305 0.0000 0.0000 0.0000
# 4 0.0000 0.0000 0.0000 24.8536 0.0000 0.0000
# 5 0.0000 0.0000 0.0000 0.0000 24.8539 0.0000
# 6 0.0000 0.0000 0.0000 0.0000 0.0000 26.1600
#
#
#
# Elastic Compliance Matrix: (Units=1/GPa)
#
#
# Indices 1 2 3 4 5 6 
#
# 1 0.040068 -0.023414 -0.003573 0.000000 0.000000 0.000000
# 2 -0.023414 0.040075 -0.003574 0.000000 0.000000 0.000000
# 3 -0.003573 -0.003574 0.010483 0.000000 0.000000 0.000000
# 4 0.000000 0.000000 0.000000 0.040236 0.000000 0.000000
# 5 0.000000 0.000000 0.000000 0.000000 0.040235 0.000000
# 6 0.000000 0.000000 0.000000 0.000000 0.000000 0.038226
#
#
# Mechanical properties :
#
#
# Convention : Reuss Voigt Hill
#
# Bulk Modulus (GPa) = 33.89125 38.69162 36.29143
# Shear Modulus (GPa) = 17.83935 23.34555 20.59245
#
# Velocity S-wave (km/s) = 2.75381 3.15027 2.95869
# Velocity P-wave (km/s) = 4.95161 5.44794 5.20569
#
# Compressibility (1/GPa) = 0.02950614
#
# Stress axis : x y z
#
# Youngs Moduli (GPa) = 24.95736 24.95315 95.39175
#
# Poissons Ratio (x) = 0.58424 0.34083
# Poissons Ratio (y) = 0.58434 0.34089
# Poissons Ratio (z) = 0.08917 0.08917
#
# Static dielectric constant tensor:
#      x y z
#    x 1.915460 0.000000 0.000000 
#    y 0.000000 1.915460 0.000000 
#    z 0.000000 0.000000 1.988210 
# 
# From -- ./inp_files/3328.got.cif
#   From: 2010.05.17/outbox.cif.g08.bks.cpg/sg121_2_cif.got.tgz:3328.got - 2010.05.20 11:32:06.
