data_PCOD9560958
_publ_section_title
;
Structure prediction by ZEFSAII (Michael W. Deem and Ramdas Pophale) SiO2 
 PCOD9560958
Probable space group: I -4 2 D
;
_chemical_formula_sum "Si O2"
_cell_formula_units_Z 64
_cell_length_a 19.467568
_cell_length_b 19.467568
_cell_length_c 8.568166
_cell_angle_alpha 90.000000
_cell_angle_beta 90.000000
_cell_angle_gamma 90.000000
_cell_volume 3247.216706
_symmetry_space_group_name_H-M "I -4 2 D"
_symmetry_group_IT_number 122
_symmetry_cell_setting 'tetragonal'
loop_
_space_group_symop_operation_xyz
x,y,z
y,-x,-z
-x,-y,z
-y,x,-z
x,1/2-y,1/4-z
-x,1/2+y,1/4-z
-y,1/2-x,1/4+z
y,1/2+x,1/4+z
1/2+x,1/2+y,1/2+z
1/2+y,1/2-x,1/2-z
1/2-x,1/2-y,1/2+z
1/2-y,1/2+x,1/2-z
1/2+x,-y,3/4-z
1/2-x,y,3/4-z
1/2-y,-x,3/4+z
1/2+y,x,3/4+z
loop_
_atom_site_type_symbol
_atom_site_label
_atom_site_fract_x
_atom_site_fract_y
_atom_site_fract_z
Si Si1 0.750000 0.723284 0.375000
Si Si2 0.788316 0.889448 0.630078
Si Si3 0.150154 0.839888 0.705493
Si Si4 0.506379 0.881151 0.504028
Si Si5 0.000000 0.500000 0.750000
Si Si6 0.500000 0.000000 0.750000
O O1 0.784936 0.675273 0.504091
O O2 0.805971 0.774412 0.300220
O O3 0.832953 0.874938 0.474269
O O4 0.711021 0.895987 0.561830
O O5 0.820518 0.952760 0.722340
O O6 0.147208 0.916631 0.765197
O O7 0.504235 0.932811 0.356798
O O8 0.489568 0.931712 0.646926
#
# Coordination Sequence:
#
# PCOD9560958 Si02
#       6
#     8  16  16  16   4   4
#     4  10  22  44  62 100 138 158 234 284 328 396
#     4  10  22  42  66  95 132 173 221 275 338 395
#     4  10  21  43  68  97 126 177 223 281 332 402
#     4  11  22  45  66  96 132 178 216 282 335 416
#     4  10  20  42  68  90 132 162 224 278 328 402
#     4  10  28  42  64  98 144 170 228 270 352 394
#
# _framework density 19.709187
#
# number of rings (size 3 to 8) (size 9 to 14) (size 15 to 20)
#    0.000    2.000    2.500    3.000    3.500    0.000 
#   22.500    0.000    0.000    0.000    0.000    0.000 
#    0.000    0.000    0.000    0.000    0.000    0.000 
#
# Total GULP energy -178657.007427 kJ/mol
# GULP energy per Si atom -5583.031482 kJ/mol
# Density = 1.966433 g / cm^3
# Si number density = 19.709187 Si / 1000 Ang^3
#
#
#
# Elastic Constant Matrix: (Units=GPa)
#
#
# Indices 1 2 3 4 5 6 
#
# 1 133.2575 72.8226 47.9785 0.0000 0.0000 0.0000
# 2 72.8226 133.2575 47.9785 0.0000 0.0000 0.0000
# 3 47.9785 47.9785 96.7750 0.0000 0.0000 0.0000
# 4 0.0000 0.0000 0.0000 18.1320 0.0000 0.0000
# 5 0.0000 0.0000 0.0000 0.0000 18.1320 0.0000
# 6 0.0000 0.0000 0.0000 0.0000 0.0000 25.9005
#
#
#
# Elastic Compliance Matrix: (Units=1/GPa)
#
#
# Indices 1 2 3 4 5 6 
#
# 1 0.011428 -0.005119 -0.003128 0.000000 0.000000 0.000000
# 2 -0.005119 0.011428 -0.003128 0.000000 0.000000 0.000000
# 3 -0.003128 -0.003128 0.013435 0.000000 0.000000 0.000000
# 4 0.000000 0.000000 0.000000 0.055151 0.000000 0.000000
# 5 0.000000 0.000000 0.000000 0.000000 0.055151 0.000000
# 6 0.000000 0.000000 0.000000 0.000000 0.000000 0.038609
#
#
# Mechanical properties :
#
#
# Convention : Reuss Voigt Hill
#
# Bulk Modulus (GPa) = 73.84850 77.87211 75.86030
# Shear Modulus (GPa) = 23.53337 25.40026 24.46681
#
# Velocity S-wave (km/s) = 3.45922 3.59381 3.52716
# Velocity P-wave (km/s) = 7.31474 7.53771 7.42706
#
# Compressibility (1/GPa) = 0.01354124
#
# Stress axis : x y z
#
# Youngs Moduli (GPa) = 87.50588 87.50588 74.43480
#
# Poissons Ratio (x) = 0.44794 0.23281
# Poissons Ratio (y) = 0.44794 0.23281
# Poissons Ratio (z) = 0.27370 0.27370
#
# Static dielectric constant tensor:
#      x y z
#    x 1.673870 0.000000 0.000000 
#    y 0.000000 1.673870 0.000000 
#    z 0.000000 0.000000 1.731660 
# 
# From -- ./inp_files/2617.got.cif
#   From: 2010.05.17/outbox.cif.g08.bks.cpg/sg122_2_cif.got.tgz:2617.got - 2010.05.20 11:37:33.
