data_PCOD9560880
_publ_section_title
;
Structure prediction by ZEFSAII (Michael W. Deem and Ramdas Pophale) SiO2 
 PCOD9560880
Probable space group: I -4 2 D
;
_chemical_formula_sum "Si O2"
_cell_formula_units_Z 52
_cell_length_a 15.986560
_cell_length_b 15.986560
_cell_length_c 9.310612
_cell_angle_alpha 90.000000
_cell_angle_beta 90.000000
_cell_angle_gamma 90.000000
_cell_volume 2379.514046
_symmetry_space_group_name_H-M "I -4 2 D"
_symmetry_group_IT_number 122
_symmetry_cell_setting 'tetragonal'
loop_
_space_group_symop_operation_xyz
x,y,z
y,-x,-z
-x,-y,z
-y,x,-z
x,1/2-y,1/4-z
-x,1/2+y,1/4-z
-y,1/2-x,1/4+z
y,1/2+x,1/4+z
1/2+x,1/2+y,1/2+z
1/2+y,1/2-x,1/2-z
1/2-x,1/2-y,1/2+z
1/2-y,1/2+x,1/2-z
1/2+x,-y,3/4-z
1/2-x,y,3/4-z
1/2-y,-x,3/4+z
1/2+y,x,3/4+z
loop_
_atom_site_type_symbol
_atom_site_label
_atom_site_fract_x
_atom_site_fract_y
_atom_site_fract_z
Si Si1 0.121357 0.432407 0.275904
Si Si2 0.167925 0.561743 0.784650
Si Si3 0.201962 0.079612 0.664020
Si Si4 0.000000 0.000000 0.500000
O O1 0.108461 0.532707 0.262589
O O2 0.154478 0.408195 0.434818
O O3 0.199636 0.407621 0.176589
O O4 0.250000 0.546123 0.875000
O O5 0.183754 0.515999 0.634551
O O6 0.140915 0.657709 0.799468
O O7 0.083728 0.514373 0.840262
#
# Coordination Sequence:
#
# PCOD9560880 Si02
#       4
#    16  16  16   4
#     4  10  22  41  63  84 122 173 213 257 323 390
#     4  10  20  37  62  91 128 161 204 269 321 378
#     4  10  22  38  60  93 125 159 213 265 320 392
#     4   8  20  36  60  92 130 160 212 256 320 394
#
# _framework density 21.853203000000001
#
# number of rings (size 3 to 8) (size 9 to 14) (size 15 to 20)
#    0.000    2.154    0.000    1.846    0.000   22.154 
#    5.538    0.000   27.077    0.000    0.000    0.000 
#    0.000    0.000    0.000    0.000    0.000    0.000 
#
# Total GULP energy -144924.599957 kJ/mol
# GULP energy per Si atom -5574.023075 kJ/mol
# Density = 2.180346 g / cm^3
# Si number density = 21.853203 Si / 1000 Ang^3
#
#
#
# Elastic Constant Matrix: (Units=GPa)
#
#
# Indices 1 2 3 4 5 6 
#
# 1 101.5678 -6.7920 0.5988 0.0000 0.0000 0.0000
# 2 -6.7920 101.5678 0.5988 0.0000 0.0000 0.0000
# 3 0.5988 0.5988 16.8996 0.0000 0.0000 0.0000
# 4 0.0000 0.0000 0.0000 32.3035 0.0000 0.0000
# 5 0.0000 0.0000 0.0000 0.0000 32.3035 0.0000
# 6 0.0000 0.0000 0.0000 0.0000 0.0000 12.6572
#
#
#
# Elastic Compliance Matrix: (Units=1/GPa)
#
#
# Indices 1 2 3 4 5 6 
#
# 1 0.009892 0.000664 -0.000374 0.000000 0.000000 0.000000
# 2 0.000664 0.009892 -0.000374 0.000000 0.000000 0.000000
# 3 -0.000374 -0.000374 0.059200 0.000000 0.000000 0.000000
# 4 0.000000 0.000000 0.000000 0.030956 0.000000 0.000000
# 5 0.000000 0.000000 0.000000 0.000000 0.030956 0.000000
# 6 0.000000 0.000000 0.000000 0.000000 0.000000 0.079007
#
#
# Mechanical properties :
#
#
# Convention : Reuss Voigt Hill
#
# Bulk Modulus (GPa) = 12.68789 23.20513 17.94651
# Shear Modulus (GPa) = 20.29685 30.49481 25.39583
#
# Velocity S-wave (km/s) = 3.05090 3.73961 3.41267
# Velocity P-wave (km/s) = 4.26957 5.41183 4.87428
#
# Compressibility (1/GPa) = 0.07881533
#
# Stress axis : x y z
#
# Youngs Moduli (GPa) = 101.08940 101.08940 16.89203
#
# Poissons Ratio (x) = -0.06709 0.00632
# Poissons Ratio (y) = -0.06709 0.00632
# Poissons Ratio (z) = 0.03781 0.03781
#
# Static dielectric constant tensor:
#      x y z
#    x 1.834830 0.000000 0.000000 
#    y 0.000000 1.834830 0.000000 
#    z 0.000000 0.000000 1.819440 
# 
# From -- ./inp_files/2187.got.cif
#   From: 2010.05.17/outbox.cif.g08.bks.cpg/sg122_2_cif.got.tgz:2187.got - 2010.05.20 11:37:33.
