data_PCOD9560153
_publ_section_title
;
Structure prediction by ZEFSAII (Michael W. Deem and Ramdas Pophale) SiO2 
 PCOD9560153
Probable space group: I -4 2 M
;
_chemical_formula_sum "Si O2"
_cell_formula_units_Z 96
_cell_length_a 20.310419
_cell_length_b 20.310419
_cell_length_c 12.309231
_cell_angle_alpha 90.000000
_cell_angle_beta 90.000000
_cell_angle_gamma 90.000000
_cell_volume 5077.719284
_symmetry_space_group_name_H-M "I -4 2 M"
_symmetry_group_IT_number 121
_symmetry_cell_setting 'tetragonal'
loop_
_space_group_symop_operation_xyz
x,y,z
y,-x,-z
-x,-y,z
-y,x,-z
x,-y,-z
-x,y,-z
-y,-x,z
y,x,z
1/2+x,1/2+y,1/2+z
1/2+y,1/2-x,1/2-z
1/2-x,1/2-y,1/2+z
1/2-y,1/2+x,1/2-z
1/2+x,1/2-y,1/2-z
1/2-x,1/2+y,1/2-z
1/2-y,1/2-x,1/2+z
1/2+y,1/2+x,1/2+z
loop_
_atom_site_type_symbol
_atom_site_label
_atom_site_fract_x
_atom_site_fract_y
_atom_site_fract_z
Si Si1 0.237010 0.128892 0.220905
Si Si2 0.158118 0.268392 0.631676
Si Si3 0.997891 0.606222 0.273198
Si Si4 0.081205 0.290429 0.846228
Si Si5 0.175520 0.931671 0.983767
Si Si6 0.322111 0.905794 0.579003
O O1 0.184096 0.184096 0.253947
O O2 0.294220 0.169182 0.157183
O O3 0.267002 0.096507 0.327236
O O4 0.202431 0.079869 0.137372
O O5 0.206744 0.206744 0.606345
O O6 0.117476 0.258384 0.742374
O O7 0.107508 0.288702 0.536627
O O8 0.941037 0.561593 0.217609
O O9 0.968210 0.633335 0.385832
O O10 0.020348 0.666526 0.198024
O O11 0.064867 0.236444 0.934392
O O12 0.131723 0.342513 0.898915
O O13 0.130743 0.869258 0.009918
O O14 0.138053 0.000000 0.000000
#
# Coordination Sequence:
#
# PCOD9560153 Si02
#       6
#    16  16  16  16  16  16
#     4   9  18  31  50  78 108 140 182 229 284 338
#     4  10  19  31  53  83 111 142 186 241 293 343
#     4   9  19  35  54  74 110 155 200 240 274 335
#     4  10  20  35  56  78 112 147 191 236 285 338
#     4  11  22  37  57  80 107 141 181 229 286 348
#     4  10  18  32  55  78 113 148 188 234 286 333
#
# _framework density 18.906126
#
# number of rings (size 3 to 8) (size 9 to 14) (size 15 to 20)
#    0.000    2.167    1.667    2.000    0.000    2.167 
#    0.000    0.000    3.667    4.000    0.000    0.000 
#    0.000    0.000    0.000    5.500    0.000    0.000 
#
# Total GULP energy -267918.098274 kJ/mol
# GULP energy per Si atom -5581.627047 kJ/mol
# Density = 1.886310 g / cm^3
# Si number density = 18.906126 Si / 1000 Ang^3
#
#
#
# Elastic Constant Matrix: (Units=GPa)
#
#
# Indices 1 2 3 4 5 6 
#
# 1 48.4564 14.2629 12.0475 0.0000 0.0000 0.0000
# 2 14.2629 48.4600 12.0486 0.0000 0.0000 0.0000
# 3 12.0475 12.0486 67.2368 0.0000 0.0000 0.0000
# 4 0.0000 0.0000 0.0000 16.0594 0.0000 0.0000
# 5 0.0000 0.0000 0.0000 0.0000 16.0597 0.0000
# 6 0.0000 0.0000 0.0000 0.0000 0.0000 17.5909
#
#
#
# Elastic Compliance Matrix: (Units=1/GPa)
#
#
# Indices 1 2 3 4 5 6 
#
# 1 0.023184 -0.006061 -0.003068 0.000000 0.000000 0.000000
# 2 -0.006061 0.023182 -0.003068 0.000000 0.000000 0.000000
# 3 -0.003068 -0.003068 0.015972 0.000000 0.000000 0.000000
# 4 0.000000 0.000000 0.000000 0.062269 0.000000 0.000000
# 5 0.000000 0.000000 0.000000 0.000000 0.062268 0.000000
# 6 0.000000 0.000000 0.000000 0.000000 0.000000 0.056848
#
#
# Mechanical properties :
#
#
# Convention : Reuss Voigt Hill
#
# Bulk Modulus (GPa) = 26.35429 26.76346 26.55888
# Shear Modulus (GPa) = 17.80851 18.32828 18.06839
#
# Velocity S-wave (km/s) = 3.07244 3.11695 3.09478
# Velocity P-wave (km/s) = 5.15328 5.20966 5.18155
#
# Compressibility (1/GPa) = 0.03794449
#
# Stress axis : x y z
#
# Youngs Moduli (GPa) = 43.13348 43.13650 62.60817
#
# Poissons Ratio (x) = 0.26144 0.19208
# Poissons Ratio (y) = 0.26142 0.19210
# Poissons Ratio (z) = 0.13233 0.13235
#
# Static dielectric constant tensor:
#      x y z
#    x 1.685010 0.000000 0.000000 
#    y 0.000000 1.685010 0.000000 
#    z 0.000000 0.000000 1.641250 
# 
# From -- ./inp_files/3299.got.cif
#   From: 2010.05.17/outbox.cif.g08.bks.cpg/sg121_2_cif.got.tgz:3299.got - 2010.05.20 11:32:06.
