data_PCOD9560574
_publ_section_title
;
Structure prediction by ZEFSAII (Michael W. Deem and Ramdas Pophale) SiO2 
 PCOD9560574
Probable space group: I -4 2 M
;
_chemical_formula_sum "Si O2"
_cell_formula_units_Z 88
_cell_length_a 11.808019
_cell_length_b 11.808019
_cell_length_c 30.335786
_cell_angle_alpha 90.000000
_cell_angle_beta 90.000000
_cell_angle_gamma 90.000000
_cell_volume 4229.697792
_symmetry_space_group_name_H-M "I -4 2 M"
_symmetry_group_IT_number 121
_symmetry_cell_setting 'tetragonal'
loop_
_space_group_symop_operation_xyz
x,y,z
y,-x,-z
-x,-y,z
-y,x,-z
x,-y,-z
-x,y,-z
-y,-x,z
y,x,z
1/2+x,1/2+y,1/2+z
1/2+y,1/2-x,1/2-z
1/2-x,1/2-y,1/2+z
1/2-y,1/2+x,1/2-z
1/2+x,1/2-y,1/2-z
1/2-x,1/2+y,1/2-z
1/2-y,1/2-x,1/2+z
1/2+y,1/2+x,1/2+z
loop_
_atom_site_type_symbol
_atom_site_label
_atom_site_fract_x
_atom_site_fract_y
_atom_site_fract_z
Si Si1 0.370830 0.968797 0.822879
Si Si2 0.193193 0.000000 0.000000
Si Si3 0.466007 0.135281 0.577753
Si Si4 0.764917 0.577448 0.239232
Si Si5 0.944289 0.759590 0.544104
Si Si6 0.902539 0.097462 0.602991
Si Si7 0.597692 0.597692 0.797553
O O1 0.321498 0.979921 0.871944
O O2 0.376271 0.845890 0.799513
O O3 0.500000 0.000000 0.829820
O O4 0.325562 0.051712 0.785133
O O5 0.278242 0.982974 0.041776
O O6 0.109061 0.109061 0.005332
O O7 0.332619 0.131969 0.567332
O O8 0.500000 0.000000 0.573191
O O9 0.667882 0.667882 0.246488
O O10 0.704601 0.459996 0.225172
O O11 0.869405 0.869405 0.531982
O O12 0.000000 0.712459 0.500000
O O13 0.042471 0.799408 0.576958
O O14 0.872550 0.127451 0.652491
O O15 0.000000 0.000000 0.604645
O O16 0.500000 0.500000 0.798396
#
# Coordination Sequence:
#
# PCOD9560574 Si02
#       7
#    16   8  16  16  16   8   8
#     4  11  23  43  65  92 130 169 214 268 327 400
#     4  11  25  48  72  96 135 183 230 286 330 379
#     4  11  25  43  67  95 128 173 224 272 329 390
#     4  11  22  39  65  92 129 169 213 272 330 383
#     4  11  20  35  60  92 129 165 202 256 322 392
#     4   9  18  32  54  87 128 162 198 249 320 396
#     4   9  20  36  54  87 122 159 211 262 313 380
#
# _framework density 20.80527
#
# number of rings (size 3 to 8) (size 9 to 14) (size 15 to 20)
#    0.000    1.364    2.727    3.000    1.273    3.636 
#    1.636    0.000    0.000    0.000    0.000    0.000 
#    0.000    0.000    0.000    0.000    0.000    0.000 
#
# Total GULP energy -245647.414454 kJ/mol
# GULP energy per Si atom -5582.895783 kJ/mol
# Density = 2.075792 g / cm^3
# Si number density = 20.805270 Si / 1000 Ang^3
#
#
#
# Elastic Constant Matrix: (Units=GPa)
#
#
# Indices 1 2 3 4 5 6 
#
# 1 65.1169 11.8724 31.6982 0.0000 0.0000 0.0000
# 2 11.8724 65.1171 31.6980 0.0000 0.0000 0.0000
# 3 31.6982 31.6980 172.4455 0.0000 0.0000 0.0000
# 4 0.0000 0.0000 0.0000 2.5110 0.0000 0.0000
# 5 0.0000 0.0000 0.0000 0.0000 2.5114 0.0000
# 6 0.0000 0.0000 0.0000 0.0000 0.0000 34.8489
#
#
#
# Elastic Compliance Matrix: (Units=1/GPa)
#
#
# Indices 1 2 3 4 5 6 
#
# 1 0.017043 -0.001738 -0.002813 0.000000 0.000000 0.000000
# 2 -0.001738 0.017043 -0.002813 0.000000 0.000000 0.000000
# 3 -0.002813 -0.002813 0.006833 0.000000 0.000000 0.000000
# 4 0.000000 0.000000 0.000000 0.398250 0.000000 0.000000
# 5 0.000000 0.000000 0.000000 0.000000 0.398186 0.000000
# 6 0.000000 0.000000 0.000000 0.000000 0.000000 0.028695
#
#
# Mechanical properties :
#
#
# Convention : Reuss Voigt Hill
#
# Bulk Modulus (GPa) = 38.18160 50.35739 44.26949
# Shear Modulus (GPa) = 5.62107 23.13499 14.37803
#
# Velocity S-wave (km/s) = 1.64548 3.33825 2.63169
# Velocity P-wave (km/s) = 4.69062 6.25422 5.52798
#
# Compressibility (1/GPa) = 0.02619063
#
# Stress axis : x y z
#
# Youngs Moduli (GPa) = 58.67376 58.67404 146.34407
#
# Poissons Ratio (x) = 0.10197 0.41172
# Poissons Ratio (y) = 0.10197 0.41172
# Poissons Ratio (z) = 0.16507 0.16507
#
# Static dielectric constant tensor:
#      x y z
#    x 1.799410 0.000000 0.000000 
#    y 0.000000 1.799410 0.000000 
#    z 0.000000 0.000000 1.776690 
# 
# From -- ./inp_files/8269.got.cif
#   From: 2010.05.17/outbox.cif.g08.bks.cpg/sg121_5_cif.got.tgz:8269.got - 2010.05.20 11:32:06.
