data_PCOD9560992
_publ_section_title
;
Structure prediction by ZEFSAII (Michael W. Deem and Ramdas Pophale) SiO2 
 PCOD9560992
Probable space group: I -4 2 D
;
_chemical_formula_sum "Si O2"
_cell_formula_units_Z 80
_cell_length_a 16.617615
_cell_length_b 16.617615
_cell_length_c 13.445683
_cell_angle_alpha 90.000000
_cell_angle_beta 90.000000
_cell_angle_gamma 90.000000
_cell_volume 3712.959857
_symmetry_space_group_name_H-M "I -4 2 D"
_symmetry_group_IT_number 122
_symmetry_cell_setting 'tetragonal'
loop_
_space_group_symop_operation_xyz
x,y,z
y,-x,-z
-x,-y,z
-y,x,-z
x,1/2-y,1/4-z
-x,1/2+y,1/4-z
-y,1/2-x,1/4+z
y,1/2+x,1/4+z
1/2+x,1/2+y,1/2+z
1/2+y,1/2-x,1/2-z
1/2-x,1/2-y,1/2+z
1/2-y,1/2+x,1/2-z
1/2+x,-y,3/4-z
1/2-x,y,3/4-z
1/2-y,-x,3/4+z
1/2+y,x,3/4+z
loop_
_atom_site_type_symbol
_atom_site_label
_atom_site_fract_x
_atom_site_fract_y
_atom_site_fract_z
Si Si1 0.038268 0.110600 0.446491
Si Si2 0.048855 0.335358 0.178732
Si Si3 0.289218 0.423863 0.578874
Si Si4 0.557547 0.114065 0.503039
Si Si5 0.018107 0.223463 0.737872
O O1 0.067381 0.201585 0.462900
O O2 0.958265 0.097321 0.514781
O O3 0.007349 0.097674 0.334578
O O4 0.048244 0.250000 0.125000
O O5 0.139994 0.362175 0.189188
O O6 0.006945 0.324330 0.284335
O O7 0.991236 0.388835 0.106765
O O8 0.204995 0.411500 0.522530
O O9 0.277331 0.437599 0.695700
O O10 0.635907 0.058550 0.494698
O O11 0.006823 0.250000 0.625000
#
# Coordination Sequence:
#
# PCOD9560992 Si02
#       5
#    16  16  16  16  16
#     4  10  21  37  58  87 124 162 204 253 306 386
#     4  10  22  42  64  89 122 161 215 265 313 373
#     4  10  23  40  62  94 120 161 216 261 315 382
#     4  10  22  39  62  88 126 162 204 261 318 370
#     4  11  22  38  60  91 125 163 204 254 322 387
#
# _framework density 21.546151999999999
#
# number of rings (size 3 to 8) (size 9 to 14) (size 15 to 20)
#    0.000    1.800    2.000    1.200    2.800    3.600 
#    0.000    0.000    0.000    2.400    0.000    0.000 
#    0.000    0.000    0.000    0.000    0.000    0.000 
#
# Total GULP energy -223348.209712 kJ/mol
# GULP energy per Si atom -5583.705243 kJ/mol
# Density = 2.149711 g / cm^3
# Si number density = 21.546152 Si / 1000 Ang^3
#
#
#
# Elastic Constant Matrix: (Units=GPa)
#
#
# Indices 1 2 3 4 5 6 
#
# 1 47.4079 -8.3670 0.9751 0.0000 0.0000 0.0000
# 2 -8.3670 47.4079 0.9751 0.0000 0.0000 0.0000
# 3 0.9751 0.9751 72.2479 0.0000 0.0000 0.0000
# 4 0.0000 0.0000 0.0000 18.2737 0.0000 0.0000
# 5 0.0000 0.0000 0.0000 0.0000 18.2737 0.0000
# 6 0.0000 0.0000 0.0000 0.0000 0.0000 6.0418
#
#
#
# Elastic Compliance Matrix: (Units=1/GPa)
#
#
# Indices 1 2 3 4 5 6 
#
# 1 0.021780 0.003851 -0.000346 0.000000 0.000000 0.000000
# 2 0.003851 0.021780 -0.000346 0.000000 0.000000 0.000000
# 3 -0.000346 -0.000346 0.013851 0.000000 0.000000 0.000000
# 4 0.000000 0.000000 0.000000 0.054723 0.000000 0.000000
# 5 0.000000 0.000000 0.000000 0.000000 0.054723 0.000000
# 6 0.000000 0.000000 0.000000 0.000000 0.000000 0.165513
#
#
# Mechanical properties :
#
#
# Convention : Reuss Voigt Hill
#
# Bulk Modulus (GPa) = 15.69125 17.13666 16.41395
# Shear Modulus (GPa) = 14.39693 20.08322 17.24008
#
# Velocity S-wave (km/s) = 2.58774 3.05635 2.83175
# Velocity P-wave (km/s) = 4.02827 4.51948 4.28093
#
# Compressibility (1/GPa) = 0.06372978
#
# Stress axis : x y z
#
# Youngs Moduli (GPa) = 45.91298 45.91298 72.19918
#
# Poissons Ratio (x) = -0.17682 0.02498
# Poissons Ratio (y) = -0.17682 0.02498
# Poissons Ratio (z) = 0.01588 0.01588
#
# Static dielectric constant tensor:
#      x y z
#    x 1.799060 0.000000 0.000000 
#    y 0.000000 1.799060 0.000000 
#    z 0.000000 0.000000 1.836110 
# 
# From -- ./inp_files/5292.got.cif
#   From: 2010.05.17/outbox.cif.g08.bks.cpg/sg122_3_cif.got.tgz:5292.got - 2010.05.20 11:37:33.
