data_PCOD9560929
_publ_section_title
;
Structure prediction by ZEFSAII (Michael W. Deem and Ramdas Pophale) SiO2 
 PCOD9560929
Probable space group: I -4 2 D
;
_chemical_formula_sum "Si O2"
_cell_formula_units_Z 120
_cell_length_a 19.557217
_cell_length_b 19.557217
_cell_length_c 15.679987
_cell_angle_alpha 90.000000
_cell_angle_beta 90.000000
_cell_angle_gamma 90.000000
_cell_volume 5997.355700
_symmetry_space_group_name_H-M "I -4 2 D"
_symmetry_group_IT_number 122
_symmetry_cell_setting 'tetragonal'
loop_
_space_group_symop_operation_xyz
x,y,z
y,-x,-z
-x,-y,z
-y,x,-z
x,1/2-y,1/4-z
-x,1/2+y,1/4-z
-y,1/2-x,1/4+z
y,1/2+x,1/4+z
1/2+x,1/2+y,1/2+z
1/2+y,1/2-x,1/2-z
1/2-x,1/2-y,1/2+z
1/2-y,1/2+x,1/2-z
1/2+x,-y,3/4-z
1/2-x,y,3/4-z
1/2-y,-x,3/4+z
1/2+y,x,3/4+z
loop_
_atom_site_type_symbol
_atom_site_label
_atom_site_fract_x
_atom_site_fract_y
_atom_site_fract_z
Si Si1 0.465702 0.750000 0.125000
Si Si2 0.539471 0.794781 0.294409
Si Si3 0.254470 0.668991 0.609648
Si Si4 0.577724 0.497339 0.144215
Si Si5 0.037648 0.678587 0.365117
Si Si6 0.858540 0.623012 0.981562
Si Si7 0.584090 0.177305 0.670565
Si Si8 0.940508 0.055728 0.191508
O O1 0.513614 0.777149 0.200674
O O2 0.417058 0.807418 0.082918
O O3 0.617760 0.771903 0.314702
O O4 0.518047 0.871797 0.316919
O O5 0.494035 0.751502 0.361434
O O6 0.243859 0.750000 0.625000
O O7 0.203307 0.646819 0.534702
O O8 0.334450 0.661035 0.587895
O O9 0.500000 0.500000 0.114800
O O10 0.595451 0.433099 0.206230
O O11 0.581600 0.561859 0.210005
O O12 0.102876 0.663377 0.424052
O O13 0.057408 0.674785 0.266928
O O14 0.981728 0.625656 0.402970
O O15 0.573881 0.250000 0.625000
O O16 0.544875 0.120075 0.617251
O O17 0.000000 0.000000 0.186285
#
# Coordination Sequence:
#
# PCOD9560929 Si02
#       8
#     8  16  16  16  16  16  16  16
#     4  10  22  42  64  96 126 174 216 264 338 396
#     4  10  22  42  67  93 134 172 218 277 333 404
#     4  10  21  42  67  91 130 177 218 274 337 405
#     4  10  20  40  63  95 128 166 212 275 330 388
#     4  11  22  39  62  94 128 175 216 276 334 394
#     4  10  20  41  65  90 129 166 221 268 331 395
#     4  11  25  41  62  96 134 173 224 273 337 407
#     4  11  22  38  63  95 129 174 216 272 333 402
#
# _framework density 20.008817000000001
#
# number of rings (size 3 to 8) (size 9 to 14) (size 15 to 20)
#    0.000    1.600    4.667    0.800    1.867    0.533 
#    4.800    2.667    0.000    0.000    0.000    0.000 
#    0.000    0.000    0.000    0.000    0.000    0.000 
#
# Total GULP energy -334658.728770 kJ/mol
# GULP energy per Si atom -5577.645480 kJ/mol
# Density = 1.996328 g / cm^3
# Si number density = 20.008817 Si / 1000 Ang^3
#
#
#
# Elastic Constant Matrix: (Units=GPa)
#
#
# Indices 1 2 3 4 5 6 
#
# 1 59.8787 35.6606 31.4835 0.0000 0.0000 0.0000
# 2 35.6606 59.8787 31.4835 0.0000 0.0000 0.0000
# 3 31.4835 31.4835 120.0625 0.0000 0.0000 0.0000
# 4 0.0000 0.0000 0.0000 19.3157 0.0000 0.0000
# 5 0.0000 0.0000 0.0000 0.0000 19.3157 0.0000
# 6 0.0000 0.0000 0.0000 0.0000 0.0000 25.7858
#
#
#
# Elastic Compliance Matrix: (Units=1/GPa)
#
#
# Indices 1 2 3 4 5 6 
#
# 1 0.026973 -0.014319 -0.003318 0.000000 0.000000 0.000000
# 2 -0.014319 0.026973 -0.003318 0.000000 0.000000 0.000000
# 3 -0.003318 -0.003318 0.010069 0.000000 0.000000 0.000000
# 4 0.000000 0.000000 0.000000 0.051771 0.000000 0.000000
# 5 0.000000 0.000000 0.000000 0.000000 0.051771 0.000000
# 6 0.000000 0.000000 0.000000 0.000000 0.000000 0.038781
#
#
# Mechanical properties :
#
#
# Convention : Reuss Voigt Hill
#
# Bulk Modulus (GPa) = 45.24035 48.56392 46.90214
# Shear Modulus (GPa) = 19.56054 22.29623 20.92839
#
# Velocity S-wave (km/s) = 3.13005 3.34177 3.23764
# Velocity P-wave (km/s) = 5.97681 6.26209 6.12111
#
# Compressibility (1/GPa) = 0.02210416
#
# Stress axis : x y z
#
# Youngs Moduli (GPa) = 37.07469 37.07469 99.31262
#
# Poissons Ratio (x) = 0.53086 0.32953
# Poissons Ratio (y) = 0.53086 0.32953
# Poissons Ratio (z) = 0.12302 0.12302
#
# Static dielectric constant tensor:
#      x y z
#    x 1.760160 0.000000 0.000000 
#    y 0.000000 1.760160 0.000000 
#    z 0.000000 0.000000 1.693860 
# 
# From -- ./inp_files/5574.got.cif
#   From: 2010.05.17/outbox.cif.g08.bks.cpg/sg122_3_cif.got.tgz:5574.got - 2010.05.20 11:37:33.
