data_PCOD9560082
_publ_section_title
;
Structure prediction by ZEFSAII (Michael W. Deem and Ramdas Pophale) SiO2 
 PCOD9560082
Probable space group: I -4 2 M
;
_chemical_formula_sum "Si O2"
_cell_formula_units_Z 74
_cell_length_a 22.016281
_cell_length_b 22.016281
_cell_length_c 8.266853
_cell_angle_alpha 90.000000
_cell_angle_beta 90.000000
_cell_angle_gamma 90.000000
_cell_volume 4007.081119
_symmetry_space_group_name_H-M "I -4 2 M"
_symmetry_group_IT_number 121
_symmetry_cell_setting 'tetragonal'
loop_
_space_group_symop_operation_xyz
x,y,z
y,-x,-z
-x,-y,z
-y,x,-z
x,-y,-z
-x,y,-z
-y,-x,z
y,x,z
1/2+x,1/2+y,1/2+z
1/2+y,1/2-x,1/2-z
1/2-x,1/2-y,1/2+z
1/2-y,1/2+x,1/2-z
1/2+x,1/2-y,1/2-z
1/2-x,1/2+y,1/2-z
1/2-y,1/2-x,1/2+z
1/2+y,1/2+x,1/2+z
loop_
_atom_site_type_symbol
_atom_site_label
_atom_site_fract_x
_atom_site_fract_y
_atom_site_fract_z
Si Si1 0.000000 0.000000 0.000000
Si Si2 0.716254 0.182410 0.917711
Si Si3 0.475837 0.683968 0.233869
Si Si4 0.634024 0.263952 0.076213
Si Si5 0.095621 0.801493 0.075330
Si Si6 0.450648 0.450648 0.798046
O O1 0.957122 0.042878 0.896700
O O2 0.763196 0.236805 0.953613
O O3 0.652105 0.215356 0.940150
O O4 0.737825 0.129792 0.040566
O O5 0.732262 0.159815 0.739351
O O6 0.436402 0.724179 0.110790
O O7 0.437475 0.684693 0.403241
O O8 0.544277 0.699120 0.286754
O O9 0.470181 0.616520 0.163545
O O10 0.672529 0.327471 0.057007
O O11 0.146102 0.853899 0.105855
O O12 0.500000 0.500000 0.845591
#
# Coordination Sequence:
#
# PCOD9560082 Si02
#       6
#     2  16  16  16  16   8
#     4   8  16  16  24  40  72 112 136 138 184 228
#     4   8  15  25  39  53  73 101 133 162 200 233
#     4  10  15  21  32  51  80 105 136 161 196 236
#     4   9  15  26  38  55  74 102 131 166 198 235
#     4   9  15  22  32  52  78 108 133 161 195 240
#     4  10  16  18  26  48  78 116 134 152 192 241
#
# _framework density 18.467306000000001
#
# number of rings (size 3 to 8) (size 9 to 14) (size 15 to 20)
#    0.324    2.595    2.162    3.243    0.000    0.000 
#    0.000    0.000    0.000    1.297    0.000    0.000 
#    0.000    0.865    0.000   20.541    0.000    0.432 
#
# Total GULP energy -206158.951225 kJ/mol
# GULP energy per Si atom -5571.863547 kJ/mol
# Density = 1.842527 g / cm^3
# Si number density = 18.467306 Si / 1000 Ang^3
#
#
#
# Elastic Constant Matrix: (Units=GPa)
#
#
# Indices 1 2 3 4 5 6 
#
# 1 45.9144 21.0440 5.7178 0.0000 0.0000 0.0000
# 2 21.0440 45.9132 5.7178 0.0000 0.0000 0.0000
# 3 5.7178 5.7178 41.8143 0.0000 0.0000 0.0000
# 4 0.0000 0.0000 0.0000 -12.8247 0.0000 0.0000
# 5 0.0000 0.0000 0.0000 0.0000 -12.8232 0.0000
# 6 0.0000 0.0000 0.0000 0.0000 0.0000 27.4622
#
#
#
# Elastic Compliance Matrix: (Units=1/GPa)
#
#
# Indices 1 2 3 4 5 6 
#
# 1 0.027750 -0.012459 -0.002091 0.000000 0.000000 0.000000
# 2 -0.012459 0.027751 -0.002091 0.000000 0.000000 0.000000
# 3 -0.002091 -0.002091 0.024487 0.000000 0.000000 0.000000
# 4 0.000000 0.000000 0.000000 -0.077974 0.000000 0.000000
# 5 0.000000 0.000000 0.000000 0.000000 -0.077984 0.000000
# 6 0.000000 0.000000 0.000000 0.000000 0.000000 0.036414
#
#
# Mechanical properties :
#
#
# Convention : Reuss Voigt Hill
#
# Bulk Modulus (GPa) = 21.41021 22.06681 21.73851
# Shear Modulus (GPa) = 537.92994 7.10700 272.51847
#
# Velocity S-wave (km/s) = 17.08567 1.96387 12.16094
# Velocity P-wave (km/s) = 20.02113 4.13732 14.45619
#
# Compressibility (1/GPa) = 0.04670669
#
# Stress axis : x y z
#
# Youngs Moduli (GPa) = 36.03566 36.03465 40.83778
#
# Poissons Ratio (x) = 0.44895 0.08539
# Poissons Ratio (y) = 0.44896 0.08540
# Poissons Ratio (z) = 0.07535 0.07535
#
# Static dielectric constant tensor:
#      x y z
#    x 1.691400 0.000000 0.000000 
#    y 0.000000 1.691410 0.000000 
#    z 0.000000 0.000000 1.807230 
# 
# From -- ./inp_files/3215.got.cif
#   From: 2010.05.17/outbox.cif.g08.bks.cpg/sg121_2_cif.got.tgz:3215.got - 2010.05.20 11:32:06.
