data_PCOD9560765
_publ_section_title
;
Structure prediction by ZEFSAII (Michael W. Deem and Ramdas Pophale) SiO2 
 PCOD9560765
Probable space group: I -4 2 D
;
_chemical_formula_sum "Si O2"
_cell_formula_units_Z 72
_cell_length_a 13.419686
_cell_length_b 13.419686
_cell_length_c 15.830014
_cell_angle_alpha 90.000000
_cell_angle_beta 90.000000
_cell_angle_gamma 90.000000
_cell_volume 2850.795123
_symmetry_space_group_name_H-M "I -4 2 D"
_symmetry_group_IT_number 122
_symmetry_cell_setting 'tetragonal'
loop_
_space_group_symop_operation_xyz
x,y,z
y,-x,-z
-x,-y,z
-y,x,-z
x,1/2-y,1/4-z
-x,1/2+y,1/4-z
-y,1/2-x,1/4+z
y,1/2+x,1/4+z
1/2+x,1/2+y,1/2+z
1/2+y,1/2-x,1/2-z
1/2-x,1/2-y,1/2+z
1/2-y,1/2+x,1/2-z
1/2+x,-y,3/4-z
1/2-x,y,3/4-z
1/2-y,-x,3/4+z
1/2+y,x,3/4+z
loop_
_atom_site_type_symbol
_atom_site_label
_atom_site_fract_x
_atom_site_fract_y
_atom_site_fract_z
Si Si1 0.136695 0.682554 0.341279
Si Si2 0.136185 0.138229 0.772886
Si Si3 0.500000 0.000000 0.631506
Si Si4 0.980164 0.357181 0.629214
Si Si5 0.814924 0.021717 0.568904
O O1 0.250000 0.663722 0.375000
O O2 0.135166 0.751244 0.257890
O O3 0.064143 0.588438 0.325767
O O4 0.076896 0.752131 0.409404
O O5 0.111394 0.236859 0.824872
O O6 0.066664 0.148874 0.689280
O O7 0.086868 0.049296 0.824422
O O8 0.926419 0.250000 0.625000
O O9 0.904099 0.447811 0.619273
O O10 0.022090 0.357910 0.724227
#
# Coordination Sequence:
#
# PCOD9560765 Si02
#       5
#    16  16   8  16  16
#     4  11  22  41  62  84 120 160 201 253 304 360
#     4  10  20  37  60  88 120 158 198 244 297 352
#     4  10  24  42  62  88 120 160 206 250 298 356
#     4  10  19  32  54  87 122 153 188 234 291 351
#     4  10  20  33  57  90 121 157 194 235 295 354
#
# _framework density 25.256112000000002
#
# number of rings (size 3 to 8) (size 9 to 14) (size 15 to 20)
#    0.000    1.778    0.000    6.000    0.000    2.222 
#    0.000    6.667    0.000    0.000    0.000    1.556 
#    0.000    0.000    0.000    0.000    0.000    0.000 
#
# Total GULP energy -201263.108073 kJ/mol
# GULP energy per Si atom -5590.641891 kJ/mol
# Density = 2.519863 g / cm^3
# Si number density = 25.256112 Si / 1000 Ang^3
#
#
#
# Elastic Constant Matrix: (Units=GPa)
#
#
# Indices 1 2 3 4 5 6 
#
# 1 167.0409 75.0018 25.1085 0.0000 0.0000 0.0000
# 2 75.0018 167.0409 25.1085 0.0000 0.0000 0.0000
# 3 25.1085 25.1085 21.6263 0.0000 0.0000 0.0000
# 4 0.0000 0.0000 0.0000 30.4104 0.0000 0.0000
# 5 0.0000 0.0000 0.0000 0.0000 30.4104 0.0000
# 6 0.0000 0.0000 0.0000 0.0000 0.0000 45.0982
#
#
#
# Elastic Compliance Matrix: (Units=1/GPa)
#
#
# Indices 1 2 3 4 5 6 
#
# 1 0.008154 -0.002711 -0.006319 0.000000 0.000000 0.000000
# 2 -0.002711 0.008154 -0.006319 0.000000 0.000000 0.000000
# 3 -0.006319 -0.006319 0.060913 0.000000 0.000000 0.000000
# 4 0.000000 0.000000 0.000000 0.032883 0.000000 0.000000
# 5 0.000000 0.000000 0.000000 0.000000 0.032883 0.000000
# 6 0.000000 0.000000 0.000000 0.000000 0.000000 0.022174
#
#
# Mechanical properties :
#
#
# Convention : Reuss Voigt Hill
#
# Bulk Modulus (GPa) = 21.49507 67.34952 44.42229
# Shear Modulus (GPa) = 23.65566 36.54977 30.10271
#
# Velocity S-wave (km/s) = 3.06376 3.80829 3.45613
# Velocity P-wave (km/s) = 4.58747 6.78689 5.79253
#
# Compressibility (1/GPa) = 0.04652229
#
# Stress axis : x y z
#
# Youngs Moduli (GPa) = 122.64350 122.64350 16.41696
#
# Poissons Ratio (x) = 0.33252 0.10374
# Poissons Ratio (y) = 0.33252 0.10374
# Poissons Ratio (z) = 0.77496 0.77496
#
# Static dielectric constant tensor:
#      x y z
#    x 2.026360 0.000000 0.000000 
#    y 0.000000 2.026360 0.000000 
#    z 0.000000 0.000000 2.010220 
# 
# From -- ./inp_files/6139.got.cif
#   From: 2010.05.17/outbox.cif.g08.bks.cpg/sg122_4_cif.got.tgz:6139.got - 2010.05.20 11:37:33.
