data_PCOD9560351
_publ_section_title
;
Structure prediction by ZEFSAII (Michael W. Deem and Ramdas Pophale) SiO2 
 PCOD9560351
Probable space group: I -4 2 M
;
_chemical_formula_sum "Si O2"
_cell_formula_units_Z 112
_cell_length_a 14.020599
_cell_length_b 14.020599
_cell_length_c 32.458400
_cell_angle_alpha 90.000000
_cell_angle_beta 90.000000
_cell_angle_gamma 90.000000
_cell_volume 6380.581269
_symmetry_space_group_name_H-M "I -4 2 M"
_symmetry_group_IT_number 121
_symmetry_cell_setting 'tetragonal'
loop_
_space_group_symop_operation_xyz
x,y,z
y,-x,-z
-x,-y,z
-y,x,-z
x,-y,-z
-x,y,-z
-y,-x,z
y,x,z
1/2+x,1/2+y,1/2+z
1/2+y,1/2-x,1/2-z
1/2-x,1/2-y,1/2+z
1/2-y,1/2+x,1/2-z
1/2+x,1/2-y,1/2-z
1/2-x,1/2+y,1/2-z
1/2-y,1/2-x,1/2+z
1/2+y,1/2+x,1/2+z
loop_
_atom_site_type_symbol
_atom_site_label
_atom_site_fract_x
_atom_site_fract_y
_atom_site_fract_z
Si Si1 0.884889 0.391744 0.750517
Si Si2 0.295230 0.452992 0.545521
Si Si3 0.740049 0.105218 0.331255
Si Si4 0.781362 0.377426 0.166392
Si Si5 0.148819 0.700930 0.420956
Si Si6 0.716679 0.873624 0.910938
Si Si7 0.104237 0.525290 0.047489
O O1 0.875479 0.503649 0.739146
O O2 0.819038 0.373675 0.789956
O O3 0.861085 0.327468 0.711213
O O4 0.289003 0.500000 0.500000
O O5 0.392811 0.392811 0.548351
O O6 0.210215 0.378144 0.554874
O O7 0.280750 0.533467 0.580452
O O8 0.843143 0.156858 0.328655
O O9 0.689607 0.150555 0.371545
O O10 0.740542 0.990435 0.337134
O O11 0.686769 0.313232 0.161869
O O12 0.856587 0.339507 0.131958
O O13 0.197823 0.802178 0.430207
O O14 0.040125 0.685722 0.433277
O O15 0.783667 0.783667 0.916735
O O16 0.635185 0.878024 0.945201
O O17 0.000000 0.500000 0.066104
O O18 0.100481 0.500000 0.000000
#
# Coordination Sequence:
#
# PCOD9560351 Si02
#       7
#    16  16  16  16  16  16  16
#     4   9  19  33  56  87 114 142 179 229 286 342
#     4  11  23  39  59  84 114 151 193 235 287 355
#     4  10  20  36  58  83 112 148 189 237 286 336
#     4  10  21  37  56  82 114 149 189 233 283 342
#     4  10  21  36  56  83 111 144 189 235 283 336
#     4  11  23  37  56  82 114 151 186 230 288 343
#     4  11  21  35  56  80 107 143 187 234 280 326
#
# _framework density 17.553259000000001
#
# number of rings (size 3 to 8) (size 9 to 14) (size 15 to 20)
#    0.000    1.714    2.857    1.714    2.000    3.000 
#    0.000    0.000    0.000    0.429    0.000    3.000 
#    0.000    0.000    0.000    0.000    0.000    0.000 
#
# Total GULP energy -312182.598964 kJ/mol
# GULP energy per Si atom -5574.689267 kJ/mol
# Density = 1.751331 g / cm^3
# Si number density = 17.553259 Si / 1000 Ang^3
#
#
#
# Elastic Constant Matrix: (Units=GPa)
#
#
# Indices 1 2 3 4 5 6 
#
# 1 80.3496 42.3243 41.5922 0.0000 0.0000 0.0000
# 2 42.3243 80.3497 41.5918 0.0000 0.0000 0.0000
# 3 41.5922 41.5918 89.3487 0.0000 0.0000 0.0000
# 4 0.0000 0.0000 0.0000 16.8428 0.0000 0.0000
# 5 0.0000 0.0000 0.0000 0.0000 16.8404 0.0000
# 6 0.0000 0.0000 0.0000 0.0000 0.0000 19.3499
#
#
#
# Elastic Compliance Matrix: (Units=1/GPa)
#
#
# Indices 1 2 3 4 5 6 
#
# 1 0.019105 -0.007193 -0.005545 0.000000 0.000000 0.000000
# 2 -0.007193 0.019105 -0.005545 0.000000 0.000000 0.000000
# 3 -0.005545 -0.005545 0.016354 0.000000 0.000000 0.000000
# 4 0.000000 0.000000 0.000000 0.059373 0.000000 0.000000
# 5 0.000000 0.000000 0.000000 0.000000 0.059381 0.000000
# 6 0.000000 0.000000 0.000000 0.000000 0.000000 0.051680
#
#
# Mechanical properties :
#
#
# Convention : Reuss Voigt Hill
#
# Bulk Modulus (GPa) = 55.56137 55.67386 55.61761
# Shear Modulus (GPa) = 18.68717 18.90926 18.79822
#
# Velocity S-wave (km/s) = 3.26636 3.28571 3.27605
# Velocity P-wave (km/s) = 6.77844 6.79562 6.78703
#
# Compressibility (1/GPa) = 0.01799812
#
# Stress axis : x y z
#
# Youngs Moduli (GPa) = 52.34235 52.34275 61.14565
#
# Poissons Ratio (x) = 0.37652 0.33905
# Poissons Ratio (y) = 0.37651 0.33904
# Poissons Ratio (z) = 0.29024 0.29023
#
# Static dielectric constant tensor:
#      x y z
#    x 1.606830 0.000000 0.000000 
#    y 0.000000 1.606830 0.000000 
#    z 0.000000 0.000000 1.603610 
# 
# From -- ./inp_files/8425.got.cif
#   From: 2010.05.17/outbox.cif.g08.bks.cpg/sg121_5_cif.got.tgz:8425.got - 2010.05.20 11:32:06.
