data_PCOD9560197
_publ_section_title
;
Structure prediction by ZEFSAII (Michael W. Deem and Ramdas Pophale) SiO2 
 PCOD9560197
Probable space group: I -4 2 M
;
_chemical_formula_sum "Si O2"
_cell_formula_units_Z 72
_cell_length_a 25.474694
_cell_length_b 25.474694
_cell_length_c 5.988070
_cell_angle_alpha 90.000000
_cell_angle_beta 90.000000
_cell_angle_gamma 90.000000
_cell_volume 3886.018113
_symmetry_space_group_name_H-M "I -4 2 M"
_symmetry_group_IT_number 121
_symmetry_cell_setting 'tetragonal'
loop_
_space_group_symop_operation_xyz
x,y,z
y,-x,-z
-x,-y,z
-y,x,-z
x,-y,-z
-x,y,-z
-y,-x,z
y,x,z
1/2+x,1/2+y,1/2+z
1/2+y,1/2-x,1/2-z
1/2-x,1/2-y,1/2+z
1/2-y,1/2+x,1/2-z
1/2+x,1/2-y,1/2-z
1/2-x,1/2+y,1/2-z
1/2-y,1/2-x,1/2+z
1/2+y,1/2+x,1/2+z
loop_
_atom_site_type_symbol
_atom_site_label
_atom_site_fract_x
_atom_site_fract_y
_atom_site_fract_z
Si Si1 0.168751 0.747313 0.999390
Si Si2 0.717167 0.500000 0.500000
Si Si3 0.875431 0.646529 0.520659
Si Si4 0.422900 0.249639 0.150766
Si Si5 0.678556 0.405817 0.230705
O O1 0.225114 0.774887 0.027240
O O2 0.137970 0.778000 0.803176
O O3 0.167203 0.685119 0.966542
O O4 0.130727 0.757390 0.209479
O O5 0.752985 0.472256 0.685464
O O6 0.682385 0.453008 0.404267
O O7 0.881703 0.621239 0.774195
O O8 0.914626 0.695864 0.517539
O O9 0.428692 0.300450 0.999320
O O10 0.623864 0.376137 0.221085
#
# Coordination Sequence:
#
# PCOD9560197 Si02
#       5
#    16   8  16  16  16
#     4   9  18  29  45  73 106 139 170 209 260 321
#     4  10  22  36  52  73 102 140 188 237 284 344
#     4  10  19  31  47  72 108 143 179 217 258 312
#     4  10  19  33  49  72 104 144 185 221 273 325
#     4  10  19  34  53  74 100 133 177 232 286 336
#
# _framework density 18.527964999999998
#
# number of rings (size 3 to 8) (size 9 to 14) (size 15 to 20)
#    0.000    2.222    2.222    1.333    0.000    5.333 
#    0.000    0.000    0.000    0.333    0.000    0.000 
#    0.000    0.000    0.000    0.000    0.000  270.000 
#
# Total GULP energy -200488.426151 kJ/mol
# GULP energy per Si atom -5569.122949 kJ/mol
# Density = 1.848579 g / cm^3
# Si number density = 18.527965 Si / 1000 Ang^3
#
#
#
# Elastic Constant Matrix: (Units=GPa)
#
#
# Indices 1 2 3 4 5 6 
#
# 1 26.8889 48.7385 16.1971 0.0000 0.0000 0.0000
# 2 48.7385 26.8857 16.2053 0.0000 0.0000 0.0000
# 3 16.1971 16.2053 88.2722 0.0000 0.0000 0.0000
# 4 0.0000 0.0000 0.0000 10.4439 0.0000 0.0000
# 5 0.0000 0.0000 0.0000 0.0000 10.4391 0.0000
# 6 0.0000 0.0000 0.0000 0.0000 0.0000 5.6966
#
#
#
# Elastic Compliance Matrix: (Units=1/GPa)
#
#
# Indices 1 2 3 4 5 6 
#
# 1 -0.015704 0.030058 -0.002637 0.000000 0.000000 0.000000
# 2 0.030058 -0.015708 -0.002632 0.000000 0.000000 0.000000
# 3 -0.002637 -0.002632 0.012295 0.000000 0.000000 0.000000
# 4 0.000000 0.000000 0.000000 0.095750 0.000000 0.000000
# 5 0.000000 0.000000 0.000000 0.000000 0.095794 0.000000
# 6 0.000000 0.000000 0.000000 0.000000 0.000000 0.175542
#
#
# Mechanical properties :
#
#
# Convention : Reuss Voigt Hill
#
# Bulk Modulus (GPa) = 32.82729 33.81428 33.32078
# Shear Modulus (GPa) = 16.20514 9.37630 12.79072
#
# Velocity S-wave (km/s) = 2.96063 2.25202 2.63030
# Velocity P-wave (km/s) = 5.42616 5.00521 5.21993
#
# Compressibility (1/GPa) = 0.03046246
#
# Stress axis : x y z
#
# Youngs Moduli (GPa) = -63.67748 -63.66080 81.33068
#
# Poissons Ratio (x) = 1.91350 0.21443
# Poissons Ratio (y) = 1.91400 0.21402
# Poissons Ratio (z) = -0.16789 -0.16752
#
# Static dielectric constant tensor:
#      x y z
#    x 1.623030 0.000000 0.000000 
#    y 0.000000 1.623030 0.000000 
#    z 0.000000 0.000000 1.785380 
# 
# From -- ./inp_files/530.got.cif
#   From: 2010.05.17/outbox.cif.g08.bks.cpg/sg121_1_cif.got.tgz:530.got - 2010.05.20 11:32:06.
