data_PCOD9560563
_publ_section_title
;
Structure prediction by ZEFSAII (Michael W. Deem and Ramdas Pophale) SiO2 
 PCOD9560563
Probable space group: I -4 2 M
;
_chemical_formula_sum "Si O2"
_cell_formula_units_Z 88
_cell_length_a 17.798356
_cell_length_b 17.798356
_cell_length_c 16.225322
_cell_angle_alpha 90.000000
_cell_angle_beta 90.000000
_cell_angle_gamma 90.000000
_cell_volume 5139.881457
_symmetry_space_group_name_H-M "I -4 2 M"
_symmetry_group_IT_number 121
_symmetry_cell_setting 'tetragonal'
loop_
_space_group_symop_operation_xyz
x,y,z
y,-x,-z
-x,-y,z
-y,x,-z
x,-y,-z
-x,y,-z
-y,-x,z
y,x,z
1/2+x,1/2+y,1/2+z
1/2+y,1/2-x,1/2-z
1/2-x,1/2-y,1/2+z
1/2-y,1/2+x,1/2-z
1/2+x,1/2-y,1/2-z
1/2-x,1/2+y,1/2-z
1/2-y,1/2-x,1/2+z
1/2+y,1/2+x,1/2+z
loop_
_atom_site_type_symbol
_atom_site_label
_atom_site_fract_x
_atom_site_fract_y
_atom_site_fract_z
Si Si1 0.104331 0.230720 0.141441
Si Si2 0.730936 0.145264 0.365324
Si Si3 0.938210 0.938210 0.699091
Si Si4 0.936473 0.063527 0.105232
Si Si5 0.724011 0.493170 0.193525
Si Si6 0.416814 0.291856 0.967745
Si Si7 0.500000 0.302810 0.500000
O O1 0.153919 0.153919 0.137148
O O2 0.162120 0.299212 0.150072
O O3 0.048121 0.224907 0.218938
O O4 0.059218 0.240412 0.056195
O O5 0.806051 0.193950 0.344698
O O6 0.725963 0.068053 0.314302
O O7 0.740403 0.121331 0.461588
O O8 0.930437 0.930437 0.797509
O O9 0.858429 0.972028 0.672387
O O10 0.000000 0.000000 0.678545
O O11 0.858927 0.039650 0.064289
O O12 0.000000 0.000000 0.089362
O O13 0.742619 0.432661 0.122280
O O14 0.364390 0.364390 0.959180
O O15 0.500000 0.310420 0.000000
#
# Coordination Sequence:
#
# PCOD9560563 Si02
#       7
#    16  16   8   8  16  16   8
#     4  11  22  36  57  84 116 148 190 230 274 340
#     4   9  20  39  54  77 116 152 186 230 276 332
#     4  11  20  28  49  84 123 147 176 224 279 353
#     4  11  18  28  45  72 119 153 174 211 272 338
#     4  11  20  35  55  82 112 148 186 227 282 331
#     4   9  18  32  51  76 108 144 181 218 272 330
#     4  12  19  32  50  78 111 154 184 220 276 336
#
# _framework density 17.121017999999999
#
# number of rings (size 3 to 8) (size 9 to 14) (size 15 to 20)
#    0.000    1.636    4.545    1.636    1.273    0.182 
#    3.273    0.000    0.000    0.545    0.000    0.000 
#    0.000    0.000    0.000    0.000    0.000    0.000 
#
# Total GULP energy -245296.708649 kJ/mol
# GULP energy per Si atom -5574.925197 kJ/mol
# Density = 1.708205 g / cm^3
# Si number density = 17.121018 Si / 1000 Ang^3
#
#
#
# Elastic Constant Matrix: (Units=GPa)
#
#
# Indices 1 2 3 4 5 6 
#
# 1 67.1393 31.2727 27.2571 0.0000 0.0000 0.0000
# 2 31.2727 67.1403 27.2573 0.0000 0.0000 0.0000
# 3 27.2571 27.2573 93.2169 0.0000 0.0000 0.0000
# 4 0.0000 0.0000 0.0000 23.0728 0.0000 0.0000
# 5 0.0000 0.0000 0.0000 0.0000 23.0736 0.0000
# 6 0.0000 0.0000 0.0000 0.0000 0.0000 22.5574
#
#
#
# Elastic Compliance Matrix: (Units=1/GPa)
#
#
# Indices 1 2 3 4 5 6 
#
# 1 0.020003 -0.007878 -0.003546 0.000000 0.000000 0.000000
# 2 -0.007878 0.020003 -0.003545 0.000000 0.000000 0.000000
# 3 -0.003546 -0.003545 0.012801 0.000000 0.000000 0.000000
# 4 0.000000 0.000000 0.000000 0.043341 0.000000 0.000000
# 5 0.000000 0.000000 0.000000 0.000000 0.043340 0.000000
# 6 0.000000 0.000000 0.000000 0.000000 0.000000 0.044331
#
#
# Mechanical properties :
#
#
# Convention : Reuss Voigt Hill
#
# Bulk Modulus (GPa) = 43.72603 44.34120 44.03362
# Shear Modulus (GPa) = 22.58563 23.18807 22.88685
#
# Velocity S-wave (km/s) = 3.63599 3.68416 3.66015
# Velocity P-wave (km/s) = 6.57435 6.63719 6.60584
#
# Compressibility (1/GPa) = 0.02286967
#
# Stress axis : x y z
#
# Youngs Moduli (GPa) = 49.99213 49.99288 78.11818
#
# Poissons Ratio (x) = 0.39383 0.27697
# Poissons Ratio (y) = 0.39382 0.27697
# Poissons Ratio (z) = 0.17725 0.17725
#
# Static dielectric constant tensor:
#      x y z
#    x 1.577040 0.000000 0.000000 
#    y 0.000000 1.577040 0.000000 
#    z 0.000000 0.000000 1.555090 
# 
# From -- ./inp_files/4427.got.cif
#   From: 2010.05.17/outbox.cif.g08.bks.cpg/sg121_3_cif.got.tgz:4427.got - 2010.05.20 11:32:06.
