data_PCOD9560686
_publ_section_title
;
Structure prediction by ZEFSAII (Michael W. Deem and Ramdas Pophale) SiO2 
 PCOD9560686
Probable space group: I -4 2 D
;
_chemical_formula_sum "Si O2"
_cell_formula_units_Z 104
_cell_length_a 17.841636
_cell_length_b 17.841636
_cell_length_c 12.880909
_cell_angle_alpha 90.000000
_cell_angle_beta 90.000000
_cell_angle_gamma 90.000000
_cell_volume 4100.302157
_symmetry_space_group_name_H-M "I -4 2 D"
_symmetry_group_IT_number 122
_symmetry_cell_setting 'tetragonal'
loop_
_space_group_symop_operation_xyz
x,y,z
y,-x,-z
-x,-y,z
-y,x,-z
x,1/2-y,1/4-z
-x,1/2+y,1/4-z
-y,1/2-x,1/4+z
y,1/2+x,1/4+z
1/2+x,1/2+y,1/2+z
1/2+y,1/2-x,1/2-z
1/2-x,1/2-y,1/2+z
1/2-y,1/2+x,1/2-z
1/2+x,-y,3/4-z
1/2-x,y,3/4-z
1/2-y,-x,3/4+z
1/2+y,x,3/4+z
loop_
_atom_site_type_symbol
_atom_site_label
_atom_site_fract_x
_atom_site_fract_y
_atom_site_fract_z
Si Si1 0.809792 0.895099 0.591644
Si Si2 0.459905 0.886603 0.752165
Si Si3 0.360791 0.688074 0.207612
Si Si4 0.000000 0.500000 0.573059
Si Si5 0.324508 0.352890 0.324636
Si Si6 0.439660 0.351630 0.931116
Si Si7 0.983066 0.656445 0.468572
O O1 0.734945 0.848226 0.561556
O O2 0.807741 0.982387 0.554972
O O3 0.810236 0.892281 0.714971
O O4 0.882889 0.861455 0.529653
O O5 0.414860 0.960178 0.789586
O O6 0.411724 0.847882 0.663802
O O7 0.480038 0.841744 0.854965
O O8 0.341414 0.750000 0.125000
O O9 0.327493 0.610011 0.170006
O O10 0.451128 0.677716 0.203048
O O11 0.066914 0.529598 0.644872
O O12 0.028535 0.431440 0.501154
O O13 0.250000 0.316848 0.375000
O O14 0.400673 0.307861 0.293205
#
# Coordination Sequence:
#
# PCOD9560686 Si02
#       7
#    16  16  16   8  16  16  16
#     4  11  21  36  55  86 120 151 189 246 297 365
#     4   9  18  31  49  76 104 139 176 214 278 342
#     4   9  21  34  52  82 118 146 187 230 303 362
#     4  10  16  31  55  88 112 140 183 227 312 378
#     4  11  22  34  51  79 109 148 192 230 279 343
#     4  10  20  32  56  88 119 150 182 238 310 375
#     4  10  18  33  54  76 112 149 179 239 286 354
#
# _framework density 25.363986000000001
#
# number of rings (size 3 to 8) (size 9 to 14) (size 15 to 20)
#    0.000    2.000    1.538    3.692    6.462    0.000 
#    0.000    0.000    0.000    2.769    0.000    1.077 
#    0.000    0.000    0.000    0.000    0.000    0.000 
#
# Total GULP energy -290196.737166 kJ/mol
# GULP energy per Si atom -5580.706484 kJ/mol
# Density = 2.530626 g / cm^3
# Si number density = 25.363986 Si / 1000 Ang^3
#
#
#
# Elastic Constant Matrix: (Units=GPa)
#
#
# Indices 1 2 3 4 5 6 
#
# 1 103.6351 18.1446 31.5868 0.0000 0.0000 0.0000
# 2 18.1446 103.6351 31.5868 0.0000 0.0000 0.0000
# 3 31.5868 31.5868 102.7029 0.0000 0.0000 0.0000
# 4 0.0000 0.0000 0.0000 34.2588 0.0000 0.0000
# 5 0.0000 0.0000 0.0000 0.0000 34.2588 0.0000
# 6 0.0000 0.0000 0.0000 0.0000 0.0000 14.8396
#
#
#
# Elastic Compliance Matrix: (Units=1/GPa)
#
#
# Indices 1 2 3 4 5 6 
#
# 1 0.010734 -0.000963 -0.003005 0.000000 0.000000 0.000000
# 2 -0.000963 0.010734 -0.003005 0.000000 0.000000 0.000000
# 3 -0.003005 -0.003005 0.011585 0.000000 0.000000 0.000000
# 4 0.000000 0.000000 0.000000 0.029190 0.000000 0.000000
# 5 0.000000 0.000000 0.000000 0.000000 0.029190 0.000000
# 6 0.000000 0.000000 0.000000 0.000000 0.000000 0.067387
#
#
# Mechanical properties :
#
#
# Convention : Reuss Voigt Hill
#
# Bulk Modulus (GPa) = 52.33899 52.51216 52.42558
# Shear Modulus (GPa) = 27.91199 31.91508 29.91353
#
# Velocity S-wave (km/s) = 3.32091 3.55108 3.43792
# Velocity P-wave (km/s) = 5.94849 6.12878 6.03931
#
# Compressibility (1/GPa) = 0.01910621
#
# Stress axis : x y z
#
# Youngs Moduli (GPa) = 93.16376 93.16376 86.31709
#
# Poissons Ratio (x) = 0.08976 0.25938
# Poissons Ratio (y) = 0.08976 0.25938
# Poissons Ratio (z) = 0.27995 0.27995
#
# Static dielectric constant tensor:
#      x y z
#    x 2.125880 0.000000 0.000000 
#    y 0.000000 2.125880 0.000000 
#    z 0.000000 0.000000 1.979200 
# 
# From -- ./inp_files/5534.got.cif
#   From: 2010.05.17/outbox.cif.g08.bks.cpg/sg122_3_cif.got.tgz:5534.got - 2010.05.20 11:37:33.
