data_PCOD9560271
_publ_section_title
;
Structure prediction by ZEFSAII (Michael W. Deem and Ramdas Pophale) SiO2 
 PCOD9560271
Probable space group: I -4 2 M
;
_chemical_formula_sum "Si O2"
_cell_formula_units_Z 104
_cell_length_a 16.858164
_cell_length_b 16.858164
_cell_length_c 18.425978
_cell_angle_alpha 90.000000
_cell_angle_beta 90.000000
_cell_angle_gamma 90.000000
_cell_volume 5236.620447
_symmetry_space_group_name_H-M "I -4 2 M"
_symmetry_group_IT_number 121
_symmetry_cell_setting 'tetragonal'
loop_
_space_group_symop_operation_xyz
x,y,z
y,-x,-z
-x,-y,z
-y,x,-z
x,-y,-z
-x,y,-z
-y,-x,z
y,x,z
1/2+x,1/2+y,1/2+z
1/2+y,1/2-x,1/2-z
1/2-x,1/2-y,1/2+z
1/2-y,1/2+x,1/2-z
1/2+x,1/2-y,1/2-z
1/2-x,1/2+y,1/2-z
1/2-y,1/2-x,1/2+z
1/2+y,1/2+x,1/2+z
loop_
_atom_site_type_symbol
_atom_site_label
_atom_site_fract_x
_atom_site_fract_y
_atom_site_fract_z
Si Si1 0.423007 0.788788 0.376180
Si Si2 0.960206 0.427750 0.420381
Si Si3 0.633437 0.500000 0.000000
Si Si4 0.219247 0.088997 0.856020
Si Si5 0.777745 0.447962 0.093940
Si Si6 0.322039 0.799122 0.510242
Si Si7 0.800974 0.667719 0.771124
O O1 0.494153 0.726897 0.362759
O O2 0.354250 0.769457 0.433396
O O3 0.384431 0.812020 0.300035
O O4 0.451732 0.868767 0.416627
O O5 0.983301 0.341740 0.389953
O O6 0.000000 0.500000 0.377093
O O7 0.000000 0.427958 0.500000
O O8 0.693824 0.481112 0.066412
O O9 0.575461 0.424540 0.987800
O O10 0.134456 0.134456 0.846991
O O11 0.279448 0.123257 0.795023
O O12 0.257428 0.123072 0.930017
O O13 0.776406 0.389663 0.162560
O O14 0.813127 0.391497 0.029214
O O15 0.234387 0.765614 0.521133
O O16 0.730214 0.730214 0.759148
#
# Coordination Sequence:
#
# PCOD9560271 Si02
#       7
#    16  16   8  16  16  16  16
#     4  12  22  36  61  87 122 153 202 253 296 365
#     4  11  22  35  58  93 123 148 186 244 311 377
#     4  11  22  36  59  88 116 158 223 276 302 349
#     4   9  21  40  59  84 119 160 196 239 307 370
#     4  11  20  41  60  85 125 163 197 251 325 370
#     4  10  19  35  62  87 111 152 203 248 299 366
#     4  10  23  40  59  82 119 165 207 247 300 372
#
# _framework density 19.860137000000002
#
# number of rings (size 3 to 8) (size 9 to 14) (size 15 to 20)
#    0.000    1.462    2.308    5.077    4.308    0.000 
#    0.000    1.538    0.000    2.769    0.000    4.308 
#    0.000    0.000    0.000    0.000    0.000    0.000 
#
# Total GULP energy -289653.640803 kJ/mol
# GULP energy per Si atom -5570.262323 kJ/mol
# Density = 1.981493 g / cm^3
# Si number density = 19.860137 Si / 1000 Ang^3
#
#
#
# Elastic Constant Matrix: (Units=GPa)
#
#
# Indices 1 2 3 4 5 6 
#
# 1 86.4045 28.9677 21.5152 0.0000 0.0000 0.0000
# 2 28.9677 86.4040 21.5149 0.0000 0.0000 0.0000
# 3 21.5152 21.5149 91.3277 0.0000 0.0000 0.0000
# 4 0.0000 0.0000 0.0000 11.3575 0.0000 0.0000
# 5 0.0000 0.0000 0.0000 0.0000 11.3585 0.0000
# 6 0.0000 0.0000 0.0000 0.0000 0.0000 26.8234
#
#
#
# Elastic Compliance Matrix: (Units=1/GPa)
#
#
# Indices 1 2 3 4 5 6 
#
# 1 0.013457 -0.003954 -0.002239 0.000000 0.000000 0.000000
# 2 -0.003954 0.013457 -0.002239 0.000000 0.000000 0.000000
# 3 -0.002239 -0.002239 0.012004 0.000000 0.000000 0.000000
# 4 0.000000 0.000000 0.000000 0.088047 0.000000 0.000000
# 5 0.000000 0.000000 0.000000 0.000000 0.088040 0.000000
# 6 0.000000 0.000000 0.000000 0.000000 0.000000 0.037281
#
#
# Mechanical properties :
#
#
# Convention : Reuss Voigt Hill
#
# Bulk Modulus (GPa) = 45.34130 45.34801 45.34465
# Shear Modulus (GPa) = 18.08322 22.71712 20.40017
#
# Velocity S-wave (km/s) = 3.02077 3.38576 3.20846
# Velocity P-wave (km/s) = 5.92002 6.17801 6.05039
#
# Compressibility (1/GPa) = 0.02205495
#
# Stress axis : x y z
#
# Youngs Moduli (GPa) = 74.31349 74.31318 83.30329
#
# Poissons Ratio (x) = 0.29383 0.18649
# Poissons Ratio (y) = 0.29383 0.18648
# Poissons Ratio (z) = 0.16636 0.16636
#
# Static dielectric constant tensor:
#      x y z
#    x 1.799400 0.000000 0.000000 
#    y 0.000000 1.799410 0.000000 
#    z 0.000000 0.000000 1.721620 
# 
# From -- ./inp_files/5496.got.cif
#   From: 2010.05.17/outbox.cif.g08.bks.cpg/sg121_3_cif.got.tgz:5496.got - 2010.05.20 11:32:06.
