data_PCOD9560059
_publ_section_title
;
Structure prediction by ZEFSAII (Michael W. Deem and Ramdas Pophale) SiO2 
 PCOD9560059
Probable space group: I -4 C 2
;
_chemical_formula_sum "Si O2"
_cell_formula_units_Z 64
_cell_length_a 16.223521
_cell_length_b 16.223521
_cell_length_c 11.494649
_cell_angle_alpha 90.000000
_cell_angle_beta 90.000000
_cell_angle_gamma 90.000000
_cell_volume 3025.421890
_symmetry_space_group_name_H-M "I -4 C 2"
_symmetry_group_IT_number 120
_symmetry_cell_setting 'tetragonal'
loop_
_space_group_symop_operation_xyz
x,y,z
y,-x,-z
-x,-y,z
-y,x,-z
y,x,1/2-z
-y,-x,1/2-z
-x,y,1/2+z
x,-y,1/2+z
1/2+x,1/2+y,1/2+z
1/2+y,1/2-x,1/2-z
1/2-x,1/2-y,1/2+z
1/2-y,1/2+x,1/2-z
1/2+y,1/2+x,-z
1/2-y,1/2-x,-z
1/2-x,1/2+y,z
1/2+x,1/2-y,z
loop_
_atom_site_type_symbol
_atom_site_label
_atom_site_fract_x
_atom_site_fract_y
_atom_site_fract_z
Si Si1 0.357227 0.940026 0.596794
Si Si2 0.461112 0.613790 0.059135
Si Si3 0.000000 0.000000 0.250000
Si Si4 0.746539 0.126233 0.804454
Si Si5 0.000000 0.500000 0.250000
Si Si6 0.123200 0.376801 0.000000
O O1 0.368488 0.868488 0.500000
O O2 0.286317 0.925672 0.692875
O O3 0.441358 0.944196 0.671743
O O4 0.358631 0.027187 0.528901
O O5 0.500463 0.582139 0.177514
O O6 0.419420 0.697499 0.097282
O O7 0.539482 0.603485 0.972999
O O8 0.800716 0.199285 0.750000
O O9 0.669285 0.151990 0.883113
#
# Coordination Sequence:
#
# PCOD9560059 Si02
#       6
#    16  16   4  16   4   8
#     4  12  23  45  79 102 140 187 246 297 359 451
#     4   9  20  40  69  98 135 184 238 278 346 443
#     4   8  14  36  64  86 124 184 226 264 322 438
#     4  12  28  45  69 108 147 185 236 311 377 423
#     4  12  18  48  72 110 128 186 252 292 350 456
#     4  12  27  46  70 108 136 187 248 288 370 434
#
# _framework density 21.154074999999999
#
# number of rings (size 3 to 8) (size 9 to 14) (size 15 to 20)
#    0.000    1.250    6.250    0.000    5.250    0.000 
#    4.500    0.000    0.000    0.000    0.000    0.000 
#    0.000    0.000    0.000    0.000    0.000    0.000 
#
# Total GULP energy -178171.993817 kJ/mol
# GULP energy per Si atom -5567.874807 kJ/mol
# Density = 2.110593 g / cm^3
# Si number density = 21.154075 Si / 1000 Ang^3
#
#
#
# Elastic Constant Matrix: (Units=GPa)
#
#
# Indices 1 2 3 4 5 6 
#
# 1 75.0664 38.4258 41.6847 0.0000 0.0000 0.0000
# 2 38.4258 75.0652 41.6845 0.0000 0.0000 0.0000
# 3 41.6847 41.6845 107.1500 0.0000 0.0000 0.0000
# 4 0.0000 0.0000 0.0000 35.7202 0.0000 0.0000
# 5 0.0000 0.0000 0.0000 0.0000 35.7210 0.0000
# 6 0.0000 0.0000 0.0000 0.0000 0.0000 21.2800
#
#
#
# Elastic Compliance Matrix: (Units=1/GPa)
#
#
# Indices 1 2 3 4 5 6 
#
# 1 0.019815 -0.007478 -0.004799 0.000000 0.000000 0.000000
# 2 -0.007478 0.019815 -0.004799 0.000000 0.000000 0.000000
# 3 -0.004799 -0.004799 0.013067 0.000000 0.000000 0.000000
# 4 0.000000 0.000000 0.000000 0.027995 0.000000 0.000000
# 5 0.000000 0.000000 0.000000 0.000000 0.027995 0.000000
# 6 0.000000 0.000000 0.000000 0.000000 0.000000 0.046993
#
#
# Mechanical properties :
#
#
# Convention : Reuss Voigt Hill
#
# Bulk Modulus (GPa) = 53.92887 55.65242 54.79064
# Shear Modulus (GPa) = 25.50847 27.57666 26.54256
#
# Velocity S-wave (km/s) = 3.47629 3.61447 3.54605
# Velocity P-wave (km/s) = 6.45457 6.61698 6.53628
#
# Compressibility (1/GPa) = 0.01854294
#
# Stress axis : x y z
#
# Youngs Moduli (GPa) = 50.46802 50.46718 76.52906
#
# Poissons Ratio (x) = 0.37739 0.36729
# Poissons Ratio (y) = 0.37740 0.36730
# Poissons Ratio (z) = 0.24221 0.24221
#
# Static dielectric constant tensor:
#      x y z
#    x 1.822260 0.000000 0.000000 
#    y 0.000000 1.822260 0.000000 
#    z 0.000000 0.000000 1.857360 
# 
# From -- ./inp_files/2414.got.cif
#   From: 2010.05.17/outbox.cif.g08.bks.cpg/sg120_2_cif.got.tgz:2414.got - 2010.05.20 11:28:13.
