data_PCOD9560317
_publ_section_title
;
Structure prediction by ZEFSAII (Michael W. Deem and Ramdas Pophale) SiO2 
 PCOD9560317
Probable space group: I -4 2 M
;
_chemical_formula_sum "Si O2"
_cell_formula_units_Z 128
_cell_length_a 22.244666
_cell_length_b 22.244666
_cell_length_c 12.708503
_cell_angle_alpha 90.000000
_cell_angle_beta 90.000000
_cell_angle_gamma 90.000000
_cell_volume 6288.487100
_symmetry_space_group_name_H-M "I -4 2 M"
_symmetry_group_IT_number 121
_symmetry_cell_setting 'tetragonal'
loop_
_space_group_symop_operation_xyz
x,y,z
y,-x,-z
-x,-y,z
-y,x,-z
x,-y,-z
-x,y,-z
-y,-x,z
y,x,z
1/2+x,1/2+y,1/2+z
1/2+y,1/2-x,1/2-z
1/2-x,1/2-y,1/2+z
1/2-y,1/2+x,1/2-z
1/2+x,1/2-y,1/2-z
1/2-x,1/2+y,1/2-z
1/2-y,1/2-x,1/2+z
1/2+y,1/2+x,1/2+z
loop_
_atom_site_type_symbol
_atom_site_label
_atom_site_fract_x
_atom_site_fract_y
_atom_site_fract_z
Si Si1 0.476141 0.381017 0.881583
Si Si2 0.808012 0.468516 0.814197
Si Si3 0.663802 0.877003 0.520445
Si Si4 0.093454 0.242003 0.361303
Si Si5 0.320318 0.412689 0.234289
Si Si6 0.249005 0.344176 0.637481
Si Si7 0.207999 0.064291 0.967757
Si Si8 0.151377 0.453592 0.412194
O O1 0.440274 0.440274 0.846727
O O2 0.429391 0.325248 0.881662
O O3 0.531964 0.359620 0.810665
O O4 0.500000 0.389587 0.000000
O O5 0.841062 0.436448 0.909706
O O6 0.781057 0.533165 0.841294
O O7 0.748746 0.426072 0.796282
O O8 0.848293 0.472274 0.709372
O O9 0.727349 0.875080 0.460737
O O10 0.655147 0.818672 0.593983
O O11 0.611595 0.875871 0.433225
O O12 0.133205 0.246592 0.256812
O O13 0.351084 0.351084 0.196337
O O14 0.321269 0.413322 0.360801
O O15 0.279329 0.279329 0.627935
O O16 0.287562 0.389961 0.564464
O O17 0.277534 0.052488 0.936848
O O18 0.181507 0.000000 0.000000
O O19 0.127459 0.500000 0.500000
#
# Coordination Sequence:
#
# PCOD9560317 Si02
#       8
#    16  16  16  16  16  16  16  16
#     4  11  23  38  57  81 112 154 201 249 301 352
#     4  10  20  37  59  82 113 155 199 238 282 350
#     4  11  22  36  57  89 117 146 188 239 296 348
#     4  11  22  40  62  83 114 157 203 238 281 359
#     4  10  20  34  55  80 107 146 194 244 293 342
#     4  11  23  37  57  87 122 156 189 240 307 361
#     4   9  17  34  56  78 108 148 195 234 277 350
#     4   9  18  34  57  83 114 149 186 230 282 348
#
# _framework density 20.354658000000001
#
# number of rings (size 3 to 8) (size 9 to 14) (size 15 to 20)
#    0.000    1.750    0.000    7.500    0.000    2.375 
#    0.000    0.625    0.000    1.500    0.000    3.500 
#    0.000    0.000    0.000    0.000    0.000    0.000 
#
# Total GULP energy -357381.383988 kJ/mol
# GULP energy per Si atom -5584.084125 kJ/mol
# Density = 2.030833 g / cm^3
# Si number density = 20.354658 Si / 1000 Ang^3
#
#
#
# Elastic Constant Matrix: (Units=GPa)
#
#
# Indices 1 2 3 4 5 6 
#
# 1 23.7652 15.0061 10.3371 0.0000 0.0000 0.0000
# 2 15.0061 23.7652 10.3371 0.0000 0.0000 0.0000
# 3 10.3371 10.3371 87.6013 0.0000 0.0000 0.0000
# 4 0.0000 0.0000 0.0000 13.8838 0.0000 0.0000
# 5 0.0000 0.0000 0.0000 0.0000 13.8838 0.0000
# 6 0.0000 0.0000 0.0000 0.0000 0.0000 31.7660
#
#
#
# Elastic Compliance Matrix: (Units=1/GPa)
#
#
# Indices 1 2 3 4 5 6 
#
# 1 0.070845 -0.043321 -0.003248 0.000000 0.000000 0.000000
# 2 -0.043321 0.070845 -0.003248 0.000000 0.000000 0.000000
# 3 -0.003248 -0.003248 0.012182 0.000000 0.000000 0.000000
# 4 0.000000 0.000000 0.000000 0.072026 0.000000 0.000000
# 5 0.000000 0.000000 0.000000 0.000000 0.072026 0.000000
# 6 0.000000 0.000000 0.000000 0.000000 0.000000 0.031480
#
#
# Mechanical properties :
#
#
# Convention : Reuss Voigt Hill
#
# Bulk Modulus (GPa) = 18.43704 22.94358 20.69031
# Shear Modulus (GPa) = 11.18272 18.53681 14.85976
#
# Velocity S-wave (km/s) = 2.34646 3.02104 2.70486
# Velocity P-wave (km/s) = 4.05200 4.84410 4.46565
#
# Compressibility (1/GPa) = 0.05423865
#
# Stress axis : x y z
#
# Youngs Moduli (GPa) = 14.11528 14.11528 82.08918
#
# Poissons Ratio (x) = 0.61149 0.26662
# Poissons Ratio (y) = 0.61149 0.26662
# Poissons Ratio (z) = 0.04585 0.04585
#
# Static dielectric constant tensor:
#      x y z
#    x 1.738780 0.000000 0.000000 
#    y 0.000000 1.738780 0.000000 
#    z 0.000000 0.000000 1.735770 
# 
# From -- ./inp_files/3557.got.cif
#   From: 2010.05.17/outbox.cif.g08.bks.cpg/sg121_2_cif.got.tgz:3557.got - 2010.05.20 11:32:06.
