data_PCOD9560605
_publ_section_title
;
Structure prediction by ZEFSAII (Michael W. Deem and Ramdas Pophale) SiO2 
 PCOD9560605
Probable space group: I -4 2 M
;
_chemical_formula_sum "Si O2"
_cell_formula_units_Z 40
_cell_length_a 13.110902
_cell_length_b 13.110902
_cell_length_c 12.852771
_cell_angle_alpha 90.000000
_cell_angle_beta 90.000000
_cell_angle_gamma 90.000000
_cell_volume 2209.336727
_symmetry_space_group_name_H-M "I -4 2 M"
_symmetry_group_IT_number 121
_symmetry_cell_setting 'tetragonal'
loop_
_space_group_symop_operation_xyz
x,y,z
y,-x,-z
-x,-y,z
-y,x,-z
x,-y,-z
-x,y,-z
-y,-x,z
y,x,z
1/2+x,1/2+y,1/2+z
1/2+y,1/2-x,1/2-z
1/2-x,1/2-y,1/2+z
1/2-y,1/2+x,1/2-z
1/2+x,1/2-y,1/2-z
1/2-x,1/2+y,1/2-z
1/2-y,1/2-x,1/2+z
1/2+y,1/2+x,1/2+z
loop_
_atom_site_type_symbol
_atom_site_label
_atom_site_fract_x
_atom_site_fract_y
_atom_site_fract_z
Si Si1 0.233527 0.596362 0.195782
Si Si2 0.018933 0.623117 0.120174
Si Si3 0.170930 0.000000 0.500000
O O1 0.326926 0.673075 0.213208
O O2 0.189583 0.548492 0.301383
O O3 0.265942 0.515263 0.106137
O O4 0.135266 0.649573 0.146016
O O5 0.000000 0.500000 0.135407
O O6 0.000000 0.644073 0.000000
O O7 0.098145 0.901856 0.489707
#
# Coordination Sequence:
#
# PCOD9560605 Si02
#       3
#    16  16   8
#     4  11  22  37  62  89 117 157 195 238 295 350
#     4  11  22  40  59  83 120 153 191 248 290 339
#     4   9  20  38  59  88 120 152 197 244 287 342
#
# _framework density 18.104980999999999
#
# number of rings (size 3 to 8) (size 9 to 14) (size 15 to 20)
#    0.000    1.400    4.000    2.400    0.000    3.200 
#    0.000    0.000    0.000    0.000    0.000    2.800 
#    0.000    0.000    0.000    0.000    0.000    0.000 
#
# Total GULP energy -111567.757606 kJ/mol
# GULP energy per Si atom -5578.387880 kJ/mol
# Density = 1.806377 g / cm^3
# Si number density = 18.104981 Si / 1000 Ang^3
#
#
#
# Elastic Constant Matrix: (Units=GPa)
#
#
# Indices 1 2 3 4 5 6 
#
# 1 73.5960 26.2029 67.8851 0.0000 0.0000 0.0000
# 2 26.2029 73.6009 67.8855 0.0000 0.0000 0.0000
# 3 67.8851 67.8855 221.8529 0.0000 0.0000 0.0000
# 4 0.0000 0.0000 0.0000 28.2859 0.0000 0.0000
# 5 0.0000 0.0000 0.0000 0.0000 28.2861 0.0000
# 6 0.0000 0.0000 0.0000 0.0000 0.0000 17.0283
#
#
#
# Elastic Compliance Matrix: (Units=1/GPa)
#
#
# Indices 1 2 3 4 5 6 
#
# 1 0.019133 -0.001967 -0.005253 0.000000 0.000000 0.000000
# 2 -0.001967 0.019131 -0.005252 0.000000 0.000000 0.000000
# 3 -0.005253 -0.005252 0.007722 0.000000 0.000000 0.000000
# 4 0.000000 0.000000 0.000000 0.035353 0.000000 0.000000
# 5 0.000000 0.000000 0.000000 0.000000 0.035353 0.000000
# 6 0.000000 0.000000 0.000000 0.000000 0.000000 0.058726
#
#
# Mechanical properties :
#
#
# Convention : Reuss Voigt Hill
#
# Bulk Modulus (GPa) = 47.52214 76.99967 62.26090
# Shear Modulus (GPa) = 24.11075 28.52514 26.31795
#
# Velocity S-wave (km/s) = 3.65323 3.97362 3.81679
# Velocity P-wave (km/s) = 6.64077 7.97964 7.34080
#
# Compressibility (1/GPa) = 0.02104282
#
# Stress axis : x y z
#
# Youngs Moduli (GPa) = 52.26553 52.27013 129.50123
#
# Poissons Ratio (x) = 0.10281 0.68023
# Poissons Ratio (y) = 0.10280 0.68017
# Poissons Ratio (z) = 0.27454 0.27454
#
# Static dielectric constant tensor:
#      x y z
#    x 1.635560 0.000000 0.000000 
#    y 0.000000 1.635560 0.000000 
#    z 0.000000 0.000000 1.642380 
# 
# From -- ./inp_files/2491.got.cif
#   From: 2010.05.17/outbox.cif.g08.bks.cpg/sg121_2_cif.got.tgz:2491.got - 2010.05.20 11:32:06.
