data_PCOD9560525
_publ_section_title
;
Structure prediction by ZEFSAII (Michael W. Deem and Ramdas Pophale) SiO2 
 PCOD9560525
Probable space group: I -4 2 M
;
_chemical_formula_sum "Si O2"
_cell_formula_units_Z 48
_cell_length_a 13.532424
_cell_length_b 13.532424
_cell_length_c 11.015687
_cell_angle_alpha 90.000000
_cell_angle_beta 90.000000
_cell_angle_gamma 90.000000
_cell_volume 2017.264198
_symmetry_space_group_name_H-M "I -4 2 M"
_symmetry_group_IT_number 121
_symmetry_cell_setting 'tetragonal'
loop_
_space_group_symop_operation_xyz
x,y,z
y,-x,-z
-x,-y,z
-y,x,-z
x,-y,-z
-x,y,-z
-y,-x,z
y,x,z
1/2+x,1/2+y,1/2+z
1/2+y,1/2-x,1/2-z
1/2-x,1/2-y,1/2+z
1/2-y,1/2+x,1/2-z
1/2+x,1/2-y,1/2-z
1/2-x,1/2+y,1/2-z
1/2-y,1/2-x,1/2+z
1/2+y,1/2+x,1/2+z
loop_
_atom_site_type_symbol
_atom_site_label
_atom_site_fract_x
_atom_site_fract_y
_atom_site_fract_z
Si Si1 0.661098 0.507138 0.641900
Si Si2 0.635634 0.804793 0.250656
Si Si3 0.280442 0.112390 0.487914
O O1 0.687570 0.500000 0.500000
O O2 0.572158 0.427843 0.656268
O O3 0.614052 0.614052 0.669757
O O4 0.748219 0.467130 0.723614
O O5 0.720444 0.720444 0.256921
O O6 0.656301 0.872118 0.366748
O O7 0.636115 0.840910 0.112052
O O8 0.188393 0.188393 0.485039
O O9 0.245338 0.000000 0.500000
#
# Coordination Sequence:
#
# PCOD9560525 Si02
#       3
#    16  16  16
#     4   8  14  26  49  84 119 149 190 247 307 368
#     4   9  19  36  57  84 122 165 203 245 309 381
#     4  10  22  40  63  91 124 166 212 260 318 380
#
# _framework density 23.794602000000001
#
# number of rings (size 3 to 8) (size 9 to 14) (size 15 to 20)
#    0.000    3.000    0.000    1.000    0.000    4.333 
#    0.000   10.000    0.000    8.000    0.000    0.000 
#    0.000    0.000    0.000    0.000    0.000    0.000 
#
# Total GULP energy -134116.596972 kJ/mol
# GULP energy per Si atom -5588.191540 kJ/mol
# Density = 2.374044 g / cm^3
# Si number density = 23.794602 Si / 1000 Ang^3
#
#
#
# Elastic Constant Matrix: (Units=GPa)
#
#
# Indices 1 2 3 4 5 6 
#
# 1 61.3085 29.6698 66.3339 0.0000 0.0000 0.0000
# 2 29.6698 61.3082 66.3339 0.0000 0.0000 0.0000
# 3 66.3339 66.3339 200.9195 0.0000 0.0000 0.0000
# 4 0.0000 0.0000 0.0000 31.5147 0.0000 0.0000
# 5 0.0000 0.0000 0.0000 0.0000 31.5151 0.0000
# 6 0.0000 0.0000 0.0000 0.0000 0.0000 29.0808
#
#
#
# Elastic Compliance Matrix: (Units=1/GPa)
#
#
# Indices 1 2 3 4 5 6 
#
# 1 0.026402 -0.005205 -0.006998 0.000000 0.000000 0.000000
# 2 -0.005205 0.026402 -0.006998 0.000000 0.000000 0.000000
# 3 -0.006998 -0.006998 0.009598 0.000000 0.000000 0.000000
# 4 0.000000 0.000000 0.000000 0.031731 0.000000 0.000000
# 5 0.000000 0.000000 0.000000 0.000000 0.031731 0.000000
# 6 0.000000 0.000000 0.000000 0.000000 0.000000 0.034387
#
#
# Mechanical properties :
#
#
# Convention : Reuss Voigt Hill
#
# Bulk Modulus (GPa) = 41.66892 72.02347 56.84619
# Shear Modulus (GPa) = 24.19517 29.16869 26.68193
#
# Velocity S-wave (km/s) = 3.19224 3.50502 3.35228
# Velocity P-wave (km/s) = 5.58007 6.83482 6.23907
#
# Compressibility (1/GPa) = 0.02399870
#
# Stress axis : x y z
#
# Youngs Moduli (GPa) = 37.87639 37.87613 104.18888
#
# Poissons Ratio (x) = 0.19716 0.72912
# Poissons Ratio (y) = 0.19716 0.72912
# Poissons Ratio (z) = 0.26506 0.26506
#
# Static dielectric constant tensor:
#      x y z
#    x 1.906270 0.000000 0.000000 
#    y 0.000000 1.906270 0.000000 
#    z 0.000000 0.000000 1.912060 
# 
# From -- ./inp_files/2546.got.cif
#   From: 2010.05.17/outbox.cif.g08.bks.cpg/sg121_2_cif.got.tgz:2546.got - 2010.05.20 11:32:06.
