data_PCOD9560017
_publ_section_title
;
Structure prediction by ZEFSAII (Michael W. Deem and Ramdas Pophale) SiO2 
 PCOD9560017
Probable space group: I -4 C 2
;
_chemical_formula_sum "Si O2"
_cell_formula_units_Z 96
_cell_length_a 14.341737
_cell_length_b 14.341737
_cell_length_c 22.949041
_cell_angle_alpha 90.000000
_cell_angle_beta 90.000000
_cell_angle_gamma 90.000000
_cell_volume 4720.283141
_symmetry_space_group_name_H-M "I -4 C 2"
_symmetry_group_IT_number 120
_symmetry_cell_setting 'tetragonal'
loop_
_space_group_symop_operation_xyz
x,y,z
y,-x,-z
-x,-y,z
-y,x,-z
y,x,1/2-z
-y,-x,1/2-z
-x,y,1/2+z
x,-y,1/2+z
1/2+x,1/2+y,1/2+z
1/2+y,1/2-x,1/2-z
1/2-x,1/2-y,1/2+z
1/2-y,1/2+x,1/2-z
1/2+y,1/2+x,-z
1/2-y,1/2-x,-z
1/2-x,1/2+y,z
1/2+x,1/2-y,z
loop_
_atom_site_type_symbol
_atom_site_label
_atom_site_fract_x
_atom_site_fract_y
_atom_site_fract_z
Si Si1 0.613321 0.909536 0.760920
Si Si2 0.466500 0.405366 0.314343
Si Si3 0.394306 0.758556 0.968964
Si Si4 0.893001 0.247239 0.983344
Si Si5 0.153502 0.254976 0.838802
Si Si6 0.738498 0.628540 0.655504
O O1 0.518619 0.889141 0.724576
O O2 0.699331 0.891129 0.718265
O O3 0.612335 0.839478 0.815138
O O4 0.500000 0.500000 0.345536
O O5 0.435707 0.435707 0.250000
O O6 0.375178 0.353724 0.338430
O O7 0.554249 0.334262 0.317350
O O8 0.497212 0.743143 0.993338
O O9 0.390807 0.783860 0.900410
O O10 0.343335 0.843335 0.000000
O O11 0.330312 0.667952 0.982784
O O12 0.882424 0.235470 0.913845
O O13 0.845208 0.345208 0.000000
O O14 0.261954 0.279819 0.834367
#
# Coordination Sequence:
#
# PCOD9560017 Si02
#       6
#    16  16  16  16  16  16
#     4  11  24  41  68 103 138 178 228 282 351 430
#     4  11  26  44  67 108 143 178 235 285 352 435
#     4  11  24  47  70 102 136 182 238 293 352 417
#     4  11  24  47  70  99 140 182 240 296 349 422
#     4  12  24  45  73  98 141 184 230 287 356 422
#     4  12  24  45  69  98 142 185 229 292 354 423
#
# _framework density 20.337764
#
# number of rings (size 3 to 8) (size 9 to 14) (size 15 to 20)
#    0.000    0.667    6.667    1.500    4.667    3.333 
#    0.000    0.000    0.000    0.000    0.000    0.000 
#    0.000    0.000    0.000    0.000    0.000    0.000 
#
# Total GULP energy -267863.659786 kJ/mol
# GULP energy per Si atom -5580.492912 kJ/mol
# Density = 2.029147 g / cm^3
# Si number density = 20.337764 Si / 1000 Ang^3
#
#
#
# Elastic Constant Matrix: (Units=GPa)
#
#
# Indices 1 2 3 4 5 6 
#
# 1 95.8908 24.4942 3.5303 0.0000 0.0000 0.0000
# 2 24.4942 95.8908 3.5303 0.0000 0.0000 0.0000
# 3 3.5303 3.5303 58.2705 0.0000 0.0000 0.0000
# 4 0.0000 0.0000 0.0000 7.7660 0.0000 0.0000
# 5 0.0000 0.0000 0.0000 0.0000 7.7660 0.0000
# 6 0.0000 0.0000 0.0000 0.0000 0.0000 32.6065
#
#
#
# Elastic Compliance Matrix: (Units=1/GPa)
#
#
# Indices 1 2 3 4 5 6 
#
# 1 0.011171 -0.002835 -0.000505 0.000000 0.000000 0.000000
# 2 -0.002835 0.011171 -0.000505 0.000000 0.000000 0.000000
# 3 -0.000505 -0.000505 0.017223 0.000000 0.000000 0.000000
# 4 0.000000 0.000000 0.000000 0.128766 0.000000 0.000000
# 5 0.000000 0.000000 0.000000 0.000000 0.128766 0.000000
# 6 0.000000 0.000000 0.000000 0.000000 0.000000 0.030669
#
#
# Mechanical properties :
#
#
# Convention : Reuss Voigt Hill
#
# Bulk Modulus (GPa) = 31.37258 34.79573 33.08416
# Shear Modulus (GPa) = 14.44749 24.19421 19.32085
#
# Velocity S-wave (km/s) = 2.66818 3.45283 3.08555
# Velocity P-wave (km/s) = 4.99515 5.74823 5.38487
#
# Compressibility (1/GPa) = 0.03187497
#
# Stress axis : x y z
#
# Youngs Moduli (GPa) = 89.51525 89.51525 58.06340
#
# Poissons Ratio (x) = 0.25377 0.02932
# Poissons Ratio (y) = 0.25377 0.02932
# Poissons Ratio (z) = 0.04521 0.04521
#
# Static dielectric constant tensor:
#      x y z
#    x 1.756020 0.000000 0.000000 
#    y 0.000000 1.756020 0.000000 
#    z 0.000000 0.000000 1.780310 
# 
# From -- ./inp_files/5340.got.cif
#   From: 2010.05.17/outbox.cif.g08.bks.cpg/sg120_3_cif.got.tgz:5340.got - 2010.05.20 11:28:13.
