data_PCOD9560652
_publ_section_title
;
Structure prediction by ZEFSAII (Michael W. Deem and Ramdas Pophale) SiO2 
 PCOD9560652
Probable space group: I -4 2 M
;
_chemical_formula_sum "Si O2"
_cell_formula_units_Z 24
_cell_length_a 13.421660
_cell_length_b 13.421660
_cell_length_c 4.799589
_cell_angle_alpha 90.000000
_cell_angle_beta 90.000000
_cell_angle_gamma 90.000000
_cell_volume 864.602556
_symmetry_space_group_name_H-M "I -4 2 M"
_symmetry_group_IT_number 121
_symmetry_cell_setting 'tetragonal'
loop_
_space_group_symop_operation_xyz
x,y,z
y,-x,-z
-x,-y,z
-y,x,-z
x,-y,-z
-x,y,-z
-y,-x,z
y,x,z
1/2+x,1/2+y,1/2+z
1/2+y,1/2-x,1/2-z
1/2-x,1/2-y,1/2+z
1/2-y,1/2+x,1/2-z
1/2+x,1/2-y,1/2-z
1/2-x,1/2+y,1/2-z
1/2-y,1/2-x,1/2+z
1/2+y,1/2+x,1/2+z
loop_
_atom_site_type_symbol
_atom_site_label
_atom_site_fract_x
_atom_site_fract_y
_atom_site_fract_z
Si Si1 0.100154 0.689646 0.428455
Si Si2 0.657726 0.500000 0.500000
O O1 0.147997 0.687571 0.732464
O O2 0.000000 0.626231 0.500000
O O3 0.051604 0.777940 0.245373
O O4 0.584855 0.415146 0.378623
#
# Coordination Sequence:
#
# PCOD9560652 Si02
#       2
#    16   8
#     4  12  25  50  79 118 159 209 270 336 407 484
#     4  11  28  54  83 120 168 222 277 340 416 493
#
# _framework density 27.758420999999998
#
# number of rings (size 3 to 8) (size 9 to 14) (size 15 to 20)
#    0.000    0.333    6.667    0.000    0.000    9.333 
#    0.000    3.333    0.000    0.000    0.000    0.000 
#    0.000    0.000    0.000    0.000    0.000    0.000 
#
# Total GULP energy -66831.161297 kJ/mol
# GULP energy per Si atom -5569.263441 kJ/mol
# Density = 2.769524 g / cm^3
# Si number density = 27.758421 Si / 1000 Ang^3
#
#
#
# Elastic Constant Matrix: (Units=GPa)
#
#
# Indices 1 2 3 4 5 6 
#
# 1 134.0707 68.6938 43.7189 0.0000 0.0000 0.0000
# 2 68.6938 134.0698 43.7177 0.0000 0.0000 0.0000
# 3 43.7189 43.7177 210.1850 0.0000 0.0000 0.0000
# 4 0.0000 0.0000 0.0000 26.5115 0.0000 0.0000
# 5 0.0000 0.0000 0.0000 0.0000 26.5121 0.0000
# 6 0.0000 0.0000 0.0000 0.0000 0.0000 45.8054
#
#
#
# Elastic Compliance Matrix: (Units=1/GPa)
#
#
# Indices 1 2 3 4 5 6 
#
# 1 0.010357 -0.004939 -0.001127 0.000000 0.000000 0.000000
# 2 -0.004939 0.010357 -0.001127 0.000000 0.000000 0.000000
# 3 -0.001127 -0.001127 0.005226 0.000000 0.000000 0.000000
# 4 0.000000 0.000000 0.000000 0.037719 0.000000 0.000000
# 5 0.000000 0.000000 0.000000 0.000000 0.037719 0.000000
# 6 0.000000 0.000000 0.000000 0.000000 0.000000 0.021831
#
#
# Mechanical properties :
#
#
# Convention : Reuss Voigt Hill
#
# Bulk Modulus (GPa) = 86.54645 87.84293 87.19469
# Shear Modulus (GPa) = 35.34891 41.24550 38.29720
#
# Velocity S-wave (km/s) = 3.57241 3.85888 3.71841
# Velocity P-wave (km/s) = 6.94711 7.18115 7.06510
#
# Compressibility (1/GPa) = 0.01155449
#
# Stress axis : x y z
#
# Youngs Moduli (GPa) = 96.55409 96.55382 191.33270
#
# Poissons Ratio (x) = 0.47689 0.21562
# Poissons Ratio (y) = 0.47689 0.21560
# Poissons Ratio (z) = 0.10881 0.10880
#
# Static dielectric constant tensor:
#      x y z
#    x 2.282980 0.000000 0.000000 
#    y 0.000000 2.282980 0.000000 
#    z 0.000000 0.000000 2.099220 
# 
# From -- ./inp_files/58.got.cif
#   From: 2010.05.17/outbox.cif.g08.bks.cpg/sg121_1_cif.got.tgz:58.got - 2010.05.20 11:32:06.
