data_PCOD9560219
_publ_section_title
;
Structure prediction by ZEFSAII (Michael W. Deem and Ramdas Pophale) SiO2 
 PCOD9560219
Probable space group: I -4 2 M
;
_chemical_formula_sum "Si O2"
_cell_formula_units_Z 56
_cell_length_a 11.826219
_cell_length_b 11.826219
_cell_length_c 22.971598
_cell_angle_alpha 90.000000
_cell_angle_beta 90.000000
_cell_angle_gamma 90.000000
_cell_volume 3212.795196
_symmetry_space_group_name_H-M "I -4 2 M"
_symmetry_group_IT_number 121
_symmetry_cell_setting 'tetragonal'
loop_
_space_group_symop_operation_xyz
x,y,z
y,-x,-z
-x,-y,z
-y,x,-z
x,-y,-z
-x,y,-z
-y,-x,z
y,x,z
1/2+x,1/2+y,1/2+z
1/2+y,1/2-x,1/2-z
1/2-x,1/2-y,1/2+z
1/2-y,1/2+x,1/2-z
1/2+x,1/2-y,1/2-z
1/2-x,1/2+y,1/2-z
1/2-y,1/2-x,1/2+z
1/2+y,1/2+x,1/2+z
loop_
_atom_site_type_symbol
_atom_site_label
_atom_site_fract_x
_atom_site_fract_y
_atom_site_fract_z
Si Si1 0.964113 0.623798 0.099129
Si Si2 0.000000 0.809419 0.000000
Si Si3 0.079681 0.260669 0.680180
Si Si4 0.835838 0.657197 0.306952
O O1 0.047995 0.644020 0.153619
O O2 0.000000 0.500000 0.074902
O O3 0.838952 0.615159 0.125927
O O4 0.978790 0.725521 0.054186
O O5 0.892215 0.892215 0.991308
O O6 0.140079 0.140079 0.676364
O O7 0.123912 0.319427 0.739696
O O8 0.944969 0.263634 0.685136
O O9 0.724614 0.724614 0.325799
#
# Coordination Sequence:
#
# PCOD9560219 Si02
#       4
#    16   8  16  16
#     4  10  20  35  58  77 103 137 185 218 260 313
#     4  11  23  38  54  78 113 145 176 220 268 315
#     4  10  19  32  51  75 104 137 175 218 261 311
#     4  10  19  32  51  75 104 137 175 218 261 311
#
# _framework density 17.430304
#
# number of rings (size 3 to 8) (size 9 to 14) (size 15 to 20)
#    0.000    1.857    2.857    2.143    0.000    0.571 
#    0.000    0.000    0.000    0.000    0.000    0.000 
#    0.000   20.571    0.000    0.000    0.000    0.000 
#
# Total GULP energy -156169.752083 kJ/mol
# GULP energy per Si atom -5577.491146 kJ/mol
# Density = 1.739063 g / cm^3
# Si number density = 17.430304 Si / 1000 Ang^3
#
#
#
# Elastic Constant Matrix: (Units=GPa)
#
#
# Indices 1 2 3 4 5 6 
#
# 1 46.9250 -2.4902 4.8801 0.0000 0.0000 0.0000
# 2 -2.4902 46.9250 4.8801 0.0000 0.0000 0.0000
# 3 4.8801 4.8801 53.1016 0.0000 0.0000 0.0000
# 4 0.0000 0.0000 0.0000 23.0535 0.0000 0.0000
# 5 0.0000 0.0000 0.0000 0.0000 23.0535 0.0000
# 6 0.0000 0.0000 0.0000 0.0000 0.0000 27.3320
#
#
#
# Elastic Compliance Matrix: (Units=1/GPa)
#
#
# Indices 1 2 3 4 5 6 
#
# 1 0.021603 0.001366 -0.002111 0.000000 0.000000 0.000000
# 2 0.001366 0.021603 -0.002111 0.000000 0.000000 0.000000
# 3 -0.002111 -0.002111 0.019220 0.000000 0.000000 0.000000
# 4 0.000000 0.000000 0.000000 0.043377 0.000000 0.000000
# 5 0.000000 0.000000 0.000000 0.000000 0.043377 0.000000
# 6 0.000000 0.000000 0.000000 0.000000 0.000000 0.036587
#
#
# Mechanical properties :
#
#
# Convention : Reuss Voigt Hill
#
# Bulk Modulus (GPa) = 17.63248 17.94351 17.78799
# Shear Modulus (GPa) = 23.76618 23.99990 23.88304
#
# Velocity S-wave (km/s) = 3.69656 3.71469 3.70564
# Velocity P-wave (km/s) = 5.32517 5.35867 5.34195
#
# Compressibility (1/GPa) = 0.05671352
#
# Stress axis : x y z
#
# Youngs Moduli (GPa) = 46.29075 46.29075 52.02964
#
# Poissons Ratio (x) = -0.06323 0.10983
# Poissons Ratio (y) = -0.06323 0.10983
# Poissons Ratio (z) = 0.09771 0.09771
#
# Static dielectric constant tensor:
#      x y z
#    x 1.578220 0.000000 0.000000 
#    y 0.000000 1.578220 0.000000 
#    z 0.000000 0.000000 1.575170 
# 
# From -- ./inp_files/5883.got.cif
#   From: 2010.05.17/outbox.cif.g08.bks.cpg/sg121_3_cif.got.tgz:5883.got - 2010.05.20 11:32:06.
