data_PCOD9560100
_publ_section_title
;
Structure prediction by ZEFSAII (Michael W. Deem and Ramdas Pophale) SiO2 
 PCOD9560100
Probable space group: I -4 2 M
;
_chemical_formula_sum "Si O2"
_cell_formula_units_Z 82
_cell_length_a 23.428404
_cell_length_b 23.428404
_cell_length_c 8.670225
_cell_angle_alpha 90.000000
_cell_angle_beta 90.000000
_cell_angle_gamma 90.000000
_cell_volume 4759.000789
_symmetry_space_group_name_H-M "I -4 2 M"
_symmetry_group_IT_number 121
_symmetry_cell_setting 'tetragonal'
loop_
_space_group_symop_operation_xyz
x,y,z
y,-x,-z
-x,-y,z
-y,x,-z
x,-y,-z
-x,y,-z
-y,-x,z
y,x,z
1/2+x,1/2+y,1/2+z
1/2+y,1/2-x,1/2-z
1/2-x,1/2-y,1/2+z
1/2-y,1/2+x,1/2-z
1/2+x,1/2-y,1/2-z
1/2-x,1/2+y,1/2-z
1/2-y,1/2-x,1/2+z
1/2+y,1/2+x,1/2+z
loop_
_atom_site_type_symbol
_atom_site_label
_atom_site_fract_x
_atom_site_fract_y
_atom_site_fract_z
Si Si1 0.953483 0.046518 0.802613
Si Si2 0.856003 0.757897 0.346477
Si Si3 0.651007 0.500000 0.500000
Si Si4 0.219039 0.317263 0.172997
Si Si5 0.500000 0.500000 0.000000
Si Si6 0.933183 0.838568 0.487641
Si Si7 0.106075 0.800283 0.170275
O O1 0.973746 0.107340 0.870340
O O2 0.963451 0.036550 0.620370
O O3 0.000000 0.000000 0.855426
O O4 0.808854 0.808854 0.340725
O O5 0.839555 0.714789 0.211281
O O6 0.844382 0.723814 0.505022
O O7 0.916422 0.789091 0.365311
O O8 0.689195 0.551239 0.434695
O O9 0.268679 0.268679 0.177119
O O10 0.239806 0.362932 0.301689
O O11 0.890325 0.890325 0.452172
O O12 0.913134 0.818286 0.657170
O O13 0.000000 0.849399 0.500000
O O14 0.154410 0.845590 0.117586
#
# Coordination Sequence:
#
# PCOD9560100 Si02
#       7
#     8  16   8  16   2  16  16
#     4  10  17  32  47  58  77 108 170 211 233 259
#     4   8  14  27  49  66  85 111 147 191 237 282
#     4  12  17  32  48  58  80 124 155 194 232 290
#     4   8  14  27  46  66  82 107 141 190 237 281
#     4   8  20  34  44  64  68 106 168 244 244 238
#     4   9  18  34  46  63  95 131 159 197 234 267
#     4   9  18  31  45  60  87 119 155 195 242 274
#
# _framework density 17.230506999999999
#
# number of rings (size 3 to 8) (size 9 to 14) (size 15 to 20)
#    0.293    2.732    1.951    2.341    0.000    0.195 
#    7.024    0.000    0.000    0.000    0.000    0.000 
#    0.000    0.000    0.000    0.878    3.122    0.000 
#
# Total GULP energy -228306.822841 kJ/mol
# GULP energy per Si atom -5568.459094 kJ/mol
# Density = 1.719129 g / cm^3
# Si number density = 17.230507 Si / 1000 Ang^3
#
#
#
# Elastic Constant Matrix: (Units=GPa)
#
#
# Indices 1 2 3 4 5 6 
#
# 1 41.6861 27.6576 1.1335 0.0000 0.0000 0.0000
# 2 27.6576 41.6864 1.1335 0.0000 0.0000 0.0000
# 3 1.1335 1.1335 36.7373 0.0000 0.0000 0.0000
# 4 0.0000 0.0000 0.0000 19.5832 0.0000 0.0000
# 5 0.0000 0.0000 0.0000 0.0000 19.5829 0.0000
# 6 0.0000 0.0000 0.0000 0.0000 0.0000 16.3073
#
#
#
# Elastic Compliance Matrix: (Units=1/GPa)
#
#
# Indices 1 2 3 4 5 6 
#
# 1 0.042859 -0.028424 -0.000445 0.000000 0.000000 0.000000
# 2 -0.028424 0.042859 -0.000445 0.000000 0.000000 0.000000
# 3 -0.000445 -0.000445 0.027248 0.000000 0.000000 0.000000
# 4 0.000000 0.000000 0.000000 0.051064 0.000000 0.000000
# 5 0.000000 0.000000 0.000000 0.000000 0.051065 0.000000
# 6 0.000000 0.000000 0.000000 0.000000 0.000000 0.061322
#
#
# Mechanical properties :
#
#
# Convention : Reuss Voigt Hill
#
# Bulk Modulus (GPa) = 18.40362 19.99544 19.19953
# Shear Modulus (GPa) = 14.15795 17.10703 15.63249
#
# Velocity S-wave (km/s) = 2.86960 3.15434 3.01534
# Velocity P-wave (km/s) = 4.65656 4.98963 4.82597
#
# Compressibility (1/GPa) = 0.05433713
#
# Stress axis : x y z
#
# Youngs Moduli (GPa) = 23.33221 23.33235 36.70022
#
# Poissons Ratio (x) = 0.66319 0.01634
# Poissons Ratio (y) = 0.66319 0.01635
# Poissons Ratio (z) = 0.01039 0.01039
#
# Static dielectric constant tensor:
#      x y z
#    x 1.601520 0.000000 0.000000 
#    y 0.000000 1.601520 0.000000 
#    z 0.000000 0.000000 1.683880 
# 
# From -- ./inp_files/1902.got.cif
#   From: 2010.05.17/outbox.cif.g08.bks.cpg/sg121_1_cif.got.tgz:1902.got - 2010.05.20 11:32:06.
