data_PCOD9560289
_publ_section_title
;
Structure prediction by ZEFSAII (Michael W. Deem and Ramdas Pophale) SiO2 
 PCOD9560289
Probable space group: I -4 2 M
;
_chemical_formula_sum "Si O2"
_cell_formula_units_Z 96
_cell_length_a 16.280650
_cell_length_b 16.280650
_cell_length_c 18.433073
_cell_angle_alpha 90.000000
_cell_angle_beta 90.000000
_cell_angle_gamma 90.000000
_cell_volume 4885.862300
_symmetry_space_group_name_H-M "I -4 2 M"
_symmetry_group_IT_number 121
_symmetry_cell_setting 'tetragonal'
loop_
_space_group_symop_operation_xyz
x,y,z
y,-x,-z
-x,-y,z
-y,x,-z
x,-y,-z
-x,y,-z
-y,-x,z
y,x,z
1/2+x,1/2+y,1/2+z
1/2+y,1/2-x,1/2-z
1/2-x,1/2-y,1/2+z
1/2-y,1/2+x,1/2-z
1/2+x,1/2-y,1/2-z
1/2-x,1/2+y,1/2-z
1/2-y,1/2-x,1/2+z
1/2+y,1/2+x,1/2+z
loop_
_atom_site_type_symbol
_atom_site_label
_atom_site_fract_x
_atom_site_fract_y
_atom_site_fract_z
Si Si1 0.382999 0.755527 0.208455
Si Si2 0.927894 0.611602 0.055468
Si Si3 0.477815 0.720618 0.577724
Si Si4 0.588320 0.918689 0.213667
Si Si5 0.366204 0.505932 0.730148
Si Si6 0.311631 0.822581 0.556491
O O1 0.310655 0.689346 0.217184
O O2 0.371260 0.829770 0.264801
O O3 0.468489 0.708556 0.223561
O O4 0.374874 0.791692 0.127893
O O5 0.915148 0.563452 0.129722
O O6 0.959577 0.701939 0.081621
O O7 0.846035 0.622765 0.008891
O O8 0.000000 0.585565 0.000000
O O9 0.500000 0.680316 0.500000
O O10 0.485989 0.664609 0.647524
O O11 0.387370 0.760757 0.574281
O O12 0.513193 0.893860 0.264886
O O13 0.408752 0.591249 0.753322
O O14 0.436993 0.436993 0.732772
O O15 0.233008 0.766993 0.538059
#
# Coordination Sequence:
#
# PCOD9560289 Si02
#       6
#    16  16  16  16  16  16
#     4  10  21  37  55  80 115 157 203 246 293 346
#     4   9  18  33  53  79 112 145 185 227 282 352
#     4   9  17  30  49  78 115 150 191 235 293 363
#     4  11  22  38  59  87 119 150 187 238 295 359
#     4  10  20  32  48  75 115 161 203 246 295 349
#     4   9  18  32  54  79 108 151 193 239 291 340
#
# _framework density 19.648527000000001
#
# number of rings (size 3 to 8) (size 9 to 14) (size 15 to 20)
#    0.000    2.667    1.667    2.500    0.000    4.000 
#    0.000    6.667    0.000    0.000    0.000    1.167 
#    0.000    0.000    0.000    0.000    0.000    0.000 
#
# Total GULP energy -267811.227383 kJ/mol
# GULP energy per Si atom -5579.400570 kJ/mol
# Density = 1.960381 g / cm^3
# Si number density = 19.648527 Si / 1000 Ang^3
#
#
#
# Elastic Constant Matrix: (Units=GPa)
#
#
# Indices 1 2 3 4 5 6 
#
# 1 61.2808 14.6823 43.4914 0.0000 0.0000 0.0000
# 2 14.6823 61.2797 43.4916 0.0000 0.0000 0.0000
# 3 43.4914 43.4916 144.4565 0.0000 0.0000 0.0000
# 4 0.0000 0.0000 0.0000 26.9911 0.0000 0.0000
# 5 0.0000 0.0000 0.0000 0.0000 26.9902 0.0000
# 6 0.0000 0.0000 0.0000 0.0000 0.0000 5.2212
#
#
#
# Elastic Compliance Matrix: (Units=1/GPa)
#
#
# Indices 1 2 3 4 5 6 
#
# 1 0.020775 -0.000685 -0.006049 0.000000 0.000000 0.000000
# 2 -0.000685 0.020776 -0.006049 0.000000 0.000000 0.000000
# 3 -0.006049 -0.006049 0.010565 0.000000 0.000000 0.000000
# 4 0.000000 0.000000 0.000000 0.037049 0.000000 0.000000
# 5 0.000000 0.000000 0.000000 0.000000 0.037050 0.000000
# 6 0.000000 0.000000 0.000000 0.000000 0.000000 0.191527
#
#
# Mechanical properties :
#
#
# Convention : Reuss Voigt Hill
#
# Bulk Modulus (GPa) = 37.66320 52.26085 44.96203
# Shear Modulus (GPa) = 14.19823 22.86395 18.53109
#
# Velocity S-wave (km/s) = 2.69106 3.41493 3.07437
# Velocity P-wave (km/s) = 5.37269 6.49650 5.96114
#
# Compressibility (1/GPa) = 0.02655112
#
# Stress axis : x y z
#
# Youngs Moduli (GPa) = 48.13451 48.13336 94.65543
#
# Poissons Ratio (x) = 0.03296 0.57253
# Poissons Ratio (y) = 0.03296 0.57255
# Poissons Ratio (z) = 0.29115 0.29115
#
# Static dielectric constant tensor:
#      x y z
#    x 1.721780 0.000000 0.000000 
#    y 0.000000 1.721790 0.000000 
#    z 0.000000 0.000000 1.695650 
# 
# From -- ./inp_files/5413.got.cif
#   From: 2010.05.17/outbox.cif.g08.bks.cpg/sg121_3_cif.got.tgz:5413.got - 2010.05.20 11:32:06.
