data_PCOD9560344
_publ_section_title
;
Structure prediction by ZEFSAII (Michael W. Deem and Ramdas Pophale) SiO2 
 PCOD9560344
Probable space group: I -4 2 M
;
_chemical_formula_sum "Si O2"
_cell_formula_units_Z 112
_cell_length_a 14.951326
_cell_length_b 14.951326
_cell_length_c 28.341509
_cell_angle_alpha 90.000000
_cell_angle_beta 90.000000
_cell_angle_gamma 90.000000
_cell_volume 6335.521832
_symmetry_space_group_name_H-M "I -4 2 M"
_symmetry_group_IT_number 121
_symmetry_cell_setting 'tetragonal'
loop_
_space_group_symop_operation_xyz
x,y,z
y,-x,-z
-x,-y,z
-y,x,-z
x,-y,-z
-x,y,-z
-y,-x,z
y,x,z
1/2+x,1/2+y,1/2+z
1/2+y,1/2-x,1/2-z
1/2-x,1/2-y,1/2+z
1/2-y,1/2+x,1/2-z
1/2+x,1/2-y,1/2-z
1/2-x,1/2+y,1/2-z
1/2-y,1/2-x,1/2+z
1/2+y,1/2+x,1/2+z
loop_
_atom_site_type_symbol
_atom_site_label
_atom_site_fract_x
_atom_site_fract_y
_atom_site_fract_z
Si Si1 0.803619 0.591964 0.524523
Si Si2 0.711320 0.849627 0.437725
Si Si3 0.570850 0.295230 0.378745
Si Si4 0.800996 0.654981 0.163280
Si Si5 0.426502 0.130288 0.255993
Si Si6 0.973617 0.603053 0.587462
Si Si7 0.760554 0.620289 0.347303
O O1 0.777640 0.500000 0.500000
O O2 0.807843 0.666908 0.484611
O O3 0.741364 0.601461 0.570154
O O4 0.902553 0.583920 0.546343
O O5 0.815493 0.815493 0.438658
O O6 0.668480 0.949055 0.432813
O O7 0.670735 0.807141 0.390372
O O8 0.604685 0.395316 0.373402
O O9 0.624856 0.232806 0.342282
O O10 0.467737 0.281831 0.369906
O O11 0.706539 0.706539 0.153017
O O12 0.806484 0.613730 0.215276
O O13 0.838971 0.578789 0.127449
O O14 0.532331 0.117105 0.249112
O O15 0.406308 0.169772 0.307193
O O16 0.000000 0.500000 0.603702
O O17 0.684709 0.684709 0.326835
#
# Coordination Sequence:
#
# PCOD9560344 Si02
#       7
#    16  16  16  16  16  16  16
#     4  11  19  33  57  85 114 150 190 237 292 335
#     4  11  22  35  54  84 118 150 186 238 290 341
#     4  10  20  36  55  78 112 152 191 232 276 336
#     4  10  21  37  57  83 116 147 184 238 295 346
#     4  11  22  34  59  86 112 141 183 238 297 349
#     4  11  21  34  61  86 115 149 196 243 290 344
#     4  11  22  37  53  77 113 150 187 227 280 344
#
# _framework density 17.678101000000002
#
# number of rings (size 3 to 8) (size 9 to 14) (size 15 to 20)
#    0.000    1.286    4.286    3.000    2.000    0.857 
#    0.000    0.000    0.000    0.429    0.000    0.000 
#    0.000    0.000    0.000    0.000    0.000    0.000 
#
# Total GULP energy -311906.661813 kJ/mol
# GULP energy per Si atom -5569.761818 kJ/mol
# Density = 1.763787 g / cm^3
# Si number density = 17.678101 Si / 1000 Ang^3
#
#
#
# Elastic Constant Matrix: (Units=GPa)
#
#
# Indices 1 2 3 4 5 6 
#
# 1 66.1856 29.9857 16.9635 0.0000 0.0000 0.0000
# 2 29.9857 66.1852 16.9638 0.0000 0.0000 0.0000
# 3 16.9635 16.9638 88.3361 0.0000 0.0000 0.0000
# 4 0.0000 0.0000 0.0000 44.5123 0.0000 0.0000
# 5 0.0000 0.0000 0.0000 0.0000 44.5108 0.0000
# 6 0.0000 0.0000 0.0000 0.0000 0.0000 29.5828
#
#
#
# Elastic Compliance Matrix: (Units=1/GPa)
#
#
# Indices 1 2 3 4 5 6 
#
# 1 0.019389 -0.008235 -0.002142 0.000000 0.000000 0.000000
# 2 -0.008235 0.019389 -0.002142 0.000000 0.000000 0.000000
# 3 -0.002142 -0.002142 0.012143 0.000000 0.000000 0.000000
# 4 0.000000 0.000000 0.000000 0.022466 0.000000 0.000000
# 5 0.000000 0.000000 0.000000 0.000000 0.022466 0.000000
# 6 0.000000 0.000000 0.000000 0.000000 0.000000 0.033803
#
#
# Mechanical properties :
#
#
# Convention : Reuss Voigt Hill
#
# Bulk Modulus (GPa) = 38.63554 38.72588 38.68071
# Shear Modulus (GPa) = 30.61418 34.17411 32.39414
#
# Velocity S-wave (km/s) = 4.16595 4.40151 4.28535
# Velocity P-wave (km/s) = 6.71139 6.91265 6.81276
#
# Compressibility (1/GPa) = 0.02588290
#
# Stress axis : x y z
#
# Youngs Moduli (GPa) = 51.57537 51.57503 82.35168
#
# Poissons Ratio (x) = 0.42474 0.17639
# Poissons Ratio (y) = 0.42474 0.17639
# Poissons Ratio (z) = 0.11047 0.11047
#
# Static dielectric constant tensor:
#      x y z
#    x 1.631830 0.000000 0.000000 
#    y 0.000000 1.631840 0.000000 
#    z 0.000000 0.000000 1.607390 
# 
# From -- ./inp_files/7210.got.cif
#   From: 2010.05.17/outbox.cif.g08.bks.cpg/sg121_4_cif.got.tgz:7210.got - 2010.05.20 11:32:06.
