data_PCOD9560964
_publ_section_title
;
Structure prediction by ZEFSAII (Michael W. Deem and Ramdas Pophale) SiO2 
 PCOD9560964
Probable space group: I -4 2 D
;
_chemical_formula_sum "Si O2"
_cell_formula_units_Z 76
_cell_length_a 14.261467
_cell_length_b 14.261467
_cell_length_c 18.898025
_cell_angle_alpha 90.000000
_cell_angle_beta 90.000000
_cell_angle_gamma 90.000000
_cell_volume 3843.658741
_symmetry_space_group_name_H-M "I -4 2 D"
_symmetry_group_IT_number 122
_symmetry_cell_setting 'tetragonal'
loop_
_space_group_symop_operation_xyz
x,y,z
y,-x,-z
-x,-y,z
-y,x,-z
x,1/2-y,1/4-z
-x,1/2+y,1/4-z
-y,1/2-x,1/4+z
y,1/2+x,1/4+z
1/2+x,1/2+y,1/2+z
1/2+y,1/2-x,1/2-z
1/2-x,1/2-y,1/2+z
1/2-y,1/2+x,1/2-z
1/2+x,-y,3/4-z
1/2-x,y,3/4-z
1/2-y,-x,3/4+z
1/2+y,x,3/4+z
loop_
_atom_site_type_symbol
_atom_site_label
_atom_site_fract_x
_atom_site_fract_y
_atom_site_fract_z
Si Si1 0.545487 0.599686 0.250238
Si Si2 0.644870 0.377068 0.892776
Si Si3 0.150209 0.401102 0.353451
Si Si4 0.787567 0.938695 0.473863
Si Si5 0.225733 0.750000 0.625000
Si Si6 0.000000 0.000000 0.000000
O O1 0.500000 0.500000 0.259641
O O2 0.612956 0.596208 0.182598
O O3 0.597225 0.620612 0.323201
O O4 0.471251 0.679976 0.229699
O O5 0.750000 0.340879 0.875000
O O6 0.660881 0.477053 0.932709
O O7 0.583020 0.320119 0.947428
O O8 0.250000 0.450001 0.375000
O O9 0.185160 0.297309 0.330177
O O10 0.082301 0.455632 0.299778
O O11 0.800820 0.844179 0.428873
#
# Coordination Sequence:
#
# PCOD9560964 Si02
#       6
#    16  16  16  16   8   4
#     4  11  23  43  64 103 134 178 233 283 353 422
#     4  10  23  40  64 101 137 176 228 278 354 417
#     4  10  26  46  74 100 142 185 238 298 363 423
#     4  11  22  41  69 101 143 182 230 292 347 424
#     4  10  20  44  68 104 140 184 230 294 358 410
#     4  12  24  56  72 108 140 182 256 296 364 456
#
# _framework density 19.772825999999998
#
# number of rings (size 3 to 8) (size 9 to 14) (size 15 to 20)
#    0.632    0.842    4.211    2.526    2.947    5.053 
#    0.000    1.053    0.000    0.000    0.000    0.000 
#    0.000    0.000    0.000    0.000    0.000    0.000 
#
# Total GULP energy -211785.994714 kJ/mol
# GULP energy per Si atom -5573.315650 kJ/mol
# Density = 1.972782 g / cm^3
# Si number density = 19.772826 Si / 1000 Ang^3
#
#
#
# Elastic Constant Matrix: (Units=GPa)
#
#
# Indices 1 2 3 4 5 6 
#
# 1 41.3506 37.2248 21.9404 0.0000 0.0000 0.0000
# 2 37.2248 41.3506 21.9404 0.0000 0.0000 0.0000
# 3 21.9404 21.9404 96.3240 0.0000 0.0000 0.0000
# 4 0.0000 0.0000 0.0000 36.4170 0.0000 0.0000
# 5 0.0000 0.0000 0.0000 0.0000 36.4170 0.0000
# 6 0.0000 0.0000 0.0000 0.0000 0.0000 7.2419
#
#
#
# Elastic Compliance Matrix: (Units=1/GPa)
#
#
# Indices 1 2 3 4 5 6 
#
# 1 0.128481 -0.113900 -0.003321 0.000000 0.000000 0.000000
# 2 -0.113900 0.128481 -0.003321 0.000000 0.000000 0.000000
# 3 -0.003321 -0.003321 0.011895 0.000000 0.000000 0.000000
# 4 0.000000 0.000000 0.000000 0.027460 0.000000 0.000000
# 5 0.000000 0.000000 0.000000 0.000000 0.027460 0.000000
# 6 0.000000 0.000000 0.000000 0.000000 0.000000 0.138085
#
#
# Mechanical properties :
#
#
# Convention : Reuss Voigt Hill
#
# Bulk Modulus (GPa) = 36.00714 37.91514 36.96114
# Shear Modulus (GPa) = 7.02046 22.54315 14.78180
#
# Velocity S-wave (km/s) = 1.88634 3.38021 2.73716
# Velocity P-wave (km/s) = 4.79524 5.86953 5.35937
#
# Compressibility (1/GPa) = 0.02777227
#
# Stress axis : x y z
#
# Youngs Moduli (GPa) = 7.78324 7.78324 84.07130
#
# Poissons Ratio (x) = 0.88651 0.27923
# Poissons Ratio (y) = 0.88651 0.27923
# Poissons Ratio (z) = 0.02585 0.02585
#
# Static dielectric constant tensor:
#      x y z
#    x 1.599650 0.000000 0.000000 
#    y 0.000000 1.599650 0.000000 
#    z 0.000000 0.000000 1.645950 
# 
# From -- ./inp_files/7128.got.cif
#   From: 2010.05.17/outbox.cif.g08.bks.cpg/sg122_4_cif.got.tgz:7128.got - 2010.05.20 11:37:33.
