data_PCOD9560233
_publ_section_title
;
Structure prediction by ZEFSAII (Michael W. Deem and Ramdas Pophale) SiO2 
 PCOD9560233
Probable space group: I -4 2 M
;
_chemical_formula_sum "Si O2"
_cell_formula_units_Z 96
_cell_length_a 24.976914
_cell_length_b 24.976914
_cell_length_c 7.336499
_cell_angle_alpha 90.000000
_cell_angle_beta 90.000000
_cell_angle_gamma 90.000000
_cell_volume 4576.847264
_symmetry_space_group_name_H-M "I -4 2 M"
_symmetry_group_IT_number 121
_symmetry_cell_setting 'tetragonal'
loop_
_space_group_symop_operation_xyz
x,y,z
y,-x,-z
-x,-y,z
-y,x,-z
x,-y,-z
-x,y,-z
-y,-x,z
y,x,z
1/2+x,1/2+y,1/2+z
1/2+y,1/2-x,1/2-z
1/2-x,1/2-y,1/2+z
1/2-y,1/2+x,1/2-z
1/2+x,1/2-y,1/2-z
1/2-x,1/2+y,1/2-z
1/2-y,1/2-x,1/2+z
1/2+y,1/2+x,1/2+z
loop_
_atom_site_type_symbol
_atom_site_label
_atom_site_fract_x
_atom_site_fract_y
_atom_site_fract_z
Si Si1 0.499997 0.658670 0.220338
Si Si2 0.888411 0.111590 0.720471
Si Si3 0.218544 0.499994 0.705460
Si Si4 0.802173 0.802173 0.204380
Si Si5 0.121336 0.706746 0.217202
Si Si6 0.621347 0.793266 0.717137
Si Si7 0.697815 0.302186 0.704389
Si Si8 0.388419 0.388419 0.220521
O O1 0.447468 0.627366 0.273834
O O2 0.499994 0.717443 0.299947
O O3 0.552522 0.627361 0.273853
O O4 0.500000 0.664504 0.000000
O O5 0.847174 0.152827 0.803026
O O6 0.884038 0.115963 0.499973
O O7 0.195415 0.500000 0.500000
O O8 0.206511 0.559610 0.786075
O O9 0.206503 0.440375 0.786044
O O10 0.835924 0.752032 0.287001
O O11 0.784942 0.784942 0.999981
O O12 0.150556 0.650569 0.250057
O O13 0.164058 0.752053 0.287046
O O14 0.117147 0.717511 0.000027
O O15 0.652815 0.347186 0.696883
#
# Coordination Sequence:
#
# PCOD9560233 Si02
#       8
#    16   8  16   8  16  16   8   8
#     4  10  20  33  50  74 103 141 184 223 263 305
#     4  10  20  32  49  74 104 140 183 225 262 305
#     4  10  20  36  57  78 104 138 175 215 260 315
#     4  10  19  33  54  79 106 140 175 212 263 312
#     4  10  21  35  54  81 109 138 173 214 261 313
#     4  10  21  35  54  81 109 138 173 214 261 313
#     4  10  19  33  54  79 106 140 175 212 263 312
#     4  10  20  32  49  74 104 140 183 225 262 305
#
# _framework density 20.975137
#
# number of rings (size 3 to 8) (size 9 to 14) (size 15 to 20)
#    0.000    2.000    3.333    0.500    0.000    3.000 
#    0.000    1.667    0.000    0.500    0.000    5.833 
#    0.000    0.000    0.000    0.000    0.000    0.000 
#
# Total GULP energy -267627.317629 kJ/mol
# GULP energy per Si atom -5575.569117 kJ/mol
# Density = 2.092740 g / cm^3
# Si number density = 20.975137 Si / 1000 Ang^3
#
#
#
# Elastic Constant Matrix: (Units=GPa)
#
#
# Indices 1 2 3 4 5 6 
#
# 1 104.0444 157.3929 4.8078 0.0000 0.0000 0.0000
# 2 157.3929 104.0541 4.8036 0.0000 0.0000 0.0000
# 3 4.8078 4.8036 75.2129 0.0000 0.0000 0.0000
# 4 0.0000 0.0000 0.0000 7.3799 0.0000 0.0000
# 5 0.0000 0.0000 0.0000 0.0000 7.3797 0.0000
# 6 0.0000 0.0000 0.0000 0.0000 0.0000 42.0791
#
#
#
# Elastic Compliance Matrix: (Units=1/GPa)
#
#
# Indices 1 2 3 4 5 6 
#
# 1 -0.007457 0.011290 -0.000244 0.000000 0.000000 0.000000
# 2 0.011290 -0.007456 -0.000246 0.000000 0.000000 0.000000
# 3 -0.000244 -0.000246 0.013327 0.000000 0.000000 0.000000
# 4 0.000000 0.000000 0.000000 0.135503 0.000000 0.000000
# 5 0.000000 0.000000 0.000000 0.000000 0.135507 0.000000
# 6 0.000000 0.000000 0.000000 0.000000 0.000000 0.023765
#
#
# Mechanical properties :
#
#
# Convention : Reuss Voigt Hill
#
# Bulk Modulus (GPa) = 49.96277 68.59113 59.27695
# Shear Modulus (GPa) = 17.96877 19.12155 18.54516
#
# Velocity S-wave (km/s) = 2.93007 3.02260 2.97669
# Velocity P-wave (km/s) = 5.94296 6.70474 6.33531
#
# Compressibility (1/GPa) = 0.02001490
#
# Stress axis : x y z
#
# Youngs Moduli (GPa) = -134.10972 -134.12295 75.03626
#
# Poissons Ratio (x) = 1.51427 0.01834
# Poissons Ratio (y) = 1.51412 0.01842
# Poissons Ratio (z) = -0.03278 -0.03293
#
# Static dielectric constant tensor:
#      x y z
#    x 1.737000 0.000000 0.000000 
#    y 0.000000 1.737010 0.000000 
#    z 0.000000 0.000000 1.835150 
# 
# From -- ./inp_files/2009.got.cif
#   From: 2010.05.17/outbox.cif.g08.bks.cpg/sg121_2_cif.got.tgz:2009.got - 2010.05.20 11:32:06.
