data_PCOD9560011
_publ_section_title
;
Structure prediction by ZEFSAII (Michael W. Deem and Ramdas Pophale) SiO2 
 PCOD9560011
Probable space group: I -4 C 2
;
_chemical_formula_sum "Si O2"
_cell_formula_units_Z 88
_cell_length_a 14.390073
_cell_length_b 14.390073
_cell_length_c 22.393134
_cell_angle_alpha 90.000000
_cell_angle_beta 90.000000
_cell_angle_gamma 90.000000
_cell_volume 4637.040330
_symmetry_space_group_name_H-M "I -4 C 2"
_symmetry_group_IT_number 120
_symmetry_cell_setting 'tetragonal'
loop_
_space_group_symop_operation_xyz
x,y,z
y,-x,-z
-x,-y,z
-y,x,-z
y,x,1/2-z
-y,-x,1/2-z
-x,y,1/2+z
x,-y,1/2+z
1/2+x,1/2+y,1/2+z
1/2+y,1/2-x,1/2-z
1/2-x,1/2-y,1/2+z
1/2-y,1/2+x,1/2-z
1/2+y,1/2+x,-z
1/2-y,1/2-x,-z
1/2-x,1/2+y,z
1/2+x,1/2-y,z
loop_
_atom_site_type_symbol
_atom_site_label
_atom_site_fract_x
_atom_site_fract_y
_atom_site_fract_z
Si Si1 0.292728 0.161122 0.381324
Si Si2 0.399054 0.899054 0.500000
Si Si3 0.497025 0.705466 0.698560
Si Si4 0.519296 0.177206 0.817658
Si Si5 0.000000 0.000000 0.750000
Si Si6 0.890629 0.390629 0.500000
Si Si7 0.817858 0.652297 0.377653
Si Si8 0.000000 0.500000 0.750000
O O1 0.246110 0.084745 0.338100
O O2 0.391780 0.200048 0.357472
O O3 0.318042 0.122142 0.446658
O O4 0.222383 0.245585 0.383921
O O5 0.503838 0.885640 0.476271
O O6 0.386950 0.831262 0.555776
O O7 0.494017 0.749795 0.764646
O O8 0.499099 0.594290 0.709556
O O9 0.409311 0.748520 0.662638
O O10 0.420057 0.158648 0.848148
O O11 0.547332 0.077833 0.789505
#
# Coordination Sequence:
#
# PCOD9560011 Si02
#       8
#    16   8  16  16   4   8  16   4
#     4  12  24  41  67  96 131 172 222 276 334 402
#     4  11  23  42  70  96 127 165 218 288 346 379
#     4  12  24  43  64  95 135 178 221 263 333 404
#     4  12  22  39  65 102 133 166 216 282 335 388
#     4  12  28  44  60  92 150 192 220 256 328 442
#     4  11  23  42  70  96 127 165 218 288 346 379
#     4  12  24  41  67  96 131 172 222 276 334 402
#     4  12  20  36  64  98 132 152 208 284 330 368
#
# _framework density 18.977620999999999
#
# number of rings (size 3 to 8) (size 9 to 14) (size 15 to 20)
#    0.000    0.182    7.273    2.727    0.000    1.455 
#    0.000    0.000    0.000    0.000    0.000    0.000 
#    0.000    0.000    0.000    0.000    0.000    0.000 
#
# Total GULP energy -245731.542151 kJ/mol
# GULP energy per Si atom -5584.807776 kJ/mol
# Density = 1.893443 g / cm^3
# Si number density = 18.977621 Si / 1000 Ang^3
#
#
#
# Elastic Constant Matrix: (Units=GPa)
#
#
# Indices 1 2 3 4 5 6 
#
# 1 107.5342 31.8373 36.2314 0.0000 0.0000 0.0000
# 2 31.8373 107.5342 36.2314 0.0000 0.0000 0.0000
# 3 36.2314 36.2314 93.4420 0.0000 0.0000 0.0000
# 4 0.0000 0.0000 0.0000 17.3633 0.0000 0.0000
# 5 0.0000 0.0000 0.0000 0.0000 17.3633 0.0000
# 6 0.0000 0.0000 0.0000 0.0000 0.0000 24.1111
#
#
#
# Elastic Compliance Matrix: (Units=1/GPa)
#
#
# Indices 1 2 3 4 5 6 
#
# 1 0.011099 -0.002112 -0.003485 0.000000 0.000000 0.000000
# 2 -0.002112 0.011099 -0.003485 0.000000 0.000000 0.000000
# 3 -0.003485 -0.003485 0.013404 0.000000 0.000000 0.000000
# 4 0.000000 0.000000 0.000000 0.057593 0.000000 0.000000
# 5 0.000000 0.000000 0.000000 0.000000 0.057593 0.000000
# 6 0.000000 0.000000 0.000000 0.000000 0.000000 0.041475
#
#
# Mechanical properties :
#
#
# Convention : Reuss Voigt Hill
#
# Bulk Modulus (GPa) = 57.34148 57.45674 57.39911
# Shear Modulus (GPa) = 23.12281 25.38156 24.25219
#
# Velocity S-wave (km/s) = 3.49438 3.66108 3.57870
# Velocity P-wave (km/s) = 6.82362 6.94357 6.88386
#
# Compressibility (1/GPa) = 0.01743938
#
# Stress axis : x y z
#
# Youngs Moduli (GPa) = 90.10087 90.10087 74.60437
#
# Poissons Ratio (x) = 0.19028 0.25996
# Poissons Ratio (y) = 0.19028 0.25996
# Poissons Ratio (z) = 0.31396 0.31396
#
# Static dielectric constant tensor:
#      x y z
#    x 1.663550 0.000000 0.000000 
#    y 0.000000 1.663550 0.000000 
#    z 0.000000 0.000000 1.684790 
# 
# From -- ./inp_files/5844.got.cif
#   From: 2010.05.17/outbox.cif.g08.bks.cpg/sg120_3_cif.got.tgz:5844.got - 2010.05.20 11:28:13.
