data_PCOD9560002
_publ_section_title
;
Structure prediction by ZEFSAII (Michael W. Deem and Ramdas Pophale) SiO2 
 PCOD9560002
Probable space group: I -4 C 2
;
_chemical_formula_sum "Si O2"
_cell_formula_units_Z 112
_cell_length_a 14.488213
_cell_length_b 14.488213
_cell_length_c 24.534496
_cell_angle_alpha 90.000000
_cell_angle_beta 90.000000
_cell_angle_gamma 90.000000
_cell_volume 5149.994738
_symmetry_space_group_name_H-M "I -4 C 2"
_symmetry_group_IT_number 120
_symmetry_cell_setting 'tetragonal'
loop_
_space_group_symop_operation_xyz
x,y,z
y,-x,-z
-x,-y,z
-y,x,-z
y,x,1/2-z
-y,-x,1/2-z
-x,y,1/2+z
x,-y,1/2+z
1/2+x,1/2+y,1/2+z
1/2+y,1/2-x,1/2-z
1/2-x,1/2-y,1/2+z
1/2-y,1/2+x,1/2-z
1/2+y,1/2+x,-z
1/2-y,1/2-x,-z
1/2-x,1/2+y,z
1/2+x,1/2-y,z
loop_
_atom_site_type_symbol
_atom_site_label
_atom_site_fract_x
_atom_site_fract_y
_atom_site_fract_z
Si Si1 0.535342 0.721315 0.084851
Si Si2 0.584584 0.778132 0.790100
Si Si3 0.490722 0.233630 0.958897
Si Si4 0.352408 0.634954 0.116993
Si Si5 0.244641 0.619835 0.726423
Si Si6 0.673283 0.748741 0.399112
Si Si7 0.576274 0.078229 0.611590
O O1 0.460445 0.652861 0.110456
O O2 0.640449 0.689723 0.091456
O O3 0.529710 0.822001 0.112160
O O4 0.515633 0.737413 0.021123
O O5 0.614473 0.685931 0.822509
O O6 0.487530 0.765892 0.760543
O O7 0.663713 0.819280 0.752548
O O8 0.570585 0.854211 0.837748
O O9 0.446544 0.314748 0.921699
O O10 0.596056 0.217270 0.940917
O O11 0.434993 0.141756 0.941307
O O12 0.302045 0.729817 0.097842
O O13 0.338732 0.661269 0.750000
O O14 0.240532 0.633494 0.661664
O O15 0.500000 0.000000 0.613281
#
# Coordination Sequence:
#
# PCOD9560002 Si02
#       7
#    16  16  16  16  16  16  16
#     4  12  25  40  76 101 141 203 234 287 373 424
#     4  11  26  47  73 103 142 190 234 304 361 433
#     4  11  24  44  66 104 149 190 241 295 354 431
#     4  11  24  47  68 103 149 184 241 302 353 431
#     4  12  25  46  76 104 141 188 243 292 366 427
#     4  12  24  46  70 103 149 188 240 302 353 427
#     4  11  23  41  67 106 146 177 243 307 350 424
#
# _framework density 21.747596000000001
#
# number of rings (size 3 to 8) (size 9 to 14) (size 15 to 20)
#    0.000    0.571    7.143    2.143    2.000    5.714 
#    0.000    1.429    0.000    0.000    0.000    0.000 
#    0.000    0.000    0.000    0.000    0.000    0.000 
#
# Total GULP energy -313657.772503 kJ/mol
# GULP energy per Si atom -5601.031652 kJ/mol
# Density = 2.169810 g / cm^3
# Si number density = 21.747596 Si / 1000 Ang^3
#
#
#
# Elastic Constant Matrix: (Units=GPa)
#
#
# Indices 1 2 3 4 5 6 
#
# 1 59.8683 0.1412 20.3292 0.0000 0.0000 0.0000
# 2 0.1412 59.8734 20.3258 0.0000 0.0000 0.0000
# 3 20.3292 20.3258 77.7866 0.0000 0.0000 0.0000
# 4 0.0000 0.0000 0.0000 22.3445 0.0000 0.0000
# 5 0.0000 0.0000 0.0000 0.0000 22.3435 0.0000
# 6 0.0000 0.0000 0.0000 0.0000 0.0000 40.7546
#
#
#
# Elastic Compliance Matrix: (Units=1/GPa)
#
#
# Indices 1 2 3 4 5 6 
#
# 1 0.018496 0.001753 -0.005292 0.000000 0.000000 0.000000
# 2 0.001753 0.018494 -0.005291 0.000000 0.000000 0.000000
# 3 -0.005292 -0.005291 0.015621 0.000000 0.000000 0.000000
# 4 0.000000 0.000000 0.000000 0.044754 0.000000 0.000000
# 5 0.000000 0.000000 0.000000 0.000000 0.044756 0.000000
# 6 0.000000 0.000000 0.000000 0.000000 0.000000 0.024537
#
#
# Mechanical properties :
#
#
# Convention : Reuss Voigt Hill
#
# Bulk Modulus (GPa) = 28.61080 31.01343 29.81212
# Shear Modulus (GPa) = 25.51443 27.53734 26.52588
#
# Velocity S-wave (km/s) = 3.42893 3.56227 3.49623
# Velocity P-wave (km/s) = 5.37225 5.58670 5.48053
#
# Compressibility (1/GPa) = 0.03495184
#
# Stress axis : x y z
#
# Youngs Moduli (GPa) = 54.06532 54.07215 64.01571
#
# Poissons Ratio (x) = -0.09478 0.33877
# Poissons Ratio (y) = -0.09477 0.33868
# Poissons Ratio (z) = 0.28611 0.28607
#
# Static dielectric constant tensor:
#      x y z
#    x 1.754190 0.000000 0.000000 
#    y 0.000000 1.754180 0.000000 
#    z 0.000000 0.000000 1.787030 
# 
# From -- ./inp_files/5947.got.cif
#   From: 2010.05.17/outbox.cif.g08.bks.cpg/sg120_3_cif.got.tgz:5947.got - 2010.05.20 11:28:13.
