data_PCOD9560018
_publ_section_title
;
Structure prediction by ZEFSAII (Michael W. Deem and Ramdas Pophale) SiO2 
 PCOD9560018
Probable space group: I -4 C 2
;
_chemical_formula_sum "Si O2"
_cell_formula_units_Z 64
_cell_length_a 13.857705
_cell_length_b 13.857705
_cell_length_c 15.323239
_cell_angle_alpha 90.000000
_cell_angle_beta 90.000000
_cell_angle_gamma 90.000000
_cell_volume 2942.613339
_symmetry_space_group_name_H-M "I -4 C 2"
_symmetry_group_IT_number 120
_symmetry_cell_setting 'tetragonal'
loop_
_space_group_symop_operation_xyz
x,y,z
y,-x,-z
-x,-y,z
-y,x,-z
y,x,1/2-z
-y,-x,1/2-z
-x,y,1/2+z
x,-y,1/2+z
1/2+x,1/2+y,1/2+z
1/2+y,1/2-x,1/2-z
1/2-x,1/2-y,1/2+z
1/2-y,1/2+x,1/2-z
1/2+y,1/2+x,-z
1/2-y,1/2-x,-z
1/2-x,1/2+y,z
1/2+x,1/2-y,z
loop_
_atom_site_type_symbol
_atom_site_label
_atom_site_fract_x
_atom_site_fract_y
_atom_site_fract_z
Si Si1 0.296083 0.852415 0.093842
Si Si2 0.402116 0.273814 0.081373
Si Si3 0.575653 0.281116 0.213307
Si Si4 0.437274 0.806537 0.400000
O O1 0.181288 0.848531 0.108631
O O2 0.344224 0.785448 0.166249
O O3 0.347529 0.955772 0.082165
O O4 0.303034 0.803034 0.000000
O O5 0.493461 0.292508 0.141708
O O6 0.367733 0.161806 0.097878
O O7 0.423810 0.272533 0.977432
O O8 0.621530 0.378471 0.250000
O O9 0.546357 0.228468 0.301867
#
# Coordination Sequence:
#
# PCOD9560018 Si02
#       4
#    16  16  16  16
#     4  12  23  46  73  98 148 197 240 317 386 455
#     4  11  24  46  70 104 146 187 247 306 377 453
#     4  12  24  44  75 104 140 192 248 306 383 451
#     4  11  24  41  71 104 140 192 240 302 375 443
#
# _framework density 21.749374
#
# number of rings (size 3 to 8) (size 9 to 14) (size 15 to 20)
#    0.000    0.500    7.500    1.500    0.000    1.000 
#    0.000    5.000    0.000    0.000    0.000    0.000 
#    0.000    0.000    0.000    0.000    0.000    0.000 
#
# Total GULP energy -178507.424336 kJ/mol
# GULP energy per Si atom -5578.357010 kJ/mol
# Density = 2.169987 g / cm^3
# Si number density = 21.749374 Si / 1000 Ang^3
#
#
#
# Elastic Constant Matrix: (Units=GPa)
#
#
# Indices 1 2 3 4 5 6 
#
# 1 100.1796 -12.6603 8.9859 0.0000 0.0000 0.0000
# 2 -12.6603 100.1851 8.9836 0.0000 0.0000 0.0000
# 3 8.9859 8.9836 107.5064 0.0000 0.0000 0.0000
# 4 0.0000 0.0000 0.0000 16.6756 0.0000 0.0000
# 5 0.0000 0.0000 0.0000 0.0000 16.6381 0.0000
# 6 0.0000 0.0000 0.0000 0.0000 0.0000 9.6296
#
#
#
# Elastic Compliance Matrix: (Units=1/GPa)
#
#
# Indices 1 2 3 4 5 6 
#
# 1 0.010244 0.001382 -0.000972 0.000000 0.000000 0.000000
# 2 0.001382 0.010243 -0.000971 0.000000 0.000000 0.000000
# 3 -0.000972 -0.000971 0.009464 0.000000 0.000000 0.000000
# 4 0.000000 0.000000 0.000000 0.059968 0.000000 0.000000
# 5 0.000000 0.000000 0.000000 0.000000 0.060103 0.000000
# 6 0.000000 0.000000 0.000000 0.000000 0.000000 0.103847
#
#
# Mechanical properties :
#
#
# Convention : Reuss Voigt Hill
#
# Bulk Modulus (GPa) = 34.68820 35.38773 35.03796
# Shear Modulus (GPa) = 18.89637 28.75945 23.82791
#
# Velocity S-wave (km/s) = 2.95078 3.64031 3.31353
# Velocity P-wave (km/s) = 5.25292 5.82882 5.54834
#
# Compressibility (1/GPa) = 0.02882825
#
# Stress axis : x y z
#
# Youngs Moduli (GPa) = 97.61969 97.62544 105.66172
#
# Poissons Ratio (x) = -0.13488 0.10267
# Poissons Ratio (y) = -0.13487 0.10264
# Poissons Ratio (z) = 0.09486 0.09484
#
# Static dielectric constant tensor:
#      x y z
#    x 3.301070 0.000000 0.000000 
#    y 0.000000 3.296480 0.000000 
#    z 0.000000 0.000000 1.754750 
# 
# From -- ./inp_files/3311.got.cif
#   From: 2010.05.17/outbox.cif.g08.bks.cpg/sg120_2_cif.got.tgz:3311.got - 2010.05.20 11:28:13.
