data_PCOD9560746
_publ_section_title
;
Structure prediction by ZEFSAII (Michael W. Deem and Ramdas Pophale) SiO2 
 PCOD9560746
Probable space group: I -4 2 D
;
_chemical_formula_sum "Si O2"
_cell_formula_units_Z 96
_cell_length_a 12.905370
_cell_length_b 12.905370
_cell_length_c 22.727995
_cell_angle_alpha 90.000000
_cell_angle_beta 90.000000
_cell_angle_gamma 90.000000
_cell_volume 3785.315176
_symmetry_space_group_name_H-M "I -4 2 D"
_symmetry_group_IT_number 122
_symmetry_cell_setting 'tetragonal'
loop_
_space_group_symop_operation_xyz
x,y,z
y,-x,-z
-x,-y,z
-y,x,-z
x,1/2-y,1/4-z
-x,1/2+y,1/4-z
-y,1/2-x,1/4+z
y,1/2+x,1/4+z
1/2+x,1/2+y,1/2+z
1/2+y,1/2-x,1/2-z
1/2-x,1/2-y,1/2+z
1/2-y,1/2+x,1/2-z
1/2+x,-y,3/4-z
1/2-x,y,3/4-z
1/2-y,-x,3/4+z
1/2+y,x,3/4+z
loop_
_atom_site_type_symbol
_atom_site_label
_atom_site_fract_x
_atom_site_fract_y
_atom_site_fract_z
Si Si1 0.835335 0.724437 0.691809
Si Si2 0.662354 0.416538 0.143922
Si Si3 0.890313 0.124670 0.133742
Si Si4 0.848612 0.938235 0.742686
Si Si5 0.918359 0.288362 0.708905
Si Si6 0.351673 0.976357 0.780566
O O1 0.805912 0.750000 0.625000
O O2 0.802537 0.825379 0.728405
O O3 0.795268 0.622043 0.724376
O O4 0.959863 0.719877 0.698083
O O5 0.786716 0.428605 0.140489
O O6 0.616832 0.513431 0.180614
O O7 0.632431 0.313891 0.180519
O O8 0.621884 0.387970 0.078713
O O9 0.866653 0.250000 0.125000
O O10 0.910572 0.085827 0.199712
O O11 0.994944 0.117145 0.096340
O O12 0.769440 0.023724 0.769188
O O13 0.387737 0.078514 0.744933
#
# Coordination Sequence:
#
# PCOD9560746 Si02
#       6
#    16  16  16  16  16  16
#     4  12  27  47  71 106 133 182 249 301 363 439
#     4  11  20  46  74  94 141 189 225 286 366 425
#     4  10  18  38  65  95 132 183 224 268 344 414
#     4  11  24  39  71 103 133 183 236 283 348 429
#     4  11  25  49  72  95 142 190 232 302 367 422
#     4  10  20  37  63  99 145 180 220 267 342 425
#
# _framework density 25.361163999999999
#
# number of rings (size 3 to 8) (size 9 to 14) (size 15 to 20)
#    0.000    1.167    6.667    1.000    2.333    1.000 
#    3.000    1.667    0.000    0.000    0.000    0.000 
#    0.000    0.000    0.000    0.000    0.000    0.000 
#
# Total GULP energy -268184.067523 kJ/mol
# GULP energy per Si atom -5587.168073 kJ/mol
# Density = 2.530344 g / cm^3
# Si number density = 25.361164 Si / 1000 Ang^3
#
#
#
# Elastic Constant Matrix: (Units=GPa)
#
#
# Indices 1 2 3 4 5 6 
#
# 1 54.0580 -2.8755 -0.1196 0.0000 0.0000 0.0000
# 2 -2.8755 54.0580 -0.1196 0.0000 0.0000 0.0000
# 3 -0.1196 -0.1196 120.8038 0.0000 0.0000 0.0000
# 4 0.0000 0.0000 0.0000 -34.4264 0.0000 0.0000
# 5 0.0000 0.0000 0.0000 0.0000 -34.4264 0.0000
# 6 0.0000 0.0000 0.0000 0.0000 0.0000 12.2911
#
#
#
# Elastic Compliance Matrix: (Units=1/GPa)
#
#
# Indices 1 2 3 4 5 6 
#
# 1 0.018551 0.000987 0.000019 0.000000 0.000000 0.000000
# 2 0.000987 0.018551 0.000019 0.000000 0.000000 0.000000
# 3 0.000019 0.000019 0.008278 0.000000 0.000000 0.000000
# 4 0.000000 0.000000 0.000000 -0.029048 0.000000 0.000000
# 5 0.000000 0.000000 0.000000 0.000000 -0.029048 0.000000
# 6 0.000000 0.000000 0.000000 0.000000 0.000000 0.081360
#
#
# Mechanical properties :
#
#
# Convention : Reuss Voigt Hill
#
# Bulk Modulus (GPa) = 21.08313 24.74340 22.91326
# Shear Modulus (GPa) = 60.67653 4.15665 32.41659
#
# Velocity S-wave (km/s) = 4.89662 1.28162 3.57907
# Velocity P-wave (km/s) = 6.34826 3.45943 5.11215
#
# Compressibility (1/GPa) = 0.04743129
#
# Stress axis : x y z
#
# Youngs Moduli (GPa) = 53.90495 53.90495 120.80319
#
# Poissons Ratio (x) = -0.05320 -0.00234
# Poissons Ratio (y) = -0.05320 -0.00234
# Poissons Ratio (z) = -0.00104 -0.00104
#
# Static dielectric constant tensor:
#      x y z
#    x 2.120070 0.000000 0.000000 
#    y 0.000000 2.120070 0.000000 
#    z 0.000000 0.000000 2.073220 
# 
# From -- ./inp_files/7291.got.cif
#   From: 2010.05.17/outbox.cif.g08.bks.cpg/sg122_4_cif.got.tgz:7291.got - 2010.05.20 11:37:33.
