data_PCOD9560006
_publ_section_title
;
Structure prediction by ZEFSAII (Michael W. Deem and Ramdas Pophale) SiO2 
 PCOD9560006
Probable space group: I -4 C 2
;
_chemical_formula_sum "Si O2"
_cell_formula_units_Z 88
_cell_length_a 16.909336
_cell_length_b 16.909336
_cell_length_c 14.739041
_cell_angle_alpha 90.000000
_cell_angle_beta 90.000000
_cell_angle_gamma 90.000000
_cell_volume 4214.269789
_symmetry_space_group_name_H-M "I -4 C 2"
_symmetry_group_IT_number 120
_symmetry_cell_setting 'tetragonal'
loop_
_space_group_symop_operation_xyz
x,y,z
y,-x,-z
-x,-y,z
-y,x,-z
y,x,1/2-z
-y,-x,1/2-z
-x,y,1/2+z
x,-y,1/2+z
1/2+x,1/2+y,1/2+z
1/2+y,1/2-x,1/2-z
1/2-x,1/2-y,1/2+z
1/2-y,1/2+x,1/2-z
1/2+y,1/2+x,-z
1/2-y,1/2-x,-z
1/2-x,1/2+y,z
1/2+x,1/2-y,z
loop_
_atom_site_type_symbol
_atom_site_label
_atom_site_fract_x
_atom_site_fract_y
_atom_site_fract_z
Si Si1 0.158339 0.576187 0.917731
Si Si2 0.873812 0.932377 0.120493
Si Si3 0.451098 0.899359 0.203746
Si Si4 0.420591 0.579410 0.750000
Si Si5 0.332378 0.522209 0.917057
Si Si6 0.774866 0.651582 0.712844
O O1 0.102883 0.505896 0.883077
O O2 0.241138 0.535013 0.935207
O O3 0.172080 0.648422 0.847444
O O4 0.118598 0.618598 0.000000
O O5 0.790033 0.900365 0.157856
O O6 0.936717 0.861123 0.116985
O O7 0.906585 0.000268 0.188379
O O8 0.870272 0.961594 0.016125
O O9 0.401795 0.979611 0.218098
O O10 0.401281 0.819378 0.211559
O O11 0.357040 0.578001 0.831761
O O12 0.726721 0.726721 0.750000
#
# Coordination Sequence:
#
# PCOD9560006 Si02
#       6
#    16  16  16   8  16  16
#     4  11  23  42  67  97 137 172 222 281 341 391
#     4  12  23  41  65  95 137 171 229 275 330 402
#     4   9  20  42  71  97 126 171 233 269 325 409
#     4  12  25  40  66  96 132 186 226 273 340 393
#     4  12  24  40  64  98 132 178 226 279 326 411
#     4  11  23  43  67  94 134 178 214 278 343 400
#
# _framework density 20.881436000000001
#
# number of rings (size 3 to 8) (size 9 to 14) (size 15 to 20)
#    0.000    0.909    3.636    4.909    1.273    0.000 
#    0.000    7.273    0.000    0.000    0.000    0.000 
#    0.000    0.000    0.000    0.000    0.000    0.000 
#
# Total GULP energy -245310.908818 kJ/mol
# GULP energy per Si atom -5575.247928 kJ/mol
# Density = 2.083391 g / cm^3
# Si number density = 20.881436 Si / 1000 Ang^3
#
#
#
# Elastic Constant Matrix: (Units=GPa)
#
#
# Indices 1 2 3 4 5 6 
#
# 1 212.2341 -118.3980 6.4342 0.0000 0.0000 0.0000
# 2 -118.3980 212.2406 6.4331 0.0000 0.0000 0.0000
# 3 6.4342 6.4331 101.9321 0.0000 0.0000 0.0000
# 4 0.0000 0.0000 0.0000 17.2946 0.0000 0.0000
# 5 0.0000 0.0000 0.0000 0.0000 17.2947 0.0000
# 6 0.0000 0.0000 0.0000 0.0000 0.0000 39.3547
#
#
#
# Elastic Compliance Matrix: (Units=1/GPa)
#
#
# Indices 1 2 3 4 5 6 
#
# 1 0.006887 0.003863 -0.000679 0.000000 0.000000 0.000000
# 2 0.003863 0.006887 -0.000678 0.000000 0.000000 0.000000
# 3 -0.000679 -0.000678 0.009896 0.000000 0.000000 0.000000
# 4 0.000000 0.000000 0.000000 0.057821 0.000000 0.000000
# 5 0.000000 0.000000 0.000000 0.000000 0.057821 0.000000
# 6 0.000000 0.000000 0.000000 0.000000 0.000000 0.025410
#
#
# Mechanical properties :
#
#
# Convention : Reuss Voigt Hill
#
# Bulk Modulus (GPa) = 34.86595 35.03837 34.95216
# Shear Modulus (GPa) = 29.53825 56.91796 43.22811
#
# Velocity S-wave (km/s) = 3.76516 5.22655 4.55485
# Velocity P-wave (km/s) = 5.96953 7.29648 6.66610
#
# Compressibility (1/GPa) = 0.02868128
#
# Stress axis : x y z
#
# Youngs Moduli (GPa) = 145.19850 145.20312 101.04988
#
# Poissons Ratio (x) = -0.56085 0.06856
# Poissons Ratio (y) = -0.56083 0.06856
# Poissons Ratio (z) = 0.09852 0.09851
#
# Static dielectric constant tensor:
#      x y z
#    x 1.762450 0.000000 0.000000 
#    y 0.000000 1.762450 0.000000 
#    z 0.000000 0.000000 1.809540 
# 
# From -- ./inp_files/3532.got.cif
#   From: 2010.05.17/outbox.cif.g08.bks.cpg/sg120_2_cif.got.tgz:3532.got - 2010.05.20 11:28:13.
