data_PCOD9560790
_publ_section_title
;
Structure prediction by ZEFSAII (Michael W. Deem and Ramdas Pophale) SiO2 
 PCOD9560790
Probable space group: I -4 2 D
;
_chemical_formula_sum "Si O2"
_cell_formula_units_Z 76
_cell_length_a 11.619887
_cell_length_b 11.619887
_cell_length_c 20.216515
_cell_angle_alpha 90.000000
_cell_angle_beta 90.000000
_cell_angle_gamma 90.000000
_cell_volume 2729.669717
_symmetry_space_group_name_H-M "I -4 2 D"
_symmetry_group_IT_number 122
_symmetry_cell_setting 'tetragonal'
loop_
_space_group_symop_operation_xyz
x,y,z
y,-x,-z
-x,-y,z
-y,x,-z
x,1/2-y,1/4-z
-x,1/2+y,1/4-z
-y,1/2-x,1/4+z
y,1/2+x,1/4+z
1/2+x,1/2+y,1/2+z
1/2+y,1/2-x,1/2-z
1/2-x,1/2-y,1/2+z
1/2-y,1/2+x,1/2-z
1/2+x,-y,3/4-z
1/2-x,y,3/4-z
1/2-y,-x,3/4+z
1/2+y,x,3/4+z
loop_
_atom_site_type_symbol
_atom_site_label
_atom_site_fract_x
_atom_site_fract_y
_atom_site_fract_z
Si Si1 0.978253 0.258082 0.345292
Si Si2 0.000000 0.500000 0.916522
Si Si3 0.069078 0.750000 0.125000
Si Si4 0.043679 0.752549 0.703552
Si Si5 0.786354 0.196718 0.002732
Si Si6 0.000000 0.000000 0.861209
Si Si7 0.500000 0.500000 0.000000
O O1 0.853321 0.273846 0.313494
O O2 0.000956 0.358417 0.397908
O O3 0.003650 0.127066 0.366698
O O4 0.065869 0.282816 0.282540
O O5 0.118385 0.510683 0.958321
O O6 0.147751 0.737892 0.061039
O O7 0.999363 0.633214 0.135404
O O8 0.072884 0.750000 0.625000
O O9 0.157161 0.761714 0.747310
O O10 0.988330 0.628456 0.717253
#
# Coordination Sequence:
#
# PCOD9560790 Si02
#       7
#    16   8   8  16  16   8   4
#     4  10  20  37  62  89 122 172 218 270 338 423
#     4  10  23  41  64  92 130 186 224 280 360 420
#     4  10  20  36  56  90 124 164 212 272 342 404
#     4  11  23  44  68 103 144 194 243 309 366 451
#     4  10  19  36  64  91 128 174 222 278 356 414
#     4  10  22  40  62  91 129 165 216 271 337 408
#     4  12  26  44  76 116 146 198 260 304 382 450
#
# _framework density 27.842198
#
# number of rings (size 3 to 8) (size 9 to 14) (size 15 to 20)
#    0.000    1.684    1.053    4.421    0.000    1.684 
#    1.895    2.105    0.000    0.000    0.000    0.000 
#    0.000    0.000    0.000    0.000    0.000    0.000 
#
# Total GULP energy -211608.051976 kJ/mol
# GULP energy per Si atom -5568.632947 kJ/mol
# Density = 2.777883 g / cm^3
# Si number density = 27.842198 Si / 1000 Ang^3
#
#
#
# Elastic Constant Matrix: (Units=GPa)
#
#
# Indices 1 2 3 4 5 6 
#
# 1 246.9530 46.1366 35.5731 0.0000 0.0000 0.0000
# 2 46.1366 246.9530 35.5731 0.0000 0.0000 0.0000
# 3 35.5731 35.5731 76.2470 0.0000 0.0000 0.0000
# 4 0.0000 0.0000 0.0000 77.0840 0.0000 0.0000
# 5 0.0000 0.0000 0.0000 0.0000 77.0840 0.0000
# 6 0.0000 0.0000 0.0000 0.0000 0.0000 -124.6170
#
#
#
# Elastic Compliance Matrix: (Units=1/GPa)
#
#
# Indices 1 2 3 4 5 6 
#
# 1 0.004414 -0.000566 -0.001795 0.000000 0.000000 0.000000
# 2 -0.000566 0.004414 -0.001795 0.000000 0.000000 0.000000
# 3 -0.001795 -0.001795 0.014790 0.000000 0.000000 0.000000
# 4 0.000000 0.000000 0.000000 0.012973 0.000000 0.000000
# 5 0.000000 0.000000 0.000000 0.000000 0.012973 0.000000
# 6 0.000000 0.000000 0.000000 0.000000 0.000000 -0.008025
#
#
# Mechanical properties :
#
#
# Convention : Reuss Voigt Hill
#
# Bulk Modulus (GPa) = 65.33758 89.41316 77.37537
# Shear Modulus (GPa) = 90.98679 36.10157 63.54418
#
# Velocity S-wave (km/s) = 5.72280 3.60481 4.78252
# Velocity P-wave (km/s) = 8.19666 7.03635 7.63857
#
# Compressibility (1/GPa) = 0.01530513
#
# Stress axis : x y z
#
# Youngs Moduli (GPa) = 226.56832 226.56832 67.61185
#
# Poissons Ratio (x) = 0.12824 0.12137
# Poissons Ratio (y) = 0.12824 0.12137
# Poissons Ratio (z) = 0.40672 0.40672
#
# Static dielectric constant tensor:
#      x y z
#    x 2.129800 0.000000 0.000000 
#    y 0.000000 2.129800 0.000000 
#    z 0.000000 0.000000 2.288240 
# 
# From -- ./inp_files/9460.got.cif
#   From: 2010.05.17/outbox.cif.g08.bks.cpg/sg122_5_cif.got.tgz:9460.got - 2010.05.20 11:37:33.
