data_PCOD9560102
_publ_section_title
;
Structure prediction by ZEFSAII (Michael W. Deem and Ramdas Pophale) SiO2 
 PCOD9560102
Probable space group: I -4 2 M
;
_chemical_formula_sum "Si O2"
_cell_formula_units_Z 96
_cell_length_a 20.599107
_cell_length_b 20.599107
_cell_length_c 12.910987
_cell_angle_alpha 90.000000
_cell_angle_beta 90.000000
_cell_angle_gamma 90.000000
_cell_volume 5478.431438
_symmetry_space_group_name_H-M "I -4 2 M"
_symmetry_group_IT_number 121
_symmetry_cell_setting 'tetragonal'
loop_
_space_group_symop_operation_xyz
x,y,z
y,-x,-z
-x,-y,z
-y,x,-z
x,-y,-z
-x,y,-z
-y,-x,z
y,x,z
1/2+x,1/2+y,1/2+z
1/2+y,1/2-x,1/2-z
1/2-x,1/2-y,1/2+z
1/2-y,1/2+x,1/2-z
1/2+x,1/2-y,1/2-z
1/2-x,1/2+y,1/2-z
1/2-y,1/2-x,1/2+z
1/2+y,1/2+x,1/2+z
loop_
_atom_site_type_symbol
_atom_site_label
_atom_site_fract_x
_atom_site_fract_y
_atom_site_fract_z
Si Si1 0.725535 0.001755 0.614771
Si Si2 0.166032 0.728989 0.897795
Si Si3 0.126525 0.766588 0.301560
Si Si4 0.817239 0.387358 0.602248
Si Si5 0.484046 0.103674 0.267614
Si Si6 0.137199 0.756181 0.665428
O O1 0.769431 0.939656 0.636772
O O2 0.665180 0.999267 0.694583
O O3 0.697421 0.000000 0.500000
O O4 0.768684 0.065553 0.626766
O O5 0.214657 0.785344 0.938275
O O6 0.211613 0.669673 0.859785
O O7 0.135675 0.753106 0.790238
O O8 0.115479 0.707053 0.984631
O O9 0.169720 0.830281 0.297855
O O10 0.110789 0.740816 0.186242
O O11 0.867338 0.443870 0.634975
O O12 0.846713 0.315636 0.622838
O O13 0.551087 0.064721 0.285763
O O14 0.193102 0.806899 0.634774
#
# Coordination Sequence:
#
# PCOD9560102 Si02
#       6
#    16  16  16  16  16  16
#     4  11  22  36  54  75 106 142 186 221 264 327
#     4   9  17  31  55  82 104 131 176 233 283 315
#     4   9  19  32  51  77 104 132 171 226 271 320
#     4  10  17  32  57  75 101 136 180 224 269 317
#     4  10  21  38  51  71 111 151 186 219 256 319
#     4  10  20  35  54  79 106 131 174 230 278 318
#
# _framework density 17.523264999999999
#
# number of rings (size 3 to 8) (size 9 to 14) (size 15 to 20)
#    0.000    2.167    1.667    3.500    0.000    2.000 
#    0.000    6.667    0.000    0.500    0.000    1.167 
#    0.000    0.000    0.000    9.333    0.000    0.000 
#
# Total GULP energy -267691.513645 kJ/mol
# GULP energy per Si atom -5576.906534 kJ/mol
# Density = 1.748338 g / cm^3
# Si number density = 17.523265 Si / 1000 Ang^3
#
#
#
# Elastic Constant Matrix: (Units=GPa)
#
#
# Indices 1 2 3 4 5 6 
#
# 1 51.8312 12.1206 2.2566 0.0000 0.0000 0.0000
# 2 12.1206 51.8402 2.2556 0.0000 0.0000 0.0000
# 3 2.2566 2.2556 35.5151 0.0000 0.0000 0.0000
# 4 0.0000 0.0000 0.0000 9.2728 0.0000 0.0000
# 5 0.0000 0.0000 0.0000 0.0000 9.2735 0.0000
# 6 0.0000 0.0000 0.0000 0.0000 0.0000 21.5550
#
#
#
# Elastic Compliance Matrix: (Units=1/GPa)
#
#
# Indices 1 2 3 4 5 6 
#
# 1 0.020444 -0.004737 -0.000998 0.000000 0.000000 0.000000
# 2 -0.004737 0.020441 -0.000997 0.000000 0.000000 0.000000
# 3 -0.000998 -0.000997 0.028284 0.000000 0.000000 0.000000
# 4 0.000000 0.000000 0.000000 0.107843 0.000000 0.000000
# 5 0.000000 0.000000 0.000000 0.000000 0.107834 0.000000
# 6 0.000000 0.000000 0.000000 0.000000 0.000000 0.046393
#
#
# Mechanical properties :
#
#
# Convention : Reuss Voigt Hill
#
# Bulk Modulus (GPa) = 17.95171 19.16135 18.55653
# Shear Modulus (GPa) = 13.76382 16.19050 14.97716
#
# Velocity S-wave (km/s) = 2.80565 3.04294 2.92670
# Velocity P-wave (km/s) = 4.55656 4.82748 4.69398
#
# Compressibility (1/GPa) = 0.05570500
#
# Stress axis : x y z
#
# Youngs Moduli (GPa) = 48.91293 48.92156 35.35591
#
# Poissons Ratio (x) = 0.23172 0.03529
# Poissons Ratio (y) = 0.23168 0.03526
# Poissons Ratio (z) = 0.04883 0.04879
#
# Static dielectric constant tensor:
#      x y z
#    x 1.607460 0.000000 0.000000 
#    y 0.000000 1.607460 0.000000 
#    z 0.000000 0.000000 1.622500 
# 
# From -- ./inp_files/3291.got.cif
#   From: 2010.05.17/outbox.cif.g08.bks.cpg/sg121_2_cif.got.tgz:3291.got - 2010.05.20 11:32:06.
