data_PCOD9560850
_publ_section_title
;
Structure prediction by ZEFSAII (Michael W. Deem and Ramdas Pophale) SiO2 
 PCOD9560850
Probable space group: I -4 2 D
;
_chemical_formula_sum "Si O2"
_cell_formula_units_Z 88
_cell_length_a 14.259743
_cell_length_b 14.259743
_cell_length_c 17.147743
_cell_angle_alpha 90.000000
_cell_angle_beta 90.000000
_cell_angle_gamma 90.000000
_cell_volume 3486.826699
_symmetry_space_group_name_H-M "I -4 2 D"
_symmetry_group_IT_number 122
_symmetry_cell_setting 'tetragonal'
loop_
_space_group_symop_operation_xyz
x,y,z
y,-x,-z
-x,-y,z
-y,x,-z
x,1/2-y,1/4-z
-x,1/2+y,1/4-z
-y,1/2-x,1/4+z
y,1/2+x,1/4+z
1/2+x,1/2+y,1/2+z
1/2+y,1/2-x,1/2-z
1/2-x,1/2-y,1/2+z
1/2-y,1/2+x,1/2-z
1/2+x,-y,3/4-z
1/2-x,y,3/4-z
1/2-y,-x,3/4+z
1/2+y,x,3/4+z
loop_
_atom_site_type_symbol
_atom_site_label
_atom_site_fract_x
_atom_site_fract_y
_atom_site_fract_z
Si Si1 0.811613 0.301902 0.701480
Si Si2 0.493618 0.750000 0.125000
Si Si3 0.258373 0.973273 0.633326
Si Si4 0.960955 0.646194 0.224081
Si Si5 0.172399 0.152691 0.682056
Si Si6 0.955294 0.092080 0.181679
O O1 0.766030 0.250000 0.625000
O O2 0.805382 0.410004 0.672923
O O3 0.751631 0.291887 0.781203
O O4 0.919910 0.270043 0.694894
O O5 0.567928 0.669851 0.148411
O O6 0.263674 0.935295 0.723705
O O7 0.231106 0.081888 0.629547
O O8 0.364152 0.952574 0.608859
O O9 0.062701 0.611437 0.256443
O O10 0.978751 0.641945 0.131772
O O11 0.162284 0.090195 0.758979
O O12 0.000000 0.000000 0.220260
#
# Coordination Sequence:
#
# PCOD9560850 Si02
#       6
#    16   8  16  16  16  16
#     4   9  24  45  66  94 138 174 219 291 347 413
#     4  10  26  50  64  88 134 180 232 302 354 406
#     4  10  21  36  64  98 131 176 225 265 330 412
#     4   9  15  30  55  88 136 178 199 249 328 414
#     4  11  25  40  72  95 124 177 237 286 343 407
#     4  10  20  35  61  98 138 176 211 263 334 421
#
# _framework density 25.237846999999999
#
# number of rings (size 3 to 8) (size 9 to 14) (size 15 to 20)
#    0.545    1.636    3.636    0.000   10.182    2.909 
#    0.000    0.000    0.000    0.000    0.000    0.000 
#    0.000    0.000    0.000    0.000    0.000    0.000 
#
# Total GULP energy -245220.782126 kJ/mol
# GULP energy per Si atom -5573.199594 kJ/mol
# Density = 2.518040 g / cm^3
# Si number density = 25.237847 Si / 1000 Ang^3
#
#
#
# Elastic Constant Matrix: (Units=GPa)
#
#
# Indices 1 2 3 4 5 6 
#
# 1 82.6592 28.5722 6.9189 0.0000 0.0000 0.0000
# 2 28.5722 82.6592 6.9189 0.0000 0.0000 0.0000
# 3 6.9189 6.9189 39.7847 0.0000 0.0000 0.0000
# 4 0.0000 0.0000 0.0000 30.3537 0.0000 0.0000
# 5 0.0000 0.0000 0.0000 0.0000 30.3537 0.0000
# 6 0.0000 0.0000 0.0000 0.0000 0.0000 44.1279
#
#
#
# Elastic Compliance Matrix: (Units=1/GPa)
#
#
# Indices 1 2 3 4 5 6 
#
# 1 0.013839 -0.004650 -0.001598 0.000000 0.000000 0.000000
# 2 -0.004650 0.013839 -0.001598 0.000000 0.000000 0.000000
# 3 -0.001598 -0.001598 0.025691 0.000000 0.000000 0.000000
# 4 0.000000 0.000000 0.000000 0.032945 0.000000 0.000000
# 5 0.000000 0.000000 0.000000 0.000000 0.032945 0.000000
# 6 0.000000 0.000000 0.000000 0.000000 0.000000 0.022661
#
#
# Mechanical properties :
#
#
# Convention : Reuss Voigt Hill
#
# Bulk Modulus (GPa) = 26.54134 32.21367 29.37751
# Shear Modulus (GPa) = 29.38218 31.81326 30.59772
#
# Velocity S-wave (km/s) = 3.41576 3.55426 3.48569
# Velocity P-wave (km/s) = 5.10841 5.44384 5.27879
#
# Compressibility (1/GPa) = 0.03767707
#
# Stress axis : x y z
#
# Youngs Moduli (GPa) = 72.26004 72.26003 38.92391
#
# Poissons Ratio (x) = 0.33600 0.06220
# Poissons Ratio (y) = 0.33600 0.06220
# Poissons Ratio (z) = 0.11548 0.11548
#
# Static dielectric constant tensor:
#      x y z
#    x 2.047210 0.000000 0.000000 
#    y 0.000000 2.047210 0.000000 
#    z 0.000000 0.000000 2.219440 
# 
# From -- ./inp_files/7161.got.cif
#   From: 2010.05.17/outbox.cif.g08.bks.cpg/sg122_4_cif.got.tgz:7161.got - 2010.05.20 11:37:33.
