data_PCOD9560826
_publ_section_title
;
Structure prediction by ZEFSAII (Michael W. Deem and Ramdas Pophale) SiO2 
 PCOD9560826
Probable space group: I -4 2 D
;
_chemical_formula_sum "Si O2"
_cell_formula_units_Z 112
_cell_length_a 16.344385
_cell_length_b 16.344385
_cell_length_c 20.367470
_cell_angle_alpha 90.000000
_cell_angle_beta 90.000000
_cell_angle_gamma 90.000000
_cell_volume 5440.943960
_symmetry_space_group_name_H-M "I -4 2 D"
_symmetry_group_IT_number 122
_symmetry_cell_setting 'tetragonal'
loop_
_space_group_symop_operation_xyz
x,y,z
y,-x,-z
-x,-y,z
-y,x,-z
x,1/2-y,1/4-z
-x,1/2+y,1/4-z
-y,1/2-x,1/4+z
y,1/2+x,1/4+z
1/2+x,1/2+y,1/2+z
1/2+y,1/2-x,1/2-z
1/2-x,1/2-y,1/2+z
1/2-y,1/2+x,1/2-z
1/2+x,-y,3/4-z
1/2-x,y,3/4-z
1/2-y,-x,3/4+z
1/2+y,x,3/4+z
loop_
_atom_site_type_symbol
_atom_site_label
_atom_site_fract_x
_atom_site_fract_y
_atom_site_fract_z
Si Si1 0.956514 0.705724 0.456433
Si Si2 0.654399 0.470018 0.397036
Si Si3 0.135619 0.864155 0.018351
Si Si4 0.585869 0.972700 0.979950
Si Si5 0.252555 0.726296 0.703535
Si Si6 0.404842 0.807107 0.062477
Si Si7 0.207797 0.962575 0.671954
O O1 0.926613 0.613274 0.443744
O O2 0.869228 0.749338 0.466427
O O3 0.995117 0.756712 0.396541
O O4 0.015625 0.694147 0.517871
O O5 0.750000 0.466206 0.375000
O O6 0.623840 0.399974 0.446085
O O7 0.637416 0.554528 0.437118
O O8 0.606142 0.465426 0.328857
O O9 0.171071 0.772943 0.016289
O O10 0.211568 0.918977 0.046712
O O11 0.500000 0.000000 0.011336
O O12 0.661436 0.975062 0.030067
O O13 0.257382 0.750000 0.625000
O O14 0.169002 0.766021 0.728144
O O15 0.420225 0.750000 0.125000
O O16 0.363072 0.892498 0.084906
#
# Coordination Sequence:
#
# PCOD9560826 Si02
#       7
#    16  16  16  16  16  16  16
#     4  12  22  43  78  95 130 191 223 282 364 416
#     4  12  25  41  61  95 136 179 228 279 339 413
#     4  11  23  38  65  92 129 176 234 274 326 415
#     4  12  25  42  65 100 141 179 226 288 358 412
#     4  10  19  42  68  92 126 178 231 277 343 420
#     4  10  21  43  70  98 134 172 229 287 344 412
#     4  11  22  44  68  96 132 182 229 284 340 419
#
# _framework density 20.584664
#
# number of rings (size 3 to 8) (size 9 to 14) (size 15 to 20)
#    0.000    0.857    8.571    1.286    2.000    0.000 
#    2.571    0.714    0.000    0.000    0.000    0.000 
#    0.000    0.000    0.000    0.000    0.000    0.000 
#
# Total GULP energy -312397.523370 kJ/mol
# GULP energy per Si atom -5578.527203 kJ/mol
# Density = 2.053781 g / cm^3
# Si number density = 20.584664 Si / 1000 Ang^3
#
#
#
# Elastic Constant Matrix: (Units=GPa)
#
#
# Indices 1 2 3 4 5 6 
#
# 1 76.2087 15.0314 30.4833 0.0000 0.0000 0.0000
# 2 15.0314 76.2087 30.4833 0.0000 0.0000 0.0000
# 3 30.4833 30.4833 86.0230 0.0000 0.0000 0.0000
# 4 0.0000 0.0000 0.0000 27.1232 0.0000 0.0000
# 5 0.0000 0.0000 0.0000 0.0000 27.1232 0.0000
# 6 0.0000 0.0000 0.0000 0.0000 0.0000 20.2663
#
#
#
# Elastic Compliance Matrix: (Units=1/GPa)
#
#
# Indices 1 2 3 4 5 6 
#
# 1 0.015353 -0.000993 -0.005089 0.000000 0.000000 0.000000
# 2 -0.000993 0.015353 -0.005089 0.000000 0.000000 0.000000
# 3 -0.005089 -0.005089 0.015231 0.000000 0.000000 0.000000
# 4 0.000000 0.000000 0.000000 0.036869 0.000000 0.000000
# 5 0.000000 0.000000 0.000000 0.000000 0.036869 0.000000
# 6 0.000000 0.000000 0.000000 0.000000 0.000000 0.049343
#
#
# Mechanical properties :
#
#
# Convention : Reuss Voigt Hill
#
# Bulk Modulus (GPa) = 42.37822 43.38182 42.88002
# Shear Modulus (GPa) = 25.09729 25.73203 25.41466
#
# Velocity S-wave (km/s) = 3.49552 3.53945 3.51756
# Velocity P-wave (km/s) = 6.07648 6.15014 6.11342
#
# Compressibility (1/GPa) = 0.02359703
#
# Stress axis : x y z
#
# Youngs Moduli (GPa) = 65.13309 65.13309 65.65399
#
# Poissons Ratio (x) = 0.06466 0.33410
# Poissons Ratio (y) = 0.06466 0.33410
# Poissons Ratio (z) = 0.33145 0.33145
#
# Static dielectric constant tensor:
#      x y z
#    x 1.796240 0.000000 0.000000 
#    y 0.000000 1.796240 0.000000 
#    z 0.000000 0.000000 1.774290 
# 
# From -- ./inp_files/7456.got.cif
#   From: 2010.05.17/outbox.cif.g08.bks.cpg/sg122_4_cif.got.tgz:7456.got - 2010.05.20 11:37:33.
