data_PCOD9560806
_publ_section_title
;
Structure prediction by ZEFSAII (Michael W. Deem and Ramdas Pophale) SiO2 
 PCOD9560806
Probable space group: I -4 2 D
;
_chemical_formula_sum "Si O2"
_cell_formula_units_Z 72
_cell_length_a 11.729582
_cell_length_b 11.729582
_cell_length_c 26.546786
_cell_angle_alpha 90.000000
_cell_angle_beta 90.000000
_cell_angle_gamma 90.000000
_cell_volume 3652.388951
_symmetry_space_group_name_H-M "I -4 2 D"
_symmetry_group_IT_number 122
_symmetry_cell_setting 'tetragonal'
loop_
_space_group_symop_operation_xyz
x,y,z
y,-x,-z
-x,-y,z
-y,x,-z
x,1/2-y,1/4-z
-x,1/2+y,1/4-z
-y,1/2-x,1/4+z
y,1/2+x,1/4+z
1/2+x,1/2+y,1/2+z
1/2+y,1/2-x,1/2-z
1/2-x,1/2-y,1/2+z
1/2-y,1/2+x,1/2-z
1/2+x,-y,3/4-z
1/2-x,y,3/4-z
1/2-y,-x,3/4+z
1/2+y,x,3/4+z
loop_
_atom_site_type_symbol
_atom_site_label
_atom_site_fract_x
_atom_site_fract_y
_atom_site_fract_z
Si Si1 0.682506 0.278514 0.239402
Si Si2 0.341223 0.670257 0.418048
Si Si3 0.500000 0.500000 0.370569
Si Si4 0.994753 0.121838 0.312349
Si Si5 0.328094 0.561810 0.717575
O O1 0.775677 0.324737 0.279243
O O2 0.662404 0.378063 0.199276
O O3 0.559702 0.272132 0.267343
O O4 0.733954 0.161488 0.217889
O O5 0.250000 0.687056 0.375000
O O6 0.404063 0.552976 0.406084
O O7 0.428386 0.774582 0.413371
O O8 0.546462 0.598927 0.333311
O O9 0.921200 0.094584 0.261174
O O10 0.000000 0.000000 0.339984
#
# Coordination Sequence:
#
# PCOD9560806 Si02
#       5
#    16  16   8  16  16
#     4  10  20  39  62  87 116 164 204 239 295 374
#     4  11  22  36  60  86 121 154 190 254 313 346
#     4  12  22  38  57  90 124 154 184 262 319 338
#     4   9  19  39  59  81 115 161 199 238 294 360
#     4  10  19  38  63  82 122 155 198 248 294 356
#
# _framework density 19.713123
#
# number of rings (size 3 to 8) (size 9 to 14) (size 15 to 20)
#    0.000    1.778    5.556    0.000    0.000    5.778 
#    0.000    6.667    0.000    0.000    0.000    0.000 
#    0.000    0.000    0.000    0.000    0.000    0.000 
#
# Total GULP energy -200888.704254 kJ/mol
# GULP energy per Si atom -5580.241785 kJ/mol
# Density = 1.966826 g / cm^3
# Si number density = 19.713123 Si / 1000 Ang^3
#
#
#
# Elastic Constant Matrix: (Units=GPa)
#
#
# Indices 1 2 3 4 5 6 
#
# 1 135.3938 99.1690 25.2933 0.0000 0.0000 0.0000
# 2 99.1690 135.3938 25.2933 0.0000 0.0000 0.0000
# 3 25.2933 25.2933 25.3844 0.0000 0.0000 0.0000
# 4 0.0000 0.0000 0.0000 18.9020 0.0000 0.0000
# 5 0.0000 0.0000 0.0000 0.0000 18.9020 0.0000
# 6 0.0000 0.0000 0.0000 0.0000 0.0000 48.5901
#
#
#
# Elastic Compliance Matrix: (Units=1/GPa)
#
#
# Indices 1 2 3 4 5 6 
#
# 1 0.016518 -0.011088 -0.005411 0.000000 0.000000 0.000000
# 2 -0.011088 0.016518 -0.005411 0.000000 0.000000 0.000000
# 3 -0.005411 -0.005411 0.050177 0.000000 0.000000 0.000000
# 4 0.000000 0.000000 0.000000 0.052904 0.000000 0.000000
# 5 0.000000 0.000000 0.000000 0.000000 0.052904 0.000000
# 6 0.000000 0.000000 0.000000 0.000000 0.000000 0.020580
#
#
# Mechanical properties :
#
#
# Convention : Reuss Voigt Hill
#
# Bulk Modulus (GPa) = 25.38435 66.18702 45.78569
# Shear Modulus (GPa) = 18.75816 27.03991 22.89904
#
# Velocity S-wave (km/s) = 3.08808 3.70763 3.41194
# Velocity P-wave (km/s) = 5.06160 7.20948 6.22882
#
# Compressibility (1/GPa) = 0.03939435
#
# Stress axis : x y z
#
# Youngs Moduli (GPa) = 60.54082 60.54082 19.92960
#
# Poissons Ratio (x) = 0.67126 0.10783
# Poissons Ratio (y) = 0.67126 0.10783
# Poissons Ratio (z) = 0.32756 0.32756
#
# Static dielectric constant tensor:
#      x y z
#    x 1.380680 0.000000 0.000000 
#    y 0.000000 1.380680 0.000000 
#    z 0.000000 0.000000 1.736220 
# 
# From -- ./inp_files/8641.got.cif
#   From: 2010.05.17/outbox.cif.g08.bks.cpg/sg122_5_cif.got.tgz:8641.got - 2010.05.20 11:37:33.
