data_PCOD9560862
_publ_section_title
;
Structure prediction by ZEFSAII (Michael W. Deem and Ramdas Pophale) SiO2 
 PCOD9560862
Probable space group: I -4 2 D
;
_chemical_formula_sum "Si O2"
_cell_formula_units_Z 76
_cell_length_a 14.092133
_cell_length_b 14.092133
_cell_length_c 17.455310
_cell_angle_alpha 90.000000
_cell_angle_beta 90.000000
_cell_angle_gamma 90.000000
_cell_volume 3466.418811
_symmetry_space_group_name_H-M "I -4 2 D"
_symmetry_group_IT_number 122
_symmetry_cell_setting 'tetragonal'
loop_
_space_group_symop_operation_xyz
x,y,z
y,-x,-z
-x,-y,z
-y,x,-z
x,1/2-y,1/4-z
-x,1/2+y,1/4-z
-y,1/2-x,1/4+z
y,1/2+x,1/4+z
1/2+x,1/2+y,1/2+z
1/2+y,1/2-x,1/2-z
1/2-x,1/2-y,1/2+z
1/2-y,1/2+x,1/2-z
1/2+x,-y,3/4-z
1/2-x,y,3/4-z
1/2-y,-x,3/4+z
1/2+y,x,3/4+z
loop_
_atom_site_type_symbol
_atom_site_label
_atom_site_fract_x
_atom_site_fract_y
_atom_site_fract_z
Si Si1 0.475581 0.250000 0.125000
Si Si2 0.500000 0.000000 0.250000
Si Si3 0.529563 0.317935 0.904496
Si Si4 0.145660 0.232699 0.782895
Si Si5 0.526922 0.387997 0.740529
Si Si6 0.863255 0.179739 0.733177
O O1 0.405724 0.242336 0.199727
O O2 0.555230 0.320763 0.165099
O O3 0.461799 0.914250 0.298764
O O4 0.562148 0.346342 0.821523
O O5 0.419506 0.289104 0.906809
O O6 0.584258 0.235695 0.947719
O O7 0.133668 0.122159 0.806032
O O8 0.251123 0.274920 0.784200
O O9 0.500000 0.500000 0.740005
O O10 0.423924 0.340095 0.734059
#
# Coordination Sequence:
#
# PCOD9560862 Si02
#       6
#     8   4  16  16  16  16
#     4  10  20  36  60  90 120 152 192 248 316 374
#     4  12  20  28  48  88 128 152 172 228 308 364
#     4  11  22  31  57  87 125 158 185 240 302 379
#     4  11  23  36  56  87 123 162 199 246 309 363
#     4  12  23  39  58  85 121 160 200 245 297 368
#     4  11  23  36  56  87 123 162 199 246 309 363
#
# _framework density 21.924643
#
# number of rings (size 3 to 8) (size 9 to 14) (size 15 to 20)
#    0.000    0.842    7.368    2.526    5.895    0.000 
#    0.000    0.000    0.000   14.526    0.000    0.000 
#    0.000    0.000    0.000    0.000    0.000    0.000 
#
# Total GULP energy -211735.431746 kJ/mol
# GULP energy per Si atom -5571.985046 kJ/mol
# Density = 2.187474 g / cm^3
# Si number density = 21.924643 Si / 1000 Ang^3
#
#
#
# Elastic Constant Matrix: (Units=GPa)
#
#
# Indices 1 2 3 4 5 6 
#
# 1 164.9283 35.6554 -0.5346 0.0000 0.0000 0.0000
# 2 35.6554 164.9283 -0.5346 0.0000 0.0000 0.0000
# 3 -0.5346 -0.5346 22.1692 0.0000 0.0000 0.0000
# 4 0.0000 0.0000 0.0000 18.3070 0.0000 0.0000
# 5 0.0000 0.0000 0.0000 0.0000 18.3070 0.0000
# 6 0.0000 0.0000 0.0000 0.0000 0.0000 21.4470
#
#
#
# Elastic Compliance Matrix: (Units=1/GPa)
#
#
# Indices 1 2 3 4 5 6 
#
# 1 0.006361 -0.001375 0.000120 0.000000 0.000000 0.000000
# 2 -0.001375 0.006361 0.000120 0.000000 0.000000 0.000000
# 3 0.000120 0.000120 0.045113 0.000000 0.000000 0.000000
# 4 0.000000 0.000000 0.000000 0.054624 0.000000 0.000000
# 5 0.000000 0.000000 0.000000 0.000000 0.054624 0.000000
# 6 0.000000 0.000000 0.000000 0.000000 0.000000 0.046627
#
#
# Mechanical properties :
#
#
# Convention : Reuss Voigt Hill
#
# Bulk Modulus (GPa) = 17.99644 46.79981 32.39813
# Shear Modulus (GPa) = 21.32197 32.77486 27.04841
#
# Velocity S-wave (km/s) = 3.12189 3.87057 3.51622
# Velocity P-wave (km/s) = 4.60664 6.43173 5.59412
#
# Compressibility (1/GPa) = 0.05556654
#
# Stress axis : x y z
#
# Youngs Moduli (GPa) = 157.21216 157.21216 22.16635
#
# Poissons Ratio (x) = 0.21613 -0.00267
# Poissons Ratio (y) = 0.21613 -0.00267
# Poissons Ratio (z) = -0.01890 -0.01890
#
# Static dielectric constant tensor:
#      x y z
#    x 1.857760 0.000000 0.000000 
#    y 0.000000 1.857760 0.000000 
#    z 0.000000 0.000000 2.023620 
# 
# From -- ./inp_files/7966.got.cif
#   From: 2010.05.17/outbox.cif.g08.bks.cpg/sg122_4_cif.got.tgz:7966.got - 2010.05.20 11:37:33.
