data_PCOD9560183
_publ_section_title
;
Structure prediction by ZEFSAII (Michael W. Deem and Ramdas Pophale) SiO2 
 PCOD9560183
Probable space group: I -4 2 M
;
_chemical_formula_sum "Si O2"
_cell_formula_units_Z 120
_cell_length_a 27.744565
_cell_length_b 27.744565
_cell_length_c 11.214616
_cell_angle_alpha 90.000000
_cell_angle_beta 90.000000
_cell_angle_gamma 90.000000
_cell_volume 8632.572760
_symmetry_space_group_name_H-M "I -4 2 M"
_symmetry_group_IT_number 121
_symmetry_cell_setting 'tetragonal'
loop_
_space_group_symop_operation_xyz
x,y,z
y,-x,-z
-x,-y,z
-y,x,-z
x,-y,-z
-x,y,-z
-y,-x,z
y,x,z
1/2+x,1/2+y,1/2+z
1/2+y,1/2-x,1/2-z
1/2-x,1/2-y,1/2+z
1/2-y,1/2+x,1/2-z
1/2+x,1/2-y,1/2-z
1/2-x,1/2+y,1/2-z
1/2-y,1/2-x,1/2+z
1/2+y,1/2+x,1/2+z
loop_
_atom_site_type_symbol
_atom_site_label
_atom_site_fract_x
_atom_site_fract_y
_atom_site_fract_z
Si Si1 0.322896 0.402939 0.171649
Si Si2 0.115435 0.802608 0.066849
Si Si3 0.127604 0.953333 0.936356
Si Si4 0.729687 0.188573 0.691183
Si Si5 0.075101 0.000000 0.500000
Si Si6 0.016771 0.157491 0.324276
Si Si7 0.615030 0.305567 0.093059
Si Si8 0.230741 0.314213 0.539714
O O1 0.374603 0.374603 0.182818
O O2 0.293926 0.391468 0.292324
O O3 0.328595 0.460651 0.161295
O O4 0.299855 0.382873 0.050169
O O5 0.157205 0.842796 0.058776
O O6 0.068553 0.828430 0.013470
O O7 0.136141 0.758428 0.991459
O O8 0.088184 0.911817 0.921704
O O9 0.147434 0.970778 0.811092
O O10 0.106077 0.000000 0.000000
O O11 0.765004 0.234997 0.693732
O O12 0.764116 0.143321 0.662303
O O13 0.696668 0.197095 0.574681
O O14 0.709331 0.184525 0.826062
O O15 0.108850 0.022278 0.400386
O O16 0.040923 0.040923 0.553163
O O17 0.059083 0.191698 0.372383
O O18 0.644430 0.355571 0.120114
O O19 0.271317 0.271317 0.541855
#
# Coordination Sequence:
#
# PCOD9560183 Si02
#       8
#    16  16  16  16   8  16  16  16
#     4  10  19  30  46  62  77 104 140 175 210 253
#     4   9  18  32  46  59  79 103 130 165 209 255
#     4  11  22  33  44  57  75 102 136 175 219 263
#     4   9  18  29  44  66  85 102 124 152 196 253
#     4  11  22  32  42  56  72  94 130 178 224 262
#     4  12  20  32  46  58  75 102 137 173 216 261
#     4  10  19  30  44  61  82 103 128 163 210 258
#     4   9  17  29  45  64  84 102 123 154 196 250
#
# _framework density 13.900838
#
# number of rings (size 3 to 8) (size 9 to 14) (size 15 to 20)
#    0.000    1.933    2.667    2.400    1.867    2.800 
#    0.000    0.000    0.000    0.000    0.000    0.000 
#    0.000    0.000    0.000    0.000    0.000    0.000 
#
# Total GULP energy -334144.313400 kJ/mol
# GULP energy per Si atom -5569.071890 kJ/mol
# Density = 1.386920 g / cm^3
# Si number density = 13.900838 Si / 1000 Ang^3
#
#
#
# Elastic Constant Matrix: (Units=GPa)
#
#
# Indices 1 2 3 4 5 6 
#
# 1 20.8037 12.0389 16.7807 0.0000 0.0000 0.0000
# 2 12.0389 20.8037 16.7800 0.0000 0.0000 0.0000
# 3 16.7807 16.7800 104.3563 0.0000 0.0000 0.0000
# 4 0.0000 0.0000 0.0000 15.2324 0.0000 0.0000
# 5 0.0000 0.0000 0.0000 0.0000 15.2272 0.0000
# 6 0.0000 0.0000 0.0000 0.0000 0.0000 0.0395
#
#
#
# Elastic Compliance Matrix: (Units=1/GPa)
#
#
# Indices 1 2 3 4 5 6 
#
# 1 0.075264 -0.038828 -0.005859 0.000000 0.000000 0.000000
# 2 -0.038828 0.075263 -0.005858 0.000000 0.000000 0.000000
# 3 -0.005859 -0.005858 0.011467 0.000000 0.000000 0.000000
# 4 0.000000 0.000000 0.000000 0.065649 0.000000 0.000000
# 5 0.000000 0.000000 0.000000 0.000000 0.065672 0.000000
# 6 0.000000 0.000000 0.000000 0.000000 0.000000 25.331029
#
#
# Mechanical properties :
#
#
# Convention : Reuss Voigt Hill
#
# Bulk Modulus (GPa) = 16.41980 26.35144 21.38562
# Shear Modulus (GPa) = 0.19421 12.79076 6.49248
#
# Velocity S-wave (km/s) = 0.37418 3.03668 2.16349
# Velocity P-wave (km/s) = 3.46762 5.59402 4.65390
#
# Compressibility (1/GPa) = 0.06090208
#
# Stress axis : x y z
#
# Youngs Moduli (GPa) = 13.28652 13.28675 87.20902
#
# Poissons Ratio (x) = 0.51590 0.51098
# Poissons Ratio (y) = 0.51590 0.51089
# Poissons Ratio (z) = 0.07785 0.07784
#
# Static dielectric constant tensor:
#      x y z
#    x 1.465750 0.000000 0.000000 
#    y 0.000000 1.465780 0.000000 
#    z 0.000000 0.000000 1.512150 
# 
# From -- ./inp_files/3587.got.cif
#   From: 2010.05.17/outbox.cif.g08.bks.cpg/sg121_2_cif.got.tgz:3587.got - 2010.05.20 11:32:06.
