data_PCOD9560986
_publ_section_title
;
Structure prediction by ZEFSAII (Michael W. Deem and Ramdas Pophale) SiO2 
 PCOD9560986
Probable space group: I -4 2 D
;
_chemical_formula_sum "Si O2"
_cell_formula_units_Z 64
_cell_length_a 16.142106
_cell_length_b 16.142106
_cell_length_c 10.089135
_cell_angle_alpha 90.000000
_cell_angle_beta 90.000000
_cell_angle_gamma 90.000000
_cell_volume 2628.901553
_symmetry_space_group_name_H-M "I -4 2 D"
_symmetry_group_IT_number 122
_symmetry_cell_setting 'tetragonal'
loop_
_space_group_symop_operation_xyz
x,y,z
y,-x,-z
-x,-y,z
-y,x,-z
x,1/2-y,1/4-z
-x,1/2+y,1/4-z
-y,1/2-x,1/4+z
y,1/2+x,1/4+z
1/2+x,1/2+y,1/2+z
1/2+y,1/2-x,1/2-z
1/2-x,1/2-y,1/2+z
1/2-y,1/2+x,1/2-z
1/2+x,-y,3/4-z
1/2-x,y,3/4-z
1/2-y,-x,3/4+z
1/2+y,x,3/4+z
loop_
_atom_site_type_symbol
_atom_site_label
_atom_site_fract_x
_atom_site_fract_y
_atom_site_fract_z
Si Si1 0.750000 0.794026 0.875000
Si Si2 0.863088 0.055802 0.721387
Si Si3 0.846995 0.750000 0.625000
Si Si4 0.169179 0.922230 0.031707
Si Si5 0.970417 0.607807 0.547278
O O1 0.787743 0.743971 0.752490
O O2 0.825238 0.846505 0.935948
O O3 0.766979 0.063077 0.681209
O O4 0.932700 0.119652 0.666514
O O5 0.916274 0.975164 0.680885
O O6 0.851299 0.059500 0.880681
O O7 0.909292 0.674639 0.607529
O O8 0.117311 0.972474 0.137757
#
# Coordination Sequence:
#
# PCOD9560986 Si02
#       5
#     8  16   8  16  16
#     4  10  22  41  64  99 128 160 220 266 316 383
#     4  10  21  38  61  92 129 170 215 264 328 395
#     4  10  22  41  66  95 132 174 216 274 326 383
#     4  10  21  36  63  93 124 168 214 273 322 378
#     4  10  22  39  59  90 129 170 217 268 327 388
#
# _framework density 24.344768999999999
#
# number of rings (size 3 to 8) (size 9 to 14) (size 15 to 20)
#    0.000    2.000    0.000    3.000    0.000   17.000 
#    0.000    7.500    0.000   12.000    0.000    0.000 
#    0.000    0.000    0.000    0.000    0.000    0.000 
#
# Total GULP energy -178522.049509 kJ/mol
# GULP energy per Si atom -5578.814047 kJ/mol
# Density = 2.428936 g / cm^3
# Si number density = 24.344769 Si / 1000 Ang^3
#
#
#
# Elastic Constant Matrix: (Units=GPa)
#
#
# Indices 1 2 3 4 5 6 
#
# 1 105.9829 21.4706 -1.7619 0.0000 0.0000 0.0000
# 2 21.4706 105.9829 -1.7619 0.0000 0.0000 0.0000
# 3 -1.7619 -1.7619 68.5651 0.0000 0.0000 0.0000
# 4 0.0000 0.0000 0.0000 12.3488 0.0000 0.0000
# 5 0.0000 0.0000 0.0000 0.0000 12.3488 0.0000
# 6 0.0000 0.0000 0.0000 0.0000 0.0000 22.7354
#
#
#
# Elastic Compliance Matrix: (Units=1/GPa)
#
#
# Indices 1 2 3 4 5 6 
#
# 1 0.009842 -0.001991 0.000202 0.000000 0.000000 0.000000
# 2 -0.001991 0.009842 0.000202 0.000000 0.000000 0.000000
# 3 0.000202 0.000202 0.014595 0.000000 0.000000 0.000000
# 4 0.000000 0.000000 0.000000 0.080980 0.000000 0.000000
# 5 0.000000 0.000000 0.000000 0.000000 0.080980 0.000000
# 6 0.000000 0.000000 0.000000 0.000000 0.000000 0.043984
#
#
# Mechanical properties :
#
#
# Convention : Reuss Voigt Hill
#
# Bulk Modulus (GPa) = 32.14891 35.15826 33.65358
# Shear Modulus (GPa) = 19.70325 26.99219 23.34772
#
# Velocity S-wave (km/s) = 2.84798 3.33340 3.10020
# Velocity P-wave (km/s) = 4.90398 5.41189 5.16418
#
# Compressibility (1/GPa) = 0.03110526
#
# Stress axis : x y z
#
# Youngs Moduli (GPa) = 101.60444 101.60444 68.51640
#
# Poissons Ratio (x) = 0.20224 -0.01382
# Poissons Ratio (y) = 0.20224 -0.01382
# Poissons Ratio (z) = -0.02050 -0.02050
#
# Static dielectric constant tensor:
#      x y z
#    x 2.062120 0.000000 0.000000 
#    y 0.000000 2.062120 0.000000 
#    z 0.000000 0.000000 1.993550 
# 
# From -- ./inp_files/4125.got.cif
#   From: 2010.05.17/outbox.cif.g08.bks.cpg/sg122_3_cif.got.tgz:4125.got - 2010.05.20 11:37:33.
