data_PCOD9560148
_publ_section_title
;
Structure prediction by ZEFSAII (Michael W. Deem and Ramdas Pophale) SiO2 
 PCOD9560148
Probable space group: I -4 2 M
;
_chemical_formula_sum "Si O2"
_cell_formula_units_Z 128
_cell_length_a 18.510590
_cell_length_b 18.510590
_cell_length_c 24.440434
_cell_angle_alpha 90.000000
_cell_angle_beta 90.000000
_cell_angle_gamma 90.000000
_cell_volume 8374.317773
_symmetry_space_group_name_H-M "I -4 2 M"
_symmetry_group_IT_number 121
_symmetry_cell_setting 'tetragonal'
loop_
_space_group_symop_operation_xyz
x,y,z
y,-x,-z
-x,-y,z
-y,x,-z
x,-y,-z
-x,y,-z
-y,-x,z
y,x,z
1/2+x,1/2+y,1/2+z
1/2+y,1/2-x,1/2-z
1/2-x,1/2-y,1/2+z
1/2-y,1/2+x,1/2-z
1/2+x,1/2-y,1/2-z
1/2-x,1/2+y,1/2-z
1/2-y,1/2-x,1/2+z
1/2+y,1/2+x,1/2+z
loop_
_atom_site_type_symbol
_atom_site_label
_atom_site_fract_x
_atom_site_fract_y
_atom_site_fract_z
Si Si1 0.827623 0.707555 0.727819
Si Si2 0.911093 0.654183 0.834119
Si Si3 0.975360 0.272007 0.561382
Si Si4 0.790156 0.672739 0.558378
Si Si5 0.081847 0.497662 0.120469
Si Si6 0.280872 0.604328 0.876102
Si Si7 0.422369 0.166972 0.652656
Si Si8 0.192965 0.313158 0.932802
O O1 0.760508 0.760508 0.739061
O O2 0.869787 0.683794 0.781587
O O3 0.878604 0.749694 0.684100
O O4 0.803599 0.634729 0.696484
O O5 0.910008 0.566358 0.839121
O O6 0.869755 0.682000 0.888053
O O7 0.994335 0.677900 0.834033
O O8 0.889782 0.265338 0.568238
O O9 0.000000 0.255120 0.500000
O O10 0.993714 0.355863 0.575525
O O11 0.022634 0.226360 0.604287
O O12 0.713992 0.713992 0.566083
O O13 0.849556 0.728535 0.583197
O O14 0.799953 0.601494 0.594442
O O15 0.804119 0.663082 0.494361
O O16 0.089939 0.419971 0.148886
O O17 0.000000 0.500000 0.098002
O O18 0.359228 0.640773 0.880251
O O19 0.248081 0.248081 0.922028
#
# Coordination Sequence:
#
# PCOD9560148 Si02
#       8
#    16  16  16  16  16  16  16  16
#     4  10  20  34  50  66  94 128 165 205 235 280
#     4  10  22  30  46  71  99 132 159 197 243 288
#     4  11  17  27  47  68  90 122 166 203 239 296
#     4   9  16  30  50  69  94 128 165 202 238 285
#     4   9  18  30  39  65  98 127 158 186 231 283
#     4   9  17  30  48  67  86 119 167 212 242 283
#     4  10  18  32  49  69  94 129 168 197 232 281
#     4  10  20  32  46  68 101 133 159 199 256 300
#
# _framework density 15.284827
#
# number of rings (size 3 to 8) (size 9 to 14) (size 15 to 20)
#    0.000    2.250    3.750    1.500    1.750    0.750 
#    0.000    3.750    0.000    0.375    0.000    0.875 
#    0.000   10.000    0.000   11.000    0.000    0.250 
#
# Total GULP energy -356599.488079 kJ/mol
# GULP energy per Si atom -5571.867001 kJ/mol
# Density = 1.525004 g / cm^3
# Si number density = 15.284827 Si / 1000 Ang^3
#
#
#
# Elastic Constant Matrix: (Units=GPa)
#
#
# Indices 1 2 3 4 5 6 
#
# 1 72.8417 40.8865 43.3371 0.0000 0.0000 0.0000
# 2 40.8865 72.8415 43.3372 0.0000 0.0000 0.0000
# 3 43.3371 43.3372 96.0520 0.0000 0.0000 0.0000
# 4 0.0000 0.0000 0.0000 18.0653 0.0000 0.0000
# 5 0.0000 0.0000 0.0000 0.0000 18.0651 0.0000
# 6 0.0000 0.0000 0.0000 0.0000 0.0000 22.6797
#
#
#
# Elastic Compliance Matrix: (Units=1/GPa)
#
#
# Indices 1 2 3 4 5 6 
#
# 1 0.022347 -0.008947 -0.006046 0.000000 0.000000 0.000000
# 2 -0.008947 0.022347 -0.006046 0.000000 0.000000 0.000000
# 3 -0.006046 -0.006046 0.015867 0.000000 0.000000 0.000000
# 4 0.000000 0.000000 0.000000 0.055355 0.000000 0.000000
# 5 0.000000 0.000000 0.000000 0.000000 0.055355 0.000000
# 6 0.000000 0.000000 0.000000 0.000000 0.000000 0.044092
#
#
# Mechanical properties :
#
#
# Convention : Reuss Voigt Hill
#
# Bulk Modulus (GPa) = 54.10179 55.20631 54.65405
# Shear Modulus (GPa) = 18.96788 19.37364 19.17076
#
# Velocity S-wave (km/s) = 3.52655 3.56407 3.54536
# Velocity P-wave (km/s) = 7.21489 7.28928 7.25218
#
# Compressibility (1/GPa) = 0.01848368
#
# Stress axis : x y z
#
# Youngs Moduli (GPa) = 44.74803 44.74778 63.02394
#
# Poissons Ratio (x) = 0.40034 0.38106
# Poissons Ratio (y) = 0.40034 0.38106
# Poissons Ratio (z) = 0.27056 0.27056
#
# Static dielectric constant tensor:
#      x y z
#    x 1.507170 0.000000 0.000000 
#    y 0.000000 1.507170 0.000000 
#    z 0.000000 0.000000 1.512000 
# 
# From -- ./inp_files/7361.got.cif
#   From: 2010.05.17/outbox.cif.g08.bks.cpg/sg121_4_cif.got.tgz:7361.got - 2010.05.20 11:32:06.
