data_PCOD9560400
_publ_section_title
;
Structure prediction by ZEFSAII (Michael W. Deem and Ramdas Pophale) SiO2 
 PCOD9560400
Probable space group: I -4 2 M
;
_chemical_formula_sum "Si O2"
_cell_formula_units_Z 112
_cell_length_a 14.400607
_cell_length_b 14.400607
_cell_length_c 28.793540
_cell_angle_alpha 90.000000
_cell_angle_beta 90.000000
_cell_angle_gamma 90.000000
_cell_volume 5971.131822
_symmetry_space_group_name_H-M "I -4 2 M"
_symmetry_group_IT_number 121
_symmetry_cell_setting 'tetragonal'
loop_
_space_group_symop_operation_xyz
x,y,z
y,-x,-z
-x,-y,z
-y,x,-z
x,-y,-z
-x,y,-z
-y,-x,z
y,x,z
1/2+x,1/2+y,1/2+z
1/2+y,1/2-x,1/2-z
1/2-x,1/2-y,1/2+z
1/2-y,1/2+x,1/2-z
1/2+x,1/2-y,1/2-z
1/2-x,1/2+y,1/2-z
1/2-y,1/2-x,1/2+z
1/2+y,1/2+x,1/2+z
loop_
_atom_site_type_symbol
_atom_site_label
_atom_site_fract_x
_atom_site_fract_y
_atom_site_fract_z
Si Si1 0.600070 0.163949 0.487985
Si Si2 0.928781 0.775007 0.562779
Si Si3 0.054267 0.645374 0.249617
Si Si4 0.928459 0.773570 0.103450
Si Si5 0.229136 0.385525 0.347497
Si Si6 0.785978 0.365579 0.076835
Si Si7 0.643237 0.791276 0.158471
O O1 0.500000 0.118644 0.500000
O O2 0.681856 0.108839 0.461840
O O3 0.576698 0.245116 0.451059
O O4 0.649381 0.180274 0.537123
O O5 0.865755 0.865755 0.547896
O O6 0.908373 0.762279 0.617246
O O7 0.039293 0.761395 0.558960
O O8 0.115596 0.552227 0.250175
O O9 0.078574 0.701338 0.203234
O O10 0.078332 0.693012 0.298097
O O11 0.864576 0.864576 0.110042
O O12 0.880270 0.690070 0.133332
O O13 0.031954 0.776829 0.122973
O O14 0.301454 0.301454 0.343058
O O15 0.138694 0.349682 0.376848
O O16 0.701549 0.298452 0.086410
O O17 0.729323 0.729323 0.174801
#
# Coordination Sequence:
#
# PCOD9560400 Si02
#       7
#    16  16  16  16  16  16  16
#     4  11  21  38  61  88 118 158 202 252 305 360
#     4  10  22  39  61  88 118 159 208 251 303 368
#     4  11  21  34  56  86 117 149 190 241 299 361
#     4  10  20  39  62  84 115 159 203 246 300 365
#     4  11  23  39  58  87 122 156 199 253 306 362
#     4  11  23  39  59  88 126 161 199 253 308 366
#     4   9  18  36  58  79 111 151 193 241 290 350
#
# _framework density 18.756912
#
# number of rings (size 3 to 8) (size 9 to 14) (size 15 to 20)
#    0.000    1.571    2.857    3.857    0.000    1.714 
#    0.000    0.000    0.000    1.714    0.000    2.000 
#    0.000    0.000    0.000    0.000    0.000    0.000 
#
# Total GULP energy -311816.878163 kJ/mol
# GULP energy per Si atom -5568.158539 kJ/mol
# Density = 1.871422 g / cm^3
# Si number density = 18.756912 Si / 1000 Ang^3
#
#
#
# Elastic Constant Matrix: (Units=GPa)
#
#
# Indices 1 2 3 4 5 6 
#
# 1 57.1014 39.3361 23.9435 0.0000 0.0000 0.0000
# 2 39.3361 57.0992 23.9412 0.0000 0.0000 0.0000
# 3 23.9435 23.9412 99.8780 0.0000 0.0000 0.0000
# 4 0.0000 0.0000 0.0000 15.6189 0.0000 0.0000
# 5 0.0000 0.0000 0.0000 0.0000 15.6207 0.0000
# 6 0.0000 0.0000 0.0000 0.0000 0.0000 11.3167
#
#
#
# Elastic Compliance Matrix: (Units=1/GPa)
#
#
# Indices 1 2 3 4 5 6 
#
# 1 0.034031 -0.022261 -0.002822 0.000000 0.000000 0.000000
# 2 -0.022261 0.034032 -0.002821 0.000000 0.000000 0.000000
# 3 -0.002822 -0.002821 0.011365 0.000000 0.000000 0.000000
# 4 0.000000 0.000000 0.000000 0.064025 0.000000 0.000000
# 5 0.000000 0.000000 0.000000 0.000000 0.064018 0.000000
# 6 0.000000 0.000000 0.000000 0.000000 0.000000 0.088365
#
#
# Mechanical properties :
#
#
# Convention : Reuss Voigt Hill
#
# Bulk Modulus (GPa) = 42.33746 43.16890 42.75318
# Shear Modulus (GPa) = 13.90752 16.96846 15.43799
#
# Velocity S-wave (km/s) = 2.72593 3.01100 2.87201
# Velocity P-wave (km/s) = 5.70336 5.92900 5.81727
#
# Compressibility (1/GPa) = 0.02361975
#
# Stress axis : x y z
#
# Youngs Moduli (GPa) = 29.38465 29.38403 87.98968
#
# Poissons Ratio (x) = 0.65412 0.24832
# Poissons Ratio (y) = 0.65414 0.24822
# Poissons Ratio (z) = 0.08293 0.08289
#
# Static dielectric constant tensor:
#      x y z
#    x 1.674620 0.000000 0.000000 
#    y 0.000000 1.674620 0.000000 
#    z 0.000000 0.000000 1.679030 
# 
# From -- ./inp_files/7738.got.cif
#   From: 2010.05.17/outbox.cif.g08.bks.cpg/sg121_4_cif.got.tgz:7738.got - 2010.05.20 11:32:06.
