data_PCOD9560012
_publ_section_title
;
Structure prediction by ZEFSAII (Michael W. Deem and Ramdas Pophale) SiO2 
 PCOD9560012
Probable space group: I -4 C 2
;
_chemical_formula_sum "Si O2"
_cell_formula_units_Z 60
_cell_length_a 13.625714
_cell_length_b 13.625714
_cell_length_c 15.221551
_cell_angle_alpha 90.000000
_cell_angle_beta 90.000000
_cell_angle_gamma 90.000000
_cell_volume 2826.034407
_symmetry_space_group_name_H-M "I -4 C 2"
_symmetry_group_IT_number 120
_symmetry_cell_setting 'tetragonal'
loop_
_space_group_symop_operation_xyz
x,y,z
y,-x,-z
-x,-y,z
-y,x,-z
y,x,1/2-z
-y,-x,1/2-z
-x,y,1/2+z
x,-y,1/2+z
1/2+x,1/2+y,1/2+z
1/2+y,1/2-x,1/2-z
1/2-x,1/2-y,1/2+z
1/2-y,1/2+x,1/2-z
1/2+y,1/2+x,-z
1/2-y,1/2-x,-z
1/2-x,1/2+y,z
1/2+x,1/2-y,z
loop_
_atom_site_type_symbol
_atom_site_label
_atom_site_fract_x
_atom_site_fract_y
_atom_site_fract_z
Si Si1 0.756805 0.756805 0.250000
Si Si2 0.927388 0.354533 0.261488
Si Si3 0.500000 0.000000 0.000000
Si Si4 0.490698 0.776213 0.940290
Si Si5 0.827001 0.197103 0.564699
O O1 0.789240 0.651596 0.291527
O O2 0.770709 0.826517 0.333804
O O3 0.880089 0.463755 0.274228
O O4 0.939325 0.283717 0.345802
O O5 0.393807 0.003721 0.046374
O O6 0.585947 0.709396 0.934344
O O7 0.427227 0.729632 0.018141
O O8 0.750788 0.250788 0.500000
#
# Coordination Sequence:
#
# PCOD9560012 Si02
#       5
#     8  16   4  16  16
#     4  12  24  44  70 110 150 190 240 328 380 438
#     4  11  23  42  75 111 139 186 254 313 370 445
#     4  12  20  36  74 104 128 180 258 292 360 418
#     4  12  25  45  71 108 144 199 243 316 374 451
#     4  12  26  46  71 106 152 194 250 310 382 454
#
# _framework density 21.231164
#
# number of rings (size 3 to 8) (size 9 to 14) (size 15 to 20)
#    0.000    0.267    8.000    1.600    0.000    2.667 
#    0.000    0.000    0.000    2.400    0.000    0.000 
#    0.000    0.000    0.000    0.000    0.000    0.000 
#
# Total GULP energy -167058.346633 kJ/mol
# GULP energy per Si atom -5568.611554 kJ/mol
# Density = 2.118284 g / cm^3
# Si number density = 21.231164 Si / 1000 Ang^3
#
#
#
# Elastic Constant Matrix: (Units=GPa)
#
#
# Indices 1 2 3 4 5 6 
#
# 1 107.9074 46.9056 19.6534 0.0000 0.0000 0.0000
# 2 46.9056 107.9074 19.6534 0.0000 0.0000 0.0000
# 3 19.6534 19.6534 103.8511 0.0000 0.0000 0.0000
# 4 0.0000 0.0000 0.0000 44.2785 0.0000 0.0000
# 5 0.0000 0.0000 0.0000 0.0000 44.2785 0.0000
# 6 0.0000 0.0000 0.0000 0.0000 0.0000 42.5291
#
#
#
# Elastic Compliance Matrix: (Units=1/GPa)
#
#
# Indices 1 2 3 4 5 6 
#
# 1 0.011589 -0.004804 -0.001284 0.000000 0.000000 0.000000
# 2 -0.004804 0.011589 -0.001284 0.000000 0.000000 0.000000
# 3 -0.001284 -0.001284 0.010115 0.000000 0.000000 0.000000
# 4 0.000000 0.000000 0.000000 0.022584 0.000000 0.000000
# 5 0.000000 0.000000 0.000000 0.000000 0.022584 0.000000
# 6 0.000000 0.000000 0.000000 0.000000 0.000000 0.023513
#
#
# Mechanical properties :
#
#
# Convention : Reuss Voigt Hill
#
# Bulk Modulus (GPa) = 53.90946 54.67671 54.29308
# Shear Modulus (GPa) = 40.68258 41.78079 41.23168
#
# Velocity S-wave (km/s) = 4.38216 4.44091 4.41163
# Velocity P-wave (km/s) = 7.14501 7.21835 7.18178
#
# Compressibility (1/GPa) = 0.01854962
#
# Stress axis : x y z
#
# Youngs Moduli (GPa) = 86.28723 86.28723 98.86119
#
# Poissons Ratio (x) = 0.41450 0.12695
# Poissons Ratio (y) = 0.41450 0.12695
# Poissons Ratio (z) = 0.11080 0.11080
#
# Static dielectric constant tensor:
#      x y z
#    x 1.765580 0.000000 0.000000 
#    y 0.000000 1.765580 0.000000 
#    z 0.000000 0.000000 1.929950 
# 
# From -- ./inp_files/3334.got.cif
#   From: 2010.05.17/outbox.cif.g08.bks.cpg/sg120_2_cif.got.tgz:3334.got - 2010.05.20 11:28:13.
