data_PCOD9560463
_publ_section_title
;
Structure prediction by ZEFSAII (Michael W. Deem and Ramdas Pophale) SiO2 
 PCOD9560463
Probable space group: I -4 2 M
;
_chemical_formula_sum "Si O2"
_cell_formula_units_Z 80
_cell_length_a 13.823172
_cell_length_b 13.823172
_cell_length_c 19.433904
_cell_angle_alpha 90.000000
_cell_angle_beta 90.000000
_cell_angle_gamma 90.000000
_cell_volume 3713.432012
_symmetry_space_group_name_H-M "I -4 2 M"
_symmetry_group_IT_number 121
_symmetry_cell_setting 'tetragonal'
loop_
_space_group_symop_operation_xyz
x,y,z
y,-x,-z
-x,-y,z
-y,x,-z
x,-y,-z
-x,y,-z
-y,-x,z
y,x,z
1/2+x,1/2+y,1/2+z
1/2+y,1/2-x,1/2-z
1/2-x,1/2-y,1/2+z
1/2-y,1/2+x,1/2-z
1/2+x,1/2-y,1/2-z
1/2-x,1/2+y,1/2-z
1/2-y,1/2-x,1/2+z
1/2+y,1/2+x,1/2+z
loop_
_atom_site_type_symbol
_atom_site_label
_atom_site_fract_x
_atom_site_fract_y
_atom_site_fract_z
Si Si1 0.714134 0.561570 0.715077
Si Si2 0.273604 0.116605 0.570784
Si Si3 0.575542 0.735139 0.561284
Si Si4 0.859397 0.295960 0.214186
Si Si5 0.603051 0.761548 0.905232
O O1 0.614281 0.614281 0.739185
O O2 0.697431 0.538747 0.634481
O O3 0.796132 0.641716 0.732092
O O4 0.763391 0.463283 0.740926
O O5 0.192318 0.192318 0.595221
O O6 0.379150 0.161408 0.581152
O O7 0.270681 0.114513 0.487247
O O8 0.253994 0.011991 0.601985
O O9 0.500000 0.739132 0.500000
O O10 0.664493 0.664493 0.540318
O O11 0.802322 0.197679 0.200720
O O12 0.848398 0.355675 0.142172
O O13 0.667325 0.667325 0.885383
#
# Coordination Sequence:
#
# PCOD9560463 Si02
#       5
#    16  16  16  16  16
#     4  10  23  41  62  91 123 163 210 256 313 377
#     4   9  18  33  55  83 120 158 198 253 308 365
#     4  10  21  38  60  88 122 157 202 260 317 374
#     4  10  22  41  62  87 124 162 207 259 306 369
#     4   9  18  34  56  84 118 160 204 251 307 364
#
# _framework density 21.543413999999999
#
# number of rings (size 3 to 8) (size 9 to 14) (size 15 to 20)
#    0.000    2.400    0.000    1.200    2.800    3.800 
#    0.000   10.000    0.000    3.600    0.000    0.000 
#    0.000    0.000    0.000    0.000    0.000    0.000 
#
# Total GULP energy -222799.091376 kJ/mol
# GULP energy per Si atom -5569.977284 kJ/mol
# Density = 2.149438 g / cm^3
# Si number density = 21.543414 Si / 1000 Ang^3
#
#
#
# Elastic Constant Matrix: (Units=GPa)
#
#
# Indices 1 2 3 4 5 6 
#
# 1 88.6935 34.8759 11.6208 0.0000 0.0000 0.0000
# 2 34.8759 88.6939 11.6215 0.0000 0.0000 0.0000
# 3 11.6208 11.6215 90.9766 0.0000 0.0000 0.0000
# 4 0.0000 0.0000 0.0000 16.6683 0.0000 0.0000
# 5 0.0000 0.0000 0.0000 0.0000 16.6678 0.0000
# 6 0.0000 0.0000 0.0000 0.0000 0.0000 14.1079
#
#
#
# Elastic Compliance Matrix: (Units=1/GPa)
#
#
# Indices 1 2 3 4 5 6 
#
# 1 0.013437 -0.005145 -0.001059 0.000000 0.000000 0.000000
# 2 -0.005145 0.013437 -0.001059 0.000000 0.000000 0.000000
# 3 -0.001059 -0.001059 0.011262 0.000000 0.000000 0.000000
# 4 0.000000 0.000000 0.000000 0.059994 0.000000 0.000000
# 5 0.000000 0.000000 0.000000 0.000000 0.059996 0.000000
# 6 0.000000 0.000000 0.000000 0.000000 0.000000 0.070882
#
#
# Mechanical properties :
#
#
# Convention : Reuss Voigt Hill
#
# Bulk Modulus (GPa) = 42.35606 42.73337 42.54471
# Shear Modulus (GPa) = 19.88834 23.50519 21.69676
#
# Velocity S-wave (km/s) = 3.04168 3.30671 3.17696
# Velocity P-wave (km/s) = 5.66032 5.87010 5.76616
#
# Compressibility (1/GPa) = 0.02360937
#
# Stress axis : x y z
#
# Youngs Moduli (GPa) = 74.42393 74.42411 88.79078
#
# Poissons Ratio (x) = 0.38289 0.09404
# Poissons Ratio (y) = 0.38289 0.09405
# Poissons Ratio (z) = 0.07882 0.07883
#
# Static dielectric constant tensor:
#      x y z
#    x 1.788810 0.000000 0.000000 
#    y 0.000000 1.788800 0.000000 
#    z 0.000000 0.000000 1.844270 
# 
# From -- ./inp_files/6202.got.cif
#   From: 2010.05.17/outbox.cif.g08.bks.cpg/sg121_4_cif.got.tgz:6202.got - 2010.05.20 11:32:06.
