data_PCOD9560119
_publ_section_title
;
Structure prediction by ZEFSAII (Michael W. Deem and Ramdas Pophale) SiO2 
 PCOD9560119
Probable space group: I -4 2 M
;
_chemical_formula_sum "Si O2"
_cell_formula_units_Z 128
_cell_length_a 20.769642
_cell_length_b 20.769642
_cell_length_c 18.512836
_cell_angle_alpha 90.000000
_cell_angle_beta 90.000000
_cell_angle_gamma 90.000000
_cell_volume 7986.030701
_symmetry_space_group_name_H-M "I -4 2 M"
_symmetry_group_IT_number 121
_symmetry_cell_setting 'tetragonal'
loop_
_space_group_symop_operation_xyz
x,y,z
y,-x,-z
-x,-y,z
-y,x,-z
x,-y,-z
-x,y,-z
-y,-x,z
y,x,z
1/2+x,1/2+y,1/2+z
1/2+y,1/2-x,1/2-z
1/2-x,1/2-y,1/2+z
1/2-y,1/2+x,1/2-z
1/2+x,1/2-y,1/2-z
1/2-x,1/2+y,1/2-z
1/2-y,1/2-x,1/2+z
1/2+y,1/2+x,1/2+z
loop_
_atom_site_type_symbol
_atom_site_label
_atom_site_fract_x
_atom_site_fract_y
_atom_site_fract_z
Si Si1 0.876083 0.767713 0.672826
Si Si2 0.942028 0.164241 0.055659
Si Si3 0.750824 0.356132 0.097636
Si Si4 0.834955 0.275958 0.856319
Si Si5 0.677695 0.571172 0.030743
Si Si6 0.150842 0.045991 0.775766
Si Si7 0.591501 0.298703 0.239843
Si Si8 0.342459 0.231573 0.476347
O O1 0.817841 0.817841 0.659225
O O2 0.841100 0.698894 0.672805
O O3 0.923956 0.783028 0.606066
O O4 0.909459 0.790871 0.746331
O O5 0.890816 0.109185 0.034137
O O6 0.961207 0.151285 0.138108
O O7 0.904443 0.231503 0.052117
O O8 0.000000 0.163378 0.000000
O O9 0.705230 0.294771 0.114314
O O10 0.744027 0.400308 0.167775
O O11 0.818724 0.327194 0.072903
O O12 0.719633 0.391060 0.028818
O O13 0.780174 0.219827 0.854213
O O14 0.892516 0.247461 0.807920
O O15 0.851914 0.286498 0.939970
O O16 0.611115 0.611115 0.039313
O O17 0.666794 0.500000 0.000000
O O18 0.085603 0.085603 0.755291
O O19 0.164567 0.976202 0.743213
O O20 0.646056 0.353945 0.239071
O O21 0.284026 0.284026 0.476008
#
# Coordination Sequence:
#
# PCOD9560119 Si02
#       8
#    16  16  16  16  16  16  16  16
#     4   9  17  30  46  66  92 127 163 199 252 301
#     4  10  21  34  50  71  99 137 176 212 251 299
#     4   9  17  29  45  68  93 122 162 210 258 295
#     4   9  16  28  48  69  90 120 161 209 258 304
#     4  10  18  29  45  65  95 132 165 196 232 283
#     4  10  21  34  47  68 101 138 169 202 246 299
#     4  10  20  31  47  70  96 131 173 212 248 296
#     4   9  16  29  48  69  92 121 160 209 263 305
#
# _framework density 16.027988000000001
#
# number of rings (size 3 to 8) (size 9 to 14) (size 15 to 20)
#    0.000    2.500    1.250    1.500    1.750    2.000 
#    0.000    1.250    0.000    4.500    0.000    0.000 
#    0.000    1.000    1.000    0.000    0.000    0.000 
#
# Total GULP energy -356349.168424 kJ/mol
# GULP energy per Si atom -5567.955757 kJ/mol
# Density = 1.599151 g / cm^3
# Si number density = 16.027988 Si / 1000 Ang^3
#
#
#
# Elastic Constant Matrix: (Units=GPa)
#
#
# Indices 1 2 3 4 5 6 
#
# 1 40.6768 45.6367 28.1731 0.0000 0.0000 0.0000
# 2 45.6367 40.6757 28.1741 0.0000 0.0000 0.0000
# 3 28.1731 28.1741 72.7635 0.0000 0.0000 0.0000
# 4 0.0000 0.0000 0.0000 19.2076 0.0000 0.0000
# 5 0.0000 0.0000 0.0000 0.0000 19.2077 0.0000
# 6 0.0000 0.0000 0.0000 0.0000 0.0000 14.8926
#
#
#
# Elastic Compliance Matrix: (Units=1/GPa)
#
#
# Indices 1 2 3 4 5 6 
#
# 1 -0.093042 0.108550 -0.006006 0.000000 0.000000 0.000000
# 2 0.108550 -0.093048 -0.006001 0.000000 0.000000 0.000000
# 3 -0.006006 -0.006001 0.018392 0.000000 0.000000 0.000000
# 4 0.000000 0.000000 0.000000 0.052063 0.000000 0.000000
# 5 0.000000 0.000000 0.000000 0.000000 0.052062 0.000000
# 6 0.000000 0.000000 0.000000 0.000000 0.000000 0.067147
#
#
# Mechanical properties :
#
#
# Convention : Reuss Voigt Hill
#
# Bulk Modulus (GPa) = 39.38819 39.78707 39.58763
# Shear Modulus (GPa) = -27.61666 14.13707 -6.73979
#
# Velocity S-wave (km/s) = -4.15544 2.97311 -2.05284
# Velocity P-wave (km/s) = 1.26665 6.05502 4.37422
#
# Compressibility (1/GPa) = 0.02538832
#
# Stress axis : x y z
#
# Youngs Moduli (GPa) = -10.74778 -10.74712 54.37112
#
# Poissons Ratio (x) = 1.16660 0.32655
# Poissons Ratio (y) = 1.16667 0.32627
# Poissons Ratio (z) = -0.06455 -0.06449
#
# Static dielectric constant tensor:
#      x y z
#    x 1.534000 0.000000 0.000000 
#    y 0.000000 1.534000 0.000000 
#    z 0.000000 0.000000 1.567390 
# 
# From -- ./inp_files/5656.got.cif
#   From: 2010.05.17/outbox.cif.g08.bks.cpg/sg121_3_cif.got.tgz:5656.got - 2010.05.20 11:32:06.
