data_PCOD9560705
_publ_section_title
;
Structure prediction by ZEFSAII (Michael W. Deem and Ramdas Pophale) SiO2 
 PCOD9560705
Probable space group: I -4 2 D
;
_chemical_formula_sum "Si O2"
_cell_formula_units_Z 84
_cell_length_a 14.626795
_cell_length_b 14.626795
_cell_length_c 22.755557
_cell_angle_alpha 90.000000
_cell_angle_beta 90.000000
_cell_angle_gamma 90.000000
_cell_volume 4868.395134
_symmetry_space_group_name_H-M "I -4 2 D"
_symmetry_group_IT_number 122
_symmetry_cell_setting 'tetragonal'
loop_
_space_group_symop_operation_xyz
x,y,z
y,-x,-z
-x,-y,z
-y,x,-z
x,1/2-y,1/4-z
-x,1/2+y,1/4-z
-y,1/2-x,1/4+z
y,1/2+x,1/4+z
1/2+x,1/2+y,1/2+z
1/2+y,1/2-x,1/2-z
1/2-x,1/2-y,1/2+z
1/2-y,1/2+x,1/2-z
1/2+x,-y,3/4-z
1/2-x,y,3/4-z
1/2-y,-x,3/4+z
1/2+y,x,3/4+z
loop_
_atom_site_type_symbol
_atom_site_label
_atom_site_fract_x
_atom_site_fract_y
_atom_site_fract_z
Si Si1 0.861733 0.167857 0.165344
Si Si2 0.576293 0.629892 0.670939
Si Si3 0.508849 0.842550 0.830901
Si Si4 0.604872 0.175490 0.452784
Si Si5 0.224571 0.250000 0.125000
Si Si6 0.000000 0.000000 0.000000
Si Si7 0.000000 0.000000 0.731664
O O1 0.829327 0.250000 0.125000
O O2 0.823616 0.078036 0.133737
O O3 0.843949 0.176161 0.234397
O O4 0.972837 0.163736 0.163007
O O5 0.605944 0.575288 0.612540
O O6 0.654342 0.707129 0.673421
O O7 0.566394 0.558888 0.724975
O O8 0.474987 0.752279 0.798228
O O9 0.546973 0.919041 0.786959
O O10 0.673234 0.210522 0.402883
O O11 0.558504 0.075784 0.447102
#
# Coordination Sequence:
#
# PCOD9560705 Si02
#       7
#    16  16  16  16   8   4   8
#     4  11  19  32  51  83 122 146 185 226 289 359
#     4  10  17  33  54  78 113 149 178 227 297 357
#     4  11  20  31  49  82 114 157 185 224 288 361
#     4  10  23  36  59  80 113 156 203 240 297 361
#     4  10  22  36  60  88 110 148 206 248 298 364
#     4  12  18  28  52  88 132 148 178 224 294 376
#     4  10  19  38  60  75 115 168 191 238 304 354
#
# _framework density 17.254145000000001
#
# number of rings (size 3 to 8) (size 9 to 14) (size 15 to 20)
#    0.000    1.524    6.667    1.143    0.000    4.571 
#    0.000    0.000    6.286    0.000    0.000    0.000 
#    0.000    0.000    0.000    0.000    0.000    0.000 
#
# Total GULP energy -233978.194937 kJ/mol
# GULP energy per Si atom -5570.909403 kJ/mol
# Density = 1.721487 g / cm^3
# Si number density = 17.254145 Si / 1000 Ang^3
#
#
#
# Elastic Constant Matrix: (Units=GPa)
#
#
# Indices 1 2 3 4 5 6 
#
# 1 72.0122 19.2128 16.1671 0.0000 0.0000 0.0000
# 2 19.2128 72.0122 16.1671 0.0000 0.0000 0.0000
# 3 16.1671 16.1671 42.6178 0.0000 0.0000 0.0000
# 4 0.0000 0.0000 0.0000 25.7104 0.0000 0.0000
# 5 0.0000 0.0000 0.0000 0.0000 25.7104 0.0000
# 6 0.0000 0.0000 0.0000 0.0000 0.0000 26.9434
#
#
#
# Elastic Compliance Matrix: (Units=1/GPa)
#
#
# Indices 1 2 3 4 5 6 
#
# 1 0.015802 -0.003137 -0.004804 0.000000 0.000000 0.000000
# 2 -0.003137 0.015802 -0.004804 0.000000 0.000000 0.000000
# 3 -0.004804 -0.004804 0.027110 0.000000 0.000000 0.000000
# 4 0.000000 0.000000 0.000000 0.038895 0.000000 0.000000
# 5 0.000000 0.000000 0.000000 0.000000 0.038895 0.000000
# 6 0.000000 0.000000 0.000000 0.000000 0.000000 0.037115
#
#
# Mechanical properties :
#
#
# Convention : Reuss Voigt Hill
#
# Bulk Modulus (GPa) = 30.10101 32.19292 31.14696
# Shear Modulus (GPa) = 23.78861 24.67918 24.23390
#
# Velocity S-wave (km/s) = 3.71714 3.78608 3.75177
# Velocity P-wave (km/s) = 5.99219 6.14907 6.07114
#
# Compressibility (1/GPa) = 0.03322148
#
# Stress axis : x y z
#
# Youngs Moduli (GPa) = 63.28235 63.28235 36.88741
#
# Poissons Ratio (x) = 0.19854 0.17722
# Poissons Ratio (y) = 0.19854 0.17722
# Poissons Ratio (z) = 0.30403 0.30403
#
# Static dielectric constant tensor:
#      x y z
#    x 1.625090 0.000000 0.000000 
#    y 0.000000 1.625090 0.000000 
#    z 0.000000 0.000000 1.602690 
# 
# From -- ./inp_files/7225.got.cif
#   From: 2010.05.17/outbox.cif.g08.bks.cpg/sg122_4_cif.got.tgz:7225.got - 2010.05.20 11:37:33.
