data_PCOD9560835
_publ_section_title
;
Structure prediction by ZEFSAII (Michael W. Deem and Ramdas Pophale) SiO2 
 PCOD9560835
Probable space group: I -4 2 D
;
_chemical_formula_sum "Si O2"
_cell_formula_units_Z 72
_cell_length_a 16.442974
_cell_length_b 16.442974
_cell_length_c 15.260527
_cell_angle_alpha 90.000000
_cell_angle_beta 90.000000
_cell_angle_gamma 90.000000
_cell_volume 4126.009958
_symmetry_space_group_name_H-M "I -4 2 D"
_symmetry_group_IT_number 122
_symmetry_cell_setting 'tetragonal'
loop_
_space_group_symop_operation_xyz
x,y,z
y,-x,-z
-x,-y,z
-y,x,-z
x,1/2-y,1/4-z
-x,1/2+y,1/4-z
-y,1/2-x,1/4+z
y,1/2+x,1/4+z
1/2+x,1/2+y,1/2+z
1/2+y,1/2-x,1/2-z
1/2-x,1/2-y,1/2+z
1/2-y,1/2+x,1/2-z
1/2+x,-y,3/4-z
1/2-x,y,3/4-z
1/2-y,-x,3/4+z
1/2+y,x,3/4+z
loop_
_atom_site_type_symbol
_atom_site_label
_atom_site_fract_x
_atom_site_fract_y
_atom_site_fract_z
Si Si1 0.250000 0.235257 0.875000
Si Si2 0.850710 0.883320 0.311470
Si Si3 0.293564 0.478329 0.986683
Si Si4 0.976144 0.092956 0.346893
Si Si5 0.352835 0.202751 0.041348
O O1 0.181729 0.294885 0.914946
O O2 0.206559 0.194053 0.791918
O O3 0.786960 0.924156 0.244676
O O4 0.833661 0.938569 0.399508
O O5 0.945464 0.879583 0.289905
O O6 0.357918 0.476992 0.063124
O O7 0.262349 0.570228 0.976192
O O8 0.886502 0.109898 0.309876
O O9 0.000000 0.000000 0.362466
O O10 0.313068 0.250000 0.125000
#
# Coordination Sequence:
#
# PCOD9560835 Si02
#       5
#     8  16  16  16  16
#     4  10  22  38  60  80 126 162 198 242 306 362
#     4  10  20  34  52  85 119 156 189 248 302 371
#     4  10  20  33  51  88 124 147 189 237 314 370
#     4  12  23  32  59  87 121 156 197 243 307 368
#     4  12  21  38  57  89 124 159 195 248 303 366
#
# _framework density 17.450272999999999
#
# number of rings (size 3 to 8) (size 9 to 14) (size 15 to 20)
#    0.000    1.333    6.667    2.667    3.111    0.000 
#    0.000    0.000    7.333    0.000    0.000    0.000 
#    0.000    0.000    0.000    0.000    0.000    0.000 
#
# Total GULP energy -200598.839862 kJ/mol
# GULP energy per Si atom -5572.189996 kJ/mol
# Density = 1.741056 g / cm^3
# Si number density = 17.450273 Si / 1000 Ang^3
#
#
#
# Elastic Constant Matrix: (Units=GPa)
#
#
# Indices 1 2 3 4 5 6 
#
# 1 106.6540 49.5016 46.7319 0.0000 0.0000 0.0000
# 2 49.5016 106.6540 46.7319 0.0000 0.0000 0.0000
# 3 46.7319 46.7319 70.1687 0.0000 0.0000 0.0000
# 4 0.0000 0.0000 0.0000 21.5787 0.0000 0.0000
# 5 0.0000 0.0000 0.0000 0.0000 21.5787 0.0000
# 6 0.0000 0.0000 0.0000 0.0000 0.0000 18.1866
#
#
#
# Elastic Compliance Matrix: (Units=1/GPa)
#
#
# Indices 1 2 3 4 5 6 
#
# 1 0.014073 -0.003424 -0.007092 0.000000 0.000000 0.000000
# 2 -0.003424 0.014073 -0.007092 0.000000 0.000000 0.000000
# 3 -0.007092 -0.007092 0.023698 0.000000 0.000000 0.000000
# 4 0.000000 0.000000 0.000000 0.046342 0.000000 0.000000
# 5 0.000000 0.000000 0.000000 0.000000 0.046342 0.000000
# 6 0.000000 0.000000 0.000000 0.000000 0.000000 0.054986
#
#
# Mechanical properties :
#
#
# Convention : Reuss Voigt Hill
#
# Bulk Modulus (GPa) = 60.14213 63.26751 61.70482
# Shear Modulus (GPa) = 20.80980 21.63621 21.22300
#
# Velocity S-wave (km/s) = 3.45703 3.52501 3.49119
# Velocity P-wave (km/s) = 7.10454 7.27339 7.18946
#
# Compressibility (1/GPa) = 0.01662728
#
# Stress axis : x y z
#
# Youngs Moduli (GPa) = 71.05892 71.05892 42.19828
#
# Poissons Ratio (x) = 0.24332 0.29927
# Poissons Ratio (y) = 0.24332 0.29927
# Poissons Ratio (z) = 0.50394 0.50394
#
# Static dielectric constant tensor:
#      x y z
#    x 1.648310 0.000000 0.000000 
#    y 0.000000 1.648310 0.000000 
#    z 0.000000 0.000000 1.611490 
# 
# From -- ./inp_files/4164.got.cif
#   From: 2010.05.17/outbox.cif.g08.bks.cpg/sg122_3_cif.got.tgz:4164.got - 2010.05.20 11:37:33.
