data_PCOD9560665
_publ_section_title
;
Structure prediction by ZEFSAII (Michael W. Deem and Ramdas Pophale) SiO2 
 PCOD9560665
Probable space group: I -4 2 M
;
_chemical_formula_sum "Si O2"
_cell_formula_units_Z 80
_cell_length_a 17.070660
_cell_length_b 17.070660
_cell_length_c 13.806218
_cell_angle_alpha 90.000000
_cell_angle_beta 90.000000
_cell_angle_gamma 90.000000
_cell_volume 4023.234545
_symmetry_space_group_name_H-M "I -4 2 M"
_symmetry_group_IT_number 121
_symmetry_cell_setting 'tetragonal'
loop_
_space_group_symop_operation_xyz
x,y,z
y,-x,-z
-x,-y,z
-y,x,-z
x,-y,-z
-x,y,-z
-y,-x,z
y,x,z
1/2+x,1/2+y,1/2+z
1/2+y,1/2-x,1/2-z
1/2-x,1/2-y,1/2+z
1/2-y,1/2+x,1/2-z
1/2+x,1/2-y,1/2-z
1/2-x,1/2+y,1/2-z
1/2-y,1/2-x,1/2+z
1/2+y,1/2+x,1/2+z
loop_
_atom_site_type_symbol
_atom_site_label
_atom_site_fract_x
_atom_site_fract_y
_atom_site_fract_z
Si Si1 0.374212 0.505957 0.383958
Si Si2 0.256354 0.391401 0.347686
Si Si3 0.205438 0.339439 0.547867
Si Si4 0.276578 0.141936 0.259049
Si Si5 0.720244 0.586619 0.961103
O O1 0.361371 0.500000 0.500000
O O2 0.408513 0.591488 0.360591
O O3 0.444212 0.444212 0.365601
O O4 0.301201 0.471503 0.326558
O O5 0.324145 0.324145 0.346736
O O6 0.222385 0.393364 0.456051
O O7 0.187713 0.357510 0.282828
O O8 0.274711 0.274711 0.547980
O O9 0.211306 0.384052 0.648899
O O10 0.128264 0.287920 0.526061
O O11 0.208860 0.208860 0.259671
O O12 0.253237 0.088631 0.350551
O O13 0.644371 0.644371 0.964902
O O14 0.703545 0.500000 0.000000
#
# Coordination Sequence:
#
# PCOD9560665 Si02
#       5
#    16  16  16  16  16
#     4   8  13  21  33  51  80 116 142 161 201 269
#     4   8  13  22  38  57  76 107 152 195 234 272
#     4   8  14  26  44  63  84 115 159 210 249 272
#     4   8  14  26  44  63  84 115 159 210 249 272
#     4   9  17  29  47  72 101 132 163 198 247 305
#
# _framework density 19.884499000000002
#
# number of rings (size 3 to 8) (size 9 to 14) (size 15 to 20)
#    0.000    3.800    0.000    3.000    0.000    0.200 
#    0.000    2.000    0.000    7.200    0.000   14.000 
#    0.000   28.000    0.000    0.000    0.000    0.000 
#
# Total GULP energy -222740.318964 kJ/mol
# GULP energy per Si atom -5568.507974 kJ/mol
# Density = 1.983924 g / cm^3
# Si number density = 19.884499 Si / 1000 Ang^3
#
#
#
# Elastic Constant Matrix: (Units=GPa)
#
#
# Indices 1 2 3 4 5 6 
#
# 1 45.6503 25.6825 -12.3421 0.0000 0.0000 0.0000
# 2 25.6825 45.6498 -12.3419 0.0000 0.0000 0.0000
# 3 -12.3421 -12.3419 39.5822 0.0000 0.0000 0.0000
# 4 0.0000 0.0000 0.0000 8.9518 0.0000 0.0000
# 5 0.0000 0.0000 0.0000 0.0000 8.9518 0.0000
# 6 0.0000 0.0000 0.0000 0.0000 0.0000 30.3395
#
#
#
# Elastic Compliance Matrix: (Units=1/GPa)
#
#
# Indices 1 2 3 4 5 6 
#
# 1 0.032898 -0.017184 0.004900 0.000000 0.000000 0.000000
# 2 -0.017184 0.032898 0.004900 0.000000 0.000000 0.000000
# 3 0.004900 0.004900 0.028320 0.000000 0.000000 0.000000
# 4 0.000000 0.000000 0.000000 0.111710 0.000000 0.000000
# 5 0.000000 0.000000 0.000000 0.000000 0.111709 0.000000
# 6 0.000000 0.000000 0.000000 0.000000 0.000000 0.032960
#
#
# Mechanical properties :
#
#
# Convention : Reuss Voigt Hill
#
# Bulk Modulus (GPa) = 12.60277 14.76438 13.68358
# Shear Modulus (GPa) = 12.76451 18.30754 15.53602
#
# Velocity S-wave (km/s) = 2.53639 3.03759 2.79823
# Velocity P-wave (km/s) = 3.86386 4.44339 4.16372
#
# Compressibility (1/GPa) = 0.07934764
#
# Stress axis : x y z
#
# Youngs Moduli (GPa) = 30.39722 30.39692 35.31135
#
# Poissons Ratio (x) = 0.52233 -0.17302
# Poissons Ratio (y) = 0.52233 -0.17302
# Poissons Ratio (z) = -0.14894 -0.14894
#
# Static dielectric constant tensor:
#      x y z
#    x 1.730290 0.000000 0.000000 
#    y 0.000000 1.730300 0.000000 
#    z 0.000000 0.000000 1.735540 
# 
# From -- ./inp_files/4270.got.cif
#   From: 2010.05.17/outbox.cif.g08.bks.cpg/sg121_3_cif.got.tgz:4270.got - 2010.05.20 11:32:06.
