data_PCOD9560606
_publ_section_title
;
Structure prediction by ZEFSAII (Michael W. Deem and Ramdas Pophale) SiO2 
 PCOD9560606
Probable space group: I -4 2 M
;
_chemical_formula_sum "Si O2"
_cell_formula_units_Z 64
_cell_length_a 11.589087
_cell_length_b 11.589087
_cell_length_c 21.451689
_cell_angle_alpha 90.000000
_cell_angle_beta 90.000000
_cell_angle_gamma 90.000000
_cell_volume 2881.110654
_symmetry_space_group_name_H-M "I -4 2 M"
_symmetry_group_IT_number 121
_symmetry_cell_setting 'tetragonal'
loop_
_space_group_symop_operation_xyz
x,y,z
y,-x,-z
-x,-y,z
-y,x,-z
x,-y,-z
-x,y,-z
-y,-x,z
y,x,z
1/2+x,1/2+y,1/2+z
1/2+y,1/2-x,1/2-z
1/2-x,1/2-y,1/2+z
1/2-y,1/2+x,1/2-z
1/2+x,1/2-y,1/2-z
1/2-x,1/2+y,1/2-z
1/2-y,1/2-x,1/2+z
1/2+y,1/2+x,1/2+z
loop_
_atom_site_type_symbol
_atom_site_label
_atom_site_fract_x
_atom_site_fract_y
_atom_site_fract_z
Si Si1 0.191814 0.995673 0.895653
Si Si2 0.928492 0.596970 0.435259
Si Si3 0.190639 0.500323 0.738930
Si Si4 0.990102 0.818414 0.635854
O O1 0.094488 0.094488 0.892420
O O2 0.298044 0.049243 0.936153
O O3 0.249156 0.979310 0.827444
O O4 0.121925 0.878076 0.914789
O O5 0.951387 0.714629 0.400669
O O6 0.000000 0.500000 0.397719
O O7 0.000000 0.609100 0.500000
O O8 0.107578 0.611777 0.740111
O O9 0.283657 0.520984 0.792450
O O10 0.079889 0.920112 0.630544
O O11 0.866701 0.866701 0.612158
#
# Coordination Sequence:
#
# PCOD9560606 Si02
#       4
#    16  16  16  16
#     4  11  24  43  70 105 144 191 248 311 379 446
#     4  11  25  46  70  97 135 187 245 298 365 439
#     4  11  22  37  64 103 149 192 236 292 365 442
#     4  11  24  41  65 102 142 184 237 294 358 436
#
# _framework density 22.213656
#
# number of rings (size 3 to 8) (size 9 to 14) (size 15 to 20)
#    0.000    1.000    2.500    3.750    0.000   10.000 
#    0.000    8.750    0.000    6.000    0.000    0.000 
#    0.000    0.000    0.000    0.000    0.000    0.000 
#
# Total GULP energy -178635.847474 kJ/mol
# GULP energy per Si atom -5582.370234 kJ/mol
# Density = 2.216310 g / cm^3
# Si number density = 22.213656 Si / 1000 Ang^3
#
#
#
# Elastic Constant Matrix: (Units=GPa)
#
#
# Indices 1 2 3 4 5 6 
#
# 1 144.1761 72.5195 42.0321 0.0000 0.0000 0.0000
# 2 72.5195 144.1756 42.0319 0.0000 0.0000 0.0000
# 3 42.0321 42.0319 98.1519 0.0000 0.0000 0.0000
# 4 0.0000 0.0000 0.0000 -109.8774 0.0000 0.0000
# 5 0.0000 0.0000 0.0000 0.0000 -110.0422 0.0000
# 6 0.0000 0.0000 0.0000 0.0000 0.0000 38.3574
#
#
#
# Elastic Compliance Matrix: (Units=1/GPa)
#
#
# Indices 1 2 3 4 5 6 
#
# 1 0.009745 -0.004211 -0.002370 0.000000 0.000000 0.000000
# 2 -0.004211 0.009745 -0.002370 0.000000 0.000000 0.000000
# 3 -0.002370 -0.002370 0.012218 0.000000 0.000000 0.000000
# 4 0.000000 0.000000 0.000000 -0.009101 0.000000 0.000000
# 5 0.000000 0.000000 0.000000 0.000000 -0.009087 0.000000
# 6 0.000000 0.000000 0.000000 0.000000 0.000000 0.026071
#
#
# Mechanical properties :
#
#
# Convention : Reuss Voigt Hill
#
# Bulk Modulus (GPa) = 72.42862 77.74116 75.08489
# Shear Modulus (GPa) = 80.52433 -20.98443 29.76995
#
# Velocity S-wave (km/s) = 6.02732 -3.07687 3.66480
# Velocity P-wave (km/s) = 9.00635 4.73816 7.19599
#
# Compressibility (1/GPa) = 0.01380670
#
# Stress axis : x y z
#
# Youngs Moduli (GPa) = 102.61874 102.61848 81.84614
#
# Poissons Ratio (x) = 0.43209 0.19397
# Poissons Ratio (y) = 0.43209 0.19397
# Poissons Ratio (z) = 0.24320 0.24320
#
# Static dielectric constant tensor:
#      x y z
#    x 1.952580 0.000000 0.000000 
#    y 0.000000 1.952760 0.000000 
#    z 0.000000 0.000000 1.872980 
# 
# From -- ./inp_files/6918.got.cif
#   From: 2010.05.17/outbox.cif.g08.bks.cpg/sg121_4_cif.got.tgz:6918.got - 2010.05.20 11:32:06.
