data_PCOD9560462
_publ_section_title
;
Structure prediction by ZEFSAII (Michael W. Deem and Ramdas Pophale) SiO2 
 PCOD9560462
Probable space group: I -4 2 M
;
_chemical_formula_sum "Si O2"
_cell_formula_units_Z 56
_cell_length_a 10.013750
_cell_length_b 10.013750
_cell_length_c 25.075400
_cell_angle_alpha 90.000000
_cell_angle_beta 90.000000
_cell_angle_gamma 90.000000
_cell_volume 2514.440476
_symmetry_space_group_name_H-M "I -4 2 M"
_symmetry_group_IT_number 121
_symmetry_cell_setting 'tetragonal'
loop_
_space_group_symop_operation_xyz
x,y,z
y,-x,-z
-x,-y,z
-y,x,-z
x,-y,-z
-x,y,-z
-y,-x,z
y,x,z
1/2+x,1/2+y,1/2+z
1/2+y,1/2-x,1/2-z
1/2-x,1/2-y,1/2+z
1/2-y,1/2+x,1/2-z
1/2+x,1/2-y,1/2-z
1/2-x,1/2+y,1/2-z
1/2-y,1/2-x,1/2+z
1/2+y,1/2+x,1/2+z
loop_
_atom_site_type_symbol
_atom_site_label
_atom_site_fract_x
_atom_site_fract_y
_atom_site_fract_z
Si Si1 0.090996 0.688195 0.051732
Si Si2 0.500000 0.287304 0.000000
Si Si3 0.506821 0.279872 0.779457
Si Si4 0.180149 0.410610 0.332471
O O1 0.175835 0.824166 0.048506
O O2 0.023729 0.679116 0.109446
O O3 0.196370 0.567400 0.044890
O O4 0.000000 0.680219 0.000000
O O5 0.383508 0.383508 0.021457
O O6 0.648970 0.351031 0.789570
O O7 0.395862 0.395862 0.782852
O O8 0.506469 0.223378 0.719178
O O9 0.458310 0.163118 0.818302
O O10 0.292755 0.292755 0.336521
#
# Coordination Sequence:
#
# PCOD9560462 Si02
#       4
#    16   8  16  16
#     4  10  21  38  59  86 121 156 194 241 294 356
#     4   9  19  38  60  80 109 153 200 244 290 337
#     4   9  18  35  57  82 115 151 189 238 290 339
#     4   9  19  36  57  83 113 148 192 235 284 345
#
# _framework density 22.271353999999999
#
# number of rings (size 3 to 8) (size 9 to 14) (size 15 to 20)
#    0.000    2.714    0.000    0.429    0.000    3.143 
#   10.286    8.571    0.000    0.000    0.000    0.000 
#    0.000    0.000    0.000    0.000    0.000    0.000 
#
# Total GULP energy -156352.160219 kJ/mol
# GULP energy per Si atom -5584.005722 kJ/mol
# Density = 2.222066 g / cm^3
# Si number density = 22.271354 Si / 1000 Ang^3
#
#
#
# Elastic Constant Matrix: (Units=GPa)
#
#
# Indices 1 2 3 4 5 6 
#
# 1 45.2716 4.8066 24.2732 0.0000 0.0000 0.0000
# 2 4.8066 45.2727 24.2734 0.0000 0.0000 0.0000
# 3 24.2732 24.2734 146.2219 0.0000 0.0000 0.0000
# 4 0.0000 0.0000 0.0000 21.3900 0.0000 0.0000
# 5 0.0000 0.0000 0.0000 0.0000 21.3909 0.0000
# 6 0.0000 0.0000 0.0000 0.0000 0.0000 18.7986
#
#
#
# Elastic Compliance Matrix: (Units=1/GPa)
#
#
# Indices 1 2 3 4 5 6 
#
# 1 0.024256 -0.000457 -0.003951 0.000000 0.000000 0.000000
# 2 -0.000457 0.024255 -0.003951 0.000000 0.000000 0.000000
# 3 -0.003951 -0.003951 0.008151 0.000000 0.000000 0.000000
# 4 0.000000 0.000000 0.000000 0.046751 0.000000 0.000000
# 5 0.000000 0.000000 0.000000 0.000000 0.046749 0.000000
# 6 0.000000 0.000000 0.000000 0.000000 0.000000 0.053196
#
#
# Mechanical properties :
#
#
# Convention : Reuss Voigt Hill
#
# Bulk Modulus (GPa) = 25.03461 38.16365 31.59913
# Shear Modulus (GPa) = 21.42357 24.54342 22.98350
#
# Velocity S-wave (km/s) = 3.10487 3.32327 3.21592
# Velocity P-wave (km/s) = 4.91108 5.64787 5.29231
#
# Compressibility (1/GPa) = 0.03994470
#
# Stress axis : x y z
#
# Youngs Moduli (GPa) = 41.22750 41.22860 122.69120
#
# Poissons Ratio (x) = 0.01884 0.48471
# Poissons Ratio (y) = 0.01884 0.48470
# Poissons Ratio (z) = 0.16287 0.16288
#
# Static dielectric constant tensor:
#      x y z
#    x 1.870550 0.000000 0.000000 
#    y 0.000000 1.870550 0.000000 
#    z 0.000000 0.000000 1.794900 
# 
# From -- ./inp_files/5914.got.cif
#   From: 2010.05.17/outbox.cif.g08.bks.cpg/sg121_3_cif.got.tgz:5914.got - 2010.05.20 11:32:06.
