data_PCOD9560728
_publ_section_title
;
Structure prediction by ZEFSAII (Michael W. Deem and Ramdas Pophale) SiO2 
 PCOD9560728
Probable space group: I -4 2 D
;
_chemical_formula_sum "Si O2"
_cell_formula_units_Z 80
_cell_length_a 11.262533
_cell_length_b 11.262533
_cell_length_c 26.719117
_cell_angle_alpha 90.000000
_cell_angle_beta 90.000000
_cell_angle_gamma 90.000000
_cell_volume 3389.177033
_symmetry_space_group_name_H-M "I -4 2 D"
_symmetry_group_IT_number 122
_symmetry_cell_setting 'tetragonal'
loop_
_space_group_symop_operation_xyz
x,y,z
y,-x,-z
-x,-y,z
-y,x,-z
x,1/2-y,1/4-z
-x,1/2+y,1/4-z
-y,1/2-x,1/4+z
y,1/2+x,1/4+z
1/2+x,1/2+y,1/2+z
1/2+y,1/2-x,1/2-z
1/2-x,1/2-y,1/2+z
1/2-y,1/2+x,1/2-z
1/2+x,-y,3/4-z
1/2-x,y,3/4-z
1/2-y,-x,3/4+z
1/2+y,x,3/4+z
loop_
_atom_site_type_symbol
_atom_site_label
_atom_site_fract_x
_atom_site_fract_y
_atom_site_fract_z
Si Si1 0.495749 0.806932 0.908575
Si Si2 0.387804 0.762254 0.807437
Si Si3 0.910892 0.678666 0.012368
Si Si4 0.096231 0.174926 0.562886
Si Si5 0.820281 0.664789 0.800118
O O1 0.467010 0.822244 0.850454
O O2 0.426334 0.894074 0.946803
O O3 0.429758 0.681637 0.919867
O O4 0.632536 0.778209 0.919641
O O5 0.464566 0.704508 0.763255
O O6 0.297334 0.862258 0.788617
O O7 0.300735 0.656719 0.826444
O O8 0.815761 0.659598 0.967671
O O9 0.106462 0.171850 0.502137
O O10 0.960411 0.158994 0.576999
#
# Coordination Sequence:
#
# PCOD9560728 Si02
#       5
#    16  16  16  16  16
#     4  10  20  38  63  93 127 166 212 261 327 402
#     4  10  23  42  64  91 124 172 226 270 315 383
#     4  10  22  41  67  85 132 168 218 273 323 374
#     4  10  18  35  60  89 128 166 203 250 323 388
#     4  10  18  34  59  90 125 167 198 250 331 388
#
# _framework density 23.60455
#
# number of rings (size 3 to 8) (size 9 to 14) (size 15 to 20)
#    0.000    2.400    4.000    3.000    0.000    2.000 
#   10.800    0.000   26.400    0.000    0.000    0.000 
#    0.000    0.000    0.000    0.000    0.000    0.000 
#
# Total GULP energy -223418.334220 kJ/mol
# GULP energy per Si atom -5585.458355 kJ/mol
# Density = 2.355082 g / cm^3
# Si number density = 23.604550 Si / 1000 Ang^3
#
#
#
# Elastic Constant Matrix: (Units=GPa)
#
#
# Indices 1 2 3 4 5 6 
#
# 1 55.9293 45.8315 26.3328 0.0000 0.0000 0.0000
# 2 45.8315 55.9293 26.3328 0.0000 0.0000 0.0000
# 3 26.3328 26.3328 62.5538 0.0000 0.0000 0.0000
# 4 0.0000 0.0000 0.0000 11.2800 0.0000 0.0000
# 5 0.0000 0.0000 0.0000 0.0000 11.2800 0.0000
# 6 0.0000 0.0000 0.0000 0.0000 0.0000 24.9406
#
#
#
# Elastic Compliance Matrix: (Units=1/GPa)
#
#
# Indices 1 2 3 4 5 6 
#
# 1 0.055798 -0.043234 -0.005289 0.000000 0.000000 0.000000
# 2 -0.043234 0.055798 -0.005289 0.000000 0.000000 0.000000
# 3 -0.005289 -0.005289 0.020439 0.000000 0.000000 0.000000
# 4 0.000000 0.000000 0.000000 0.088653 0.000000 0.000000
# 5 0.000000 0.000000 0.000000 0.000000 0.088653 0.000000
# 6 0.000000 0.000000 0.000000 0.000000 0.000000 0.040095
#
#
# Mechanical properties :
#
#
# Convention : Reuss Voigt Hill
#
# Bulk Modulus (GPa) = 40.96436 41.26741 41.11588
# Shear Modulus (GPa) = 10.74814 14.56113 12.65464
#
# Velocity S-wave (km/s) = 2.13619 2.48640 2.31792
# Velocity P-wave (km/s) = 4.84526 5.07579 4.96186
#
# Compressibility (1/GPa) = 0.02441147
#
# Stress axis : x y z
#
# Youngs Moduli (GPa) = 17.92180 17.92180 48.92549
#
# Poissons Ratio (x) = 0.77483 0.25877
# Poissons Ratio (y) = 0.77483 0.25877
# Poissons Ratio (z) = 0.09479 0.09479
#
# Static dielectric constant tensor:
#      x y z
#    x 1.918430 0.000000 0.000000 
#    y 0.000000 1.918430 0.000000 
#    z 0.000000 0.000000 1.997240 
# 
# From -- ./inp_files/9356.got.cif
#   From: 2010.05.17/outbox.cif.g08.bks.cpg/sg122_5_cif.got.tgz:9356.got - 2010.05.20 11:37:33.
