data_PCOD9560943
_publ_section_title
;
Structure prediction by ZEFSAII (Michael W. Deem and Ramdas Pophale) SiO2 
 PCOD9560943
Probable space group: I -4 2 D
;
_chemical_formula_sum "Si O2"
_cell_formula_units_Z 112
_cell_length_a 29.236489
_cell_length_b 29.236489
_cell_length_c 5.999090
_cell_angle_alpha 90.000000
_cell_angle_beta 90.000000
_cell_angle_gamma 90.000000
_cell_volume 5127.855891
_symmetry_space_group_name_H-M "I -4 2 D"
_symmetry_group_IT_number 122
_symmetry_cell_setting 'tetragonal'
loop_
_space_group_symop_operation_xyz
x,y,z
y,-x,-z
-x,-y,z
-y,x,-z
x,1/2-y,1/4-z
-x,1/2+y,1/4-z
-y,1/2-x,1/4+z
y,1/2+x,1/4+z
1/2+x,1/2+y,1/2+z
1/2+y,1/2-x,1/2-z
1/2-x,1/2-y,1/2+z
1/2-y,1/2+x,1/2-z
1/2+x,-y,3/4-z
1/2-x,y,3/4-z
1/2-y,-x,3/4+z
1/2+y,x,3/4+z
loop_
_atom_site_type_symbol
_atom_site_label
_atom_site_fract_x
_atom_site_fract_y
_atom_site_fract_z
Si Si1 0.859711 0.051560 0.152595
Si Si2 0.772030 0.099606 0.627729
Si Si3 0.071443 0.886690 0.398713
Si Si4 0.128471 0.367755 0.027977
Si Si5 0.994869 0.767462 0.847432
Si Si6 0.587084 0.199524 0.674228
Si Si7 0.006530 0.572152 0.183652
O O1 0.889991 0.075930 0.335935
O O2 0.808923 0.038947 0.210736
O O3 0.860923 0.087364 0.951189
O O4 0.883996 0.005558 0.075641
O O5 0.750000 0.109161 0.375000
O O6 0.821956 0.123653 0.630076
O O7 0.771014 0.043443 0.659980
O O8 0.750000 0.114302 0.875000
O O9 0.084177 0.877614 0.650322
O O10 0.025758 0.910415 0.302692
O O11 0.079680 0.838842 0.268256
O O12 0.175060 0.377448 0.159315
O O13 0.018997 0.750000 0.625000
O O14 0.035493 0.788114 0.993518
O O15 0.606001 0.250000 0.625000
O O16 0.960159 0.542812 0.191327
#
# Coordination Sequence:
#
# PCOD9560943 Si02
#       7
#    16  16  16  16  16  16  16
#     4  10  20  41  63  97 136 182 229 303 360 432
#     4  11  23  43  74 112 145 190 244 321 382 450
#     4  10  21  41  65  92 135 187 235 292 366 440
#     4  11  25  43  67 104 140 185 244 300 387 453
#     4  11  22  39  69 107 141 177 238 301 377 439
#     4  11  26  43  66 100 143 187 227 297 378 455
#     4   9  18  36  62  86 132 193 241 292 348 420
#
# _framework density 21.841487000000001
#
# number of rings (size 3 to 8) (size 9 to 14) (size 15 to 20)
#    0.000    1.571    2.857    2.143    4.000    0.000 
#    5.143    0.000    0.000    3.429    3.714    0.000 
#    0.000    0.000    0.000    0.000    0.000    0.000 
#
# Total GULP energy -311819.563913 kJ/mol
# GULP energy per Si atom -5568.206498 kJ/mol
# Density = 2.179178 g / cm^3
# Si number density = 21.841487 Si / 1000 Ang^3
#
#
#
# Elastic Constant Matrix: (Units=GPa)
#
#
# Indices 1 2 3 4 5 6 
#
# 1 115.1841 48.1721 36.9905 0.0000 0.0000 0.0000
# 2 48.1721 115.1841 36.9905 0.0000 0.0000 0.0000
# 3 36.9905 36.9905 70.8478 0.0000 0.0000 0.0000
# 4 0.0000 0.0000 0.0000 22.6917 0.0000 0.0000
# 5 0.0000 0.0000 0.0000 0.0000 22.6917 0.0000
# 6 0.0000 0.0000 0.0000 0.0000 0.0000 25.0853
#
#
#
# Elastic Compliance Matrix: (Units=1/GPa)
#
#
# Indices 1 2 3 4 5 6 
#
# 1 0.011470 -0.003453 -0.004186 0.000000 0.000000 0.000000
# 2 -0.003453 0.011470 -0.004186 0.000000 0.000000 0.000000
# 3 -0.004186 -0.004186 0.018486 0.000000 0.000000 0.000000
# 4 0.000000 0.000000 0.000000 0.044069 0.000000 0.000000
# 5 0.000000 0.000000 0.000000 0.000000 0.044069 0.000000
# 6 0.000000 0.000000 0.000000 0.000000 0.000000 0.039864
#
#
# Mechanical properties :
#
#
# Convention : Reuss Voigt Hill
#
# Bulk Modulus (GPa) = 56.25338 60.61358 58.43348
# Shear Modulus (GPa) = 25.12531 26.03126 25.57828
#
# Velocity S-wave (km/s) = 3.39536 3.45603 3.42583
# Velocity P-wave (km/s) = 6.41736 6.61342 6.51613
#
# Compressibility (1/GPa) = 0.01777671
#
# Stress axis : x y z
#
# Youngs Moduli (GPa) = 87.18382 87.18382 54.09546
#
# Poissons Ratio (x) = 0.30102 0.22644
# Poissons Ratio (y) = 0.30102 0.22644
# Poissons Ratio (z) = 0.36495 0.36495
#
# Static dielectric constant tensor:
#      x y z
#    x 1.824340 0.000000 0.000000 
#    y 0.000000 1.824340 0.000000 
#    z 0.000000 0.000000 2.005250 
# 
# From -- ./inp_files/1539.got.cif
#   From: 2010.05.17/outbox.cif.g08.bks.cpg/sg122_1_cif.got.tgz:1539.got - 2010.05.20 11:37:33.
