data_PCOD9560642
_publ_section_title
;
Structure prediction by ZEFSAII (Michael W. Deem and Ramdas Pophale) SiO2 
 PCOD9560642
Probable space group: I -4 2 M
;
_chemical_formula_sum "Si O2"
_cell_formula_units_Z 48
_cell_length_a 15.146821
_cell_length_b 15.146821
_cell_length_c 7.604110
_cell_angle_alpha 90.000000
_cell_angle_beta 90.000000
_cell_angle_gamma 90.000000
_cell_volume 1744.581958
_symmetry_space_group_name_H-M "I -4 2 M"
_symmetry_group_IT_number 121
_symmetry_cell_setting 'tetragonal'
loop_
_space_group_symop_operation_xyz
x,y,z
y,-x,-z
-x,-y,z
-y,x,-z
x,-y,-z
-x,y,-z
-y,-x,z
y,x,z
1/2+x,1/2+y,1/2+z
1/2+y,1/2-x,1/2-z
1/2-x,1/2-y,1/2+z
1/2-y,1/2+x,1/2-z
1/2+x,1/2-y,1/2-z
1/2-x,1/2+y,1/2-z
1/2-y,1/2-x,1/2+z
1/2+y,1/2+x,1/2+z
loop_
_atom_site_type_symbol
_atom_site_label
_atom_site_fract_x
_atom_site_fract_y
_atom_site_fract_z
Si Si1 0.590724 0.590724 0.905579
Si Si2 0.608604 0.176900 0.324280
Si Si3 0.131016 0.131016 0.029097
Si Si4 0.132984 0.500000 0.000000
Si Si5 0.316034 0.683967 0.818594
O O1 0.661345 0.661345 0.979410
O O2 0.616442 0.500000 0.000000
O O3 0.584017 0.584017 0.694685
O O4 0.606228 0.266908 0.432877
O O5 0.545636 0.186401 0.157380
O O6 0.584034 0.084446 0.416201
O O7 0.712843 0.167043 0.284454
O O8 0.126464 0.126464 0.818786
#
# Coordination Sequence:
#
# PCOD9560642 Si02
#       5
#     8  16   8   8   8
#     4  11  28  50  82 120 148 184 252 327 386 468
#     4  11  26  45  76 108 152 199 264 307 382 446
#     4  11  24  49  76 115 147 201 248 318 378 487
#     4  12  26  49  70 106 157 206 248 328 367 442
#     4  11  24  49  76 115 147 201 248 318 378 487
#
# _framework density 27.513753999999999
#
# number of rings (size 3 to 8) (size 9 to 14) (size 15 to 20)
#    0.000    0.833    3.333    2.000   14.000    4.667 
#    0.000    1.667    0.000    0.000    0.000    0.000 
#    0.000    0.000    0.000    0.000    0.000    0.000 
#
# Total GULP energy -134383.635048 kJ/mol
# GULP energy per Si atom -5599.318127 kJ/mol
# Density = 2.745113 g / cm^3
# Si number density = 27.513754 Si / 1000 Ang^3
#
#
#
# Elastic Constant Matrix: (Units=GPa)
#
#
# Indices 1 2 3 4 5 6 
#
# 1 172.6559 23.3490 33.7682 0.0000 0.0000 0.0000
# 2 23.3490 172.6580 33.7687 0.0000 0.0000 0.0000
# 3 33.7682 33.7687 97.0236 0.0000 0.0000 0.0000
# 4 0.0000 0.0000 0.0000 41.0474 0.0000 0.0000
# 5 0.0000 0.0000 0.0000 0.0000 41.0473 0.0000
# 6 0.0000 0.0000 0.0000 0.0000 0.0000 5.3195
#
#
#
# Elastic Compliance Matrix: (Units=1/GPa)
#
#
# Indices 1 2 3 4 5 6 
#
# 1 0.006247 -0.000450 -0.002018 0.000000 0.000000 0.000000
# 2 -0.000450 0.006247 -0.002018 0.000000 0.000000 0.000000
# 3 -0.002018 -0.002018 0.011711 0.000000 0.000000 0.000000
# 4 0.000000 0.000000 0.000000 0.024362 0.000000 0.000000
# 5 0.000000 0.000000 0.000000 0.000000 0.024362 0.000000
# 6 0.000000 0.000000 0.000000 0.000000 0.000000 0.187987
#
#
# Mechanical properties :
#
#
# Convention : Reuss Voigt Hill
#
# Bulk Modulus (GPa) = 65.63897 69.34547 67.49222
# Shear Modulus (GPa) = 18.18401 40.91294 29.54848
#
# Velocity S-wave (km/s) = 2.57360 3.86035 3.28068
# Velocity P-wave (km/s) = 5.72187 6.71776 6.23972
#
# Compressibility (1/GPa) = 0.01523485
#
# Stress axis : x y z
#
# Youngs Moduli (GPa) = 160.06743 160.06923 85.38812
#
# Poissons Ratio (x) = 0.07207 0.17228
# Poissons Ratio (y) = 0.07207 0.17228
# Poissons Ratio (z) = 0.32296 0.32296
#
# Static dielectric constant tensor:
#      x y z
#    x 2.121340 0.000000 0.000000 
#    y 0.000000 2.121330 0.000000 
#    z 0.000000 0.000000 2.121420 
# 
# From -- ./inp_files/1217.got.cif
#   From: 2010.05.17/outbox.cif.g08.bks.cpg/sg121_1_cif.got.tgz:1217.got - 2010.05.20 11:32:06.
