data_PCOD9560940
_publ_section_title
;
Structure prediction by ZEFSAII (Michael W. Deem and Ramdas Pophale) SiO2 
 PCOD9560940
Probable space group: I -4 2 D
;
_chemical_formula_sum "Si O2"
_cell_formula_units_Z 44
_cell_length_a 8.020640
_cell_length_b 8.020640
_cell_length_c 36.499300
_cell_angle_alpha 90.000000
_cell_angle_beta 90.000000
_cell_angle_gamma 90.000000
_cell_volume 2348.024278
_symmetry_space_group_name_H-M "I -4 2 D"
_symmetry_group_IT_number 122
_symmetry_cell_setting 'tetragonal'
loop_
_space_group_symop_operation_xyz
x,y,z
y,-x,-z
-x,-y,z
-y,x,-z
x,1/2-y,1/4-z
-x,1/2+y,1/4-z
-y,1/2-x,1/4+z
y,1/2+x,1/4+z
1/2+x,1/2+y,1/2+z
1/2+y,1/2-x,1/2-z
1/2-x,1/2-y,1/2+z
1/2-y,1/2+x,1/2-z
1/2+x,-y,3/4-z
1/2-x,y,3/4-z
1/2-y,-x,3/4+z
1/2+y,x,3/4+z
loop_
_atom_site_type_symbol
_atom_site_label
_atom_site_fract_x
_atom_site_fract_y
_atom_site_fract_z
Si Si1 0.000000 0.000000 0.500000
Si Si2 0.844867 0.911211 0.101157
Si Si3 0.313840 0.959009 0.447087
Si Si4 0.318580 0.750000 0.125000
O O1 0.028622 0.164885 0.524404
O O2 0.892624 0.750000 0.125000
O O3 0.719105 0.840464 0.071531
O O4 0.770594 0.066943 0.124987
O O5 0.000000 0.000000 0.082280
O O6 0.500000 0.000000 0.461745
O O7 0.266769 0.075218 0.412215
#
# Coordination Sequence:
#
# PCOD9560940 Si02
#       4
#     4  16  16   8
#     4  12  24  48  68  92 132 188 208 280 340 380
#     4  11  20  35  61 101 128 160 206 272 325 379
#     4  10  23  42  65  95 126 170 221 262 332 396
#     4  10  20  40  68  94 128 162 214 272 314 392
#
# _framework density 18.739159999999998
#
# number of rings (size 3 to 8) (size 9 to 14) (size 15 to 20)
#    0.000    1.455    3.636    2.182    2.545    0.000 
#   13.091    0.000    0.000    0.000    0.000    0.000 
#    0.000    0.000    0.000    0.000    0.000    0.000 
#
# Total GULP energy -122496.544808 kJ/mol
# GULP energy per Si atom -5568.024764 kJ/mol
# Density = 1.869651 g / cm^3
# Si number density = 18.739160 Si / 1000 Ang^3
#
#
#
# Elastic Constant Matrix: (Units=GPa)
#
#
# Indices 1 2 3 4 5 6 
#
# 1 119.4556 72.6251 53.4075 0.0000 0.0000 0.0000
# 2 72.6251 119.4556 53.4075 0.0000 0.0000 0.0000
# 3 53.4075 53.4075 59.3079 0.0000 0.0000 0.0000
# 4 0.0000 0.0000 0.0000 10.4840 0.0000 0.0000
# 5 0.0000 0.0000 0.0000 0.0000 10.4840 0.0000
# 6 0.0000 0.0000 0.0000 0.0000 0.0000 27.1042
#
#
#
# Elastic Compliance Matrix: (Units=1/GPa)
#
#
# Indices 1 2 3 4 5 6 
#
# 1 0.015891 -0.005463 -0.009391 0.000000 0.000000 0.000000
# 2 -0.005463 0.015891 -0.009391 0.000000 0.000000 0.000000
# 3 -0.009391 -0.009391 0.033774 0.000000 0.000000 0.000000
# 4 0.000000 0.000000 0.000000 0.095383 0.000000 0.000000
# 5 0.000000 0.000000 0.000000 0.000000 0.095383 0.000000
# 6 0.000000 0.000000 0.000000 0.000000 0.000000 0.036895
#
#
# Mechanical properties :
#
#
# Convention : Reuss Voigt Hill
#
# Bulk Modulus (GPa) = 58.59059 73.01103 65.80081
# Shear Modulus (GPa) = 14.39284 17.53305 15.96294
#
# Velocity S-wave (km/s) = 2.77440 3.06214 2.92181
# Velocity P-wave (km/s) = 6.44960 7.17973 6.82444
#
# Compressibility (1/GPa) = 0.01706759
#
# Stress axis : x y z
#
# Youngs Moduli (GPa) = 62.92880 62.92880 29.60835
#
# Poissons Ratio (x) = 0.34376 0.27805
# Poissons Ratio (y) = 0.34376 0.27805
# Poissons Ratio (z) = 0.59095 0.59095
#
# Static dielectric constant tensor:
#      x y z
#    x 1.631460 0.000000 0.000000 
#    y 0.000000 1.631460 0.000000 
#    z 0.000000 0.000000 1.592480 
# 
# From -- ./inp_files/8426.got.cif
#   From: 2010.05.17/outbox.cif.g08.bks.cpg/sg122_5_cif.got.tgz:8426.got - 2010.05.20 11:37:33.
