data_PCOD9560607
_publ_section_title
;
Structure prediction by ZEFSAII (Michael W. Deem and Ramdas Pophale) SiO2 
 PCOD9560607
Probable space group: I -4 2 M
;
_chemical_formula_sum "Si O2"
_cell_formula_units_Z 48
_cell_length_a 14.414788
_cell_length_b 14.414788
_cell_length_c 10.735812
_cell_angle_alpha 90.000000
_cell_angle_beta 90.000000
_cell_angle_gamma 90.000000
_cell_volume 2230.752646
_symmetry_space_group_name_H-M "I -4 2 M"
_symmetry_group_IT_number 121
_symmetry_cell_setting 'tetragonal'
loop_
_space_group_symop_operation_xyz
x,y,z
y,-x,-z
-x,-y,z
-y,x,-z
x,-y,-z
-x,y,-z
-y,-x,z
y,x,z
1/2+x,1/2+y,1/2+z
1/2+y,1/2-x,1/2-z
1/2-x,1/2-y,1/2+z
1/2-y,1/2+x,1/2-z
1/2+x,1/2-y,1/2-z
1/2-x,1/2+y,1/2-z
1/2-y,1/2-x,1/2+z
1/2+y,1/2+x,1/2+z
loop_
_atom_site_type_symbol
_atom_site_label
_atom_site_fract_x
_atom_site_fract_y
_atom_site_fract_z
Si Si1 0.554400 0.097191 0.886531
Si Si2 0.806443 0.193558 0.072555
Si Si3 0.812431 0.812431 0.222292
Si Si4 0.501625 0.767746 0.331007
O O1 0.549772 0.165328 0.770841
O O2 0.658163 0.062868 0.905614
O O3 0.500000 0.000000 0.871575
O O4 0.500000 0.143834 0.000000
O O5 0.744820 0.255181 0.171320
O O6 0.915113 0.213735 0.102772
O O7 0.787718 0.212283 0.924592
O O8 0.794114 0.922442 0.232510
#
# Coordination Sequence:
#
# PCOD9560607 Si02
#       4
#    16   8   8  16
#     4  11  22  37  70 101 134 173 235 299 353 396
#     4  12  28  45  69 103 145 181 238 284 358 422
#     4  12  28  43  73 101 145 183 232 292 350 424
#     4  12  24  45  65 105 137 184 230 290 349 421
#
# _framework density 21.517402000000001
#
# number of rings (size 3 to 8) (size 9 to 14) (size 15 to 20)
#    0.000    0.333    6.667    1.000   14.000    0.667 
#    0.000    1.667    0.000    0.000    0.000    4.667 
#    0.000    0.000    0.000    0.000    0.000    0.000 
#
# Total GULP energy -133779.927047 kJ/mol
# GULP energy per Si atom -5574.163627 kJ/mol
# Density = 2.146843 g / cm^3
# Si number density = 21.517402 Si / 1000 Ang^3
#
#
#
# Elastic Constant Matrix: (Units=GPa)
#
#
# Indices 1 2 3 4 5 6 
#
# 1 122.2812 56.6538 20.6476 0.0000 0.0000 0.0000
# 2 56.6538 122.2787 20.6475 0.0000 0.0000 0.0000
# 3 20.6476 20.6475 102.3766 0.0000 0.0000 0.0000
# 4 0.0000 0.0000 0.0000 19.2411 0.0000 0.0000
# 5 0.0000 0.0000 0.0000 0.0000 19.2421 0.0000
# 6 0.0000 0.0000 0.0000 0.0000 0.0000 38.3524
#
#
#
# Elastic Compliance Matrix: (Units=1/GPa)
#
#
# Indices 1 2 3 4 5 6 
#
# 1 0.010550 -0.004688 -0.001182 0.000000 0.000000 0.000000
# 2 -0.004688 0.010550 -0.001182 0.000000 0.000000 0.000000
# 3 -0.001182 -0.001182 0.010245 0.000000 0.000000 0.000000
# 4 0.000000 0.000000 0.000000 0.051972 0.000000 0.000000
# 5 0.000000 0.000000 0.000000 0.000000 0.051969 0.000000
# 6 0.000000 0.000000 0.000000 0.000000 0.000000 0.026074
#
#
# Mechanical properties :
#
#
# Convention : Reuss Voigt Hill
#
# Bulk Modulus (GPa) = 58.00788 60.31491 59.16140
# Shear Modulus (GPa) = 27.59218 31.96630 29.77924
#
# Velocity S-wave (km/s) = 3.58483 3.85853 3.72420
# Velocity P-wave (km/s) = 6.64468 6.92406 6.78581
#
# Compressibility (1/GPa) = 0.01723904
#
# Stress axis : x y z
#
# Youngs Moduli (GPa) = 94.79077 94.78883 97.61151
#
# Poissons Ratio (x) = 0.44439 0.11539
# Poissons Ratio (y) = 0.44440 0.11539
# Poissons Ratio (z) = 0.11206 0.11206
#
# Static dielectric constant tensor:
#      x y z
#    x 1.846630 0.000000 0.000000 
#    y 0.000000 1.846640 0.000000 
#    z 0.000000 0.000000 2.056890 
# 
# From -- ./inp_files/2673.got.cif
#   From: 2010.05.17/outbox.cif.g08.bks.cpg/sg121_2_cif.got.tgz:2673.got - 2010.05.20 11:32:06.
