data_PCOD9560784
_publ_section_title
;
Structure prediction by ZEFSAII (Michael W. Deem and Ramdas Pophale) SiO2 
 PCOD9560784
Probable space group: I -4 2 D
;
_chemical_formula_sum "Si O2"
_cell_formula_units_Z 120
_cell_length_a 20.224904
_cell_length_b 20.224904
_cell_length_c 13.387219
_cell_angle_alpha 90.000000
_cell_angle_beta 90.000000
_cell_angle_gamma 90.000000
_cell_volume 5475.998314
_symmetry_space_group_name_H-M "I -4 2 D"
_symmetry_group_IT_number 122
_symmetry_cell_setting 'tetragonal'
loop_
_space_group_symop_operation_xyz
x,y,z
y,-x,-z
-x,-y,z
-y,x,-z
x,1/2-y,1/4-z
-x,1/2+y,1/4-z
-y,1/2-x,1/4+z
y,1/2+x,1/4+z
1/2+x,1/2+y,1/2+z
1/2+y,1/2-x,1/2-z
1/2-x,1/2-y,1/2+z
1/2-y,1/2+x,1/2-z
1/2+x,-y,3/4-z
1/2-x,y,3/4-z
1/2-y,-x,3/4+z
1/2+y,x,3/4+z
loop_
_atom_site_type_symbol
_atom_site_label
_atom_site_fract_x
_atom_site_fract_y
_atom_site_fract_z
Si Si1 0.986816 0.339350 0.815981
Si Si2 0.451064 0.899615 0.982134
Si Si3 0.201139 0.537872 0.151669
Si Si4 0.980426 0.903610 0.048748
Si Si5 0.610548 0.442083 0.894059
Si Si6 0.674053 0.621561 0.894561
Si Si7 0.372183 0.250000 0.125000
Si Si8 0.229753 0.821308 0.176325
O O1 0.936703 0.381310 0.882033
O O2 0.939343 0.323966 0.721265
O O3 0.014614 0.275158 0.871540
O O4 0.039046 0.389282 0.762645
O O5 0.492472 0.847215 0.915840
O O6 0.422742 0.955576 0.908996
O O7 0.500734 0.915532 0.072143
O O8 0.392831 0.863505 0.042021
O O9 0.171956 0.526258 0.262865
O O10 0.195133 0.615830 0.125451
O O11 0.052804 0.932719 0.024927
O O12 0.687767 0.423060 0.882495
O O13 0.750000 0.632472 0.875000
O O14 0.654745 0.693453 0.933233
O O15 0.322661 0.282831 0.206141
O O16 0.220316 0.750000 0.125000
#
# Coordination Sequence:
#
# PCOD9560784 Si02
#       8
#    16  16  16  16  16  16   8  16
#     4  11  20  37  63 104 138 171 215 290 355 425
#     4  10  20  39  71  92 128 182 220 285 344 408
#     4  11  20  41  67  93 133 178 228 282 330 422
#     4   9  21  43  66  92 125 182 244 275 334 408
#     4  11  22  37  69  99 138 172 222 283 368 419
#     4  10  19  35  63 102 132 166 220 270 352 422
#     4  12  20  44  70  96 136 186 224 274 350 430
#     4  11  24  42  63  99 144 176 224 278 342 420
#
# _framework density 21.913812
#
# number of rings (size 3 to 8) (size 9 to 14) (size 15 to 20)
#    0.000    1.467    5.333    0.000    1.867    0.267 
#    9.600   16.000    0.000    3.200    0.000    0.000 
#    0.000    0.000    0.000    0.000    0.000    0.000 
#
# Total GULP energy -334158.332860 kJ/mol
# GULP energy per Si atom -5569.305548 kJ/mol
# Density = 2.186394 g / cm^3
# Si number density = 21.913812 Si / 1000 Ang^3
#
#
#
# Elastic Constant Matrix: (Units=GPa)
#
#
# Indices 1 2 3 4 5 6 
#
# 1 61.5120 13.8966 14.1200 0.0000 0.0000 0.0000
# 2 13.8966 61.5120 14.1200 0.0000 0.0000 0.0000
# 3 14.1200 14.1200 66.7410 0.0000 0.0000 0.0000
# 4 0.0000 0.0000 0.0000 24.9178 0.0000 0.0000
# 5 0.0000 0.0000 0.0000 0.0000 24.9178 0.0000
# 6 0.0000 0.0000 0.0000 0.0000 0.0000 59.3404
#
#
#
# Elastic Compliance Matrix: (Units=1/GPa)
#
#
# Indices 1 2 3 4 5 6 
#
# 1 0.017702 -0.003300 -0.003047 0.000000 0.000000 0.000000
# 2 -0.003300 0.017702 -0.003047 0.000000 0.000000 0.000000
# 3 -0.003047 -0.003047 0.016273 0.000000 0.000000 0.000000
# 4 0.000000 0.000000 0.000000 0.040132 0.000000 0.000000
# 5 0.000000 0.000000 0.000000 0.000000 0.040132 0.000000
# 6 0.000000 0.000000 0.000000 0.000000 0.000000 0.016852
#
#
# Mechanical properties :
#
#
# Convention : Reuss Voigt Hill
#
# Bulk Modulus (GPa) = 30.40535 30.44870 30.42702
# Shear Modulus (GPa) = 28.00455 31.67710 29.84083
#
# Velocity S-wave (km/s) = 3.57871 3.80614 3.69417
# Velocity P-wave (km/s) = 5.56608 5.76546 5.66665
#
# Compressibility (1/GPa) = 0.03288895
#
# Stress axis : x y z
#
# Youngs Moduli (GPa) = 56.49120 56.49120 61.45315
#
# Poissons Ratio (x) = 0.18640 0.18725
# Poissons Ratio (y) = 0.18640 0.18725
# Poissons Ratio (z) = 0.17213 0.17213
#
# Static dielectric constant tensor:
#      x y z
#    x 1.833680 0.000000 0.000000 
#    y 0.000000 1.833680 0.000000 
#    z 0.000000 0.000000 1.840410 
# 
# From -- ./inp_files/5570.got.cif
#   From: 2010.05.17/outbox.cif.g08.bks.cpg/sg122_3_cif.got.tgz:5570.got - 2010.05.20 11:37:33.
