data_PCOD9560552
_publ_section_title
;
Structure prediction by ZEFSAII (Michael W. Deem and Ramdas Pophale) SiO2 
 PCOD9560552
Probable space group: I -4 2 M
;
_chemical_formula_sum "Si O2"
_cell_formula_units_Z 112
_cell_length_a 15.923614
_cell_length_b 15.923614
_cell_length_c 24.073550
_cell_angle_alpha 90.000000
_cell_angle_beta 90.000000
_cell_angle_gamma 90.000000
_cell_volume 6104.125035
_symmetry_space_group_name_H-M "I -4 2 M"
_symmetry_group_IT_number 121
_symmetry_cell_setting 'tetragonal'
loop_
_space_group_symop_operation_xyz
x,y,z
y,-x,-z
-x,-y,z
-y,x,-z
x,-y,-z
-x,y,-z
-y,-x,z
y,x,z
1/2+x,1/2+y,1/2+z
1/2+y,1/2-x,1/2-z
1/2-x,1/2-y,1/2+z
1/2-y,1/2+x,1/2-z
1/2+x,1/2-y,1/2-z
1/2-x,1/2+y,1/2-z
1/2-y,1/2-x,1/2+z
1/2+y,1/2+x,1/2+z
loop_
_atom_site_type_symbol
_atom_site_label
_atom_site_fract_x
_atom_site_fract_y
_atom_site_fract_z
Si Si1 0.138889 0.000177 0.832505
Si Si2 0.626901 0.115283 0.614011
Si Si3 0.231386 0.094008 0.476068
Si Si4 0.116514 0.561041 0.833264
Si Si5 0.315808 0.179812 0.582025
Si Si6 0.319810 0.031652 0.790164
Si Si7 0.251810 0.998680 0.063213
O O1 0.086176 0.913825 0.829537
O O2 0.175763 0.014988 0.894307
O O3 0.223435 0.003874 0.796095
O O4 0.074655 0.074655 0.818088
O O5 0.713899 0.102845 0.580553
O O6 0.616614 0.163635 0.673553
O O7 0.568026 0.173497 0.574966
O O8 0.597663 0.021148 0.629889
O O9 0.144404 0.144404 0.469477
O O10 0.283541 0.140499 0.524738
O O11 0.220362 0.000000 0.500000
O O12 0.183590 0.613083 0.868609
O O13 0.152137 0.536996 0.773133
O O14 0.037177 0.620263 0.819690
O O15 0.257621 0.257621 0.596365
O O16 0.410407 0.210094 0.575243
O O17 0.223722 0.000000 0.000000
#
# Coordination Sequence:
#
# PCOD9560552 Si02
#       7
#    16  16  16  16  16  16  16
#     4  10  23  43  62  83 118 165 213 253 299 365
#     4  11  22  37  59  94 128 157 195 249 312 364
#     4  11  24  42  64  91 125 163 207 259 310 369
#     4  12  22  38  63  93 125 161 203 254 313 377
#     4  11  23  38  61  90 123 159 205 254 303 368
#     4  11  24  37  64  94 125 161 203 259 313 374
#     4  11  22  36  60  93 126 161 195 248 303 374
#
# _framework density 18.348247000000001
#
# number of rings (size 3 to 8) (size 9 to 14) (size 15 to 20)
#    0.000    1.000    7.143    0.857    0.000    4.143 
#    0.000    2.857    0.000    0.000    0.000    0.000 
#    0.000    0.000    0.000    0.000    0.000    0.000 
#
# Total GULP energy -312254.104767 kJ/mol
# GULP energy per Si atom -5575.966157 kJ/mol
# Density = 1.830649 g / cm^3
# Si number density = 18.348247 Si / 1000 Ang^3
#
#
#
# Elastic Constant Matrix: (Units=GPa)
#
#
# Indices 1 2 3 4 5 6 
#
# 1 108.0876 56.0382 18.3545 0.0000 0.0000 0.0000
# 2 56.0382 108.0887 18.3544 0.0000 0.0000 0.0000
# 3 18.3545 18.3544 71.0340 0.0000 0.0000 0.0000
# 4 0.0000 0.0000 0.0000 17.9611 0.0000 0.0000
# 5 0.0000 0.0000 0.0000 0.0000 17.9613 0.0000
# 6 0.0000 0.0000 0.0000 0.0000 0.0000 20.6915
#
#
#
# Elastic Compliance Matrix: (Units=1/GPa)
#
#
# Indices 1 2 3 4 5 6 
#
# 1 0.012840 -0.006373 -0.001671 0.000000 0.000000 0.000000
# 2 -0.006373 0.012839 -0.001671 0.000000 0.000000 0.000000
# 3 -0.001671 -0.001671 0.014941 0.000000 0.000000 0.000000
# 4 0.000000 0.000000 0.000000 0.055676 0.000000 0.000000
# 5 0.000000 0.000000 0.000000 0.000000 0.055675 0.000000
# 6 0.000000 0.000000 0.000000 0.000000 0.000000 0.048329
#
#
# Mechanical properties :
#
#
# Convention : Reuss Voigt Hill
#
# Bulk Modulus (GPa) = 47.19026 52.52274 49.85650
# Shear Modulus (GPa) = 22.04652 24.28700 23.16676
#
# Velocity S-wave (km/s) = 3.47011 3.64217 3.55718
# Velocity P-wave (km/s) = 6.46766 6.80991 6.64099
#
# Compressibility (1/GPa) = 0.02119081
#
# Stress axis : x y z
#
# Youngs Moduli (GPa) = 77.88454 77.88546 66.92883
#
# Poissons Ratio (x) = 0.49635 0.11183
# Poissons Ratio (y) = 0.49635 0.11183
# Poissons Ratio (z) = 0.13014 0.13014
#
# Static dielectric constant tensor:
#      x y z
#    x 1.647010 0.000000 0.000000 
#    y 0.000000 1.647010 0.000000 
#    z 0.000000 0.000000 1.657300 
# 
# From -- ./inp_files/7177.got.cif
#   From: 2010.05.17/outbox.cif.g08.bks.cpg/sg121_4_cif.got.tgz:7177.got - 2010.05.20 11:32:06.
