data_PCOD9560900
_publ_section_title
;
Structure prediction by ZEFSAII (Michael W. Deem and Ramdas Pophale) SiO2 
 PCOD9560900
Probable space group: I -4 2 D
;
_chemical_formula_sum "Si O2"
_cell_formula_units_Z 56
_cell_length_a 11.548215
_cell_length_b 11.548215
_cell_length_c 21.822363
_cell_angle_alpha 90.000000
_cell_angle_beta 90.000000
_cell_angle_gamma 90.000000
_cell_volume 2910.258037
_symmetry_space_group_name_H-M "I -4 2 D"
_symmetry_group_IT_number 122
_symmetry_cell_setting 'tetragonal'
loop_
_space_group_symop_operation_xyz
x,y,z
y,-x,-z
-x,-y,z
-y,x,-z
x,1/2-y,1/4-z
-x,1/2+y,1/4-z
-y,1/2-x,1/4+z
y,1/2+x,1/4+z
1/2+x,1/2+y,1/2+z
1/2+y,1/2-x,1/2-z
1/2-x,1/2-y,1/2+z
1/2-y,1/2+x,1/2-z
1/2+x,-y,3/4-z
1/2-x,y,3/4-z
1/2-y,-x,3/4+z
1/2+y,x,3/4+z
loop_
_atom_site_type_symbol
_atom_site_label
_atom_site_fract_x
_atom_site_fract_y
_atom_site_fract_z
Si Si1 0.750000 0.770689 0.375000
Si Si2 0.020437 0.361773 0.405706
Si Si3 0.097538 0.089454 0.277442
Si Si4 0.510123 0.320119 0.478205
O O1 0.850002 0.688847 0.402957
O O2 0.817845 0.852758 0.326791
O O3 0.960318 0.313192 0.343834
O O4 0.000000 0.500000 0.399963
O O5 0.966920 0.332610 0.471524
O O6 0.020854 0.193874 0.249197
O O7 0.000000 0.000000 0.301861
O O8 0.392333 0.395468 0.484914
#
# Coordination Sequence:
#
# PCOD9560900 Si02
#       4
#     8  16  16  16
#     4  10  24  48  62  92 142 170 224 286 320 402
#     4  10  21  37  68  96 125 168 217 270 333 390
#     4  10  24  40  63  96 130 174 220 269 328 404
#     4  10  20  38  63 101 131 168 210 275 340 399
#
# _framework density 19.242280999999998
#
# number of rings (size 3 to 8) (size 9 to 14) (size 15 to 20)
#    0.000    2.000    2.857    0.000   16.000    1.143 
#   10.286    0.000    0.000    0.000    0.000    0.000 
#    0.000    0.000    0.000    0.000    0.000    0.000 
#
# Total GULP energy -156029.576887 kJ/mol
# GULP energy per Si atom -5572.484889 kJ/mol
# Density = 1.919849 g / cm^3
# Si number density = 19.242281 Si / 1000 Ang^3
#
#
#
# Elastic Constant Matrix: (Units=GPa)
#
#
# Indices 1 2 3 4 5 6 
#
# 1 117.2171 47.7793 47.5789 0.0000 0.0000 0.0000
# 2 47.7793 117.2171 47.5789 0.0000 0.0000 0.0000
# 3 47.5789 47.5789 117.1792 0.0000 0.0000 0.0000
# 4 0.0000 0.0000 0.0000 30.1832 0.0000 0.0000
# 5 0.0000 0.0000 0.0000 0.0000 30.1832 0.0000
# 6 0.0000 0.0000 0.0000 0.0000 0.0000 37.7771
#
#
#
# Elastic Compliance Matrix: (Units=1/GPa)
#
#
# Indices 1 2 3 4 5 6 
#
# 1 0.011158 -0.003244 -0.003213 0.000000 0.000000 0.000000
# 2 -0.003244 0.011158 -0.003213 0.000000 0.000000 0.000000
# 3 -0.003213 -0.003213 0.011143 0.000000 0.000000 0.000000
# 4 0.000000 0.000000 0.000000 0.033131 0.000000 0.000000
# 5 0.000000 0.000000 0.000000 0.000000 0.033131 0.000000
# 6 0.000000 0.000000 0.000000 0.000000 0.000000 0.026471
#
#
# Mechanical properties :
#
#
# Convention : Reuss Voigt Hill
#
# Bulk Modulus (GPa) = 70.83190 70.83196 70.83193
# Shear Modulus (GPa) = 33.28040 33.54046 33.41043
#
# Velocity S-wave (km/s) = 4.16329 4.17953 4.17142
# Velocity P-wave (km/s) = 7.74604 7.75769 7.75187
#
# Compressibility (1/GPa) = 0.01411793
#
# Stress axis : x y z
#
# Youngs Moduli (GPa) = 89.62445 89.62445 89.73914
#
# Poissons Ratio (x) = 0.29072 0.28836
# Poissons Ratio (y) = 0.29072 0.28836
# Poissons Ratio (z) = 0.28799 0.28799
#
# Static dielectric constant tensor:
#      x y z
#    x 1.676790 0.000000 0.000000 
#    y 0.000000 1.676790 0.000000 
#    z 0.000000 0.000000 1.721700 
# 
# From -- ./inp_files/6826.got.cif
#   From: 2010.05.17/outbox.cif.g08.bks.cpg/sg122_4_cif.got.tgz:6826.got - 2010.05.20 11:37:33.
