data_PCOD9560912
_publ_section_title
;
Structure prediction by ZEFSAII (Michael W. Deem and Ramdas Pophale) SiO2 
 PCOD9560912
Probable space group: I -4 2 D
;
_chemical_formula_sum "Si O2"
_cell_formula_units_Z 72
_cell_length_a 10.721642
_cell_length_b 10.721642
_cell_length_c 26.423871
_cell_angle_alpha 90.000000
_cell_angle_beta 90.000000
_cell_angle_gamma 90.000000
_cell_volume 3037.519287
_symmetry_space_group_name_H-M "I -4 2 D"
_symmetry_group_IT_number 122
_symmetry_cell_setting 'tetragonal'
loop_
_space_group_symop_operation_xyz
x,y,z
y,-x,-z
-x,-y,z
-y,x,-z
x,1/2-y,1/4-z
-x,1/2+y,1/4-z
-y,1/2-x,1/4+z
y,1/2+x,1/4+z
1/2+x,1/2+y,1/2+z
1/2+y,1/2-x,1/2-z
1/2-x,1/2-y,1/2+z
1/2-y,1/2+x,1/2-z
1/2+x,-y,3/4-z
1/2-x,y,3/4-z
1/2-y,-x,3/4+z
1/2+y,x,3/4+z
loop_
_atom_site_type_symbol
_atom_site_label
_atom_site_fract_x
_atom_site_fract_y
_atom_site_fract_z
Si Si1 0.365157 0.862605 0.983762
Si Si2 0.293438 0.044824 0.321129
Si Si3 0.000000 0.000000 0.500000
Si Si4 0.773740 0.621710 0.641082
Si Si5 0.090230 0.754298 0.280369
Si Si6 0.000000 0.500000 0.250000
O O1 0.442879 0.819559 0.032364
O O2 0.329422 0.007205 0.989918
O O3 0.433753 0.817242 0.932914
O O4 0.233444 0.781240 0.983848
O O5 0.250000 0.101424 0.375000
O O6 0.412543 0.083691 0.286697
O O7 0.336245 0.904203 0.334173
O O8 0.704578 0.750000 0.625000
O O9 0.807345 0.566413 0.586717
O O10 0.025082 0.619579 0.283481
#
# Coordination Sequence:
#
# PCOD9560912 Si02
#       6
#    16  16   4  16  16   4
#     4  10  20  39  62  94 122 163 211 264 321 390
#     4  11  24  39  61  88 122 171 218 259 324 389
#     4  12  24  44  64  86 136 168 220 284 316 386
#     4   9  19  38  59  85 121 164 207 251 314 377
#     4   9  19  37  66  92 126 164 209 264 331 388
#     4   8  16  36  64  94 128 164 204 264 336 386
#
# _framework density 23.703551999999998
#
# number of rings (size 3 to 8) (size 9 to 14) (size 15 to 20)
#    0.000    2.222    2.222    0.000    3.111    0.000 
#    0.000    7.778    9.778    0.000    0.000    0.000 
#    0.000    0.000    0.000    0.000    0.000    0.000 
#
# Total GULP energy -200421.016983 kJ/mol
# GULP energy per Si atom -5567.250472 kJ/mol
# Density = 2.364960 g / cm^3
# Si number density = 23.703552 Si / 1000 Ang^3
#
#
#
# Elastic Constant Matrix: (Units=GPa)
#
#
# Indices 1 2 3 4 5 6 
#
# 1 55.1196 24.0846 28.1656 0.0000 0.0000 0.0000
# 2 24.0846 55.1196 28.1656 0.0000 0.0000 0.0000
# 3 28.1656 28.1656 148.9985 0.0000 0.0000 0.0000
# 4 0.0000 0.0000 0.0000 28.3319 0.0000 0.0000
# 5 0.0000 0.0000 0.0000 0.0000 28.3319 0.0000
# 6 0.0000 0.0000 0.0000 0.0000 0.0000 20.4179
#
#
#
# Elastic Compliance Matrix: (Units=1/GPa)
#
#
# Indices 1 2 3 4 5 6 
#
# 1 0.023404 -0.008818 -0.002757 0.000000 0.000000 0.000000
# 2 -0.008818 0.023404 -0.002757 0.000000 0.000000 0.000000
# 3 -0.002757 -0.002757 0.007754 0.000000 0.000000 0.000000
# 4 0.000000 0.000000 0.000000 0.035296 0.000000 0.000000
# 5 0.000000 0.000000 0.000000 0.000000 0.035296 0.000000
# 6 0.000000 0.000000 0.000000 0.000000 0.000000 0.048977
#
#
# Mechanical properties :
#
#
# Convention : Reuss Voigt Hill
#
# Bulk Modulus (GPa) = 38.61323 46.67436 42.64379
# Shear Modulus (GPa) = 23.64871 27.33778 25.49325
#
# Velocity S-wave (km/s) = 3.16204 3.39974 3.28304
# Velocity P-wave (km/s) = 5.44580 5.92829 5.69216
#
# Compressibility (1/GPa) = 0.02589786
#
# Stress axis : x y z
#
# Youngs Moduli (GPa) = 42.72739 42.72739 128.96669
#
# Poissons Ratio (x) = 0.37675 0.35561
# Poissons Ratio (y) = 0.37675 0.35561
# Poissons Ratio (z) = 0.11781 0.11781
#
# Static dielectric constant tensor:
#      x y z
#    x 1.990310 0.000000 0.000000 
#    y 0.000000 1.990310 0.000000 
#    z 0.000000 0.000000 2.027120 
# 
# From -- ./inp_files/8686.got.cif
#   From: 2010.05.17/outbox.cif.g08.bks.cpg/sg122_5_cif.got.tgz:8686.got - 2010.05.20 11:37:33.
