data_PCOD9560477
_publ_section_title
;
Structure prediction by ZEFSAII (Michael W. Deem and Ramdas Pophale) SiO2 
 PCOD9560477
Probable space group: I -4 2 M
;
_chemical_formula_sum "Si O2"
_cell_formula_units_Z 80
_cell_length_a 11.342785
_cell_length_b 11.342785
_cell_length_c 31.165122
_cell_angle_alpha 90.000000
_cell_angle_beta 90.000000
_cell_angle_gamma 90.000000
_cell_volume 4009.666312
_symmetry_space_group_name_H-M "I -4 2 M"
_symmetry_group_IT_number 121
_symmetry_cell_setting 'tetragonal'
loop_
_space_group_symop_operation_xyz
x,y,z
y,-x,-z
-x,-y,z
-y,x,-z
x,-y,-z
-x,y,-z
-y,-x,z
y,x,z
1/2+x,1/2+y,1/2+z
1/2+y,1/2-x,1/2-z
1/2-x,1/2-y,1/2+z
1/2-y,1/2+x,1/2-z
1/2+x,1/2-y,1/2-z
1/2-x,1/2+y,1/2-z
1/2-y,1/2-x,1/2+z
1/2+y,1/2+x,1/2+z
loop_
_atom_site_type_symbol
_atom_site_label
_atom_site_fract_x
_atom_site_fract_y
_atom_site_fract_z
Si Si1 0.134825 0.673601 0.211452
Si Si2 0.308033 0.504351 0.051402
Si Si3 0.238909 0.429683 0.196506
Si Si4 0.001017 0.804688 0.859653
Si Si5 0.091668 0.604466 0.390079
O O1 0.209431 0.790570 0.212154
O O2 0.219990 0.569856 0.195655
O O3 0.100896 0.660886 0.261327
O O4 0.033763 0.711655 0.177994
O O5 0.370501 0.629500 0.062890
O O6 0.404438 0.404438 0.062804
O O7 0.188227 0.467954 0.074640
O O8 0.293901 0.500000 0.000000
O O9 0.366391 0.366391 0.201267
O O10 0.185670 0.388588 0.151670
O O11 0.105464 0.894537 0.846456
O O12 0.046367 0.719978 0.897847
O O13 0.888398 0.888398 0.869648
O O14 0.000000 0.500000 0.380913
#
# Coordination Sequence:
#
# PCOD9560477 Si02
#       5
#    16  16  16  16  16
#     4  10  22  38  57  83 118 163 214 258 307 362
#     4   9  20  41  67  95 128 161 195 245 311 379
#     4  11  23  37  55  83 119 162 208 257 311 361
#     4  10  21  39  60  84 121 166 209 253 303 361
#     4  12  23  37  61  90 123 160 203 255 304 371
#
# _framework density 19.951782999999999
#
# number of rings (size 3 to 8) (size 9 to 14) (size 15 to 20)
#    0.000    1.600    2.000    3.600    0.000    4.800 
#    0.000    2.000    0.000    0.000    0.000    0.000 
#    0.000    6.400    0.000    0.000    0.000    0.000 
#
# Total GULP energy -222723.354744 kJ/mol
# GULP energy per Si atom -5568.083869 kJ/mol
# Density = 1.990637 g / cm^3
# Si number density = 19.951783 Si / 1000 Ang^3
#
#
#
# Elastic Constant Matrix: (Units=GPa)
#
#
# Indices 1 2 3 4 5 6 
#
# 1 98.4917 34.7149 40.8788 0.0000 0.0000 0.0000
# 2 34.7149 98.4863 40.8790 0.0000 0.0000 0.0000
# 3 40.8788 40.8790 41.0358 0.0000 0.0000 0.0000
# 4 0.0000 0.0000 0.0000 11.8540 0.0000 0.0000
# 5 0.0000 0.0000 0.0000 0.0000 11.8559 0.0000
# 6 0.0000 0.0000 0.0000 0.0000 0.0000 32.4996
#
#
#
# Elastic Compliance Matrix: (Units=1/GPa)
#
#
# Indices 1 2 3 4 5 6 
#
# 1 0.017500 0.001820 -0.019246 0.000000 0.000000 0.000000
# 2 0.001820 0.017501 -0.019248 0.000000 0.000000 0.000000
# 3 -0.019246 -0.019248 0.062715 0.000000 0.000000 0.000000
# 4 0.000000 0.000000 0.000000 0.084360 0.000000 0.000000
# 5 0.000000 0.000000 0.000000 0.000000 0.084346 0.000000
# 6 0.000000 0.000000 0.000000 0.000000 0.000000 0.030770
#
#
# Mechanical properties :
#
#
# Convention : Reuss Voigt Hill
#
# Bulk Modulus (GPa) = 41.03485 52.32882 46.68183
# Shear Modulus (GPa) = 13.20444 19.34464 16.27454
#
# Velocity S-wave (km/s) = 2.57537 3.11717 2.85913
# Velocity P-wave (km/s) = 5.42725 6.26420 5.86069
#
# Compressibility (1/GPa) = 0.02436953
#
# Stress axis : x y z
#
# Youngs Moduli (GPa) = 57.14446 57.13864 15.94515
#
# Poissons Ratio (x) = -0.10400 0.30687
# Poissons Ratio (y) = -0.10401 0.30690
# Poissons Ratio (z) = 1.09978 1.09978
#
# Static dielectric constant tensor:
#      x y z
#    x 1.786250 0.000000 0.000000 
#    y 0.000000 1.786240 0.000000 
#    z 0.000000 0.000000 1.745780 
# 
# From -- ./inp_files/8016.got.cif
#   From: 2010.05.17/outbox.cif.g08.bks.cpg/sg121_5_cif.got.tgz:8016.got - 2010.05.20 11:32:06.
