data_PCOD9560439
_publ_section_title
;
Structure prediction by ZEFSAII (Michael W. Deem and Ramdas Pophale) SiO2 
 PCOD9560439
Probable space group: I -4 2 M
;
_chemical_formula_sum "Si O2"
_cell_formula_units_Z 68
_cell_length_a 17.572780
_cell_length_b 17.572780
_cell_length_c 12.798871
_cell_angle_alpha 90.000000
_cell_angle_beta 90.000000
_cell_angle_gamma 90.000000
_cell_volume 3952.324603
_symmetry_space_group_name_H-M "I -4 2 M"
_symmetry_group_IT_number 121
_symmetry_cell_setting 'tetragonal'
loop_
_space_group_symop_operation_xyz
x,y,z
y,-x,-z
-x,-y,z
-y,x,-z
x,-y,-z
-x,y,-z
-y,-x,z
y,x,z
1/2+x,1/2+y,1/2+z
1/2+y,1/2-x,1/2-z
1/2-x,1/2-y,1/2+z
1/2-y,1/2+x,1/2-z
1/2+x,1/2-y,1/2-z
1/2-x,1/2+y,1/2-z
1/2-y,1/2-x,1/2+z
1/2+y,1/2+x,1/2+z
loop_
_atom_site_type_symbol
_atom_site_label
_atom_site_fract_x
_atom_site_fract_y
_atom_site_fract_z
Si Si1 0.171421 0.291297 0.974250
Si Si2 0.500000 0.000000 0.500000
Si Si3 0.061002 0.639705 0.869811
Si Si4 0.915690 0.788689 0.547411
Si Si5 0.091123 0.701637 0.236108
O O1 0.223544 0.223544 0.017279
O O2 0.146234 0.273405 0.857049
O O3 0.096637 0.306563 0.041839
O O4 0.223411 0.367247 0.985934
O O5 0.545108 0.058152 0.425076
O O6 0.125834 0.627045 0.785053
O O7 0.987637 0.675560 0.816459
O O8 0.865498 0.865498 0.540633
O O9 0.918799 0.759798 0.667840
O O10 0.000000 0.795713 0.500000
#
# Coordination Sequence:
#
# PCOD9560439 Si02
#       5
#    16   4  16  16  16
#     4  10  21  37  54  78 110 146 185 225 271 332
#     4  12  20  34  48  84 114 148 172 214 284 320
#     4  11  22  32  54  80 115 146 179 223 274 332
#     4  10  22  37  57  78 105 141 182 233 280 325
#     4  11  20  35  55  81 109 148 180 223 270 339
#
# _framework density 17.205064
#
# number of rings (size 3 to 8) (size 9 to 14) (size 15 to 20)
#    0.000    1.412    2.353    3.529    6.588    1.176 
#    0.000    1.176    0.000    0.000    0.000    0.000 
#    0.000    1.882    0.000    0.000    0.000    0.000 
#
# Total GULP energy -189728.753637 kJ/mol
# GULP energy per Si atom -5580.257460 kJ/mol
# Density = 1.716590 g / cm^3
# Si number density = 17.205064 Si / 1000 Ang^3
#
#
#
# Elastic Constant Matrix: (Units=GPa)
#
#
# Indices 1 2 3 4 5 6 
#
# 1 69.3752 29.5287 46.0060 0.0000 0.0000 0.0000
# 2 29.5287 69.3752 46.0060 0.0000 0.0000 0.0000
# 3 46.0060 46.0060 104.6168 0.0000 0.0000 0.0000
# 4 0.0000 0.0000 0.0000 10.2617 0.0000 0.0000
# 5 0.0000 0.0000 0.0000 0.0000 10.2617 0.0000
# 6 0.0000 0.0000 0.0000 0.0000 0.0000 22.2322
#
#
#
# Elastic Compliance Matrix: (Units=1/GPa)
#
#
# Indices 1 2 3 4 5 6 
#
# 1 0.021104 -0.003992 -0.007525 0.000000 0.000000 0.000000
# 2 -0.003992 0.021104 -0.007525 0.000000 0.000000 0.000000
# 3 -0.007525 -0.007525 0.016177 0.000000 0.000000 0.000000
# 4 0.000000 0.000000 0.000000 0.097449 0.000000 0.000000
# 5 0.000000 0.000000 0.000000 0.000000 0.097449 0.000000
# 6 0.000000 0.000000 0.000000 0.000000 0.000000 0.044980
#
#
# Mechanical properties :
#
#
# Convention : Reuss Voigt Hill
#
# Bulk Modulus (GPa) = 49.26061 54.04985 51.65523
# Shear Modulus (GPa) = 14.57242 16.67291 15.62266
#
# Velocity S-wave (km/s) = 2.91346 3.11637 3.01662
# Velocity P-wave (km/s) = 6.32545 6.66575 6.49783
#
# Compressibility (1/GPa) = 0.02030019
#
# Stress axis : x y z
#
# Youngs Moduli (GPa) = 47.38488 47.38488 61.81659
#
# Poissons Ratio (x) = 0.18918 0.46516
# Poissons Ratio (y) = 0.18918 0.46516
# Poissons Ratio (z) = 0.35656 0.35656
#
# Static dielectric constant tensor:
#      x y z
#    x 1.568980 0.000000 0.000000 
#    y 0.000000 1.568980 0.000000 
#    z 0.000000 0.000000 1.615070 
# 
# From -- ./inp_files/3032.got.cif
#   From: 2010.05.17/outbox.cif.g08.bks.cpg/sg121_2_cif.got.tgz:3032.got - 2010.05.20 11:32:06.
