data_PCOD9560510
_publ_section_title
;
Structure prediction by ZEFSAII (Michael W. Deem and Ramdas Pophale) SiO2 
 PCOD9560510
Probable space group: I -4 2 M
;
_chemical_formula_sum "Si O2"
_cell_formula_units_Z 72
_cell_length_a 26.073750
_cell_length_b 26.073750
_cell_length_c 5.195031
_cell_angle_alpha 90.000000
_cell_angle_beta 90.000000
_cell_angle_gamma 90.000000
_cell_volume 3531.792156
_symmetry_space_group_name_H-M "I -4 2 M"
_symmetry_group_IT_number 121
_symmetry_cell_setting 'tetragonal'
loop_
_space_group_symop_operation_xyz
x,y,z
y,-x,-z
-x,-y,z
-y,x,-z
x,-y,-z
-x,y,-z
-y,-x,z
y,x,z
1/2+x,1/2+y,1/2+z
1/2+y,1/2-x,1/2-z
1/2-x,1/2-y,1/2+z
1/2-y,1/2+x,1/2-z
1/2+x,1/2-y,1/2-z
1/2-x,1/2+y,1/2-z
1/2-y,1/2-x,1/2+z
1/2+y,1/2+x,1/2+z
loop_
_atom_site_type_symbol
_atom_site_label
_atom_site_fract_x
_atom_site_fract_y
_atom_site_fract_z
Si Si1 0.361311 0.789522 0.759120
Si Si2 0.742647 0.588442 0.740141
Si Si3 0.194103 0.500000 0.500000
Si Si4 0.161744 0.838257 0.869561
Si Si5 0.711140 0.288861 0.873100
Si Si6 0.614136 0.923868 0.734676
O O1 0.377815 0.770569 0.479433
O O2 0.305023 0.769023 0.821168
O O3 0.374306 0.848695 0.787509
O O4 0.395303 0.759810 0.974995
O O5 0.767788 0.533638 0.676289
O O6 0.682960 0.604111 0.688771
O O7 0.154745 0.466547 0.326336
O O8 0.193482 0.806519 0.653753
O O9 0.178610 0.821391 0.157099
O O10 0.587084 0.927012 0.459114
#
# Coordination Sequence:
#
# PCOD9560510 Si02
#       6
#    16  16   8   8   8  16
#     4   9  17  31  48  72 101 134 168 207 253 307
#     4   9  17  29  51  75 102 133 173 213 254 314
#     4  10  22  38  58  79 102 139 182 220 274 336
#     4   8  14  26  44  73 102 131 164 212 256 292
#     4   8  14  26  46  67  98 136 168 195 240 305
#     4  11  23  37  54  75 101 129 170 225 274 318
#
# _framework density 20.38625
#
# number of rings (size 3 to 8) (size 9 to 14) (size 15 to 20)
#    0.000    2.667    0.000    2.667    0.000    8.000 
#    0.000    1.111    0.000    2.000    0.000    0.000 
#    0.000    0.444    0.000    0.000    0.000   85.333 
#
# Total GULP energy -200710.198328 kJ/mol
# GULP energy per Si atom -5575.283287 kJ/mol
# Density = 2.033985 g / cm^3
# Si number density = 20.386250 Si / 1000 Ang^3
#
#
#
# Elastic Constant Matrix: (Units=GPa)
#
#
# Indices 1 2 3 4 5 6 
#
# 1 22.0816 82.6131 18.6338 0.0000 0.0000 0.0000
# 2 82.6131 22.0783 18.6330 0.0000 0.0000 0.0000
# 3 18.6338 18.6330 75.1246 0.0000 0.0000 0.0000
# 4 0.0000 0.0000 0.0000 23.1316 0.0000 0.0000
# 5 0.0000 0.0000 0.0000 0.0000 23.1318 0.0000
# 6 0.0000 0.0000 0.0000 0.0000 0.0000 35.6868
#
#
#
# Elastic Compliance Matrix: (Units=1/GPa)
#
#
# Indices 1 2 3 4 5 6 
#
# 1 -0.003021 0.013498 -0.002599 0.000000 0.000000 0.000000
# 2 0.013498 -0.003022 -0.002599 0.000000 0.000000 0.000000
# 3 -0.002599 -0.002599 0.014600 0.000000 0.000000 0.000000
# 4 0.000000 0.000000 0.000000 0.043231 0.000000 0.000000
# 5 0.000000 0.000000 0.000000 0.000000 0.043230 0.000000
# 6 0.000000 0.000000 0.000000 0.000000 0.000000 0.028022
#
#
# Mechanical properties :
#
#
# Convention : Reuss Voigt Hill
#
# Bulk Modulus (GPa) = 39.74653 39.89382 39.82018
# Shear Modulus (GPa) = 43.54478 16.35035 29.94756
#
# Velocity S-wave (km/s) = 4.62669 2.83508 3.83692
# Velocity P-wave (km/s) = 6.93403 5.50712 6.26135
#
# Compressibility (1/GPa) = 0.02515943
#
# Stress axis : x y z
#
# Youngs Moduli (GPa) = -330.98025 -330.92607 68.49180
#
# Poissons Ratio (x) = 4.46694 0.17798
# Poissons Ratio (y) = 4.46767 0.17798
# Poissons Ratio (z) = -0.86007 -0.85995
#
# Static dielectric constant tensor:
#      x y z
#    x 1.781530 0.000000 0.000000 
#    y 0.000000 1.781530 0.000000 
#    z 0.000000 0.000000 1.783790 
# 
# From -- ./inp_files/556.got.cif
#   From: 2010.05.17/outbox.cif.g08.bks.cpg/sg121_1_cif.got.tgz:556.got - 2010.05.20 11:32:06.
