data_PCOD9560176
_publ_section_title
;
Structure prediction by ZEFSAII (Michael W. Deem and Ramdas Pophale) SiO2 
 PCOD9560176
Probable space group: I -4 2 M
;
_chemical_formula_sum "Si O2"
_cell_formula_units_Z 112
_cell_length_a 29.477981
_cell_length_b 29.477981
_cell_length_c 5.565023
_cell_angle_alpha 90.000000
_cell_angle_beta 90.000000
_cell_angle_gamma 90.000000
_cell_volume 4835.734326
_symmetry_space_group_name_H-M "I -4 2 M"
_symmetry_group_IT_number 121
_symmetry_cell_setting 'tetragonal'
loop_
_space_group_symop_operation_xyz
x,y,z
y,-x,-z
-x,-y,z
-y,x,-z
x,-y,-z
-x,y,-z
-y,-x,z
y,x,z
1/2+x,1/2+y,1/2+z
1/2+y,1/2-x,1/2-z
1/2-x,1/2-y,1/2+z
1/2-y,1/2+x,1/2-z
1/2+x,1/2-y,1/2-z
1/2-x,1/2+y,1/2-z
1/2-y,1/2-x,1/2+z
1/2+y,1/2+x,1/2+z
loop_
_atom_site_type_symbol
_atom_site_label
_atom_site_fract_x
_atom_site_fract_y
_atom_site_fract_z
Si Si1 0.287505 0.187229 0.770153
Si Si2 0.601999 0.672184 0.686601
Si Si3 0.238736 0.446683 0.458882
Si Si4 0.053455 0.592710 0.544189
Si Si5 0.824503 0.610915 0.772320
Si Si6 0.474468 0.402701 0.754161
Si Si7 0.737078 0.387963 0.920253
O O1 0.286319 0.213992 0.519861
O O2 0.336541 0.160905 0.736327
O O3 0.247483 0.150577 0.773977
O O4 0.646737 0.646737 0.583609
O O5 0.577154 0.715738 0.567536
O O6 0.563739 0.634583 0.706551
O O7 0.613646 0.689505 0.954203
O O8 0.236506 0.500000 0.500000
O O9 0.192915 0.421661 0.554067
O O10 0.247655 0.436320 0.180498
O O11 0.069379 0.564608 0.305219
O O12 0.082700 0.639019 0.574795
O O13 0.000000 0.601100 0.500000
O O14 0.775681 0.621794 0.886015
O O15 0.500000 0.405988 0.500000
O O16 0.450300 0.450300 0.804188
O O17 0.500000 0.389728 0.000000
#
# Coordination Sequence:
#
# PCOD9560176 Si02
#       7
#    16  16  16  16  16  16  16
#     4  10  18  36  63  91 127 169 220 269 347 420
#     4  10  25  44  65  98 141 194 242 288 357 440
#     4  11  24  39  68 104 144 183 236 303 369 430
#     4  12  28  46  70  97 136 191 245 302 358 432
#     4  10  23  40  63 101 135 174 228 293 370 438
#     4  11  25  45  72 104 141 187 239 297 359 431
#     4  10  22  39  65  96 131 183 224 290 353 420
#
# _framework density 23.160909
#
# number of rings (size 3 to 8) (size 9 to 14) (size 15 to 20)
#    0.000    1.429    1.429    3.000    8.000    3.429 
#    0.000    0.000    0.000    7.714    0.000    0.000 
#    0.000    0.000    0.000    0.000    0.000    0.000 
#
# Total GULP energy -311986.985081 kJ/mol
# GULP energy per Si atom -5571.196162 kJ/mol
# Density = 2.310819 g / cm^3
# Si number density = 23.160909 Si / 1000 Ang^3
#
#
#
# Elastic Constant Matrix: (Units=GPa)
#
#
# Indices 1 2 3 4 5 6 
#
# 1 5.3465 97.7284 8.3892 0.0000 0.0000 0.0000
# 2 97.7284 5.3465 8.3892 0.0000 0.0000 0.0000
# 3 8.3892 8.3892 88.6161 0.0000 0.0000 0.0000
# 4 0.0000 0.0000 0.0000 19.7979 0.0000 0.0000
# 5 0.0000 0.0000 0.0000 0.0000 19.7979 0.0000
# 6 0.0000 0.0000 0.0000 0.0000 0.0000 38.6043
#
#
#
# Elastic Compliance Matrix: (Units=1/GPa)
#
#
# Indices 1 2 3 4 5 6 
#
# 1 -0.000486 0.010339 -0.000933 0.000000 0.000000 0.000000
# 2 0.010339 -0.000486 -0.000933 0.000000 0.000000 0.000000
# 3 -0.000933 -0.000933 0.011461 0.000000 0.000000 0.000000
# 4 0.000000 0.000000 0.000000 0.050510 0.000000 0.000000
# 5 0.000000 0.000000 0.000000 0.000000 0.050510 0.000000
# 6 0.000000 0.000000 0.000000 0.000000 0.000000 0.025904
#
#
# Mechanical properties :
#
#
# Convention : Reuss Voigt Hill
#
# Bulk Modulus (GPa) = 36.44709 36.48027 36.46368
# Shear Modulus (GPa) = 38.57626 14.62687 26.60156
#
# Velocity S-wave (km/s) = 4.08557 2.51576 3.39271
# Velocity P-wave (km/s) = 6.16656 4.92176 5.57899
#
# Compressibility (1/GPa) = 0.02743703
#
# Stress axis : x y z
#
# Youngs Moduli (GPa) = -2059.51404 -2059.51404 87.25050
#
# Poissons Ratio (x) = 21.29348 0.08139
# Poissons Ratio (y) = 21.29348 0.08139
# Poissons Ratio (z) = -1.92116 -1.92116
#
# Static dielectric constant tensor:
#      x y z
#    x 1.921810 0.000000 0.000000 
#    y 0.000000 1.921810 0.000000 
#    z 0.000000 0.000000 1.980280 
# 
# From -- ./inp_files/714.got.cif
#   From: 2010.05.17/outbox.cif.g08.bks.cpg/sg121_1_cif.got.tgz:714.got - 2010.05.20 11:32:06.
