data_PCOD9560994
_publ_section_title
;
Structure prediction by ZEFSAII (Michael W. Deem and Ramdas Pophale) SiO2 
 PCOD9560994
Probable space group: I -4 2 D
;
_chemical_formula_sum "Si O2"
_cell_formula_units_Z 72
_cell_length_a 18.467284
_cell_length_b 18.467284
_cell_length_c 9.688083
_cell_angle_alpha 90.000000
_cell_angle_beta 90.000000
_cell_angle_gamma 90.000000
_cell_volume 3304.029429
_symmetry_space_group_name_H-M "I -4 2 D"
_symmetry_group_IT_number 122
_symmetry_cell_setting 'tetragonal'
loop_
_space_group_symop_operation_xyz
x,y,z
y,-x,-z
-x,-y,z
-y,x,-z
x,1/2-y,1/4-z
-x,1/2+y,1/4-z
-y,1/2-x,1/4+z
y,1/2+x,1/4+z
1/2+x,1/2+y,1/2+z
1/2+y,1/2-x,1/2-z
1/2-x,1/2-y,1/2+z
1/2-y,1/2+x,1/2-z
1/2+x,-y,3/4-z
1/2-x,y,3/4-z
1/2-y,-x,3/4+z
1/2+y,x,3/4+z
loop_
_atom_site_type_symbol
_atom_site_label
_atom_site_fract_x
_atom_site_fract_y
_atom_site_fract_z
Si Si1 0.500000 0.000000 0.750000
Si Si2 0.750000 0.919409 0.375000
Si Si3 0.373461 0.422686 0.365524
Si Si4 0.000000 0.000000 0.500000
Si Si5 0.166678 0.250000 0.625000
Si Si6 0.750791 0.877757 0.065345
Si Si7 0.451456 0.142298 0.113066
O O1 0.427479 0.013394 0.839873
O O2 0.754722 0.879083 0.230046
O O3 0.818576 0.972947 0.380324
O O4 0.310595 0.432125 0.248122
O O5 0.326518 0.395890 0.494980
O O6 0.426065 0.362858 0.296153
O O7 0.060533 0.958731 0.412455
O O8 0.218296 0.298699 0.530141
O O9 0.110274 0.309213 0.686714
#
# Coordination Sequence:
#
# PCOD9560994 Si02
#       7
#     4   8  16   4   8  16  16
#     4  12  22  40  68  98 134 176 220 274 334 400
#     4  11  22  40  66  96 128 173 228 274 336 401
#     4  10  22  40  62  91 131 171 214 271 335 394
#     4  12  22  40  64  98 134 172 224 278 338 400
#     4   9  20  40  62  88 126 167 216 270 326 389
#     4  10  22  41  63  92 130 174 221 276 335 402
#     4  10  21  37  62  93 128 167 216 280 332 393
#
# _framework density 21.791573
#
# number of rings (size 3 to 8) (size 9 to 14) (size 15 to 20)
#    0.000    1.778    0.000    4.667    0.000    3.556 
#    0.000   11.111    0.000    0.000    0.000    0.000 
#    0.000    0.000    0.000    0.000    0.000    0.000 
#
# Total GULP energy -200564.014263 kJ/mol
# GULP energy per Si atom -5571.222618 kJ/mol
# Density = 2.174197 g / cm^3
# Si number density = 21.791573 Si / 1000 Ang^3
#
#
#
# Elastic Constant Matrix: (Units=GPa)
#
#
# Indices 1 2 3 4 5 6 
#
# 1 109.3791 41.5618 36.4104 0.0000 0.0000 0.0000
# 2 41.5618 109.3791 36.4104 0.0000 0.0000 0.0000
# 3 36.4104 36.4104 132.9522 0.0000 0.0000 0.0000
# 4 0.0000 0.0000 0.0000 22.9526 0.0000 0.0000
# 5 0.0000 0.0000 0.0000 0.0000 22.9526 0.0000
# 6 0.0000 0.0000 0.0000 0.0000 0.0000 34.2321
#
#
#
# Elastic Compliance Matrix: (Units=1/GPa)
#
#
# Indices 1 2 3 4 5 6 
#
# 1 0.011190 -0.003556 -0.002091 0.000000 0.000000 0.000000
# 2 -0.003556 0.011190 -0.002091 0.000000 0.000000 0.000000
# 3 -0.002091 -0.002091 0.008667 0.000000 0.000000 0.000000
# 4 0.000000 0.000000 0.000000 0.043568 0.000000 0.000000
# 5 0.000000 0.000000 0.000000 0.000000 0.043568 0.000000
# 6 0.000000 0.000000 0.000000 0.000000 0.000000 0.029212
#
#
# Mechanical properties :
#
#
# Convention : Reuss Voigt Hill
#
# Bulk Modulus (GPa) = 64.21921 64.49727 64.35824
# Shear Modulus (GPa) = 29.75150 31.84932 30.80041
#
# Velocity S-wave (km/s) = 3.69897 3.82716 3.76361
# Velocity P-wave (km/s) = 6.91208 7.01364 6.96305
#
# Compressibility (1/GPa) = 0.01557167
#
# Stress axis : x y z
#
# Youngs Moduli (GPa) = 89.36868 89.36868 115.38611
#
# Poissons Ratio (x) = 0.31779 0.24122
# Poissons Ratio (y) = 0.31779 0.24122
# Poissons Ratio (z) = 0.18683 0.18683
#
# Static dielectric constant tensor:
#      x y z
#    x 1.835110 0.000000 0.000000 
#    y 0.000000 1.835110 0.000000 
#    z 0.000000 0.000000 1.869760 
# 
# From -- ./inp_files/4239.got.cif
#   From: 2010.05.17/outbox.cif.g08.bks.cpg/sg122_3_cif.got.tgz:4239.got - 2010.05.20 11:37:33.
