data_PCOD9560487
_publ_section_title
;
Structure prediction by ZEFSAII (Michael W. Deem and Ramdas Pophale) SiO2 
 PCOD9560487
Probable space group: I -4 2 M
;
_chemical_formula_sum "Si O2"
_cell_formula_units_Z 64
_cell_length_a 10.629977
_cell_length_b 10.629977
_cell_length_c 22.626654
_cell_angle_alpha 90.000000
_cell_angle_beta 90.000000
_cell_angle_gamma 90.000000
_cell_volume 2556.730695
_symmetry_space_group_name_H-M "I -4 2 M"
_symmetry_group_IT_number 121
_symmetry_cell_setting 'tetragonal'
loop_
_space_group_symop_operation_xyz
x,y,z
y,-x,-z
-x,-y,z
-y,x,-z
x,-y,-z
-x,y,-z
-y,-x,z
y,x,z
1/2+x,1/2+y,1/2+z
1/2+y,1/2-x,1/2-z
1/2-x,1/2-y,1/2+z
1/2-y,1/2+x,1/2-z
1/2+x,1/2-y,1/2-z
1/2-x,1/2+y,1/2-z
1/2-y,1/2-x,1/2+z
1/2+y,1/2+x,1/2+z
loop_
_atom_site_type_symbol
_atom_site_label
_atom_site_fract_x
_atom_site_fract_y
_atom_site_fract_z
Si Si1 0.039607 0.772188 0.131083
Si Si2 0.010679 0.710013 0.258260
Si Si3 0.252570 0.052736 0.388901
Si Si4 0.831885 0.631587 0.536724
O O1 0.106166 0.893835 0.104576
O O2 0.017439 0.793594 0.200159
O O3 0.137609 0.656072 0.122624
O O4 0.918306 0.730518 0.096850
O O5 0.126849 0.614137 0.252405
O O6 0.007993 0.765467 0.323857
O O7 0.127001 0.127001 0.405640
O O8 0.301470 0.957750 0.438834
O O9 0.847900 0.500000 0.500000
O O10 0.735157 0.735157 0.509928
#
# Coordination Sequence:
#
# PCOD9560487 Si02
#       4
#    16  16  16  16
#     4  10  21  39  68 104 143 194 251 306 364 437
#     4   9  16  33  62 102 150 200 239 296 370 445
#     4  10  22  42  72 109 147 191 248 313 386 453
#     4  12  27  47  71 101 149 204 257 315 372 441
#
# _framework density 25.031965
#
# number of rings (size 3 to 8) (size 9 to 14) (size 15 to 20)
#    0.000    1.750    2.500    1.500    0.000    6.250 
#    0.000    0.000    0.000    0.000    0.000    7.000 
#    0.000    0.000    0.000    0.000    0.000    0.000 
#
# Total GULP energy -178987.039956 kJ/mol
# GULP energy per Si atom -5593.344999 kJ/mol
# Density = 2.497499 g / cm^3
# Si number density = 25.031965 Si / 1000 Ang^3
#
#
#
# Elastic Constant Matrix: (Units=GPa)
#
#
# Indices 1 2 3 4 5 6 
#
# 1 88.4963 117.8908 63.6360 0.0000 0.0000 0.0000
# 2 117.8908 88.4949 63.6350 0.0000 0.0000 0.0000
# 3 63.6360 63.6350 185.6967 0.0000 0.0000 0.0000
# 4 0.0000 0.0000 0.0000 0.3344 0.0000 0.0000
# 5 0.0000 0.0000 0.0000 0.0000 0.3361 0.0000
# 6 0.0000 0.0000 0.0000 0.0000 0.0000 -165.4835
#
#
#
# Elastic Compliance Matrix: (Units=1/GPa)
#
#
# Indices 1 2 3 4 5 6 
#
# 1 -0.013938 0.020081 -0.002105 0.000000 0.000000 0.000000
# 2 0.020081 -0.013938 -0.002105 0.000000 0.000000 0.000000
# 3 -0.002105 -0.002105 0.006828 0.000000 0.000000 0.000000
# 4 0.000000 0.000000 0.000000 2.990717 0.000000 0.000000
# 5 0.000000 0.000000 0.000000 0.000000 2.975106 0.000000
# 6 0.000000 0.000000 0.000000 0.000000 0.000000 -0.006043
#
#
# Mechanical properties :
#
#
# Convention : Reuss Voigt Hill
#
# Bulk Modulus (GPa) = 93.51112 94.77908 94.14510
# Shear Modulus (GPa) = 0.84594 -25.12755 -12.14080
#
# Velocity S-wave (km/s) = 0.58196 -3.17175 -2.20469
# Velocity P-wave (km/s) = 6.15543 4.95299 5.58666
#
# Compressibility (1/GPa) = 0.01069392
#
# Stress axis : x y z
#
# Youngs Moduli (GPa) = -71.74781 -71.74695 146.45494
#
# Poissons Ratio (x) = 1.44077 0.30832
# Poissons Ratio (y) = 1.44079 0.30834
# Poissons Ratio (z) = -0.15105 -0.15105
#
# Static dielectric constant tensor:
#      x y z
#    x 1.986340 0.000000 0.000000 
#    y 0.000000 1.986340 0.000000 
#    z 0.000000 0.000000 1.982100 
# 
# From -- ./inp_files/6017.got.cif
#   From: 2010.05.17/outbox.cif.g08.bks.cpg/sg121_4_cif.got.tgz:6017.got - 2010.05.20 11:32:06.
