data_PCOD9560097
_publ_section_title
;
Structure prediction by ZEFSAII (Michael W. Deem and Ramdas Pophale) SiO2 
 PCOD9560097
Probable space group: I -4 2 M
;
_chemical_formula_sum "Si O2"
_cell_formula_units_Z 96
_cell_length_a 32.259683
_cell_length_b 32.259683
_cell_length_c 5.360437
_cell_angle_alpha 90.000000
_cell_angle_beta 90.000000
_cell_angle_gamma 90.000000
_cell_volume 5578.537890
_symmetry_space_group_name_H-M "I -4 2 M"
_symmetry_group_IT_number 121
_symmetry_cell_setting 'tetragonal'
loop_
_space_group_symop_operation_xyz
x,y,z
y,-x,-z
-x,-y,z
-y,x,-z
x,-y,-z
-x,y,-z
-y,-x,z
y,x,z
1/2+x,1/2+y,1/2+z
1/2+y,1/2-x,1/2-z
1/2-x,1/2-y,1/2+z
1/2-y,1/2+x,1/2-z
1/2+x,1/2-y,1/2-z
1/2-x,1/2+y,1/2-z
1/2-y,1/2-x,1/2+z
1/2+y,1/2+x,1/2+z
loop_
_atom_site_type_symbol
_atom_site_label
_atom_site_fract_x
_atom_site_fract_y
_atom_site_fract_z
Si Si1 0.220719 0.652167 0.258766
Si Si2 0.390324 0.860812 0.241680
Si Si3 0.679312 0.978633 0.249877
Si Si4 0.784003 0.215998 0.689490
Si Si5 0.678290 0.678290 0.309556
Si Si6 0.728264 0.513879 0.250142
Si Si7 0.740113 0.387953 0.758297
O O1 0.171776 0.647463 0.243095
O O2 0.237964 0.699105 0.238291
O O3 0.235984 0.630918 0.517305
O O4 0.240113 0.628041 0.018526
O O5 0.386492 0.888003 0.488543
O O6 0.431061 0.832743 0.249715
O O7 0.663017 0.000000 0.500000
O O8 0.728766 0.986984 0.249797
O O9 0.662951 0.000000 0.000000
O O10 0.796581 0.203420 0.407810
O O11 0.809089 0.190912 0.907829
O O12 0.631779 0.694038 0.264160
O O13 0.705751 0.500000 0.500000
O O14 0.739590 0.562369 0.249862
O O15 0.705805 0.500000 0.000000
#
# Coordination Sequence:
#
# PCOD9560097 Si02
#       7
#    16  16  16   8   8  16  16
#     4  10  18  32  48  65  92 128 164 203 239 273
#     4  12  24  36  50  74 104 129 155 193 246 295
#     4  10  19  34  53  72  93 123 153 187 233 285
#     4   8  16  28  46  65  84 120 172 208 230 262
#     4   8  16  26  44  69  94 122 158 207 242 275
#     4  10  18  27  44  69  92 120 157 196 234 280
#     4  10  17  30  49  71  95 125 166 202 242 282
#
# _framework density 17.208808999999999
#
# number of rings (size 3 to 8) (size 9 to 14) (size 15 to 20)
#    0.000    2.000    0.000    7.000    0.000    0.000 
#    0.000    0.833    0.000    0.000    0.000    0.000 
#    0.000   23.333    0.000    0.000    0.000    2.500 
#
# Total GULP energy -267751.036204 kJ/mol
# GULP energy per Si atom -5578.146588 kJ/mol
# Density = 1.716964 g / cm^3
# Si number density = 17.208809 Si / 1000 Ang^3
#
#
#
# Elastic Constant Matrix: (Units=GPa)
#
#
# Indices 1 2 3 4 5 6 
#
# 1 45.5762 19.5333 18.3198 0.0000 0.0000 0.0000
# 2 19.5333 45.5773 18.3206 0.0000 0.0000 0.0000
# 3 18.3198 18.3206 153.3048 0.0000 0.0000 0.0000
# 4 0.0000 0.0000 0.0000 18.3642 0.0000 0.0000
# 5 0.0000 0.0000 0.0000 0.0000 18.3639 0.0000
# 6 0.0000 0.0000 0.0000 0.0000 0.0000 17.4399
#
#
#
# Elastic Compliance Matrix: (Units=1/GPa)
#
#
# Indices 1 2 3 4 5 6 
#
# 1 0.027432 -0.010966 -0.001968 0.000000 0.000000 0.000000
# 2 -0.010966 0.027431 -0.001968 0.000000 0.000000 0.000000
# 3 -0.001968 -0.001968 0.006993 0.000000 0.000000 0.000000
# 4 0.000000 0.000000 0.000000 0.054454 0.000000 0.000000
# 5 0.000000 0.000000 0.000000 0.000000 0.054455 0.000000
# 6 0.000000 0.000000 0.000000 0.000000 0.000000 0.057340
#
#
# Mechanical properties :
#
#
# Convention : Reuss Voigt Hill
#
# Bulk Modulus (GPa) = 31.19708 39.64509 35.42108
# Shear Modulus (GPa) = 18.61561 23.38591 21.00076
#
# Velocity S-wave (km/s) = 3.29256 3.69039 3.49714
# Velocity P-wave (km/s) = 5.71161 6.42233 6.07737
#
# Compressibility (1/GPa) = 0.03205428
#
# Stress axis : x y z
#
# Youngs Moduli (GPa) = 36.45384 36.45467 142.99518
#
# Poissons Ratio (x) = 0.39975 0.28136
# Poissons Ratio (y) = 0.39974 0.28138
# Poissons Ratio (z) = 0.07173 0.07173
#
# Static dielectric constant tensor:
#      x y z
#    x 1.583440 0.000000 0.000000 
#    y 0.000000 1.583440 0.000000 
#    z 0.000000 0.000000 1.672840 
# 
# From -- ./inp_files/692.got.cif
#   From: 2010.05.17/outbox.cif.g08.bks.cpg/sg121_1_cif.got.tgz:692.got - 2010.05.20 11:32:06.
