data_PCOD9560795
_publ_section_title
;
Structure prediction by ZEFSAII (Michael W. Deem and Ramdas Pophale) SiO2 
 PCOD9560795
Probable space group: I -4 2 D
;
_chemical_formula_sum "Si O2"
_cell_formula_units_Z 96
_cell_length_a 17.356206
_cell_length_b 17.356206
_cell_length_c 16.518198
_cell_angle_alpha 90.000000
_cell_angle_beta 90.000000
_cell_angle_gamma 90.000000
_cell_volume 4975.907058
_symmetry_space_group_name_H-M "I -4 2 D"
_symmetry_group_IT_number 122
_symmetry_cell_setting 'tetragonal'
loop_
_space_group_symop_operation_xyz
x,y,z
y,-x,-z
-x,-y,z
-y,x,-z
x,1/2-y,1/4-z
-x,1/2+y,1/4-z
-y,1/2-x,1/4+z
y,1/2+x,1/4+z
1/2+x,1/2+y,1/2+z
1/2+y,1/2-x,1/2-z
1/2-x,1/2-y,1/2+z
1/2-y,1/2+x,1/2-z
1/2+x,-y,3/4-z
1/2-x,y,3/4-z
1/2-y,-x,3/4+z
1/2+y,x,3/4+z
loop_
_atom_site_type_symbol
_atom_site_label
_atom_site_fract_x
_atom_site_fract_y
_atom_site_fract_z
Si Si1 0.859762 0.250000 0.125000
Si Si2 0.000000 0.500000 0.556287
Si Si3 0.395996 0.524761 0.047041
Si Si4 0.770765 0.342070 0.245248
Si Si5 0.863898 0.962242 0.782693
Si Si6 0.127508 0.864262 0.845557
Si Si7 0.007639 0.250270 0.360575
O O1 0.806412 0.269525 0.200550
O O2 0.912349 0.177061 0.148678
O O3 0.060669 0.539687 0.617355
O O4 0.052580 0.442027 0.504103
O O5 0.306472 0.528288 0.065165
O O6 0.438691 0.580017 0.982999
O O7 0.823663 0.362791 0.321669
O O8 0.684392 0.328602 0.277592
O O9 0.774085 0.413691 0.183412
O O10 0.802605 0.966028 0.708609
O O11 0.879715 0.047518 0.817703
O O12 0.049567 0.817509 0.861689
#
# Coordination Sequence:
#
# PCOD9560795 Si02
#       7
#     8   8  16  16  16  16  16
#     4  12  22  38  58  86 126 154 202 258 314 366
#     4   8  17  32  54  83 108 146 192 246 300 351
#     4   8  16  33  59  86 114 147 199 254 302 361
#     4  10  23  37  56  86 117 158 201 242 306 370
#     4  10  20  35  57  81 113 155 196 251 297 365
#     4  10  21  39  57  80 120 154 197 242 306 365
#     4  10  19  37  60  82 115 162 197 244 307 356
#
# _framework density 19.292964000000001
#
# number of rings (size 3 to 8) (size 9 to 14) (size 15 to 20)
#    0.000    2.500    1.667    2.000    2.333    1.333 
#    0.000    0.000    0.000    0.000    0.000    0.000 
#    0.000    0.000    0.000    0.000    0.000    0.000 
#
# Total GULP energy -267412.055099 kJ/mol
# GULP energy per Si atom -5571.084481 kJ/mol
# Density = 1.924905 g / cm^3
# Si number density = 19.292964 Si / 1000 Ang^3
#
#
#
# Elastic Constant Matrix: (Units=GPa)
#
#
# Indices 1 2 3 4 5 6 
#
# 1 65.6496 42.5957 34.1523 0.0000 0.0000 0.0000
# 2 42.5957 65.6496 34.1523 0.0000 0.0000 0.0000
# 3 34.1523 34.1523 74.4438 0.0000 0.0000 0.0000
# 4 0.0000 0.0000 0.0000 18.5280 0.0000 0.0000
# 5 0.0000 0.0000 0.0000 0.0000 18.5280 0.0000
# 6 0.0000 0.0000 0.0000 0.0000 0.0000 27.3140
#
#
#
# Elastic Compliance Matrix: (Units=1/GPa)
#
#
# Indices 1 2 3 4 5 6 
#
# 1 0.028189 -0.015187 -0.005965 0.000000 0.000000 0.000000
# 2 -0.015187 0.028189 -0.005965 0.000000 0.000000 0.000000
# 3 -0.005965 -0.005965 0.018906 0.000000 0.000000 0.000000
# 4 0.000000 0.000000 0.000000 0.053972 0.000000 0.000000
# 5 0.000000 0.000000 0.000000 0.000000 0.053972 0.000000
# 6 0.000000 0.000000 0.000000 0.000000 0.000000 0.036611
#
#
# Mechanical properties :
#
#
# Convention : Reuss Voigt Hill
#
# Bulk Modulus (GPa) = 47.50460 47.50482 47.50471
# Shear Modulus (GPa) = 17.78780 19.19689 18.49235
#
# Velocity S-wave (km/s) = 3.03971 3.15782 3.09933
# Velocity P-wave (km/s) = 6.08244 6.16215 6.12242
#
# Compressibility (1/GPa) = 0.02105059
#
# Stress axis : x y z
#
# Youngs Moduli (GPa) = 35.47437 35.47437 52.89319
#
# Poissons Ratio (x) = 0.53875 0.31551
# Poissons Ratio (y) = 0.53875 0.31551
# Poissons Ratio (z) = 0.21160 0.21160
#
# Static dielectric constant tensor:
#      x y z
#    x 1.682960 0.000000 0.000000 
#    y 0.000000 1.682960 0.000000 
#    z 0.000000 0.000000 1.717030 
# 
# From -- ./inp_files/6343.got.cif
#   From: 2010.05.17/outbox.cif.g08.bks.cpg/sg122_4_cif.got.tgz:6343.got - 2010.05.20 11:37:33.
