data_PCOD9560875
_publ_section_title
;
Structure prediction by ZEFSAII (Michael W. Deem and Ramdas Pophale) SiO2 
 PCOD9560875
Probable space group: I -4 2 D
;
_chemical_formula_sum "Si O2"
_cell_formula_units_Z 68
_cell_length_a 18.006758
_cell_length_b 18.006758
_cell_length_c 10.235161
_cell_angle_alpha 90.000000
_cell_angle_beta 90.000000
_cell_angle_gamma 90.000000
_cell_volume 3318.682723
_symmetry_space_group_name_H-M "I -4 2 D"
_symmetry_group_IT_number 122
_symmetry_cell_setting 'tetragonal'
loop_
_space_group_symop_operation_xyz
x,y,z
y,-x,-z
-x,-y,z
-y,x,-z
x,1/2-y,1/4-z
-x,1/2+y,1/4-z
-y,1/2-x,1/4+z
y,1/2+x,1/4+z
1/2+x,1/2+y,1/2+z
1/2+y,1/2-x,1/2-z
1/2-x,1/2-y,1/2+z
1/2-y,1/2+x,1/2-z
1/2+x,-y,3/4-z
1/2-x,y,3/4-z
1/2-y,-x,3/4+z
1/2+y,x,3/4+z
loop_
_atom_site_type_symbol
_atom_site_label
_atom_site_fract_x
_atom_site_fract_y
_atom_site_fract_z
Si Si1 0.000000 0.500000 0.750000
Si Si2 0.186818 0.911147 0.770699
Si Si3 0.591788 0.229974 0.980167
Si Si4 0.216455 0.583084 0.015649
Si Si5 0.435715 0.876872 0.436258
O O1 0.946508 0.551836 0.661745
O O2 0.140647 0.839366 0.814979
O O3 0.227583 0.897268 0.631732
O O4 0.137018 0.984345 0.750681
O O5 0.250000 0.928401 0.875000
O O6 0.618400 0.250000 0.125000
O O7 0.505740 0.207599 0.990177
O O8 0.588282 0.303835 0.894099
O O9 0.250000 0.606924 0.875000
O O10 0.132935 0.611576 0.032844
#
# Coordination Sequence:
#
# PCOD9560875 Si02
#       5
#     4  16  16  16  16
#     4  12  20  40  72  98 120 156 212 270 320 368
#     4  11  25  40  57  87 127 166 201 246 308 376
#     4  10  20  37  60  89 119 151 201 252 299 365
#     4  10  21  39  63  91 118 153 206 261 311 364
#     4  11  22  38  63  91 121 160 205 257 313 371
#
# _framework density 20.490057
#
# number of rings (size 3 to 8) (size 9 to 14) (size 15 to 20)
#    0.000    1.412    0.000    8.471    0.000    6.588 
#    0.000    0.000    0.000    5.647    0.000    0.000 
#    0.000    0.000    0.000    0.000    0.000    0.000 
#
# Total GULP energy -189957.910217 kJ/mol
# GULP energy per Si atom -5586.997359 kJ/mol
# Density = 2.044342 g / cm^3
# Si number density = 20.490057 Si / 1000 Ang^3
#
#
#
# Elastic Constant Matrix: (Units=GPa)
#
#
# Indices 1 2 3 4 5 6 
#
# 1 70.9139 34.7405 -1.9503 0.0000 0.0000 0.0000
# 2 34.7405 70.9139 -1.9503 0.0000 0.0000 0.0000
# 3 -1.9503 -1.9503 39.2310 0.0000 0.0000 0.0000
# 4 0.0000 0.0000 0.0000 5.4942 0.0000 0.0000
# 5 0.0000 0.0000 0.0000 0.0000 5.4942 0.0000
# 6 0.0000 0.0000 0.0000 0.0000 0.0000 27.9015
#
#
#
# Elastic Compliance Matrix: (Units=1/GPa)
#
#
# Indices 1 2 3 4 5 6 
#
# 1 0.018563 -0.009081 0.000471 0.000000 0.000000 0.000000
# 2 -0.009081 0.018563 0.000471 0.000000 0.000000 0.000000
# 3 0.000471 0.000471 0.025537 0.000000 0.000000 0.000000
# 4 0.000000 0.000000 0.000000 0.182009 0.000000 0.000000
# 5 0.000000 0.000000 0.000000 0.000000 0.182009 0.000000
# 6 0.000000 0.000000 0.000000 0.000000 0.000000 0.035840
#
#
# Mechanical properties :
#
#
# Convention : Reuss Voigt Hill
#
# Bulk Modulus (GPa) = 21.55779 26.97097 24.26438
# Shear Modulus (GPa) = 10.11610 17.79259 13.95434
#
# Velocity S-wave (km/s) = 2.22436 2.94998 2.61249
# Velocity P-wave (km/s) = 4.14017 4.97943 4.57907
#
# Compressibility (1/GPa) = 0.04638694
#
# Stress axis : x y z
#
# Youngs Moduli (GPa) = 53.86938 53.86938 39.15895
#
# Poissons Ratio (x) = 0.48920 -0.01846
# Poissons Ratio (y) = 0.48920 -0.01846
# Poissons Ratio (z) = -0.02539 -0.02539
#
# Static dielectric constant tensor:
#      x y z
#    x 1.745660 0.000000 0.000000 
#    y 0.000000 1.745660 0.000000 
#    z 0.000000 0.000000 1.762360 
# 
# From -- ./inp_files/4149.got.cif
#   From: 2010.05.17/outbox.cif.g08.bks.cpg/sg122_3_cif.got.tgz:4149.got - 2010.05.20 11:37:33.
