data_PCOD9560029
_publ_section_title
;
Structure prediction by ZEFSAII (Michael W. Deem and Ramdas Pophale) SiO2 
 PCOD9560029
Probable space group: I -4 C 2
;
_chemical_formula_sum "Si O2"
_cell_formula_units_Z 48
_cell_length_a 13.382086
_cell_length_b 13.382086
_cell_length_c 10.295619
_cell_angle_alpha 90.000000
_cell_angle_beta 90.000000
_cell_angle_gamma 90.000000
_cell_volume 1843.741774
_symmetry_space_group_name_H-M "I -4 C 2"
_symmetry_group_IT_number 120
_symmetry_cell_setting 'tetragonal'
loop_
_space_group_symop_operation_xyz
x,y,z
y,-x,-z
-x,-y,z
-y,x,-z
y,x,1/2-z
-y,-x,1/2-z
-x,y,1/2+z
x,-y,1/2+z
1/2+x,1/2+y,1/2+z
1/2+y,1/2-x,1/2-z
1/2-x,1/2-y,1/2+z
1/2-y,1/2+x,1/2-z
1/2+y,1/2+x,-z
1/2-y,1/2-x,-z
1/2-x,1/2+y,z
1/2+x,1/2-y,z
loop_
_atom_site_type_symbol
_atom_site_label
_atom_site_fract_x
_atom_site_fract_y
_atom_site_fract_z
Si Si1 0.116359 0.677978 0.878423
Si Si2 0.954868 0.769419 0.738249
Si Si3 0.878169 0.791578 0.015192
O O1 0.216692 0.643643 0.811816
O O2 0.138674 0.790566 0.927232
O O3 0.019639 0.678126 0.794947
O O4 0.106273 0.606273 0.000000
O O5 0.031696 0.800412 0.622038
O O6 0.921608 0.825387 0.872775
O O7 0.816927 0.683074 0.000000
#
# Coordination Sequence:
#
# PCOD9560029 Si02
#       3
#    16  16  16
#     4  11  25  43  70 110 148 197 255 306 395 454
#     4  12  23  43  72 109 151 198 247 324 372 479
#     4  11  25  43  70 107 147 200 249 302 388 461
#
# _framework density 26.034016000000001
#
# number of rings (size 3 to 8) (size 9 to 14) (size 15 to 20)
#    0.000    0.667    6.667    1.000    4.667    0.667 
#    0.000    3.333    0.000    1.000   17.333    0.000 
#    0.000    0.000    0.000    0.000    0.000    0.000 
#
# Total GULP energy -133623.239212 kJ/mol
# GULP energy per Si atom -5567.634967 kJ/mol
# Density = 2.597476 g / cm^3
# Si number density = 26.034016 Si / 1000 Ang^3
#
#
#
# Elastic Constant Matrix: (Units=GPa)
#
#
# Indices 1 2 3 4 5 6 
#
# 1 75.7964 41.0355 19.1049 0.0000 0.0000 0.0000
# 2 41.0355 75.7975 19.1044 0.0000 0.0000 0.0000
# 3 19.1049 19.1044 158.6857 0.0000 0.0000 0.0000
# 4 0.0000 0.0000 0.0000 33.3476 0.0000 0.0000
# 5 0.0000 0.0000 0.0000 0.0000 33.3475 0.0000
# 6 0.0000 0.0000 0.0000 0.0000 0.0000 5.4229
#
#
#
# Elastic Compliance Matrix: (Units=1/GPa)
#
#
# Indices 1 2 3 4 5 6 
#
# 1 0.018839 -0.009929 -0.001073 0.000000 0.000000 0.000000
# 2 -0.009929 0.018839 -0.001073 0.000000 0.000000 0.000000
# 3 -0.001073 -0.001073 0.006560 0.000000 0.000000 0.000000
# 4 0.000000 0.000000 0.000000 0.029987 0.000000 0.000000
# 5 0.000000 0.000000 0.000000 0.000000 0.029987 0.000000
# 6 0.000000 0.000000 0.000000 0.000000 0.000000 0.184405
#
#
# Mechanical properties :
#
#
# Convention : Reuss Voigt Hill
#
# Bulk Modulus (GPa) = 49.77753 52.08548 50.93150
# Shear Modulus (GPa) = 15.65134 29.82591 22.73862
#
# Velocity S-wave (km/s) = 2.45457 3.38842 2.95857
# Velocity P-wave (km/s) = 5.21488 5.94631 5.59257
#
# Compressibility (1/GPa) = 0.02008939
#
# Stress axis : x y z
#
# Youngs Moduli (GPa) = 53.08152 53.08240 152.43764
#
# Poissons Ratio (x) = 0.52704 0.16353
# Poissons Ratio (y) = 0.52703 0.16351
# Poissons Ratio (z) = 0.05694 0.05694
#
# Static dielectric constant tensor:
#      x y z
#    x 2.091300 0.000000 0.000000 
#    y 0.000000 2.091300 0.000000 
#    z 0.000000 0.000000 2.326030 
# 
# From -- ./inp_files/2107.got.cif
#   From: 2010.05.17/outbox.cif.g08.bks.cpg/sg120_2_cif.got.tgz:2107.got - 2010.05.20 11:28:13.
