data_PCOD9560478
_publ_section_title
;
Structure prediction by ZEFSAII (Michael W. Deem and Ramdas Pophale) SiO2 
 PCOD9560478
Probable space group: I -4 2 M
;
_chemical_formula_sum "Si O2"
_cell_formula_units_Z 52
_cell_length_a 15.808851
_cell_length_b 15.808851
_cell_length_c 9.235585
_cell_angle_alpha 90.000000
_cell_angle_beta 90.000000
_cell_angle_gamma 90.000000
_cell_volume 2308.155278
_symmetry_space_group_name_H-M "I -4 2 M"
_symmetry_group_IT_number 121
_symmetry_cell_setting 'tetragonal'
loop_
_space_group_symop_operation_xyz
x,y,z
y,-x,-z
-x,-y,z
-y,x,-z
x,-y,-z
-x,y,-z
-y,-x,z
y,x,z
1/2+x,1/2+y,1/2+z
1/2+y,1/2-x,1/2-z
1/2-x,1/2-y,1/2+z
1/2-y,1/2+x,1/2-z
1/2+x,1/2-y,1/2-z
1/2-x,1/2+y,1/2-z
1/2-y,1/2-x,1/2+z
1/2+y,1/2+x,1/2+z
loop_
_atom_site_type_symbol
_atom_site_label
_atom_site_fract_x
_atom_site_fract_y
_atom_site_fract_z
Si Si1 0.500000 0.000000 0.750000
Si Si2 0.062741 0.802384 0.369520
Si Si3 0.317918 0.949001 0.822694
Si Si4 0.682276 0.818876 0.940863
O O1 0.412630 0.986114 0.834828
O O2 0.118512 0.881489 0.318446
O O3 0.125514 0.735947 0.447469
O O4 0.000000 0.829450 0.500000
O O5 0.011274 0.751501 0.247382
O O6 0.295303 0.903643 0.972487
O O7 0.326636 0.875819 0.699685
O O8 0.765105 0.765105 0.904745
#
# Coordination Sequence:
#
# PCOD9560478 Si02
#       4
#     4  16  16  16
#     4  12  24  38  60  94 132 154 200 246 324 370
#     4   9  19  37  58  86 120 161 209 256 301 355
#     4  11  22  38  62  92 124 161 197 259 308 366
#     4  10  21  39  60  86 122 162 206 246 302 368
#
# _framework density 22.528813
#
# number of rings (size 3 to 8) (size 9 to 14) (size 15 to 20)
#    0.000    1.846    3.077    0.923    0.000    4.000 
#    0.000    0.000    0.000    0.000    0.000    2.154 
#    0.000    6.154    0.000    0.000    0.000    0.000 
#
# Total GULP energy -145479.584397 kJ/mol
# GULP energy per Si atom -5595.368631 kJ/mol
# Density = 2.247754 g / cm^3
# Si number density = 22.528813 Si / 1000 Ang^3
#
#
#
# Elastic Constant Matrix: (Units=GPa)
#
#
# Indices 1 2 3 4 5 6 
#
# 1 125.5621 85.0989 65.0077 0.0000 0.0000 0.0000
# 2 85.0989 125.5636 65.0070 0.0000 0.0000 0.0000
# 3 65.0077 65.0070 144.0018 0.0000 0.0000 0.0000
# 4 0.0000 0.0000 0.0000 23.1086 0.0000 0.0000
# 5 0.0000 0.0000 0.0000 0.0000 23.1089 0.0000
# 6 0.0000 0.0000 0.0000 0.0000 0.0000 57.9940
#
#
#
# Elastic Compliance Matrix: (Units=1/GPa)
#
#
# Indices 1 2 3 4 5 6 
#
# 1 0.015647 -0.009067 -0.002971 0.000000 0.000000 0.000000
# 2 -0.009067 0.015647 -0.002970 0.000000 0.000000 0.000000
# 3 -0.002971 -0.002970 0.009626 0.000000 0.000000 0.000000
# 4 0.000000 0.000000 0.000000 0.043274 0.000000 0.000000
# 5 0.000000 0.000000 0.000000 0.000000 0.043273 0.000000
# 6 0.000000 0.000000 0.000000 0.000000 0.000000 0.017243
#
#
# Mechanical properties :
#
#
# Convention : Reuss Voigt Hill
#
# Bulk Modulus (GPa) = 91.70353 91.70607 91.70480
# Shear Modulus (GPa) = 28.03308 32.84323 30.43815
#
# Velocity S-wave (km/s) = 3.53132 3.82230 3.67969
# Velocity P-wave (km/s) = 7.57762 7.76366 7.67121
#
# Compressibility (1/GPa) = 0.01090471
#
# Stress axis : x y z
#
# Youngs Moduli (GPa) = 63.90997 63.91146 103.88098
#
# Poissons Ratio (x) = 0.57945 0.30860
# Poissons Ratio (y) = 0.57944 0.30857
# Poissons Ratio (z) = 0.18986 0.18984
#
# Static dielectric constant tensor:
#      x y z
#    x 1.849670 0.000000 0.000000 
#    y 0.000000 1.849670 0.000000 
#    z 0.000000 0.000000 1.821070 
# 
# From -- ./inp_files/1259.got.cif
#   From: 2010.05.17/outbox.cif.g08.bks.cpg/sg121_1_cif.got.tgz:1259.got - 2010.05.20 11:32:06.
