data_PCOD9560830
_publ_section_title
;
Structure prediction by ZEFSAII (Michael W. Deem and Ramdas Pophale) SiO2 
 PCOD9560830
Probable space group: I -4 2 D
;
_chemical_formula_sum "Si O2"
_cell_formula_units_Z 80
_cell_length_a 16.715843
_cell_length_b 16.715843
_cell_length_c 12.014302
_cell_angle_alpha 90.000000
_cell_angle_beta 90.000000
_cell_angle_gamma 90.000000
_cell_volume 3357.029143
_symmetry_space_group_name_H-M "I -4 2 D"
_symmetry_group_IT_number 122
_symmetry_cell_setting 'tetragonal'
loop_
_space_group_symop_operation_xyz
x,y,z
y,-x,-z
-x,-y,z
-y,x,-z
x,1/2-y,1/4-z
-x,1/2+y,1/4-z
-y,1/2-x,1/4+z
y,1/2+x,1/4+z
1/2+x,1/2+y,1/2+z
1/2+y,1/2-x,1/2-z
1/2-x,1/2-y,1/2+z
1/2-y,1/2+x,1/2-z
1/2+x,-y,3/4-z
1/2-x,y,3/4-z
1/2-y,-x,3/4+z
1/2+y,x,3/4+z
loop_
_atom_site_type_symbol
_atom_site_label
_atom_site_fract_x
_atom_site_fract_y
_atom_site_fract_z
Si Si1 0.642447 0.191202 0.432698
Si Si2 0.602165 0.352466 0.418186
Si Si3 0.946044 0.114820 0.519374
Si Si4 0.527271 0.375435 0.658653
Si Si5 0.341239 0.974644 0.494169
O O1 0.667945 0.282890 0.430746
O O2 0.612134 0.161806 0.312649
O O3 0.566995 0.194218 0.518339
O O4 0.693912 0.115488 0.479080
O O5 0.567058 0.378358 0.536837
O O6 0.628647 0.432881 0.355182
O O7 0.530483 0.314416 0.343917
O O8 0.975340 0.157966 0.630830
O O9 0.905703 0.029122 0.544361
O O10 0.567580 0.449904 0.724099
#
# Coordination Sequence:
#
# PCOD9560830 Si02
#       5
#    16  16  16  16  16
#     4   9  21  32  49  83 102 137 171 211 269 321
#     4  12  19  32  54  79 107 136 171 225 269 320
#     4   9  16  31  52  76 106 130 163 214 267 309
#     4  10  20  32  50  81 107 129 173 221 278 311
#     4   9  20  31  51  77 104 133 168 218 270 310
#
# _framework density 23.830596
#
# number of rings (size 3 to 8) (size 9 to 14) (size 15 to 20)
#    1.200    1.000    2.000    2.400    5.600    0.800 
#    0.000    0.000    0.000    0.000   31.200    0.000 
#    0.000    0.000    0.000    0.000    0.000    0.000 
#
# Total GULP energy -222914.818261 kJ/mol
# GULP energy per Si atom -5572.870457 kJ/mol
# Density = 2.377636 g / cm^3
# Si number density = 23.830596 Si / 1000 Ang^3
#
#
#
# Elastic Constant Matrix: (Units=GPa)
#
#
# Indices 1 2 3 4 5 6 
#
# 1 81.1845 -6.4085 16.5982 0.0000 0.0000 0.0000
# 2 -6.4085 81.1845 16.5982 0.0000 0.0000 0.0000
# 3 16.5982 16.5982 120.6388 0.0000 0.0000 0.0000
# 4 0.0000 0.0000 0.0000 22.1826 0.0000 0.0000
# 5 0.0000 0.0000 0.0000 0.0000 22.1826 0.0000
# 6 0.0000 0.0000 0.0000 0.0000 0.0000 -7.9897
#
#
#
# Elastic Compliance Matrix: (Units=1/GPa)
#
#
# Indices 1 2 3 4 5 6 
#
# 1 0.012830 0.001413 -0.001960 0.000000 0.000000 0.000000
# 2 0.001413 0.012830 -0.001960 0.000000 0.000000 0.000000
# 3 -0.001960 -0.001960 0.008828 0.000000 0.000000 0.000000
# 4 0.000000 0.000000 0.000000 0.045080 0.000000 0.000000
# 5 0.000000 0.000000 0.000000 0.000000 0.045080 0.000000
# 6 0.000000 0.000000 0.000000 0.000000 0.000000 -0.125160
#
#
# Mechanical properties :
#
#
# Convention : Reuss Voigt Hill
#
# Bulk Modulus (GPa) = 33.92556 37.39818 35.66187
# Shear Modulus (GPa) = 349.01724 24.35639 186.68682
#
# Velocity S-wave (km/s) = 12.11510 3.20044 8.86054
# Velocity P-wave (km/s) = 14.49027 5.42075 10.93966
#
# Compressibility (1/GPa) = 0.02947630
#
# Stress axis : x y z
#
# Youngs Moduli (GPa) = 77.94319 77.94319 113.27006
#
# Poissons Ratio (x) = -0.11017 0.22197
# Poissons Ratio (y) = -0.11017 0.22197
# Poissons Ratio (z) = 0.15274 0.15274
#
# Static dielectric constant tensor:
#      x y z
#    x 1.997220 0.000000 0.000000 
#    y 0.000000 1.997220 0.000000 
#    z 0.000000 0.000000 1.893010 
# 
# From -- ./inp_files/5314.got.cif
#   From: 2010.05.17/outbox.cif.g08.bks.cpg/sg122_3_cif.got.tgz:5314.got - 2010.05.20 11:37:33.
