data_PCOD9560509
_publ_section_title
;
Structure prediction by ZEFSAII (Michael W. Deem and Ramdas Pophale) SiO2 
 PCOD9560509
Probable space group: I -4 2 M
;
_chemical_formula_sum "Si O2"
_cell_formula_units_Z 64
_cell_length_a 16.421006
_cell_length_b 16.421006
_cell_length_c 12.343350
_cell_angle_alpha 90.000000
_cell_angle_beta 90.000000
_cell_angle_gamma 90.000000
_cell_volume 3328.377391
_symmetry_space_group_name_H-M "I -4 2 M"
_symmetry_group_IT_number 121
_symmetry_cell_setting 'tetragonal'
loop_
_space_group_symop_operation_xyz
x,y,z
y,-x,-z
-x,-y,z
-y,x,-z
x,-y,-z
-x,y,-z
-y,-x,z
y,x,z
1/2+x,1/2+y,1/2+z
1/2+y,1/2-x,1/2-z
1/2-x,1/2-y,1/2+z
1/2-y,1/2+x,1/2-z
1/2+x,1/2-y,1/2-z
1/2-x,1/2+y,1/2-z
1/2-y,1/2-x,1/2+z
1/2+y,1/2+x,1/2+z
loop_
_atom_site_type_symbol
_atom_site_label
_atom_site_fract_x
_atom_site_fract_y
_atom_site_fract_z
Si Si1 0.308012 0.960913 0.761540
Si Si2 0.071333 0.389773 0.581369
Si Si3 0.822699 0.045947 0.113668
Si Si4 0.183659 0.315366 0.404756
O O1 0.371405 0.957023 0.862160
O O2 0.312387 0.875046 0.699312
O O3 0.340877 0.027036 0.677036
O O4 0.217971 0.982665 0.802838
O O5 0.129471 0.333382 0.509615
O O6 0.000000 0.416603 0.500000
O O7 0.903814 0.096187 0.144641
O O8 0.750748 0.113186 0.102360
O O9 0.835699 0.000000 0.000000
O O10 0.231926 0.231926 0.414677
#
# Coordination Sequence:
#
# PCOD9560509 Si02
#       4
#    16  16  16  16
#     4  11  21  40  59  94 123 162 203 253 321 382
#     4  10  22  38  57  90 128 156 196 255 322 376
#     4  11  23  40  61  89 126 168 213 258 305 370
#     4  10  22  40  63  88 121 163 210 259 312 374
#
# _framework density 19.228588999999999
#
# number of rings (size 3 to 8) (size 9 to 14) (size 15 to 20)
#    0.000    1.500    5.000    0.000    0.000    3.750 
#    4.500    0.000    0.000    0.000    0.000    0.000 
#    0.000    0.000    0.000    0.000    0.000    0.000 
#
# Total GULP energy -178745.719967 kJ/mol
# GULP energy per Si atom -5585.803749 kJ/mol
# Density = 1.918482 g / cm^3
# Si number density = 19.228589 Si / 1000 Ang^3
#
#
#
# Elastic Constant Matrix: (Units=GPa)
#
#
# Indices 1 2 3 4 5 6 
#
# 1 60.0365 40.8046 33.9280 0.0000 0.0000 0.0000
# 2 40.8046 60.0378 33.9276 0.0000 0.0000 0.0000
# 3 33.9280 33.9276 100.2211 0.0000 0.0000 0.0000
# 4 0.0000 0.0000 0.0000 18.0533 0.0000 0.0000
# 5 0.0000 0.0000 0.0000 0.0000 18.0534 0.0000
# 6 0.0000 0.0000 0.0000 0.0000 0.0000 42.9790
#
#
#
# Elastic Compliance Matrix: (Units=1/GPa)
#
#
# Indices 1 2 3 4 5 6 
#
# 1 0.032419 -0.019577 -0.004348 0.000000 0.000000 0.000000
# 2 -0.019577 0.032418 -0.004347 0.000000 0.000000 0.000000
# 3 -0.004348 -0.004347 0.012921 0.000000 0.000000 0.000000
# 4 0.000000 0.000000 0.000000 0.055391 0.000000 0.000000
# 5 0.000000 0.000000 0.000000 0.000000 0.055391 0.000000
# 6 0.000000 0.000000 0.000000 0.000000 0.000000 0.023267
#
#
# Mechanical properties :
#
#
# Convention : Reuss Voigt Hill
#
# Bulk Modulus (GPa) = 47.13505 48.62398 47.87951
# Shear Modulus (GPa) = 18.15392 23.25950 20.70671
#
# Velocity S-wave (km/s) = 3.07597 3.48175 3.28513
# Velocity P-wave (km/s) = 6.09768 6.44249 6.27245
#
# Compressibility (1/GPa) = 0.02121564
#
# Stress axis : x y z
#
# Youngs Moduli (GPa) = 30.84611 30.84714 77.39129
#
# Poissons Ratio (x) = 0.60388 0.33647
# Poissons Ratio (y) = 0.60386 0.33642
# Poissons Ratio (z) = 0.13411 0.13409
#
# Static dielectric constant tensor:
#      x y z
#    x 1.690310 0.000000 0.000000 
#    y 0.000000 1.690310 0.000000 
#    z 0.000000 0.000000 1.679720 
# 
# From -- ./inp_files/2918.got.cif
#   From: 2010.05.17/outbox.cif.g08.bks.cpg/sg121_2_cif.got.tgz:2918.got - 2010.05.20 11:32:06.
