data_PCOD9560072
_publ_section_title
;
Structure prediction by ZEFSAII (Michael W. Deem and Ramdas Pophale) SiO2 
 PCOD9560072
Probable space group: I -4 C 2
;
_chemical_formula_sum "Si O2"
_cell_formula_units_Z 48
_cell_length_a 8.147395
_cell_length_b 8.147395
_cell_length_c 25.974339
_cell_angle_alpha 90.000000
_cell_angle_beta 90.000000
_cell_angle_gamma 90.000000
_cell_volume 1724.177799
_symmetry_space_group_name_H-M "I -4 C 2"
_symmetry_group_IT_number 120
_symmetry_cell_setting 'tetragonal'
loop_
_space_group_symop_operation_xyz
x,y,z
y,-x,-z
-x,-y,z
-y,x,-z
y,x,1/2-z
-y,-x,1/2-z
-x,y,1/2+z
x,-y,1/2+z
1/2+x,1/2+y,1/2+z
1/2+y,1/2-x,1/2-z
1/2-x,1/2-y,1/2+z
1/2-y,1/2+x,1/2-z
1/2+y,1/2+x,-z
1/2-y,1/2-x,-z
1/2-x,1/2+y,z
1/2+x,1/2-y,z
loop_
_atom_site_type_symbol
_atom_site_label
_atom_site_fract_x
_atom_site_fract_y
_atom_site_fract_z
Si Si1 0.500000 0.000000 0.750000
Si Si2 0.150965 0.122702 0.138858
Si Si3 0.250890 0.250890 0.750000
Si Si4 0.833264 0.578997 0.067313
Si Si5 0.500000 0.500000 0.500000
O O1 0.441783 0.805973 0.748575
O O2 0.193940 0.205041 0.191774
O O3 0.130424 0.240360 0.089017
O O4 0.302921 0.015314 0.120766
O O5 0.000000 0.000000 0.144017
O O6 0.667626 0.559600 0.031844
O O7 0.000000 0.500000 0.047573
#
# Coordination Sequence:
#
# PCOD9560072 Si02
#       5
#     4  16   8  16   4
#     4  12  32  48  80 124 180 238 328 364 460 568
#     4  12  28  57  86 135 183 238 308 379 460 581
#     4  12  31  51  90 136 182 256 298 384 476 578
#     4  12  30  60  91 128 185 234 310 392 471 568
#     4  12  32  68  88 142 176 244 312 408 488 558
#
# _framework density 27.839354
#
# number of rings (size 3 to 8) (size 9 to 14) (size 15 to 20)
#    0.000    0.000    1.667    4.500   18.667    1.333 
#   12.000    0.000    0.000    0.000    0.000    0.000 
#    0.000    0.000    0.000    0.000    0.000    0.000 
#
# Total GULP energy -133704.829002 kJ/mol
# GULP energy per Si atom -5571.034542 kJ/mol
# Density = 2.777599 g / cm^3
# Si number density = 27.839354 Si / 1000 Ang^3
#
#
#
# Elastic Constant Matrix: (Units=GPa)
#
#
# Indices 1 2 3 4 5 6 
#
# 1 113.9498 12.5982 52.3784 0.0000 0.0000 0.0000
# 2 12.5982 113.9498 52.3784 0.0000 0.0000 0.0000
# 3 52.3784 52.3784 204.5992 0.0000 0.0000 0.0000
# 4 0.0000 0.0000 0.0000 11.4981 0.0000 0.0000
# 5 0.0000 0.0000 0.0000 0.0000 11.4981 0.0000
# 6 0.0000 0.0000 0.0000 0.0000 0.0000 48.7098
#
#
#
# Elastic Compliance Matrix: (Units=1/GPa)
#
#
# Indices 1 2 3 4 5 6 
#
# 1 0.009947 0.000080 -0.002567 0.000000 0.000000 0.000000
# 2 0.000080 0.009947 -0.002567 0.000000 0.000000 0.000000
# 3 -0.002567 -0.002567 0.006202 0.000000 0.000000 0.000000
# 4 0.000000 0.000000 0.000000 0.086971 0.000000 0.000000
# 5 0.000000 0.000000 0.000000 0.000000 0.086971 0.000000
# 6 0.000000 0.000000 0.000000 0.000000 0.000000 0.020530
#
#
# Mechanical properties :
#
#
# Convention : Reuss Voigt Hill
#
# Bulk Modulus (GPa) = 62.54621 74.13431 68.34026
# Shear Modulus (GPa) = 21.18605 35.35079 28.26842
#
# Velocity S-wave (km/s) = 2.76164 3.56731 3.19001
# Velocity P-wave (km/s) = 5.71703 6.60717 6.17815
#
# Compressibility (1/GPa) = 0.01598818
#
# Stress axis : x y z
#
# Youngs Moduli (GPa) = 100.53418 100.53417 161.24029
#
# Poissons Ratio (x) = -0.00807 0.41390
# Poissons Ratio (y) = -0.00807 0.41390
# Poissons Ratio (z) = 0.25807 0.25807
#
# Static dielectric constant tensor:
#      x y z
#    x 2.240270 0.000000 0.000000 
#    y 0.000000 2.240270 0.000000 
#    z 0.000000 0.000000 2.147160 
# 
# From -- ./inp_files/6405.got.cif
#   From: 2010.05.17/outbox.cif.g08.bks.cpg/sg120_4_cif.got.tgz:6405.got - 2010.05.20 11:28:13.
