data_PCOD9560307
_publ_section_title
;
Structure prediction by ZEFSAII (Michael W. Deem and Ramdas Pophale) SiO2 
 PCOD9560307
Probable space group: I -4 2 M
;
_chemical_formula_sum "Si O2"
_cell_formula_units_Z 112
_cell_length_a 14.954809
_cell_length_b 14.954809
_cell_length_c 23.969094
_cell_angle_alpha 90.000000
_cell_angle_beta 90.000000
_cell_angle_gamma 90.000000
_cell_volume 5360.599481
_symmetry_space_group_name_H-M "I -4 2 M"
_symmetry_group_IT_number 121
_symmetry_cell_setting 'tetragonal'
loop_
_space_group_symop_operation_xyz
x,y,z
y,-x,-z
-x,-y,z
-y,x,-z
x,-y,-z
-x,y,-z
-y,-x,z
y,x,z
1/2+x,1/2+y,1/2+z
1/2+y,1/2-x,1/2-z
1/2-x,1/2-y,1/2+z
1/2-y,1/2+x,1/2-z
1/2+x,1/2-y,1/2-z
1/2-x,1/2+y,1/2-z
1/2-y,1/2-x,1/2+z
1/2+y,1/2+x,1/2+z
loop_
_atom_site_type_symbol
_atom_site_label
_atom_site_fract_x
_atom_site_fract_y
_atom_site_fract_z
Si Si1 0.469625 0.174826 0.055372
Si Si2 0.002645 0.854276 0.812717
Si Si3 0.142069 0.288540 0.005370
Si Si4 0.278431 0.016475 0.907366
Si Si5 0.736357 0.588267 0.213159
Si Si6 0.428377 0.068729 0.665073
Si Si7 0.854163 0.001415 0.396868
O O1 0.366647 0.192739 0.039135
O O2 0.477079 0.116876 0.110464
O O3 0.517065 0.269704 0.063780
O O4 0.500000 0.123549 0.000000
O O5 0.101596 0.898405 0.812211
O O6 0.976506 0.811915 0.871993
O O7 0.978304 0.783729 0.764406
O O8 0.934552 0.934552 0.800589
O O9 0.205321 0.205321 0.998283
O O10 0.061038 0.267196 0.047004
O O11 0.101166 0.309654 0.944158
O O12 0.349458 0.982293 0.861956
O O13 0.682150 0.682150 0.221380
O O14 0.842551 0.597147 0.201959
O O15 0.690504 0.541913 0.159121
O O16 0.500000 0.000000 0.689541
O O17 0.922178 0.077823 0.418816
O O18 0.914784 0.914784 0.385834
#
# Coordination Sequence:
#
# PCOD9560307 Si02
#       7
#    16  16  16  16  16  16  16
#     4  10  20  33  53  78 110 152 197 241 293 351
#     4  10  20  37  62  89 117 149 188 238 297 360
#     4  10  20  35  56  82 116 156 196 242 293 351
#     4  10  21  36  57  86 117 152 197 242 293 353
#     4   9  19  37  60  85 114 152 197 245 301 364
#     4  10  21  39  60  82 114 155 202 248 301 355
#     4   9  17  30  50  78 112 149 193 242 291 351
#
# _framework density 20.893184999999999
#
# number of rings (size 3 to 8) (size 9 to 14) (size 15 to 20)
#    0.000    2.286    0.000    2.571    0.000    8.286 
#    2.571    0.714    0.000    5.143    0.000    0.000 
#    0.000    0.000    0.000    0.000    0.000    0.000 
#
# Total GULP energy -312164.328158 kJ/mol
# GULP energy per Si atom -5574.363003 kJ/mol
# Density = 2.084563 g / cm^3
# Si number density = 20.893185 Si / 1000 Ang^3
#
#
#
# Elastic Constant Matrix: (Units=GPa)
#
#
# Indices 1 2 3 4 5 6 
#
# 1 82.5654 40.0878 16.9368 0.0000 0.0000 0.0000
# 2 40.0878 82.5659 16.9370 0.0000 0.0000 0.0000
# 3 16.9368 16.9370 79.6916 0.0000 0.0000 0.0000
# 4 0.0000 0.0000 0.0000 -18.8846 0.0000 0.0000
# 5 0.0000 0.0000 0.0000 0.0000 -18.8969 0.0000
# 6 0.0000 0.0000 0.0000 0.0000 0.0000 22.7817
#
#
#
# Elastic Compliance Matrix: (Units=1/GPa)
#
#
# Indices 1 2 3 4 5 6 
#
# 1 0.016102 -0.007440 -0.001841 0.000000 0.000000 0.000000
# 2 -0.007440 0.016102 -0.001841 0.000000 0.000000 0.000000
# 3 -0.001841 -0.001841 0.013331 0.000000 0.000000 0.000000
# 4 0.000000 0.000000 0.000000 -0.052953 0.000000 0.000000
# 5 0.000000 0.000000 0.000000 0.000000 -0.052919 0.000000
# 6 0.000000 0.000000 0.000000 0.000000 0.000000 0.043895
#
#
# Mechanical properties :
#
#
# Convention : Reuss Voigt Hill
#
# Bulk Modulus (GPa) = 42.93609 43.63846 43.28727
# Shear Modulus (GPa) = 368.62583 8.39079 188.50831
#
# Velocity S-wave (km/s) = 13.29724 2.00618 9.50898
# Velocity P-wave (km/s) = 16.01094 5.12817 11.88799
#
# Compressibility (1/GPa) = 0.02329043
#
# Stress axis : x y z
#
# Youngs Moduli (GPa) = 62.10563 62.10597 75.01403
#
# Poissons Ratio (x) = 0.46208 0.13809
# Poissons Ratio (y) = 0.46207 0.13809
# Poissons Ratio (z) = 0.11432 0.11433
#
# Static dielectric constant tensor:
#      x y z
#    x 1.785720 0.000000 0.000000 
#    y 0.000000 1.785720 0.000000 
#    z 0.000000 0.000000 1.762720 
# 
# From -- ./inp_files/7173.got.cif
#   From: 2010.05.17/outbox.cif.g08.bks.cpg/sg121_4_cif.got.tgz:7173.got - 2010.05.20 11:32:06.
