data_PCOD9560956
_publ_section_title
;
Structure prediction by ZEFSAII (Michael W. Deem and Ramdas Pophale) SiO2 
 PCOD9560956
Probable space group: I -4 2 D
;
_chemical_formula_sum "Si O2"
_cell_formula_units_Z 64
_cell_length_a 11.658617
_cell_length_b 11.658617
_cell_length_c 18.324866
_cell_angle_alpha 90.000000
_cell_angle_beta 90.000000
_cell_angle_gamma 90.000000
_cell_volume 2490.777181
_symmetry_space_group_name_H-M "I -4 2 D"
_symmetry_group_IT_number 122
_symmetry_cell_setting 'tetragonal'
loop_
_space_group_symop_operation_xyz
x,y,z
y,-x,-z
-x,-y,z
-y,x,-z
x,1/2-y,1/4-z
-x,1/2+y,1/4-z
-y,1/2-x,1/4+z
y,1/2+x,1/4+z
1/2+x,1/2+y,1/2+z
1/2+y,1/2-x,1/2-z
1/2-x,1/2-y,1/2+z
1/2-y,1/2+x,1/2-z
1/2+x,-y,3/4-z
1/2-x,y,3/4-z
1/2-y,-x,3/4+z
1/2+y,x,3/4+z
loop_
_atom_site_type_symbol
_atom_site_label
_atom_site_fract_x
_atom_site_fract_y
_atom_site_fract_z
Si Si1 0.000000 0.500000 0.250000
Si Si2 0.000000 0.000000 0.500000
Si Si3 0.557254 0.626720 0.136342
Si Si4 0.250000 0.324805 0.875000
Si Si5 0.609878 0.621321 0.628190
Si Si6 0.634655 0.392821 0.703253
O O1 0.094761 0.436502 0.200937
O O2 0.932971 0.074828 0.441138
O O3 0.607249 0.750000 0.125000
O O4 0.418511 0.650915 0.145292
O O5 0.605340 0.590642 0.213707
O O6 0.306857 0.238507 0.933938
O O7 0.654746 0.750000 0.625000
O O8 0.666964 0.523642 0.679006
O O9 0.478271 0.632338 0.656226
#
# Coordination Sequence:
#
# PCOD9560956 Si02
#       6
#     4   4  16   8  16  16
#     4   8  20  38  64  96 136 174 228 300 356 418
#     4  12  20  46  72 108 148 186 260 320 380 474
#     4  10  24  39  72  97 141 189 234 306 383 441
#     4  10  22  40  70  98 152 186 244 316 376 460
#     4  10  21  39  68  93 133 185 237 303 360 429
#     4  10  20  42  66 100 139 190 248 301 379 450
#
# _framework density 25.694792
#
# number of rings (size 3 to 8) (size 9 to 14) (size 15 to 20)
#    0.750    1.500    1.250    3.000    0.000    4.000 
#    0.000    5.000    0.000    0.000    0.000    0.000 
#    0.000    0.000    0.000    0.000    0.000    0.000 
#
# Total GULP energy -178464.120907 kJ/mol
# GULP energy per Si atom -5577.003778 kJ/mol
# Density = 2.563631 g / cm^3
# Si number density = 25.694792 Si / 1000 Ang^3
#
#
#
# Elastic Constant Matrix: (Units=GPa)
#
#
# Indices 1 2 3 4 5 6 
#
# 1 137.8367 14.6408 38.5793 0.0000 0.0000 0.0000
# 2 14.6408 137.8367 38.5793 0.0000 0.0000 0.0000
# 3 38.5793 38.5793 175.4079 0.0000 0.0000 0.0000
# 4 0.0000 0.0000 0.0000 17.4241 0.0000 0.0000
# 5 0.0000 0.0000 0.0000 0.0000 17.4241 0.0000
# 6 0.0000 0.0000 0.0000 0.0000 0.0000 2.9498
#
#
#
# Elastic Compliance Matrix: (Units=1/GPa)
#
#
# Indices 1 2 3 4 5 6 
#
# 1 0.007748 -0.000369 -0.001623 0.000000 0.000000 0.000000
# 2 -0.000369 0.007748 -0.001623 0.000000 0.000000 0.000000
# 3 -0.001623 -0.001623 0.006415 0.000000 0.000000 0.000000
# 4 0.000000 0.000000 0.000000 0.057392 0.000000 0.000000
# 5 0.000000 0.000000 0.000000 0.000000 0.057392 0.000000
# 6 0.000000 0.000000 0.000000 0.000000 0.000000 0.339009
#
#
# Mechanical properties :
#
#
# Convention : Reuss Voigt Hill
#
# Bulk Modulus (GPa) = 68.11079 70.52001 69.31540
# Shear Modulus (GPa) = 10.24952 31.51175 20.88063
#
# Velocity S-wave (km/s) = 1.99940 3.50578 2.85378
# Velocity P-wave (km/s) = 5.64759 6.62512 6.15579
#
# Compressibility (1/GPa) = 0.01468196
#
# Stress axis : x y z
#
# Youngs Moduli (GPa) = 129.05867 129.05867 155.88558
#
# Poissons Ratio (x) = 0.04759 0.25302
# Poissons Ratio (y) = 0.04759 0.25302
# Poissons Ratio (z) = 0.20947 0.20947
#
# Static dielectric constant tensor:
#      x y z
#    x 2.118730 0.000000 0.000000 
#    y 0.000000 2.118730 0.000000 
#    z 0.000000 0.000000 1.996360 
# 
# From -- ./inp_files/6104.got.cif
#   From: 2010.05.17/outbox.cif.g08.bks.cpg/sg122_4_cif.got.tgz:6104.got - 2010.05.20 11:37:33.
