data_PCOD9560985
_publ_section_title
;
Structure prediction by ZEFSAII (Michael W. Deem and Ramdas Pophale) SiO2 
 PCOD9560985
Probable space group: I -4 2 D
;
_chemical_formula_sum "Si O2"
_cell_formula_units_Z 80
_cell_length_a 11.084813
_cell_length_b 11.084813
_cell_length_c 36.143226
_cell_angle_alpha 90.000000
_cell_angle_beta 90.000000
_cell_angle_gamma 90.000000
_cell_volume 4441.029472
_symmetry_space_group_name_H-M "I -4 2 D"
_symmetry_group_IT_number 122
_symmetry_cell_setting 'tetragonal'
loop_
_space_group_symop_operation_xyz
x,y,z
y,-x,-z
-x,-y,z
-y,x,-z
x,1/2-y,1/4-z
-x,1/2+y,1/4-z
-y,1/2-x,1/4+z
y,1/2+x,1/4+z
1/2+x,1/2+y,1/2+z
1/2+y,1/2-x,1/2-z
1/2-x,1/2-y,1/2+z
1/2-y,1/2+x,1/2-z
1/2+x,-y,3/4-z
1/2-x,y,3/4-z
1/2-y,-x,3/4+z
1/2+y,x,3/4+z
loop_
_atom_site_type_symbol
_atom_site_label
_atom_site_fract_x
_atom_site_fract_y
_atom_site_fract_z
Si Si1 0.921489 0.113004 0.687000
Si Si2 0.570030 0.750000 0.125000
Si Si3 0.750000 0.026115 0.875000
Si Si4 0.120062 0.204783 0.888651
Si Si5 0.441035 0.805200 0.251708
Si Si6 0.101926 0.774821 0.833815
O O1 0.787274 0.079650 0.672828
O O2 0.917071 0.216483 0.717661
O O3 0.992148 0.163532 0.651095
O O4 0.000000 0.000000 0.700706
O O5 0.656179 0.829843 0.151141
O O6 0.817179 0.111283 0.845849
O O7 0.846051 0.935739 0.894376
O O8 0.250000 0.253869 0.875000
O O9 0.022643 0.215020 0.856328
O O10 0.577637 0.855201 0.250312
O O11 0.419578 0.738416 0.290504
#
# Coordination Sequence:
#
# PCOD9560985 Si02
#       6
#    16   8   8  16  16  16
#     4  12  23  39  63  96 130 161 209 267 324 380
#     4  11  21  38  64  90 121 167 208 260 316 381
#     4   9  23  38  64  90 115 169 218 260 300 367
#     4  10  21  36  62  91 117 161 215 259 305 378
#     4  11  25  41  62  96 133 169 205 264 336 389
#     4  11  21  41  64  87 128 167 217 260 314 382
#
# _framework density 18.013839999999998
#
# number of rings (size 3 to 8) (size 9 to 14) (size 15 to 20)
#    0.600    0.600    5.000    1.800    0.000    1.600 
#    0.000    0.000    0.000    0.000    0.000    0.000 
#    0.000    0.000    0.000    0.000    0.000    0.000 
#
# Total GULP energy -223172.027187 kJ/mol
# GULP energy per Si atom -5579.300680 kJ/mol
# Density = 1.797284 g / cm^3
# Si number density = 18.013840 Si / 1000 Ang^3
#
#
#
# Elastic Constant Matrix: (Units=GPa)
#
#
# Indices 1 2 3 4 5 6 
#
# 1 80.8762 13.9400 29.9442 0.0000 0.0000 0.0000
# 2 13.9400 80.8762 29.9442 0.0000 0.0000 0.0000
# 3 29.9442 29.9442 91.1358 0.0000 0.0000 0.0000
# 4 0.0000 0.0000 0.0000 14.7615 0.0000 0.0000
# 5 0.0000 0.0000 0.0000 0.0000 14.7615 0.0000
# 6 0.0000 0.0000 0.0000 0.0000 0.0000 -36.7095
#
#
#
# Elastic Compliance Matrix: (Units=1/GPa)
#
#
# Indices 1 2 3 4 5 6 
#
# 1 0.014124 -0.000815 -0.004373 0.000000 0.000000 0.000000
# 2 -0.000815 0.014124 -0.004373 0.000000 0.000000 0.000000
# 3 -0.004373 -0.004373 0.013846 0.000000 0.000000 0.000000
# 4 0.000000 0.000000 0.000000 0.067744 0.000000 0.000000
# 5 0.000000 0.000000 0.000000 0.000000 0.067744 0.000000
# 6 0.000000 0.000000 0.000000 0.000000 0.000000 -0.027241
#
#
# Mechanical properties :
#
#
# Convention : Reuss Voigt Hill
#
# Bulk Modulus (GPa) = 43.53061 44.50503 44.01782
# Shear Modulus (GPa) = 28.22929 10.50001 19.36465
#
# Velocity S-wave (km/s) = 3.96294 2.41692 3.28226
# Velocity P-wave (km/s) = 6.71993 5.70511 6.23321
#
# Compressibility (1/GPa) = 0.02297234
#
# Stress axis : x y z
#
# Youngs Moduli (GPa) = 70.80075 70.80075 72.22221
#
# Poissons Ratio (x) = 0.05773 0.31581
# Poissons Ratio (y) = 0.05773 0.31581
# Poissons Ratio (z) = 0.30960 0.30960
#
# Static dielectric constant tensor:
#      x y z
#    x 1.633580 0.000000 0.000000 
#    y 0.000000 1.633580 0.000000 
#    z 0.000000 0.000000 1.589050 
# 
# From -- ./inp_files/9449.got.cif
#   From: 2010.05.17/outbox.cif.g08.bks.cpg/sg122_5_cif.got.tgz:9449.got - 2010.05.20 11:37:33.
