data_PCOD9560580
_publ_section_title
;
Structure prediction by ZEFSAII (Michael W. Deem and Ramdas Pophale) SiO2 
 PCOD9560580
Probable space group: I -4 2 M
;
_chemical_formula_sum "Si O2"
_cell_formula_units_Z 72
_cell_length_a 15.493947
_cell_length_b 15.493947
_cell_length_c 15.927477
_cell_angle_alpha 90.000000
_cell_angle_beta 90.000000
_cell_angle_gamma 90.000000
_cell_volume 3823.588253
_symmetry_space_group_name_H-M "I -4 2 M"
_symmetry_group_IT_number 121
_symmetry_cell_setting 'tetragonal'
loop_
_space_group_symop_operation_xyz
x,y,z
y,-x,-z
-x,-y,z
-y,x,-z
x,-y,-z
-x,y,-z
-y,-x,z
y,x,z
1/2+x,1/2+y,1/2+z
1/2+y,1/2-x,1/2-z
1/2-x,1/2-y,1/2+z
1/2-y,1/2+x,1/2-z
1/2+x,1/2-y,1/2-z
1/2-x,1/2+y,1/2-z
1/2-y,1/2-x,1/2+z
1/2+y,1/2+x,1/2+z
loop_
_atom_site_type_symbol
_atom_site_label
_atom_site_fract_x
_atom_site_fract_y
_atom_site_fract_z
Si Si1 0.779964 0.000000 0.000000
Si Si2 0.711274 0.145588 0.112779
Si Si3 0.426965 0.573036 0.183544
Si Si4 0.953744 0.366976 0.264880
Si Si5 0.752712 0.533941 0.905814
Si Si6 0.926425 0.073576 0.880148
O O1 0.842518 0.038555 0.928204
O O2 0.724018 0.924595 0.959610
O O3 0.796170 0.203831 0.118166
O O4 0.693312 0.095821 0.199441
O O5 0.628974 0.205245 0.094713
O O6 0.500000 0.500000 0.177301
O O7 0.459054 0.660450 0.139462
O O8 0.409887 0.590114 0.282188
O O9 0.897920 0.454408 0.273964
O O10 0.974660 0.316821 0.350244
O O11 0.744071 0.500000 0.000000
O O12 0.000000 0.000000 0.886995
#
# Coordination Sequence:
#
# PCOD9560580 Si02
#       6
#     8  16   8  16  16   8
#     4  12  21  36  65  98 134 168 208 270 327 383
#     4  11  23  42  65  99 133 166 215 272 329 390
#     4  11  26  43  68  90 130 178 217 272 331 380
#     4   9  21  43  67  94 131 171 213 267 331 393
#     4  11  25  44  64  95 130 170 228 267 316 395
#     4  11  20  39  64  96 132 169 214 259 324 392
#
# _framework density 18.830480999999999
#
# number of rings (size 3 to 8) (size 9 to 14) (size 15 to 20)
#    0.000    1.333    3.333    1.333    4.667    2.667 
#    0.000    0.000    0.000    0.000    0.000    0.000 
#    0.000    0.000    0.000    0.000    0.000    0.000 
#
# Total GULP energy -201263.650667 kJ/mol
# GULP energy per Si atom -5590.656963 kJ/mol
# Density = 1.878762 g / cm^3
# Si number density = 18.830481 Si / 1000 Ang^3
#
#
#
# Elastic Constant Matrix: (Units=GPa)
#
#
# Indices 1 2 3 4 5 6 
#
# 1 87.8644 44.8563 63.1911 0.0000 0.0000 0.0000
# 2 44.8563 87.8662 63.1933 0.0000 0.0000 0.0000
# 3 63.1911 63.1933 149.3596 0.0000 0.0000 0.0000
# 4 0.0000 0.0000 0.0000 -1.9894 0.0000 0.0000
# 5 0.0000 0.0000 0.0000 0.0000 -2.1817 0.0000
# 6 0.0000 0.0000 0.0000 0.0000 0.0000 27.7203
#
#
#
# Elastic Compliance Matrix: (Units=1/GPa)
#
#
# Indices 1 2 3 4 5 6 
#
# 1 0.017935 -0.005316 -0.005338 0.000000 0.000000 0.000000
# 2 -0.005316 0.017935 -0.005339 0.000000 0.000000 0.000000
# 3 -0.005338 -0.005339 0.011213 0.000000 0.000000 0.000000
# 4 0.000000 0.000000 0.000000 -0.502654 0.000005 0.000000
# 5 0.000000 0.000000 0.000000 0.000005 -0.458353 0.000000
# 6 0.000000 0.000000 0.000000 0.000000 0.000000 0.036075
#
#
# Mechanical properties :
#
#
# Convention : Reuss Voigt Hill
#
# Bulk Modulus (GPa) = 66.24842 74.17462 70.21152
# Shear Modulus (GPa) = -5.94649 14.96647 4.50999
#
# Velocity S-wave (km/s) = -1.77898 2.82228 1.54927
# Velocity P-wave (km/s) = 5.57119 7.07789 6.36925
#
# Compressibility (1/GPa) = 0.01509470
#
# Stress axis : x y z
#
# Youngs Moduli (GPa) = 55.75811 55.75807 89.18481
#
# Poissons Ratio (x) = 0.29643 0.47611
# Poissons Ratio (y) = 0.29643 0.47614
# Poissons Ratio (z) = 0.29766 0.29768
#
# Static dielectric constant tensor:
#      x y z
#    x 1.640890 0.000000 0.000000 
#    y 0.000000 1.640900 0.000000 
#    z 0.000000 0.000000 1.617480 
# 
# From -- ./inp_files/5242.got.cif
#   From: 2010.05.17/outbox.cif.g08.bks.cpg/sg121_3_cif.got.tgz:5242.got - 2010.05.20 11:32:06.
