data_PCOD9560780
_publ_section_title
;
Structure prediction by ZEFSAII (Michael W. Deem and Ramdas Pophale) SiO2 
 PCOD9560780
Probable space group: I -4 2 D
;
_chemical_formula_sum "Si O2"
_cell_formula_units_Z 72
_cell_length_a 27.456921
_cell_length_b 27.456921
_cell_length_c 4.840906
_cell_angle_alpha 90.000000
_cell_angle_beta 90.000000
_cell_angle_gamma 90.000000
_cell_volume 3649.474370
_symmetry_space_group_name_H-M "I -4 2 D"
_symmetry_group_IT_number 122
_symmetry_cell_setting 'tetragonal'
loop_
_space_group_symop_operation_xyz
x,y,z
y,-x,-z
-x,-y,z
-y,x,-z
x,1/2-y,1/4-z
-x,1/2+y,1/4-z
-y,1/2-x,1/4+z
y,1/2+x,1/4+z
1/2+x,1/2+y,1/2+z
1/2+y,1/2-x,1/2-z
1/2-x,1/2-y,1/2+z
1/2-y,1/2+x,1/2-z
1/2+x,-y,3/4-z
1/2-x,y,3/4-z
1/2-y,-x,3/4+z
1/2+y,x,3/4+z
loop_
_atom_site_type_symbol
_atom_site_label
_atom_site_fract_x
_atom_site_fract_y
_atom_site_fract_z
Si Si1 0.159507 0.155506 0.474455
Si Si2 0.930240 0.907128 0.375249
Si Si3 0.750000 0.284685 0.875000
Si Si4 0.108385 0.035657 0.877692
Si Si5 0.099851 0.695393 0.223371
O O1 0.105396 0.140243 0.375107
O O2 0.181660 0.209399 0.476143
O O3 0.166929 0.139854 0.790781
O O4 0.191475 0.118947 0.285122
O O5 0.923444 0.928670 0.680988
O O6 0.982828 0.895616 0.254529
O O7 0.910680 0.951190 0.181769
O O8 0.730303 0.250000 0.625000
O O9 0.164562 0.051934 0.902218
O O10 0.096185 0.750000 0.125000
#
# Coordination Sequence:
#
# PCOD9560780 Si02
#       5
#    16  16   8  16  16
#     4  10  21  35  55  80 114 144 180 240 276 322
#     4  10  21  37  56  82 114 144 187 231 287 329
#     4  12  22  34  58  86 114 154 196 228 288 350
#     4  10  21  35  58  81 111 147 181 235 280 337
#     4  10  19  35  57  79 104 146 190 226 269 328
#
# _framework density 19.728867999999999
#
# number of rings (size 3 to 8) (size 9 to 14) (size 15 to 20)
#    0.000    1.778    0.000    5.333    0.000    2.667 
#    0.000    0.000   31.778    0.000    0.000    0.000 
#    0.000    0.000    0.000    0.000    0.000    0.000 
#
# Total GULP energy -200517.090958 kJ/mol
# GULP energy per Si atom -5569.919193 kJ/mol
# Density = 1.968396 g / cm^3
# Si number density = 19.728868 Si / 1000 Ang^3
#
#
#
# Elastic Constant Matrix: (Units=GPa)
#
#
# Indices 1 2 3 4 5 6 
#
# 1 96.9200 61.9753 1.1709 0.0000 0.0000 0.0000
# 2 61.9753 96.9200 1.1709 0.0000 0.0000 0.0000
# 3 1.1709 1.1709 79.6059 0.0000 0.0000 0.0000
# 4 0.0000 0.0000 0.0000 22.9778 0.0000 0.0000
# 5 0.0000 0.0000 0.0000 0.0000 22.9778 0.0000
# 6 0.0000 0.0000 0.0000 0.0000 0.0000 12.9310
#
#
#
# Elastic Compliance Matrix: (Units=1/GPa)
#
#
# Indices 1 2 3 4 5 6 
#
# 1 0.017456 -0.011161 -0.000093 0.000000 0.000000 0.000000
# 2 -0.011161 0.017456 -0.000093 0.000000 0.000000 0.000000
# 3 -0.000093 -0.000093 0.012565 0.000000 0.000000 0.000000
# 4 0.000000 0.000000 0.000000 0.043520 0.000000 0.000000
# 5 0.000000 0.000000 0.000000 0.000000 0.043520 0.000000
# 6 0.000000 0.000000 0.000000 0.000000 0.000000 0.077333
#
#
# Mechanical properties :
#
#
# Convention : Reuss Voigt Hill
#
# Bulk Modulus (GPa) = 40.34880 44.67557 42.51219
# Shear Modulus (GPa) = 20.59280 25.71926 23.15603
#
# Velocity S-wave (km/s) = 3.23428 3.61451 3.42967
# Velocity P-wave (km/s) = 5.86886 6.33352 6.10561
#
# Compressibility (1/GPa) = 0.02478388
#
# Stress axis : x y z
#
# Youngs Moduli (GPa) = 57.28786 57.28786 79.58867
#
# Poissons Ratio (x) = 0.63938 0.00737
# Poissons Ratio (y) = 0.63938 0.00737
# Poissons Ratio (z) = 0.00530 0.00530
#
# Static dielectric constant tensor:
#      x y z
#    x 1.719290 0.000000 0.000000 
#    y 0.000000 1.719290 0.000000 
#    z 0.000000 0.000000 1.691090 
# 
# From -- ./inp_files/1238.got.cif
#   From: 2010.05.17/outbox.cif.g08.bks.cpg/sg122_1_cif.got.tgz:1238.got - 2010.05.20 11:37:33.
