data_PCOD9560443
_publ_section_title
;
Structure prediction by ZEFSAII (Michael W. Deem and Ramdas Pophale) SiO2 
 PCOD9560443
Probable space group: I -4 2 M
;
_chemical_formula_sum "Si O2"
_cell_formula_units_Z 72
_cell_length_a 19.000577
_cell_length_b 19.000577
_cell_length_c 11.104617
_cell_angle_alpha 90.000000
_cell_angle_beta 90.000000
_cell_angle_gamma 90.000000
_cell_volume 4009.010221
_symmetry_space_group_name_H-M "I -4 2 M"
_symmetry_group_IT_number 121
_symmetry_cell_setting 'tetragonal'
loop_
_space_group_symop_operation_xyz
x,y,z
y,-x,-z
-x,-y,z
-y,x,-z
x,-y,-z
-x,y,-z
-y,-x,z
y,x,z
1/2+x,1/2+y,1/2+z
1/2+y,1/2-x,1/2-z
1/2-x,1/2-y,1/2+z
1/2-y,1/2+x,1/2-z
1/2+x,1/2-y,1/2-z
1/2-x,1/2+y,1/2-z
1/2-y,1/2-x,1/2+z
1/2+y,1/2+x,1/2+z
loop_
_atom_site_type_symbol
_atom_site_label
_atom_site_fract_x
_atom_site_fract_y
_atom_site_fract_z
Si Si1 0.237504 0.353144 0.128459
Si Si2 0.501226 0.613385 0.356726
Si Si3 0.728828 0.512187 0.817831
Si Si4 0.279566 0.836466 0.645653
Si Si5 0.389398 0.500000 0.000000
O O1 0.313566 0.313566 0.129339
O O2 0.242861 0.437693 0.134293
O O3 0.199045 0.327397 0.250687
O O4 0.203735 0.331037 0.998467
O O5 0.500000 0.613260 0.500000
O O6 0.435153 0.564848 0.317444
O O7 0.571651 0.571651 0.319079
O O8 0.499106 0.692421 0.310243
O O9 0.776323 0.580687 0.825101
O O10 0.661225 0.529998 0.899603
O O11 0.204589 0.795412 0.659246
O O12 0.439574 0.560427 0.951155
#
# Coordination Sequence:
#
# PCOD9560443 Si02
#       5
#    16  16  16  16   8
#     4  10  21  37  56  80 112 148 187 233 285 344
#     4   9  18  30  44  70 111 150 178 209 260 335
#     4  12  20  33  56  79 106 143 188 233 281 335
#     4  10  21  37  56  80 112 148 187 233 285 344
#     4  11  20  28  48  84 118 141 168 214 276 347
#
# _framework density 17.959546
#
# number of rings (size 3 to 8) (size 9 to 14) (size 15 to 20)
#    0.000    1.667    2.222    4.667    0.000    3.556 
#    0.000    4.444    0.000    0.667    0.000    3.111 
#    0.000    0.000    0.000    0.000    0.000    0.000 
#
# Total GULP energy -200519.921231 kJ/mol
# GULP energy per Si atom -5569.997812 kJ/mol
# Density = 1.791867 g / cm^3
# Si number density = 17.959546 Si / 1000 Ang^3
#
#
#
# Elastic Constant Matrix: (Units=GPa)
#
#
# Indices 1 2 3 4 5 6 
#
# 1 61.0508 10.7851 30.6483 0.0000 0.0000 0.0000
# 2 10.7851 61.0506 30.6483 0.0000 0.0000 0.0000
# 3 30.6483 30.6483 110.0011 0.0000 0.0000 0.0000
# 4 0.0000 0.0000 0.0000 25.2847 0.0000 0.0000
# 5 0.0000 0.0000 0.0000 0.0000 25.2839 0.0000
# 6 0.0000 0.0000 0.0000 0.0000 0.0000 14.5476
#
#
#
# Elastic Compliance Matrix: (Units=1/GPa)
#
#
# Indices 1 2 3 4 5 6 
#
# 1 0.019078 -0.000816 -0.005088 0.000000 0.000000 0.000000
# 2 -0.000816 0.019078 -0.005088 0.000000 0.000000 0.000000
# 3 -0.005088 -0.005088 0.011926 0.000000 0.000000 0.000000
# 4 0.000000 0.000000 0.000000 0.039550 0.000000 0.000000
# 5 0.000000 0.000000 0.000000 0.000000 0.039551 0.000000
# 6 0.000000 0.000000 0.000000 0.000000 0.000000 0.068740
#
#
# Mechanical properties :
#
#
# Convention : Reuss Voigt Hill
#
# Bulk Modulus (GPa) = 35.58978 41.80733 38.69855
# Shear Modulus (GPa) = 21.80796 23.69129 22.74962
#
# Velocity S-wave (km/s) = 3.48844 3.63595 3.56295
# Velocity P-wave (km/s) = 6.00710 6.39968 6.20650
#
# Compressibility (1/GPa) = 0.02809796
#
# Stress axis : x y z
#
# Youngs Moduli (GPa) = 52.41558 52.41539 83.84925
#
# Poissons Ratio (x) = 0.04277 0.42664
# Poissons Ratio (y) = 0.04277 0.42664
# Poissons Ratio (z) = 0.26670 0.26670
#
# Static dielectric constant tensor:
#      x y z
#    x 1.602290 0.000000 0.000000 
#    y 0.000000 1.602290 0.000000 
#    z 0.000000 0.000000 1.723060 
# 
# From -- ./inp_files/3046.got.cif
#   From: 2010.05.17/outbox.cif.g08.bks.cpg/sg121_2_cif.got.tgz:3046.got - 2010.05.20 11:32:06.
