data_PCOD9560678
_publ_section_title
;
Structure prediction by ZEFSAII (Michael W. Deem and Ramdas Pophale) SiO2 
 PCOD9560678
Probable space group: I -4 2 M
;
_chemical_formula_sum "Si O2"
_cell_formula_units_Z 40
_cell_length_a 12.000000
_cell_length_b 12.000000
_cell_length_c 30.000000
_cell_angle_alpha 90.000000
_cell_angle_beta 90.000000
_cell_angle_gamma 90.000000
_cell_volume 4320.000000
_symmetry_space_group_name_H-M "I -4 2 M"
_symmetry_group_IT_number 121
_symmetry_cell_setting 'tetragonal'
loop_
_space_group_symop_operation_xyz
x,y,z
y,-x,-z
-x,-y,z
-y,x,-z
x,-y,-z
-x,y,-z
-y,-x,z
y,x,z
1/2+x,1/2+y,1/2+z
1/2+y,1/2-x,1/2-z
1/2-x,1/2-y,1/2+z
1/2-y,1/2+x,1/2-z
1/2+x,1/2-y,1/2-z
1/2-x,1/2+y,1/2-z
1/2-y,1/2-x,1/2+z
1/2+y,1/2+x,1/2+z
loop_
_atom_site_type_symbol
_atom_site_label
_atom_site_fract_x
_atom_site_fract_y
_atom_site_fract_z
Si Si1 0.492551 0.317068 0.625266
Si Si2 0.600440 0.080507 0.604876
Si Si3 0.680907 0.503461 0.053534
Si Si4 0.209192 0.026694 0.773310
Si Si5 0.878471 0.703924 0.303858
O O1 0.589827 0.410174 0.624463
O O2 0.380656 0.380656 0.607821
O O3 0.547848 0.206389 0.603407
O O4 0.471458 0.289266 0.677653
O O5 0.706016 0.041287 0.575733
O O6 0.640996 0.062697 0.655928
O O7 0.500000 0.000000 0.593499
O O8 0.586832 0.413169 0.065612
O O9 0.624462 0.624462 0.065206
O O10 0.693803 0.500000 0.000000
O O11 0.095426 0.095426 0.769910
O O12 0.309741 0.114790 0.775286
O O13 0.228352 0.952142 0.730566
O O14 0.786542 0.786542 0.325106
#
# Coordination Sequence:
#
# PCOD9560678 Si02
#       5
#    16  16  16  16  16
#     4   9  18  35  56  75 104 149 196 235 274 331
#     4  11  23  35  53  85 117 148 183 235 286 344
#     4   9  19  39  66  90 115 150 187 228 285 351
#     4   9  19  32  49  71  98 143 193 236 280 329
#     4  10  21  34  49  72 104 143 186 230 277 327
#
# _framework density 9.2592590000000001
#
# number of rings (size 3 to 8) (size 9 to 14) (size 15 to 20)
#    0.000    2.400    0.000    4.200    5.600    3.200 
#    0.000    0.000    0.000    0.000    0.000    0.000 
#    0.000    6.400    0.000    0.000    0.000    0.000 
#
# Total GULP energy -222711.869049 kJ/mol
# GULP energy per Si atom -5567.796726 kJ/mol
# Density = 0.923818 g / cm^3
# Si number density = 9.259259 Si / 1000 Ang^3
#
#
#
# Elastic Constant Matrix: (Units=GPa)
#
#
# Indices 1 2 3 4 5 6 
#
# 1 109.5617 60.4770 37.2169 0.0000 0.0000 0.0000
# 2 60.4770 109.5636 37.2166 0.0000 0.0000 0.0000
# 3 37.2169 37.2166 32.1111 0.0000 0.0000 0.0000
# 4 0.0000 0.0000 0.0000 1.9627 0.0000 0.0000
# 5 0.0000 0.0000 0.0000 0.0000 1.9633 0.0000
# 6 0.0000 0.0000 0.0000 0.0000 0.0000 29.1607
#
#
#
# Elastic Compliance Matrix: (Units=1/GPa)
#
#
# Indices 1 2 3 4 5 6 
#
# 1 0.016155 -0.004218 -0.013836 0.000000 0.000000 0.000000
# 2 -0.004218 0.016155 -0.013835 0.000000 0.000000 0.000000
# 3 -0.013836 -0.013835 0.063212 0.000000 0.000000 0.000000
# 4 0.000000 0.000000 0.000000 0.509493 0.000000 0.000000
# 5 0.000000 0.000000 0.000000 0.000000 0.509358 0.000000
# 6 0.000000 0.000000 0.000000 0.000000 0.000000 0.034293
#
#
# Mechanical properties :
#
#
# Convention : Reuss Voigt Hill
#
# Bulk Modulus (GPa) = 31.50059 57.89526 44.69793
# Shear Modulus (GPa) = 4.08823 14.37240 9.23032
#
# Velocity S-wave (km/s) = 1.48743 2.78890 2.23499
# Velocity P-wave (km/s) = 4.47182 6.45770 5.55424
#
# Compressibility (1/GPa) = 0.03174544
#
# Stress axis : x y z
#
# Youngs Moduli (GPa) = 61.89956 61.90180 15.81978
#
# Poissons Ratio (x) = 0.26108 0.21888
# Poissons Ratio (y) = 0.26107 0.21886
# Poissons Ratio (z) = 0.85642 0.85640
#
# Static dielectric constant tensor:
#      x y z
#    x 1.683990 0.000000 0.000000 
#    y 0.000000 1.683990 0.000000 
#    z 0.000000 0.000000 1.615890 
# 
# From -- ./inp_files/8017.got.cif
#   From: 2010.05.17/outbox.ucp.g08.bks.cvg/sg121_5_cif.got.tgz:8017.got - 2010.06.11 11:35:03.
