data_PCOD9560684
_publ_section_title
;
Structure prediction by ZEFSAII (Michael W. Deem and Ramdas Pophale) SiO2 
 PCOD9560684
Probable space group: I -4 2 D
;
_chemical_formula_sum "Si O2"
_cell_formula_units_Z 32
_cell_length_a 7.628166
_cell_length_b 7.628166
_cell_length_c 19.668114
_cell_angle_alpha 90.000000
_cell_angle_beta 90.000000
_cell_angle_gamma 90.000000
_cell_volume 1144.466244
_symmetry_space_group_name_H-M "I -4 2 D"
_symmetry_group_IT_number 122
_symmetry_cell_setting 'tetragonal'
loop_
_space_group_symop_operation_xyz
x,y,z
y,-x,-z
-x,-y,z
-y,x,-z
x,1/2-y,1/4-z
-x,1/2+y,1/4-z
-y,1/2-x,1/4+z
y,1/2+x,1/4+z
1/2+x,1/2+y,1/2+z
1/2+y,1/2-x,1/2-z
1/2-x,1/2-y,1/2+z
1/2-y,1/2+x,1/2-z
1/2+x,-y,3/4-z
1/2-x,y,3/4-z
1/2-y,-x,3/4+z
1/2+y,x,3/4+z
loop_
_atom_site_type_symbol
_atom_site_label
_atom_site_fract_x
_atom_site_fract_y
_atom_site_fract_z
Si Si1 0.299131 0.944360 0.096605
Si Si2 0.757759 0.884372 0.225943
O O1 0.270767 0.750000 0.125000
O O2 0.500000 0.000000 0.110262
O O3 0.199984 0.072501 0.147892
O O4 0.287684 0.912900 0.016096
O O5 0.573647 0.781864 0.237480
#
# Coordination Sequence:
#
# PCOD9560684 Si02
#       2
#    16  16
#     4  10  16  27  46  76 104 129 176 232 269 314
#     4   9  15  26  43  74 101 128 173 226 267 313
#
# _framework density 27.960633000000001
#
# number of rings (size 3 to 8) (size 9 to 14) (size 15 to 20)
#    0.000    2.500   10.000    0.000    0.000    0.000 
#    0.000    0.000    0.000    0.000   78.000    0.000 
#    0.000    0.000    0.000    0.000    0.000    0.000 
#
# Total GULP energy -89365.966629 kJ/mol
# GULP energy per Si atom -5585.372914 kJ/mol
# Density = 2.789699 g / cm^3
# Si number density = 27.960633 Si / 1000 Ang^3
#
#
#
# Elastic Constant Matrix: (Units=GPa)
#
#
# Indices 1 2 3 4 5 6 
#
# 1 114.7359 18.6311 57.2881 0.0000 0.0000 0.0000
# 2 18.6311 114.7359 57.2881 0.0000 0.0000 0.0000
# 3 57.2881 57.2881 228.4990 0.0000 0.0000 0.0000
# 4 0.0000 0.0000 0.0000 18.0641 0.0000 0.0000
# 5 0.0000 0.0000 0.0000 0.0000 18.0641 0.0000
# 6 0.0000 0.0000 0.0000 0.0000 0.0000 14.9231
#
#
#
# Elastic Compliance Matrix: (Units=1/GPa)
#
#
# Indices 1 2 3 4 5 6 
#
# 1 0.009981 -0.000424 -0.002396 0.000000 0.000000 0.000000
# 2 -0.000424 0.009981 -0.002396 0.000000 0.000000 0.000000
# 3 -0.002396 -0.002396 0.005578 0.000000 0.000000 0.000000
# 4 0.000000 0.000000 0.000000 0.055358 0.000000 0.000000
# 5 0.000000 0.000000 0.000000 0.000000 0.055358 0.000000
# 6 0.000000 0.000000 0.000000 0.000000 0.000000 0.067010
#
#
# Mechanical properties :
#
#
# Convention : Reuss Voigt Hill
#
# Bulk Modulus (GPa) = 66.19475 80.48728 73.34102
# Shear Modulus (GPa) = 22.85873 31.86117 27.35995
#
# Velocity S-wave (km/s) = 2.86235 3.37931 3.13152
# Velocity P-wave (km/s) = 5.88640 6.63888 6.27393
#
# Compressibility (1/GPa) = 0.01510694
#
# Stress axis : x y z
#
# Youngs Moduli (GPa) = 100.19144 100.19143 179.28250
#
# Poissons Ratio (x) = 0.04252 0.42955
# Poissons Ratio (y) = 0.04252 0.42955
# Poissons Ratio (z) = 0.24005 0.24005
#
# Static dielectric constant tensor:
#      x y z
#    x 2.125820 0.000000 0.000000 
#    y 0.000000 2.125820 0.000000 
#    z 0.000000 0.000000 2.325010 
# 
# From -- ./inp_files/4811.got.cif
#   From: 2010.05.17/outbox.cif.g08.bks.cpg/sg122_3_cif.got.tgz:4811.got - 2010.05.20 11:37:33.
