data_PCOD9560304
_publ_section_title
;
Structure prediction by ZEFSAII (Michael W. Deem and Ramdas Pophale) SiO2 
 PCOD9560304
Probable space group: I -4 2 M
;
_chemical_formula_sum "Si O2"
_cell_formula_units_Z 128
_cell_length_a 20.162859
_cell_length_b 20.162859
_cell_length_c 17.650457
_cell_angle_alpha 90.000000
_cell_angle_beta 90.000000
_cell_angle_gamma 90.000000
_cell_volume 7175.632375
_symmetry_space_group_name_H-M "I -4 2 M"
_symmetry_group_IT_number 121
_symmetry_cell_setting 'tetragonal'
loop_
_space_group_symop_operation_xyz
x,y,z
y,-x,-z
-x,-y,z
-y,x,-z
x,-y,-z
-x,y,-z
-y,-x,z
y,x,z
1/2+x,1/2+y,1/2+z
1/2+y,1/2-x,1/2-z
1/2-x,1/2-y,1/2+z
1/2-y,1/2+x,1/2-z
1/2+x,1/2-y,1/2-z
1/2-x,1/2+y,1/2-z
1/2-y,1/2-x,1/2+z
1/2+y,1/2+x,1/2+z
loop_
_atom_site_type_symbol
_atom_site_label
_atom_site_fract_x
_atom_site_fract_y
_atom_site_fract_z
Si Si1 0.651573 0.245453 0.111063
Si Si2 0.388772 0.496730 0.082826
Si Si3 0.365763 0.064614 0.448640
Si Si4 0.100942 0.485056 0.779860
Si Si5 0.259177 0.364746 0.396275
Si Si6 0.492258 0.773620 0.324086
Si Si7 0.807040 0.573509 0.526992
Si Si8 0.172039 0.064987 0.279728
O O1 0.693250 0.306751 0.075225
O O2 0.596922 0.207057 0.062179
O O3 0.704944 0.188999 0.130598
O O4 0.616353 0.275619 0.184198
O O5 0.445193 0.554808 0.080692
O O6 0.428384 0.428384 0.092176
O O7 0.342652 0.513116 0.153080
O O8 0.356005 0.500000 0.000000
O O9 0.393429 0.045095 0.364781
O O10 0.408395 0.121320 0.491611
O O11 0.364505 0.000000 0.500000
O O12 0.063272 0.555519 0.772232
O O13 0.173043 0.494530 0.743501
O O14 0.330810 0.330810 0.384462
O O15 0.240133 0.434362 0.357502
O O16 0.243492 0.376403 0.485723
O O17 0.437823 0.801463 0.383728
O O18 0.467696 0.703880 0.292455
O O19 0.789040 0.500000 0.500000
O O20 0.105213 0.105213 0.263626
#
# Coordination Sequence:
#
# PCOD9560304 Si02
#       8
#    16  16  16  16  16  16  16  16
#     4   9  18  36  55  74 105 147 188 223 273 328
#     4   8  15  30  52  76 103 140 184 227 275 336
#     4  11  21  35  56  84 111 148 188 230 275 334
#     4  11  22  36  55  83 116 148 181 226 284 338
#     4   9  19  36  59  78 102 143 188 230 273 331
#     4  11  21  35  56  84 113 143 184 233 280 336
#     4   9  19  35  54  78 107 143 183 223 274 330
#     4  10  20  33  52  79 111 148 182 226 284 336
#
# _framework density 17.838149000000001
#
# number of rings (size 3 to 8) (size 9 to 14) (size 15 to 20)
#    0.000    2.250    1.250    3.375    0.000    2.750 
#    0.000    0.000    0.000    0.750    0.000    0.000 
#    0.000    0.000    0.000    0.000    0.000    0.000 
#
# Total GULP energy -356314.676248 kJ/mol
# GULP energy per Si atom -5567.416816 kJ/mol
# Density = 1.779755 g / cm^3
# Si number density = 17.838149 Si / 1000 Ang^3
#
#
#
# Elastic Constant Matrix: (Units=GPa)
#
#
# Indices 1 2 3 4 5 6 
#
# 1 66.0175 32.4263 36.4065 0.0000 0.0000 0.0000
# 2 32.4263 66.0160 36.4060 0.0000 0.0000 0.0000
# 3 36.4065 36.4060 87.6648 0.0000 0.0000 0.0000
# 4 0.0000 0.0000 0.0000 23.3800 0.0000 0.0000
# 5 0.0000 0.0000 0.0000 0.0000 23.3795 0.0000
# 6 0.0000 0.0000 0.0000 0.0000 0.0000 25.0607
#
#
#
# Elastic Compliance Matrix: (Units=1/GPa)
#
#
# Indices 1 2 3 4 5 6 
#
# 1 0.022216 -0.007554 -0.006089 0.000000 0.000000 0.000000
# 2 -0.007554 0.022216 -0.006089 0.000000 0.000000 0.000000
# 3 -0.006089 -0.006089 0.016464 0.000000 0.000000 0.000000
# 4 0.000000 0.000000 0.000000 0.042772 0.000000 0.000000
# 5 0.000000 0.000000 0.000000 0.000000 0.042772 0.000000
# 6 0.000000 0.000000 0.000000 0.000000 0.000000 0.039903
#
#
# Mechanical properties :
#
#
# Convention : Reuss Voigt Hill
#
# Bulk Modulus (GPa) = 46.65836 47.79731 47.22783
# Shear Modulus (GPa) = 21.46366 21.99468 21.72917
#
# Velocity S-wave (km/s) = 3.47255 3.51524 3.49396
# Velocity P-wave (km/s) = 6.50318 6.58248 6.54295
#
# Compressibility (1/GPa) = 0.02143239
#
# Stress axis : x y z
#
# Youngs Moduli (GPa) = 45.01300 45.01205 60.73722
#
# Poissons Ratio (x) = 0.34004 0.36982
# Poissons Ratio (y) = 0.34004 0.36982
# Poissons Ratio (z) = 0.27408 0.27407
#
# Static dielectric constant tensor:
#      x y z
#    x 1.630400 0.000000 0.000000 
#    y 0.000000 1.630410 0.000000 
#    z 0.000000 0.000000 1.649900 
# 
# From -- ./inp_files/5660.got.cif
#   From: 2010.05.17/outbox.cif.g08.bks.cpg/sg121_3_cif.got.tgz:5660.got - 2010.05.20 11:32:06.
