data_PCOD9560160
_publ_section_title
;
Structure prediction by ZEFSAII (Michael W. Deem and Ramdas Pophale) SiO2 
 PCOD9560160
Probable space group: I -4 2 M
;
_chemical_formula_sum "Si O2"
_cell_formula_units_Z 112
_cell_length_a 15.257331
_cell_length_b 15.257331
_cell_length_c 25.351346
_cell_angle_alpha 90.000000
_cell_angle_beta 90.000000
_cell_angle_gamma 90.000000
_cell_volume 5901.442213
_symmetry_space_group_name_H-M "I -4 2 M"
_symmetry_group_IT_number 121
_symmetry_cell_setting 'tetragonal'
loop_
_space_group_symop_operation_xyz
x,y,z
y,-x,-z
-x,-y,z
-y,x,-z
x,-y,-z
-x,y,-z
-y,-x,z
y,x,z
1/2+x,1/2+y,1/2+z
1/2+y,1/2-x,1/2-z
1/2-x,1/2-y,1/2+z
1/2-y,1/2+x,1/2-z
1/2+x,1/2-y,1/2-z
1/2-x,1/2+y,1/2-z
1/2-y,1/2-x,1/2+z
1/2+y,1/2+x,1/2+z
loop_
_atom_site_type_symbol
_atom_site_label
_atom_site_fract_x
_atom_site_fract_y
_atom_site_fract_z
Si Si1 0.508808 0.760061 0.440859
Si Si2 0.180837 0.041005 0.165167
Si Si3 0.378537 0.922738 0.422445
Si Si4 0.908509 0.769161 0.489040
Si Si5 0.616927 0.854897 0.900452
Si Si6 0.687462 0.169395 0.320169
Si Si7 0.369289 0.223330 0.296232
O O1 0.500000 0.728277 0.500000
O O2 0.479040 0.690905 0.397174
O O3 0.451159 0.848421 0.432092
O O4 0.605012 0.797900 0.429544
O O5 0.088621 0.088621 0.177309
O O6 0.256707 0.111653 0.178448
O O7 0.211765 0.950947 0.192244
O O8 0.315203 0.914739 0.472878
O O9 0.329524 0.894643 0.368770
O O10 0.402732 0.024650 0.413710
O O11 0.826725 0.826725 0.504488
O O12 0.899179 0.738359 0.428391
O O13 0.000000 0.817301 0.500000
O O14 0.645897 0.863620 0.839702
O O15 0.778520 0.221481 0.326948
O O16 0.687783 0.124703 0.263089
O O17 0.280985 0.280985 0.300573
#
# Coordination Sequence:
#
# PCOD9560160 Si02
#       7
#    16  16  16  16  16  16  16
#     4  10  18  33  52  81 113 141 172 214 267 326
#     4   9  20  37  56  81 111 145 182 224 276 328
#     4  10  19  31  54  76 107 139 171 220 267 332
#     4  10  20  33  50  74 100 136 177 217 267 318
#     4  10  20  32  51  78 107 137 173 218 270 321
#     4   9  19  35  54  78 105 137 178 224 273 323
#     4  10  21  36  56  78 106 144 185 229 274 325
#
# _framework density 18.978411999999999
#
# number of rings (size 3 to 8) (size 9 to 14) (size 15 to 20)
#    0.000    2.286    1.429    1.286    2.000    1.571 
#    0.000    0.714    0.000    0.000    0.000    2.000 
#    0.000    0.000    0.000    0.000    0.000    0.000 
#
# Total GULP energy -311990.935899 kJ/mol
# GULP energy per Si atom -5571.266712 kJ/mol
# Density = 1.893522 g / cm^3
# Si number density = 18.978412 Si / 1000 Ang^3
#
#
#
# Elastic Constant Matrix: (Units=GPa)
#
#
# Indices 1 2 3 4 5 6 
#
# 1 41.3401 8.5878 14.4610 0.0000 0.0000 0.0000
# 2 8.5878 41.3407 14.4608 0.0000 0.0000 0.0000
# 3 14.4610 14.4608 127.0750 0.0000 0.0000 0.0000
# 4 0.0000 0.0000 0.0000 17.2115 0.0000 0.0000
# 5 0.0000 0.0000 0.0000 0.0000 17.2110 0.0000
# 6 0.0000 0.0000 0.0000 0.0000 0.0000 17.6167
#
#
#
# Elastic Compliance Matrix: (Units=1/GPa)
#
#
# Indices 1 2 3 4 5 6 
#
# 1 0.025987 -0.004545 -0.002440 0.000000 0.000000 0.000000
# 2 -0.004545 0.025987 -0.002440 0.000000 0.000000 0.000000
# 3 -0.002440 -0.002440 0.008425 0.000000 0.000000 0.000000
# 4 0.000000 0.000000 0.000000 0.058101 0.000000 0.000000
# 5 0.000000 0.000000 0.000000 0.000000 0.058102 0.000000
# 6 0.000000 0.000000 0.000000 0.000000 0.000000 0.056764
#
#
# Mechanical properties :
#
#
# Convention : Reuss Voigt Hill
#
# Bulk Modulus (GPa) = 24.06807 31.64166 27.85487
# Shear Modulus (GPa) = 18.79232 21.89091 20.34162
#
# Velocity S-wave (km/s) = 3.15015 3.39995 3.27743
# Velocity P-wave (km/s) = 5.09319 5.66759 5.38805
#
# Compressibility (1/GPa) = 0.04154882
#
# Stress axis : x y z
#
# Youngs Moduli (GPa) = 38.48030 38.48097 118.69832
#
# Poissons Ratio (x) = 0.17489 0.28964
# Poissons Ratio (y) = 0.17489 0.28963
# Poissons Ratio (z) = 0.09390 0.09389
#
# Static dielectric constant tensor:
#      x y z
#    x 1.672070 0.000000 0.000000 
#    y 0.000000 1.672070 0.000000 
#    z 0.000000 0.000000 1.656720 
# 
# From -- ./inp_files/7222.got.cif
#   From: 2010.05.17/outbox.cif.g08.bks.cpg/sg121_4_cif.got.tgz:7222.got - 2010.05.20 11:32:06.
