data_PCOD9560669
_publ_section_title
;
Structure prediction by ZEFSAII (Michael W. Deem and Ramdas Pophale) SiO2 
 PCOD9560669
Probable space group: I -4 2 M
;
_chemical_formula_sum "Si O2"
_cell_formula_units_Z 56
_cell_length_a 20.028278
_cell_length_b 20.028278
_cell_length_c 7.694459
_cell_angle_alpha 90.000000
_cell_angle_beta 90.000000
_cell_angle_gamma 90.000000
_cell_volume 3086.493109
_symmetry_space_group_name_H-M "I -4 2 M"
_symmetry_group_IT_number 121
_symmetry_cell_setting 'tetragonal'
loop_
_space_group_symop_operation_xyz
x,y,z
y,-x,-z
-x,-y,z
-y,x,-z
x,-y,-z
-x,y,-z
-y,-x,z
y,x,z
1/2+x,1/2+y,1/2+z
1/2+y,1/2-x,1/2-z
1/2-x,1/2-y,1/2+z
1/2-y,1/2+x,1/2-z
1/2+x,1/2-y,1/2-z
1/2-x,1/2+y,1/2-z
1/2-y,1/2-x,1/2+z
1/2+y,1/2+x,1/2+z
loop_
_atom_site_type_symbol
_atom_site_label
_atom_site_fract_x
_atom_site_fract_y
_atom_site_fract_z
Si Si1 0.369420 0.254593 0.092855
Si Si2 0.000000 0.111481 0.000000
Si Si3 0.189317 0.925590 0.730790
Si Si4 0.850475 0.264286 0.022242
O O1 0.313116 0.313116 0.098459
O O2 0.425590 0.280175 0.961051
O O3 0.331710 0.190534 0.011372
O O4 0.386150 0.237972 0.291481
O O5 0.012301 0.155244 0.172079
O O6 0.063787 0.063787 0.974232
O O7 0.130772 0.869229 0.724890
O O8 0.244934 0.898236 0.864282
O O9 0.793837 0.206164 0.025081
#
# Coordination Sequence:
#
# PCOD9560669 Si02
#       4
#    16   8  16  16
#     4   9  14  21  36  59  82  97 115 156 217 279
#     4   9  18  32  46  56  74 118 174 205 210 222
#     4   9  16  26  40  56  76 103 136 179 219 245
#     4   9  14  21  36  59  82  97 115 156 217 279
#
# _framework density 18.143567999999998
#
# number of rings (size 3 to 8) (size 9 to 14) (size 15 to 20)
#    0.000    3.000    2.857    0.000    0.000    0.000 
#    0.000    1.429    0.000    5.143    0.000   16.000 
#    0.000    0.000    0.000    0.000    0.000    4.286 
#
# Total GULP energy -156005.258054 kJ/mol
# GULP energy per Si atom -5571.616359 kJ/mol
# Density = 1.810227 g / cm^3
# Si number density = 18.143568 Si / 1000 Ang^3
#
#
#
# Elastic Constant Matrix: (Units=GPa)
#
#
# Indices 1 2 3 4 5 6 
#
# 1 32.6569 20.0213 4.9308 0.0000 0.0000 0.0000
# 2 20.0213 32.6569 4.9310 0.0000 0.0000 0.0000
# 3 4.9308 4.9310 73.3857 0.0000 0.0000 0.0000
# 4 0.0000 0.0000 0.0000 17.8489 0.0000 0.0000
# 5 0.0000 0.0000 0.0000 0.0000 17.8493 0.0000
# 6 0.0000 0.0000 0.0000 0.0000 0.0000 1.8368
#
#
#
# Elastic Compliance Matrix: (Units=1/GPa)
#
#
# Indices 1 2 3 4 5 6 
#
# 1 0.049183 -0.029958 -0.001292 0.000000 0.000000 0.000000
# 2 -0.029958 0.049183 -0.001292 0.000000 0.000000 0.000000
# 3 -0.001292 -0.001292 0.013800 0.000000 0.000000 0.000000
# 4 0.000000 0.000000 0.000000 0.056026 0.000000 0.000000
# 5 0.000000 0.000000 0.000000 0.000000 0.056024 0.000000
# 6 0.000000 0.000000 0.000000 0.000000 0.000000 0.544438
#
#
# Mechanical properties :
#
#
# Convention : Reuss Voigt Hill
#
# Bulk Modulus (GPa) = 21.23899 22.05175 21.64537
# Shear Modulus (GPa) = 5.88629 14.76144 10.32386
#
# Velocity S-wave (km/s) = 1.80314 2.85545 2.38798
# Velocity P-wave (km/s) = 4.00831 4.80123 4.42258
#
# Compressibility (1/GPa) = 0.04708322
#
# Stress axis : x y z
#
# Youngs Moduli (GPa) = 20.33215 20.33217 72.46262
#
# Poissons Ratio (x) = 0.60911 0.09359
# Poissons Ratio (y) = 0.60911 0.09361
# Poissons Ratio (z) = 0.02626 0.02627
#
# Static dielectric constant tensor:
#      x y z
#    x 1.628120 0.000000 0.000000 
#    y 0.000000 1.628120 0.000000 
#    z 0.000000 0.000000 1.660550 
# 
# From -- ./inp_files/1505.got.cif
#   From: 2010.05.17/outbox.cif.g08.bks.cpg/sg121_1_cif.got.tgz:1505.got - 2010.05.20 11:32:06.
