data_PCOD9560575
_publ_section_title
;
Structure prediction by ZEFSAII (Michael W. Deem and Ramdas Pophale) SiO2 
 PCOD9560575
Probable space group: I -4 2 M
;
_chemical_formula_sum "Si O2"
_cell_formula_units_Z 64
_cell_length_a 28.744969
_cell_length_b 28.744969
_cell_length_c 5.020079
_cell_angle_alpha 90.000000
_cell_angle_beta 90.000000
_cell_angle_gamma 90.000000
_cell_volume 4147.956954
_symmetry_space_group_name_H-M "I -4 2 M"
_symmetry_group_IT_number 121
_symmetry_cell_setting 'tetragonal'
loop_
_space_group_symop_operation_xyz
x,y,z
y,-x,-z
-x,-y,z
-y,x,-z
x,-y,-z
-x,y,-z
-y,-x,z
y,x,z
1/2+x,1/2+y,1/2+z
1/2+y,1/2-x,1/2-z
1/2-x,1/2-y,1/2+z
1/2-y,1/2+x,1/2-z
1/2+x,1/2-y,1/2-z
1/2-x,1/2+y,1/2-z
1/2-y,1/2-x,1/2+z
1/2+y,1/2+x,1/2+z
loop_
_atom_site_type_symbol
_atom_site_label
_atom_site_fract_x
_atom_site_fract_y
_atom_site_fract_z
Si Si1 0.444610 0.314926 0.970944
Si Si2 0.951084 0.951084 0.132662
Si Si3 0.270612 0.190949 0.165746
Si Si4 0.581974 0.581974 0.143485
Si Si5 0.117288 0.801503 0.042398
O O1 0.409435 0.290879 0.181910
O O2 0.500000 0.304286 0.000000
O O3 0.435966 0.368276 0.053065
O O4 0.422887 0.310242 0.677270
O O5 0.917899 0.917899 0.963209
O O6 0.949551 0.949551 0.446201
O O7 0.000000 0.938513 0.000000
O O8 0.231657 0.231657 0.174856
O O9 0.292687 0.190384 0.456721
O O10 0.242395 0.146836 0.061431
O O11 0.155346 0.844655 0.069121
#
# Coordination Sequence:
#
# PCOD9560575 Si02
#       5
#    16   8  16   8  16
#     4  12  23  35  49  65  85 118 156 192 236 280
#     4  11  22  34  46  58  70  87 120 179 244 289
#     4   9  17  29  49  74  93 110 130 165 221 291
#     4  12  22  37  46  60  74 105 142 191 228 273
#     4  11  20  36  51  68  91 114 144 184 238 283
#
# _framework density 15.429283
#
# number of rings (size 3 to 8) (size 9 to 14) (size 15 to 20)
#    0.000    1.125    2.500    6.000    0.000    5.000 
#    0.000    0.000    0.000    0.000    0.000    0.000 
#    0.000    0.000    0.000    0.000    0.000    0.000 
#
# Total GULP energy -178213.301652 kJ/mol
# GULP energy per Si atom -5569.165677 kJ/mol
# Density = 1.539417 g / cm^3
# Si number density = 15.429283 Si / 1000 Ang^3
#
#
#
# Elastic Constant Matrix: (Units=GPa)
#
#
# Indices 1 2 3 4 5 6 
#
# 1 30.3635 14.2805 -7.1097 0.0000 0.0000 0.0000
# 2 14.2805 30.3633 -7.1098 0.0000 0.0000 0.0000
# 3 -7.1097 -7.1098 53.9932 0.0000 0.0000 0.0000
# 4 0.0000 0.0000 0.0000 20.7035 0.0000 0.0000
# 5 0.0000 0.0000 0.0000 0.0000 20.7034 0.0000
# 6 0.0000 0.0000 0.0000 0.0000 0.0000 14.1481
#
#
#
# Elastic Compliance Matrix: (Units=1/GPa)
#
#
# Indices 1 2 3 4 5 6 
#
# 1 0.042779 -0.019399 0.003079 0.000000 0.000000 0.000000
# 2 -0.019399 0.042779 0.003079 0.000000 0.000000 0.000000
# 3 0.003079 0.003079 0.019332 0.000000 0.000000 0.000000
# 4 0.000000 0.000000 0.000000 0.048301 0.000000 0.000000
# 5 0.000000 0.000000 0.000000 0.000000 0.048301 0.000000
# 6 0.000000 0.000000 0.000000 0.000000 0.000000 0.070681
#
#
# Mechanical properties :
#
#
# Convention : Reuss Voigt Hill
#
# Bulk Modulus (GPa) = 12.75408 12.76024 12.75716
# Shear Modulus (GPa) = 15.39450 18.75493 17.07471
#
# Velocity S-wave (km/s) = 3.16214 3.49024 3.33023
# Velocity P-wave (km/s) = 4.64933 4.95283 4.80348
#
# Compressibility (1/GPa) = 0.07840626
#
# Stress axis : x y z
#
# Youngs Moduli (GPa) = 23.37603 23.37585 51.72867
#
# Poissons Ratio (x) = 0.45347 -0.15925
# Poissons Ratio (y) = 0.45347 -0.15926
# Poissons Ratio (z) = -0.07196 -0.07197
#
# Static dielectric constant tensor:
#      x y z
#    x 1.561520 0.000000 0.000000 
#    y 0.000000 1.561520 0.000000 
#    z 0.000000 0.000000 1.642590 
# 
# From -- ./inp_files/509.got.cif
#   From: 2010.05.17/outbox.cif.g08.bks.cpg/sg121_1_cif.got.tgz:509.got - 2010.05.20 11:32:06.
