data_PCOD9560195
_publ_section_title
;
Structure prediction by ZEFSAII (Michael W. Deem and Ramdas Pophale) SiO2 
 PCOD9560195
Probable space group: I -4 2 M
;
_chemical_formula_sum "Si O2"
_cell_formula_units_Z 64
_cell_length_a 17.534399
_cell_length_b 17.534399
_cell_length_c 10.640465
_cell_angle_alpha 90.000000
_cell_angle_beta 90.000000
_cell_angle_gamma 90.000000
_cell_volume 3271.465744
_symmetry_space_group_name_H-M "I -4 2 M"
_symmetry_group_IT_number 121
_symmetry_cell_setting 'tetragonal'
loop_
_space_group_symop_operation_xyz
x,y,z
y,-x,-z
-x,-y,z
-y,x,-z
x,-y,-z
-x,y,-z
-y,-x,z
y,x,z
1/2+x,1/2+y,1/2+z
1/2+y,1/2-x,1/2-z
1/2-x,1/2-y,1/2+z
1/2-y,1/2+x,1/2-z
1/2+x,1/2-y,1/2-z
1/2-x,1/2+y,1/2-z
1/2-y,1/2-x,1/2+z
1/2+y,1/2+x,1/2+z
loop_
_atom_site_type_symbol
_atom_site_label
_atom_site_fract_x
_atom_site_fract_y
_atom_site_fract_z
Si Si1 0.893337 0.571324 0.737467
Si Si2 0.849941 0.586460 0.002123
Si Si3 0.496652 0.628383 0.360308
Si Si4 0.056518 0.183289 0.608103
O O1 0.898301 0.479864 0.740329
O O2 0.867377 0.599172 0.600349
O O3 0.847052 0.605307 0.855276
O O4 0.766906 0.579919 0.062857
O O5 0.883957 0.500000 0.000000
O O6 0.500000 0.663232 0.500000
O O7 0.417520 0.582481 0.342866
O O8 0.562452 0.562452 0.360020
O O9 0.514442 0.682185 0.242669
O O10 0.129016 0.129016 0.617224
O O11 0.000000 0.152627 0.500000
#
# Coordination Sequence:
#
# PCOD9560195 Si02
#       4
#    16  16  16  16
#     4   9  16  30  53  74  92 117 151 193 244 296
#     4   9  18  31  47  72  98 121 156 200 238 281
#     4   8  14  26  45  67  90 121 164 207 240 273
#     4  10  19  31  47  69  99 131 164 201 239 281
#
# _framework density 19.563096000000002
#
# number of rings (size 3 to 8) (size 9 to 14) (size 15 to 20)
#    0.000    3.000    0.000    2.250    0.000    4.250 
#    0.000    8.750    0.000    0.000    0.000    0.000 
#    0.000    0.000    0.000    0.000    0.000    0.000 
#
# Total GULP energy -178234.644638 kJ/mol
# GULP energy per Si atom -5569.832645 kJ/mol
# Density = 1.951857 g / cm^3
# Si number density = 19.563096 Si / 1000 Ang^3
#
#
#
# Elastic Constant Matrix: (Units=GPa)
#
#
# Indices 1 2 3 4 5 6 
#
# 1 35.6127 7.0593 34.0526 0.0000 0.0000 0.0000
# 2 7.0593 35.6122 34.0526 0.0000 0.0000 0.0000
# 3 34.0526 34.0526 172.9786 0.0000 0.0000 0.0000
# 4 0.0000 0.0000 0.0000 20.3690 0.0000 0.0000
# 5 0.0000 0.0000 0.0000 0.0000 20.3693 0.0000
# 6 0.0000 0.0000 0.0000 0.0000 0.0000 9.6087
#
#
#
# Elastic Compliance Matrix: (Units=1/GPa)
#
#
# Indices 1 2 3 4 5 6 
#
# 1 0.034596 -0.000426 -0.006727 0.000000 0.000000 0.000000
# 2 -0.000426 0.034597 -0.006727 0.000000 0.000000 0.000000
# 3 -0.006727 -0.006727 0.008430 0.000000 0.000000 0.000000
# 4 0.000000 0.000000 0.000000 0.049094 0.000000 0.000000
# 5 0.000000 0.000000 0.000000 0.000000 0.049094 0.000000
# 6 0.000000 0.000000 0.000000 0.000000 0.000000 0.104072
#
#
# Mechanical properties :
#
#
# Convention : Reuss Voigt Hill
#
# Bulk Modulus (GPa) = 20.05451 43.83695 31.94573
# Shear Modulus (GPa) = 15.41958 21.33867 18.37913
#
# Velocity S-wave (km/s) = 2.81053 3.30625 3.06842
# Velocity P-wave (km/s) = 4.56131 6.08537 5.37760
#
# Compressibility (1/GPa) = 0.04986409
#
# Stress axis : x y z
#
# Youngs Moduli (GPa) = 28.90469 28.90417 118.62960
#
# Poissons Ratio (x) = 0.01230 0.79801
# Poissons Ratio (y) = 0.01230 0.79802
# Poissons Ratio (z) = 0.19444 0.19444
#
# Static dielectric constant tensor:
#      x y z
#    x 1.691090 0.000000 0.000000 
#    y 0.000000 1.691090 0.000000 
#    z 0.000000 0.000000 1.782160 
# 
# From -- ./inp_files/1558.got.cif
#   From: 2010.05.17/outbox.cif.g08.bks.cpg/sg121_1_cif.got.tgz:1558.got - 2010.05.20 11:32:06.
