data_PCOD9560953
_publ_section_title
;
Structure prediction by ZEFSAII (Michael W. Deem and Ramdas Pophale) SiO2 
 PCOD9560953
Probable space group: I -4 2 D
;
_chemical_formula_sum "Si O2"
_cell_formula_units_Z 104
_cell_length_a 16.763548
_cell_length_b 16.763548
_cell_length_c 17.394592
_cell_angle_alpha 90.000000
_cell_angle_beta 90.000000
_cell_angle_gamma 90.000000
_cell_volume 4888.168085
_symmetry_space_group_name_H-M "I -4 2 D"
_symmetry_group_IT_number 122
_symmetry_cell_setting 'tetragonal'
loop_
_space_group_symop_operation_xyz
x,y,z
y,-x,-z
-x,-y,z
-y,x,-z
x,1/2-y,1/4-z
-x,1/2+y,1/4-z
-y,1/2-x,1/4+z
y,1/2+x,1/4+z
1/2+x,1/2+y,1/2+z
1/2+y,1/2-x,1/2-z
1/2-x,1/2-y,1/2+z
1/2-y,1/2+x,1/2-z
1/2+x,-y,3/4-z
1/2-x,y,3/4-z
1/2-y,-x,3/4+z
1/2+y,x,3/4+z
loop_
_atom_site_type_symbol
_atom_site_label
_atom_site_fract_x
_atom_site_fract_y
_atom_site_fract_z
Si Si1 0.883050 0.852660 0.964572
Si Si2 0.188142 0.373709 0.607840
Si Si3 0.250000 0.254423 0.375000
Si Si4 0.279738 0.639169 0.994437
Si Si5 0.072449 0.459681 0.499308
Si Si6 0.503258 0.698810 0.334768
Si Si7 0.340877 0.981778 0.854535
O O1 0.806465 0.810638 0.927042
O O2 0.954921 0.812606 0.917344
O O3 0.876599 0.945982 0.945812
O O4 0.902370 0.841931 0.053694
O O5 0.181728 0.295541 0.551359
O O6 0.136835 0.347746 0.681381
O O7 0.144223 0.437567 0.554582
O O8 0.266738 0.415581 0.645090
O O9 0.303850 0.204471 0.316923
O O10 0.259461 0.553651 0.031043
O O11 0.030793 0.383236 0.458055
O O12 0.107926 0.515393 0.431993
O O13 0.000000 0.500000 0.543248
O O14 0.250000 0.000875 0.875000
#
# Coordination Sequence:
#
# PCOD9560953 Si02
#       7
#    16  16   8  16  16  16  16
#     4  10  22  35  64  85 129 174 207 256 331 384
#     4  10  20  43  66  89 131 173 212 268 337 397
#     4  10  20  42  58  96 130 162 218 280 304 394
#     4   9  21  40  67  92 123 174 216 264 338 380
#     4  10  23  41  61  93 133 166 214 270 323 389
#     4   9  20  40  62  90 126 165 210 268 318 390
#     4  11  23  39  59  94 128 171 216 262 327 401
#
# _framework density 21.275863000000001
#
# number of rings (size 3 to 8) (size 9 to 14) (size 15 to 20)
#    0.000    2.154    0.769    1.846    6.462    0.000 
#   13.846    1.538    0.000    0.000    0.000    0.000 
#    0.000    0.000    0.000    0.000    0.000    0.000 
#
# Total GULP energy -289664.104107 kJ/mol
# GULP energy per Si atom -5570.463541 kJ/mol
# Density = 2.122744 g / cm^3
# Si number density = 21.275863 Si / 1000 Ang^3
#
#
#
# Elastic Constant Matrix: (Units=GPa)
#
#
# Indices 1 2 3 4 5 6 
#
# 1 34.5232 11.6806 25.2325 0.0000 0.0000 0.0000
# 2 11.6806 34.5232 25.2325 0.0000 0.0000 0.0000
# 3 25.2325 25.2325 115.9715 0.0000 0.0000 0.0000
# 4 0.0000 0.0000 0.0000 15.5753 0.0000 0.0000
# 5 0.0000 0.0000 0.0000 0.0000 15.5753 0.0000
# 6 0.0000 0.0000 0.0000 0.0000 0.0000 28.7031
#
#
#
# Elastic Compliance Matrix: (Units=1/GPa)
#
#
# Indices 1 2 3 4 5 6 
#
# 1 0.036084 -0.007694 -0.006177 0.000000 0.000000 0.000000
# 2 -0.007694 0.036084 -0.006177 0.000000 0.000000 0.000000
# 3 -0.006177 -0.006177 0.011311 0.000000 0.000000 0.000000
# 4 0.000000 0.000000 0.000000 0.064204 0.000000 0.000000
# 5 0.000000 0.000000 0.000000 0.000000 0.064204 0.000000
# 6 0.000000 0.000000 0.000000 0.000000 0.000000 0.034839
#
#
# Mechanical properties :
#
#
# Convention : Reuss Voigt Hill
#
# Bulk Modulus (GPa) = 23.05065 34.36769 28.70917
# Shear Modulus (GPa) = 16.59568 20.16221 18.37894
#
# Velocity S-wave (km/s) = 2.79592 3.08174 2.94230
# Velocity P-wave (km/s) = 4.61309 5.37134 5.00659
#
# Compressibility (1/GPa) = 0.04338272
#
# Stress axis : x y z
#
# Youngs Moduli (GPa) = 27.71317 27.71317 88.41181
#
# Poissons Ratio (x) = 0.21323 0.54611
# Poissons Ratio (y) = 0.21323 0.54611
# Poissons Ratio (z) = 0.17118 0.17118
#
# Static dielectric constant tensor:
#      x y z
#    x 1.795470 0.000000 0.000000 
#    y 0.000000 1.795470 0.000000 
#    z 0.000000 0.000000 1.698710 
# 
# From -- ./inp_files/6396.got.cif
#   From: 2010.05.17/outbox.cif.g08.bks.cpg/sg122_4_cif.got.tgz:6396.got - 2010.05.20 11:37:33.
