data_PCOD9560492
_publ_section_title
;
Structure prediction by ZEFSAII (Michael W. Deem and Ramdas Pophale) SiO2 
 PCOD9560492
Probable space group: I -4 2 M
;
_chemical_formula_sum "Si O2"
_cell_formula_units_Z 48
_cell_length_a 16.557048
_cell_length_b 16.557048
_cell_length_c 7.780230
_cell_angle_alpha 90.000000
_cell_angle_beta 90.000000
_cell_angle_gamma 90.000000
_cell_volume 2132.839875
_symmetry_space_group_name_H-M "I -4 2 M"
_symmetry_group_IT_number 121
_symmetry_cell_setting 'tetragonal'
loop_
_space_group_symop_operation_xyz
x,y,z
y,-x,-z
-x,-y,z
-y,x,-z
x,-y,-z
-x,y,-z
-y,-x,z
y,x,z
1/2+x,1/2+y,1/2+z
1/2+y,1/2-x,1/2-z
1/2-x,1/2-y,1/2+z
1/2-y,1/2+x,1/2-z
1/2+x,1/2-y,1/2-z
1/2-x,1/2+y,1/2-z
1/2-y,1/2-x,1/2+z
1/2+y,1/2+x,1/2+z
loop_
_atom_site_type_symbol
_atom_site_label
_atom_site_fract_x
_atom_site_fract_y
_atom_site_fract_z
Si Si1 0.437197 0.788545 0.624440
Si Si2 0.158546 0.713071 0.447161
Si Si3 0.548063 0.676350 0.827461
O O1 0.500000 0.834196 0.500000
O O2 0.356434 0.782858 0.513187
O O3 0.403289 0.821037 0.805767
O O4 0.485765 0.710086 0.688745
O O5 0.212673 0.787328 0.377366
O O6 0.106099 0.751254 0.602616
O O7 0.604476 0.604476 0.765836
O O8 0.500000 0.651172 0.000000
#
# Coordination Sequence:
#
# PCOD9560492 Si02
#       3
#    16  16  16
#     4  11  22  36  62  95 126 161 219 280 328 380
#     4  10  21  40  64  90 127 179 230 270 316 395
#     4   9  20  39  64  95 133 176 221 273 333 395
#
# _framework density 22.505203999999999
#
# number of rings (size 3 to 8) (size 9 to 14) (size 15 to 20)
#    0.000    2.000    0.000    3.000    0.000    7.000 
#    0.000    0.000    0.000   57.000    0.000   11.667 
#    0.000    0.000    0.000    0.000    0.000    0.000 
#
# Total GULP energy -133813.804975 kJ/mol
# GULP energy per Si atom -5575.575207 kJ/mol
# Density = 2.245398 g / cm^3
# Si number density = 22.505204 Si / 1000 Ang^3
#
#
#
# Elastic Constant Matrix: (Units=GPa)
#
#
# Indices 1 2 3 4 5 6 
#
# 1 96.7344 59.0630 39.4536 0.0000 0.0000 0.0000
# 2 59.0630 96.7305 39.4530 0.0000 0.0000 0.0000
# 3 39.4536 39.4530 111.5625 0.0000 0.0000 0.0000
# 4 0.0000 0.0000 0.0000 30.9328 0.0000 0.0000
# 5 0.0000 0.0000 0.0000 0.0000 30.9337 0.0000
# 6 0.0000 0.0000 0.0000 0.0000 0.0000 43.3026
#
#
#
# Elastic Compliance Matrix: (Units=1/GPa)
#
#
# Indices 1 2 3 4 5 6 
#
# 1 0.017183 -0.009364 -0.002765 0.000000 0.000000 0.000000
# 2 -0.009364 0.017183 -0.002765 0.000000 0.000000 0.000000
# 3 -0.002765 -0.002765 0.010919 0.000000 0.000000 0.000000
# 4 0.000000 0.000000 0.000000 0.032328 0.000000 0.000000
# 5 0.000000 0.000000 0.000000 0.000000 0.032327 0.000000
# 6 0.000000 0.000000 0.000000 0.000000 0.000000 0.023093
#
#
# Mechanical properties :
#
#
# Convention : Reuss Voigt Hill
#
# Bulk Modulus (GPa) = 64.52890 64.55186 64.54038
# Shear Modulus (GPa) = 29.76406 32.17101 30.96754
#
# Velocity S-wave (km/s) = 3.64062 3.78496 3.71349
# Velocity P-wave (km/s) = 6.81229 6.91713 6.86491
#
# Compressibility (1/GPa) = 0.01549693
#
# Stress axis : x y z
#
# Youngs Moduli (GPa) = 58.19850 58.19602 91.58038
#
# Poissons Ratio (x) = 0.54493 0.25323
# Poissons Ratio (y) = 0.54496 0.25324
# Poissons Ratio (z) = 0.16093 0.16093
#
# Static dielectric constant tensor:
#      x y z
#    x 1.817910 0.000000 0.000000 
#    y 0.000000 1.817920 0.000000 
#    z 0.000000 0.000000 1.915690 
# 
# From -- ./inp_files/1139.got.cif
#   From: 2010.05.17/outbox.cif.g08.bks.cpg/sg121_1_cif.got.tgz:1139.got - 2010.05.20 11:32:06.
