data_PCOD9560957
_publ_section_title
;
Structure prediction by ZEFSAII (Michael W. Deem and Ramdas Pophale) SiO2 
 PCOD9560957
Probable space group: I -4 2 D
;
_chemical_formula_sum "Si O2"
_cell_formula_units_Z 64
_cell_length_a 13.973111
_cell_length_b 13.973111
_cell_length_c 13.985939
_cell_angle_alpha 90.000000
_cell_angle_beta 90.000000
_cell_angle_gamma 90.000000
_cell_volume 2730.724255
_symmetry_space_group_name_H-M "I -4 2 D"
_symmetry_group_IT_number 122
_symmetry_cell_setting 'tetragonal'
loop_
_space_group_symop_operation_xyz
x,y,z
y,-x,-z
-x,-y,z
-y,x,-z
x,1/2-y,1/4-z
-x,1/2+y,1/4-z
-y,1/2-x,1/4+z
y,1/2+x,1/4+z
1/2+x,1/2+y,1/2+z
1/2+y,1/2-x,1/2-z
1/2-x,1/2-y,1/2+z
1/2-y,1/2+x,1/2-z
1/2+x,-y,3/4-z
1/2-x,y,3/4-z
1/2-y,-x,3/4+z
1/2+y,x,3/4+z
loop_
_atom_site_type_symbol
_atom_site_label
_atom_site_fract_x
_atom_site_fract_y
_atom_site_fract_z
Si Si1 0.469594 0.152017 0.894850
Si Si2 0.842246 0.331426 0.943753
Si Si3 0.845474 0.101374 0.928294
Si Si4 0.488516 0.636432 0.954929
O O1 0.562887 0.084200 0.890046
O O2 0.446389 0.155618 0.781942
O O3 0.503219 0.249785 0.949867
O O4 0.369637 0.144566 0.949573
O O5 0.750000 0.355904 0.875000
O O6 0.844828 0.216632 0.942523
O O7 0.931222 0.382299 0.891718
O O8 0.750000 0.072125 0.875000
O O9 0.588812 0.581482 0.965891
#
# Coordination Sequence:
#
# PCOD9560957 Si02
#       4
#    16  16  16  16
#     4  11  23  44  69  96 144 181 238 287 354 440
#     4  10  20  42  67 101 135 179 225 296 362 416
#     4  10  25  44  68 101 136 191 239 285 364 428
#     4  10  21  37  63 100 134 168 232 291 356 415
#
# _framework density 23.437007000000001
#
# number of rings (size 3 to 8) (size 9 to 14) (size 15 to 20)
#    0.000    1.750    2.500    0.750    0.000    8.500 
#    0.000    0.000    0.000    0.000    0.000    0.000 
#    0.000    0.000    0.000    0.000    0.000    0.000 
#
# Total GULP energy -178195.196540 kJ/mol
# GULP energy per Si atom -5568.599892 kJ/mol
# Density = 2.338366 g / cm^3
# Si number density = 23.437007 Si / 1000 Ang^3
#
#
#
# Elastic Constant Matrix: (Units=GPa)
#
#
# Indices 1 2 3 4 5 6 
#
# 1 77.1194 23.0994 14.3833 0.0000 0.0000 0.0000
# 2 23.0994 77.1194 14.3833 0.0000 0.0000 0.0000
# 3 14.3833 14.3833 39.1188 0.0000 0.0000 0.0000
# 4 0.0000 0.0000 0.0000 32.3316 0.0000 0.0000
# 5 0.0000 0.0000 0.0000 0.0000 32.3316 0.0000
# 6 0.0000 0.0000 0.0000 0.0000 0.0000 34.8643
#
#
#
# Elastic Compliance Matrix: (Units=1/GPa)
#
#
# Indices 1 2 3 4 5 6 
#
# 1 0.014834 -0.003678 -0.004102 0.000000 0.000000 0.000000
# 2 -0.003678 0.014834 -0.004102 0.000000 0.000000 0.000000
# 3 -0.004102 -0.004102 0.028579 0.000000 0.000000 0.000000
# 4 0.000000 0.000000 0.000000 0.030929 0.000000 0.000000
# 5 0.000000 0.000000 0.000000 0.000000 0.030929 0.000000
# 6 0.000000 0.000000 0.000000 0.000000 0.000000 0.028683
#
#
# Mechanical properties :
#
#
# Convention : Reuss Voigt Hill
#
# Bulk Modulus (GPa) = 28.99923 33.00995 31.00459
# Shear Modulus (GPa) = 27.16716 29.33827 28.25272
#
# Velocity S-wave (km/s) = 3.40833 3.54191 3.47576
# Velocity P-wave (km/s) = 5.28101 5.55355 5.41900
#
# Compressibility (1/GPa) = 0.03448367
#
# Stress axis : x y z
#
# Youngs Moduli (GPa) = 67.41457 67.41457 34.99019
#
# Poissons Ratio (x) = 0.24796 0.14352
# Poissons Ratio (y) = 0.24796 0.14352
# Poissons Ratio (z) = 0.27651 0.27651
#
# Static dielectric constant tensor:
#      x y z
#    x 1.976250 0.000000 0.000000 
#    y 0.000000 1.976250 0.000000 
#    z 0.000000 0.000000 1.891020 
# 
# From -- ./inp_files/5159.got.cif
#   From: 2010.05.17/outbox.cif.g08.bks.cpg/sg122_3_cif.got.tgz:5159.got - 2010.05.20 11:37:33.
