data_PCOD9560729
_publ_section_title
;
Structure prediction by ZEFSAII (Michael W. Deem and Ramdas Pophale) SiO2 
 PCOD9560729
Probable space group: I -4 2 D
;
_chemical_formula_sum "Si O2"
_cell_formula_units_Z 120
_cell_length_a 26.898563
_cell_length_b 26.898563
_cell_length_c 9.149456
_cell_angle_alpha 90.000000
_cell_angle_beta 90.000000
_cell_angle_gamma 90.000000
_cell_volume 6619.930525
_symmetry_space_group_name_H-M "I -4 2 D"
_symmetry_group_IT_number 122
_symmetry_cell_setting 'tetragonal'
loop_
_space_group_symop_operation_xyz
x,y,z
y,-x,-z
-x,-y,z
-y,x,-z
x,1/2-y,1/4-z
-x,1/2+y,1/4-z
-y,1/2-x,1/4+z
y,1/2+x,1/4+z
1/2+x,1/2+y,1/2+z
1/2+y,1/2-x,1/2-z
1/2-x,1/2-y,1/2+z
1/2-y,1/2+x,1/2-z
1/2+x,-y,3/4-z
1/2-x,y,3/4-z
1/2-y,-x,3/4+z
1/2+y,x,3/4+z
loop_
_atom_site_type_symbol
_atom_site_label
_atom_site_fract_x
_atom_site_fract_y
_atom_site_fract_z
Si Si1 0.839594 0.450304 0.745410
Si Si2 0.256510 0.476293 0.081533
Si Si3 0.496734 0.639844 0.273063
Si Si4 0.668239 0.412818 0.537648
Si Si5 0.110383 0.388455 0.000822
Si Si6 0.693315 0.354525 0.825627
Si Si7 0.628484 0.204311 0.215599
Si Si8 0.519591 0.750000 0.625000
O O1 0.786450 0.476674 0.729109
O O2 0.866882 0.435602 0.595513
O O3 0.828293 0.400724 0.833515
O O4 0.868905 0.485467 0.856951
O O5 0.198020 0.481037 0.047652
O O6 0.278114 0.425778 0.018105
O O7 0.269455 0.482386 0.251627
O O8 0.544746 0.635299 0.378944
O O9 0.446736 0.608501 0.290447
O O10 0.640047 0.387105 0.404071
O O11 0.687271 0.373030 0.658182
O O12 0.712283 0.444374 0.460668
O O13 0.158305 0.378590 0.897002
O O14 0.750000 0.346969 0.875000
O O15 0.660364 0.309960 0.891503
O O16 0.651420 0.250000 0.125000
#
# Coordination Sequence:
#
# PCOD9560729 Si02
#       8
#    16  16  16  16  16  16  16   8
#     4  10  18  34  60  88 116 153 204 248 304 361
#     4  11  18  35  61  92 121 152 202 265 309 351
#     4  10  20  36  61  85 120 158 197 254 311 360
#     4  10  22  37  56  93 118 156 203 250 309 368
#     4  11  21  36  61  93 121 156 195 265 308 368
#     4  10  22  38  59  81 123 168 203 243 305 375
#     4  11  22  39  60  89 122 159 207 257 311 362
#     4  10  20  32  62  94 122 150 202 266 310 356
#
# _framework density 18.127078000000001
#
# number of rings (size 3 to 8) (size 9 to 14) (size 15 to 20)
#    0.000    1.600    4.000    2.800    1.867    2.133 
#    0.000    1.333    0.000    2.400    0.000    0.000 
#    0.000    0.000    0.000    0.000    0.000    0.000 
#
# Total GULP energy -334118.929866 kJ/mol
# GULP energy per Si atom -5568.648831 kJ/mol
# Density = 1.808582 g / cm^3
# Si number density = 18.127078 Si / 1000 Ang^3
#
#
#
# Elastic Constant Matrix: (Units=GPa)
#
#
# Indices 1 2 3 4 5 6 
#
# 1 61.2690 25.2608 34.4852 0.0000 0.0000 0.0000
# 2 25.2608 61.2690 34.4852 0.0000 0.0000 0.0000
# 3 34.4852 34.4852 137.5434 0.0000 0.0000 0.0000
# 4 0.0000 0.0000 0.0000 30.0722 0.0000 0.0000
# 5 0.0000 0.0000 0.0000 0.0000 30.0722 0.0000
# 6 0.0000 0.0000 0.0000 0.0000 0.0000 22.5136
#
#
#
# Elastic Compliance Matrix: (Units=1/GPa)
#
#
# Indices 1 2 3 4 5 6 
#
# 1 0.021107 -0.006664 -0.003621 0.000000 0.000000 0.000000
# 2 -0.006664 0.021107 -0.003621 0.000000 0.000000 0.000000
# 3 -0.003621 -0.003621 0.009086 0.000000 0.000000 0.000000
# 4 0.000000 0.000000 0.000000 0.033253 0.000000 0.000000
# 5 0.000000 0.000000 0.000000 0.000000 0.033253 0.000000
# 6 0.000000 0.000000 0.000000 0.000000 0.000000 0.044418
#
#
# Mechanical properties :
#
#
# Convention : Reuss Voigt Hill
#
# Bulk Modulus (GPa) = 42.57569 49.83821 46.20695
# Shear Modulus (GPa) = 25.26948 27.58831 26.42889
#
# Velocity S-wave (km/s) = 3.73771 3.90544 3.82249
# Velocity P-wave (km/s) = 6.49350 6.92026 6.71028
#
# Compressibility (1/GPa) = 0.02348758
#
# Stress axis : x y z
#
# Youngs Moduli (GPa) = 47.37710 47.37710 110.05631
#
# Poissons Ratio (x) = 0.31573 0.39853
# Poissons Ratio (y) = 0.31573 0.39853
# Poissons Ratio (z) = 0.17156 0.17156
#
# Static dielectric constant tensor:
#      x y z
#    x 1.645950 0.000000 0.000000 
#    y 0.000000 1.645950 0.000000 
#    z 0.000000 0.000000 1.532540 
# 
# From -- ./inp_files/3134.got.cif
#   From: 2010.05.17/outbox.cif.g08.bks.cpg/sg122_2_cif.got.tgz:3134.got - 2010.05.20 11:37:33.
