data_PCOD9560058
_publ_section_title
;
Structure prediction by ZEFSAII (Michael W. Deem and Ramdas Pophale) SiO2 
 PCOD9560058
Probable space group: I -4 C 2
;
_chemical_formula_sum "Si O2"
_cell_formula_units_Z 96
_cell_length_a 14.185337
_cell_length_b 14.185337
_cell_length_c 24.174406
_cell_angle_alpha 90.000000
_cell_angle_beta 90.000000
_cell_angle_gamma 90.000000
_cell_volume 4864.465495
_symmetry_space_group_name_H-M "I -4 C 2"
_symmetry_group_IT_number 120
_symmetry_cell_setting 'tetragonal'
loop_
_space_group_symop_operation_xyz
x,y,z
y,-x,-z
-x,-y,z
-y,x,-z
y,x,1/2-z
-y,-x,1/2-z
-x,y,1/2+z
x,-y,1/2+z
1/2+x,1/2+y,1/2+z
1/2+y,1/2-x,1/2-z
1/2-x,1/2-y,1/2+z
1/2-y,1/2+x,1/2-z
1/2+y,1/2+x,-z
1/2-y,1/2-x,-z
1/2-x,1/2+y,z
1/2+x,1/2-y,z
loop_
_atom_site_type_symbol
_atom_site_label
_atom_site_fract_x
_atom_site_fract_y
_atom_site_fract_z
Si Si1 0.000000 0.000000 0.000000
Si Si2 0.474554 0.350392 0.349385
Si Si3 0.284530 0.215471 0.000000
Si Si4 0.448275 0.857035 0.682962
Si Si5 0.078824 0.787407 0.094367
Si Si6 0.356237 0.380353 0.927480
Si Si7 0.000000 0.000000 0.750000
Si Si8 0.558118 0.143600 0.814668
O O1 0.073237 0.066046 0.032186
O O2 0.396208 0.395965 0.390541
O O3 0.577793 0.344818 0.377427
O O4 0.489318 0.412067 0.293217
O O5 0.433807 0.246558 0.339415
O O6 0.372200 0.237034 0.041790
O O7 0.198654 0.204694 0.042537
O O8 0.401501 0.774341 0.648554
O O9 0.439349 0.844433 0.748475
O O10 0.559911 0.869866 0.670994
O O11 0.397899 0.955741 0.669745
O O12 0.966981 0.790008 0.087469
#
# Coordination Sequence:
#
# PCOD9560058 Si02
#       8
#     4  16   8  16  16  16   4  16
#     4  12  18  48  68  82 128 180 226 268 360 382
#     4  12  23  40  67 100 140 178 227 283 349 418
#     4  12  28  42  72  98 132 178 244 284 354 404
#     4   9  20  42  62  93 130 180 217 277 335 419
#     4  12  24  42  65  99 133 173 227 292 340 414
#     4  12  23  44  65  94 130 180 221 288 338 409
#     4  12  22  40  64 114 140 188 218 296 340 442
#     4   9  20  40  66  87 136 179 218 262 349 412
#
# _framework density 19.734954999999999
#
# number of rings (size 3 to 8) (size 9 to 14) (size 15 to 20)
#    0.000    1.000    5.000    3.000    2.333    0.000 
#    0.000    0.000    0.000    1.000    0.000    0.000 
#    0.000    0.000    0.000    0.000    0.000    0.000 
#
# Total GULP energy -267525.976577 kJ/mol
# GULP energy per Si atom -5573.457845 kJ/mol
# Density = 1.969004 g / cm^3
# Si number density = 19.734955 Si / 1000 Ang^3
#
#
#
# Elastic Constant Matrix: (Units=GPa)
#
#
# Indices 1 2 3 4 5 6 
#
# 1 61.4763 29.6808 35.9840 0.0000 0.0000 0.0000
# 2 29.6808 61.4777 35.9855 0.0000 0.0000 0.0000
# 3 35.9840 35.9855 68.5426 0.0000 0.0000 0.0000
# 4 0.0000 0.0000 0.0000 36.5174 0.0000 0.0000
# 5 0.0000 0.0000 0.0000 0.0000 36.5174 0.0000
# 6 0.0000 0.0000 0.0000 0.0000 0.0000 23.3070
#
#
#
# Elastic Compliance Matrix: (Units=1/GPa)
#
#
# Indices 1 2 3 4 5 6 
#
# 1 0.025093 -0.006357 -0.009836 0.000000 0.000000 0.000000
# 2 -0.006357 0.025093 -0.009837 0.000000 0.000000 0.000000
# 3 -0.009836 -0.009837 0.024917 0.000000 0.000000 0.000000
# 4 0.000000 0.000000 0.000000 0.027384 0.000000 0.000000
# 5 0.000000 0.000000 0.000000 0.000000 0.027384 0.000000
# 6 0.000000 0.000000 0.000000 0.000000 0.000000 0.042906
#
#
# Mechanical properties :
#
#
# Convention : Reuss Voigt Hill
#
# Bulk Modulus (GPa) = 43.39519 43.86635 43.63077
# Shear Modulus (GPa) = 21.50369 25.25811 23.38090
#
# Velocity S-wave (km/s) = 3.30453 3.58140 3.44575
# Velocity P-wave (km/s) = 6.04951 6.27518 6.16338
#
# Compressibility (1/GPa) = 0.02304403
#
# Stress axis : x y z
#
# Youngs Moduli (GPa) = 39.85191 39.85167 40.13244
#
# Poissons Ratio (x) = 0.25335 0.39474
# Poissons Ratio (y) = 0.25335 0.39477
# Poissons Ratio (z) = 0.39198 0.39201
#
# Static dielectric constant tensor:
#      x y z
#    x 1.709180 0.000000 0.000000 
#    y 0.000000 1.709180 0.000000 
#    z 0.000000 0.000000 1.714850 
# 
# From -- ./inp_files/5884.got.cif
#   From: 2010.05.17/outbox.cif.g08.bks.cpg/sg120_3_cif.got.tgz:5884.got - 2010.05.20 11:28:13.
