data_PCOD9560660
_publ_section_title
;
Structure prediction by ZEFSAII (Michael W. Deem and Ramdas Pophale) SiO2 
 PCOD9560660
Probable space group: I -4 2 M
;
_chemical_formula_sum "Si O2"
_cell_formula_units_Z 84
_cell_length_a 11.047950
_cell_length_b 11.047950
_cell_length_c 33.763033
_cell_angle_alpha 90.000000
_cell_angle_beta 90.000000
_cell_angle_gamma 90.000000
_cell_volume 4121.021245
_symmetry_space_group_name_H-M "I -4 2 M"
_symmetry_group_IT_number 121
_symmetry_cell_setting 'tetragonal'
loop_
_space_group_symop_operation_xyz
x,y,z
y,-x,-z
-x,-y,z
-y,x,-z
x,-y,-z
-x,y,-z
-y,-x,z
y,x,z
1/2+x,1/2+y,1/2+z
1/2+y,1/2-x,1/2-z
1/2-x,1/2-y,1/2+z
1/2-y,1/2+x,1/2-z
1/2+x,1/2-y,1/2-z
1/2-x,1/2+y,1/2-z
1/2-y,1/2-x,1/2+z
1/2+y,1/2+x,1/2+z
loop_
_atom_site_type_symbol
_atom_site_label
_atom_site_fract_x
_atom_site_fract_y
_atom_site_fract_z
Si Si1 0.947172 0.756104 0.792807
Si Si2 0.000000 0.500000 0.000000
Si Si3 0.845126 0.654876 0.561213
Si Si4 0.756105 0.052827 0.707194
Si Si5 0.248466 0.955739 0.620555
Si Si6 0.748465 0.455740 0.620555
O O1 0.887633 0.887633 0.789802
O O2 0.840161 0.659838 0.798170
O O3 0.013390 0.750797 0.835021
O O4 1.000000 0.728027 0.750000
O O5 0.917176 0.417177 0.972120
O O6 0.750001 0.750001 0.544128
O O7 0.773307 0.558283 0.588525
O O8 0.941719 0.726694 0.588526
O O9 0.887635 0.112366 0.710199
O O10 0.750797 0.986610 0.664980
O O11 0.126646 0.873355 0.616417
O O12 0.359815 0.859814 0.617441
O O13 0.626645 0.373356 0.616416
#
# Coordination Sequence:
#
# PCOD9560660 Si02
#       6
#    16   4  16  16  16  16
#     4   9  19  33  51  81 122 168 212 257 304 351
#     4  12  28  52  68 100 138 156 200 256 320 404
#     4  12  26  44  74 103 125 166 207 253 326 392
#     4   9  19  33  51  81 122 168 212 257 304 351
#     4   9  19  40  66  92 131 175 217 267 314 367
#     4   9  19  40  66  92 131 175 217 267 314 367
#
# _framework density 20.383296999999999
#
# number of rings (size 3 to 8) (size 9 to 14) (size 15 to 20)
#    0.000    2.286    1.905    2.286    2.667    4.571 
#    0.000    3.810    0.000    0.000    0.000    0.000 
#    0.000    0.000    0.000    0.000    0.000    0.000 
#
# Total GULP energy -234088.568094 kJ/mol
# GULP energy per Si atom -5573.537336 kJ/mol
# Density = 2.033690 g / cm^3
# Si number density = 20.383297 Si / 1000 Ang^3
#
#
#
# Elastic Constant Matrix: (Units=GPa)
#
#
# Indices 1 2 3 4 5 6 
#
# 1 102.5448 8.3071 55.1505 0.0000 0.0000 0.0000
# 2 8.3071 102.5424 55.1484 0.0000 0.0000 0.0000
# 3 55.1505 55.1484 147.6572 0.0000 0.0000 0.0000
# 4 0.0000 0.0000 0.0000 1350.9764 -0.0003 0.0000
# 5 0.0000 0.0000 0.0000 -0.0003 1354.8697 0.0000
# 6 0.0000 0.0000 0.0000 0.0000 0.0000 27.7534
#
#
#
# Elastic Compliance Matrix: (Units=1/GPa)
#
#
# Indices 1 2 3 4 5 6 
#
# 1 0.012484 0.001873 -0.005362 0.000000 0.000000 0.000000
# 2 0.001873 0.012484 -0.005362 0.000000 0.000000 0.000000
# 3 -0.005362 -0.005362 0.010778 0.000000 0.000000 0.000000
# 4 0.000000 0.000000 0.000000 0.000740 0.000000 0.000000
# 5 0.000000 0.000000 0.000000 0.000000 0.000738 0.000000
# 6 0.000000 0.000000 0.000000 0.000000 0.000000 0.036032
#
#
# Mechanical properties :
#
#
# Convention : Reuss Voigt Hill
#
# Bulk Modulus (GPa) = 55.42450 65.55071 60.48761
# Shear Modulus (GPa) = 51.56034 562.32913 306.94474
#
# Velocity S-wave (km/s) = 5.03491 16.62758 12.28468
# Velocity P-wave (km/s) = 7.81349 20.02159 15.19728
#
# Compressibility (1/GPa) = 0.01804256
#
# Stress axis : x y z
#
# Youngs Moduli (GPa) = 80.10232 80.10144 92.78220
#
# Poissons Ratio (x) = -0.14999 0.49752
# Poissons Ratio (y) = -0.14999 0.49751
# Poissons Ratio (z) = 0.42952 0.42951
#
# Static dielectric constant tensor:
#      x y z
#    x 1.704050 0.000000 0.000000 
#    y 0.000000 1.703960 0.000000 
#    z 0.000000 0.000000 1.748830 
# 
# From -- ./inp_files/8235.got.cif
#   From: 2010.05.17/outbox.cif.g08.bks.cpg/sg121_5_cif.got.tgz:8235.got - 2010.05.20 11:32:06.
