data_PCOD9560715
_publ_section_title
;
Structure prediction by ZEFSAII (Michael W. Deem and Ramdas Pophale) SiO2 
 PCOD9560715
Probable space group: I -4 2 D
;
_chemical_formula_sum "Si O2"
_cell_formula_units_Z 104
_cell_length_a 25.337960
_cell_length_b 25.337960
_cell_length_c 8.980201
_cell_angle_alpha 90.000000
_cell_angle_beta 90.000000
_cell_angle_gamma 90.000000
_cell_volume 5765.398753
_symmetry_space_group_name_H-M "I -4 2 D"
_symmetry_group_IT_number 122
_symmetry_cell_setting 'tetragonal'
loop_
_space_group_symop_operation_xyz
x,y,z
y,-x,-z
-x,-y,z
-y,x,-z
x,1/2-y,1/4-z
-x,1/2+y,1/4-z
-y,1/2-x,1/4+z
y,1/2+x,1/4+z
1/2+x,1/2+y,1/2+z
1/2+y,1/2-x,1/2-z
1/2-x,1/2-y,1/2+z
1/2-y,1/2+x,1/2-z
1/2+x,-y,3/4-z
1/2-x,y,3/4-z
1/2-y,-x,3/4+z
1/2+y,x,3/4+z
loop_
_atom_site_type_symbol
_atom_site_label
_atom_site_fract_x
_atom_site_fract_y
_atom_site_fract_z
Si Si1 0.722941 0.807677 0.099295
Si Si2 0.591674 0.209076 0.749743
Si Si3 0.830664 0.130194 0.127763
Si Si4 0.666986 0.146561 0.126455
Si Si5 0.056489 0.692217 0.558651
Si Si6 0.442445 0.313213 0.101822
Si Si7 0.368101 0.250000 0.625000
O O1 0.747052 0.750000 0.125000
O O2 0.761848 0.855835 0.066227
O O3 0.688691 0.820872 0.244217
O O4 0.681272 0.804605 0.962022
O O5 0.571991 0.250000 0.625000
O O6 0.615014 0.154791 0.684233
O O7 0.550574 0.200065 0.881526
O O8 0.838300 0.088207 0.258351
O O9 0.791655 0.109055 0.999056
O O10 0.606960 0.155606 0.079723
O O11 0.674320 0.089375 0.202079
O O12 0.706800 0.155035 0.990548
O O13 0.068773 0.750000 0.625000
O O14 0.003753 0.672613 0.638737
O O15 0.439100 0.250000 0.125000
#
# Coordination Sequence:
#
# PCOD9560715 Si02
#       7
#    16  16  16  16  16  16   8
#     4  10  18  31  46  74 116 158 176 216 275 337
#     4  10  21  32  49  80 116 146 185 230 280 338
#     4  10  19  32  49  73 108 152 186 220 270 341
#     4  11  20  35  58  82 115 152 198 230 284 351
#     4  11  22  37  57  84 114 149 192 238 285 339
#     4  10  21  40  56  74 114 159 186 228 290 348
#     4  12  18  28  54  82 108 150 192 230 262 354
#
# _framework density 18.038648999999999
#
# number of rings (size 3 to 8) (size 9 to 14) (size 15 to 20)
#    0.000    1.538    6.154    0.923    1.077    0.000 
#    4.154    0.000    0.000    0.462    0.000    0.000 
#    0.000    0.000    0.000    0.000    0.000    0.000 
#
# Total GULP energy -289943.011555 kJ/mol
# GULP energy per Si atom -5575.827145 kJ/mol
# Density = 1.799759 g / cm^3
# Si number density = 18.038649 Si / 1000 Ang^3
#
#
#
# Elastic Constant Matrix: (Units=GPa)
#
#
# Indices 1 2 3 4 5 6 
#
# 1 66.7298 19.4929 21.0524 0.0000 0.0000 0.0000
# 2 19.4929 66.7298 21.0524 0.0000 0.0000 0.0000
# 3 21.0524 21.0524 98.2415 0.0000 0.0000 0.0000
# 4 0.0000 0.0000 0.0000 13.3034 0.0000 0.0000
# 5 0.0000 0.0000 0.0000 0.0000 13.3034 0.0000
# 6 0.0000 0.0000 0.0000 0.0000 0.0000 7.3411
#
#
#
# Elastic Compliance Matrix: (Units=1/GPa)
#
#
# Indices 1 2 3 4 5 6 
#
# 1 0.017062 -0.004108 -0.002776 0.000000 0.000000 0.000000
# 2 -0.004108 0.017062 -0.002776 0.000000 0.000000 0.000000
# 3 -0.002776 -0.002776 0.011369 0.000000 0.000000 0.000000
# 4 0.000000 0.000000 0.000000 0.075169 0.000000 0.000000
# 5 0.000000 0.000000 0.000000 0.000000 0.075169 0.000000
# 6 0.000000 0.000000 0.000000 0.000000 0.000000 0.136219
#
#
# Mechanical properties :
#
#
# Convention : Reuss Voigt Hill
#
# Bulk Modulus (GPa) = 38.20853 39.43296 38.82074
# Shear Modulus (GPa) = 13.88532 18.12981 16.00757
#
# Velocity S-wave (km/s) = 2.77745 3.17370 2.98216
# Velocity P-wave (km/s) = 5.61366 5.94454 5.78146
#
# Compressibility (1/GPa) = 0.02617217
#
# Stress axis : x y z
#
# Youngs Moduli (GPa) = 58.61105 58.61105 87.96107
#
# Poissons Ratio (x) = 0.24079 0.24416
# Poissons Ratio (y) = 0.24079 0.24416
# Poissons Ratio (z) = 0.16269 0.16269
#
# Static dielectric constant tensor:
#      x y z
#    x 1.627140 0.000000 0.000000 
#    y 0.000000 1.627140 0.000000 
#    z 0.000000 0.000000 1.669610 
# 
# From -- ./inp_files/3079.got.cif
#   From: 2010.05.17/outbox.cif.g08.bks.cpg/sg122_2_cif.got.tgz:3079.got - 2010.05.20 11:37:33.
