data_PCOD9560288
_publ_section_title
;
Structure prediction by ZEFSAII (Michael W. Deem and Ramdas Pophale) SiO2 
 PCOD9560288
Probable space group: I -4 2 M
;
_chemical_formula_sum "Si O2"
_cell_formula_units_Z 72
_cell_length_a 19.737165
_cell_length_b 19.737165
_cell_length_c 11.055844
_cell_angle_alpha 90.000000
_cell_angle_beta 90.000000
_cell_angle_gamma 90.000000
_cell_volume 4306.866852
_symmetry_space_group_name_H-M "I -4 2 M"
_symmetry_group_IT_number 121
_symmetry_cell_setting 'tetragonal'
loop_
_space_group_symop_operation_xyz
x,y,z
y,-x,-z
-x,-y,z
-y,x,-z
x,-y,-z
-x,y,-z
-y,-x,z
y,x,z
1/2+x,1/2+y,1/2+z
1/2+y,1/2-x,1/2-z
1/2-x,1/2-y,1/2+z
1/2-y,1/2+x,1/2-z
1/2+x,1/2-y,1/2-z
1/2-x,1/2+y,1/2-z
1/2-y,1/2-x,1/2+z
1/2+y,1/2+x,1/2+z
loop_
_atom_site_type_symbol
_atom_site_label
_atom_site_fract_x
_atom_site_fract_y
_atom_site_fract_z
Si Si1 0.335703 0.447756 0.246857
Si Si2 0.084154 0.804027 0.620441
Si Si3 0.134514 0.248036 0.121369
Si Si4 0.743151 0.141385 0.389082
Si Si5 0.203265 0.000000 0.000000
O O1 0.399201 0.399201 0.223017
O O2 0.328694 0.509348 0.153543
O O3 0.268052 0.402450 0.225444
O O4 0.338592 0.477628 0.381675
O O5 0.130429 0.869572 0.596980
O O6 0.113079 0.768219 0.741044
O O7 0.095260 0.754606 0.507206
O O8 0.187888 0.187888 0.085024
O O9 0.172415 0.319833 0.115874
O O10 0.066708 0.243901 0.041817
O O11 0.797650 0.202351 0.398249
#
# Coordination Sequence:
#
# PCOD9560288 Si02
#       5
#    16  16  16  16   8
#     4  10  20  33  50  74 105 141 175 210 258 317
#     4   9  18  32  48  73 104 133 174 216 252 305
#     4   9  18  31  49  73 103 137 170 216 265 311
#     4   9  18  31  51  73  99 136 176 219 264 302
#     4  10  20  32  48  75 109 132 172 214 258 324
#
# _framework density 16.717487999999999
#
# number of rings (size 3 to 8) (size 9 to 14) (size 15 to 20)
#    0.000    2.667    0.000    1.333    3.111    1.333 
#    0.000    0.000    0.000    8.333    0.000    3.111 
#    0.000    0.000    0.000    0.000    0.000    0.000 
#
# Total GULP energy -200507.867689 kJ/mol
# GULP energy per Si atom -5569.662991 kJ/mol
# Density = 1.667944 g / cm^3
# Si number density = 16.717488 Si / 1000 Ang^3
#
#
#
# Elastic Constant Matrix: (Units=GPa)
#
#
# Indices 1 2 3 4 5 6 
#
# 1 75.3358 67.7464 31.4805 0.0000 0.0000 0.0000
# 2 67.7464 75.3332 31.4834 0.0000 0.0000 0.0000
# 3 31.4805 31.4834 68.2954 0.0000 0.0000 0.0000
# 4 0.0000 0.0000 0.0000 15.7033 0.0000 0.0000
# 5 0.0000 0.0000 0.0000 0.0000 15.7045 0.0000
# 6 0.0000 0.0000 0.0000 0.0000 0.0000 22.9440
#
#
#
# Elastic Compliance Matrix: (Units=1/GPa)
#
#
# Indices 1 2 3 4 5 6 
#
# 1 0.070273 -0.061509 -0.004037 0.000000 0.000000 0.000000
# 2 -0.061509 0.070279 -0.004046 0.000000 0.000000 0.000000
# 3 -0.004037 -0.004046 0.018368 0.000000 0.000000 0.000000
# 4 0.000000 0.000000 0.000000 0.063681 0.000000 0.000000
# 5 0.000000 0.000000 0.000000 0.000000 0.063676 0.000000
# 6 0.000000 0.000000 0.000000 0.000000 0.000000 0.043584
#
#
# Mechanical properties :
#
#
# Convention : Reuss Voigt Hill
#
# Bulk Modulus (GPa) = 50.66569 53.37610 52.02090
# Shear Modulus (GPa) = 10.51248 16.75395 13.63322
#
# Velocity S-wave (km/s) = 2.51037 3.16916 2.85881
# Velocity P-wave (km/s) = 6.22699 6.73714 6.48708
#
# Compressibility (1/GPa) = 0.01973722
#
# Stress axis : x y z
#
# Youngs Moduli (GPa) = 14.23018 14.22893 54.44150
#
# Poissons Ratio (x) = 0.87520 0.21980
# Poissons Ratio (y) = 0.87528 0.22026
# Poissons Ratio (z) = 0.05745 0.05757
#
# Static dielectric constant tensor:
#      x y z
#    x 1.559640 0.000000 0.000000 
#    y 0.000000 1.559640 0.000000 
#    z 0.000000 0.000000 1.599280 
# 
# From -- ./inp_files/3017.got.cif
#   From: 2010.05.17/outbox.cif.g08.bks.cpg/sg121_2_cif.got.tgz:3017.got - 2010.05.20 11:32:06.
