data_PCOD9560293
_publ_section_title
;
Structure prediction by ZEFSAII (Michael W. Deem and Ramdas Pophale) SiO2 
 PCOD9560293
Probable space group: I -4 2 M
;
_chemical_formula_sum "Si O2"
_cell_formula_units_Z 88
_cell_length_a 30.258560
_cell_length_b 30.258560
_cell_length_c 5.241518
_cell_angle_alpha 90.000000
_cell_angle_beta 90.000000
_cell_angle_gamma 90.000000
_cell_volume 4799.031426
_symmetry_space_group_name_H-M "I -4 2 M"
_symmetry_group_IT_number 121
_symmetry_cell_setting 'tetragonal'
loop_
_space_group_symop_operation_xyz
x,y,z
y,-x,-z
-x,-y,z
-y,x,-z
x,-y,-z
-x,y,-z
-y,-x,z
y,x,z
1/2+x,1/2+y,1/2+z
1/2+y,1/2-x,1/2-z
1/2-x,1/2-y,1/2+z
1/2-y,1/2+x,1/2-z
1/2+x,1/2-y,1/2-z
1/2-x,1/2+y,1/2-z
1/2-y,1/2-x,1/2+z
1/2+y,1/2+x,1/2+z
loop_
_atom_site_type_symbol
_atom_site_label
_atom_site_fract_x
_atom_site_fract_y
_atom_site_fract_z
Si Si1 0.227451 0.000000 0.500000
Si Si2 0.704848 0.631472 0.821904
Si Si3 0.708067 0.046786 0.887747
Si Si4 0.793347 0.319300 0.072492
Si Si5 0.633520 0.112629 0.943396
Si Si6 0.923038 0.210756 0.172194
O O1 0.258757 0.033807 0.342292
O O2 0.200600 0.028325 0.709874
O O3 0.673437 0.673437 0.793940
O O4 0.755626 0.648414 0.820548
O O5 0.693643 0.597057 0.594257
O O6 0.699530 0.609693 0.099114
O O7 0.668056 0.078252 0.825761
O O8 0.737240 0.071378 0.103901
O O9 0.693121 0.000000 0.000000
O O10 0.800852 0.282652 0.291121
O O11 0.840139 0.343390 0.011585
O O12 0.619148 0.097389 0.224393
#
# Coordination Sequence:
#
# PCOD9560293 Si02
#       6
#     8  16  16  16  16  16
#     4  10  22  36  62  84 104 146 187 265 300 354
#     4  12  24  37  55  78 113 157 201 244 281 339
#     4  10  21  35  59  82 108 139 185 246 304 357
#     4  10  20  33  50  70  99 148 194 239 281 324
#     4  10  20  32  50  75 107 140 171 218 297 348
#     4  11  21  38  56  79 108 139 196 243 304 334
#
# _framework density 18.337033000000002
#
# number of rings (size 3 to 8) (size 9 to 14) (size 15 to 20)
#    0.000    1.455    1.818    6.000    5.091    0.727 
#    0.000    0.000    0.000    0.000    0.000    0.000 
#    0.000    2.182    0.000    0.000    0.000   31.818 
#
# Total GULP energy -245014.834849 kJ/mol
# GULP energy per Si atom -5568.518974 kJ/mol
# Density = 1.829530 g / cm^3
# Si number density = 18.337033 Si / 1000 Ang^3
#
#
#
# Elastic Constant Matrix: (Units=GPa)
#
#
# Indices 1 2 3 4 5 6 
#
# 1 40.5136 20.1215 20.5105 0.0000 0.0000 0.0000
# 2 20.1215 40.5136 20.5105 0.0000 0.0000 0.0000
# 3 20.5105 20.5105 152.3263 0.0000 0.0000 0.0000
# 4 0.0000 0.0000 0.0000 22.0827 0.0000 0.0000
# 5 0.0000 0.0000 0.0000 0.0000 22.0827 0.0000
# 6 0.0000 0.0000 0.0000 0.0000 0.0000 9.5924
#
#
#
# Elastic Compliance Matrix: (Units=1/GPa)
#
#
# Indices 1 2 3 4 5 6 
#
# 1 0.033592 -0.015447 -0.002443 0.000000 0.000000 0.000000
# 2 -0.015447 0.033592 -0.002443 0.000000 0.000000 0.000000
# 3 -0.002443 -0.002443 0.007223 0.000000 0.000000 0.000000
# 4 0.000000 0.000000 0.000000 0.045284 0.000000 0.000000
# 5 0.000000 0.000000 0.000000 0.000000 0.045284 0.000000
# 6 0.000000 0.000000 0.000000 0.000000 0.000000 0.104249
#
#
# Mechanical properties :
#
#
# Convention : Reuss Voigt Hill
#
# Bulk Modulus (GPa) = 29.63846 39.51540 34.57693
# Shear Modulus (GPa) = 15.56968 22.23229 18.90098
#
# Velocity S-wave (km/s) = 2.91707 3.48577 3.21402
# Velocity P-wave (km/s) = 5.24823 6.14793 5.71581
#
# Compressibility (1/GPa) = 0.03373994
#
# Stress axis : x y z
#
# Youngs Moduli (GPa) = 29.76921 29.76921 138.45046
#
# Poissons Ratio (x) = 0.45984 0.33826
# Poissons Ratio (y) = 0.45984 0.33826
# Poissons Ratio (z) = 0.07273 0.07273
#
# Static dielectric constant tensor:
#      x y z
#    x 1.666380 0.000000 0.000000 
#    y 0.000000 1.666380 0.000000 
#    z 0.000000 0.000000 1.803270 
# 
# From -- ./inp_files/658.got.cif
#   From: 2010.05.17/outbox.cif.g08.bks.cpg/sg121_1_cif.got.tgz:658.got - 2010.05.20 11:32:06.
