data_PCOD9560928
_publ_section_title
;
Structure prediction by ZEFSAII (Michael W. Deem and Ramdas Pophale) SiO2 
 PCOD9560928
Probable space group: I -4 2 D
;
_chemical_formula_sum "Si O2"
_cell_formula_units_Z 104
_cell_length_a 17.228761
_cell_length_b 17.228761
_cell_length_c 18.579028
_cell_angle_alpha 90.000000
_cell_angle_beta 90.000000
_cell_angle_gamma 90.000000
_cell_volume 5514.816701
_symmetry_space_group_name_H-M "I -4 2 D"
_symmetry_group_IT_number 122
_symmetry_cell_setting 'tetragonal'
loop_
_space_group_symop_operation_xyz
x,y,z
y,-x,-z
-x,-y,z
-y,x,-z
x,1/2-y,1/4-z
-x,1/2+y,1/4-z
-y,1/2-x,1/4+z
y,1/2+x,1/4+z
1/2+x,1/2+y,1/2+z
1/2+y,1/2-x,1/2-z
1/2-x,1/2-y,1/2+z
1/2-y,1/2+x,1/2-z
1/2+x,-y,3/4-z
1/2-x,y,3/4-z
1/2-y,-x,3/4+z
1/2+y,x,3/4+z
loop_
_atom_site_type_symbol
_atom_site_label
_atom_site_fract_x
_atom_site_fract_y
_atom_site_fract_z
Si Si1 0.911121 0.025023 0.267542
Si Si2 0.750000 0.245927 0.875000
Si Si3 0.123543 0.125202 0.591314
Si Si4 0.107493 0.674159 0.584394
Si Si5 0.330676 0.875284 0.589485
Si Si6 0.707702 0.782051 0.778411
Si Si7 0.450727 0.330880 0.943580
O O1 0.881025 0.076742 0.334440
O O2 0.900125 0.078071 0.197095
O O3 0.857601 0.948307 0.272266
O O4 0.000000 0.000000 0.277246
O O5 0.818067 0.303265 0.848383
O O6 0.719347 0.198142 0.806874
O O7 0.070817 0.155355 0.526216
O O8 0.150011 0.039031 0.571412
O O9 0.075965 0.750000 0.625000
O O10 0.193237 0.696793 0.555817
O O11 0.117377 0.605684 0.643045
O O12 0.333090 0.850110 0.672797
O O13 0.310849 0.794758 0.547582
O O14 0.256414 0.929667 0.577499
#
# Coordination Sequence:
#
# PCOD9560928 Si02
#       7
#    16   8  16  16  16  16  16
#     4  12  25  37  55  93 135 180 218 260 323 406
#     4  12  22  40  64  96 124 162 230 278 332 396
#     4  12  23  35  53  95 135 174 210 254 317 405
#     4  11  21  37  58  88 130 169 212 260 322 406
#     4  10  21  39  61  87 124 175 215 261 327 385
#     4  10  20  40  62  91 119 163 225 270 319 385
#     4  11  22  36  57  89 134 176 206 256 321 396
#
# _framework density 18.858287000000001
#
# number of rings (size 3 to 8) (size 9 to 14) (size 15 to 20)
#    0.000    0.923    7.692    0.923    7.538    0.000 
#    0.000    0.000    0.000    5.538    0.000    0.000 
#    0.000    0.000    0.000    0.000    0.000    0.000 
#
# Total GULP energy -290586.840382 kJ/mol
# GULP energy per Si atom -5588.208469 kJ/mol
# Density = 1.881536 g / cm^3
# Si number density = 18.858287 Si / 1000 Ang^3
#
#
#
# Elastic Constant Matrix: (Units=GPa)
#
#
# Indices 1 2 3 4 5 6 
#
# 1 49.0062 21.2617 16.2095 0.0000 0.0000 0.0000
# 2 21.2617 49.0062 16.2095 0.0000 0.0000 0.0000
# 3 16.2095 16.2095 113.8815 0.0000 0.0000 0.0000
# 4 0.0000 0.0000 0.0000 24.6414 0.0000 0.0000
# 5 0.0000 0.0000 0.0000 0.0000 24.6414 0.0000
# 6 0.0000 0.0000 0.0000 0.0000 0.0000 16.8751
#
#
#
# Elastic Compliance Matrix: (Units=1/GPa)
#
#
# Indices 1 2 3 4 5 6 
#
# 1 0.025637 -0.010406 -0.002168 0.000000 0.000000 0.000000
# 2 -0.010406 0.025637 -0.002168 0.000000 0.000000 0.000000
# 3 -0.002168 -0.002168 0.009398 0.000000 0.000000 0.000000
# 4 0.000000 0.000000 0.000000 0.040582 0.000000 0.000000
# 5 0.000000 0.000000 0.000000 0.000000 0.040582 0.000000
# 6 0.000000 0.000000 0.000000 0.000000 0.000000 0.059259
#
#
# Mechanical properties :
#
#
# Convention : Reuss Voigt Hill
#
# Bulk Modulus (GPa) = 32.06241 35.47285 33.76763
# Shear Modulus (GPa) = 20.74897 23.77914 22.26405
#
# Velocity S-wave (km/s) = 3.32061 3.55482 3.43971
# Velocity P-wave (km/s) = 5.63388 5.97495 5.80692
#
# Compressibility (1/GPa) = 0.03118917
#
# Stress axis : x y z
#
# Youngs Moduli (GPa) = 39.00564 39.00564 106.40300
#
# Poissons Ratio (x) = 0.40589 0.23068
# Poissons Ratio (y) = 0.40589 0.23068
# Poissons Ratio (z) = 0.08456 0.08456
#
# Static dielectric constant tensor:
#      x y z
#    x 1.652900 0.000000 0.000000 
#    y 0.000000 1.652900 0.000000 
#    z 0.000000 0.000000 1.694850 
# 
# From -- ./inp_files/6403.got.cif
#   From: 2010.05.17/outbox.cif.g08.bks.cpg/sg122_4_cif.got.tgz:6403.got - 2010.05.20 11:37:33.
