data_PCOD9560815
_publ_section_title
;
Structure prediction by ZEFSAII (Michael W. Deem and Ramdas Pophale) SiO2 
 PCOD9560815
Probable space group: I -4 2 D
;
_chemical_formula_sum "Si O2"
_cell_formula_units_Z 64
_cell_length_a 18.602062
_cell_length_b 18.602062
_cell_length_c 8.891288
_cell_angle_alpha 90.000000
_cell_angle_beta 90.000000
_cell_angle_gamma 90.000000
_cell_volume 3076.712053
_symmetry_space_group_name_H-M "I -4 2 D"
_symmetry_group_IT_number 122
_symmetry_cell_setting 'tetragonal'
loop_
_space_group_symop_operation_xyz
x,y,z
y,-x,-z
-x,-y,z
-y,x,-z
x,1/2-y,1/4-z
-x,1/2+y,1/4-z
-y,1/2-x,1/4+z
y,1/2+x,1/4+z
1/2+x,1/2+y,1/2+z
1/2+y,1/2-x,1/2-z
1/2-x,1/2-y,1/2+z
1/2-y,1/2+x,1/2-z
1/2+x,-y,3/4-z
1/2-x,y,3/4-z
1/2-y,-x,3/4+z
1/2+y,x,3/4+z
loop_
_atom_site_type_symbol
_atom_site_label
_atom_site_fract_x
_atom_site_fract_y
_atom_site_fract_z
Si Si1 0.178724 0.905297 0.584709
Si Si2 0.802486 0.574035 0.008913
Si Si3 0.804161 0.547261 0.496052
Si Si4 0.081897 0.343581 0.481458
O O1 0.138070 0.847802 0.687683
O O2 0.264860 0.895828 0.577815
O O3 0.153226 0.905286 0.411922
O O4 0.163829 0.983470 0.654856
O O5 0.750000 0.546933 0.875000
O O6 0.749177 0.592789 0.145234
O O7 0.849106 0.503366 0.048999
O O8 0.750000 0.514043 0.375000
O O9 0.865766 0.594994 0.421493
#
# Coordination Sequence:
#
# PCOD9560815 Si02
#       4
#    16  16  16  16
#     4  10  20  38  64  88 121 162 208 250 311 370
#     4  11  20  38  63  88 121 161 209 255 305 376
#     4  11  24  40  59  93 129 158 205 267 319 368
#     4  10  19  39  62  91 122 158 206 260 302 374
#
# _framework density 20.801428000000001
#
# number of rings (size 3 to 8) (size 9 to 14) (size 15 to 20)
#    0.000    1.500    7.500    0.000    0.000    6.000 
#    0.000    2.500    0.000    6.000    0.000    0.000 
#    0.000    0.000    0.000    0.000    0.000    0.000 
#
# Total GULP energy -178562.997250 kJ/mol
# GULP energy per Si atom -5580.093664 kJ/mol
# Density = 2.075408 g / cm^3
# Si number density = 20.801428 Si / 1000 Ang^3
#
#
#
# Elastic Constant Matrix: (Units=GPa)
#
#
# Indices 1 2 3 4 5 6 
#
# 1 67.5622 54.4452 7.8909 0.0000 0.0000 0.0000
# 2 54.4452 67.5622 7.8909 0.0000 0.0000 0.0000
# 3 7.8909 7.8909 27.4523 0.0000 0.0000 0.0000
# 4 0.0000 0.0000 0.0000 29.1299 0.0000 0.0000
# 5 0.0000 0.0000 0.0000 0.0000 29.1299 0.0000
# 6 0.0000 0.0000 0.0000 0.0000 0.0000 -39.3900
#
#
#
# Elastic Compliance Matrix: (Units=1/GPa)
#
#
# Indices 1 2 3 4 5 6 
#
# 1 0.042375 -0.033862 -0.002447 0.000000 0.000000 0.000000
# 2 -0.033862 0.042375 -0.002447 0.000000 0.000000 0.000000
# 3 -0.002447 -0.002447 0.037834 0.000000 0.000000 0.000000
# 4 0.000000 0.000000 0.000000 0.034329 0.000000 0.000000
# 5 0.000000 0.000000 0.000000 0.000000 0.034329 0.000000
# 6 0.000000 0.000000 0.000000 0.000000 0.000000 -0.025387
#
#
# Mechanical properties :
#
#
# Convention : Reuss Voigt Hill
#
# Bulk Modulus (GPa) = 22.18704 33.67009 27.92857
# Shear Modulus (GPa) = 19.35057 9.93062 14.64059
#
# Velocity S-wave (km/s) = 3.05331 2.18732 2.65585
# Velocity P-wave (km/s) = 4.80828 4.75402 4.78123
#
# Compressibility (1/GPa) = 0.04507135
#
# Stress axis : x y z
#
# Youngs Moduli (GPa) = 23.59880 23.59880 26.43159
#
# Poissons Ratio (x) = 0.79911 0.06468
# Poissons Ratio (y) = 0.79911 0.06468
# Poissons Ratio (z) = 0.05774 0.05774
#
# Static dielectric constant tensor:
#      x y z
#    x 1.743580 0.000000 0.000000 
#    y 0.000000 1.743580 0.000000 
#    z 0.000000 0.000000 1.859700 
# 
# From -- ./inp_files/2554.got.cif
#   From: 2010.05.17/outbox.cif.g08.bks.cpg/sg122_2_cif.got.tgz:2554.got - 2010.05.20 11:37:33.
