data_PCOD9560266
_publ_section_title
;
Structure prediction by ZEFSAII (Michael W. Deem and Ramdas Pophale) SiO2 
 PCOD9560266
Probable space group: I -4 2 M
;
_chemical_formula_sum "Si O2"
_cell_formula_units_Z 112
_cell_length_a 14.161736
_cell_length_b 14.161736
_cell_length_c 26.120409
_cell_angle_alpha 90.000000
_cell_angle_beta 90.000000
_cell_angle_gamma 90.000000
_cell_volume 5238.572529
_symmetry_space_group_name_H-M "I -4 2 M"
_symmetry_group_IT_number 121
_symmetry_cell_setting 'tetragonal'
loop_
_space_group_symop_operation_xyz
x,y,z
y,-x,-z
-x,-y,z
-y,x,-z
x,-y,-z
-x,y,-z
-y,-x,z
y,x,z
1/2+x,1/2+y,1/2+z
1/2+y,1/2-x,1/2-z
1/2-x,1/2-y,1/2+z
1/2-y,1/2+x,1/2-z
1/2+x,1/2-y,1/2-z
1/2-x,1/2+y,1/2-z
1/2-y,1/2-x,1/2+z
1/2+y,1/2+x,1/2+z
loop_
_atom_site_type_symbol
_atom_site_label
_atom_site_fract_x
_atom_site_fract_y
_atom_site_fract_z
Si Si1 0.820503 0.026728 0.662146
Si Si2 0.318088 0.838134 0.184610
Si Si3 0.793123 0.359766 0.795924
Si Si4 0.360855 0.205633 0.601404
Si Si5 0.279372 0.435292 0.407625
Si Si6 0.445155 0.291686 0.950347
Si Si7 0.893570 0.632748 0.992111
O O1 0.917233 0.082768 0.674808
O O2 0.736027 0.101802 0.669620
O O3 0.818623 0.002991 0.601946
O O4 0.788203 0.936939 0.694051
O O5 0.221996 0.778005 0.190104
O O6 0.338810 0.879779 0.240703
O O7 0.293087 0.905482 0.137687
O O8 0.742777 0.257224 0.792632
O O9 0.860032 0.354383 0.845883
O O10 0.267734 0.267734 0.602590
O O11 0.451586 0.274518 0.595880
O O12 0.355747 0.146180 0.549373
O O13 0.377531 0.377531 0.401945
O O14 0.231035 0.404529 0.461028
O O15 0.343704 0.343704 0.947031
O O16 0.426969 0.180646 0.959155
O O17 0.500000 0.326871 0.000000
O O18 0.000000 0.597983 0.000000
#
# Coordination Sequence:
#
# PCOD9560266 Si02
#       7
#    16  16  16  16  16  16  16
#     4  10  21  38  63  87 112 155 205 246 294 362
#     4   9  19  37  59  80 107 147 190 233 289 346
#     4  10  22  39  58  84 119 154 191 243 302 354
#     4  10  21  35  55  85 118 152 183 230 298 350
#     4  10  19  35  59  82 108 148 195 237 280 347
#     4  11  22  37  59  87 121 162 202 246 298 358
#     4  10  20  36  59  84 113 151 194 239 294 356
#
# _framework density 21.37987
#
# number of rings (size 3 to 8) (size 9 to 14) (size 15 to 20)
#    0.000    2.000    1.429    2.143    2.000    2.714 
#    0.000    2.143    0.000    5.143    0.000    0.000 
#    0.000    0.000    0.000    0.000    0.000    0.000 
#
# Total GULP energy -312351.526780 kJ/mol
# GULP energy per Si atom -5577.705835 kJ/mol
# Density = 2.133121 g / cm^3
# Si number density = 21.379870 Si / 1000 Ang^3
#
#
#
# Elastic Constant Matrix: (Units=GPa)
#
#
# Indices 1 2 3 4 5 6 
#
# 1 50.7543 -2.4138 8.7086 0.0000 0.0000 0.0000
# 2 -2.4138 50.7554 8.7084 0.0000 0.0000 0.0000
# 3 8.7086 8.7084 139.8913 0.0000 0.0000 0.0000
# 4 0.0000 0.0000 0.0000 4.5621 0.0000 0.0000
# 5 0.0000 0.0000 0.0000 0.0000 4.5527 0.0000
# 6 0.0000 0.0000 0.0000 0.0000 0.0000 16.9142
#
#
#
# Elastic Compliance Matrix: (Units=1/GPa)
#
#
# Indices 1 2 3 4 5 6 
#
# 1 0.019985 0.001176 -0.001317 0.000000 0.000000 0.000000
# 2 0.001176 0.019984 -0.001317 0.000000 0.000000 0.000000
# 3 -0.001317 -0.001317 0.007312 0.000000 0.000000 0.000000
# 4 0.000000 0.000000 0.000000 0.219197 0.000000 0.000000
# 5 0.000000 0.000000 0.000000 0.000000 0.219651 0.000000
# 6 0.000000 0.000000 0.000000 0.000000 0.000000 0.059122
#
#
# Mechanical properties :
#
#
# Convention : Reuss Voigt Hill
#
# Bulk Modulus (GPa) = 22.54024 30.15639 26.34831
# Shear Modulus (GPa) = 8.88169 20.29899 14.59034
#
# Velocity S-wave (km/s) = 2.04040 3.08465 2.61518
# Velocity P-wave (km/s) = 4.01455 5.17903 4.63352
#
# Compressibility (1/GPa) = 0.04436510
#
# Stress axis : x y z
#
# Youngs Moduli (GPa) = 50.03815 50.03927 136.75371
#
# Poissons Ratio (x) = -0.05887 0.18015
# Poissons Ratio (y) = -0.05887 0.18014
# Poissons Ratio (z) = 0.06592 0.06592
#
# Static dielectric constant tensor:
#      x y z
#    x 1.875280 0.000000 0.000000 
#    y 0.000000 1.875360 0.000000 
#    z 0.000000 0.000000 1.828040 
# 
# From -- ./inp_files/7198.got.cif
#   From: 2010.05.17/outbox.cif.g08.bks.cpg/sg121_4_cif.got.tgz:7198.got - 2010.05.20 11:32:06.
