data_PCOD9560698
_publ_section_title
;
Structure prediction by ZEFSAII (Michael W. Deem and Ramdas Pophale) SiO2 
 PCOD9560698
Probable space group: I -4 2 D
;
_chemical_formula_sum "Si O2"
_cell_formula_units_Z 96
_cell_length_a 13.956145
_cell_length_b 13.956145
_cell_length_c 22.065881
_cell_angle_alpha 90.000000
_cell_angle_beta 90.000000
_cell_angle_gamma 90.000000
_cell_volume 4297.859537
_symmetry_space_group_name_H-M "I -4 2 D"
_symmetry_group_IT_number 122
_symmetry_cell_setting 'tetragonal'
loop_
_space_group_symop_operation_xyz
x,y,z
y,-x,-z
-x,-y,z
-y,x,-z
x,1/2-y,1/4-z
-x,1/2+y,1/4-z
-y,1/2-x,1/4+z
y,1/2+x,1/4+z
1/2+x,1/2+y,1/2+z
1/2+y,1/2-x,1/2-z
1/2-x,1/2-y,1/2+z
1/2-y,1/2+x,1/2-z
1/2+x,-y,3/4-z
1/2-x,y,3/4-z
1/2-y,-x,3/4+z
1/2+y,x,3/4+z
loop_
_atom_site_type_symbol
_atom_site_label
_atom_site_fract_x
_atom_site_fract_y
_atom_site_fract_z
Si Si1 0.955834 0.790370 0.897218
Si Si2 0.118775 0.670233 0.869962
Si Si3 0.793919 0.007452 0.960909
Si Si4 0.074661 0.859928 0.509281
Si Si5 0.839720 0.250000 0.125000
Si Si6 0.000000 0.500000 0.354068
Si Si7 0.663644 0.750000 0.625000
Si Si8 0.006267 0.750000 0.625000
O O1 0.845946 0.780593 0.879916
O O2 0.009545 0.692110 0.882786
O O3 0.988822 0.892802 0.866756
O O4 0.974467 0.803290 0.968605
O O5 0.132004 0.682490 0.797629
O O6 0.169459 0.763349 0.897476
O O7 0.164466 0.570531 0.890577
O O8 0.901045 0.009656 0.933058
O O9 0.731562 0.091448 0.930095
O O10 0.750283 0.909275 0.934245
O O11 0.965969 0.880437 0.485618
O O12 0.064341 0.792608 0.567958
#
# Coordination Sequence:
#
# PCOD9560698 Si02
#       8
#    16  16  16  16   8   8   8   8
#     4  11  20  35  55  81 120 158 201 253 304 358
#     4  10  21  36  60  89 116 156 198 254 311 364
#     4  10  19  34  54  78 114 162 205 250 300 365
#     4   9  19  41  66  87 116 154 202 253 314 380
#     4   9  22  33  51  88 113 158 220 249 290 388
#     4  10  17  30  56  74 102 166 204 228 295 362
#     4  10  20  36  52  80 122 152 202 240 300 372
#     4   9  20  41  67  90 113 156 202 255 318 382
#
# _framework density 22.336698999999999
#
# number of rings (size 3 to 8) (size 9 to 14) (size 15 to 20)
#    0.000    2.167    1.667    2.500    0.000    1.333 
#    9.000    0.000    0.000    0.000    0.000    0.000 
#    0.000    0.000    0.000    0.000    0.000    0.000 
#
# Total GULP energy -267428.135660 kJ/mol
# GULP energy per Si atom -5571.419493 kJ/mol
# Density = 2.228586 g / cm^3
# Si number density = 22.336699 Si / 1000 Ang^3
#
#
#
# Elastic Constant Matrix: (Units=GPa)
#
#
# Indices 1 2 3 4 5 6 
#
# 1 59.2422 17.8938 24.3876 0.0000 0.0000 0.0000
# 2 17.8938 59.2422 24.3876 0.0000 0.0000 0.0000
# 3 24.3876 24.3876 52.3022 0.0000 0.0000 0.0000
# 4 0.0000 0.0000 0.0000 17.6889 0.0000 0.0000
# 5 0.0000 0.0000 0.0000 0.0000 17.6889 0.0000
# 6 0.0000 0.0000 0.0000 0.0000 0.0000 21.8635
#
#
#
# Elastic Compliance Matrix: (Units=1/GPa)
#
#
# Indices 1 2 3 4 5 6 
#
# 1 0.021285 -0.002900 -0.008572 0.000000 0.000000 0.000000
# 2 -0.002900 0.021285 -0.008572 0.000000 0.000000 0.000000
# 3 -0.008572 -0.008572 0.027114 0.000000 0.000000 0.000000
# 4 0.000000 0.000000 0.000000 0.056533 0.000000 0.000000
# 5 0.000000 0.000000 0.000000 0.000000 0.056533 0.000000
# 6 0.000000 0.000000 0.000000 0.000000 0.000000 0.045738
#
#
# Mechanical properties :
#
#
# Convention : Reuss Voigt Hill
#
# Bulk Modulus (GPa) = 33.79109 33.79162 33.79135
# Shear Modulus (GPa) = 17.95709 18.38943 18.17326
#
# Velocity S-wave (km/s) = 2.83844 2.87240 2.85547
# Velocity P-wave (km/s) = 5.08952 5.11489 5.10222
#
# Compressibility (1/GPa) = 0.02959360
#
# Stress axis : x y z
#
# Youngs Moduli (GPa) = 46.98203 46.98203 36.88131
#
# Poissons Ratio (x) = 0.13625 0.31616
# Poissons Ratio (y) = 0.13625 0.31616
# Poissons Ratio (z) = 0.40275 0.40275
#
# Static dielectric constant tensor:
#      x y z
#    x 1.926020 0.000000 0.000000 
#    y 0.000000 1.926020 0.000000 
#    z 0.000000 0.000000 1.840500 
# 
# From -- ./inp_files/7384.got.cif
#   From: 2010.05.17/outbox.cif.g08.bks.cpg/sg122_4_cif.got.tgz:7384.got - 2010.05.20 11:37:33.
