data_PCOD9560887
_publ_section_title
;
Structure prediction by ZEFSAII (Michael W. Deem and Ramdas Pophale) SiO2 
 PCOD9560887
Probable space group: I -4 2 D
;
_chemical_formula_sum "Si O2"
_cell_formula_units_Z 84
_cell_length_a 19.097965
_cell_length_b 19.097965
_cell_length_c 12.134009
_cell_angle_alpha 90.000000
_cell_angle_beta 90.000000
_cell_angle_gamma 90.000000
_cell_volume 4425.664612
_symmetry_space_group_name_H-M "I -4 2 D"
_symmetry_group_IT_number 122
_symmetry_cell_setting 'tetragonal'
loop_
_space_group_symop_operation_xyz
x,y,z
y,-x,-z
-x,-y,z
-y,x,-z
x,1/2-y,1/4-z
-x,1/2+y,1/4-z
-y,1/2-x,1/4+z
y,1/2+x,1/4+z
1/2+x,1/2+y,1/2+z
1/2+y,1/2-x,1/2-z
1/2-x,1/2-y,1/2+z
1/2-y,1/2+x,1/2-z
1/2+x,-y,3/4-z
1/2-x,y,3/4-z
1/2-y,-x,3/4+z
1/2+y,x,3/4+z
loop_
_atom_site_type_symbol
_atom_site_label
_atom_site_fract_x
_atom_site_fract_y
_atom_site_fract_z
Si Si1 0.786670 0.995977 0.208319
Si Si2 0.823730 0.151107 0.150574
Si Si3 0.803877 0.322968 0.782773
Si Si4 0.500000 0.500000 0.000000
Si Si5 0.851982 0.545308 0.815137
Si Si6 0.729134 0.626738 0.552787
O O1 0.822753 0.956148 0.310807
O O2 0.704829 0.000079 0.245225
O O3 0.789014 0.948330 0.100482
O O4 0.821803 0.070260 0.183759
O O5 0.745903 0.179031 0.177901
O O6 0.872230 0.199275 0.229787
O O7 0.843909 0.169404 0.026428
O O8 0.750000 0.357013 0.875000
O O9 0.878524 0.353125 0.743956
O O10 0.825672 0.250769 0.842659
O O11 0.429032 0.486411 0.933499
#
# Coordination Sequence:
#
# PCOD9560887 Si02
#       6
#    16  16  16   4  16  16
#     4  10  22  39  64  87 125 164 201 256 312 377
#     4  10  20  37  65  86 122 164 196 262 307 357
#     4   9  19  35  62  88 122 153 199 257 312 351
#     4  12  24  36  56  92 130 164 200 252 312 396
#     4  10  23  37  59  94 127 159 206 251 318 375
#     4   9  21  36  60  92 119 153 209 249 304 371
#
# _framework density 18.980201000000001
#
# number of rings (size 3 to 8) (size 9 to 14) (size 15 to 20)
#    0.000    2.286    0.000    1.143   16.000   13.714 
#    0.000    1.905   25.143    0.000    0.000    0.000 
#    0.000    0.000    0.000    0.000    0.000    0.000 
#
# Total GULP energy -233906.774651 kJ/mol
# GULP energy per Si atom -5569.208920 kJ/mol
# Density = 1.893700 g / cm^3
# Si number density = 18.980201 Si / 1000 Ang^3
#
#
#
# Elastic Constant Matrix: (Units=GPa)
#
#
# Indices 1 2 3 4 5 6 
#
# 1 105.6111 39.8362 49.3229 0.0000 0.0000 0.0000
# 2 39.8362 105.6111 49.3229 0.0000 0.0000 0.0000
# 3 49.3229 49.3229 80.4572 0.0000 0.0000 0.0000
# 4 0.0000 0.0000 0.0000 22.3323 0.0000 0.0000
# 5 0.0000 0.0000 0.0000 0.0000 22.3323 0.0000
# 6 0.0000 0.0000 0.0000 0.0000 0.0000 22.6419
#
#
#
# Elastic Compliance Matrix: (Units=1/GPa)
#
#
# Indices 1 2 3 4 5 6 
#
# 1 0.013486 -0.001718 -0.007214 0.000000 0.000000 0.000000
# 2 -0.001718 0.013486 -0.007214 0.000000 0.000000 0.000000
# 3 -0.007214 -0.007214 0.021274 0.000000 0.000000 0.000000
# 4 0.000000 0.000000 0.000000 0.044778 0.000000 0.000000
# 5 0.000000 0.000000 0.000000 0.000000 0.044778 0.000000
# 6 0.000000 0.000000 0.000000 0.000000 0.000000 0.044166
#
#
# Mechanical properties :
#
#
# Convention : Reuss Voigt Hill
#
# Bulk Modulus (GPa) = 62.68253 63.18264 62.93258
# Shear Modulus (GPa) = 22.77090 23.67445 23.22268
#
# Velocity S-wave (km/s) = 3.46745 3.53558 3.50168
# Velocity P-wave (km/s) = 7.00913 7.07305 7.04116
#
# Compressibility (1/GPa) = 0.01595341
#
# Stress axis : x y z
#
# Youngs Moduli (GPa) = 74.15196 74.15196 47.00526
#
# Poissons Ratio (x) = 0.12736 0.33911
# Poissons Ratio (y) = 0.12736 0.33911
# Poissons Ratio (z) = 0.53496 0.53496
#
# Static dielectric constant tensor:
#      x y z
#    x 1.694230 0.000000 0.000000 
#    y 0.000000 1.694230 0.000000 
#    z 0.000000 0.000000 1.693630 
# 
# From -- ./inp_files/4408.got.cif
#   From: 2010.05.17/outbox.cif.g08.bks.cpg/sg122_3_cif.got.tgz:4408.got - 2010.05.20 11:37:33.
