data_PCOD9560661
_publ_section_title
;
Structure prediction by ZEFSAII (Michael W. Deem and Ramdas Pophale) SiO2 
 PCOD9560661
Probable space group: I -4 2 M
;
_chemical_formula_sum "Si O2"
_cell_formula_units_Z 56
_cell_length_a 14.518938
_cell_length_b 14.518938
_cell_length_c 11.079110
_cell_angle_alpha 90.000000
_cell_angle_beta 90.000000
_cell_angle_gamma 90.000000
_cell_volume 2335.471520
_symmetry_space_group_name_H-M "I -4 2 M"
_symmetry_group_IT_number 121
_symmetry_cell_setting 'tetragonal'
loop_
_space_group_symop_operation_xyz
x,y,z
y,-x,-z
-x,-y,z
-y,x,-z
x,-y,-z
-x,y,-z
-y,-x,z
y,x,z
1/2+x,1/2+y,1/2+z
1/2+y,1/2-x,1/2-z
1/2-x,1/2-y,1/2+z
1/2-y,1/2+x,1/2-z
1/2+x,1/2-y,1/2-z
1/2-x,1/2+y,1/2-z
1/2-y,1/2-x,1/2+z
1/2+y,1/2+x,1/2+z
loop_
_atom_site_type_symbol
_atom_site_label
_atom_site_fract_x
_atom_site_fract_y
_atom_site_fract_z
Si Si1 0.174528 0.174528 0.217707
Si Si2 0.213807 0.500000 0.500000
Si Si3 0.545816 0.698897 0.270864
Si Si4 0.247120 0.752881 0.541359
Si Si5 0.653981 0.088674 0.426513
O O1 0.236709 0.236709 0.310380
O O2 0.204611 0.204611 0.081315
O O3 0.064165 0.184567 0.236473
O O4 0.274162 0.562574 0.588960
O O5 0.150437 0.436677 0.583982
O O6 0.610501 0.610501 0.241166
O O7 0.569296 0.788248 0.192251
O O8 0.275196 0.857010 0.511528
O O9 0.625027 0.000000 0.500000
#
# Coordination Sequence:
#
# PCOD9560661 Si02
#       5
#     8   8  16   8  16
#     4  12  27  54  80 122 163 214 274 338 406 493
#     4  12  31  50  79 116 160 206 266 339 407 490
#     4  12  29  49  81 116 160 214 267 337 406 492
#     4  12  26  48  82 112 162 212 270 324 414 488
#     4  12  27  50  76 112 154 208 268 329 404 481
#
# _framework density 23.978027999999998
#
# number of rings (size 3 to 8) (size 9 to 14) (size 15 to 20)
#    0.000    0.000    7.143    0.857   12.000    0.000 
#    0.000    0.000    0.000    0.000    0.000    2.000 
#    0.000    0.000    0.000    0.000    0.000    0.000 
#
# Total GULP energy -156247.566147 kJ/mol
# GULP energy per Si atom -5580.270220 kJ/mol
# Density = 2.392345 g / cm^3
# Si number density = 23.978028 Si / 1000 Ang^3
#
#
#
# Elastic Constant Matrix: (Units=GPa)
#
#
# Indices 1 2 3 4 5 6 
#
# 1 117.3072 47.4418 48.0646 0.0000 0.0000 0.0000
# 2 47.4418 117.3087 48.0641 0.0000 0.0000 0.0000
# 3 48.0646 48.0641 155.3805 0.0000 0.0000 0.0000
# 4 0.0000 0.0000 0.0000 46.3038 0.0000 0.0000
# 5 0.0000 0.0000 0.0000 0.0000 46.3038 0.0000
# 6 0.0000 0.0000 0.0000 0.0000 0.0000 63.3234
#
#
#
# Elastic Compliance Matrix: (Units=1/GPa)
#
#
# Indices 1 2 3 4 5 6 
#
# 1 0.010860 -0.003453 -0.002291 0.000000 0.000000 0.000000
# 2 -0.003453 0.010860 -0.002291 0.000000 0.000000 0.000000
# 3 -0.002291 -0.002291 0.007853 0.000000 0.000000 0.000000
# 4 0.000000 0.000000 0.000000 0.021597 0.000000 0.000000
# 5 0.000000 0.000000 0.000000 0.000000 0.021596 0.000000
# 6 0.000000 0.000000 0.000000 0.000000 0.000000 0.015792
#
#
# Mechanical properties :
#
#
# Convention : Reuss Voigt Hill
#
# Bulk Modulus (GPa) = 74.06279 75.23749 74.65014
# Shear Modulus (GPa) = 45.81711 47.61460 46.71585
#
# Velocity S-wave (km/s) = 4.37601 4.46102 4.41872
# Velocity P-wave (km/s) = 7.51581 7.61446 7.56530
#
# Compressibility (1/GPa) = 0.01350206
#
# Stress axis : x y z
#
# Youngs Moduli (GPa) = 92.08135 92.08299 127.33575
#
# Poissons Ratio (x) = 0.31798 0.29175
# Poissons Ratio (y) = 0.31798 0.29174
# Poissons Ratio (z) = 0.21097 0.21097
#
# Static dielectric constant tensor:
#      x y z
#    x 1.986790 0.000000 0.000000 
#    y 0.000000 1.986780 0.000000 
#    z 0.000000 0.000000 1.891110 
# 
# From -- ./inp_files/2767.got.cif
#   From: 2010.05.17/outbox.cif.g08.bks.cpg/sg121_2_cif.got.tgz:2767.got - 2010.05.20 11:32:06.
