data_PCOD9560323
_publ_section_title
;
Structure prediction by ZEFSAII (Michael W. Deem and Ramdas Pophale) SiO2 
 PCOD9560323
Probable space group: I -4 2 M
;
_chemical_formula_sum "Si O2"
_cell_formula_units_Z 92
_cell_length_a 21.463423
_cell_length_b 21.463423
_cell_length_c 8.988690
_cell_angle_alpha 90.000000
_cell_angle_beta 90.000000
_cell_angle_gamma 90.000000
_cell_volume 4140.896468
_symmetry_space_group_name_H-M "I -4 2 M"
_symmetry_group_IT_number 121
_symmetry_cell_setting 'tetragonal'
loop_
_space_group_symop_operation_xyz
x,y,z
y,-x,-z
-x,-y,z
-y,x,-z
x,-y,-z
-x,y,-z
-y,-x,z
y,x,z
1/2+x,1/2+y,1/2+z
1/2+y,1/2-x,1/2-z
1/2-x,1/2-y,1/2+z
1/2-y,1/2+x,1/2-z
1/2+x,1/2-y,1/2-z
1/2-x,1/2+y,1/2-z
1/2-y,1/2-x,1/2+z
1/2+y,1/2+x,1/2+z
loop_
_atom_site_type_symbol
_atom_site_label
_atom_site_fract_x
_atom_site_fract_y
_atom_site_fract_z
Si Si1 0.795513 0.047192 0.370739
Si Si2 0.541013 0.754638 0.647479
Si Si3 0.074035 0.925966 0.247828
Si Si4 0.500000 0.500000 0.500000
Si Si5 0.141852 0.242881 0.384872
Si Si6 0.455404 0.907246 0.778034
Si Si7 0.000000 0.000000 0.500000
Si Si8 0.860620 0.615840 0.481569
O O1 0.852697 0.061047 0.261551
O O2 0.775497 0.108165 0.460015
O O3 0.816924 0.000000 0.500000
O O4 0.742681 0.011014 0.277960
O O5 0.500000 0.734545 0.500000
O O6 0.595706 0.721307 0.749263
O O7 0.584913 0.811058 0.592715
O O8 0.041986 0.958015 0.391478
O O9 0.042906 0.957095 0.104676
O O10 0.205966 0.205966 0.368875
O O11 0.151599 0.317220 0.406627
O O12 0.527477 0.921711 0.763805
O O13 0.434547 0.863375 0.646910
O O14 0.426212 0.883764 0.930871
#
# Coordination Sequence:
#
# PCOD9560323 Si02
#       8
#    16  16   8   2  16  16   2  16
#     4  10  23  43  74 104 142 196 249 305 368 453
#     4  11  26  47  73 107 144 190 247 313 377 433
#     4  11  20  44  64 108 140 194 238 310 379 458
#     4  10  28  34  68 106 160 170 248 314 408 446
#     4  11  26  49  75 108 147 200 258 303 369 459
#     4  11  24  42  69 106 146 188 250 316 382 441
#     4  10  20  34  76  98 136 186 240 306 380 458
#     4  12  25  43  71 104 144 199 244 308 367 448
#
# _framework density 22.217410000000001
#
# number of rings (size 3 to 8) (size 9 to 14) (size 15 to 20)
#    0.000    1.043    3.478    2.087    6.087    3.478 
#    3.130    0.000    0.000    0.000    0.000    0.000 
#    0.000    0.000    0.000    0.000    0.000    0.000 
#
# Total GULP energy -256413.615388 kJ/mol
# GULP energy per Si atom -5574.209030 kJ/mol
# Density = 2.216684 g / cm^3
# Si number density = 22.217410 Si / 1000 Ang^3
#
#
#
# Elastic Constant Matrix: (Units=GPa)
#
#
# Indices 1 2 3 4 5 6 
#
# 1 -77.4683 167.8756 36.0105 0.0000 0.0000 0.0000
# 2 167.8756 -77.4692 36.0104 0.0000 0.0000 0.0000
# 3 36.0105 36.0104 116.9819 0.0000 0.0000 0.0000
# 4 0.0000 0.0000 0.0000 37.3943 0.0000 0.0000
# 5 0.0000 0.0000 0.0000 0.0000 37.3928 0.0000
# 6 0.0000 0.0000 0.0000 0.0000 0.0000 27.1345
#
#
#
# Elastic Compliance Matrix: (Units=1/GPa)
#
#
# Indices 1 2 3 4 5 6 
#
# 1 0.005290 0.009365 -0.004511 0.000000 0.000000 0.000000
# 2 0.009365 0.005289 -0.004511 0.000000 0.000000 0.000000
# 3 -0.004511 -0.004511 0.011326 0.000000 0.000000 0.000000
# 4 0.000000 0.000000 0.000000 0.026742 0.000000 0.000000
# 5 0.000000 0.000000 0.000000 0.000000 0.026743 0.000000
# 6 0.000000 0.000000 0.000000 0.000000 0.000000 0.036854
#
#
# Mechanical properties :
#
#
# Convention : Reuss Voigt Hill
#
# Bulk Modulus (GPa) = 44.26614 49.09304 46.67959
# Shear Modulus (GPa) = 41.98591 1.86083 21.92337
#
# Velocity S-wave (km/s) = 4.35187 0.91617 3.14469
# Velocity P-wave (km/s) = 6.72451 4.82325 5.85162
#
# Compressibility (1/GPa) = 0.02259063
#
# Stress axis : x y z
#
# Youngs Moduli (GPa) = 189.05370 189.05538 88.29483
#
# Poissons Ratio (x) = -1.77058 0.39832
# Poissons Ratio (y) = -1.77056 0.39831
# Poissons Ratio (z) = 0.85286 0.85286
#
# Static dielectric constant tensor:
#      x y z
#    x 1.842270 0.000000 0.000000 
#    y 0.000000 1.842270 0.000000 
#    z 0.000000 0.000000 1.978800 
# 
# From -- ./inp_files/2020.got.cif
#   From: 2010.05.17/outbox.cif.g08.bks.cpg/sg121_2_cif.got.tgz:2020.got - 2010.05.20 11:32:06.
