data_PCOD9560277
_publ_section_title
;
Structure prediction by ZEFSAII (Michael W. Deem and Ramdas Pophale) SiO2 
 PCOD9560277
Probable space group: I -4 2 M
;
_chemical_formula_sum "Si O2"
_cell_formula_units_Z 80
_cell_length_a 11.699423
_cell_length_b 11.699423
_cell_length_c 27.512367
_cell_angle_alpha 90.000000
_cell_angle_beta 90.000000
_cell_angle_gamma 90.000000
_cell_volume 3765.796461
_symmetry_space_group_name_H-M "I -4 2 M"
_symmetry_group_IT_number 121
_symmetry_cell_setting 'tetragonal'
loop_
_space_group_symop_operation_xyz
x,y,z
y,-x,-z
-x,-y,z
-y,x,-z
x,-y,-z
-x,y,-z
-y,-x,z
y,x,z
1/2+x,1/2+y,1/2+z
1/2+y,1/2-x,1/2-z
1/2-x,1/2-y,1/2+z
1/2-y,1/2+x,1/2-z
1/2+x,1/2-y,1/2-z
1/2-x,1/2+y,1/2-z
1/2-y,1/2-x,1/2+z
1/2+y,1/2+x,1/2+z
loop_
_atom_site_type_symbol
_atom_site_label
_atom_site_fract_x
_atom_site_fract_y
_atom_site_fract_z
Si Si1 0.311399 0.017062 0.354794
Si Si2 0.607608 0.070555 0.549462
Si Si3 0.685906 0.495339 0.429417
Si Si4 0.181625 0.521926 0.332854
Si Si5 0.318527 0.495896 0.240019
O O1 0.369188 0.893030 0.348369
O O2 0.211734 0.017578 0.315885
O O3 0.293234 0.052574 0.410917
O O4 0.407571 0.107378 0.338500
O O5 0.554362 0.198759 0.547438
O O6 0.500000 0.000000 0.570850
O O7 0.632574 0.000000 0.500000
O O8 0.627124 0.372877 0.444705
O O9 0.587927 0.587927 0.436940
O O10 0.717136 0.485749 0.372253
O O11 0.217800 0.523676 0.277051
O O12 0.416672 0.583329 0.254288
O O13 0.368680 0.368680 0.246701
#
# Coordination Sequence:
#
# PCOD9560277 Si02
#       5
#    16  16  16  16  16
#     4  10  20  37  58  88 114 156 206 257 294 369
#     4  10  20  42  66  87 120 164 208 249 300 380
#     4  10  20  36  64 101 134 159 195 259 328 377
#     4  10  19  36  59  89 121 159 200 244 306 380
#     4  11  24  37  52  81 122 164 206 253 305 365
#
# _framework density 21.243845
#
# number of rings (size 3 to 8) (size 9 to 14) (size 15 to 20)
#    0.000    1.800    4.000    2.400    0.000   10.400 
#    0.000    5.000    0.000    4.800    0.000    1.400 
#    0.000    3.600    0.000    0.000    0.000    0.000 
#
# Total GULP energy -222789.656990 kJ/mol
# GULP energy per Si atom -5569.741425 kJ/mol
# Density = 2.119549 g / cm^3
# Si number density = 21.243845 Si / 1000 Ang^3
#
#
#
# Elastic Constant Matrix: (Units=GPa)
#
#
# Indices 1 2 3 4 5 6 
#
# 1 75.2083 19.6451 26.7876 0.0000 0.0000 0.0000
# 2 19.6451 75.2097 26.7871 0.0000 0.0000 0.0000
# 3 26.7876 26.7871 145.5441 0.0000 0.0000 0.0000
# 4 0.0000 0.0000 0.0000 -0.5927 0.0000 0.0000
# 5 0.0000 0.0000 0.0000 0.0000 -0.5948 0.0000
# 6 0.0000 0.0000 0.0000 0.0000 0.0000 10.0294
#
#
#
# Elastic Compliance Matrix: (Units=1/GPa)
#
#
# Indices 1 2 3 4 5 6 
#
# 1 0.014882 -0.003116 -0.002166 0.000000 0.000000 0.000000
# 2 -0.003116 0.014881 -0.002165 0.000000 0.000000 0.000000
# 3 -0.002166 -0.002165 0.007668 0.000000 0.000000 0.000000
# 4 0.000000 0.000000 0.000000 -1.687211 -0.000001 0.000000
# 5 0.000000 0.000000 0.000000 -0.000001 -1.681110 0.000000
# 6 0.000000 0.000000 0.000000 0.000000 0.000000 0.099707
#
#
# Mechanical properties :
#
#
# Convention : Reuss Voigt Hill
#
# Bulk Modulus (GPa) = 44.37104 49.15575 46.76339
# Shear Modulus (GPa) = -1.55823 16.61785 7.52981
#
# Velocity S-wave (km/s) = -0.85737 2.79990 1.88472
# Velocity P-wave (km/s) = 4.46674 5.80014 5.17655
#
# Compressibility (1/GPa) = 0.02253722
#
# Stress axis : x y z
#
# Youngs Moduli (GPa) = 67.19702 67.19851 130.41427
#
# Poissons Ratio (x) = 0.20938 0.28241
# Poissons Ratio (y) = 0.20938 0.28240
# Poissons Ratio (z) = 0.14552 0.14551
#
# Static dielectric constant tensor:
#      x y z
#    x 1.807730 0.000000 0.000000 
#    y 0.000000 1.807720 0.000000 
#    z 0.000000 0.000000 1.828660 
# 
# From -- ./inp_files/8023.got.cif
#   From: 2010.05.17/outbox.cif.g08.bks.cpg/sg121_5_cif.got.tgz:8023.got - 2010.05.20 11:32:06.
