data_PCOD9560260
_publ_section_title
;
Structure prediction by ZEFSAII (Michael W. Deem and Ramdas Pophale) SiO2 
 PCOD9560260
Probable space group: I -4 2 M
;
_chemical_formula_sum "Si O2"
_cell_formula_units_Z 112
_cell_length_a 14.253783
_cell_length_b 14.253783
_cell_length_c 28.980051
_cell_angle_alpha 90.000000
_cell_angle_beta 90.000000
_cell_angle_gamma 90.000000
_cell_volume 5887.886520
_symmetry_space_group_name_H-M "I -4 2 M"
_symmetry_group_IT_number 121
_symmetry_cell_setting 'tetragonal'
loop_
_space_group_symop_operation_xyz
x,y,z
y,-x,-z
-x,-y,z
-y,x,-z
x,-y,-z
-x,y,-z
-y,-x,z
y,x,z
1/2+x,1/2+y,1/2+z
1/2+y,1/2-x,1/2-z
1/2-x,1/2-y,1/2+z
1/2-y,1/2+x,1/2-z
1/2+x,1/2-y,1/2-z
1/2-x,1/2+y,1/2-z
1/2-y,1/2-x,1/2+z
1/2+y,1/2+x,1/2+z
loop_
_atom_site_type_symbol
_atom_site_label
_atom_site_fract_x
_atom_site_fract_y
_atom_site_fract_z
Si Si1 0.213973 0.631987 0.541425
Si Si2 0.692101 0.921919 0.063231
Si Si3 0.346318 0.014362 0.241473
Si Si4 0.945837 0.206904 0.316584
Si Si5 0.997442 0.644693 0.447025
Si Si6 0.347540 0.505679 0.085151
Si Si7 0.141848 0.714527 0.837690
O O1 0.291559 0.708442 0.554540
O O2 0.234331 0.524349 0.554212
O O3 0.203186 0.632996 0.485295
O O4 0.112303 0.645465 0.565415
O O5 0.579402 0.918886 0.074372
O O6 0.734470 0.880312 0.109331
O O7 0.418405 0.093619 0.260451
O O8 0.312798 0.051651 0.192047
O O9 0.258519 0.999330 0.275389
O O10 0.882962 0.117038 0.302394
O O11 0.008005 0.177820 0.360465
O O12 0.871927 0.285013 0.334987
O O13 0.000000 0.614736 0.500000
O O14 0.023170 0.753717 0.441194
O O15 0.397584 0.602417 0.070314
O O16 0.424221 0.424221 0.079459
O O17 0.196948 0.803053 0.816741
#
# Coordination Sequence:
#
# PCOD9560260 Si02
#       7
#    16  16  16  16  16  16  16
#     4  10  21  36  55  82 115 148 185 235 287 330
#     4  10  20  36  58  82 110 148 190 231 275 338
#     4   9  19  35  53  80 109 136 178 230 284 331
#     4   9  18  34  54  76 107 144 182 226 278 338
#     4  10  20  34  53  79 111 147 189 232 276 328
#     4  10  20  32  48  75 110 148 187 223 274 343
#     4  10  19  34  58  83 104 143 192 230 273 335
#
# _framework density 19.022106000000001
#
# number of rings (size 3 to 8) (size 9 to 14) (size 15 to 20)
#    0.000    2.286    1.429    1.286    0.000    6.286 
#    5.143    1.429    0.000    8.143    0.000    0.000 
#    0.000    0.000    0.000    0.000    0.000    0.000 
#
# Total GULP energy -311941.461018 kJ/mol
# GULP energy per Si atom -5570.383232 kJ/mol
# Density = 1.897881 g / cm^3
# Si number density = 19.022106 Si / 1000 Ang^3
#
#
#
# Elastic Constant Matrix: (Units=GPa)
#
#
# Indices 1 2 3 4 5 6 
#
# 1 68.7446 34.3113 14.3700 0.0000 0.0000 0.0000
# 2 34.3113 68.7440 14.3703 0.0000 0.0000 0.0000
# 3 14.3700 14.3703 49.1280 0.0000 0.0000 0.0000
# 4 0.0000 0.0000 0.0000 21.2219 0.0000 0.0000
# 5 0.0000 0.0000 0.0000 0.0000 21.2224 0.0000
# 6 0.0000 0.0000 0.0000 0.0000 0.0000 23.7708
#
#
#
# Elastic Compliance Matrix: (Units=1/GPa)
#
#
# Indices 1 2 3 4 5 6 
#
# 1 0.019804 -0.009238 -0.003090 0.000000 0.000000 0.000000
# 2 -0.009238 0.019804 -0.003091 0.000000 0.000000 0.000000
# 3 -0.003090 -0.003091 0.022163 0.000000 0.000000 0.000000
# 4 0.000000 0.000000 0.000000 0.047121 0.000000 0.000000
# 5 0.000000 0.000000 0.000000 0.000000 0.047120 0.000000
# 6 0.000000 0.000000 0.000000 0.000000 0.000000 0.042068
#
#
# Mechanical properties :
#
#
# Convention : Reuss Voigt Hill
#
# Bulk Modulus (GPa) = 32.32898 34.74663 33.53781
# Shear Modulus (GPa) = 20.90050 21.48069 21.19059
#
# Velocity S-wave (km/s) = 3.31833 3.36407 3.34128
# Velocity P-wave (km/s) = 5.63153 5.77888 5.70568
#
# Compressibility (1/GPa) = 0.03093200
#
# Stress axis : x y z
#
# Youngs Moduli (GPa) = 50.49599 50.49541 45.12042
#
# Poissons Ratio (x) = 0.46649 0.13944
# Poissons Ratio (y) = 0.46650 0.13945
# Poissons Ratio (z) = 0.15605 0.15606
#
# Static dielectric constant tensor:
#      x y z
#    x 1.687020 0.000000 0.000000 
#    y 0.000000 1.687020 0.000000 
#    z 0.000000 0.000000 1.653010 
# 
# From -- ./inp_files/8376.got.cif
#   From: 2010.05.17/outbox.cif.g08.bks.cpg/sg121_5_cif.got.tgz:8376.got - 2010.05.20 11:32:06.
