data_PCOD9560314
_publ_section_title
;
Structure prediction by ZEFSAII (Michael W. Deem and Ramdas Pophale) SiO2 
 PCOD9560314
Probable space group: I -4 2 M
;
_chemical_formula_sum "Si O2"
_cell_formula_units_Z 96
_cell_length_a 17.921117
_cell_length_b 17.921117
_cell_length_c 11.919091
_cell_angle_alpha 90.000000
_cell_angle_beta 90.000000
_cell_angle_gamma 90.000000
_cell_volume 3828.011959
_symmetry_space_group_name_H-M "I -4 2 M"
_symmetry_group_IT_number 121
_symmetry_cell_setting 'tetragonal'
loop_
_space_group_symop_operation_xyz
x,y,z
y,-x,-z
-x,-y,z
-y,x,-z
x,-y,-z
-x,y,-z
-y,-x,z
y,x,z
1/2+x,1/2+y,1/2+z
1/2+y,1/2-x,1/2-z
1/2-x,1/2-y,1/2+z
1/2-y,1/2+x,1/2-z
1/2+x,1/2-y,1/2-z
1/2-x,1/2+y,1/2-z
1/2-y,1/2-x,1/2+z
1/2+y,1/2+x,1/2+z
loop_
_atom_site_type_symbol
_atom_site_label
_atom_site_fract_x
_atom_site_fract_y
_atom_site_fract_z
Si Si1 0.795828 0.915527 0.495159
Si Si2 0.380990 0.266820 0.450154
Si Si3 0.118075 0.409941 0.944856
Si Si4 0.734609 0.384238 0.297426
Si Si5 0.726672 0.458983 0.768620
Si Si6 0.585879 0.106885 0.796421
O O1 0.849971 0.849971 0.453220
O O2 0.708582 0.920336 0.454992
O O3 0.790500 0.904885 0.629766
O O4 0.827682 0.000000 0.500000
O O5 0.296461 0.296461 0.441637
O O6 0.388613 0.178985 0.439690
O O7 0.406572 0.285333 0.574960
O O8 0.426891 0.300788 0.348531
O O9 0.079635 0.435631 0.825696
O O10 0.087498 0.429841 0.070700
O O11 0.692644 0.307357 0.273803
O O12 0.705673 0.453737 0.223781
O O13 0.824082 0.376681 0.294801
O O14 0.816636 0.457659 0.771960
#
# Coordination Sequence:
#
# PCOD9560314 Si02
#       6
#    16  16  16  16  16  16
#     4  11  23  36  50  70 101 142 186 231 276 324
#     4   9  17  31  54  82 109 137 173 220 274 332
#     4   9  18  33  53  78 105 135 174 223 277 325
#     4  10  20  34  55  83 113 145 182 226 275 328
#     4  10  20  34  54  80 109 141 180 227 278 329
#     4   9  19  33  53  80 110 141 176 222 273 326
#
# _framework density 25.078292000000001
#
# number of rings (size 3 to 8) (size 9 to 14) (size 15 to 20)
#    0.000    2.333    0.000    2.500    0.000    9.500 
#    0.000    0.000    0.000    2.000    0.000    4.667 
#    0.000   13.333    0.000    0.000    0.000    1.167 
#
# Total GULP energy -267512.794443 kJ/mol
# GULP energy per Si atom -5573.183218 kJ/mol
# Density = 2.502121 g / cm^3
# Si number density = 25.078292 Si / 1000 Ang^3
#
#
#
# Elastic Constant Matrix: (Units=GPa)
#
#
# Indices 1 2 3 4 5 6 
#
# 1 35.6325 34.5724 38.4673 0.0000 0.0000 0.0000
# 2 34.5724 35.6368 38.4691 0.0000 0.0000 0.0000
# 3 38.4673 38.4691 199.5411 0.0000 0.0000 0.0000
# 4 0.0000 0.0000 0.0000 34.6350 0.0000 0.0000
# 5 0.0000 0.0000 0.0000 0.0000 34.6352 0.0000
# 6 0.0000 0.0000 0.0000 0.0000 0.0000 17.6312
#
#
#
# Elastic Compliance Matrix: (Units=1/GPa)
#
#
# Indices 1 2 3 4 5 6 
#
# 1 0.479728 -0.461639 -0.003483 0.000000 0.000000 0.000000
# 2 -0.461639 0.479667 -0.003480 0.000000 0.000000 0.000000
# 3 -0.003483 -0.003480 0.006354 0.000000 0.000000 0.000000
# 4 0.000000 0.000000 0.000000 0.028872 0.000000 0.000000
# 5 0.000000 0.000000 0.000000 0.000000 0.028872 0.000000
# 6 0.000000 0.000000 0.000000 0.000000 0.000000 0.056718
#
#
# Mechanical properties :
#
#
# Convention : Reuss Voigt Hill
#
# Bulk Modulus (GPa) = 35.03174 54.86977 44.95076
# Shear Modulus (GPa) = 2.46678 28.00040 15.23359
#
# Velocity S-wave (km/s) = 0.99286 3.34506 2.46731
# Velocity P-wave (km/s) = 3.91326 6.07010 5.10685
#
# Compressibility (1/GPa) = 0.02854554
#
# Stress axis : x y z
#
# Youngs Moduli (GPa) = 2.08451 2.08478 157.38574
#
# Poissons Ratio (x) = 0.96241 0.54817
# Poissons Ratio (y) = 0.96229 0.54768
# Poissons Ratio (z) = 0.00726 0.00725
#
# Static dielectric constant tensor:
#      x y z
#    x 2.016380 0.000000 0.000000 
#    y 0.000000 2.016370 0.000000 
#    z 0.000000 0.000000 2.191200 
# 
# From -- ./inp_files/3326.got.cif
#   From: 2010.05.17/outbox.cif.g08.bks.cpg/sg121_2_cif.got.tgz:3326.got - 2010.05.20 11:32:06.
