data_PCOD9560025
_publ_section_title
;
Structure prediction by ZEFSAII (Michael W. Deem and Ramdas Pophale) SiO2 
 PCOD9560025
Probable space group: I -4 C 2
;
_chemical_formula_sum "Si O2"
_cell_formula_units_Z 88
_cell_length_a 12.891262
_cell_length_b 12.891262
_cell_length_c 24.936528
_cell_angle_alpha 90.000000
_cell_angle_beta 90.000000
_cell_angle_gamma 90.000000
_cell_volume 4144.067828
_symmetry_space_group_name_H-M "I -4 C 2"
_symmetry_group_IT_number 120
_symmetry_cell_setting 'tetragonal'
loop_
_space_group_symop_operation_xyz
x,y,z
y,-x,-z
-x,-y,z
-y,x,-z
y,x,1/2-z
-y,-x,1/2-z
-x,y,1/2+z
x,-y,1/2+z
1/2+x,1/2+y,1/2+z
1/2+y,1/2-x,1/2-z
1/2-x,1/2-y,1/2+z
1/2-y,1/2+x,1/2-z
1/2+y,1/2+x,-z
1/2-y,1/2-x,-z
1/2-x,1/2+y,z
1/2+x,1/2-y,z
loop_
_atom_site_type_symbol
_atom_site_label
_atom_site_fract_x
_atom_site_fract_y
_atom_site_fract_z
Si Si1 0.803673 0.375597 0.183414
Si Si2 0.549708 0.282641 0.740125
Si Si3 0.112405 0.467788 0.410614
Si Si4 0.594099 0.292390 0.136035
Si Si5 0.186136 0.686136 0.000000
Si Si6 0.100969 0.896424 0.530241
O O1 0.753368 0.475290 0.211787
O O2 0.865904 0.306463 0.226569
O O3 0.889177 0.404330 0.139071
O O4 0.711580 0.310175 0.155472
O O5 0.612947 0.387054 0.750000
O O6 0.478096 0.298745 0.688102
O O7 0.182536 0.563866 0.391084
O O8 0.172035 0.402563 0.455579
O O9 0.000000 0.500000 0.430791
O O10 0.565206 0.378185 0.090982
O O11 0.298402 0.673523 0.025125
O O12 0.013251 0.869512 0.486502
#
# Coordination Sequence:
#
# PCOD9560025 Si02
#       6
#    16  16  16  16   8  16
#     4  11  26  46  71 106 146 187 243 299 371 427
#     4  11  26  44  72 103 143 193 240 303 354 441
#     4  11  26  45  76 107 142 189 239 299 369 436
#     4  11  24  49  68 103 145 186 244 294 369 436
#     4  12  23  50  68 113 136 186 244 294 363 440
#     4  11  25  45  72 103 144 190 236 301 367 438
#
# _framework density 21.235173
#
# number of rings (size 3 to 8) (size 9 to 14) (size 15 to 20)
#    0.000    0.909    3.636    1.909    7.636    5.818 
#    0.000    0.000    0.000    0.000    0.000    0.000 
#    0.000    0.000    0.000    0.000    0.000    0.000 
#
# Total GULP energy -246024.299198 kJ/mol
# GULP energy per Si atom -5591.461345 kJ/mol
# Density = 2.118684 g / cm^3
# Si number density = 21.235173 Si / 1000 Ang^3
#
#
#
# Elastic Constant Matrix: (Units=GPa)
#
#
# Indices 1 2 3 4 5 6 
#
# 1 95.3327 38.5730 22.3283 0.0000 0.0000 0.0000
# 2 38.5730 95.3321 22.3275 0.0000 0.0000 0.0000
# 3 22.3283 22.3275 82.2101 0.0000 0.0000 0.0000
# 4 0.0000 0.0000 0.0000 28.5785 0.0000 0.0000
# 5 0.0000 0.0000 0.0000 0.0000 28.5785 0.0000
# 6 0.0000 0.0000 0.0000 0.0000 0.0000 2.6874
#
#
#
# Elastic Compliance Matrix: (Units=1/GPa)
#
#
# Indices 1 2 3 4 5 6 
#
# 1 0.012915 -0.004703 -0.002230 0.000000 0.000000 0.000000
# 2 -0.004703 0.012915 -0.002230 0.000000 0.000000 0.000000
# 3 -0.002230 -0.002230 0.013375 0.000000 0.000000 0.000000
# 4 0.000000 0.000000 0.000000 0.034991 0.000000 0.000000
# 5 0.000000 0.000000 0.000000 0.000000 0.034991 0.000000
# 6 0.000000 0.000000 0.000000 0.000000 0.000000 0.372102
#
#
# Mechanical properties :
#
#
# Convention : Reuss Voigt Hill
#
# Bulk Modulus (GPa) = 47.89779 48.81474 48.35627
# Shear Modulus (GPa) = 9.87016 24.61196 17.24106
#
# Velocity S-wave (km/s) = 2.15827 3.40813 2.85250
# Velocity P-wave (km/s) = 5.36802 6.20683 5.80260
#
# Compressibility (1/GPa) = 0.02087779
#
# Stress axis : x y z
#
# Youngs Moduli (GPa) = 77.42956 77.42940 74.76399
#
# Poissons Ratio (x) = 0.36417 0.16675
# Poissons Ratio (y) = 0.36417 0.16674
# Poissons Ratio (z) = 0.17270 0.17268
#
# Static dielectric constant tensor:
#      x y z
#    x 1.754530 0.000000 0.000000 
#    y 0.000000 1.754530 0.000000 
#    z 0.000000 0.000000 1.755970 
# 
# From -- ./inp_files/6606.got.cif
#   From: 2010.05.17/outbox.cif.g08.bks.cpg/sg120_4_cif.got.tgz:6606.got - 2010.05.20 11:28:13.
