data_PCOD9560501
_publ_section_title
;
Structure prediction by ZEFSAII (Michael W. Deem and Ramdas Pophale) SiO2 
 PCOD9560501
Probable space group: I -4 2 M
;
_chemical_formula_sum "Si O2"
_cell_formula_units_Z 112
_cell_length_a 15.320189
_cell_length_b 15.320189
_cell_length_c 23.547184
_cell_angle_alpha 90.000000
_cell_angle_beta 90.000000
_cell_angle_gamma 90.000000
_cell_volume 5526.716960
_symmetry_space_group_name_H-M "I -4 2 M"
_symmetry_group_IT_number 121
_symmetry_cell_setting 'tetragonal'
loop_
_space_group_symop_operation_xyz
x,y,z
y,-x,-z
-x,-y,z
-y,x,-z
x,-y,-z
-x,y,-z
-y,-x,z
y,x,z
1/2+x,1/2+y,1/2+z
1/2+y,1/2-x,1/2-z
1/2-x,1/2-y,1/2+z
1/2-y,1/2+x,1/2-z
1/2+x,1/2-y,1/2-z
1/2-x,1/2+y,1/2-z
1/2-y,1/2-x,1/2+z
1/2+y,1/2+x,1/2+z
loop_
_atom_site_type_symbol
_atom_site_label
_atom_site_fract_x
_atom_site_fract_y
_atom_site_fract_z
Si Si1 0.226093 0.635293 0.026401
Si Si2 0.000894 0.857771 0.893935
Si Si3 0.278630 0.951565 0.409229
Si Si4 0.997304 0.138787 0.320285
Si Si5 0.178281 0.460637 0.442770
Si Si6 0.414175 0.950773 0.837367
Si Si7 0.729324 0.586642 0.715980
O O1 0.313625 0.686376 0.040352
O O2 0.220770 0.543043 0.057683
O O3 0.141961 0.686304 0.048197
O O4 0.220615 0.620567 0.958665
O O5 0.073227 0.926774 0.913282
O O6 0.031938 0.820766 0.832952
O O7 0.998637 0.774276 0.933897
O O8 0.910160 0.910160 0.889989
O O9 0.193624 0.953731 0.370122
O O10 0.362406 0.941719 0.369432
O O11 0.923621 0.076380 0.292921
O O12 0.042515 0.202779 0.275250
O O13 0.072984 0.072984 0.341337
O O14 0.136378 0.500000 0.500000
O O15 0.124013 0.486548 0.387141
O O16 0.332533 0.924158 0.796796
O O17 0.500000 0.000000 0.813946
O O18 0.683581 0.683581 0.714297
#
# Coordination Sequence:
#
# PCOD9560501 Si02
#       7
#    16  16  16  16  16  16  16
#     4  11  23  38  61  91 125 163 210 263 311 368
#     4   9  18  33  54  84 122 159 200 254 312 368
#     4  11  23  40  62  91 128 164 209 258 315 369
#     4  10  21  42  70  95 124 164 207 253 314 381
#     4  11  21  36  58  84 118 166 213 253 306 370
#     4  11  22  41  65  89 125 171 212 259 315 378
#     4   9  20  39  64  94 124 160 207 259 311 376
#
# _framework density 20.265196
#
# number of rings (size 3 to 8) (size 9 to 14) (size 15 to 20)
#    0.000    1.714    2.857    1.714    0.000    4.286 
#    2.571    0.714    0.000    3.429    0.000    0.000 
#    0.000    0.000    0.000    0.000    0.000    0.000 
#
# Total GULP energy -312600.660414 kJ/mol
# GULP energy per Si atom -5582.154650 kJ/mol
# Density = 2.021907 g / cm^3
# Si number density = 20.265196 Si / 1000 Ang^3
#
#
#
# Elastic Constant Matrix: (Units=GPa)
#
#
# Indices 1 2 3 4 5 6 
#
# 1 106.8825 38.1414 31.0683 0.0000 0.0000 0.0000
# 2 38.1414 106.8834 31.0686 0.0000 0.0000 0.0000
# 3 31.0683 31.0686 63.5105 0.0000 0.0000 0.0000
# 4 0.0000 0.0000 0.0000 17.4901 0.0000 0.0000
# 5 0.0000 0.0000 0.0000 0.0000 17.4905 0.0000
# 6 0.0000 0.0000 0.0000 0.0000 0.0000 20.5926
#
#
#
# Elastic Compliance Matrix: (Units=1/GPa)
#
#
# Indices 1 2 3 4 5 6 
#
# 1 0.011636 -0.002912 -0.004268 0.000000 0.000000 0.000000
# 2 -0.002912 0.011636 -0.004268 0.000000 0.000000 0.000000
# 3 -0.004268 -0.004268 0.019921 0.000000 0.000000 0.000000
# 4 0.000000 0.000000 0.000000 0.057175 0.000000 0.000000
# 5 0.000000 0.000000 0.000000 0.000000 0.057174 0.000000
# 6 0.000000 0.000000 0.000000 0.000000 0.000000 0.048561
#
#
# Mechanical properties :
#
#
# Convention : Reuss Voigt Hill
#
# Bulk Modulus (GPa) = 49.26570 53.09254 51.17912
# Shear Modulus (GPa) = 21.20784 22.91452 22.06118
#
# Velocity S-wave (km/s) = 3.23850 3.36628 3.30301
# Velocity P-wave (km/s) = 6.19250 6.43156 6.31316
#
# Compressibility (1/GPa) = 0.02029810
#
# Stress axis : x y z
#
# Youngs Moduli (GPa) = 85.94322 85.94370 50.19895
#
# Poissons Ratio (x) = 0.25024 0.21423
# Poissons Ratio (y) = 0.25024 0.21423
# Poissons Ratio (z) = 0.36677 0.36678
#
# Static dielectric constant tensor:
#      x y z
#    x 1.717600 0.000000 0.000000 
#    y 0.000000 1.717600 0.000000 
#    z 0.000000 0.000000 1.722160 
# 
# From -- ./inp_files/7172.got.cif
#   From: 2010.05.17/outbox.cif.g08.bks.cpg/sg121_4_cif.got.tgz:7172.got - 2010.05.20 11:32:06.
