data_PCOD9560133
_publ_section_title
;
Structure prediction by ZEFSAII (Michael W. Deem and Ramdas Pophale) SiO2 
 PCOD9560133
Probable space group: I -4 2 M
;
_chemical_formula_sum "Si O2"
_cell_formula_units_Z 80
_cell_length_a 11.049371
_cell_length_b 11.049371
_cell_length_c 32.806322
_cell_angle_alpha 90.000000
_cell_angle_beta 90.000000
_cell_angle_gamma 90.000000
_cell_volume 4005.277908
_symmetry_space_group_name_H-M "I -4 2 M"
_symmetry_group_IT_number 121
_symmetry_cell_setting 'tetragonal'
loop_
_space_group_symop_operation_xyz
x,y,z
y,-x,-z
-x,-y,z
-y,x,-z
x,-y,-z
-x,y,-z
-y,-x,z
y,x,z
1/2+x,1/2+y,1/2+z
1/2+y,1/2-x,1/2-z
1/2-x,1/2-y,1/2+z
1/2-y,1/2+x,1/2-z
1/2+x,1/2-y,1/2-z
1/2-x,1/2+y,1/2-z
1/2-y,1/2-x,1/2+z
1/2+y,1/2+x,1/2+z
loop_
_atom_site_type_symbol
_atom_site_label
_atom_site_fract_x
_atom_site_fract_y
_atom_site_fract_z
Si Si1 0.646374 0.002133 0.569045
Si Si2 0.201459 0.993165 0.820848
Si Si3 0.178728 0.358176 0.502551
Si Si4 0.005876 0.799140 0.273356
Si Si5 0.822097 0.614395 0.846431
O O1 0.686550 0.104904 0.536754
O O2 0.692382 0.033258 0.613559
O O3 0.500000 0.000000 0.571607
O O4 0.682344 0.881478 0.544909
O O5 0.094018 0.094018 0.823212
O O6 0.313600 0.049462 0.845773
O O7 0.241449 0.993629 0.773454
O O8 0.134177 0.865824 0.830999
O O9 0.167642 0.500000 0.500000
O O10 0.313608 0.313608 0.500105
O O11 0.907193 0.907193 0.277374
O O12 0.967552 0.700656 0.306532
O O13 0.136718 0.863283 0.279333
O O14 0.719033 0.719033 0.846469
#
# Coordination Sequence:
#
# PCOD9560133 Si02
#       5
#    16  16  16  16  16
#     4   9  19  35  51  74 110 142 172 217 275 337
#     4   8  15  30  49  69 100 140 182 232 287 337
#     4   9  18  35  59  80 105 142 176 217 277 333
#     4   8  15  29  47  68  98 135 176 227 282 332
#     4  10  18  30  52  76 101 140 188 231 282 344
#
# _framework density 19.973645000000001
#
# number of rings (size 3 to 8) (size 9 to 14) (size 15 to 20)
#    0.000    3.200    0.000    3.000    0.000    1.000 
#    3.600    4.000    0.000   14.400    0.000    0.000 
#    0.000    0.000    0.000    0.000    0.000    0.000 
#
# Total GULP energy -222695.148647 kJ/mol
# GULP energy per Si atom -5567.378716 kJ/mol
# Density = 1.992818 g / cm^3
# Si number density = 19.973645 Si / 1000 Ang^3
#
#
#
# Elastic Constant Matrix: (Units=GPa)
#
#
# Indices 1 2 3 4 5 6 
#
# 1 21.9602 27.0932 17.3123 0.0000 0.0000 0.0000
# 2 27.0932 21.9610 17.3127 0.0000 0.0000 0.0000
# 3 17.3123 17.3127 69.6999 0.0000 0.0000 0.0000
# 4 0.0000 0.0000 0.0000 -19.8829 0.0000 0.0000
# 5 0.0000 0.0000 0.0000 0.0000 -19.8792 0.0000
# 6 0.0000 0.0000 0.0000 0.0000 0.0000 17.1851
#
#
#
# Elastic Compliance Matrix: (Units=1/GPa)
#
#
# Indices 1 2 3 4 5 6 
#
# 1 -0.085058 0.109776 -0.006140 0.000000 0.000000 0.000000
# 2 0.109776 -0.085055 -0.006140 0.000000 0.000000 0.000000
# 3 -0.006140 -0.006140 0.017397 0.000000 0.000000 0.000000
# 4 0.000000 0.000000 0.000000 -0.050295 0.000000 0.000000
# 5 0.000000 0.000000 0.000000 0.000000 -0.050304 0.000000
# 6 0.000000 0.000000 0.000000 0.000000 0.000000 0.058190
#
#
# Mechanical properties :
#
#
# Convention : Reuss Voigt Hill
#
# Bulk Modulus (GPa) = 23.65364 26.33972 24.99668
# Shear Modulus (GPa) = -13.29704 -1.05522 -7.17613
#
# Velocity S-wave (km/s) = -2.58297 -0.72763 -1.89752
# Velocity P-wave (km/s) = 1.72409 3.53694 2.78230
#
# Compressibility (1/GPa) = 0.04227678
#
# Stress axis : x y z
#
# Youngs Moduli (GPa) = -11.75671 -11.75710 57.47975
#
# Poissons Ratio (x) = 1.29065 0.35294
# Poissons Ratio (y) = 1.29061 0.35292
# Poissons Ratio (z) = -0.07219 -0.07219
#
# Static dielectric constant tensor:
#      x y z
#    x 1.721230 0.000000 0.000000 
#    y 0.000000 1.721230 0.000000 
#    z 0.000000 0.000000 1.698160 
# 
# From -- ./inp_files/8042.got.cif
#   From: 2010.05.17/outbox.cif.g08.bks.cpg/sg121_5_cif.got.tgz:8042.got - 2010.05.20 11:32:06.
