data_PCOD9560019
_publ_section_title
;
Structure prediction by ZEFSAII (Michael W. Deem and Ramdas Pophale) SiO2 
 PCOD9560019
Probable space group: I -4 C 2
;
_chemical_formula_sum "Si O2"
_cell_formula_units_Z 56
_cell_length_a 17.589184
_cell_length_b 17.589184
_cell_length_c 6.872452
_cell_angle_alpha 90.000000
_cell_angle_beta 90.000000
_cell_angle_gamma 90.000000
_cell_volume 2126.195034
_symmetry_space_group_name_H-M "I -4 C 2"
_symmetry_group_IT_number 120
_symmetry_cell_setting 'tetragonal'
loop_
_space_group_symop_operation_xyz
x,y,z
y,-x,-z
-x,-y,z
-y,x,-z
y,x,1/2-z
-y,-x,1/2-z
-x,y,1/2+z
x,-y,1/2+z
1/2+x,1/2+y,1/2+z
1/2+y,1/2-x,1/2-z
1/2-x,1/2-y,1/2+z
1/2-y,1/2+x,1/2-z
1/2+y,1/2+x,-z
1/2-y,1/2-x,-z
1/2-x,1/2+y,z
1/2+x,1/2-y,z
loop_
_atom_site_type_symbol
_atom_site_label
_atom_site_fract_x
_atom_site_fract_y
_atom_site_fract_z
Si Si1 0.363224 0.136777 0.500000
Si Si2 0.257688 0.835933 0.644271
Si Si3 0.003674 0.249990 0.498365
Si Si4 0.372780 0.503829 0.752600
O O1 0.321876 0.162712 0.304616
O O2 0.448399 0.174805 0.488781
O O3 0.176841 0.823160 0.750000
O O4 0.266331 0.766331 0.500000
O O5 0.267351 0.907513 0.510107
O O6 0.002627 0.227102 0.245398
O O7 0.996441 0.150532 0.497533
O O8 0.438876 0.438876 0.750000
O O9 0.412735 0.587265 0.750000
#
# Coordination Sequence:
#
# PCOD9560019 Si02
#       4
#     8  16  16  16
#     4  12  28  48  73 114 162 217 268 326 402 496
#     4  12  27  48  79 117 155 208 273 343 409 474
#     4  12  25  46  72 104 158 205 263 321 399 489
#     4  11  24  41  71 112 154 199 253 334 430 501
#
# _framework density 26.338131000000001
#
# number of rings (size 3 to 8) (size 9 to 14) (size 15 to 20)
#    0.000    0.286    4.286    4.286    4.000    4.571 
#    0.000    0.714    0.000    0.000    0.000    0.000 
#    0.000    0.000    0.000    0.000    0.000    0.000 
#
# Total GULP energy -155879.748926 kJ/mol
# GULP energy per Si atom -5567.133890 kJ/mol
# Density = 2.627818 g / cm^3
# Si number density = 26.338131 Si / 1000 Ang^3
#
#
#
# Elastic Constant Matrix: (Units=GPa)
#
#
# Indices 1 2 3 4 5 6 
#
# 1 136.7103 82.6251 40.8830 0.0000 0.0000 0.0000
# 2 82.6251 136.7014 40.8826 0.0000 0.0000 0.0000
# 3 40.8830 40.8826 166.9045 0.0000 0.0000 0.0000
# 4 0.0000 0.0000 0.0000 78.1384 0.0000 0.0000
# 5 0.0000 0.0000 0.0000 0.0000 78.1394 0.0000
# 6 0.0000 0.0000 0.0000 0.0000 0.0000 47.4528
#
#
#
# Elastic Compliance Matrix: (Units=1/GPa)
#
#
# Indices 1 2 3 4 5 6 
#
# 1 0.011754 -0.006737 -0.001229 0.000000 0.000000 0.000000
# 2 -0.006737 0.011755 -0.001229 0.000000 0.000000 0.000000
# 3 -0.001229 -0.001229 0.006594 0.000000 0.000000 0.000000
# 4 0.000000 0.000000 0.000000 0.012798 0.000000 0.000000
# 5 0.000000 0.000000 0.000000 0.000000 0.012798 0.000000
# 6 0.000000 0.000000 0.000000 0.000000 0.000000 0.021074
#
#
# Mechanical properties :
#
#
# Convention : Reuss Voigt Hill
#
# Bulk Modulus (GPa) = 85.37928 85.45528 85.41728
# Shear Modulus (GPa) = 50.47217 59.14117 54.80667
#
# Velocity S-wave (km/s) = 4.38232 4.74377 4.56662
# Velocity P-wave (km/s) = 7.62190 7.90698 7.76575
#
# Compressibility (1/GPa) = 0.01171244
#
# Stress axis : x y z
#
# Youngs Moduli (GPa) = 85.07903 85.07323 151.66362
#
# Poissons Ratio (x) = 0.57311 0.18639
# Poissons Ratio (y) = 0.57315 0.18641
# Poissons Ratio (z) = 0.10456 0.10456
#
# Static dielectric constant tensor:
#      x y z
#    x 2.001090 0.000000 0.000000 
#    y 0.000000 2.001100 0.000000 
#    z 0.000000 0.000000 2.363410 
# 
# From -- ./inp_files/1040.got.cif
#   From: 2010.05.17/outbox.cif.g08.bks.cpg/sg120_1_cif.got.tgz:1040.got - 2010.05.20 11:28:13.
