data_PCOD9560057
_publ_section_title
;
Structure prediction by ZEFSAII (Michael W. Deem and Ramdas Pophale) SiO2 
 PCOD9560057
Probable space group: I -4 C 2
;
_chemical_formula_sum "Si O2"
_cell_formula_units_Z 72
_cell_length_a 18.847098
_cell_length_b 18.847098
_cell_length_c 8.557588
_cell_angle_alpha 90.000000
_cell_angle_beta 90.000000
_cell_angle_gamma 90.000000
_cell_volume 3039.767388
_symmetry_space_group_name_H-M "I -4 C 2"
_symmetry_group_IT_number 120
_symmetry_cell_setting 'tetragonal'
loop_
_space_group_symop_operation_xyz
x,y,z
y,-x,-z
-x,-y,z
-y,x,-z
y,x,1/2-z
-y,-x,1/2-z
-x,y,1/2+z
x,-y,1/2+z
1/2+x,1/2+y,1/2+z
1/2+y,1/2-x,1/2-z
1/2-x,1/2-y,1/2+z
1/2-y,1/2+x,1/2-z
1/2+y,1/2+x,-z
1/2-y,1/2-x,-z
1/2-x,1/2+y,z
1/2+x,1/2-y,z
loop_
_atom_site_type_symbol
_atom_site_label
_atom_site_fract_x
_atom_site_fract_y
_atom_site_fract_z
Si Si1 0.636026 0.965519 0.594600
Si Si2 0.500000 0.000000 0.750000
Si Si3 0.929406 0.854575 0.128891
Si Si4 0.000000 0.000000 0.000000
Si Si5 0.071497 0.177037 0.780011
Si Si6 0.698845 0.906119 0.912579
O O1 0.596809 0.903192 0.500000
O O2 0.569795 0.013324 0.651525
O O3 0.669063 0.928247 0.743261
O O4 0.687354 0.021199 0.510474
O O5 0.865155 0.865155 0.250000
O O6 0.990333 0.816671 0.229563
O O7 0.917650 0.813483 0.965470
O O8 0.958257 0.934012 0.083489
O O9 0.097032 0.097032 0.750000
O O10 0.112159 0.221845 0.645151
O O11 0.655996 0.844005 0.000000
#
# Coordination Sequence:
#
# PCOD9560057 Si02
#       6
#    16   4  16   4  16  16
#     4  12  21  37  65  97 127 162 211 283 367 423
#     4  12  18  32  66  92 130 152 198 280 370 412
#     4  12  21  37  66 101 137 171 215 280 362 421
#     4  12  18  32  66  96 142 168 194 284 366 428
#     4  12  24  41  62  94 132 181 229 276 335 410
#     4  12  24  41  62  93 133 179 229 283 335 409
#
# _framework density 23.686022999999999
#
# number of rings (size 3 to 8) (size 9 to 14) (size 15 to 20)
#    0.000    0.000    8.889    2.000    0.000    0.000 
#    0.000    3.333    0.000    0.000    0.000    0.000 
#    0.000    0.000    0.000    0.000    0.000    0.000 
#
# Total GULP energy -200908.969981 kJ/mol
# GULP energy per Si atom -5580.804722 kJ/mol
# Density = 2.363211 g / cm^3
# Si number density = 23.686023 Si / 1000 Ang^3
#
#
#
# Elastic Constant Matrix: (Units=GPa)
#
#
# Indices 1 2 3 4 5 6 
#
# 1 52.1343 24.4242 40.1366 0.0000 0.0000 0.0000
# 2 24.4242 52.1355 40.1376 0.0000 0.0000 0.0000
# 3 40.1366 40.1376 171.1685 0.0000 0.0000 0.0000
# 4 0.0000 0.0000 0.0000 43.0413 0.0000 0.0000
# 5 0.0000 0.0000 0.0000 0.0000 43.0456 0.0000
# 6 0.0000 0.0000 0.0000 0.0000 0.0000 26.1857
#
#
#
# Elastic Compliance Matrix: (Units=1/GPa)
#
#
# Indices 1 2 3 4 5 6 
#
# 1 0.026704 -0.009383 -0.004061 0.000000 0.000000 0.000000
# 2 -0.009383 0.026704 -0.004061 0.000000 0.000000 0.000000
# 3 -0.004061 -0.004061 0.007747 0.000000 0.000000 0.000000
# 4 0.000000 0.000000 0.000000 0.023233 0.000000 0.000000
# 5 0.000000 0.000000 0.000000 0.000000 0.023231 0.000000
# 6 0.000000 0.000000 0.000000 0.000000 0.000000 0.038189
#
#
# Mechanical properties :
#
#
# Convention : Reuss Voigt Hill
#
# Bulk Modulus (GPa) = 38.25283 53.87056 46.06170
# Shear Modulus (GPa) = 26.38044 33.83717 30.10880
#
# Velocity S-wave (km/s) = 3.34092 3.78374 3.56921
# Velocity P-wave (km/s) = 5.57381 6.47163 6.03942
#
# Compressibility (1/GPa) = 0.02614186
#
# Stress axis : x y z
#
# Youngs Moduli (GPa) = 37.44760 37.44827 129.08367
#
# Poissons Ratio (x) = 0.35139 0.52426
# Poissons Ratio (y) = 0.35139 0.52427
# Poissons Ratio (z) = 0.15209 0.15209
#
# Static dielectric constant tensor:
#      x y z
#    x 2.032390 0.000000 0.000000 
#    y 0.000000 2.032390 0.000000 
#    z 0.000000 0.000000 1.969790 
# 
# From -- ./inp_files/1375.got.cif
#   From: 2010.05.17/outbox.cif.g08.bks.cpg/sg120_1_cif.got.tgz:1375.got - 2010.05.20 11:28:13.
