data_PCOD9560395
_publ_section_title
;
Structure prediction by ZEFSAII (Michael W. Deem and Ramdas Pophale) SiO2 
 PCOD9560395
Probable space group: I -4 2 M
;
_chemical_formula_sum "Si O2"
_cell_formula_units_Z 112
_cell_length_a 15.663253
_cell_length_b 15.663253
_cell_length_c 22.419550
_cell_angle_alpha 90.000000
_cell_angle_beta 90.000000
_cell_angle_gamma 90.000000
_cell_volume 5500.356226
_symmetry_space_group_name_H-M "I -4 2 M"
_symmetry_group_IT_number 121
_symmetry_cell_setting 'tetragonal'
loop_
_space_group_symop_operation_xyz
x,y,z
y,-x,-z
-x,-y,z
-y,x,-z
x,-y,-z
-x,y,-z
-y,-x,z
y,x,z
1/2+x,1/2+y,1/2+z
1/2+y,1/2-x,1/2-z
1/2-x,1/2-y,1/2+z
1/2-y,1/2+x,1/2-z
1/2+x,1/2-y,1/2-z
1/2-x,1/2+y,1/2-z
1/2-y,1/2-x,1/2+z
1/2+y,1/2+x,1/2+z
loop_
_atom_site_type_symbol
_atom_site_label
_atom_site_fract_x
_atom_site_fract_y
_atom_site_fract_z
Si Si1 0.963848 0.675757 0.935185
Si Si2 0.725885 0.408797 0.668887
Si Si3 0.524290 0.335801 0.226233
Si Si4 0.337540 0.192911 0.744869
Si Si5 0.824148 0.455798 0.061122
Si Si6 0.927488 0.561653 0.153101
Si Si7 0.993631 0.138405 0.407813
O O1 0.963510 0.752500 0.888531
O O2 0.868172 0.636804 0.938853
O O3 0.022121 0.606487 0.901411
O O4 0.000000 0.694336 0.000000
O O5 0.671055 0.328946 0.649176
O O6 0.677393 0.460881 0.719556
O O7 0.808174 0.371136 0.702974
O O8 0.577972 0.422029 0.232713
O O9 0.591841 0.258306 0.230863
O O10 0.480426 0.338675 0.161933
O O11 0.253987 0.253987 0.728578
O O12 0.381404 0.132810 0.694382
O O13 0.857923 0.503735 0.120020
O O14 0.722701 0.468022 0.062503
O O15 0.855931 0.500000 0.000000
O O16 0.000000 0.500000 0.182066
O O17 0.066192 0.066192 0.410183
O O18 0.906908 0.093093 0.431253
#
# Coordination Sequence:
#
# PCOD9560395 Si02
#       7
#    16  16  16  16  16  16  16
#     4  11  22  42  63  85 124 167 213 259 314 373
#     4  11  23  39  62  92 125 160 206 260 315 374
#     4  10  20  38  62  86 120 163 201 244 313 382
#     4  10  21  39  61  93 132 164 202 262 329 390
#     4  11  22  37  63  87 116 162 210 254 311 371
#     4  10  21  38  61  91 125 163 210 263 321 382
#     4  10  22  40  61  89 126 165 206 254 312 387
#
# _framework density 20.362317999999998
#
# number of rings (size 3 to 8) (size 9 to 14) (size 15 to 20)
#    0.000    1.571    2.857    2.143    0.000    6.000 
#    0.000    2.143    0.000    0.000    0.000    0.000 
#    0.000    0.000    0.000    0.000    0.000    0.000 
#
# Total GULP energy -312620.994361 kJ/mol
# GULP energy per Si atom -5582.517756 kJ/mol
# Density = 2.031597 g / cm^3
# Si number density = 20.362318 Si / 1000 Ang^3
#
#
#
# Elastic Constant Matrix: (Units=GPa)
#
#
# Indices 1 2 3 4 5 6 
#
# 1 69.3688 26.7478 32.2645 0.0000 0.0000 0.0000
# 2 26.7478 69.3763 32.2615 0.0000 0.0000 0.0000
# 3 32.2645 32.2615 105.9811 0.0000 0.0000 0.0000
# 4 0.0000 0.0000 0.0000 3.8927 0.0000 0.0000
# 5 0.0000 0.0000 0.0000 0.0000 3.8847 0.0000
# 6 0.0000 0.0000 0.0000 0.0000 0.0000 32.2888
#
#
#
# Elastic Compliance Matrix: (Units=1/GPa)
#
#
# Indices 1 2 3 4 5 6 
#
# 1 0.018270 -0.005192 -0.003981 0.000000 0.000000 0.000000
# 2 -0.005192 0.018267 -0.003980 0.000000 0.000000 0.000000
# 3 -0.003981 -0.003980 0.011859 0.000000 0.000000 0.000000
# 4 0.000000 0.000000 0.000000 0.256889 0.000000 0.000000
# 5 0.000000 0.000000 0.000000 0.000000 0.257419 0.000000
# 6 0.000000 0.000000 0.000000 0.000000 0.000000 0.030970
#
#
# Mechanical properties :
#
#
# Convention : Reuss Voigt Hill
#
# Bulk Modulus (GPa) = 45.27237 47.47487 46.37362
# Shear Modulus (GPa) = 7.97011 18.24341 13.10676
#
# Velocity S-wave (km/s) = 1.98057 2.99647 2.53983
# Velocity P-wave (km/s) = 5.24518 5.94453 5.60577
#
# Compressibility (1/GPa) = 0.02208853
#
# Stress axis : x y z
#
# Youngs Moduli (GPa) = 54.73565 54.74428 84.32282
#
# Poissons Ratio (x) = 0.28425 0.33572
# Poissons Ratio (y) = 0.28421 0.33559
# Poissons Ratio (z) = 0.21792 0.21787
#
# Static dielectric constant tensor:
#      x y z
#    x 1.748500 0.000000 0.000000 
#    y 0.000000 1.748500 0.000000 
#    z 0.000000 0.000000 1.715850 
# 
# From -- ./inp_files/7190.got.cif
#   From: 2010.05.17/outbox.cif.g08.bks.cpg/sg121_4_cif.got.tgz:7190.got - 2010.05.20 11:32:06.
