data_PCOD9560687
_publ_section_title
;
Structure prediction by ZEFSAII (Michael W. Deem and Ramdas Pophale) SiO2 
 PCOD9560687
Probable space group: I -4 2 D
;
_chemical_formula_sum "Si O2"
_cell_formula_units_Z 64
_cell_length_a 26.588325
_cell_length_b 26.588325
_cell_length_c 5.325616
_cell_angle_alpha 90.000000
_cell_angle_beta 90.000000
_cell_angle_gamma 90.000000
_cell_volume 3764.885790
_symmetry_space_group_name_H-M "I -4 2 D"
_symmetry_group_IT_number 122
_symmetry_cell_setting 'tetragonal'
loop_
_space_group_symop_operation_xyz
x,y,z
y,-x,-z
-x,-y,z
-y,x,-z
x,1/2-y,1/4-z
-x,1/2+y,1/4-z
-y,1/2-x,1/4+z
y,1/2+x,1/4+z
1/2+x,1/2+y,1/2+z
1/2+y,1/2-x,1/2-z
1/2-x,1/2-y,1/2+z
1/2-y,1/2+x,1/2-z
1/2+x,-y,3/4-z
1/2-x,y,3/4-z
1/2-y,-x,3/4+z
1/2+y,x,3/4+z
loop_
_atom_site_type_symbol
_atom_site_label
_atom_site_fract_x
_atom_site_fract_y
_atom_site_fract_z
Si Si1 0.223118 0.066625 0.127811
Si Si2 0.482841 0.116468 0.415545
Si Si3 0.046665 0.608324 0.416030
Si Si4 0.454064 0.233481 0.378102
O O1 0.250000 0.086983 0.375000
O O2 0.163651 0.071524 0.157588
O O3 0.233934 0.006090 0.125430
O O4 0.250000 0.085578 0.875000
O O5 0.433921 0.086029 0.501877
O O6 0.522796 0.103804 0.637300
O O7 0.469878 0.175675 0.401565
O O8 0.504705 0.105168 0.138010
O O9 0.425120 0.250000 0.625000
O O10 0.427204 0.250000 0.125000
#
# Coordination Sequence:
#
# PCOD9560687 Si02
#       4
#    16  16  16  16
#     4  10  16  32  56  69  87 128 176 213 255 276
#     4  12  23  35  50  74 104 142 175 204 245 310
#     4  12  23  35  50  74 104 142 175 204 245 310
#     4  10  16  32  56  69  87 128 176 213 255 276
#
# _framework density 16.999189000000001
#
# number of rings (size 3 to 8) (size 9 to 14) (size 15 to 20)
#    0.000    1.000   10.000    1.500    0.000    3.000 
#    0.000    0.000    0.000    0.000    0.000    0.000 
#    0.000    4.000    0.000    0.000    0.000    0.000 
#
# Total GULP energy -178212.625653 kJ/mol
# GULP energy per Si atom -5569.144552 kJ/mol
# Density = 1.696050 g / cm^3
# Si number density = 16.999189 Si / 1000 Ang^3
#
#
#
# Elastic Constant Matrix: (Units=GPa)
#
#
# Indices 1 2 3 4 5 6 
#
# 1 45.0730 26.3321 9.7454 0.0000 0.0000 0.0000
# 2 26.3321 45.0730 9.7454 0.0000 0.0000 0.0000
# 3 9.7454 9.7454 151.0171 0.0000 0.0000 0.0000
# 4 0.0000 0.0000 0.0000 17.0748 0.0000 0.0000
# 5 0.0000 0.0000 0.0000 0.0000 17.0748 0.0000
# 6 0.0000 0.0000 0.0000 0.0000 0.0000 -9.1206
#
#
#
# Elastic Compliance Matrix: (Units=1/GPa)
#
#
# Indices 1 2 3 4 5 6 
#
# 1 0.033807 -0.019552 -0.000920 0.000000 0.000000 0.000000
# 2 -0.019552 0.033807 -0.000920 0.000000 0.000000 0.000000
# 3 -0.000920 -0.000920 0.006740 0.000000 0.000000 0.000000
# 4 0.000000 0.000000 0.000000 0.058566 0.000000 0.000000
# 5 0.000000 0.000000 0.000000 0.000000 0.058566 0.000000
# 6 0.000000 0.000000 0.000000 0.000000 0.000000 -0.109642
#
#
# Mechanical properties :
#
#
# Convention : Reuss Voigt Hill
#
# Bulk Modulus (GPa) = 31.67353 36.97880 34.32617
# Shear Modulus (GPa) = 36.99515 18.02846 27.51180
#
# Velocity S-wave (km/s) = 4.67013 3.26014 4.02732
# Velocity P-wave (km/s) = 6.91036 5.99765 6.47012
#
# Compressibility (1/GPa) = 0.03157210
#
# Stress axis : x y z
#
# Youngs Moduli (GPa) = 29.57927 29.57927 148.35695
#
# Poissons Ratio (x) = 0.57833 0.13648
# Poissons Ratio (y) = 0.57833 0.13648
# Poissons Ratio (z) = 0.02721 0.02721
#
# Static dielectric constant tensor:
#      x y z
#    x 1.558470 0.000000 0.000000 
#    y 0.000000 1.558470 0.000000 
#    z 0.000000 0.000000 1.729570 
# 
# From -- ./inp_files/1078.got.cif
#   From: 2010.05.17/outbox.cif.g08.bks.cpg/sg122_1_cif.got.tgz:1078.got - 2010.05.20 11:37:33.
