data_PCOD9560185
_publ_section_title
;
Structure prediction by ZEFSAII (Michael W. Deem and Ramdas Pophale) SiO2 
 PCOD9560185
Probable space group: I -4 2 M
;
_chemical_formula_sum "Si O2"
_cell_formula_units_Z 64
_cell_length_a 25.610250
_cell_length_b 25.610250
_cell_length_c 4.844872
_cell_angle_alpha 90.000000
_cell_angle_beta 90.000000
_cell_angle_gamma 90.000000
_cell_volume 3177.678412
_symmetry_space_group_name_H-M "I -4 2 M"
_symmetry_group_IT_number 121
_symmetry_cell_setting 'tetragonal'
loop_
_space_group_symop_operation_xyz
x,y,z
y,-x,-z
-x,-y,z
-y,x,-z
x,-y,-z
-x,y,-z
-y,-x,z
y,x,z
1/2+x,1/2+y,1/2+z
1/2+y,1/2-x,1/2-z
1/2-x,1/2-y,1/2+z
1/2-y,1/2+x,1/2-z
1/2+x,1/2-y,1/2-z
1/2-x,1/2+y,1/2-z
1/2-y,1/2-x,1/2+z
1/2+y,1/2+x,1/2+z
loop_
_atom_site_type_symbol
_atom_site_label
_atom_site_fract_x
_atom_site_fract_y
_atom_site_fract_z
Si Si1 0.037359 0.718027 0.263198
Si Si2 0.896346 0.813158 0.835270
Si Si3 0.392844 0.058840 0.466523
Si Si4 0.053397 0.865046 0.664035
O O1 0.086316 0.752867 0.163136
O O2 0.056611 0.665678 0.415085
O O3 0.000000 0.744473 0.500000
O O4 0.000000 0.707782 0.000000
O O5 0.840278 0.840278 0.907494
O O6 0.908383 0.830167 0.524155
O O7 0.938898 0.841347 0.033140
O O8 0.400343 0.075166 0.151833
O O9 0.413943 0.000000 0.500000
O O10 0.077138 0.922863 0.674460
O O11 0.000000 0.865442 0.500000
#
# Coordination Sequence:
#
# PCOD9560185 Si02
#       4
#    16  16  16  16
#     4  11  21  36  59  84 113 152 196 241 290 347
#     4  10  20  33  52  77 105 140 187 243 293 338
#     4  11  23  39  59  87 119 151 185 222 273 338
#     4  10  19  30  45  68  99 137 182 233 292 352
#
# _framework density 20.140491000000001
#
# number of rings (size 3 to 8) (size 9 to 14) (size 15 to 20)
#    0.000    1.500    0.000    8.250    0.000    1.750 
#    0.000    0.000    0.000    6.000    0.000    0.000 
#    0.000    0.000    0.000    0.000    0.000    0.000 
#
# Total GULP energy -178311.327376 kJ/mol
# GULP energy per Si atom -5572.228980 kJ/mol
# Density = 2.009465 g / cm^3
# Si number density = 20.140491 Si / 1000 Ang^3
#
#
#
# Elastic Constant Matrix: (Units=GPa)
#
#
# Indices 1 2 3 4 5 6 
#
# 1 73.8779 31.0034 5.5414 0.0000 0.0000 0.0000
# 2 31.0034 73.8766 5.5402 0.0000 0.0000 0.0000
# 3 5.5414 5.5402 83.8418 0.0000 0.0000 0.0000
# 4 0.0000 0.0000 0.0000 29.3948 0.0000 0.0000
# 5 0.0000 0.0000 0.0000 0.0000 29.3971 0.0000
# 6 0.0000 0.0000 0.0000 0.0000 0.0000 21.0850
#
#
#
# Elastic Compliance Matrix: (Units=1/GPa)
#
#
# Indices 1 2 3 4 5 6 
#
# 1 0.016463 -0.006861 -0.000635 0.000000 0.000000 0.000000
# 2 -0.006861 0.016463 -0.000634 0.000000 0.000000 0.000000
# 3 -0.000635 -0.000634 0.012011 0.000000 0.000000 0.000000
# 4 0.000000 0.000000 0.000000 0.034020 0.000000 0.000000
# 5 0.000000 0.000000 0.000000 0.000000 0.034017 0.000000
# 6 0.000000 0.000000 0.000000 0.000000 0.000000 0.047427
#
#
# Mechanical properties :
#
#
# Convention : Reuss Voigt Hill
#
# Bulk Modulus (GPa) = 34.87198 35.08514 34.97856
# Shear Modulus (GPa) = 26.84993 28.60946 27.72970
#
# Velocity S-wave (km/s) = 3.65517 3.77303 3.71457
# Velocity P-wave (km/s) = 5.93006 6.03648 5.98351
#
# Compressibility (1/GPa) = 0.02867632
#
# Stress axis : x y z
#
# Youngs Moduli (GPa) = 60.74285 60.74190 83.25636
#
# Poissons Ratio (x) = 0.41677 0.05284
# Poissons Ratio (y) = 0.41677 0.05282
# Poissons Ratio (z) = 0.03855 0.03853
#
# Static dielectric constant tensor:
#      x y z
#    x 1.771310 0.000000 0.000000 
#    y 0.000000 1.771310 0.000000 
#    z 0.000000 0.000000 1.721700 
# 
# From -- ./inp_files/451.got.cif
#   From: 2010.05.17/outbox.cif.g08.bks.cpg/sg121_1_cif.got.tgz:451.got - 2010.05.20 11:32:06.
