data_PCOD9560519
_publ_section_title
;
Structure prediction by ZEFSAII (Michael W. Deem and Ramdas Pophale) SiO2 
 PCOD9560519
Probable space group: I -4 2 M
;
_chemical_formula_sum "Si O2"
_cell_formula_units_Z 80
_cell_length_a 17.168024
_cell_length_b 17.168024
_cell_length_c 14.125973
_cell_angle_alpha 90.000000
_cell_angle_beta 90.000000
_cell_angle_gamma 90.000000
_cell_volume 4163.504087
_symmetry_space_group_name_H-M "I -4 2 M"
_symmetry_group_IT_number 121
_symmetry_cell_setting 'tetragonal'
loop_
_space_group_symop_operation_xyz
x,y,z
y,-x,-z
-x,-y,z
-y,x,-z
x,-y,-z
-x,y,-z
-y,-x,z
y,x,z
1/2+x,1/2+y,1/2+z
1/2+y,1/2-x,1/2-z
1/2-x,1/2-y,1/2+z
1/2-y,1/2+x,1/2-z
1/2+x,1/2-y,1/2-z
1/2-x,1/2+y,1/2-z
1/2-y,1/2-x,1/2+z
1/2+y,1/2+x,1/2+z
loop_
_atom_site_type_symbol
_atom_site_label
_atom_site_fract_x
_atom_site_fract_y
_atom_site_fract_z
Si Si1 0.699859 0.573990 0.260214
Si Si2 0.994201 0.693963 0.613815
Si Si3 0.914606 0.649471 0.103179
Si Si4 0.950219 0.821033 0.094733
Si Si5 0.407652 0.142853 0.376860
O O1 0.646992 0.646992 0.234782
O O2 0.728110 0.524315 0.170381
O O3 0.655008 0.514303 0.328617
O O4 0.776172 0.601674 0.320760
O O5 0.917556 0.642610 0.636895
O O6 0.000000 0.702582 0.500000
O O7 0.072079 0.649612 0.648583
O O8 0.911913 0.740101 0.131676
O O9 0.001178 0.621306 0.130514
O O10 0.899917 0.653969 0.990028
O O11 0.885625 0.885625 0.076890
O O12 0.000000 0.803773 0.000000
#
# Coordination Sequence:
#
# PCOD9560519 Si02
#       5
#    16  16  16  16  16
#     4  11  24  40  58  88 126 161 211 266 307 357
#     4  10  22  39  60  86 122 167 207 243 305 375
#     4   9  17  36  59  88 123 154 190 241 309 373
#     4  11  22  39  63  92 124 159 199 251 322 387
#     4   9  18  35  58  87 120 154 194 246 305 371
#
# _framework density 19.214583999999999
#
# number of rings (size 3 to 8) (size 9 to 14) (size 15 to 20)
#    0.000    2.000    4.000    1.200    5.600    4.600 
#    0.000    4.000    0.000    0.000    0.000    0.000 
#    0.000    0.000    0.000    0.000    0.000    0.000 
#
# Total GULP energy -223019.462167 kJ/mol
# GULP energy per Si atom -5575.486554 kJ/mol
# Density = 1.917085 g / cm^3
# Si number density = 19.214584 Si / 1000 Ang^3
#
#
#
# Elastic Constant Matrix: (Units=GPa)
#
#
# Indices 1 2 3 4 5 6 
#
# 1 67.5705 50.7079 21.4677 0.0000 0.0000 0.0000
# 2 50.7079 67.5705 21.4677 0.0000 0.0000 0.0000
# 3 21.4677 21.4677 34.8838 0.0000 0.0000 0.0000
# 4 0.0000 0.0000 0.0000 20.7987 0.0000 0.0000
# 5 0.0000 0.0000 0.0000 0.0000 20.7987 0.0000
# 6 0.0000 0.0000 0.0000 0.0000 0.0000 20.2862
#
#
#
# Elastic Compliance Matrix: (Units=1/GPa)
#
#
# Indices 1 2 3 4 5 6 
#
# 1 0.035095 -0.024208 -0.006700 0.000000 0.000000 0.000000
# 2 -0.024208 0.035095 -0.006700 0.000000 0.000000 0.000000
# 3 -0.006700 -0.006700 0.036913 0.000000 0.000000 0.000000
# 4 0.000000 0.000000 0.000000 0.048080 0.000000 0.000000
# 5 0.000000 0.000000 0.000000 0.000000 0.048080 0.000000
# 6 0.000000 0.000000 0.000000 0.000000 0.000000 0.049295
#
#
# Mechanical properties :
#
#
# Convention : Reuss Voigt Hill
#
# Bulk Modulus (GPa) = 31.36056 39.70123 35.53090
# Shear Modulus (GPa) = 14.77540 17.46884 16.12212
#
# Velocity S-wave (km/s) = 2.77604 3.01847 2.89979
# Velocity P-wave (km/s) = 5.16060 5.73194 5.45376
#
# Compressibility (1/GPa) = 0.03188718
#
# Stress axis : x y z
#
# Youngs Moduli (GPa) = 28.49432 28.49432 27.09094
#
# Poissons Ratio (x) = 0.68979 0.18150
# Poissons Ratio (y) = 0.68979 0.18150
# Poissons Ratio (z) = 0.19090 0.19090
#
# Static dielectric constant tensor:
#      x y z
#    x 1.664650 0.000000 0.000000 
#    y 0.000000 1.664650 0.000000 
#    z 0.000000 0.000000 1.745790 
# 
# From -- ./inp_files/4233.got.cif
#   From: 2010.05.17/outbox.cif.g08.bks.cpg/sg121_3_cif.got.tgz:4233.got - 2010.05.20 11:32:06.
