data_PCOD9560326
_publ_section_title
;
Structure prediction by ZEFSAII (Michael W. Deem and Ramdas Pophale) SiO2 
 PCOD9560326
Probable space group: I -4 2 M
;
_chemical_formula_sum "Si O2"
_cell_formula_units_Z 96
_cell_length_a 17.523562
_cell_length_b 17.523562
_cell_length_c 17.500368
_cell_angle_alpha 90.000000
_cell_angle_beta 90.000000
_cell_angle_gamma 90.000000
_cell_volume 5373.929444
_symmetry_space_group_name_H-M "I -4 2 M"
_symmetry_group_IT_number 121
_symmetry_cell_setting 'tetragonal'
loop_
_space_group_symop_operation_xyz
x,y,z
y,-x,-z
-x,-y,z
-y,x,-z
x,-y,-z
-x,y,-z
-y,-x,z
y,x,z
1/2+x,1/2+y,1/2+z
1/2+y,1/2-x,1/2-z
1/2-x,1/2-y,1/2+z
1/2-y,1/2+x,1/2-z
1/2+x,1/2-y,1/2-z
1/2-x,1/2+y,1/2-z
1/2-y,1/2-x,1/2+z
1/2+y,1/2+x,1/2+z
loop_
_atom_site_type_symbol
_atom_site_label
_atom_site_fract_x
_atom_site_fract_y
_atom_site_fract_z
Si Si1 0.416321 0.150209 0.536407
Si Si2 0.090096 0.481648 0.143846
Si Si3 0.628648 0.868236 0.285594
Si Si4 0.236258 0.885890 0.825408
Si Si5 0.756824 0.882150 0.905170
Si Si6 0.121412 0.001467 0.122908
O O1 0.500000 0.139755 0.500000
O O2 0.415687 0.206692 0.609135
O O3 0.628830 0.195944 0.527823
O O4 0.389718 0.069797 0.570832
O O5 0.109930 0.432174 0.219513
O O6 0.128951 0.563016 0.153714
O O7 0.000000 0.500000 0.141474
O O8 0.711078 0.865571 0.246065
O O9 0.604195 0.791451 0.328336
O O10 0.188904 0.811097 0.850246
O O11 0.172443 0.951706 0.816679
O O12 0.808264 0.808264 0.895549
O O13 0.815894 0.951504 0.922656
O O14 0.066877 0.066877 0.084345
O O15 0.061694 0.938307 0.153029
#
# Coordination Sequence:
#
# PCOD9560326 Si02
#       6
#    16  16  16  16  16  16
#     4  11  22  34  52  76 106 142 174 214 268 320
#     4  11  21  34  54  78 105 134 175 223 267 317
#     4  11  20  35  56  78 104 141 178 225 275 320
#     4  10  20  35  53  77 108 141 178 220 268 323
#     4  11  22  36  53  77 108 142 181 222 268 324
#     4   9  18  33  53  75 102 138 177 217 262 318
#
# _framework density 17.864024000000001
#
# number of rings (size 3 to 8) (size 9 to 14) (size 15 to 20)
#    0.000    1.500    3.333    3.000    0.000    2.333 
#    0.000    0.833    0.000    5.000    0.000    0.000 
#    0.000    0.000    0.000    0.000    0.000   37.000 
#
# Total GULP energy -267571.276881 kJ/mol
# GULP energy per Si atom -5574.401602 kJ/mol
# Density = 1.782336 g / cm^3
# Si number density = 17.864024 Si / 1000 Ang^3
#
#
#
# Elastic Constant Matrix: (Units=GPa)
#
#
# Indices 1 2 3 4 5 6 
#
# 1 85.7788 31.9852 39.2870 0.0000 0.0000 0.0000
# 2 31.9852 85.7793 39.2868 0.0000 0.0000 0.0000
# 3 39.2870 39.2868 58.8318 0.0000 0.0000 0.0000
# 4 0.0000 0.0000 0.0000 17.9440 0.0000 0.0000
# 5 0.0000 0.0000 0.0000 0.0000 17.9426 0.0000
# 6 0.0000 0.0000 0.0000 0.0000 0.0000 27.0449
#
#
#
# Elastic Compliance Matrix: (Units=1/GPa)
#
#
# Indices 1 2 3 4 5 6 
#
# 1 0.016953 -0.001637 -0.010227 0.000000 0.000000 0.000000
# 2 -0.001637 0.016952 -0.010227 0.000000 0.000000 0.000000
# 3 -0.010227 -0.010227 0.030657 0.000000 0.000000 0.000000
# 4 0.000000 0.000000 0.000000 0.055729 0.000000 0.000000
# 5 0.000000 0.000000 0.000000 0.000000 0.055733 0.000000
# 6 0.000000 0.000000 0.000000 0.000000 0.000000 0.036976
#
#
# Mechanical properties :
#
#
# Convention : Reuss Voigt Hill
#
# Bulk Modulus (GPa) = 49.07193 50.16756 49.61974
# Shear Modulus (GPa) = 18.94111 20.57501 19.75806
#
# Velocity S-wave (km/s) = 3.25975 3.39744 3.32930
# Velocity P-wave (km/s) = 6.45734 6.59804 6.52807
#
# Compressibility (1/GPa) = 0.02037825
#
# Stress axis : x y z
#
# Youngs Moduli (GPa) = 58.98816 58.98898 32.61900
#
# Poissons Ratio (x) = 0.09657 0.33361
# Poissons Ratio (y) = 0.09657 0.33360
# Poissons Ratio (z) = 0.60330 0.60330
#
# Static dielectric constant tensor:
#      x y z
#    x 1.639850 0.000000 0.000000 
#    y 0.000000 1.639840 0.000000 
#    z 0.000000 0.000000 1.625920 
# 
# From -- ./inp_files/6556.got.cif
#   From: 2010.05.17/outbox.cif.g08.bks.cpg/sg121_4_cif.got.tgz:6556.got - 2010.05.20 11:32:06.
