data_PCOD9560712
_publ_section_title
;
Structure prediction by ZEFSAII (Michael W. Deem and Ramdas Pophale) SiO2 
 PCOD9560712
Probable space group: I -4 2 D
;
_chemical_formula_sum "Si O2"
_cell_formula_units_Z 64
_cell_length_a 10.817819
_cell_length_b 10.817819
_cell_length_c 23.211968
_cell_angle_alpha 90.000000
_cell_angle_beta 90.000000
_cell_angle_gamma 90.000000
_cell_volume 2716.385381
_symmetry_space_group_name_H-M "I -4 2 D"
_symmetry_group_IT_number 122
_symmetry_cell_setting 'tetragonal'
loop_
_space_group_symop_operation_xyz
x,y,z
y,-x,-z
-x,-y,z
-y,x,-z
x,1/2-y,1/4-z
-x,1/2+y,1/4-z
-y,1/2-x,1/4+z
y,1/2+x,1/4+z
1/2+x,1/2+y,1/2+z
1/2+y,1/2-x,1/2-z
1/2-x,1/2-y,1/2+z
1/2-y,1/2+x,1/2-z
1/2+x,-y,3/4-z
1/2-x,y,3/4-z
1/2-y,-x,3/4+z
1/2+y,x,3/4+z
loop_
_atom_site_type_symbol
_atom_site_label
_atom_site_fract_x
_atom_site_fract_y
_atom_site_fract_z
Si Si1 0.770651 0.991776 0.204521
Si Si2 0.383171 0.588192 0.404691
Si Si3 0.566949 0.750000 0.125000
Si Si4 0.000000 0.500000 0.663768
Si Si5 0.764287 0.736745 0.511594
O O1 0.821122 0.940963 0.144149
O O2 0.624124 0.005167 0.200016
O O3 0.788353 0.876215 0.248942
O O4 0.814952 0.131692 0.217991
O O5 0.500000 0.500000 0.414231
O O6 0.250000 0.547243 0.375000
O O7 0.348484 0.655041 0.464794
O O8 0.494738 0.876948 0.126135
O O9 0.651180 0.749747 0.068693
#
# Coordination Sequence:
#
# PCOD9560712 Si02
#       5
#    16  16   8   8  16
#     4  10  19  34  64  99 131 177 219 290 362 427
#     4  10  21  42  67  91 136 189 237 288 361 434
#     4  10  18  32  54  88 140 166 212 288 342 422
#     4  10  18  35  56 100 136 166 226 288 362 422
#     4  10  17  36  63  99 135 175 230 289 357 430
#
# _framework density 23.560721999999998
#
# number of rings (size 3 to 8) (size 9 to 14) (size 15 to 20)
#    0.000    2.000    6.250    3.000    0.000    1.000 
#    4.500    0.000   11.000    0.000    6.500    0.000 
#    0.000    0.000    0.000    0.000    0.000    0.000 
#
# Total GULP energy -178268.866555 kJ/mol
# GULP energy per Si atom -5570.902080 kJ/mol
# Density = 2.350710 g / cm^3
# Si number density = 23.560722 Si / 1000 Ang^3
#
#
#
# Elastic Constant Matrix: (Units=GPa)
#
#
# Indices 1 2 3 4 5 6 
#
# 1 141.5575 78.3466 25.8519 0.0000 0.0000 0.0000
# 2 78.3466 141.5575 25.8519 0.0000 0.0000 0.0000
# 3 25.8519 25.8519 31.2437 0.0000 0.0000 0.0000
# 4 0.0000 0.0000 0.0000 28.9340 0.0000 0.0000
# 5 0.0000 0.0000 0.0000 0.0000 28.9340 0.0000
# 6 0.0000 0.0000 0.0000 0.0000 0.0000 51.6828
#
#
#
# Elastic Compliance Matrix: (Units=1/GPa)
#
#
# Indices 1 2 3 4 5 6 
#
# 1 0.010733 -0.005087 -0.004671 0.000000 0.000000 0.000000
# 2 -0.005087 0.010733 -0.004671 0.000000 0.000000 0.000000
# 3 -0.004671 -0.004671 0.039737 0.000000 0.000000 0.000000
# 4 0.000000 0.000000 0.000000 0.034561 0.000000 0.000000
# 5 0.000000 0.000000 0.000000 0.000000 0.034561 0.000000
# 6 0.000000 0.000000 0.000000 0.000000 0.000000 0.019349
#
#
# Mechanical properties :
#
#
# Convention : Reuss Voigt Hill
#
# Bulk Modulus (GPa) = 30.91888 63.82885 47.37387
# Shear Modulus (GPa) = 26.41093 34.19740 30.30416
#
# Velocity S-wave (km/s) = 3.35173 3.81393 3.59028
# Velocity P-wave (km/s) = 5.30380 6.82238 6.11045
#
# Compressibility (1/GPa) = 0.03234270
#
# Stress axis : x y z
#
# Youngs Moduli (GPa) = 93.17128 93.17128 25.16543
#
# Poissons Ratio (x) = 0.47397 0.11756
# Poissons Ratio (y) = 0.47397 0.11756
# Poissons Ratio (z) = 0.43525 0.43525
#
# Static dielectric constant tensor:
#      x y z
#    x 2.018920 0.000000 0.000000 
#    y 0.000000 2.018920 0.000000 
#    z 0.000000 0.000000 1.941220 
# 
# From -- ./inp_files/8560.got.cif
#   From: 2010.05.17/outbox.cif.g08.bks.cpg/sg122_5_cif.got.tgz:8560.got - 2010.05.20 11:37:33.
