data_PCOD9560557
_publ_section_title
;
Structure prediction by ZEFSAII (Michael W. Deem and Ramdas Pophale) SiO2 
 PCOD9560557
Probable space group: I -4 2 M
;
_chemical_formula_sum "Si O2"
_cell_formula_units_Z 44
_cell_length_a 8.317752
_cell_length_b 8.317752
_cell_length_c 23.492624
_cell_angle_alpha 90.000000
_cell_angle_beta 90.000000
_cell_angle_gamma 90.000000
_cell_volume 1625.337152
_symmetry_space_group_name_H-M "I -4 2 M"
_symmetry_group_IT_number 121
_symmetry_cell_setting 'tetragonal'
loop_
_space_group_symop_operation_xyz
x,y,z
y,-x,-z
-x,-y,z
-y,x,-z
x,-y,-z
-x,y,-z
-y,-x,z
y,x,z
1/2+x,1/2+y,1/2+z
1/2+y,1/2-x,1/2-z
1/2-x,1/2-y,1/2+z
1/2-y,1/2+x,1/2-z
1/2+x,1/2-y,1/2-z
1/2-x,1/2+y,1/2-z
1/2-y,1/2-x,1/2+z
1/2+y,1/2+x,1/2+z
loop_
_atom_site_type_symbol
_atom_site_label
_atom_site_fract_x
_atom_site_fract_y
_atom_site_fract_z
Si Si1 0.000000 0.000000 0.692603
Si Si2 0.726503 0.273498 0.434396
Si Si3 0.500000 0.500000 0.500000
Si Si4 0.807918 0.192083 0.598548
Si Si5 0.000000 0.500000 0.750000
Si Si6 0.742807 0.257194 0.798553
Si Si7 0.500000 0.000000 0.927871
Si Si8 0.500000 0.500000 0.000000
O O1 0.889055 0.110946 0.653215
O O2 0.115007 0.115007 0.725884
O O3 0.601587 0.398414 0.456952
O O4 0.755099 0.244902 0.367514
O O5 0.887640 0.362788 0.455118
O O6 0.893634 0.106367 0.544013
O O7 0.864083 0.379263 0.600016
O O8 0.091268 0.649411 0.782136
#
# Coordination Sequence:
#
# PCOD9560557 Si02
#       8
#     4   8   2   8   4   8   8   2
#     4  11  22  47  81 108 172 210 289 313 448 503
#     4  12  27  50  80 117 173 221 276 354 417 507
#     4  12  32  52  78 132 170 228 302 348 424 514
#     4  11  24  42  73 111 151 219 266 345 403 503
#     4  12  30  52  90 130 172 220 302 352 454 510
#     4  12  26  53  83 127 170 227 281 373 424 529
#     4  12  25  49  75 115 154 224 279 345 415 499
#     4  10  24  48  68 104 154 220 288 324 408 490
#
# _framework density 27.071306
#
# number of rings (size 3 to 8) (size 9 to 14) (size 15 to 20)
#    0.000    0.364    3.636    4.364    0.000    8.727 
#    0.000    0.000    0.000    0.000    0.000    0.000 
#    0.000    0.000    0.000    0.000    0.000    0.000 
#
# Total GULP energy -122484.138691 kJ/mol
# GULP energy per Si atom -5567.460850 kJ/mol
# Density = 2.700969 g / cm^3
# Si number density = 27.071306 Si / 1000 Ang^3
#
#
#
# Elastic Constant Matrix: (Units=GPa)
#
#
# Indices 1 2 3 4 5 6 
#
# 1 196.6932 120.8087 44.7957 0.0000 0.0000 0.0000
# 2 120.8087 196.6934 44.7965 0.0000 0.0000 0.0000
# 3 44.7957 44.7965 59.1827 0.0000 0.0000 0.0000
# 4 0.0000 0.0000 0.0000 35.8701 0.0000 0.0000
# 5 0.0000 0.0000 0.0000 0.0000 35.8700 0.0000
# 6 0.0000 0.0000 0.0000 0.0000 0.0000 105.8360
#
#
#
# Elastic Compliance Matrix: (Units=1/GPa)
#
#
# Indices 1 2 3 4 5 6 
#
# 1 0.008591 -0.004586 -0.003031 0.000000 0.000000 0.000000
# 2 -0.004586 0.008591 -0.003032 0.000000 0.000000 0.000000
# 3 -0.003031 -0.003032 0.021486 0.000000 0.000000 0.000000
# 4 0.000000 0.000000 0.000000 0.027878 0.000000 0.000000
# 5 0.000000 0.000000 0.000000 0.000000 0.027878 0.000000
# 6 0.000000 0.000000 0.000000 0.000000 0.000000 0.009449
#
#
# Mechanical properties :
#
#
# Convention : Reuss Voigt Hill
#
# Bulk Modulus (GPa) = 57.57000 97.04126 77.30563
# Shear Modulus (GPa) = 38.17877 51.65979 44.91928
#
# Velocity S-wave (km/s) = 3.75948 4.37313 4.07786
# Velocity P-wave (km/s) = 6.33696 7.83731 7.12673
#
# Compressibility (1/GPa) = 0.01737016
#
# Stress axis : x y z
#
# Youngs Moduli (GPa) = 116.39520 116.39442 46.54217
#
# Poissons Ratio (x) = 0.53384 0.14108
# Poissons Ratio (y) = 0.53384 0.14109
# Poissons Ratio (z) = 0.35283 0.35285
#
# Static dielectric constant tensor:
#      x y z
#    x 2.160490 0.000000 0.000000 
#    y 0.000000 2.160490 0.000000 
#    z 0.000000 0.000000 1.683770 
# 
# From -- ./inp_files/7863.got.cif
#   From: 2010.05.17/outbox.cif.g08.bks.cpg/sg121_4_cif.got.tgz:7863.got - 2010.05.20 11:32:06.
