data_PCOD9560429
_publ_section_title
;
Structure prediction by ZEFSAII (Michael W. Deem and Ramdas Pophale) SiO2 
 PCOD9560429
Probable space group: I -4 2 M
;
_chemical_formula_sum "Si O2"
_cell_formula_units_Z 48
_cell_length_a 12.718622
_cell_length_b 12.718622
_cell_length_c 15.514598
_cell_angle_alpha 90.000000
_cell_angle_beta 90.000000
_cell_angle_gamma 90.000000
_cell_volume 2509.693278
_symmetry_space_group_name_H-M "I -4 2 M"
_symmetry_group_IT_number 121
_symmetry_cell_setting 'tetragonal'
loop_
_space_group_symop_operation_xyz
x,y,z
y,-x,-z
-x,-y,z
-y,x,-z
x,-y,-z
-x,y,-z
-y,-x,z
y,x,z
1/2+x,1/2+y,1/2+z
1/2+y,1/2-x,1/2-z
1/2-x,1/2-y,1/2+z
1/2-y,1/2+x,1/2-z
1/2+x,1/2-y,1/2-z
1/2-x,1/2+y,1/2-z
1/2-y,1/2-x,1/2+z
1/2+y,1/2+x,1/2+z
loop_
_atom_site_type_symbol
_atom_site_label
_atom_site_fract_x
_atom_site_fract_y
_atom_site_fract_z
Si Si1 0.729669 0.903030 0.935236
Si Si2 0.727786 0.442872 0.086340
Si Si3 0.825728 0.469587 0.750220
O O1 0.826844 0.826844 0.956031
O O2 0.624196 0.832066 0.938099
O O3 0.736136 0.941982 0.836463
O O4 0.723229 0.000000 0.000000
O O5 0.641143 0.358858 0.115756
O O6 0.756827 0.520147 0.164069
O O7 0.691851 0.500000 0.000000
O O8 0.918142 0.383993 0.761980
#
# Coordination Sequence:
#
# PCOD9560429 Si02
#       3
#    16  16  16
#     4  10  21  36  55  80 109 141 177 218 264 314
#     4  10  21  36  55  80 109 141 177 218 264 314
#     4   9  18  34  56  79 104 138 180 223 264 309
#
# _framework density 19.125841999999999
#
# number of rings (size 3 to 8) (size 9 to 14) (size 15 to 20)
#    0.000    2.333    0.000    2.000    0.000    6.667 
#    0.000    6.667    0.000    0.000    0.000    0.000 
#    0.000    0.000    0.000    0.000    0.000    0.000 
#
# Total GULP energy -134013.862451 kJ/mol
# GULP energy per Si atom -5583.910935 kJ/mol
# Density = 1.908231 g / cm^3
# Si number density = 19.125842 Si / 1000 Ang^3
#
#
#
# Elastic Constant Matrix: (Units=GPa)
#
#
# Indices 1 2 3 4 5 6 
#
# 1 26.4756 -4.4094 1.4320 0.0000 0.0000 0.0000
# 2 -4.4094 26.4776 1.4344 0.0000 0.0000 0.0000
# 3 1.4320 1.4344 51.8923 0.0000 0.0000 0.0000
# 4 0.0000 0.0000 0.0000 -18.2544 0.0000 0.0000
# 5 0.0000 0.0000 0.0000 0.0000 -18.2555 0.0000
# 6 0.0000 0.0000 0.0000 0.0000 0.0000 0.1077
#
#
#
# Elastic Compliance Matrix: (Units=1/GPa)
#
#
# Indices 1 2 3 4 5 6 
#
# 1 0.038930 0.006551 -0.001255 0.000000 0.000000 0.000000
# 2 0.006551 0.038927 -0.001257 0.000000 0.000000 0.000001
# 3 -0.001255 -0.001257 0.019340 0.000000 0.000000 0.000000
# 4 0.000000 0.000000 0.000000 -0.054781 0.000000 -0.000001
# 5 0.000000 0.000000 0.000000 0.000000 -0.054778 0.000000
# 6 0.000000 0.000001 0.000000 -0.000001 0.000000 9.282521
#
#
# Mechanical properties :
#
#
# Convention : Reuss Voigt Hill
#
# Bulk Modulus (GPa) = 9.49899 11.30661 10.40280
# Shear Modulus (GPa) = 0.53780 -0.18785 0.17497
#
# Velocity S-wave (km/s) = 0.53085 -0.31374 0.30279
# Velocity P-wave (km/s) = 2.31367 2.40692 2.36076
#
# Compressibility (1/GPa) = 0.10527433
#
# Stress axis : x y z
#
# Youngs Moduli (GPa) = 25.68745 25.68922 51.70615
#
# Poissons Ratio (x) = -0.16829 0.06491
# Poissons Ratio (y) = -0.16828 0.06498
# Poissons Ratio (z) = 0.03225 0.03229
#
# Static dielectric constant tensor:
#      x y z
#    x 1.653760 0.000000 0.000000 
#    y 0.000000 1.653750 0.000000 
#    z 0.000000 0.000000 1.640600 
# 
# From -- ./inp_files/2542.got.cif
#   From: 2010.05.17/outbox.cif.g08.bks.cpg/sg121_2_cif.got.tgz:2542.got - 2010.05.20 11:32:06.
