data_PCOD9560422
_publ_section_title
;
Structure prediction by ZEFSAII (Michael W. Deem and Ramdas Pophale) SiO2 
 PCOD9560422
Probable space group: I -4 2 M
;
_chemical_formula_sum "Si O2"
_cell_formula_units_Z 128
_cell_length_a 21.889979
_cell_length_b 21.889979
_cell_length_c 13.888996
_cell_angle_alpha 90.000000
_cell_angle_beta 90.000000
_cell_angle_gamma 90.000000
_cell_volume 6655.206611
_symmetry_space_group_name_H-M "I -4 2 M"
_symmetry_group_IT_number 121
_symmetry_cell_setting 'tetragonal'
loop_
_space_group_symop_operation_xyz
x,y,z
y,-x,-z
-x,-y,z
-y,x,-z
x,-y,-z
-x,y,-z
-y,-x,z
y,x,z
1/2+x,1/2+y,1/2+z
1/2+y,1/2-x,1/2-z
1/2-x,1/2-y,1/2+z
1/2-y,1/2+x,1/2-z
1/2+x,1/2-y,1/2-z
1/2-x,1/2+y,1/2-z
1/2-y,1/2-x,1/2+z
1/2+y,1/2+x,1/2+z
loop_
_atom_site_type_symbol
_atom_site_label
_atom_site_fract_x
_atom_site_fract_y
_atom_site_fract_z
Si Si1 0.779145 0.544782 0.867078
Si Si2 0.640482 0.263447 0.271342
Si Si3 0.180378 0.644440 0.447763
Si Si4 0.729513 0.829183 0.843275
Si Si5 0.432277 0.334778 0.005350
Si Si6 0.413036 0.951570 0.636084
Si Si7 0.741887 0.094653 0.345630
Si Si8 0.455366 0.911136 0.369123
O O1 0.752267 0.574283 0.770326
O O2 0.727224 0.561265 0.943632
O O3 0.846178 0.566821 0.899578
O O4 0.786684 0.472593 0.853070
O O5 0.669364 0.330637 0.261082
O O6 0.644514 0.240063 0.379783
O O7 0.682864 0.218819 0.206288
O O8 0.201382 0.647947 0.557306
O O9 0.141784 0.703301 0.410981
O O10 0.139596 0.585924 0.418569
O O11 0.791457 0.791457 0.860908
O O12 0.739657 0.880610 0.762553
O O13 0.380718 0.380718 0.970136
O O14 0.500000 0.362947 0.000000
O O15 0.413753 0.309321 0.110184
O O16 0.472195 0.911728 0.609331
O O17 0.406419 0.949485 0.752700
O O18 0.430187 0.020964 0.607935
#
# Coordination Sequence:
#
# PCOD9560422 Si02
#       8
#    16  16  16  16  16  16  16  16
#     4  11  19  34  60  88 116 154 199 242 296 364
#     4  10  21  35  55  82 112 148 192 254 305 351
#     4  11  19  34  58  86 110 153 206 255 296 347
#     4  10  22  38  58  82 112 152 196 251 308 359
#     4  10  22  39  63  93 118 150 189 237 299 373
#     4   9  17  31  53  84 115 161 206 246 301 346
#     4  10  22  38  60  84 116 154 196 246 297 361
#     4   9  17  30  54  84 113 160 210 255 291 342
#
# _framework density 19.233063000000001
#
# number of rings (size 3 to 8) (size 9 to 14) (size 15 to 20)
#    0.000    2.000    2.500    2.625    0.000    2.625 
#    0.000    0.625    5.500    0.000   13.000    0.000 
#    0.000    0.000    0.000    0.000    0.000   43.000 
#
# Total GULP energy -357670.262163 kJ/mol
# GULP energy per Si atom -5588.597846 kJ/mol
# Density = 1.918929 g / cm^3
# Si number density = 19.233063 Si / 1000 Ang^3
#
#
#
# Elastic Constant Matrix: (Units=GPa)
#
#
# Indices 1 2 3 4 5 6 
#
# 1 68.3508 56.9250 39.5067 0.0000 0.0000 0.0000
# 2 56.9250 68.3493 39.5055 0.0000 0.0000 0.0000
# 3 39.5067 39.5055 129.8328 0.0000 0.0000 0.0000
# 4 0.0000 0.0000 0.0000 20.5078 0.0000 0.0000
# 5 0.0000 0.0000 0.0000 0.0000 20.5078 0.0000
# 6 0.0000 0.0000 0.0000 0.0000 0.0000 26.6570
#
#
#
# Elastic Compliance Matrix: (Units=1/GPa)
#
#
# Indices 1 2 3 4 5 6 
#
# 1 0.048702 -0.038824 -0.003006 0.000000 0.000000 0.000000
# 2 -0.038824 0.048703 -0.003005 0.000000 0.000000 0.000000
# 3 -0.003006 -0.003005 0.009531 0.000000 0.000000 0.000000
# 4 0.000000 0.000000 0.000000 0.048762 0.000000 0.000000
# 5 0.000000 0.000000 0.000000 0.000000 0.048762 0.000000
# 6 0.000000 0.000000 0.000000 0.000000 0.000000 0.037514
#
#
# Mechanical properties :
#
#
# Convention : Reuss Voigt Hill
#
# Bulk Modulus (GPa) = 57.92160 59.82305 58.87233
# Shear Modulus (GPa) = 14.81916 22.24090 18.53003
#
# Velocity S-wave (km/s) = 2.77881 3.40426 3.10731
# Velocity P-wave (km/s) = 6.36213 6.82816 6.59926
#
# Compressibility (1/GPa) = 0.01726472
#
# Stress axis : x y z
#
# Youngs Moduli (GPa) = 20.53290 20.53261 104.91589
#
# Poissons Ratio (x) = 0.79717 0.31539
# Poissons Ratio (y) = 0.79718 0.31532
# Poissons Ratio (z) = 0.06172 0.06171
#
# Static dielectric constant tensor:
#      x y z
#    x 1.690290 0.000000 0.000000 
#    y 0.000000 1.690300 0.000000 
#    z 0.000000 0.000000 1.733390 
# 
# From -- ./inp_files/3550.got.cif
#   From: 2010.05.17/outbox.cif.g08.bks.cpg/sg121_2_cif.got.tgz:3550.got - 2010.05.20 11:32:06.
