data_PCOD9560895
_publ_section_title
;
Structure prediction by ZEFSAII (Michael W. Deem and Ramdas Pophale) SiO2 
 PCOD9560895
Probable space group: I -4 2 D
;
_chemical_formula_sum "Si O2"
_cell_formula_units_Z 112
_cell_length_a 13.523151
_cell_length_b 13.523151
_cell_length_c 31.151943
_cell_angle_alpha 90.000000
_cell_angle_beta 90.000000
_cell_angle_gamma 90.000000
_cell_volume 5696.930671
_symmetry_space_group_name_H-M "I -4 2 D"
_symmetry_group_IT_number 122
_symmetry_cell_setting 'tetragonal'
loop_
_space_group_symop_operation_xyz
x,y,z
y,-x,-z
-x,-y,z
-y,x,-z
x,1/2-y,1/4-z
-x,1/2+y,1/4-z
-y,1/2-x,1/4+z
y,1/2+x,1/4+z
1/2+x,1/2+y,1/2+z
1/2+y,1/2-x,1/2-z
1/2-x,1/2-y,1/2+z
1/2-y,1/2+x,1/2-z
1/2+x,-y,3/4-z
1/2-x,y,3/4-z
1/2-y,-x,3/4+z
1/2+y,x,3/4+z
loop_
_atom_site_type_symbol
_atom_site_label
_atom_site_fract_x
_atom_site_fract_y
_atom_site_fract_z
Si Si1 0.788923 0.247538 0.286207
Si Si2 0.983979 0.207440 0.910897
Si Si3 0.732176 0.931500 0.177170
Si Si4 0.240187 0.518037 0.982350
Si Si5 0.111431 0.902175 0.019442
Si Si6 0.848176 0.463529 0.851670
Si Si7 0.583625 0.081179 0.070148
O O1 0.873691 0.281899 0.319540
O O2 0.679462 0.257957 0.306416
O O3 0.797684 0.130622 0.274760
O O4 0.814435 0.315508 0.244969
O O5 0.973707 0.198274 0.859970
O O6 0.051612 0.125603 0.933654
O O7 0.037523 0.308459 0.926227
O O8 0.625860 0.923957 0.153349
O O9 0.728390 0.998212 0.219375
O O10 0.325446 0.505250 0.946716
O O11 0.160630 0.437196 0.966857
O O12 0.998829 0.869785 0.010643
O O13 0.750000 0.419510 0.875000
O O14 0.874457 0.550972 0.883772
O O15 0.500000 0.000000 0.061916
#
# Coordination Sequence:
#
# PCOD9560895 Si02
#       7
#    16  16  16  16  16  16  16
#     4  10  20  38  58  81 112 156 194 235 282 351
#     4  11  20  35  62  84 111 149 194 235 287 357
#     4  11  20  33  53  85 116 151 184 235 287 335
#     4  10  21  34  54  83 120 149 193 237 287 343
#     4   9  20  39  66  86 104 142 197 244 289 338
#     4   9  19  36  53  77 110 155 199 227 269 354
#     4  11  18  33  56  83 108 150 196 231 279 344
#
# _framework density 19.65971
#
# number of rings (size 3 to 8) (size 9 to 14) (size 15 to 20)
#    0.000    1.857    2.857    3.000    0.000    2.286 
#    0.000    2.143    6.286    8.571    0.000    0.000 
#    0.000    0.000    0.000    0.000    0.000    0.000 
#
# Total GULP energy -312272.716295 kJ/mol
# GULP energy per Si atom -5576.298505 kJ/mol
# Density = 1.961496 g / cm^3
# Si number density = 19.659710 Si / 1000 Ang^3
#
#
#
# Elastic Constant Matrix: (Units=GPa)
#
#
# Indices 1 2 3 4 5 6 
#
# 1 41.8914 7.0962 11.1668 0.0000 0.0000 0.0000
# 2 7.0962 41.8914 11.1668 0.0000 0.0000 0.0000
# 3 11.1668 11.1668 120.4848 0.0000 0.0000 0.0000
# 4 0.0000 0.0000 0.0000 15.2547 0.0000 0.0000
# 5 0.0000 0.0000 0.0000 0.0000 15.2547 0.0000
# 6 0.0000 0.0000 0.0000 0.0000 0.0000 20.3744
#
#
#
# Elastic Compliance Matrix: (Units=1/GPa)
#
#
# Indices 1 2 3 4 5 6 
#
# 1 0.025027 -0.003713 -0.001975 0.000000 0.000000 0.000000
# 2 -0.003713 0.025027 -0.001975 0.000000 0.000000 0.000000
# 3 -0.001975 -0.001975 0.008666 0.000000 0.000000 0.000000
# 4 0.000000 0.000000 0.000000 0.065553 0.000000 0.000000
# 5 0.000000 0.000000 0.000000 0.000000 0.065553 0.000000
# 6 0.000000 0.000000 0.000000 0.000000 0.000000 0.049081
#
#
# Mechanical properties :
#
#
# Convention : Reuss Voigt Hill
#
# Bulk Modulus (GPa) = 23.04565 29.23635 26.14100
# Shear Modulus (GPa) = 18.60818 21.83262 20.22040
#
# Velocity S-wave (km/s) = 3.07988 3.33607 3.21053
# Velocity P-wave (km/s) = 4.93916 5.45368 5.20278
#
# Compressibility (1/GPa) = 0.04339213
#
# Stress axis : x y z
#
# Youngs Moduli (GPa) = 39.95724 39.95724 115.39382
#
# Poissons Ratio (x) = 0.14835 0.22795
# Poissons Ratio (y) = 0.14835 0.22795
# Poissons Ratio (z) = 0.07893 0.07893
#
# Static dielectric constant tensor:
#      x y z
#    x 1.738160 0.000000 0.000000 
#    y 0.000000 1.738160 0.000000 
#    z 0.000000 0.000000 1.711700 
# 
# From -- ./inp_files/8142.got.cif
#   From: 2010.05.17/outbox.cif.g08.bks.cpg/sg122_5_cif.got.tgz:8142.got - 2010.05.20 11:37:33.
