data_PCOD9560218
_publ_section_title
;
Structure prediction by ZEFSAII (Michael W. Deem and Ramdas Pophale) SiO2 
 PCOD9560218
Probable space group: I -4 2 M
;
_chemical_formula_sum "Si O2"
_cell_formula_units_Z 64
_cell_length_a 10.825653
_cell_length_b 10.825653
_cell_length_c 28.310237
_cell_angle_alpha 90.000000
_cell_angle_beta 90.000000
_cell_angle_gamma 90.000000
_cell_volume 3317.811512
_symmetry_space_group_name_H-M "I -4 2 M"
_symmetry_group_IT_number 121
_symmetry_cell_setting 'tetragonal'
loop_
_space_group_symop_operation_xyz
x,y,z
y,-x,-z
-x,-y,z
-y,x,-z
x,-y,-z
-x,y,-z
-y,-x,z
y,x,z
1/2+x,1/2+y,1/2+z
1/2+y,1/2-x,1/2-z
1/2-x,1/2-y,1/2+z
1/2-y,1/2+x,1/2-z
1/2+x,1/2-y,1/2-z
1/2-x,1/2+y,1/2-z
1/2-y,1/2-x,1/2+z
1/2+y,1/2+x,1/2+z
loop_
_atom_site_type_symbol
_atom_site_label
_atom_site_fract_x
_atom_site_fract_y
_atom_site_fract_z
Si Si1 0.296281 0.494973 0.554022
Si Si2 0.750191 0.937659 0.206946
Si Si3 0.910245 0.382111 0.135321
Si Si4 0.535374 0.265618 0.811843
O O1 0.249767 0.500000 0.500000
O O2 0.407892 0.592109 0.555806
O O3 0.360695 0.360695 0.564135
O O4 0.194750 0.547838 0.589766
O O5 0.876368 0.876368 0.188741
O O6 0.642065 0.838218 0.196757
O O7 0.708107 0.058157 0.179030
O O8 0.765392 0.964606 0.262028
O O9 0.778273 0.443876 0.146540
O O10 0.000000 0.500000 0.136720
O O11 0.607414 0.392587 0.820346
#
# Coordination Sequence:
#
# PCOD9560218 Si02
#       4
#    16  16  16  16
#     4   9  19  37  60  86 115 146 188 244 298 348
#     4  10  19  32  51  74 105 150 198 238 279 331
#     4  10  20  33  55  80 115 152 190 232 290 343
#     4  10  20  33  51  76 110 155 198 236 280 337
#
# _framework density 19.289822000000001
#
# number of rings (size 3 to 8) (size 9 to 14) (size 15 to 20)
#    0.000    2.250    2.500    1.500    0.000    4.000 
#    0.000    0.000    0.000    0.000    0.000    0.000 
#    0.000    2.000    0.000    0.000    0.000    0.000 
#
# Total GULP energy -178297.027317 kJ/mol
# GULP energy per Si atom -5571.782104 kJ/mol
# Density = 1.924592 g / cm^3
# Si number density = 19.289822 Si / 1000 Ang^3
#
#
#
# Elastic Constant Matrix: (Units=GPa)
#
#
# Indices 1 2 3 4 5 6 
#
# 1 66.8302 62.8015 52.4933 0.0000 0.0000 0.0000
# 2 62.8015 66.8292 52.4931 0.0000 0.0000 0.0000
# 3 52.4933 52.4931 117.8506 0.0000 0.0000 0.0000
# 4 0.0000 0.0000 0.0000 -0.3692 0.0000 0.0000
# 5 0.0000 0.0000 0.0000 0.0000 -0.3785 0.0000
# 6 0.0000 0.0000 0.0000 0.0000 0.0000 22.1720
#
#
#
# Elastic Compliance Matrix: (Units=1/GPa)
#
#
# Indices 1 2 3 4 5 6 
#
# 1 0.130157 -0.118091 -0.005375 0.000000 0.000000 0.000000
# 2 -0.118091 0.130160 -0.005375 0.000000 0.000000 0.000000
# 3 -0.005375 -0.005375 0.013274 0.000000 0.000000 0.000000
# 4 0.000000 0.000000 0.000000 -2.708438 0.000005 0.000000
# 5 0.000000 0.000000 0.000000 0.000005 -2.642023 0.000000
# 6 0.000000 0.000000 0.000000 0.000000 0.000000 0.045102
#
#
# Mechanical properties :
#
#
# Convention : Reuss Voigt Hill
#
# Bulk Modulus (GPa) = 62.86091 65.23177 64.04634
# Shear Modulus (GPa) = -1.04849 9.86633 4.40892
#
# Velocity S-wave (km/s) = -0.73805 2.26404 1.51347
# Velocity P-wave (km/s) = 5.65085 6.38158 6.02730
#
# Compressibility (1/GPa) = 0.01590814
#
# Stress axis : x y z
#
# Youngs Moduli (GPa) = 7.68302 7.68287 75.33707
#
# Poissons Ratio (x) = 0.90728 0.40491
# Poissons Ratio (y) = 0.90730 0.40497
# Poissons Ratio (z) = 0.04129 0.04130
#
# Static dielectric constant tensor:
#      x y z
#    x 1.757090 0.000000 0.000000 
#    y 0.000000 1.757100 0.000000 
#    z 0.000000 0.000000 1.677570 
# 
# From -- ./inp_files/6922.got.cif
#   From: 2010.05.17/outbox.cif.g08.bks.cpg/sg121_4_cif.got.tgz:6922.got - 2010.05.20 11:32:06.
