data_PCOD9560328
_publ_section_title
;
Structure prediction by ZEFSAII (Michael W. Deem and Ramdas Pophale) SiO2 
 PCOD9560328
Probable space group: I -4 2 M
;
_chemical_formula_sum "Si O2"
_cell_formula_units_Z 96
_cell_length_a 15.740571
_cell_length_b 15.740571
_cell_length_c 19.851458
_cell_angle_alpha 90.000000
_cell_angle_beta 90.000000
_cell_angle_gamma 90.000000
_cell_volume 4918.507914
_symmetry_space_group_name_H-M "I -4 2 M"
_symmetry_group_IT_number 121
_symmetry_cell_setting 'tetragonal'
loop_
_space_group_symop_operation_xyz
x,y,z
y,-x,-z
-x,-y,z
-y,x,-z
x,-y,-z
-x,y,-z
-y,-x,z
y,x,z
1/2+x,1/2+y,1/2+z
1/2+y,1/2-x,1/2-z
1/2-x,1/2-y,1/2+z
1/2-y,1/2+x,1/2-z
1/2+x,1/2-y,1/2-z
1/2-x,1/2+y,1/2-z
1/2-y,1/2-x,1/2+z
1/2+y,1/2+x,1/2+z
loop_
_atom_site_type_symbol
_atom_site_label
_atom_site_fract_x
_atom_site_fract_y
_atom_site_fract_z
Si Si1 0.406784 0.268216 0.527405
Si Si2 0.683764 0.170947 0.369976
Si Si3 0.735443 0.118035 0.228793
Si Si4 0.327727 0.187580 0.906611
Si Si5 0.506246 0.362815 0.215833
Si Si6 0.995301 0.227739 0.424648
O O1 0.500000 0.283153 0.500000
O O2 0.355705 0.355705 0.537104
O O3 0.397792 0.212057 0.594832
O O4 0.357040 0.214739 0.470504
O O5 0.755931 0.244070 0.372341
O O6 0.677541 0.140052 0.293237
O O7 0.721974 0.092207 0.412119
O O8 0.811151 0.188850 0.228638
O O9 0.687977 0.130119 0.158945
O O10 0.782116 0.028480 0.242931
O O11 0.275854 0.275854 0.896269
O O12 0.425341 0.208930 0.917669
O O13 0.597418 0.402583 0.233895
O O14 0.436618 0.436618 0.226124
O O15 0.503571 0.337769 0.137086
O O16 0.000000 0.190665 0.500000
#
# Coordination Sequence:
#
# PCOD9560328 Si02
#       6
#    16  16  16  16  16  16
#     4  10  21  39  61  84 110 143 188 240 295 353
#     4   9  18  36  57  78 111 154 191 234 294 354
#     4   8  16  33  54  75 108 152 194 235 283 347
#     4  10  20  35  55  80 111 149 195 241 285 344
#     4   9  18  31  49  78 116 154 194 245 303 358
#     4  11  19  30  53  84 114 150 193 237 284 355
#
# _framework density 19.518114000000001
#
# number of rings (size 3 to 8) (size 9 to 14) (size 15 to 20)
#    0.000    2.500    1.667    2.000    0.000    2.167 
#    6.000    3.333    0.000    3.000    0.000    0.000 
#    0.000    0.000    0.000    0.000    0.000    0.000 
#
# Total GULP energy -267767.041930 kJ/mol
# GULP energy per Si atom -5578.480040 kJ/mol
# Density = 1.947369 g / cm^3
# Si number density = 19.518114 Si / 1000 Ang^3
#
#
#
# Elastic Constant Matrix: (Units=GPa)
#
#
# Indices 1 2 3 4 5 6 
#
# 1 60.7490 14.6126 10.0529 0.0000 0.0000 0.0000
# 2 14.6126 60.7506 10.0531 0.0000 0.0000 0.0000
# 3 10.0529 10.0531 77.6030 0.0000 0.0000 0.0000
# 4 0.0000 0.0000 0.0000 13.9375 0.0000 0.0000
# 5 0.0000 0.0000 0.0000 0.0000 13.9366 0.0000
# 6 0.0000 0.0000 0.0000 0.0000 0.0000 9.0308
#
#
#
# Elastic Compliance Matrix: (Units=1/GPa)
#
#
# Indices 1 2 3 4 5 6 
#
# 1 0.017710 -0.003965 -0.001780 0.000000 0.000000 0.000000
# 2 -0.003965 0.017709 -0.001780 0.000000 0.000000 0.000000
# 3 -0.001780 -0.001780 0.013347 0.000000 0.000000 0.000000
# 4 0.000000 0.000000 0.000000 0.071749 0.000000 0.000000
# 5 0.000000 0.000000 0.000000 0.000000 0.071754 0.000000
# 6 0.000000 0.000000 0.000000 0.000000 0.000000 0.110732
#
#
# Mechanical properties :
#
#
# Convention : Reuss Voigt Hill
#
# Bulk Modulus (GPa) = 29.66134 29.83778 29.74956
# Shear Modulus (GPa) = 15.18414 18.33991 16.76203
#
# Velocity S-wave (km/s) = 2.79220 3.06867 2.93370
# Velocity P-wave (km/s) = 5.06212 5.27978 5.17209
#
# Compressibility (1/GPa) = 0.03371391
#
# Stress axis : x y z
#
# Youngs Moduli (GPa) = 56.46660 56.46808 74.92099
#
# Poissons Ratio (x) = 0.22390 0.13340
# Poissons Ratio (y) = 0.22390 0.13340
# Poissons Ratio (z) = 0.10054 0.10054
#
# Static dielectric constant tensor:
#      x y z
#    x 1.675940 0.000000 0.000000 
#    y 0.000000 1.675940 0.000000 
#    z 0.000000 0.000000 1.700690 
# 
# From -- ./inp_files/6451.got.cif
#   From: 2010.05.17/outbox.cif.g08.bks.cpg/sg121_4_cif.got.tgz:6451.got - 2010.05.20 11:32:06.
