data_PCOD9560251
_publ_section_title
;
Structure prediction by ZEFSAII (Michael W. Deem and Ramdas Pophale) SiO2 
 PCOD9560251
Probable space group: I -4 2 M
;
_chemical_formula_sum "Si O2"
_cell_formula_units_Z 96
_cell_length_a 17.558789
_cell_length_b 17.558789
_cell_length_c 17.524842
_cell_angle_alpha 90.000000
_cell_angle_beta 90.000000
_cell_angle_gamma 90.000000
_cell_volume 5403.102809
_symmetry_space_group_name_H-M "I -4 2 M"
_symmetry_group_IT_number 121
_symmetry_cell_setting 'tetragonal'
loop_
_space_group_symop_operation_xyz
x,y,z
y,-x,-z
-x,-y,z
-y,x,-z
x,-y,-z
-x,y,-z
-y,-x,z
y,x,z
1/2+x,1/2+y,1/2+z
1/2+y,1/2-x,1/2-z
1/2-x,1/2-y,1/2+z
1/2-y,1/2+x,1/2-z
1/2+x,1/2-y,1/2-z
1/2-x,1/2+y,1/2-z
1/2-y,1/2-x,1/2+z
1/2+y,1/2+x,1/2+z
loop_
_atom_site_type_symbol
_atom_site_label
_atom_site_fract_x
_atom_site_fract_y
_atom_site_fract_z
Si Si1 0.076706 0.798007 0.954945
Si Si2 0.104362 0.393608 0.316969
Si Si3 0.578381 0.703046 0.047492
Si Si4 0.191701 0.307827 0.447983
Si Si5 0.331680 0.937050 0.337741
Si Si6 0.534010 0.859745 0.586161
O O1 0.130507 0.869494 0.930680
O O2 0.046489 0.731002 0.898257
O O3 0.132193 0.744666 0.006621
O O4 0.000000 0.823485 0.000000
O O5 0.146369 0.350290 0.384105
O O6 0.150189 0.388634 0.237980
O O7 0.103757 0.479078 0.350674
O O8 0.020751 0.358920 0.314337
O O9 0.623976 0.623976 0.057372
O O10 0.563867 0.747481 0.127051
O O11 0.500000 0.695205 0.000000
O O12 0.635631 0.758574 0.000783
O O13 0.248535 0.248535 0.409958
O O14 0.387633 0.904894 0.403604
O O15 0.500000 0.867616 0.500000
#
# Coordination Sequence:
#
# PCOD9560251 Si02
#       6
#    16  16  16  16  16  16
#     4  10  19  34  56  84 111 145 198 246 287 344
#     4  12  22  37  54  86 129 158 187 238 306 374
#     4  11  23  41  65  91 117 157 214 266 309 362
#     4  10  20  36  59  82 110 151 199 242 294 362
#     4  12  24  35  56  91 127 158 190 244 305 380
#     4  11  21  35  54  83 117 160 193 234 295 358
#
# _framework density 17.767569000000002
#
# number of rings (size 3 to 8) (size 9 to 14) (size 15 to 20)
#    0.000    1.000    8.333    0.500    0.000    1.667 
#    0.000    0.000    0.000    1.000    0.000    0.000 
#    0.000    0.000    0.000    0.000    0.000    0.000 
#
# Total GULP energy -267372.054336 kJ/mol
# GULP energy per Si atom -5570.251132 kJ/mol
# Density = 1.772713 g / cm^3
# Si number density = 17.767569 Si / 1000 Ang^3
#
#
#
# Elastic Constant Matrix: (Units=GPa)
#
#
# Indices 1 2 3 4 5 6 
#
# 1 63.7091 44.4686 18.1720 0.0000 0.0000 0.0000
# 2 44.4686 63.7106 18.1709 0.0000 0.0000 0.0000
# 3 18.1720 18.1709 58.0771 0.0000 0.0000 0.0000
# 4 0.0000 0.0000 0.0000 5.7886 0.0000 0.0000
# 5 0.0000 0.0000 0.0000 0.0000 5.7887 0.0000
# 6 0.0000 0.0000 0.0000 0.0000 0.0000 41.5844
#
#
#
# Elastic Compliance Matrix: (Units=1/GPa)
#
#
# Indices 1 2 3 4 5 6 
#
# 1 0.031151 -0.020821 -0.003233 0.000000 0.000000 0.000000
# 2 -0.020821 0.031150 -0.003231 0.000000 0.000000 0.000000
# 3 -0.003233 -0.003231 0.019241 0.000000 0.000000 0.000000
# 4 0.000000 0.000000 0.000000 0.172753 0.000000 0.000000
# 5 0.000000 0.000000 0.000000 0.000000 0.172751 0.000000
# 6 0.000000 0.000000 0.000000 0.000000 0.000000 0.024047
#
#
# Mechanical properties :
#
#
# Convention : Reuss Voigt Hill
#
# Bulk Modulus (GPa) = 37.07484 38.56883 37.82183
# Shear Modulus (GPa) = 9.71525 17.61137 13.66331
#
# Velocity S-wave (km/s) = 2.34091 3.15176 2.77610
# Velocity P-wave (km/s) = 5.31209 5.91603 5.62217
#
# Compressibility (1/GPa) = 0.02697247
#
# Stress axis : x y z
#
# Youngs Moduli (GPa) = 32.10136 32.10259 51.97232
#
# Poissons Ratio (x) = 0.66841 0.16801
# Poissons Ratio (y) = 0.66838 0.16794
# Poissons Ratio (z) = 0.10377 0.10373
#
# Static dielectric constant tensor:
#      x y z
#    x 1.664980 0.000000 0.000000 
#    y 0.000000 1.664980 0.000000 
#    z 0.000000 0.000000 1.606890 
# 
# From -- ./inp_files/5387.got.cif
#   From: 2010.05.17/outbox.cif.g08.bks.cpg/sg121_3_cif.got.tgz:5387.got - 2010.05.20 11:32:06.
