data_PCOD9560455
_publ_section_title
;
Structure prediction by ZEFSAII (Michael W. Deem and Ramdas Pophale) SiO2 
 PCOD9560455
Probable space group: I -4 2 M
;
_chemical_formula_sum "Si O2"
_cell_formula_units_Z 80
_cell_length_a 16.310108
_cell_length_b 16.310108
_cell_length_c 15.580739
_cell_angle_alpha 90.000000
_cell_angle_beta 90.000000
_cell_angle_gamma 90.000000
_cell_volume 4144.782314
_symmetry_space_group_name_H-M "I -4 2 M"
_symmetry_group_IT_number 121
_symmetry_cell_setting 'tetragonal'
loop_
_space_group_symop_operation_xyz
x,y,z
y,-x,-z
-x,-y,z
-y,x,-z
x,-y,-z
-x,y,-z
-y,-x,z
y,x,z
1/2+x,1/2+y,1/2+z
1/2+y,1/2-x,1/2-z
1/2-x,1/2-y,1/2+z
1/2-y,1/2+x,1/2-z
1/2+x,1/2-y,1/2-z
1/2-x,1/2+y,1/2-z
1/2-y,1/2-x,1/2+z
1/2+y,1/2+x,1/2+z
loop_
_atom_site_type_symbol
_atom_site_label
_atom_site_fract_x
_atom_site_fract_y
_atom_site_fract_z
Si Si1 0.088382 0.088382 0.043795
Si Si2 0.215043 0.543215 0.184675
Si Si3 0.254963 0.500000 0.000000
Si Si4 0.807413 0.807413 0.925462
Si Si5 0.633864 0.366137 0.267307
Si Si6 0.699787 0.102699 0.200228
Si Si7 0.733594 0.266407 0.825954
Si Si8 0.318678 0.681323 0.010643
O O1 0.091331 0.091331 0.148767
O O2 0.154627 0.154627 0.010799
O O3 0.000000 0.108440 0.000000
O O4 0.307787 0.574519 0.209389
O O5 0.151568 0.617860 0.177278
O O6 0.188555 0.488384 0.265928
O O7 0.210681 0.496905 0.092897
O O8 0.302811 0.585072 0.011368
O O9 0.882425 0.765231 0.874863
O O10 0.736405 0.736405 0.924572
O O11 0.698761 0.301240 0.305478
O O12 0.738130 0.150892 0.280515
O O13 0.717225 0.282776 0.923356
#
# Coordination Sequence:
#
# PCOD9560455 Si02
#       8
#     8  16   8   8   8  16   8   8
#     4  11  23  38  58  91 129 164 214 281 331 373
#     4  11  22  39  63  92 128 162 214 264 323 385
#     4  12  24  39  64  97 128 164 210 270 315 390
#     4  11  21  39  64  91 118 175 225 258 321 400
#     4  10  21  39  61  89 117 165 216 264 309 381
#     4  10  21  37  61  91 121 165 211 260 319 383
#     4   9  18  35  60  82 110 163 211 247 299 362
#     4  12  21  40  63  91 130 163 214 266 314 387
#
# _framework density 19.301376999999999
#
# number of rings (size 3 to 8) (size 9 to 14) (size 15 to 20)
#    0.000    1.300    5.000    2.400    0.000    0.600 
#    0.000    1.000    0.000    1.200    0.000    0.000 
#    0.000    0.000    0.000    0.000    0.000    0.000 
#
# Total GULP energy -222758.296949 kJ/mol
# GULP energy per Si atom -5568.957424 kJ/mol
# Density = 1.925745 g / cm^3
# Si number density = 19.301377 Si / 1000 Ang^3
#
#
#
# Elastic Constant Matrix: (Units=GPa)
#
#
# Indices 1 2 3 4 5 6 
#
# 1 88.0760 -10.7741 18.8734 0.0000 0.0000 0.0000
# 2 -10.7741 88.0775 18.8745 0.0000 0.0000 0.0000
# 3 18.8734 18.8745 106.6302 0.0000 0.0000 0.0000
# 4 0.0000 0.0000 0.0000 -177.8327 0.0000 0.0000
# 5 0.0000 0.0000 0.0000 0.0000 -176.9095 0.0000
# 6 0.0000 0.0000 0.0000 0.0000 0.0000 21.7212
#
#
#
# Elastic Compliance Matrix: (Units=1/GPa)
#
#
# Indices 1 2 3 4 5 6 
#
# 1 0.012138 0.002022 -0.002506 0.000000 0.000000 0.000000
# 2 0.002022 0.012138 -0.002506 0.000000 0.000000 0.000000
# 3 -0.002506 -0.002506 0.010265 0.000000 0.000000 0.000000
# 4 0.000000 0.000000 0.000000 -0.005623 0.000000 0.000000
# 5 0.000000 0.000000 0.000000 0.000000 -0.005653 0.000000
# 6 0.000000 0.000000 0.000000 0.000000 0.000000 0.046038
#
#
# Mechanical properties :
#
#
# Convention : Reuss Voigt Hill
#
# Bulk Modulus (GPa) = 35.01390 37.41459 36.21425
# Shear Modulus (GPa) = 58.95829 -49.55020 4.70404
#
# Velocity S-wave (km/s) = 5.53285 -5.07224 1.56283
# Velocity P-wave (km/s) = 7.68093 3.85706 4.69679
#
# Compressibility (1/GPa) = 0.02856008
#
# Stress axis : x y z
#
# Youngs Moduli (GPa) = 82.38425 82.38536 97.41384
#
# Poissons Ratio (x) = -0.16658 0.24415
# Poissons Ratio (y) = -0.16657 0.24416
# Poissons Ratio (z) = 0.20648 0.20649
#
# Static dielectric constant tensor:
#      x y z
#    x 2.218800 0.000000 0.000000 
#    y 0.000000 2.216100 0.000000 
#    z 0.000000 0.000000 1.695820 
# 
# From -- ./inp_files/4346.got.cif
#   From: 2010.05.17/outbox.cif.g08.bks.cpg/sg121_3_cif.got.tgz:4346.got - 2010.05.20 11:32:06.
