data_PCOD9560573
_publ_section_title
;
Structure prediction by ZEFSAII (Michael W. Deem and Ramdas Pophale) SiO2 
 PCOD9560573
Probable space group: I -4 2 M
;
_chemical_formula_sum "Si O2"
_cell_formula_units_Z 96
_cell_length_a 19.817742
_cell_length_b 19.817742
_cell_length_c 13.066566
_cell_angle_alpha 90.000000
_cell_angle_beta 90.000000
_cell_angle_gamma 90.000000
_cell_volume 5131.800997
_symmetry_space_group_name_H-M "I -4 2 M"
_symmetry_group_IT_number 121
_symmetry_cell_setting 'tetragonal'
loop_
_space_group_symop_operation_xyz
x,y,z
y,-x,-z
-x,-y,z
-y,x,-z
x,-y,-z
-x,y,-z
-y,-x,z
y,x,z
1/2+x,1/2+y,1/2+z
1/2+y,1/2-x,1/2-z
1/2-x,1/2-y,1/2+z
1/2-y,1/2+x,1/2-z
1/2+x,1/2-y,1/2-z
1/2-x,1/2+y,1/2-z
1/2-y,1/2-x,1/2+z
1/2+y,1/2+x,1/2+z
loop_
_atom_site_type_symbol
_atom_site_label
_atom_site_fract_x
_atom_site_fract_y
_atom_site_fract_z
Si Si1 0.351596 0.944103 0.919197
Si Si2 0.436500 0.185002 0.074974
Si Si3 0.740692 0.851142 0.392207
Si Si4 0.139896 0.966765 0.112698
Si Si5 0.249081 0.519326 0.248980
Si Si6 0.857566 0.752415 0.950334
O O1 0.406032 0.887091 0.890587
O O2 0.313435 0.981585 0.827834
O O3 0.291442 0.901729 0.972948
O O4 0.377229 0.000000 0.000000
O O5 0.461527 0.232890 0.166089
O O6 0.500000 0.171378 0.000000
O O7 0.382718 0.222846 0.002702
O O8 0.808826 0.808826 0.394646
O O9 0.744433 0.910114 0.310512
O O10 0.679608 0.798604 0.373289
O O11 0.069656 0.930345 0.141880
O O12 0.195370 0.907789 0.101128
O O13 0.178746 0.013809 0.193733
O O14 0.132317 0.000000 0.000000
O O15 0.797465 0.797465 0.999327
#
# Coordination Sequence:
#
# PCOD9560573 Si02
#       6
#    16  16  16  16  16  16
#     4  11  20  35  57  77 114 151 186 227 284 346
#     4   9  22  38  54  79 114 149 190 232 281 341
#     4   9  20  37  58  81 110 144 183 236 289 339
#     4  11  22  38  57  84 121 155 191 237 294 355
#     4  11  21  35  57  89 111 147 190 241 289 336
#     4   9  17  34  56  80 110 141 176 227 288 339
#
# _framework density 18.706882
#
# number of rings (size 3 to 8) (size 9 to 14) (size 15 to 20)
#    0.000    2.000    3.333    0.000    2.333    3.833 
#    0.000    0.000    0.000    0.000    0.000    0.000 
#    0.000    0.000    0.000    0.000    0.000    0.000 
#
# Total GULP energy -267507.030023 kJ/mol
# GULP energy per Si atom -5573.063125 kJ/mol
# Density = 1.866430 g / cm^3
# Si number density = 18.706882 Si / 1000 Ang^3
#
#
#
# Elastic Constant Matrix: (Units=GPa)
#
#
# Indices 1 2 3 4 5 6 
#
# 1 57.5095 16.1787 15.3438 0.0000 0.0000 0.0000
# 2 16.1787 57.5085 15.3437 0.0000 0.0000 0.0000
# 3 15.3438 15.3437 60.9034 0.0000 0.0000 0.0000
# 4 0.0000 0.0000 0.0000 16.7890 0.0000 0.0000
# 5 0.0000 0.0000 0.0000 0.0000 16.7892 0.0000
# 6 0.0000 0.0000 0.0000 0.0000 0.0000 36.3513
#
#
#
# Elastic Compliance Matrix: (Units=1/GPa)
#
#
# Indices 1 2 3 4 5 6 
#
# 1 0.019678 -0.004517 -0.003820 0.000000 0.000000 0.000000
# 2 -0.004517 0.019679 -0.003820 0.000000 0.000000 0.000000
# 3 -0.003820 -0.003820 0.018344 0.000000 0.000000 0.000000
# 4 0.000000 0.000000 0.000000 0.059563 0.000000 0.000000
# 5 0.000000 0.000000 0.000000 0.000000 0.059562 0.000000
# 6 0.000000 0.000000 0.000000 0.000000 0.000000 0.027509
#
#
# Mechanical properties :
#
#
# Convention : Reuss Voigt Hill
#
# Bulk Modulus (GPa) = 29.95067 29.96153 29.95610
# Shear Modulus (GPa) = 20.85268 22.58958 21.72113
#
# Velocity S-wave (km/s) = 3.34234 3.47876 3.41123
# Velocity P-wave (km/s) = 5.56240 5.67334 5.61814
#
# Compressibility (1/GPa) = 0.03338823
#
# Stress axis : x y z
#
# Youngs Moduli (GPa) = 50.81749 50.81663 54.51346
#
# Poissons Ratio (x) = 0.22953 0.20823
# Poissons Ratio (y) = 0.22954 0.20823
# Poissons Ratio (z) = 0.19411 0.19411
#
# Static dielectric constant tensor:
#      x y z
#    x 1.673400 0.000000 0.000000 
#    y 0.000000 1.673400 0.000000 
#    z 0.000000 0.000000 1.659230 
# 
# From -- ./inp_files/3335.got.cif
#   From: 2010.05.17/outbox.cif.g08.bks.cpg/sg121_2_cif.got.tgz:3335.got - 2010.05.20 11:32:06.
