data_PCOD9560814
_publ_section_title
;
Structure prediction by ZEFSAII (Michael W. Deem and Ramdas Pophale) SiO2 
 PCOD9560814
Probable space group: I -4 2 D
;
_chemical_formula_sum "Si O2"
_cell_formula_units_Z 64
_cell_length_a 15.558277
_cell_length_b 15.558277
_cell_length_c 11.237056
_cell_angle_alpha 90.000000
_cell_angle_beta 90.000000
_cell_angle_gamma 90.000000
_cell_volume 2720.041587
_symmetry_space_group_name_H-M "I -4 2 D"
_symmetry_group_IT_number 122
_symmetry_cell_setting 'tetragonal'
loop_
_space_group_symop_operation_xyz
x,y,z
y,-x,-z
-x,-y,z
-y,x,-z
x,1/2-y,1/4-z
-x,1/2+y,1/4-z
-y,1/2-x,1/4+z
y,1/2+x,1/4+z
1/2+x,1/2+y,1/2+z
1/2+y,1/2-x,1/2-z
1/2-x,1/2-y,1/2+z
1/2-y,1/2+x,1/2-z
1/2+x,-y,3/4-z
1/2-x,y,3/4-z
1/2-y,-x,3/4+z
1/2+y,x,3/4+z
loop_
_atom_site_type_symbol
_atom_site_label
_atom_site_fract_x
_atom_site_fract_y
_atom_site_fract_z
Si Si1 0.566192 0.875838 0.218627
Si Si2 0.040639 0.589592 0.013541
Si Si3 0.674005 0.891430 0.775176
Si Si4 0.943238 0.752846 0.323503
O O1 0.462781 0.891102 0.226066
O O2 0.599223 0.882717 0.083007
O O3 0.583029 0.791382 0.297505
O O4 0.968618 0.661153 0.996166
O O5 0.000000 0.500000 0.984892
O O6 0.069259 0.596527 0.147454
O O7 0.750000 0.883997 0.875000
O O8 0.703884 0.963030 0.680455
O O9 0.632412 0.798264 0.756532
#
# Coordination Sequence:
#
# PCOD9560814 Si02
#       4
#    16  16  16  16
#     4   9  15  34  66  95 120 163 227 297 344 407
#     4  10  19  38  69  95 124 175 239 294 351 433
#     4  10  24  40  61  94 138 181 228 291 353 451
#     4  10  21  39  63  95 137 180 228 287 365 432
#
# _framework density 23.529052
#
# number of rings (size 3 to 8) (size 9 to 14) (size 15 to 20)
#    0.000    2.250    5.000    0.000    3.500    1.000 
#    0.000    5.000   11.000    0.000    0.000    0.000 
#    0.000    0.000    0.000    0.000    0.000    0.000 
#
# Total GULP energy -178153.904663 kJ/mol
# GULP energy per Si atom -5567.309521 kJ/mol
# Density = 2.347550 g / cm^3
# Si number density = 23.529052 Si / 1000 Ang^3
#
#
#
# Elastic Constant Matrix: (Units=GPa)
#
#
# Indices 1 2 3 4 5 6 
#
# 1 68.3119 33.3287 -9.3543 0.0000 0.0000 0.0000
# 2 33.3287 68.3119 -9.3543 0.0000 0.0000 0.0000
# 3 -9.3543 -9.3543 36.2262 0.0000 0.0000 0.0000
# 4 0.0000 0.0000 0.0000 39.0172 0.0000 0.0000
# 5 0.0000 0.0000 0.0000 0.0000 39.0172 0.0000
# 6 0.0000 0.0000 0.0000 0.0000 0.0000 41.8370
#
#
#
# Elastic Compliance Matrix: (Units=1/GPa)
#
#
# Indices 1 2 3 4 5 6 
#
# 1 0.019457 -0.009128 0.002667 0.000000 0.000000 0.000000
# 2 -0.009128 0.019457 0.002667 0.000000 0.000000 0.000000
# 3 0.002667 0.002667 0.028982 0.000000 0.000000 0.000000
# 4 0.000000 0.000000 0.000000 0.025630 0.000000 0.000000
# 5 0.000000 0.000000 0.000000 0.000000 0.025630 0.000000
# 6 0.000000 0.000000 0.000000 0.000000 0.000000 0.023902
#
#
# Mechanical properties :
#
#
# Convention : Reuss Voigt Hill
#
# Bulk Modulus (GPa) = 16.58100 22.45449 19.51775
# Shear Modulus (GPa) = 29.28292 34.52294 31.90293
#
# Velocity S-wave (km/s) = 3.53164 3.83462 3.68624
# Velocity P-wave (km/s) = 4.86747 5.40091 5.14111
#
# Compressibility (1/GPa) = 0.06030998
#
# Stress axis : x y z
#
# Youngs Moduli (GPa) = 51.39449 51.39449 34.50441
#
# Poissons Ratio (x) = 0.46912 -0.09203
# Poissons Ratio (y) = 0.46912 -0.09203
# Poissons Ratio (z) = -0.13708 -0.13708
#
# Static dielectric constant tensor:
#      x y z
#    x 2.040700 0.000000 0.000000 
#    y 0.000000 2.040700 0.000000 
#    z 0.000000 0.000000 1.994090 
# 
# From -- ./inp_files/5168.got.cif
#   From: 2010.05.17/outbox.cif.g08.bks.cpg/sg122_3_cif.got.tgz:5168.got - 2010.05.20 11:37:33.
