data_PCOD9560540
_publ_section_title
;
Structure prediction by ZEFSAII (Michael W. Deem and Ramdas Pophale) SiO2 
 PCOD9560540
Probable space group: I -4 2 M
;
_chemical_formula_sum "Si O2"
_cell_formula_units_Z 76
_cell_length_a 11.600210
_cell_length_b 11.600210
_cell_length_c 28.572734
_cell_angle_alpha 90.000000
_cell_angle_beta 90.000000
_cell_angle_gamma 90.000000
_cell_volume 3844.886295
_symmetry_space_group_name_H-M "I -4 2 M"
_symmetry_group_IT_number 121
_symmetry_cell_setting 'tetragonal'
loop_
_space_group_symop_operation_xyz
x,y,z
y,-x,-z
-x,-y,z
-y,x,-z
x,-y,-z
-x,y,-z
-y,-x,z
y,x,z
1/2+x,1/2+y,1/2+z
1/2+y,1/2-x,1/2-z
1/2-x,1/2-y,1/2+z
1/2-y,1/2+x,1/2-z
1/2+x,1/2-y,1/2-z
1/2-x,1/2+y,1/2-z
1/2-y,1/2-x,1/2+z
1/2+y,1/2+x,1/2+z
loop_
_atom_site_type_symbol
_atom_site_label
_atom_site_fract_x
_atom_site_fract_y
_atom_site_fract_z
Si Si1 0.815363 0.184638 0.317217
Si Si2 0.397585 0.855272 0.252720
Si Si3 0.365870 0.634131 0.007040
Si Si4 0.675340 0.675340 0.822037
Si Si5 0.639868 0.998029 0.056904
Si Si6 0.237133 0.237133 0.914636
Si Si7 0.000000 0.000000 0.325882
Si Si8 0.248032 0.751969 0.919609
O O1 0.692581 0.157755 0.294159
O O2 0.803616 0.196385 0.372873
O O3 0.910355 0.089646 0.302041
O O4 0.525173 0.865827 0.272168
O O5 0.390963 0.758143 0.213654
O O6 0.321049 0.678951 0.056173
O O7 0.500000 0.656926 0.000000
O O8 0.300078 0.699923 0.966576
O O9 0.745718 0.745718 0.859651
O O10 0.588942 0.588942 0.848618
O O11 0.714255 0.110215 0.072502
O O12 0.500000 0.000000 0.069678
O O13 0.708753 0.885778 0.077069
O O14 0.642087 0.000000 0.000000
#
# Coordination Sequence:
#
# PCOD9560540 Si02
#       8
#     8  16   8   8  16   8   4   8
#     4  11  26  41  67  99 133 175 222 278 346 404
#     4  10  22  44  68  96 130 170 218 272 336 414
#     4  11  24  38  64  99 138 174 220 279 338 405
#     4  11  26  41  67  99 133 175 222 278 346 404
#     4  11  24  45  70  99 142 183 225 283 342 403
#     4  12  26  44  68 102 134 181 232 278 339 408
#     4  12  24  44  60 101 136 180 208 301 348 412
#     4  12  26  44  68 102 134 181 232 278 339 408
#
# _framework density 19.766514999999998
#
# number of rings (size 3 to 8) (size 9 to 14) (size 15 to 20)
#    0.000    0.947    4.211    1.263    8.842    0.421 
#    0.000    1.053    0.000    0.000    0.000    0.000 
#    0.000    0.000    0.000    0.000    0.000    0.000 
#
# Total GULP energy -211663.664887 kJ/mol
# GULP energy per Si atom -5570.096444 kJ/mol
# Density = 1.972153 g / cm^3
# Si number density = 19.766515 Si / 1000 Ang^3
#
#
#
# Elastic Constant Matrix: (Units=GPa)
#
#
# Indices 1 2 3 4 5 6 
#
# 1 168.1660 32.9231 15.7034 0.0000 0.0000 0.0000
# 2 32.9231 168.1673 15.7040 0.0000 0.0000 0.0000
# 3 15.7034 15.7040 57.3250 0.0000 0.0000 0.0000
# 4 0.0000 0.0000 0.0000 4.6630 0.0000 0.0000
# 5 0.0000 0.0000 0.0000 0.0000 4.6622 0.0000
# 6 0.0000 0.0000 0.0000 0.0000 0.0000 33.0846
#
#
#
# Elastic Compliance Matrix: (Units=1/GPa)
#
#
# Indices 1 2 3 4 5 6 
#
# 1 0.006295 -0.001099 -0.001423 0.000000 0.000000 0.000000
# 2 -0.001099 0.006295 -0.001423 0.000000 0.000000 0.000000
# 3 -0.001423 -0.001423 0.018224 0.000000 0.000000 0.000000
# 4 0.000000 0.000000 0.000000 0.214455 0.000000 0.000000
# 5 0.000000 0.000000 0.000000 0.000000 0.214492 0.000000
# 6 0.000000 0.000000 0.000000 0.000000 0.000000 0.030226
#
#
# Mechanical properties :
#
#
# Convention : Reuss Voigt Hill
#
# Bulk Modulus (GPa) = 43.62661 58.03548 50.83105
# Shear Modulus (GPa) = 9.89083 30.43714 20.16399
#
# Velocity S-wave (km/s) = 2.23935 3.92833 3.19738
# Velocity P-wave (km/s) = 5.36704 7.07106 6.27714
#
# Compressibility (1/GPa) = 0.02292179
#
# Stress axis : x y z
#
# Youngs Moduli (GPa) = 158.86516 158.86620 54.87230
#
# Poissons Ratio (x) = 0.17466 0.07809
# Poissons Ratio (y) = 0.17466 0.07809
# Poissons Ratio (z) = 0.22609 0.22610
#
# Static dielectric constant tensor:
#      x y z
#    x 1.735520 0.000000 0.000000 
#    y 0.000000 1.735520 0.000000 
#    z 0.000000 0.000000 1.630260 
# 
# From -- ./inp_files/8142.got.cif
#   From: 2010.05.17/outbox.cif.g08.bks.cpg/sg121_5_cif.got.tgz:8142.got - 2010.05.20 11:32:06.
