data_PCOD9560325
_publ_section_title
;
Structure prediction by ZEFSAII (Michael W. Deem and Ramdas Pophale) SiO2 
 PCOD9560325
Probable space group: I -4 2 M
;
_chemical_formula_sum "Si O2"
_cell_formula_units_Z 96
_cell_length_a 25.397259
_cell_length_b 25.397259
_cell_length_c 8.774613
_cell_angle_alpha 90.000000
_cell_angle_beta 90.000000
_cell_angle_gamma 90.000000
_cell_volume 5659.807587
_symmetry_space_group_name_H-M "I -4 2 M"
_symmetry_group_IT_number 121
_symmetry_cell_setting 'tetragonal'
loop_
_space_group_symop_operation_xyz
x,y,z
y,-x,-z
-x,-y,z
-y,x,-z
x,-y,-z
-x,y,-z
-y,-x,z
y,x,z
1/2+x,1/2+y,1/2+z
1/2+y,1/2-x,1/2-z
1/2-x,1/2-y,1/2+z
1/2-y,1/2+x,1/2-z
1/2+x,1/2-y,1/2-z
1/2-x,1/2+y,1/2-z
1/2-y,1/2-x,1/2+z
1/2+y,1/2+x,1/2+z
loop_
_atom_site_type_symbol
_atom_site_label
_atom_site_fract_x
_atom_site_fract_y
_atom_site_fract_z
Si Si1 0.240240 0.617183 0.834148
Si Si2 0.600454 0.751002 0.816967
Si Si3 0.265712 0.009887 0.824291
Si Si4 0.380476 0.955180 0.100420
Si Si5 0.277774 0.722227 0.667595
Si Si6 0.115754 0.633675 0.815335
Si Si7 0.301471 0.698530 0.317327
O O1 0.254377 0.564846 0.740834
O O2 0.259938 0.668351 0.746723
O O3 0.176822 0.621001 0.841523
O O4 0.259677 0.612436 0.006892
O O5 0.539184 0.746706 0.774884
O O6 0.612971 0.812132 0.777378
O O7 0.638544 0.714573 0.715974
O O8 0.329949 0.015662 0.824624
O O9 0.251524 0.000000 0.000000
O O10 0.407217 0.917092 0.224044
O O11 0.358885 0.913679 0.975102
O O12 0.409350 0.000000 0.000000
O O13 0.285596 0.714405 0.488170
O O14 0.233917 0.766084 0.703254
#
# Coordination Sequence:
#
# PCOD9560325 Si02
#       7
#    16  16  16  16   8  16   8
#     4  11  23  35  55  80 109 145 185 230 277 341
#     4  12  21  37  53  82 109 144 185 228 280 339
#     4  10  20  35  57  77 107 139 189 230 273 338
#     4  10  20  35  52  78  96 137 179 238 282 339
#     4  12  24  36  50  80 116 149 182 219 292 346
#     4  11  20  32  53  76 102 131 181 227 279 333
#     4  12  26  34  54  78 120 151 178 231 286 350
#
# _framework density 16.961707000000001
#
# number of rings (size 3 to 8) (size 9 to 14) (size 15 to 20)
#    0.000    1.000    6.667    3.000    2.333    0.000 
#    0.000    0.833    0.000    1.500    0.000    0.000 
#    0.000    0.667    0.000    6.667    0.000    4.000 
#
# Total GULP energy -267920.808046 kJ/mol
# GULP energy per Si atom -5581.683501 kJ/mol
# Density = 1.692310 g / cm^3
# Si number density = 16.961707 Si / 1000 Ang^3
#
#
#
# Elastic Constant Matrix: (Units=GPa)
#
#
# Indices 1 2 3 4 5 6 
#
# 1 62.2877 20.6212 -0.7271 0.0000 0.0000 0.0000
# 2 20.6212 62.2870 -0.7257 0.0000 0.0000 0.0000
# 3 -0.7271 -0.7257 52.4424 0.0000 0.0000 0.0000
# 4 0.0000 0.0000 0.0000 23.0506 0.0000 0.0000
# 5 0.0000 0.0000 0.0000 0.0000 23.0502 0.0000
# 6 0.0000 0.0000 0.0000 0.0000 0.0000 13.4177
#
#
#
# Elastic Compliance Matrix: (Units=1/GPa)
#
#
# Indices 1 2 3 4 5 6 
#
# 1 0.018032 -0.005968 0.000167 0.000000 0.000000 0.000000
# 2 -0.005968 0.018032 0.000167 0.000000 0.000000 0.000000
# 3 0.000167 0.000167 0.019073 0.000000 0.000000 0.000000
# 4 0.000000 0.000000 0.000000 0.043383 0.000000 0.000000
# 5 0.000000 0.000000 0.000000 0.000000 0.043383 0.000000
# 6 0.000000 0.000000 0.000000 0.000000 0.000000 0.074529
#
#
# Mechanical properties :
#
#
# Convention : Reuss Voigt Hill
#
# Bulk Modulus (GPa) = 22.79440 23.92821 23.36131
# Shear Modulus (GPa) = 20.63357 22.42696 21.53027
#
# Velocity S-wave (km/s) = 3.49159 3.64017 3.56665
# Velocity P-wave (km/s) = 5.45187 5.63964 5.54655
#
# Compressibility (1/GPa) = 0.04387042
#
# Stress axis : x y z
#
# Youngs Moduli (GPa) = 55.45620 55.45561 52.42966
#
# Poissons Ratio (x) = 0.33096 -0.00878
# Poissons Ratio (y) = 0.33096 -0.00875
# Poissons Ratio (z) = -0.00928 -0.00925
#
# Static dielectric constant tensor:
#      x y z
#    x 1.571990 0.000000 0.000000 
#    y 0.000000 1.572000 0.000000 
#    z 0.000000 0.000000 1.604710 
# 
# From -- ./inp_files/1997.got.cif
#   From: 2010.05.17/outbox.cif.g08.bks.cpg/sg121_1_cif.got.tgz:1997.got - 2010.05.20 11:32:06.
