data_PCOD9560816
_publ_section_title
;
Structure prediction by ZEFSAII (Michael W. Deem and Ramdas Pophale) SiO2 
 PCOD9560816
Probable space group: I -4 2 D
;
_chemical_formula_sum "Si O2"
_cell_formula_units_Z 112
_cell_length_a 14.391020
_cell_length_b 14.391020
_cell_length_c 27.244678
_cell_angle_alpha 90.000000
_cell_angle_beta 90.000000
_cell_angle_gamma 90.000000
_cell_volume 5642.412499
_symmetry_space_group_name_H-M "I -4 2 D"
_symmetry_group_IT_number 122
_symmetry_cell_setting 'tetragonal'
loop_
_space_group_symop_operation_xyz
x,y,z
y,-x,-z
-x,-y,z
-y,x,-z
x,1/2-y,1/4-z
-x,1/2+y,1/4-z
-y,1/2-x,1/4+z
y,1/2+x,1/4+z
1/2+x,1/2+y,1/2+z
1/2+y,1/2-x,1/2-z
1/2-x,1/2-y,1/2+z
1/2-y,1/2+x,1/2-z
1/2+x,-y,3/4-z
1/2-x,y,3/4-z
1/2-y,-x,3/4+z
1/2+y,x,3/4+z
loop_
_atom_site_type_symbol
_atom_site_label
_atom_site_fract_x
_atom_site_fract_y
_atom_site_fract_z
Si Si1 0.742711 0.580736 0.716595
Si Si2 0.093255 0.622747 0.258683
Si Si3 0.143554 0.789930 0.885938
Si Si4 0.621914 0.769989 0.256247
Si Si5 0.214686 0.779088 0.074857
Si Si6 0.110271 0.392665 0.940146
Si Si7 0.391360 0.901132 0.431358
O O1 0.694692 0.584335 0.663390
O O2 0.791118 0.483024 0.728772
O O3 0.821902 0.659222 0.721781
O O4 0.664374 0.601247 0.757857
O O5 0.125246 0.515703 0.254326
O O6 0.110588 0.662150 0.313505
O O7 0.150856 0.679157 0.217889
O O8 0.250000 0.816332 0.875000
O O9 0.136469 0.679209 0.894265
O O10 0.686006 0.759978 0.303430
O O11 0.615727 0.671698 0.228806
O O12 0.164938 0.750000 0.125000
O O13 0.300159 0.849691 0.084635
O O14 0.127183 0.492844 0.914542
O O15 0.999383 0.388018 0.944630
#
# Coordination Sequence:
#
# PCOD9560816 Si02
#       7
#    16  16  16  16  16  16  16
#     4  10  22  40  63  93 128 170 219 274 326 402
#     4  11  26  47  66  96 137 169 212 277 332 385
#     4  12  22  40  70  95 123 176 225 263 330 400
#     4  10  21  41  59  91 128 165 214 271 324 383
#     4  11  23  40  63  92 124 169 209 264 325 388
#     4   9  21  40  61  88 130 165 206 271 325 386
#     4  10  19  39  63  89 123 168 210 265 325 378
#
# _framework density 19.849665999999999
#
# number of rings (size 3 to 8) (size 9 to 14) (size 15 to 20)
#    0.000    1.571    2.857    1.714    4.000    1.429 
#    5.143    1.429    0.000    0.000    0.000    0.000 
#    0.000    0.000    0.000    0.000    0.000    0.000 
#
# Total GULP energy -312471.820829 kJ/mol
# GULP energy per Si atom -5579.853943 kJ/mol
# Density = 1.980449 g / cm^3
# Si number density = 19.849666 Si / 1000 Ang^3
#
#
#
# Elastic Constant Matrix: (Units=GPa)
#
#
# Indices 1 2 3 4 5 6 
#
# 1 77.1693 28.0243 29.9762 0.0000 0.0000 0.0000
# 2 28.0243 77.1693 29.9762 0.0000 0.0000 0.0000
# 3 29.9762 29.9762 116.7656 0.0000 0.0000 0.0000
# 4 0.0000 0.0000 0.0000 12.5168 0.0000 0.0000
# 5 0.0000 0.0000 0.0000 0.0000 12.5168 0.0000
# 6 0.0000 0.0000 0.0000 0.0000 0.0000 26.1673
#
#
#
# Elastic Compliance Matrix: (Units=1/GPa)
#
#
# Indices 1 2 3 4 5 6 
#
# 1 0.015742 -0.004606 -0.002859 0.000000 0.000000 0.000000
# 2 -0.004606 0.015742 -0.002859 0.000000 0.000000 0.000000
# 3 -0.002859 -0.002859 0.010032 0.000000 0.000000 0.000000
# 4 0.000000 0.000000 0.000000 0.079893 0.000000 0.000000
# 5 0.000000 0.000000 0.000000 0.000000 0.079893 0.000000
# 6 0.000000 0.000000 0.000000 0.000000 0.000000 0.038216
#
#
# Mechanical properties :
#
#
# Convention : Reuss Voigt Hill
#
# Bulk Modulus (GPa) = 47.91997 49.67306 48.79652
# Shear Modulus (GPa) = 18.71817 22.44867 20.58342
#
# Velocity S-wave (km/s) = 3.07416 3.36659 3.22369
# Velocity P-wave (km/s) = 6.06584 6.33962 6.20424
#
# Compressibility (1/GPa) = 0.02086813
#
# Stress axis : x y z
#
# Youngs Moduli (GPa) = 63.52534 63.52534 99.68137
#
# Poissons Ratio (x) = 0.29261 0.28496
# Poissons Ratio (y) = 0.29261 0.28496
# Poissons Ratio (z) = 0.18160 0.18160
#
# Static dielectric constant tensor:
#      x y z
#    x 1.712510 0.000000 0.000000 
#    y 0.000000 1.712510 0.000000 
#    z 0.000000 0.000000 1.702880 
# 
# From -- ./inp_files/8112.got.cif
#   From: 2010.05.17/outbox.cif.g08.bks.cpg/sg122_5_cif.got.tgz:8112.got - 2010.05.20 11:37:33.
