data_PCOD9560407
_publ_section_title
;
Structure prediction by ZEFSAII (Michael W. Deem and Ramdas Pophale) SiO2 
 PCOD9560407
Probable space group: I -4 2 M
;
_chemical_formula_sum "Si O2"
_cell_formula_units_Z 56
_cell_length_a 15.105509
_cell_length_b 15.105509
_cell_length_c 11.149386
_cell_angle_alpha 90.000000
_cell_angle_beta 90.000000
_cell_angle_gamma 90.000000
_cell_volume 2544.026784
_symmetry_space_group_name_H-M "I -4 2 M"
_symmetry_group_IT_number 121
_symmetry_cell_setting 'tetragonal'
loop_
_space_group_symop_operation_xyz
x,y,z
y,-x,-z
-x,-y,z
-y,x,-z
x,-y,-z
-x,y,-z
-y,-x,z
y,x,z
1/2+x,1/2+y,1/2+z
1/2+y,1/2-x,1/2-z
1/2-x,1/2-y,1/2+z
1/2-y,1/2+x,1/2-z
1/2+x,1/2-y,1/2-z
1/2-x,1/2+y,1/2-z
1/2-y,1/2-x,1/2+z
1/2+y,1/2+x,1/2+z
loop_
_atom_site_type_symbol
_atom_site_label
_atom_site_fract_x
_atom_site_fract_y
_atom_site_fract_z
Si Si1 0.232425 0.232425 0.996295
Si Si2 0.693592 0.693592 0.749433
Si Si3 0.000000 0.857116 0.500000
Si Si4 0.983957 0.277887 0.690271
Si Si5 0.647170 0.918411 0.914666
O O1 0.282226 0.282226 0.886992
O O2 0.268367 0.133648 0.969680
O O3 0.243495 0.243495 0.139889
O O4 0.722164 0.591841 0.740232
O O5 0.968609 0.792845 0.605451
O O6 0.921038 0.921038 0.459652
O O7 0.932070 0.349593 0.609006
O O8 0.046000 0.326017 0.784080
O O9 0.622903 0.000000 0.000000
#
# Coordination Sequence:
#
# PCOD9560407 Si02
#       5
#     8   8   8  16  16
#     4  10  22  40  72  96 134 187 236 284 340 423
#     4  10  20  42  69  99 137 178 238 286 344 419
#     4  11  26  48  73 102 136 180 239 302 354 419
#     4  11  25  44  68 101 140 183 232 288 356 424
#     4  11  25  44  68 100 139 183 234 285 354 420
#
# _framework density 22.012346999999998
#
# number of rings (size 3 to 8) (size 9 to 14) (size 15 to 20)
#    0.000    1.286    4.286    0.000    6.000    2.857 
#    0.000    0.000    0.000    2.143    0.000    0.000 
#    0.000    0.000    0.000    0.000    0.000    0.000 
#
# Total GULP energy -156322.498037 kJ/mol
# GULP energy per Si atom -5582.946358 kJ/mol
# Density = 2.196225 g / cm^3
# Si number density = 22.012347 Si / 1000 Ang^3
#
#
#
# Elastic Constant Matrix: (Units=GPa)
#
#
# Indices 1 2 3 4 5 6 
#
# 1 72.2434 20.9173 7.9347 0.0000 0.0000 0.0000
# 2 20.9173 72.2434 7.9347 0.0000 0.0000 0.0000
# 3 7.9347 7.9347 78.0251 0.0000 0.0000 0.0000
# 4 0.0000 0.0000 0.0000 34.8190 0.0000 0.0000
# 5 0.0000 0.0000 0.0000 0.0000 34.8190 0.0000
# 6 0.0000 0.0000 0.0000 0.0000 0.0000 15.9759
#
#
#
# Elastic Compliance Matrix: (Units=1/GPa)
#
#
# Indices 1 2 3 4 5 6 
#
# 1 0.015203 -0.004280 -0.001111 0.000000 0.000000 0.000000
# 2 -0.004280 0.015203 -0.001111 0.000000 0.000000 0.000000
# 3 -0.001111 -0.001111 0.013042 0.000000 0.000000 0.000000
# 4 0.000000 0.000000 0.000000 0.028720 0.000000 0.000000
# 5 0.000000 0.000000 0.000000 0.000000 0.028720 0.000000
# 6 0.000000 0.000000 0.000000 0.000000 0.000000 0.062594
#
#
# Mechanical properties :
#
#
# Convention : Reuss Voigt Hill
#
# Bulk Modulus (GPa) = 32.84538 32.89836 32.87187
# Shear Modulus (GPa) = 26.79026 29.50445 28.14735
#
# Velocity S-wave (km/s) = 3.49242 3.66506 3.57978
# Velocity P-wave (km/s) = 5.58716 5.73482 5.66147
#
# Compressibility (1/GPa) = 0.03044568
#
# Stress axis : x y z
#
# Youngs Moduli (GPa) = 65.77507 65.77507 76.67342
#
# Poissons Ratio (x) = 0.28151 0.08517
# Poissons Ratio (y) = 0.28151 0.08517
# Poissons Ratio (z) = 0.07307 0.07307
#
# Static dielectric constant tensor:
#      x y z
#    x 1.843910 0.000000 0.000000 
#    y 0.000000 1.843910 0.000000 
#    z 0.000000 0.000000 1.811900 
# 
# From -- ./inp_files/2771.got.cif
#   From: 2010.05.17/outbox.cif.g08.bks.cpg/sg121_2_cif.got.tgz:2771.got - 2010.05.20 11:32:06.
