data_PCOD9560272
_publ_section_title
;
Structure prediction by ZEFSAII (Michael W. Deem and Ramdas Pophale) SiO2 
 PCOD9560272
Probable space group: I -4 2 M
;
_chemical_formula_sum "Si O2"
_cell_formula_units_Z 80
_cell_length_a 17.191096
_cell_length_b 17.191096
_cell_length_c 14.745422
_cell_angle_alpha 90.000000
_cell_angle_beta 90.000000
_cell_angle_gamma 90.000000
_cell_volume 4357.770326
_symmetry_space_group_name_H-M "I -4 2 M"
_symmetry_group_IT_number 121
_symmetry_cell_setting 'tetragonal'
loop_
_space_group_symop_operation_xyz
x,y,z
y,-x,-z
-x,-y,z
-y,x,-z
x,-y,-z
-x,y,-z
-y,-x,z
y,x,z
1/2+x,1/2+y,1/2+z
1/2+y,1/2-x,1/2-z
1/2-x,1/2-y,1/2+z
1/2-y,1/2+x,1/2-z
1/2+x,1/2-y,1/2-z
1/2-x,1/2+y,1/2-z
1/2-y,1/2-x,1/2+z
1/2+y,1/2+x,1/2+z
loop_
_atom_site_type_symbol
_atom_site_label
_atom_site_fract_x
_atom_site_fract_y
_atom_site_fract_z
Si Si1 0.246212 0.246212 0.745290
Si Si2 0.916677 0.459275 0.134499
Si Si3 0.178739 0.178739 0.930527
Si Si4 0.638122 0.000000 0.000000
Si Si5 0.415379 0.178559 0.217099
Si Si6 0.508311 0.727947 0.366543
Si Si7 0.651252 0.348749 0.368688
O O1 0.226368 0.226368 0.851884
O O2 0.166910 0.280311 0.701726
O O3 0.310229 0.310229 0.719923
O O4 0.930975 0.413349 0.041078
O O5 0.855593 0.528919 0.140070
O O6 0.901798 0.393864 0.212038
O O7 0.000000 0.500000 0.150672
O O8 0.088281 0.198695 0.911613
O O9 0.188516 0.188516 0.038863
O O10 0.695522 0.022966 0.919025
O O11 0.467435 0.242274 0.268593
O O12 0.439960 0.667165 0.369167
#
# Coordination Sequence:
#
# PCOD9560272 Si02
#       7
#     8  16   8   8  16  16   8
#     4  10  24  34  56  78 110 156 192 230 310 342
#     4  11  19  32  53  76 103 140 182 231 278 341
#     4  10  20  39  54  81 115 158 189 249 288 358
#     4  10  21  32  48  83 110 140 178 238 283 344
#     4  10  19  36  53  77 110 148 188 233 284 352
#     4  10  21  35  54  80 117 151 197 232 295 352
#     4  12  20  35  58  83 111 158 193 245 288 364
#
# _framework density 18.35801
#
# number of rings (size 3 to 8) (size 9 to 14) (size 15 to 20)
#    0.000    1.600    4.000    1.500    2.800    0.400 
#    0.000    1.000    0.000    0.000    0.000    0.000 
#    0.000    0.000    0.000    3.400    0.000    0.200 
#
# Total GULP energy -222979.458912 kJ/mol
# GULP energy per Si atom -5574.486473 kJ/mol
# Density = 1.831623 g / cm^3
# Si number density = 18.358010 Si / 1000 Ang^3
#
#
#
# Elastic Constant Matrix: (Units=GPa)
#
#
# Indices 1 2 3 4 5 6 
#
# 1 77.1439 49.0905 28.0393 0.0000 0.0000 0.0000
# 2 49.0905 77.1443 28.0391 0.0000 0.0000 0.0000
# 3 28.0393 28.0391 45.5966 0.0000 0.0000 0.0000
# 4 0.0000 0.0000 0.0000 24.3857 0.0000 0.0000
# 5 0.0000 0.0000 0.0000 0.0000 24.3856 0.0000
# 6 0.0000 0.0000 0.0000 0.0000 0.0000 50.7574
#
#
#
# Elastic Compliance Matrix: (Units=1/GPa)
#
#
# Indices 1 2 3 4 5 6 
#
# 1 0.023273 -0.012373 -0.006703 0.000000 0.000000 0.000000
# 2 -0.012373 0.023272 -0.006702 0.000000 0.000000 0.000000
# 3 -0.006703 -0.006702 0.030175 0.000000 0.000000 0.000000
# 4 0.000000 0.000000 0.000000 0.041008 0.000000 0.000000
# 5 0.000000 0.000000 0.000000 0.000000 0.041008 0.000000
# 6 0.000000 0.000000 0.000000 0.000000 0.000000 0.019702
#
#
# Mechanical properties :
#
#
# Convention : Reuss Voigt Hill
#
# Bulk Modulus (GPa) = 39.74006 45.58028 42.66017
# Shear Modulus (GPa) = 20.97484 26.22015 23.59749
#
# Velocity S-wave (km/s) = 3.38382 3.78334 3.58915
# Velocity P-wave (km/s) = 6.07958 6.63079 6.36116
#
# Compressibility (1/GPa) = 0.02516353
#
# Stress axis : x y z
#
# Youngs Moduli (GPa) = 42.96876 42.96923 33.14052
#
# Poissons Ratio (x) = 0.53167 0.22213
# Poissons Ratio (y) = 0.53167 0.22211
# Poissons Ratio (z) = 0.28800 0.28799
#
# Static dielectric constant tensor:
#      x y z
#    x 1.651670 0.000000 0.000000 
#    y 0.000000 1.651670 0.000000 
#    z 0.000000 0.000000 1.693310 
# 
# From -- ./inp_files/4339.got.cif
#   From: 2010.05.17/outbox.cif.g08.bks.cpg/sg121_3_cif.got.tgz:4339.got - 2010.05.20 11:32:06.
