data_PCOD9560631
_publ_section_title
;
Structure prediction by ZEFSAII (Michael W. Deem and Ramdas Pophale) SiO2 
 PCOD9560631
Probable space group: I -4 2 M
;
_chemical_formula_sum "Si O2"
_cell_formula_units_Z 32
_cell_length_a 10.768170
_cell_length_b 10.768170
_cell_length_c 11.616008
_cell_angle_alpha 90.000000
_cell_angle_beta 90.000000
_cell_angle_gamma 90.000000
_cell_volume 1346.916611
_symmetry_space_group_name_H-M "I -4 2 M"
_symmetry_group_IT_number 121
_symmetry_cell_setting 'tetragonal'
loop_
_space_group_symop_operation_xyz
x,y,z
y,-x,-z
-x,-y,z
-y,x,-z
x,-y,-z
-x,y,-z
-y,-x,z
y,x,z
1/2+x,1/2+y,1/2+z
1/2+y,1/2-x,1/2-z
1/2-x,1/2-y,1/2+z
1/2-y,1/2+x,1/2-z
1/2+x,1/2-y,1/2-z
1/2-x,1/2+y,1/2-z
1/2-y,1/2-x,1/2+z
1/2+y,1/2+x,1/2+z
loop_
_atom_site_type_symbol
_atom_site_label
_atom_site_fract_x
_atom_site_fract_y
_atom_site_fract_z
Si Si1 0.500708 0.304145 0.821871
Si Si2 0.869641 0.429482 0.610913
O O1 0.611995 0.388006 0.873976
O O2 0.402488 0.402488 0.772529
O O3 0.556579 0.220664 0.719167
O O4 0.417937 0.211222 0.899091
O O5 0.813981 0.500000 0.500000
O O6 0.000000 0.500000 0.628586
#
# Coordination Sequence:
#
# PCOD9560631 Si02
#       2
#    16  16
#     4  11  23  42  71 105 143 184 231 293 351 408
#     4  11  23  42  70  99 137 187 232 282 348 411
#
# _framework density 23.757967000000001
#
# number of rings (size 3 to 8) (size 9 to 14) (size 15 to 20)
#    0.000    1.000    5.000    1.500    0.000    4.000 
#    0.000   17.500    0.000   12.000    0.000    0.000 
#    0.000    0.000    0.000    0.000    0.000    0.000 
#
# Total GULP energy -89281.884927 kJ/mol
# GULP energy per Si atom -5580.117808 kJ/mol
# Density = 2.370389 g / cm^3
# Si number density = 23.757967 Si / 1000 Ang^3
#
#
#
# Elastic Constant Matrix: (Units=GPa)
#
#
# Indices 1 2 3 4 5 6 
#
# 1 142.3095 59.6348 23.7846 0.0000 0.0000 0.0000
# 2 59.6348 142.3092 23.7832 0.0000 0.0000 0.0000
# 3 23.7846 23.7832 75.6882 0.0000 0.0000 0.0000
# 4 0.0000 0.0000 0.0000 31.1042 0.0000 0.0000
# 5 0.0000 0.0000 0.0000 0.0000 31.1049 0.0000
# 6 0.0000 0.0000 0.0000 0.0000 0.0000 53.5078
#
#
#
# Elastic Compliance Matrix: (Units=1/GPa)
#
#
# Indices 1 2 3 4 5 6 
#
# 1 0.008722 -0.003374 -0.001681 0.000000 0.000000 0.000000
# 2 -0.003374 0.008722 -0.001680 0.000000 0.000000 0.000000
# 3 -0.001681 -0.001680 0.014268 0.000000 0.000000 0.000000
# 4 0.000000 0.000000 0.000000 0.032150 0.000000 0.000000
# 5 0.000000 0.000000 0.000000 0.000000 0.032149 0.000000
# 6 0.000000 0.000000 0.000000 0.000000 0.000000 0.018689
#
#
# Mechanical properties :
#
#
# Convention : Reuss Voigt Hill
#
# Bulk Modulus (GPa) = 54.81901 63.85690 59.33795
# Shear Modulus (GPa) = 37.24397 40.01700 38.63048
#
# Velocity S-wave (km/s) = 3.96364 4.10855 4.03675
# Velocity P-wave (km/s) = 6.63862 7.03160 6.83793
#
# Compressibility (1/GPa) = 0.01824185
#
# Stress axis : x y z
#
# Youngs Moduli (GPa) = 114.65689 114.65733 70.08597
#
# Poissons Ratio (x) = 0.38685 0.11778
# Poissons Ratio (y) = 0.38685 0.11777
# Poissons Ratio (z) = 0.19269 0.19266
#
# Static dielectric constant tensor:
#      x y z
#    x 1.935850 0.000000 0.000000 
#    y 0.000000 1.935850 0.000000 
#    z 0.000000 0.000000 2.017450 
# 
# From -- ./inp_files/2322.got.cif
#   From: 2010.05.17/outbox.cif.g08.bks.cpg/sg121_2_cif.got.tgz:2322.got - 2010.05.20 11:32:06.
