data_PCOD9560159
_publ_section_title
;
Structure prediction by ZEFSAII (Michael W. Deem and Ramdas Pophale) SiO2 
 PCOD9560159
Probable space group: I -4 2 M
;
_chemical_formula_sum "Si O2"
_cell_formula_units_Z 68
_cell_length_a 17.239039
_cell_length_b 17.239039
_cell_length_c 12.539003
_cell_angle_alpha 90.000000
_cell_angle_beta 90.000000
_cell_angle_gamma 90.000000
_cell_volume 3726.396906
_symmetry_space_group_name_H-M "I -4 2 M"
_symmetry_group_IT_number 121
_symmetry_cell_setting 'tetragonal'
loop_
_space_group_symop_operation_xyz
x,y,z
y,-x,-z
-x,-y,z
-y,x,-z
x,-y,-z
-x,y,-z
-y,-x,z
y,x,z
1/2+x,1/2+y,1/2+z
1/2+y,1/2-x,1/2-z
1/2-x,1/2-y,1/2+z
1/2-y,1/2+x,1/2-z
1/2+x,1/2-y,1/2-z
1/2-x,1/2+y,1/2-z
1/2-y,1/2-x,1/2+z
1/2+y,1/2+x,1/2+z
loop_
_atom_site_type_symbol
_atom_site_label
_atom_site_fract_x
_atom_site_fract_y
_atom_site_fract_z
Si Si1 0.160429 0.283747 0.982852
Si Si2 0.500000 0.000000 0.750000
Si Si3 0.063177 0.655325 0.829137
Si Si4 0.786762 0.909128 0.525457
Si Si5 0.092398 0.723403 0.242697
O O1 0.216736 0.216736 0.029353
O O2 0.127185 0.254035 0.870955
O O3 0.090348 0.309036 0.059305
O O4 0.216014 0.359658 0.973541
O O5 0.428833 0.977706 0.826692
O O6 0.143230 0.637578 0.768725
O O7 0.999316 0.707975 0.772137
O O8 0.866006 0.866006 0.492958
O O9 0.774884 0.898432 0.652689
O O10 0.783598 0.000000 0.500000
#
# Coordination Sequence:
#
# PCOD9560159 Si02
#       5
#    16   4  16  16  16
#     4  10  20  33  51  76 105 137 171 206 249 305
#     4   8  16  32  50  76 108 138 170 212 260 306
#     4   9  18  31  50  75 105 136 169 206 252 304
#     4  10  21  36  54  74  98 130 168 212 254 294
#     4  10  18  33  52  76 104 134 166 205 252 302
#
# _framework density 18.248189
#
# number of rings (size 3 to 8) (size 9 to 14) (size 15 to 20)
#    0.000    2.353    0.000    2.824    0.000    3.059 
#    0.000    8.235    0.000    0.000    0.000    0.000 
#    0.000    1.882    0.000    0.000    0.000    0.000 
#
# Total GULP energy -189389.512835 kJ/mol
# GULP energy per Si atom -5570.279789 kJ/mol
# Density = 1.820666 g / cm^3
# Si number density = 18.248189 Si / 1000 Ang^3
#
#
#
# Elastic Constant Matrix: (Units=GPa)
#
#
# Indices 1 2 3 4 5 6 
#
# 1 54.5308 40.2757 22.4689 0.0000 0.0000 0.0000
# 2 40.2757 54.5308 22.4689 0.0000 0.0000 0.0000
# 3 22.4689 22.4689 85.3597 0.0000 0.0000 0.0000
# 4 0.0000 0.0000 0.0000 12.0552 0.0000 0.0000
# 5 0.0000 0.0000 0.0000 0.0000 12.0552 0.0000
# 6 0.0000 0.0000 0.0000 0.0000 0.0000 13.1994
#
#
#
# Elastic Compliance Matrix: (Units=1/GPa)
#
#
# Indices 1 2 3 4 5 6 
#
# 1 0.041101 -0.029050 -0.003172 0.000000 0.000000 0.000000
# 2 -0.029050 0.041101 -0.003172 0.000000 0.000000 0.000000
# 3 -0.003172 -0.003172 0.013385 0.000000 0.000000 0.000000
# 4 0.000000 0.000000 0.000000 0.082951 0.000000 0.000000
# 5 0.000000 0.000000 0.000000 0.000000 0.082951 0.000000
# 6 0.000000 0.000000 0.000000 0.000000 0.000000 0.075761
#
#
# Mechanical properties :
#
#
# Convention : Reuss Voigt Hill
#
# Bulk Modulus (GPa) = 40.32417 40.53870 40.43143
# Shear Modulus (GPa) = 12.01041 14.74250 13.37646
#
# Velocity S-wave (km/s) = 2.56827 2.84542 2.71039
# Velocity P-wave (km/s) = 5.56240 5.74966 5.65681
#
# Compressibility (1/GPa) = 0.02479902
#
# Stress axis : x y z
#
# Youngs Moduli (GPa) = 24.33029 24.33029 74.70951
#
# Poissons Ratio (x) = 0.70679 0.23700
# Poissons Ratio (y) = 0.70679 0.23700
# Poissons Ratio (z) = 0.07718 0.07718
#
# Static dielectric constant tensor:
#      x y z
#    x 1.621520 0.000000 0.000000 
#    y 0.000000 1.621520 0.000000 
#    z 0.000000 0.000000 1.643150 
# 
# From -- ./inp_files/3033.got.cif
#   From: 2010.05.17/outbox.cif.g08.bks.cpg/sg121_2_cif.got.tgz:3033.got - 2010.05.20 11:32:06.
