data_PCOD9560866
_publ_section_title
;
Structure prediction by ZEFSAII (Michael W. Deem and Ramdas Pophale) SiO2 
 PCOD9560866
Probable space group: I -4 2 D
;
_chemical_formula_sum "Si O2"
_cell_formula_units_Z 72
_cell_length_a 18.612592
_cell_length_b 18.612592
_cell_length_c 9.595376
_cell_angle_alpha 90.000000
_cell_angle_beta 90.000000
_cell_angle_gamma 90.000000
_cell_volume 3324.112491
_symmetry_space_group_name_H-M "I -4 2 D"
_symmetry_group_IT_number 122
_symmetry_cell_setting 'tetragonal'
loop_
_space_group_symop_operation_xyz
x,y,z
y,-x,-z
-x,-y,z
-y,x,-z
x,1/2-y,1/4-z
-x,1/2+y,1/4-z
-y,1/2-x,1/4+z
y,1/2+x,1/4+z
1/2+x,1/2+y,1/2+z
1/2+y,1/2-x,1/2-z
1/2-x,1/2-y,1/2+z
1/2-y,1/2+x,1/2-z
1/2+x,-y,3/4-z
1/2-x,y,3/4-z
1/2-y,-x,3/4+z
1/2+y,x,3/4+z
loop_
_atom_site_type_symbol
_atom_site_label
_atom_site_fract_x
_atom_site_fract_y
_atom_site_fract_z
Si Si1 0.401697 0.750000 0.625000
Si Si2 0.306936 0.613777 0.584827
Si Si3 0.391702 0.498682 0.050088
Si Si4 0.147077 0.612875 0.481317
Si Si5 0.532823 0.269385 0.321653
O O1 0.350579 0.680923 0.642797
O O2 0.448534 0.741111 0.486337
O O3 0.222685 0.629419 0.556831
O O4 0.338569 0.598036 0.431135
O O5 0.308828 0.543668 0.680313
O O6 0.386154 0.543632 0.193231
O O7 0.310781 0.476366 0.012883
O O8 0.430401 0.555797 0.947649
O O9 0.095469 0.681382 0.487523
#
# Coordination Sequence:
#
# PCOD9560866 Si02
#       5
#     8  16  16  16  16
#     4  10  20  36  64  94 112 146 196 244 302 362
#     4   9  19  36  60  88 117 148 191 247 296 356
#     4  10  22  37  53  78 115 154 191 234 280 338
#     4   9  19  37  57  82 118 155 192 239 295 346
#     4  10  20  37  62  85 116 153 192 242 300 355
#
# _framework density 21.659915999999999
#
# number of rings (size 3 to 8) (size 9 to 14) (size 15 to 20)
#    0.000    2.444    0.000    2.667    0.000    8.000 
#    0.000    2.222    0.000   11.333    0.000    0.000 
#    0.000    0.000    0.000    0.000    0.000    0.000 
#
# Total GULP energy -201247.825614 kJ/mol
# GULP energy per Si atom -5590.217378 kJ/mol
# Density = 2.161062 g / cm^3
# Si number density = 21.659916 Si / 1000 Ang^3
#
#
#
# Elastic Constant Matrix: (Units=GPa)
#
#
# Indices 1 2 3 4 5 6 
#
# 1 130.3191 75.7595 29.6807 0.0000 0.0000 0.0000
# 2 75.7595 130.3191 29.6807 0.0000 0.0000 0.0000
# 3 29.6807 29.6807 52.7840 0.0000 0.0000 0.0000
# 4 0.0000 0.0000 0.0000 26.6737 0.0000 0.0000
# 5 0.0000 0.0000 0.0000 0.0000 26.6737 0.0000
# 6 0.0000 0.0000 0.0000 0.0000 0.0000 48.8917
#
#
#
# Elastic Compliance Matrix: (Units=1/GPa)
#
#
# Indices 1 2 3 4 5 6 
#
# 1 0.012060 -0.006269 -0.003256 0.000000 0.000000 0.000000
# 2 -0.006269 0.012060 -0.003256 0.000000 0.000000 0.000000
# 3 -0.003256 -0.003256 0.022607 0.000000 0.000000 0.000000
# 4 0.000000 0.000000 0.000000 0.037490 0.000000 0.000000
# 5 0.000000 0.000000 0.000000 0.000000 0.037490 0.000000
# 6 0.000000 0.000000 0.000000 0.000000 0.000000 0.020453
#
#
# Mechanical properties :
#
#
# Convention : Reuss Voigt Hill
#
# Bulk Modulus (GPa) = 47.25062 64.85156 56.05109
# Shear Modulus (GPa) = 28.60803 32.33457 30.47130
#
# Velocity S-wave (km/s) = 3.63820 3.86791 3.75481
# Velocity P-wave (km/s) = 6.28576 7.06777 6.68821
#
# Compressibility (1/GPa) = 0.02116374
#
# Stress axis : x y z
#
# Youngs Moduli (GPa) = 82.92213 82.92213 44.23444
#
# Poissons Ratio (x) = 0.51985 0.14403
# Poissons Ratio (y) = 0.51985 0.14403
# Poissons Ratio (z) = 0.26999 0.26999
#
# Static dielectric constant tensor:
#      x y z
#    x 1.768930 0.000000 0.000000 
#    y 0.000000 1.768930 0.000000 
#    z 0.000000 0.000000 1.822170 
# 
# From -- ./inp_files/4177.got.cif
#   From: 2010.05.17/outbox.cif.g08.bks.cpg/sg122_3_cif.got.tgz:4177.got - 2010.05.20 11:37:33.
