data_PCOD9560246
_publ_section_title
;
Structure prediction by ZEFSAII (Michael W. Deem and Ramdas Pophale) SiO2 
 PCOD9560246
Probable space group: I -4 2 M
;
_chemical_formula_sum "Si O2"
_cell_formula_units_Z 112
_cell_length_a 14.520880
_cell_length_b 14.520880
_cell_length_c 29.743385
_cell_angle_alpha 90.000000
_cell_angle_beta 90.000000
_cell_angle_gamma 90.000000
_cell_volume 6271.569878
_symmetry_space_group_name_H-M "I -4 2 M"
_symmetry_group_IT_number 121
_symmetry_cell_setting 'tetragonal'
loop_
_space_group_symop_operation_xyz
x,y,z
y,-x,-z
-x,-y,z
-y,x,-z
x,-y,-z
-x,y,-z
-y,-x,z
y,x,z
1/2+x,1/2+y,1/2+z
1/2+y,1/2-x,1/2-z
1/2-x,1/2-y,1/2+z
1/2-y,1/2+x,1/2-z
1/2+x,1/2-y,1/2-z
1/2-x,1/2+y,1/2-z
1/2-y,1/2-x,1/2+z
1/2+y,1/2+x,1/2+z
loop_
_atom_site_type_symbol
_atom_site_label
_atom_site_fract_x
_atom_site_fract_y
_atom_site_fract_z
Si Si1 0.497818 0.644522 0.349405
Si Si2 0.858847 0.710943 0.852647
Si Si3 0.289971 0.854202 0.823050
Si Si4 0.616280 0.905327 0.759966
Si Si5 0.878801 0.410607 0.068584
Si Si6 0.108493 0.739322 0.992753
Si Si7 0.096182 0.613263 0.912403
O O1 0.423238 0.576763 0.373355
O O2 0.572256 0.572256 0.328517
O O3 0.563898 0.718805 0.373492
O O4 0.434372 0.711718 0.319565
O O5 0.774806 0.774806 0.838206
O O6 0.898426 0.658787 0.809380
O O7 0.828818 0.639969 0.890498
O O8 0.235820 0.764181 0.838695
O O9 0.337491 0.837358 0.775621
O O10 0.363859 0.883548 0.860653
O O11 0.508736 0.878817 0.758863
O O12 0.858373 0.519136 0.069053
O O13 0.987277 0.401861 0.080728
O O14 0.867592 0.348795 0.024335
O O15 0.175153 0.824848 0.002427
O O16 0.121657 0.701586 0.942270
O O17 0.000000 0.760907 0.000000
#
# Coordination Sequence:
#
# PCOD9560246 Si02
#       7
#    16  16  16  16  16  16  16
#     4   9  18  32  49  69  97 137 179 211 246 305
#     4  11  20  33  51  74 101 132 172 215 257 308
#     4  11  20  33  51  74 101 132 172 215 257 308
#     4  11  21  34  48  70 101 135 172 212 264 313
#     4  10  19  34  54  75 101 135 171 211 257 305
#     4  10  21  36  53  79 110 142 177 213 254 307
#     4  10  19  34  54  75 101 135 171 211 257 305
#
# _framework density 17.858367000000001
#
# number of rings (size 3 to 8) (size 9 to 14) (size 15 to 20)
#    0.000    1.714    2.857    2.571    0.000    4.143 
#    0.000    0.000    0.000    0.000    0.000    0.000 
#    0.000   41.714    0.000    0.000    0.000    0.000 
#
# Total GULP energy -311832.367678 kJ/mol
# GULP energy per Si atom -5568.435137 kJ/mol
# Density = 1.781772 g / cm^3
# Si number density = 17.858367 Si / 1000 Ang^3
#
#
#
# Elastic Constant Matrix: (Units=GPa)
#
#
# Indices 1 2 3 4 5 6 
#
# 1 68.2428 31.6842 10.3244 0.0000 0.0000 0.0000
# 2 31.6842 68.2433 10.3256 0.0000 0.0000 0.0000
# 3 10.3244 10.3256 51.5453 0.0000 0.0000 0.0000
# 4 0.0000 0.0000 0.0000 14.8661 0.0000 0.0000
# 5 0.0000 0.0000 0.0000 0.0000 14.8652 0.0000
# 6 0.0000 0.0000 0.0000 0.0000 0.0000 15.6242
#
#
#
# Elastic Compliance Matrix: (Units=1/GPa)
#
#
# Indices 1 2 3 4 5 6 
#
# 1 0.018896 -0.008457 -0.002091 0.000000 0.000000 0.000000
# 2 -0.008457 0.018896 -0.002091 0.000000 0.000000 0.000000
# 3 -0.002091 -0.002091 0.020238 0.000000 0.000000 0.000000
# 4 0.000000 0.000000 0.000000 0.067267 0.000000 0.000000
# 5 0.000000 0.000000 0.000000 0.000000 0.067271 0.000000
# 6 0.000000 0.000000 0.000000 0.000000 0.000000 0.064003
#
#
# Mechanical properties :
#
#
# Convention : Reuss Voigt Hill
#
# Bulk Modulus (GPa) = 30.53199 32.52220 31.52709
# Shear Modulus (GPa) = 17.07836 18.11757 17.59797
#
# Velocity S-wave (km/s) = 3.09580 3.18860 3.14254
# Velocity P-wave (km/s) = 5.46923 5.63976 5.55515
#
# Compressibility (1/GPa) = 0.03275254
#
# Stress axis : x y z
#
# Youngs Moduli (GPa) = 52.92043 52.92048 49.41160
#
# Poissons Ratio (x) = 0.44754 0.10331
# Poissons Ratio (y) = 0.44754 0.10334
# Poissons Ratio (z) = 0.11065 0.11068
#
# Static dielectric constant tensor:
#      x y z
#    x 1.642840 0.000000 0.000000 
#    y 0.000000 1.642840 0.000000 
#    z 0.000000 0.000000 1.605390 
# 
# From -- ./inp_files/8421.got.cif
#   From: 2010.05.17/outbox.cif.g08.bks.cpg/sg121_5_cif.got.tgz:8421.got - 2010.05.20 11:32:06.
