data_PCOD9560027
_publ_section_title
;
Structure prediction by ZEFSAII (Michael W. Deem and Ramdas Pophale) SiO2 
 PCOD9560027
Probable space group: I -4 C 2
;
_chemical_formula_sum "Si O2"
_cell_formula_units_Z 32
_cell_length_a 9.308103
_cell_length_b 9.308103
_cell_length_c 14.497006
_cell_angle_alpha 90.000000
_cell_angle_beta 90.000000
_cell_angle_gamma 90.000000
_cell_volume 1256.031929
_symmetry_space_group_name_H-M "I -4 C 2"
_symmetry_group_IT_number 120
_symmetry_cell_setting 'tetragonal'
loop_
_space_group_symop_operation_xyz
x,y,z
y,-x,-z
-x,-y,z
-y,x,-z
y,x,1/2-z
-y,-x,1/2-z
-x,y,1/2+z
x,-y,1/2+z
1/2+x,1/2+y,1/2+z
1/2+y,1/2-x,1/2-z
1/2-x,1/2-y,1/2+z
1/2-y,1/2+x,1/2-z
1/2+y,1/2+x,-z
1/2-y,1/2-x,-z
1/2-x,1/2+y,z
1/2+x,1/2-y,z
loop_
_atom_site_type_symbol
_atom_site_label
_atom_site_fract_x
_atom_site_fract_y
_atom_site_fract_z
Si Si1 0.354943 0.061725 0.818999
Si Si2 0.336593 0.372416 0.036259
O O1 0.427918 0.177463 0.749778
O O2 0.222609 0.112987 0.877945
O O3 0.500000 0.000000 0.869944
O O4 0.338186 0.542924 0.042463
O O5 0.188370 0.311631 0.000000
#
# Coordination Sequence:
#
# PCOD9560027 Si02
#       2
#    16  16
#     4   6  17  39  71  95 133 192 222 279 360 414
#     4  11  25  41  68 109 139 185 242 298 351 423
#
# _framework density 25.477062
#
# number of rings (size 3 to 8) (size 9 to 14) (size 15 to 20)
#    3.000    0.500    0.000    0.000    7.000    0.000 
#    0.000   10.000    0.000   12.000    0.000    0.000 
#    0.000    0.000    0.000    0.000    0.000    0.000 
#
# Total GULP energy -89091.217391 kJ/mol
# GULP energy per Si atom -5568.201087 kJ/mol
# Density = 2.541908 g / cm^3
# Si number density = 25.477062 Si / 1000 Ang^3
#
#
#
# Elastic Constant Matrix: (Units=GPa)
#
#
# Indices 1 2 3 4 5 6 
#
# 1 73.8970 15.2592 26.7072 0.0000 0.0000 0.0000
# 2 15.2592 73.8913 26.7061 0.0000 0.0000 0.0000
# 3 26.7072 26.7061 103.1721 0.0000 0.0000 0.0000
# 4 0.0000 0.0000 0.0000 25.0451 0.0000 0.0000
# 5 0.0000 0.0000 0.0000 0.0000 25.0468 0.0000
# 6 0.0000 0.0000 0.0000 0.0000 0.0000 43.1086
#
#
#
# Elastic Compliance Matrix: (Units=1/GPa)
#
#
# Indices 1 2 3 4 5 6 
#
# 1 0.015164 -0.001890 -0.003436 0.000000 0.000000 0.000000
# 2 -0.001890 0.015166 -0.003436 0.000000 0.000000 0.000000
# 3 -0.003436 -0.003436 0.011472 0.000000 0.000000 0.000000
# 4 0.000000 0.000000 0.000000 0.039928 0.000000 0.000000
# 5 0.000000 0.000000 0.000000 0.000000 0.039925 0.000000
# 6 0.000000 0.000000 0.000000 0.000000 0.000000 0.023197
#
#
# Mechanical properties :
#
#
# Convention : Reuss Voigt Hill
#
# Bulk Modulus (GPa) = 41.19154 43.14505 42.16829
# Shear Modulus (GPa) = 29.33079 30.79264 30.06171
#
# Velocity S-wave (km/s) = 3.39671 3.48032 3.43877
# Velocity P-wave (km/s) = 5.62020 5.75516 5.68808
#
# Compressibility (1/GPa) = 0.02427683
#
# Stress axis : x y z
#
# Youngs Moduli (GPa) = 65.94361 65.93855 87.17166
#
# Poissons Ratio (x) = 0.12460 0.29955
# Poissons Ratio (y) = 0.12461 0.29956
# Poissons Ratio (z) = 0.22661 0.22660
#
# Static dielectric constant tensor:
#      x y z
#    x 2.006420 0.000000 0.000000 
#    y 0.000000 2.006420 0.000000 
#    z 0.000000 0.000000 2.106080 
# 
# From -- ./inp_files/1841.got.cif
#   From: 2010.05.17/outbox.cif.g08.bks.cpg/sg120_1_cif.got.tgz:1841.got - 2010.05.20 11:28:13.
