data_PCOD9560013
_publ_section_title
;
Structure prediction by ZEFSAII (Michael W. Deem and Ramdas Pophale) SiO2 
 PCOD9560013
Probable space group: I -4 C 2
;
_chemical_formula_sum "Si O2"
_cell_formula_units_Z 96
_cell_length_a 14.873917
_cell_length_b 14.873917
_cell_length_c 20.015198
_cell_angle_alpha 90.000000
_cell_angle_beta 90.000000
_cell_angle_gamma 90.000000
_cell_volume 4428.030444
_symmetry_space_group_name_H-M "I -4 C 2"
_symmetry_group_IT_number 120
_symmetry_cell_setting 'tetragonal'
loop_
_space_group_symop_operation_xyz
x,y,z
y,-x,-z
-x,-y,z
-y,x,-z
y,x,1/2-z
-y,-x,1/2-z
-x,y,1/2+z
x,-y,1/2+z
1/2+x,1/2+y,1/2+z
1/2+y,1/2-x,1/2-z
1/2-x,1/2-y,1/2+z
1/2-y,1/2+x,1/2-z
1/2+y,1/2+x,-z
1/2-y,1/2-x,-z
1/2-x,1/2+y,z
1/2+x,1/2-y,z
loop_
_atom_site_type_symbol
_atom_site_label
_atom_site_fract_x
_atom_site_fract_y
_atom_site_fract_z
Si Si1 0.075918 0.075918 0.173615
Si Si2 0.101718 0.386611 0.250000
Si Si3 0.163440 0.686775 0.389556
Si Si4 0.478383 0.728238 0.428773
Si Si5 0.521617 0.728238 0.571227
Si Si6 0.186775 0.663440 0.889556
O O1 0.100276 0.100276 0.250000
O O2 0.158909 0.037912 0.131064
O O3 0.037912 0.158909 0.131064
O O4 0.000000 0.000000 0.176325
O O5 0.122524 0.493683 0.250000
O O6 0.144371 0.343155 0.184292
O O7 0.144371 0.343155 0.315708
O O8 0.213009 0.611882 0.433839
O O9 0.223857 0.776143 0.389525
O O10 0.063089 0.709650 0.411835
O O11 0.500000 0.683105 0.500000
O O12 0.388118 0.786991 0.433839
O O13 0.436911 0.790350 0.588165
#
# Coordination Sequence:
#
# PCOD9560013 Si02
#       6
#    16  16  16  16  16  16
#     4  11  28  50  73 108 152 193 254 311 373 450
#     4  11  23  44  72 104 139 195 250 308 376 452
#     4  12  26  46  73 106 150 192 250 308 382 447
#     4  12  28  47  76 109 149 195 250 308 378 451
#     4  12  28  47  76 109 149 195 250 308 378 451
#     4  12  26  46  73 106 150 192 250 308 382 447
#
# _framework density 21.680067000000001
#
# number of rings (size 3 to 8) (size 9 to 14) (size 15 to 20)
#    0.000    0.333    5.000    2.500    9.333    2.000 
#    0.000    1.667    0.000    0.000    0.000    0.000 
#    0.000    0.000    0.000    0.000    0.000    0.000 
#
# Total GULP energy -268841.155861 kJ/mol
# GULP energy per Si atom -5600.857414 kJ/mol
# Density = 2.163072 g / cm^3
# Si number density = 21.680067 Si / 1000 Ang^3
#
#
#
# Elastic Constant Matrix: (Units=GPa)
#
#
# Indices 1 2 3 4 5 6 
#
# 1 70.4396 -1.0818 7.1174 0.0000 0.0000 0.0000
# 2 -1.0818 70.4396 7.1174 0.0000 0.0000 0.0000
# 3 7.1174 7.1174 153.2045 0.0000 0.0000 0.0000
# 4 0.0000 0.0000 0.0000 29.8382 0.0000 0.0000
# 5 0.0000 0.0000 0.0000 0.0000 29.8382 0.0000
# 6 0.0000 0.0000 0.0000 0.0000 0.0000 41.2009
#
#
#
# Elastic Compliance Matrix: (Units=1/GPa)
#
#
# Indices 1 2 3 4 5 6 
#
# 1 0.014269 0.000287 -0.000676 0.000000 0.000000 0.000000
# 2 0.000287 0.014269 -0.000676 0.000000 0.000000 0.000000
# 3 -0.000676 -0.000676 0.006590 0.000000 0.000000 0.000000
# 4 0.000000 0.000000 0.000000 0.033514 0.000000 0.000000
# 5 0.000000 0.000000 0.000000 0.000000 0.033514 0.000000
# 6 0.000000 0.000000 0.000000 0.000000 0.000000 0.024271
#
#
# Mechanical properties :
#
#
# Convention : Reuss Voigt Hill
#
# Bulk Modulus (GPa) = 30.30434 35.59886 32.95160
# Shear Modulus (GPa) = 35.82746 38.90418 37.36582
#
# Velocity S-wave (km/s) = 4.06957 4.24071 4.15602
# Velocity P-wave (km/s) = 6.00751 6.35877 6.18563
#
# Compressibility (1/GPa) = 0.03299858
#
# Stress axis : x y z
#
# Youngs Moduli (GPa) = 70.08049 70.08049 151.74377
#
# Poissons Ratio (x) = -0.02015 0.10262
# Poissons Ratio (y) = -0.02015 0.10262
# Poissons Ratio (z) = 0.04739 0.04739
#
# Static dielectric constant tensor:
#      x y z
#    x 1.753180 0.000000 0.000000 
#    y 0.000000 1.753180 0.000000 
#    z 0.000000 0.000000 1.806090 
# 
# From -- ./inp_files/5347.got.cif
#   From: 2010.05.17/outbox.cif.g08.bks.cpg/sg120_3_cif.got.tgz:5347.got - 2010.05.20 11:28:13.
