data_PCOD9560249
_publ_section_title
;
Structure prediction by ZEFSAII (Michael W. Deem and Ramdas Pophale) SiO2 
 PCOD9560249
Probable space group: I -4 2 M
;
_chemical_formula_sum "Si O2"
_cell_formula_units_Z 88
_cell_length_a 11.741262
_cell_length_b 11.741262
_cell_length_c 28.271742
_cell_angle_alpha 90.000000
_cell_angle_beta 90.000000
_cell_angle_gamma 90.000000
_cell_volume 3897.464134
_symmetry_space_group_name_H-M "I -4 2 M"
_symmetry_group_IT_number 121
_symmetry_cell_setting 'tetragonal'
loop_
_space_group_symop_operation_xyz
x,y,z
y,-x,-z
-x,-y,z
-y,x,-z
x,-y,-z
-x,y,-z
-y,-x,z
y,x,z
1/2+x,1/2+y,1/2+z
1/2+y,1/2-x,1/2-z
1/2-x,1/2-y,1/2+z
1/2-y,1/2+x,1/2-z
1/2+x,1/2-y,1/2-z
1/2-x,1/2+y,1/2-z
1/2-y,1/2-x,1/2+z
1/2+y,1/2+x,1/2+z
loop_
_atom_site_type_symbol
_atom_site_label
_atom_site_fract_x
_atom_site_fract_y
_atom_site_fract_z
Si Si1 0.824884 0.003245 0.173566
Si Si2 0.602519 0.211716 0.418115
Si Si3 0.000000 0.812991 0.500000
Si Si4 0.500893 0.137871 0.136938
Si Si5 0.350918 0.829516 0.559427
Si Si6 0.037710 0.681542 0.260131
O O1 0.905548 0.094453 0.148472
O O2 0.767002 0.060666 0.218121
O O3 0.752626 0.943902 0.133105
O O4 0.905464 0.905464 0.194505
O O5 0.691951 0.308050 0.435438
O O6 0.660517 0.093224 0.403454
O O7 0.487669 0.182446 0.447247
O O8 0.082362 0.724300 0.528383
O O9 0.904173 0.904173 0.520699
O O10 0.621382 0.162421 0.112855
O O11 0.473690 0.206769 0.184388
O O12 0.500000 0.000000 0.147742
O O13 0.291619 0.708382 0.553969
O O14 0.129921 0.583096 0.255379
#
# Coordination Sequence:
#
# PCOD9560249 Si02
#       6
#    16  16   8  16  16  16
#     4  10  21  34  49  75 112 156 204 250 298 353
#     4  10  20  36  57  87 128 169 209 251 299 369
#     4   9  20  42  69  96 128 162 203 261 328 398
#     4  10  19  34  55  82 118 158 211 260 301 359
#     4  10  21  38  64  96 124 158 201 249 316 384
#     4  11  18  31  51  75 109 153 206 257 297 343
#
# _framework density 22.578783999999999
#
# number of rings (size 3 to 8) (size 9 to 14) (size 15 to 20)
#    0.000    1.909    3.636    1.636    0.000    4.000 
#    0.000    4.091    0.000    2.182    0.000    1.273 
#    0.000   11.636    0.000    0.000    0.000    0.000 
#
# Total GULP energy -245127.614957 kJ/mol
# GULP energy per Si atom -5571.082158 kJ/mol
# Density = 2.252739 g / cm^3
# Si number density = 22.578784 Si / 1000 Ang^3
#
#
#
# Elastic Constant Matrix: (Units=GPa)
#
#
# Indices 1 2 3 4 5 6 
#
# 1 80.0217 31.9105 21.5973 0.0000 0.0000 0.0000
# 2 31.9105 80.0235 21.5983 0.0000 0.0000 0.0000
# 3 21.5973 21.5983 83.1718 0.0000 0.0000 0.0000
# 4 0.0000 0.0000 0.0000 19.3898 0.0000 0.0000
# 5 0.0000 0.0000 0.0000 0.0000 19.3893 0.0000
# 6 0.0000 0.0000 0.0000 0.0000 0.0000 90.9532
#
#
#
# Elastic Compliance Matrix: (Units=1/GPa)
#
#
# Indices 1 2 3 4 5 6 
#
# 1 0.015357 -0.005428 -0.002578 0.000000 0.000000 0.000000
# 2 -0.005428 0.015357 -0.002578 0.000000 0.000000 0.000000
# 3 -0.002578 -0.002578 0.013362 0.000000 0.000000 0.000000
# 4 0.000000 0.000000 0.000000 0.051573 0.000000 0.000000
# 5 0.000000 0.000000 0.000000 0.000000 0.051575 0.000000
# 6 0.000000 0.000000 0.000000 0.000000 0.000000 0.010995
#
#
# Mechanical properties :
#
#
# Convention : Reuss Voigt Hill
#
# Bulk Modulus (GPa) = 43.65493 43.71436 43.68464
# Shear Modulus (GPa) = 26.73459 37.15387 31.94423
#
# Velocity S-wave (km/s) = 3.44475 4.06090 3.76545
# Velocity P-wave (km/s) = 5.93281 6.43357 6.18825
#
# Compressibility (1/GPa) = 0.02290692
#
# Stress axis : x y z
#
# Youngs Moduli (GPa) = 65.11700 65.11816 74.83708
#
# Poissons Ratio (x) = 0.35346 0.19295
# Poissons Ratio (y) = 0.35345 0.19296
# Poissons Ratio (z) = 0.16789 0.16790
#
# Static dielectric constant tensor:
#      x y z
#    x 1.909810 0.000000 0.000000 
#    y 0.000000 1.909810 0.000000 
#    z 0.000000 0.000000 1.775940 
# 
# From -- ./inp_files/8165.got.cif
#   From: 2010.05.17/outbox.cif.g08.bks.cpg/sg121_5_cif.got.tgz:8165.got - 2010.05.20 11:32:06.
