data_PCOD9560171
_publ_section_title
;
Structure prediction by ZEFSAII (Michael W. Deem and Ramdas Pophale) SiO2 
 PCOD9560171
Probable space group: I -4 2 M
;
_chemical_formula_sum "Si O2"
_cell_formula_units_Z 88
_cell_length_a 17.177309
_cell_length_b 17.177309
_cell_length_c 14.004594
_cell_angle_alpha 90.000000
_cell_angle_beta 90.000000
_cell_angle_gamma 90.000000
_cell_volume 4132.194728
_symmetry_space_group_name_H-M "I -4 2 M"
_symmetry_group_IT_number 121
_symmetry_cell_setting 'tetragonal'
loop_
_space_group_symop_operation_xyz
x,y,z
y,-x,-z
-x,-y,z
-y,x,-z
x,-y,-z
-x,y,-z
-y,-x,z
y,x,z
1/2+x,1/2+y,1/2+z
1/2+y,1/2-x,1/2-z
1/2-x,1/2-y,1/2+z
1/2-y,1/2+x,1/2-z
1/2+x,1/2-y,1/2-z
1/2-x,1/2+y,1/2-z
1/2-y,1/2-x,1/2+z
1/2+y,1/2+x,1/2+z
loop_
_atom_site_type_symbol
_atom_site_label
_atom_site_fract_x
_atom_site_fract_y
_atom_site_fract_z
Si Si1 0.333411 0.666590 0.657309
Si Si2 0.126755 0.507495 0.743988
Si Si3 0.560786 0.771963 0.078595
Si Si4 0.785410 0.014918 0.847440
Si Si5 0.774287 0.225714 0.367691
Si Si6 0.495123 0.378071 0.836294
Si Si7 0.837040 0.837040 0.053136
O O1 0.424805 0.688013 0.651569
O O2 0.301014 0.698987 0.759733
O O3 0.307483 0.692518 0.550484
O O4 0.075221 0.434921 0.781047
O O5 0.177921 0.542846 0.828277
O O6 0.191484 0.483199 0.665503
O O7 0.653594 0.763773 0.074348
O O8 0.535669 0.683593 0.097636
O O9 0.500000 0.802288 0.000000
O O10 0.816618 0.072343 0.929099
O O11 0.828964 0.041404 0.750253
O O12 0.708881 0.291120 0.364511
O O13 0.560422 0.439579 0.801472
O O14 0.428670 0.428670 0.885103
#
# Coordination Sequence:
#
# PCOD9560171 Si02
#       7
#     8  16  16  16   8  16   8
#     4  12  24  47  68  97 144 184 215 294 355 401
#     4  10  22  43  70  92 127 180 228 284 351 403
#     4  11  23  41  66  97 134 174 226 281 347 411
#     4  11  21  41  67  97 136 174 225 279 340 416
#     4  12  24  50  65  99 149 176 228 306 342 416
#     4  10  18  34  61  92 128 171 206 258 337 401
#     4  12  28  41  70 105 132 183 245 274 349 433
#
# _framework density 21.296189999999999
#
# number of rings (size 3 to 8) (size 9 to 14) (size 15 to 20)
#    0.000    1.091    6.364    1.636    1.273    1.818 
#    3.273    5.455    0.000    0.000    0.000    0.000 
#    0.000    0.000    0.000    0.000    0.000    0.000 
#
# Total GULP energy -245116.497654 kJ/mol
# GULP energy per Si atom -5570.829492 kJ/mol
# Density = 2.124772 g / cm^3
# Si number density = 21.296190 Si / 1000 Ang^3
#
#
#
# Elastic Constant Matrix: (Units=GPa)
#
#
# Indices 1 2 3 4 5 6 
#
# 1 104.1702 52.8815 10.6859 0.0000 0.0000 0.0000
# 2 52.8815 104.1685 10.6857 0.0000 0.0000 0.0000
# 3 10.6859 10.6857 46.7270 0.0000 0.0000 0.0000
# 4 0.0000 0.0000 0.0000 17.3990 0.0000 0.0000
# 5 0.0000 0.0000 0.0000 0.0000 17.4000 0.0000
# 6 0.0000 0.0000 0.0000 0.0000 0.0000 29.1493
#
#
#
# Elastic Compliance Matrix: (Units=1/GPa)
#
#
# Indices 1 2 3 4 5 6 
#
# 1 0.013035 -0.006463 -0.001503 0.000000 0.000000 0.000000
# 2 -0.006463 0.013035 -0.001503 0.000000 0.000000 0.000000
# 3 -0.001503 -0.001503 0.022088 0.000000 0.000000 0.000000
# 4 0.000000 0.000000 0.000000 0.057474 0.000000 0.000000
# 5 0.000000 0.000000 0.000000 0.000000 0.057471 0.000000
# 6 0.000000 0.000000 0.000000 0.000000 0.000000 0.034306
#
#
# Mechanical properties :
#
#
# Convention : Reuss Voigt Hill
#
# Bulk Modulus (GPa) = 34.22259 44.84131 39.53195
# Shear Modulus (GPa) = 22.11534 24.84384 23.47959
#
# Velocity S-wave (km/s) = 3.22602 3.41924 3.32403
# Velocity P-wave (km/s) = 5.47549 6.05723 5.77369
#
# Compressibility (1/GPa) = 0.02922047
#
# Stress axis : x y z
#
# Youngs Moduli (GPa) = 76.71811 76.71692 45.27290
#
# Poissons Ratio (x) = 0.49582 0.06804
# Poissons Ratio (y) = 0.49583 0.06804
# Poissons Ratio (z) = 0.11530 0.11530
#
# Static dielectric constant tensor:
#      x y z
#    x 1.802980 0.000000 0.000000 
#    y 0.000000 1.802990 0.000000 
#    z 0.000000 0.000000 1.819240 
# 
# From -- ./inp_files/4408.got.cif
#   From: 2010.05.17/outbox.cif.g08.bks.cpg/sg121_3_cif.got.tgz:4408.got - 2010.05.20 11:32:06.
