data_PCOD9560851
_publ_section_title
;
Structure prediction by ZEFSAII (Michael W. Deem and Ramdas Pophale) SiO2 
 PCOD9560851
Probable space group: I -4 2 D
;
_chemical_formula_sum "Si O2"
_cell_formula_units_Z 88
_cell_length_a 17.731858
_cell_length_b 17.731858
_cell_length_c 13.437288
_cell_angle_alpha 90.000000
_cell_angle_beta 90.000000
_cell_angle_gamma 90.000000
_cell_volume 4224.935809
_symmetry_space_group_name_H-M "I -4 2 D"
_symmetry_group_IT_number 122
_symmetry_cell_setting 'tetragonal'
loop_
_space_group_symop_operation_xyz
x,y,z
y,-x,-z
-x,-y,z
-y,x,-z
x,1/2-y,1/4-z
-x,1/2+y,1/4-z
-y,1/2-x,1/4+z
y,1/2+x,1/4+z
1/2+x,1/2+y,1/2+z
1/2+y,1/2-x,1/2-z
1/2-x,1/2-y,1/2+z
1/2-y,1/2+x,1/2-z
1/2+x,-y,3/4-z
1/2-x,y,3/4-z
1/2-y,-x,3/4+z
1/2+y,x,3/4+z
loop_
_atom_site_type_symbol
_atom_site_label
_atom_site_fract_x
_atom_site_fract_y
_atom_site_fract_z
Si Si1 0.403213 0.408248 0.368222
Si Si2 0.500000 0.000000 0.250000
Si Si3 0.000000 0.000000 0.000000
Si Si4 0.919600 0.127951 0.362903
Si Si5 0.491116 0.227957 0.928849
Si Si6 0.576589 0.250000 0.125000
Si Si7 0.179406 0.750000 0.125000
Si Si8 0.702420 0.334658 0.006406
O O1 0.429659 0.479877 0.429564
O O2 0.397264 0.422836 0.250475
O O3 0.471286 0.347718 0.378719
O O4 0.323207 0.371173 0.397781
O O5 0.541354 0.064235 0.317230
O O6 0.834135 0.145103 0.400115
O O7 0.960660 0.208475 0.374237
O O8 0.528466 0.213465 0.036686
O O9 0.410568 0.264426 0.950275
O O10 0.629610 0.189589 0.178825
O O11 0.235066 0.771327 0.217460
#
# Coordination Sequence:
#
# PCOD9560851 Si02
#       8
#    16   4   4  16  16   8   8  16
#     4  11  26  45  72  93 136 183 241 287 345 421
#     4  12  22  36  60 110 152 180 218 288 368 446
#     4  12  30  52  72  98 136 188 238 292 340 414
#     4  11  22  37  68 102 141 180 230 287 367 416
#     4  10  20  35  62  95 130 177 213 276 343 408
#     4   9  18  30  56  92 139 164 206 266 337 408
#     4   9  22  44  70  90 133 180 234 280 345 406
#     4   9  18  36  59  98 133 167 216 281 336 409
#
# _framework density 20.828717999999999
#
# number of rings (size 3 to 8) (size 9 to 14) (size 15 to 20)
#    0.000    1.818    1.818    1.636    5.091    3.636 
#    0.000    0.000    8.000    0.000    0.000    0.000 
#    0.000    0.000    0.000    0.000    0.000    0.000 
#
# Total GULP energy -245675.379317 kJ/mol
# GULP energy per Si atom -5583.531348 kJ/mol
# Density = 2.078131 g / cm^3
# Si number density = 20.828718 Si / 1000 Ang^3
#
#
#
# Elastic Constant Matrix: (Units=GPa)
#
#
# Indices 1 2 3 4 5 6 
#
# 1 69.0634 19.7657 36.8375 0.0000 0.0000 0.0000
# 2 19.7657 69.0634 36.8375 0.0000 0.0000 0.0000
# 3 36.8375 36.8375 109.6327 0.0000 0.0000 0.0000
# 4 0.0000 0.0000 0.0000 27.6343 0.0000 0.0000
# 5 0.0000 0.0000 0.0000 0.0000 27.6343 0.0000
# 6 0.0000 0.0000 0.0000 0.0000 0.0000 37.7194
#
#
#
# Elastic Compliance Matrix: (Units=1/GPa)
#
#
# Indices 1 2 3 4 5 6 
#
# 1 0.017946 -0.002339 -0.005244 0.000000 0.000000 0.000000
# 2 -0.002339 0.017946 -0.005244 0.000000 0.000000 0.000000
# 3 -0.005244 -0.005244 0.012645 0.000000 0.000000 0.000000
# 4 0.000000 0.000000 0.000000 0.036187 0.000000 0.000000
# 5 0.000000 0.000000 0.000000 0.000000 0.036187 0.000000
# 6 0.000000 0.000000 0.000000 0.000000 0.000000 0.026512
#
#
# Mechanical properties :
#
#
# Convention : Reuss Voigt Hill
#
# Bulk Modulus (GPa) = 43.70023 48.29344 45.99684
# Shear Modulus (GPa) = 27.66942 28.88550 28.27746
#
# Velocity S-wave (km/s) = 3.64871 3.72803 3.68859
# Velocity P-wave (km/s) = 6.22713 6.46276 6.34604
#
# Compressibility (1/GPa) = 0.02288317
#
# Stress axis : x y z
#
# Youngs Moduli (GPa) = 55.72280 55.72280 79.07962
#
# Poissons Ratio (x) = 0.13033 0.41470
# Poissons Ratio (y) = 0.13033 0.41470
# Poissons Ratio (z) = 0.29222 0.29222
#
# Static dielectric constant tensor:
#      x y z
#    x 1.769870 0.000000 0.000000 
#    y 0.000000 1.769870 0.000000 
#    z 0.000000 0.000000 1.774480 
# 
# From -- ./inp_files/5447.got.cif
#   From: 2010.05.17/outbox.cif.g08.bks.cpg/sg122_3_cif.got.tgz:5447.got - 2010.05.20 11:37:33.
