data_PCOD9560983
_publ_section_title
;
Structure prediction by ZEFSAII (Michael W. Deem and Ramdas Pophale) SiO2 
 PCOD9560983
Probable space group: I -4 2 D
;
_chemical_formula_sum "Si O2"
_cell_formula_units_Z 112
_cell_length_a 14.778121
_cell_length_b 14.778121
_cell_length_c 29.072390
_cell_angle_alpha 90.000000
_cell_angle_beta 90.000000
_cell_angle_gamma 90.000000
_cell_volume 6349.202408
_symmetry_space_group_name_H-M "I -4 2 D"
_symmetry_group_IT_number 122
_symmetry_cell_setting 'tetragonal'
loop_
_space_group_symop_operation_xyz
x,y,z
y,-x,-z
-x,-y,z
-y,x,-z
x,1/2-y,1/4-z
-x,1/2+y,1/4-z
-y,1/2-x,1/4+z
y,1/2+x,1/4+z
1/2+x,1/2+y,1/2+z
1/2+y,1/2-x,1/2-z
1/2-x,1/2-y,1/2+z
1/2-y,1/2+x,1/2-z
1/2+x,-y,3/4-z
1/2-x,y,3/4-z
1/2-y,-x,3/4+z
1/2+y,x,3/4+z
loop_
_atom_site_type_symbol
_atom_site_label
_atom_site_fract_x
_atom_site_fract_y
_atom_site_fract_z
Si Si1 0.891254 0.504156 0.938054
Si Si2 0.569840 0.594775 0.528327
Si Si3 0.894818 0.533307 0.043730
Si Si4 0.684685 0.771306 0.518936
Si Si5 0.992942 0.183989 0.893375
Si Si6 0.688037 0.822111 0.086203
Si Si7 0.201565 0.672497 0.586924
O O1 0.846735 0.416652 0.915770
O O2 0.860671 0.597136 0.914159
O O3 0.000000 0.500000 0.935388
O O4 0.867346 0.500045 0.992609
O O5 0.535093 0.395532 0.515199
O O6 0.613118 0.691961 0.527520
O O7 0.601150 0.541384 0.574011
O O8 0.864000 0.639192 0.039574
O O9 0.845862 0.501711 0.090293
O O10 0.000000 0.500000 0.048179
O O11 0.774726 0.730493 0.541742
O O12 0.704339 0.784086 0.465332
O O13 0.914075 0.257278 0.903596
O O14 0.087702 0.230713 0.906288
O O15 0.709023 0.750000 0.125000
O O16 0.215207 0.750000 0.625000
#
# Coordination Sequence:
#
# PCOD9560983 Si02
#       7
#    16  16  16  16  16  16  16
#     4  10  21  40  63  89 118 162 200 253 318 368
#     4  10  21  36  59  79 119 162 201 242 295 359
#     4  10  23  38  60  89 125 155 201 256 307 358
#     4  10  22  40  59  92 117 156 208 252 300 369
#     4  11  22  39  59  88 126 159 205 252 302 366
#     4  11  21  39  67  89 117 160 210 254 306 373
#     4  11  23  40  59  89 126 156 206 254 314 372
#
# _framework density 17.640011999999999
#
# number of rings (size 3 to 8) (size 9 to 14) (size 15 to 20)
#    0.000    1.571    4.286    0.429    4.000    0.000 
#    0.000    0.000    0.000    0.000    0.000    0.000 
#    0.000    0.000    0.000    0.000    0.000    0.000 
#
# Total GULP energy -311783.411475 kJ/mol
# GULP energy per Si atom -5567.560919 kJ/mol
# Density = 1.759986 g / cm^3
# Si number density = 17.640012 Si / 1000 Ang^3
#
#
#
# Elastic Constant Matrix: (Units=GPa)
#
#
# Indices 1 2 3 4 5 6 
#
# 1 61.3403 12.9235 19.4623 0.0000 0.0000 0.0000
# 2 12.9235 61.3403 19.4623 0.0000 0.0000 0.0000
# 3 19.4623 19.4623 72.5188 0.0000 0.0000 0.0000
# 4 0.0000 0.0000 0.0000 19.9282 0.0000 0.0000
# 5 0.0000 0.0000 0.0000 0.0000 19.9282 0.0000
# 6 0.0000 0.0000 0.0000 0.0000 0.0000 9.8264
#
#
#
# Elastic Compliance Matrix: (Units=1/GPa)
#
#
# Indices 1 2 3 4 5 6 
#
# 1 0.018162 -0.002492 -0.004205 0.000000 0.000000 0.000000
# 2 -0.002492 0.018162 -0.004205 0.000000 0.000000 0.000000
# 3 -0.004205 -0.004205 0.016047 0.000000 0.000000 0.000000
# 4 0.000000 0.000000 0.000000 0.050180 0.000000 0.000000
# 5 0.000000 0.000000 0.000000 0.000000 0.050180 0.000000
# 6 0.000000 0.000000 0.000000 0.000000 0.000000 0.101767
#
#
# Mechanical properties :
#
#
# Convention : Reuss Voigt Hill
#
# Bulk Modulus (GPa) = 32.71749 33.21063 32.96406
# Shear Modulus (GPa) = 17.45250 19.49331 18.47290
#
# Velocity S-wave (km/s) = 3.14884 3.32785 3.23958
# Velocity P-wave (km/s) = 5.63984 5.79947 5.72021
#
# Compressibility (1/GPa) = 0.03056469
#
# Stress axis : x y z
#
# Youngs Moduli (GPa) = 55.06050 55.06050 62.31782
#
# Poissons Ratio (x) = 0.13722 0.26207
# Poissons Ratio (y) = 0.13722 0.26207
# Poissons Ratio (z) = 0.23155 0.23155
#
# Static dielectric constant tensor:
#      x y z
#    x 1.607710 0.000000 0.000000 
#    y 0.000000 1.607710 0.000000 
#    z 0.000000 0.000000 1.627430 
# 
# From -- ./inp_files/8101.got.cif
#   From: 2010.05.17/outbox.cif.g08.bks.cpg/sg122_5_cif.got.tgz:8101.got - 2010.05.20 11:37:33.
