data_PCOD9560590
_publ_section_title
;
Structure prediction by ZEFSAII (Michael W. Deem and Ramdas Pophale) SiO2 
 PCOD9560590
Probable space group: I -4 2 M
;
_chemical_formula_sum "Si O2"
_cell_formula_units_Z 64
_cell_length_a 11.114019
_cell_length_b 11.114019
_cell_length_c 22.388505
_cell_angle_alpha 90.000000
_cell_angle_beta 90.000000
_cell_angle_gamma 90.000000
_cell_volume 2765.459892
_symmetry_space_group_name_H-M "I -4 2 M"
_symmetry_group_IT_number 121
_symmetry_cell_setting 'tetragonal'
loop_
_space_group_symop_operation_xyz
x,y,z
y,-x,-z
-x,-y,z
-y,x,-z
x,-y,-z
-x,y,-z
-y,-x,z
y,x,z
1/2+x,1/2+y,1/2+z
1/2+y,1/2-x,1/2-z
1/2-x,1/2-y,1/2+z
1/2-y,1/2+x,1/2-z
1/2+x,1/2-y,1/2-z
1/2-x,1/2+y,1/2-z
1/2-y,1/2-x,1/2+z
1/2+y,1/2+x,1/2+z
loop_
_atom_site_type_symbol
_atom_site_label
_atom_site_fract_x
_atom_site_fract_y
_atom_site_fract_z
Si Si1 0.685744 0.109645 0.952518
Si Si2 0.483119 0.855689 0.668643
Si Si3 0.749302 0.435317 0.206207
Si Si4 0.501781 0.695031 0.081850
O O1 0.793020 0.206981 0.964055
O O2 0.702902 0.048163 0.887397
O O3 0.559630 0.184615 0.946745
O O4 0.681613 0.000000 0.000000
O O5 0.526139 0.810712 0.732888
O O6 0.340010 0.845269 0.671902
O O7 0.500000 0.000000 0.664618
O O8 0.627737 0.372264 0.224235
O O9 0.717333 0.524353 0.152685
O O10 0.368051 0.631950 0.075794
O O11 0.591657 0.591657 0.060776
#
# Coordination Sequence:
#
# PCOD9560590 Si02
#       4
#    16  16  16  16
#     4  11  25  45  72 102 143 198 252 310 370 439
#     4  12  21  40  64  96 137 183 232 291 353 438
#     4  11  21  36  65 103 137 174 225 286 364 442
#     4   9  19  39  69 107 145 181 235 305 373 442
#
# _framework density 23.142624000000001
#
# number of rings (size 3 to 8) (size 9 to 14) (size 15 to 20)
#    0.000    1.250    5.000    0.750    0.000    4.750 
#    0.000    0.000    0.000    7.500    0.000    7.000 
#    0.000    0.500    0.000    0.000    0.000    0.000 
#
# Total GULP energy -178316.771753 kJ/mol
# GULP energy per Si atom -5572.399117 kJ/mol
# Density = 2.308995 g / cm^3
# Si number density = 23.142624 Si / 1000 Ang^3
#
#
#
# Elastic Constant Matrix: (Units=GPa)
#
#
# Indices 1 2 3 4 5 6 
#
# 1 103.4258 51.4233 74.5393 0.0000 0.0000 0.0000
# 2 51.4233 103.4209 74.5402 0.0000 0.0000 0.0000
# 3 74.5393 74.5402 163.6106 0.0000 0.0000 0.0000
# 4 0.0000 0.0000 0.0000 31.8912 0.0000 0.0000
# 5 0.0000 0.0000 0.0000 0.0000 31.8914 0.0000
# 6 0.0000 0.0000 0.0000 0.0000 0.0000 39.6540
#
#
#
# Elastic Compliance Matrix: (Units=1/GPa)
#
#
# Indices 1 2 3 4 5 6 
#
# 1 0.015367 -0.003863 -0.005241 0.000000 0.000000 0.000000
# 2 -0.003863 0.015368 -0.005241 0.000000 0.000000 0.000000
# 3 -0.005241 -0.005241 0.010888 0.000000 0.000000 0.000000
# 4 0.000000 0.000000 0.000000 0.031357 0.000000 0.000000
# 5 0.000000 0.000000 0.000000 0.000000 0.031356 0.000000
# 6 0.000000 0.000000 0.000000 0.000000 0.000000 0.025218
#
#
# Mechanical properties :
#
#
# Convention : Reuss Voigt Hill
#
# Bulk Modulus (GPa) = 77.33291 85.71811 81.52551
# Shear Modulus (GPa) = 30.75881 32.01762 31.38822
#
# Velocity S-wave (km/s) = 3.64963 3.72357 3.68679
# Velocity P-wave (km/s) = 7.15878 7.45695 7.30938
#
# Compressibility (1/GPa) = 0.01293111
#
# Stress axis : x y z
#
# Youngs Moduli (GPa) = 65.07584 65.07051 91.84698
#
# Poissons Ratio (x) = 0.25140 0.48135
# Poissons Ratio (y) = 0.25142 0.48141
# Poissons Ratio (z) = 0.34105 0.34106
#
# Static dielectric constant tensor:
#      x y z
#    x 1.942050 0.000000 0.000000 
#    y 0.000000 1.942050 0.000000 
#    z 0.000000 0.000000 1.918310 
# 
# From -- ./inp_files/6028.got.cif
#   From: 2010.05.17/outbox.cif.g08.bks.cpg/sg121_4_cif.got.tgz:6028.got - 2010.05.20 11:32:06.
