data_PCOD9560853
_publ_section_title
;
Structure prediction by ZEFSAII (Michael W. Deem and Ramdas Pophale) SiO2 
 PCOD9560853
Probable space group: I -4 2 D
;
_chemical_formula_sum "Si O2"
_cell_formula_units_Z 88
_cell_length_a 11.506848
_cell_length_b 11.506848
_cell_length_c 29.243329
_cell_angle_alpha 90.000000
_cell_angle_beta 90.000000
_cell_angle_gamma 90.000000
_cell_volume 3872.037573
_symmetry_space_group_name_H-M "I -4 2 D"
_symmetry_group_IT_number 122
_symmetry_cell_setting 'tetragonal'
loop_
_space_group_symop_operation_xyz
x,y,z
y,-x,-z
-x,-y,z
-y,x,-z
x,1/2-y,1/4-z
-x,1/2+y,1/4-z
-y,1/2-x,1/4+z
y,1/2+x,1/4+z
1/2+x,1/2+y,1/2+z
1/2+y,1/2-x,1/2-z
1/2-x,1/2-y,1/2+z
1/2-y,1/2+x,1/2-z
1/2+x,-y,3/4-z
1/2-x,y,3/4-z
1/2-y,-x,3/4+z
1/2+y,x,3/4+z
loop_
_atom_site_type_symbol
_atom_site_label
_atom_site_fract_x
_atom_site_fract_y
_atom_site_fract_z
Si Si1 0.092120 0.279022 0.708442
Si Si2 0.750000 0.250465 0.375000
Si Si3 0.500000 0.000000 0.345256
Si Si4 0.747094 0.250000 0.625000
Si Si5 0.209431 0.357964 0.974853
Si Si6 0.499726 0.735780 0.381828
Si Si7 0.536491 0.825854 0.765016
O O1 0.167820 0.224552 0.668185
O O2 0.022477 0.387201 0.685998
O O3 0.174668 0.324546 0.747965
O O4 0.994882 0.192431 0.726140
O O5 0.625269 0.305766 0.362386
O O6 0.490545 0.123625 0.372001
O O7 0.817257 0.277586 0.578065
O O8 0.686923 0.374918 0.634645
O O9 0.105811 0.288066 0.998578
O O10 0.492133 0.699062 0.434461
O O11 0.430741 0.870045 0.734536
#
# Coordination Sequence:
#
# PCOD9560853 Si02
#       7
#    16   8   8   8  16  16  16
#     4  11  21  35  59 104 147 175 223 295 365 447
#     4  10  23  36  60 107 144 179 228 300 363 456
#     4  10  20  35  64 106 148 182 222 292 394 468
#     4  10  21  40  58  97 142 197 226 278 363 466
#     4  11  22  37  65  99 138 194 226 292 369 440
#     4  10  21  37  67  95 141 183 234 288 373 443
#     4  10  23  45  66  87 125 191 253 293 344 435
#
# _framework density 22.727050999999999
#
# number of rings (size 3 to 8) (size 9 to 14) (size 15 to 20)
#    0.000    1.636    1.818    2.727   10.182    0.000 
#    0.000    0.000    0.000   56.727    0.000    0.000 
#    0.000    0.000    0.000    0.000    0.000    0.000 
#
# Total GULP energy -245391.168566 kJ/mol
# GULP energy per Si atom -5577.072013 kJ/mol
# Density = 2.267532 g / cm^3
# Si number density = 22.727051 Si / 1000 Ang^3
#
#
#
# Elastic Constant Matrix: (Units=GPa)
#
#
# Indices 1 2 3 4 5 6 
#
# 1 91.7458 22.5251 17.5965 0.0000 0.0000 0.0000
# 2 22.5251 91.7458 17.5965 0.0000 0.0000 0.0000
# 3 17.5965 17.5965 73.1495 0.0000 0.0000 0.0000
# 4 0.0000 0.0000 0.0000 31.4949 0.0000 0.0000
# 5 0.0000 0.0000 0.0000 0.0000 31.4949 0.0000
# 6 0.0000 0.0000 0.0000 0.0000 0.0000 24.2094
#
#
#
# Elastic Compliance Matrix: (Units=1/GPa)
#
#
# Indices 1 2 3 4 5 6 
#
# 1 0.011949 -0.002498 -0.002274 0.000000 0.000000 0.000000
# 2 -0.002498 0.011949 -0.002274 0.000000 0.000000 0.000000
# 3 -0.002274 -0.002274 0.014764 0.000000 0.000000 0.000000
# 4 0.000000 0.000000 0.000000 0.031751 0.000000 0.000000
# 5 0.000000 0.000000 0.000000 0.000000 0.031751 0.000000
# 6 0.000000 0.000000 0.000000 0.000000 0.000000 0.041306
#
#
# Mechanical properties :
#
#
# Convention : Reuss Voigt Hill
#
# Bulk Modulus (GPa) = 40.69525 41.34190 41.01857
# Shear Modulus (GPa) = 30.16564 30.70136 30.43350
#
# Velocity S-wave (km/s) = 3.64717 3.67941 3.66332
# Velocity P-wave (km/s) = 5.97333 6.02336 5.99840
#
# Compressibility (1/GPa) = 0.02457289
#
# Stress axis : x y z
#
# Youngs Moduli (GPa) = 83.68937 83.68937 67.73015
#
# Poissons Ratio (x) = 0.20902 0.15399
# Poissons Ratio (y) = 0.20902 0.15399
# Poissons Ratio (z) = 0.19027 0.19027
#
# Static dielectric constant tensor:
#      x y z
#    x 1.815260 0.000000 0.000000 
#    y 0.000000 1.815260 0.000000 
#    z 0.000000 0.000000 1.816600 
# 
# From -- ./inp_files/9564.got.cif
#   From: 2010.05.17/outbox.cif.g08.bks.cpg/sg122_5_cif.got.tgz:9564.got - 2010.05.20 11:37:33.
