data_PCOD9560316
_publ_section_title
;
Structure prediction by ZEFSAII (Michael W. Deem and Ramdas Pophale) SiO2 
 PCOD9560316
Probable space group: I -4 2 M
;
_chemical_formula_sum "Si O2"
_cell_formula_units_Z 72
_cell_length_a 14.030382
_cell_length_b 14.030382
_cell_length_c 20.717466
_cell_angle_alpha 90.000000
_cell_angle_beta 90.000000
_cell_angle_gamma 90.000000
_cell_volume 4078.266725
_symmetry_space_group_name_H-M "I -4 2 M"
_symmetry_group_IT_number 121
_symmetry_cell_setting 'tetragonal'
loop_
_space_group_symop_operation_xyz
x,y,z
y,-x,-z
-x,-y,z
-y,x,-z
x,-y,-z
-x,y,-z
-y,-x,z
y,x,z
1/2+x,1/2+y,1/2+z
1/2+y,1/2-x,1/2-z
1/2-x,1/2-y,1/2+z
1/2-y,1/2+x,1/2-z
1/2+x,1/2-y,1/2-z
1/2-x,1/2+y,1/2-z
1/2-y,1/2-x,1/2+z
1/2+y,1/2+x,1/2+z
loop_
_atom_site_type_symbol
_atom_site_label
_atom_site_fract_x
_atom_site_fract_y
_atom_site_fract_z
Si Si1 0.454946 0.101387 0.388611
Si Si2 0.928910 0.223699 0.382057
Si Si3 0.377060 0.777368 0.343680
Si Si4 0.769234 0.612860 0.805434
Si Si5 0.000000 0.343457 0.500000
O O1 0.536684 0.181845 0.387283
O O2 0.371933 0.125552 0.338226
O O3 0.500000 0.000000 0.367145
O O4 0.406642 0.072927 0.457155
O O5 0.875852 0.124149 0.389342
O O6 0.858517 0.295644 0.344733
O O7 0.027956 0.219318 0.344774
O O8 0.945757 0.276059 0.449947
O O9 0.320913 0.679088 0.361279
O O10 0.412478 0.772028 0.270060
O O11 0.708512 0.708512 0.811477
#
# Coordination Sequence:
#
# PCOD9560316 Si02
#       5
#    16  16  16  16   8
#     4  11  20  33  59  80 109 148 190 236 283 329
#     4  10  21  37  57  83 117 151 184 229 289 345
#     4  10  20  34  54  83 113 145 187 234 283 333
#     4  10  21  35  54  85 116 144 187 233 280 344
#     4  10  21  34  54  87 112 148 195 234 269 336
#
# _framework density 17.654558000000002
#
# number of rings (size 3 to 8) (size 9 to 14) (size 15 to 20)
#    0.000    1.778    4.444    1.667    0.000    4.000 
#    0.000    0.000    0.000    2.000    0.000    0.000 
#    0.000    0.000    0.000    0.000    0.000    0.000 
#
# Total GULP energy -200697.696328 kJ/mol
# GULP energy per Si atom -5574.936009 kJ/mol
# Density = 1.761438 g / cm^3
# Si number density = 17.654558 Si / 1000 Ang^3
#
#
#
# Elastic Constant Matrix: (Units=GPa)
#
#
# Indices 1 2 3 4 5 6 
#
# 1 64.2951 28.7241 31.0582 0.0000 0.0000 0.0000
# 2 28.7241 64.2982 31.0595 0.0000 0.0000 0.0000
# 3 31.0582 31.0595 69.5864 0.0000 0.0000 0.0000
# 4 0.0000 0.0000 0.0000 20.5616 0.0000 0.0000
# 5 0.0000 0.0000 0.0000 0.0000 20.5606 0.0000
# 6 0.0000 0.0000 0.0000 0.0000 0.0000 39.9529
#
#
#
# Elastic Compliance Matrix: (Units=1/GPa)
#
#
# Indices 1 2 3 4 5 6 
#
# 1 0.021714 -0.006398 -0.006836 0.000000 0.000000 0.000000
# 2 -0.006398 0.021713 -0.006836 0.000000 0.000000 0.000000
# 3 -0.006836 -0.006836 0.020473 0.000000 0.000000 0.000000
# 4 0.000000 0.000000 0.000000 0.048634 0.000000 0.000000
# 5 0.000000 0.000000 0.000000 0.000000 0.048637 0.000000
# 6 0.000000 0.000000 0.000000 0.000000 0.000000 0.025030
#
#
# Mechanical properties :
#
#
# Convention : Reuss Voigt Hill
#
# Bulk Modulus (GPa) = 42.08738 42.20704 42.14721
# Shear Modulus (GPa) = 21.34390 23.37086 22.35738
#
# Velocity S-wave (km/s) = 3.48080 3.64233 3.56248
# Velocity P-wave (km/s) = 6.32817 6.45352 6.39115
#
# Compressibility (1/GPa) = 0.02376009
#
# Stress axis : x y z
#
# Youngs Moduli (GPa) = 46.05385 46.05570 48.84580
#
# Poissons Ratio (x) = 0.29468 0.33389
# Poissons Ratio (y) = 0.29466 0.33390
# Poissons Ratio (z) = 0.31480 0.31482
#
# Static dielectric constant tensor:
#      x y z
#    x 1.607580 0.000000 0.000000 
#    y 0.000000 1.607570 0.000000 
#    z 0.000000 0.000000 1.633410 
# 
# From -- ./inp_files/5184.got.cif
#   From: 2010.05.17/outbox.cif.g08.bks.cpg/sg121_3_cif.got.tgz:5184.got - 2010.05.20 11:32:06.
