data_PCOD9560827
_publ_section_title
;
Structure prediction by ZEFSAII (Michael W. Deem and Ramdas Pophale) SiO2 
 PCOD9560827
Probable space group: I -4 2 D
;
_chemical_formula_sum "Si O2"
_cell_formula_units_Z 52
_cell_length_a 19.632533
_cell_length_b 19.632533
_cell_length_c 5.321328
_cell_angle_alpha 90.000000
_cell_angle_beta 90.000000
_cell_angle_gamma 90.000000
_cell_volume 2051.033252
_symmetry_space_group_name_H-M "I -4 2 D"
_symmetry_group_IT_number 122
_symmetry_cell_setting 'tetragonal'
loop_
_space_group_symop_operation_xyz
x,y,z
y,-x,-z
-x,-y,z
-y,x,-z
x,1/2-y,1/4-z
-x,1/2+y,1/4-z
-y,1/2-x,1/4+z
y,1/2+x,1/4+z
1/2+x,1/2+y,1/2+z
1/2+y,1/2-x,1/2-z
1/2-x,1/2-y,1/2+z
1/2-y,1/2+x,1/2-z
1/2+x,-y,3/4-z
1/2-x,y,3/4-z
1/2-y,-x,3/4+z
1/2+y,x,3/4+z
loop_
_atom_site_type_symbol
_atom_site_label
_atom_site_fract_x
_atom_site_fract_y
_atom_site_fract_z
Si Si1 0.171063 0.603566 0.720446
Si Si2 0.137758 0.463430 0.525988
Si Si3 0.000000 0.500000 0.250000
Si Si4 0.675688 0.669612 0.465416
O O1 0.180506 0.526820 0.627460
O O2 0.089234 0.616464 0.756548
O O3 0.187930 0.655970 0.497225
O O4 0.193602 0.620430 0.006356
O O5 0.068573 0.491946 0.408510
O O6 0.172426 0.412813 0.323884
O O7 0.750000 0.691114 0.375000
#
# Coordination Sequence:
#
# PCOD9560827 Si02
#       4
#    16  16   4  16
#     4  10  20  31  49  70  98 136 167 204 240 299
#     4  10  20  28  51  71 106 129 169 195 251 296
#     4  12  16  34  44  86 104 138 156 206 248 306
#     4  10  22  34  46  66 105 143 165 203 250 302
#
# _framework density 25.353076000000001
#
# number of rings (size 3 to 8) (size 9 to 14) (size 15 to 20)
#    1.846    0.000    3.077    2.769    4.308    0.000 
#    0.000    0.000    0.000    0.000    0.000    0.000 
#    0.000    4.923    0.000    0.000    0.000    0.000 
#
# Total GULP energy -145338.032459 kJ/mol
# GULP energy per Si atom -5589.924325 kJ/mol
# Density = 2.529537 g / cm^3
# Si number density = 25.353076 Si / 1000 Ang^3
#
#
#
# Elastic Constant Matrix: (Units=GPa)
#
#
# Indices 1 2 3 4 5 6 
#
# 1 88.4142 -3.7501 45.7913 0.0000 0.0000 0.0000
# 2 -3.7501 88.4142 45.7913 0.0000 0.0000 0.0000
# 3 45.7913 45.7913 166.5864 0.0000 0.0000 0.0000
# 4 0.0000 0.0000 0.0000 50.1233 0.0000 0.0000
# 5 0.0000 0.0000 0.0000 0.0000 50.1233 0.0000
# 6 0.0000 0.0000 0.0000 0.0000 0.0000 37.5709
#
#
#
# Elastic Compliance Matrix: (Units=1/GPa)
#
#
# Indices 1 2 3 4 5 6 
#
# 1 0.013830 0.002980 -0.004621 0.000000 0.000000 0.000000
# 2 0.002980 0.013830 -0.004621 0.000000 0.000000 0.000000
# 3 -0.004621 -0.004621 0.008543 0.000000 0.000000 0.000000
# 4 0.000000 0.000000 0.000000 0.019951 0.000000 0.000000
# 5 0.000000 0.000000 0.000000 0.000000 0.019951 0.000000
# 6 0.000000 0.000000 0.000000 0.000000 0.000000 0.026616
#
#
# Mechanical properties :
#
#
# Convention : Reuss Voigt Hill
#
# Bulk Modulus (GPa) = 42.23009 57.67553 49.95281
# Shear Modulus (GPa) = 40.60511 44.60230 42.60370
#
# Velocity S-wave (km/s) = 4.00632 4.19889 4.10373
# Velocity P-wave (km/s) = 6.17202 6.80484 6.49614
#
# Compressibility (1/GPa) = 0.02367980
#
# Stress axis : x y z
#
# Youngs Moduli (GPa) = 72.30721 72.30721 117.05325
#
# Poissons Ratio (x) = -0.21545 0.54086
# Poissons Ratio (y) = -0.21545 0.54086
# Poissons Ratio (z) = 0.33410 0.33410
#
# Static dielectric constant tensor:
#      x y z
#    x 2.170600 0.000000 0.000000 
#    y 0.000000 2.170600 0.000000 
#    z 0.000000 0.000000 1.938240 
# 
# From -- ./inp_files/970.got.cif
#   From: 2010.05.17/outbox.cif.g08.bks.cpg/sg122_1_cif.got.tgz:970.got - 2010.05.20 11:37:33.
