data_PCOD9560210
_publ_section_title
;
Structure prediction by ZEFSAII (Michael W. Deem and Ramdas Pophale) SiO2 
 PCOD9560210
Probable space group: I -4 2 M
;
_chemical_formula_sum "Si O2"
_cell_formula_units_Z 112
_cell_length_a 14.850649
_cell_length_b 14.850649
_cell_length_c 24.216540
_cell_angle_alpha 90.000000
_cell_angle_beta 90.000000
_cell_angle_gamma 90.000000
_cell_volume 5340.758733
_symmetry_space_group_name_H-M "I -4 2 M"
_symmetry_group_IT_number 121
_symmetry_cell_setting 'tetragonal'
loop_
_space_group_symop_operation_xyz
x,y,z
y,-x,-z
-x,-y,z
-y,x,-z
x,-y,-z
-x,y,-z
-y,-x,z
y,x,z
1/2+x,1/2+y,1/2+z
1/2+y,1/2-x,1/2-z
1/2-x,1/2-y,1/2+z
1/2-y,1/2+x,1/2-z
1/2+x,1/2-y,1/2-z
1/2-x,1/2+y,1/2-z
1/2-y,1/2-x,1/2+z
1/2+y,1/2+x,1/2+z
loop_
_atom_site_type_symbol
_atom_site_label
_atom_site_fract_x
_atom_site_fract_y
_atom_site_fract_z
Si Si1 0.521525 0.666828 0.237257
Si Si2 0.113105 0.585028 0.115210
Si Si3 0.809822 0.339450 0.722204
Si Si4 0.189241 0.953948 0.617131
Si Si5 0.602508 0.746214 0.682159
Si Si6 0.076327 0.614059 0.911909
Si Si7 0.091844 0.237468 0.535239
O O1 0.573578 0.573578 0.230021
O O2 0.595654 0.744092 0.244186
O O3 0.461490 0.685119 0.183378
O O4 0.468196 0.673907 0.294873
O O5 0.110284 0.645226 0.170314
O O6 0.217639 0.594218 0.098333
O O7 0.098793 0.477524 0.122759
O O8 0.030306 0.608001 0.074248
O O9 0.747685 0.252316 0.705536
O O10 0.886240 0.310907 0.765157
O O11 0.102502 0.897499 0.598741
O O12 0.198628 0.054232 0.593552
O O13 0.697320 0.697320 0.674721
O O14 0.582560 0.800455 0.627574
O O15 0.156956 0.615095 0.956437
O O16 0.175436 0.175436 0.517890
O O17 0.000000 0.227516 0.500000
#
# Coordination Sequence:
#
# PCOD9560210 Si02
#       7
#    16  16  16  16  16  16  16
#     4  11  22  34  51  80 119 164 215 267 313 369
#     4  10  19  35  54  80 111 148 199 247 302 359
#     4  10  19  32  49  73 109 155 203 253 302 353
#     4  11  22  38  58  84 121 162 208 262 321 380
#     4  11  21  33  50  76 114 161 210 258 306 367
#     4  10  22  37  57  82 115 151 198 253 312 369
#     4  11  24  43  67  94 121 155 203 259 321 387
#
# _framework density 20.970803
#
# number of rings (size 3 to 8) (size 9 to 14) (size 15 to 20)
#    0.000    1.429    2.857    3.857    0.000    3.857 
#    0.000    7.143    0.000    0.000    0.000    0.000 
#    0.000    0.000    0.000    0.000    0.000   40.571 
#
# Total GULP energy -312220.375498 kJ/mol
# GULP energy per Si atom -5575.363848 kJ/mol
# Density = 2.092307 g / cm^3
# Si number density = 20.970803 Si / 1000 Ang^3
#
#
#
# Elastic Constant Matrix: (Units=GPa)
#
#
# Indices 1 2 3 4 5 6 
#
# 1 73.4615 56.6232 23.2058 0.0000 0.0000 0.0000
# 2 56.6232 73.4582 23.2052 0.0000 0.0000 0.0000
# 3 23.2058 23.2052 41.3272 0.0000 0.0000 0.0000
# 4 0.0000 0.0000 0.0000 26.7602 0.0000 0.0000
# 5 0.0000 0.0000 0.0000 0.0000 26.7601 0.0000
# 6 0.0000 0.0000 0.0000 0.0000 0.0000 30.8258
#
#
#
# Elastic Compliance Matrix: (Units=1/GPa)
#
#
# Indices 1 2 3 4 5 6 
#
# 1 0.034503 -0.024891 -0.005398 0.000000 0.000000 0.000000
# 2 -0.024891 0.034505 -0.005398 0.000000 0.000000 0.000000
# 3 -0.005398 -0.005398 0.030259 0.000000 0.000000 0.000000
# 4 0.000000 0.000000 0.000000 0.037369 0.000000 0.000000
# 5 0.000000 0.000000 0.000000 0.000000 0.037369 0.000000
# 6 0.000000 0.000000 0.000000 0.000000 0.000000 0.032440
#
#
# Mechanical properties :
#
#
# Convention : Reuss Voigt Hill
#
# Bulk Modulus (GPa) = 35.85008 43.81281 39.83145
# Shear Modulus (GPa) = 17.41457 22.55006 19.98231
#
# Velocity S-wave (km/s) = 2.88483 3.28275 3.09020
# Velocity P-wave (km/s) = 5.31306 5.94190 5.63626
#
# Compressibility (1/GPa) = 0.02789394
#
# Stress axis : x y z
#
# Youngs Moduli (GPa) = 28.98291 28.98164 33.04796
#
# Poissons Ratio (x) = 0.72137 0.17839
# Poissons Ratio (y) = 0.72140 0.17839
# Poissons Ratio (z) = 0.15645 0.15644
#
# Static dielectric constant tensor:
#      x y z
#    x 1.807230 0.000000 0.000000 
#    y 0.000000 1.807230 0.000000 
#    z 0.000000 0.000000 1.805560 
# 
# From -- ./inp_files/7760.got.cif
#   From: 2010.05.17/outbox.cif.g08.bks.cpg/sg121_4_cif.got.tgz:7760.got - 2010.05.20 11:32:06.
