data_PCOD9560856
_publ_section_title
;
Structure prediction by ZEFSAII (Michael W. Deem and Ramdas Pophale) SiO2 
 PCOD9560856
Probable space group: I -4 2 D
;
_chemical_formula_sum "Si O2"
_cell_formula_units_Z 56
_cell_length_a 15.897729
_cell_length_b 15.897729
_cell_length_c 12.695606
_cell_angle_alpha 90.000000
_cell_angle_beta 90.000000
_cell_angle_gamma 90.000000
_cell_volume 3208.659370
_symmetry_space_group_name_H-M "I -4 2 D"
_symmetry_group_IT_number 122
_symmetry_cell_setting 'tetragonal'
loop_
_space_group_symop_operation_xyz
x,y,z
y,-x,-z
-x,-y,z
-y,x,-z
x,1/2-y,1/4-z
-x,1/2+y,1/4-z
-y,1/2-x,1/4+z
y,1/2+x,1/4+z
1/2+x,1/2+y,1/2+z
1/2+y,1/2-x,1/2-z
1/2-x,1/2-y,1/2+z
1/2-y,1/2+x,1/2-z
1/2+x,-y,3/4-z
1/2-x,y,3/4-z
1/2-y,-x,3/4+z
1/2+y,x,3/4+z
loop_
_atom_site_type_symbol
_atom_site_label
_atom_site_fract_x
_atom_site_fract_y
_atom_site_fract_z
Si Si1 0.624118 0.451106 0.960390
Si Si2 0.250000 0.115106 0.875000
Si Si3 0.917089 0.815209 0.772458
Si Si4 0.630541 0.979346 0.720736
O O1 0.633408 0.432262 0.835694
O O2 0.548217 0.398246 0.012958
O O3 0.716100 0.428535 0.003790
O O4 0.174806 0.167004 0.821039
O O5 0.292475 0.058665 0.784848
O O6 0.984847 0.845019 0.858080
O O7 0.557330 0.909837 0.715265
#
# Coordination Sequence:
#
# PCOD9560856 Si02
#       4
#    16   8  16  16
#     4  10  22  38  58  81 111 152 190 231 283 344
#     4  10  20  36  56  80 110 142 182 234 288 336
#     4  10  21  37  56  83 113 142 189 237 282 339
#     4   9  19  34  54  79 107 141 178 224 279 342
#
# _framework density 17.452772
#
# number of rings (size 3 to 8) (size 9 to 14) (size 15 to 20)
#    0.000    2.286    0.000    1.714    0.000   13.714 
#    0.000   14.286    0.000    0.000    0.000    0.000 
#    0.000    0.000    0.000    0.000    0.000    0.000 
#
# Total GULP energy -156166.437616 kJ/mol
# GULP energy per Si atom -5577.372772 kJ/mol
# Density = 1.741305 g / cm^3
# Si number density = 17.452772 Si / 1000 Ang^3
#
#
#
# Elastic Constant Matrix: (Units=GPa)
#
#
# Indices 1 2 3 4 5 6 
#
# 1 98.3228 50.4008 69.5059 0.0000 0.0000 0.0000
# 2 50.4008 98.3228 69.5059 0.0000 0.0000 0.0000
# 3 69.5059 69.5059 137.3728 0.0000 0.0000 0.0000
# 4 0.0000 0.0000 0.0000 22.3998 0.0000 0.0000
# 5 0.0000 0.0000 0.0000 0.0000 22.3998 0.0000
# 6 0.0000 0.0000 0.0000 0.0000 0.0000 17.3120
#
#
#
# Elastic Compliance Matrix: (Units=1/GPa)
#
#
# Indices 1 2 3 4 5 6 
#
# 1 0.016812 -0.004055 -0.006455 0.000000 0.000000 0.000000
# 2 -0.004055 0.016812 -0.006455 0.000000 0.000000 0.000000
# 3 -0.006455 -0.006455 0.013811 0.000000 0.000000 0.000000
# 4 0.000000 0.000000 0.000000 0.044643 0.000000 0.000000
# 5 0.000000 0.000000 0.000000 0.000000 0.044643 0.000000
# 6 0.000000 0.000000 0.000000 0.000000 0.000000 0.057763
#
#
# Mechanical properties :
#
#
# Convention : Reuss Voigt Hill
#
# Bulk Modulus (GPa) = 74.03756 79.20486 76.62121
# Shear Modulus (GPa) = 21.46694 22.06269 21.76481
#
# Velocity S-wave (km/s) = 3.51094 3.55933 3.53522
# Velocity P-wave (km/s) = 7.67785 7.89764 7.78852
#
# Compressibility (1/GPa) = 0.01350666
#
# Stress axis : x y z
#
# Youngs Moduli (GPa) = 59.48083 59.48083 72.40561
#
# Poissons Ratio (x) = 0.24120 0.46735
# Poissons Ratio (y) = 0.24120 0.46735
# Poissons Ratio (z) = 0.38393 0.38393
#
# Static dielectric constant tensor:
#      x y z
#    x 1.578920 0.000000 0.000000 
#    y 0.000000 1.578920 0.000000 
#    z 0.000000 0.000000 1.581630 
# 
# From -- ./inp_files/3905.got.cif
#   From: 2010.05.17/outbox.cif.g08.bks.cpg/sg122_2_cif.got.tgz:3905.got - 2010.05.20 11:37:33.
