data_PCOD9560150
_publ_section_title
;
Structure prediction by ZEFSAII (Michael W. Deem and Ramdas Pophale) SiO2 
 PCOD9560150
Probable space group: I -4 2 M
;
_chemical_formula_sum "Si O2"
_cell_formula_units_Z 96
_cell_length_a 23.993167
_cell_length_b 23.993167
_cell_length_c 7.666632
_cell_angle_alpha 90.000000
_cell_angle_beta 90.000000
_cell_angle_gamma 90.000000
_cell_volume 4413.465857
_symmetry_space_group_name_H-M "I -4 2 M"
_symmetry_group_IT_number 121
_symmetry_cell_setting 'tetragonal'
loop_
_space_group_symop_operation_xyz
x,y,z
y,-x,-z
-x,-y,z
-y,x,-z
x,-y,-z
-x,y,-z
-y,-x,z
y,x,z
1/2+x,1/2+y,1/2+z
1/2+y,1/2-x,1/2-z
1/2-x,1/2-y,1/2+z
1/2-y,1/2+x,1/2-z
1/2+x,1/2-y,1/2-z
1/2-x,1/2+y,1/2-z
1/2-y,1/2-x,1/2+z
1/2+y,1/2+x,1/2+z
loop_
_atom_site_type_symbol
_atom_site_label
_atom_site_fract_x
_atom_site_fract_y
_atom_site_fract_z
Si Si1 0.997012 0.590410 0.703686
Si Si2 0.525324 0.385479 0.303520
Si Si3 0.810468 0.810468 0.599061
Si Si4 0.067701 0.195509 0.700105
Si Si5 0.898286 0.218160 0.894419
Si Si6 0.990775 0.713715 0.199050
Si Si7 0.276936 0.276936 0.492895
O O1 0.944712 0.551116 0.742182
O O2 0.000000 0.600952 0.500000
O O3 0.995281 0.649602 0.793668
O O4 0.500000 0.392804 0.500000
O O5 0.557773 0.442228 0.251843
O O6 0.472978 0.358587 0.197131
O O7 0.572890 0.336761 0.308858
O O8 0.877212 0.803359 0.583916
O O9 0.770304 0.770304 0.490104
O O10 0.792344 0.792344 0.794527
O O11 0.029446 0.249805 0.677197
O O12 0.089112 0.202856 0.900720
O O13 0.927160 0.268682 0.788823
O O14 0.834439 0.236591 0.907419
O O15 0.000000 0.734015 0.000000
#
# Coordination Sequence:
#
# PCOD9560150 Si02
#       7
#    16  16   8  16  16  16   8
#     4  11  22  37  56  79 106 138 173 224 277 333
#     4   9  15  24  42  72 107 143 176 217 269 332
#     4  10  20  34  49  72 102 146 179 226 272 322
#     4   8  17  30  47  69 108 145 172 222 280 317
#     4   8  15  29  49  70  99 138 180 219 266 319
#     4   9  17  33  53  76 102 141 178 216 272 325
#     4  10  18  32  52  70  98 138 186 222 264 322
#
# _framework density 21.751612999999999
#
# number of rings (size 3 to 8) (size 9 to 14) (size 15 to 20)
#    0.000    2.833    0.833    4.000    3.500    1.500 
#    0.000    5.000    0.000    0.000    0.000    0.000 
#    0.000    0.000    0.000   16.500    0.000    0.333 
#
# Total GULP energy -267239.167443 kJ/mol
# GULP energy per Si atom -5567.482655 kJ/mol
# Density = 2.170211 g / cm^3
# Si number density = 21.751613 Si / 1000 Ang^3
#
#
#
# Elastic Constant Matrix: (Units=GPa)
#
#
# Indices 1 2 3 4 5 6 
#
# 1 107.9039 26.9691 7.3526 0.0000 0.0000 0.0000
# 2 26.9691 107.9050 7.3532 0.0000 0.0000 0.0000
# 3 7.3526 7.3532 35.0949 0.0000 0.0000 0.0000
# 4 0.0000 0.0000 0.0000 2.8011 0.0000 0.0000
# 5 0.0000 0.0000 0.0000 0.0000 2.8010 0.0000
# 6 0.0000 0.0000 0.0000 0.0000 0.0000 20.0694
#
#
#
# Elastic Compliance Matrix: (Units=1/GPa)
#
#
# Indices 1 2 3 4 5 6 
#
# 1 0.009972 -0.002384 -0.001590 0.000000 0.000000 0.000000
# 2 -0.002384 0.009972 -0.001590 0.000000 0.000000 0.000000
# 3 -0.001590 -0.001590 0.029160 0.000000 0.000000 0.000000
# 4 0.000000 0.000000 0.000000 0.357000 0.000000 0.000000
# 5 0.000000 0.000000 0.000000 0.000000 0.357021 0.000000
# 6 0.000000 0.000000 0.000000 0.000000 0.000000 0.049827
#
#
# Mechanical properties :
#
#
# Convention : Reuss Voigt Hill
#
# Bulk Modulus (GPa) = 26.33190 37.13929 31.73559
# Shear Modulus (GPa) = 5.97559 19.08288 12.52924
#
# Velocity S-wave (km/s) = 1.65926 2.96515 2.40263
# Velocity P-wave (km/s) = 3.97528 5.36975 4.72425
#
# Compressibility (1/GPa) = 0.03797676
#
# Stress axis : x y z
#
# Youngs Moduli (GPa) = 100.28422 100.28506 34.29317
#
# Poissons Ratio (x) = 0.23907 0.05451
# Poissons Ratio (y) = 0.23907 0.05452
# Poissons Ratio (z) = 0.15942 0.15944
#
# Static dielectric constant tensor:
#      x y z
#    x 1.863700 0.000000 0.000000 
#    y 0.000000 1.863700 0.000000 
#    z 0.000000 0.000000 1.878840 
# 
# From -- ./inp_files/1981.got.cif
#   From: 2010.05.17/outbox.cif.g08.bks.cpg/sg121_1_cif.got.tgz:1981.got - 2010.05.20 11:32:06.
