data_PCOD9560839
_publ_section_title
;
Structure prediction by ZEFSAII (Michael W. Deem and Ramdas Pophale) SiO2 
 PCOD9560839
Probable space group: I -4 2 D
;
_chemical_formula_sum "Si O2"
_cell_formula_units_Z 112
_cell_length_a 16.726032
_cell_length_b 16.726032
_cell_length_c 21.340153
_cell_angle_alpha 90.000000
_cell_angle_beta 90.000000
_cell_angle_gamma 90.000000
_cell_volume 5970.124329
_symmetry_space_group_name_H-M "I -4 2 D"
_symmetry_group_IT_number 122
_symmetry_cell_setting 'tetragonal'
loop_
_space_group_symop_operation_xyz
x,y,z
y,-x,-z
-x,-y,z
-y,x,-z
x,1/2-y,1/4-z
-x,1/2+y,1/4-z
-y,1/2-x,1/4+z
y,1/2+x,1/4+z
1/2+x,1/2+y,1/2+z
1/2+y,1/2-x,1/2-z
1/2-x,1/2-y,1/2+z
1/2-y,1/2+x,1/2-z
1/2+x,-y,3/4-z
1/2-x,y,3/4-z
1/2-y,-x,3/4+z
1/2+y,x,3/4+z
loop_
_atom_site_type_symbol
_atom_site_label
_atom_site_fract_x
_atom_site_fract_y
_atom_site_fract_z
Si Si1 0.584010 0.887712 0.406664
Si Si2 0.165646 0.411066 0.382952
Si Si3 0.983070 0.383532 0.718733
Si Si4 0.549123 0.426053 0.746689
Si Si5 0.467113 0.801677 0.000395
Si Si6 0.785112 0.023598 0.116753
Si Si7 0.133323 0.488833 0.257286
O O1 0.599291 0.948726 0.350167
O O2 0.502046 0.908192 0.442287
O O3 0.654561 0.898243 0.458661
O O4 0.568979 0.799397 0.380216
O O5 0.250000 0.367489 0.375000
O O6 0.148316 0.448997 0.450248
O O7 0.090980 0.352684 0.374825
O O8 0.165211 0.474801 0.326953
O O9 0.923486 0.431031 0.766488
O O10 0.982130 0.288624 0.728188
O O11 0.500000 0.500000 0.714826
O O12 0.637459 0.458467 0.761383
O O13 0.462099 0.796285 0.924526
O O14 0.801729 0.988438 0.048014
O O15 0.070289 0.417589 0.244366
#
# Coordination Sequence:
#
# PCOD9560839 Si02
#       7
#    16  16  16  16  16  16  16
#     4  11  22  40  64  90 121 167 206 258 317 382
#     4  10  20  34  54  87 115 156 198 248 303 369
#     4  11  24  40  63  89 120 157 209 262 313 374
#     4   9  21  35  62  87 117 156 205 249 300 374
#     4  10  22  38  60  90 117 158 205 254 311 369
#     4  10  21  39  55  87 123 156 198 262 307 369
#     4   9  19  32  58  83 114 154 201 250 306 370
#
# _framework density 18.760078
#
# number of rings (size 3 to 8) (size 9 to 14) (size 15 to 20)
#    0.000    2.000    1.429    1.286   14.000    1.143 
#    0.000    0.000    0.000    0.000    0.000    0.000 
#    0.000    0.000    0.000    0.000    0.000    0.000 
#
# Total GULP energy -312049.147145 kJ/mol
# GULP energy per Si atom -5572.306199 kJ/mol
# Density = 1.871738 g / cm^3
# Si number density = 18.760078 Si / 1000 Ang^3
#
#
#
# Elastic Constant Matrix: (Units=GPa)
#
#
# Indices 1 2 3 4 5 6 
#
# 1 91.4205 9.7858 39.5426 0.0000 0.0000 0.0000
# 2 9.7858 91.4205 39.5426 0.0000 0.0000 0.0000
# 3 39.5426 39.5426 125.3991 0.0000 0.0000 0.0000
# 4 0.0000 0.0000 0.0000 29.0032 0.0000 0.0000
# 5 0.0000 0.0000 0.0000 0.0000 29.0032 0.0000
# 6 0.0000 0.0000 0.0000 0.0000 0.0000 8.5766
#
#
#
# Elastic Compliance Matrix: (Units=1/GPa)
#
#
# Indices 1 2 3 4 5 6 
#
# 1 0.012681 0.000431 -0.004135 0.000000 0.000000 0.000000
# 2 0.000431 0.012681 -0.004135 0.000000 0.000000 0.000000
# 3 -0.004135 -0.004135 0.010582 0.000000 0.000000 0.000000
# 4 0.000000 0.000000 0.000000 0.034479 0.000000 0.000000
# 5 0.000000 0.000000 0.000000 0.000000 0.034479 0.000000
# 6 0.000000 0.000000 0.000000 0.000000 0.000000 0.116596
#
#
# Mechanical properties :
#
#
# Convention : Reuss Voigt Hill
#
# Bulk Modulus (GPa) = 49.34092 53.99804 51.66948
# Shear Modulus (GPa) = 20.49774 27.94122 24.21948
#
# Velocity S-wave (km/s) = 3.30908 3.86346 3.59696
# Velocity P-wave (km/s) = 6.39985 6.98196 6.69723
#
# Compressibility (1/GPa) = 0.02026716
#
# Stress axis : x y z
#
# Youngs Moduli (GPa) = 78.86019 78.86019 94.49944
#
# Poissons Ratio (x) = -0.03399 0.39071
# Poissons Ratio (y) = -0.03399 0.39071
# Poissons Ratio (z) = 0.32605 0.32605
#
# Static dielectric constant tensor:
#      x y z
#    x 1.656150 0.000000 0.000000 
#    y 0.000000 1.656150 0.000000 
#    z 0.000000 0.000000 1.697070 
# 
# From -- ./inp_files/7448.got.cif
#   From: 2010.05.17/outbox.cif.g08.bks.cpg/sg122_4_cif.got.tgz:7448.got - 2010.05.20 11:37:33.
