data_PCOD9560471
_publ_section_title
;
Structure prediction by ZEFSAII (Michael W. Deem and Ramdas Pophale) SiO2 
 PCOD9560471
Probable space group: I -4 2 M
;
_chemical_formula_sum "Si O2"
_cell_formula_units_Z 64
_cell_length_a 13.688822
_cell_length_b 13.688822
_cell_length_c 16.014421
_cell_angle_alpha 90.000000
_cell_angle_beta 90.000000
_cell_angle_gamma 90.000000
_cell_volume 3000.843826
_symmetry_space_group_name_H-M "I -4 2 M"
_symmetry_group_IT_number 121
_symmetry_cell_setting 'tetragonal'
loop_
_space_group_symop_operation_xyz
x,y,z
y,-x,-z
-x,-y,z
-y,x,-z
x,-y,-z
-x,y,-z
-y,-x,z
y,x,z
1/2+x,1/2+y,1/2+z
1/2+y,1/2-x,1/2-z
1/2-x,1/2-y,1/2+z
1/2-y,1/2+x,1/2-z
1/2+x,1/2-y,1/2-z
1/2-x,1/2+y,1/2-z
1/2-y,1/2-x,1/2+z
1/2+y,1/2+x,1/2+z
loop_
_atom_site_type_symbol
_atom_site_label
_atom_site_fract_x
_atom_site_fract_y
_atom_site_fract_z
Si Si1 0.381257 0.777515 0.668460
Si Si2 0.756475 0.079896 0.750887
Si Si3 0.286115 0.555541 0.911066
Si Si4 0.611437 0.118377 0.498673
O O1 0.323879 0.676122 0.676129
O O2 0.337680 0.851625 0.737039
O O3 0.496085 0.762080 0.681062
O O4 0.351197 0.828852 0.581801
O O5 0.848859 0.151142 0.765325
O O6 0.771530 0.019143 0.664653
O O7 0.379033 0.620968 0.892565
O O8 0.301247 0.500000 0.000000
O O9 0.192453 0.626756 0.926828
O O10 0.500000 0.153437 0.500000
O O11 0.603690 0.000000 0.500000
#
# Coordination Sequence:
#
# PCOD9560471 Si02
#       4
#    16  16  16  16
#     4  11  24  43  65  95 137 176 221 281 337 406
#     4  11  25  43  65 100 137 178 227 278 346 414
#     4  11  21  38  65  96 134 172 220 282 344 403
#     4  10  21  38  62  93 127 170 218 279 338 394
#
# _framework density 21.327335999999999
#
# number of rings (size 3 to 8) (size 9 to 14) (size 15 to 20)
#    0.000    1.250    5.000    2.250    3.500    3.750 
#    0.000    1.250    0.000    0.000    0.000    0.000 
#    0.000    0.000    0.000    0.000    0.000    0.000 
#
# Total GULP energy -178439.648039 kJ/mol
# GULP energy per Si atom -5576.239001 kJ/mol
# Density = 2.127879 g / cm^3
# Si number density = 21.327336 Si / 1000 Ang^3
#
#
#
# Elastic Constant Matrix: (Units=GPa)
#
#
# Indices 1 2 3 4 5 6 
#
# 1 96.8519 48.4264 11.9782 0.0000 0.0000 0.0000
# 2 48.4264 96.8592 11.9771 0.0000 0.0000 0.0000
# 3 11.9782 11.9771 75.6680 0.0000 0.0000 0.0000
# 4 0.0000 0.0000 0.0000 30.1324 0.0000 0.0000
# 5 0.0000 0.0000 0.0000 0.0000 30.1327 0.0000
# 6 0.0000 0.0000 0.0000 0.0000 0.0000 -1.8801
#
#
#
# Elastic Compliance Matrix: (Units=1/GPa)
#
#
# Indices 1 2 3 4 5 6 
#
# 1 0.013859 -0.006791 -0.001119 0.000000 0.000000 0.000000
# 2 -0.006791 0.013858 -0.001119 0.000000 0.000000 0.000000
# 3 -0.001119 -0.001119 0.013570 0.000000 0.000000 0.000000
# 4 0.000000 0.000000 0.000000 0.033187 0.000000 0.000000
# 5 0.000000 0.000000 0.000000 0.000000 0.033187 0.000000
# 6 0.000000 0.000000 0.000000 0.000000 0.000000 -0.531877
#
#
# Mechanical properties :
#
#
# Convention : Reuss Voigt Hill
#
# Bulk Modulus (GPa) = 43.04763 46.01582 44.53172
# Shear Modulus (GPa) = -12.54965 24.81017 6.13026
#
# Velocity S-wave (km/s) = -2.42839 3.41442 1.69724
# Velocity P-wave (km/s) = 3.51643 6.09649 4.97657
#
# Compressibility (1/GPa) = 0.02323008
#
# Stress axis : x y z
#
# Youngs Moduli (GPa) = 72.15673 72.16249 73.69301
#
# Poissons Ratio (x) = 0.49002 0.08246
# Poissons Ratio (y) = 0.48998 0.08243
# Poissons Ratio (z) = 0.08074 0.08072
#
# Static dielectric constant tensor:
#      x y z
#    x 1.770040 0.000000 0.000000 
#    y 0.000000 1.770030 0.000000 
#    z 0.000000 0.000000 1.887620 
# 
# From -- ./inp_files/4040.got.cif
#   From: 2010.05.17/outbox.cif.g08.bks.cpg/sg121_3_cif.got.tgz:4040.got - 2010.05.20 11:32:06.
