data_PCOD9560704
_publ_section_title
;
Structure prediction by ZEFSAII (Michael W. Deem and Ramdas Pophale) SiO2 
 PCOD9560704
Probable space group: I -4 2 D
;
_chemical_formula_sum "Si O2"
_cell_formula_units_Z 112
_cell_length_a 13.942755
_cell_length_b 13.942755
_cell_length_c 31.951713
_cell_angle_alpha 90.000000
_cell_angle_beta 90.000000
_cell_angle_gamma 90.000000
_cell_volume 6211.426331
_symmetry_space_group_name_H-M "I -4 2 D"
_symmetry_group_IT_number 122
_symmetry_cell_setting 'tetragonal'
loop_
_space_group_symop_operation_xyz
x,y,z
y,-x,-z
-x,-y,z
-y,x,-z
x,1/2-y,1/4-z
-x,1/2+y,1/4-z
-y,1/2-x,1/4+z
y,1/2+x,1/4+z
1/2+x,1/2+y,1/2+z
1/2+y,1/2-x,1/2-z
1/2-x,1/2-y,1/2+z
1/2-y,1/2+x,1/2-z
1/2+x,-y,3/4-z
1/2-x,y,3/4-z
1/2-y,-x,3/4+z
1/2+y,x,3/4+z
loop_
_atom_site_type_symbol
_atom_site_label
_atom_site_fract_x
_atom_site_fract_y
_atom_site_fract_z
Si Si1 0.939292 0.790687 0.863370
Si Si2 0.899013 0.747281 0.481012
Si Si3 0.160456 0.478065 0.400993
Si Si4 0.623388 0.259957 0.257235
Si Si5 0.757359 0.923302 0.761451
Si Si6 0.732146 0.390759 0.542538
Si Si7 0.199854 0.346483 0.103309
O O1 0.894791 0.752296 0.819901
O O2 0.926628 0.905595 0.856368
O O3 0.891585 0.765733 0.907316
O O4 0.050205 0.759408 0.866065
O O5 0.847631 0.842203 0.497431
O O6 0.834948 0.659405 0.498541
O O7 0.009029 0.732996 0.493209
O O8 0.250000 0.436602 0.375000
O O9 0.194877 0.477219 0.448952
O O10 0.146410 0.586446 0.386687
O O11 0.678560 0.330488 0.225661
O O12 0.659070 0.287109 0.303619
O O13 0.663696 0.863848 0.776300
O O14 0.735757 0.001670 0.726196
O O15 0.237305 0.250000 0.125000
#
# Coordination Sequence:
#
# PCOD9560704 Si02
#       7
#    16  16  16  16  16  16  16
#     4  10  21  35  56  84 114 153 191 241 284 348
#     4   9  22  39  64  84 111 151 198 242 305 344
#     4  10  17  33  52  79 111 155 193 228 273 346
#     4  10  21  40  61  87 108 156 197 249 293 355
#     4  10  21  34  55  84 121 156 194 234 284 338
#     4  11  22  36  56  85 125 153 199 238 286 339
#     4  10  21  34  56  79 118 154 192 230 292 344
#
# _framework density 18.031286000000001
#
# number of rings (size 3 to 8) (size 9 to 14) (size 15 to 20)
#    0.000    2.000    2.857    0.429    4.000    1.143 
#    2.571    0.000    3.143    1.714    0.000    0.000 
#    0.000    0.000    0.000    0.000    0.000    0.000 
#
# Total GULP energy -312160.431420 kJ/mol
# GULP energy per Si atom -5574.293418 kJ/mol
# Density = 1.799025 g / cm^3
# Si number density = 18.031286 Si / 1000 Ang^3
#
#
#
# Elastic Constant Matrix: (Units=GPa)
#
#
# Indices 1 2 3 4 5 6 
#
# 1 76.6853 25.4617 32.0149 0.0000 0.0000 0.0000
# 2 25.4617 76.6853 32.0149 0.0000 0.0000 0.0000
# 3 32.0149 32.0149 78.4846 0.0000 0.0000 0.0000
# 4 0.0000 0.0000 0.0000 19.1584 0.0000 0.0000
# 5 0.0000 0.0000 0.0000 0.0000 19.1584 0.0000
# 6 0.0000 0.0000 0.0000 0.0000 0.0000 8.5493
#
#
#
# Elastic Compliance Matrix: (Units=1/GPa)
#
#
# Indices 1 2 3 4 5 6 
#
# 1 0.016338 -0.003185 -0.005365 0.000000 0.000000 0.000000
# 2 -0.003185 0.016338 -0.005365 0.000000 0.000000 0.000000
# 3 -0.005365 -0.005365 0.017118 0.000000 0.000000 0.000000
# 4 0.000000 0.000000 0.000000 0.052196 0.000000 0.000000
# 5 0.000000 0.000000 0.000000 0.000000 0.052196 0.000000
# 6 0.000000 0.000000 0.000000 0.000000 0.000000 0.116968
#
#
# Mechanical properties :
#
#
# Convention : Reuss Voigt Hill
#
# Bulk Modulus (GPa) = 45.53040 45.64869 45.58954
# Shear Modulus (GPa) = 16.32353 18.86415 17.59384
#
# Velocity S-wave (km/s) = 3.01207 3.23800 3.12707
# Velocity P-wave (km/s) = 6.11574 6.27302 6.19488
#
# Compressibility (1/GPa) = 0.02196335
#
# Stress axis : x y z
#
# Youngs Moduli (GPa) = 61.20852 61.20852 58.41645
#
# Poissons Ratio (x) = 0.19493 0.31342
# Poissons Ratio (y) = 0.19493 0.31342
# Poissons Ratio (z) = 0.32840 0.32840
#
# Static dielectric constant tensor:
#      x y z
#    x 1.633730 0.000000 0.000000 
#    y 0.000000 1.633730 0.000000 
#    z 0.000000 0.000000 1.624250 
# 
# From -- ./inp_files/8796.got.cif
#   From: 2010.05.17/outbox.cif.g08.bks.cpg/sg122_5_cif.got.tgz:8796.got - 2010.05.20 11:37:33.
