data_PCOD9560009
_publ_section_title
;
Structure prediction by ZEFSAII (Michael W. Deem and Ramdas Pophale) SiO2 
 PCOD9560009
Probable space group: I -4 C 2
;
_chemical_formula_sum "Si O2"
_cell_formula_units_Z 72
_cell_length_a 13.340505
_cell_length_b 13.340505
_cell_length_c 16.896361
_cell_angle_alpha 90.000000
_cell_angle_beta 90.000000
_cell_angle_gamma 90.000000
_cell_volume 3007.029715
_symmetry_space_group_name_H-M "I -4 C 2"
_symmetry_group_IT_number 120
_symmetry_cell_setting 'tetragonal'
loop_
_space_group_symop_operation_xyz
x,y,z
y,-x,-z
-x,-y,z
-y,x,-z
y,x,1/2-z
-y,-x,1/2-z
-x,y,1/2+z
x,-y,1/2+z
1/2+x,1/2+y,1/2+z
1/2+y,1/2-x,1/2-z
1/2-x,1/2-y,1/2+z
1/2-y,1/2+x,1/2-z
1/2+y,1/2+x,-z
1/2-y,1/2-x,-z
1/2-x,1/2+y,z
1/2+x,1/2-y,z
loop_
_atom_site_type_symbol
_atom_site_label
_atom_site_fract_x
_atom_site_fract_y
_atom_site_fract_z
Si Si1 0.634870 0.046361 0.778657
Si Si2 0.309580 0.750738 0.835958
Si Si3 0.152621 0.049271 0.026580
Si Si4 0.509179 0.652525 0.796343
Si Si5 0.199533 0.300468 0.500000
O O1 0.563481 0.087640 0.706706
O O2 0.636954 0.139955 0.837951
O O3 0.747396 0.026228 0.753241
O O4 0.252772 0.747229 0.750000
O O5 0.392570 0.662212 0.824567
O O6 0.248734 0.738260 0.917037
O O7 0.152418 0.062377 0.119893
O O8 0.261662 0.085598 0.999172
O O9 0.063085 0.120627 0.995461
O O10 0.564438 0.564438 0.750000
#
# Coordination Sequence:
#
# PCOD9560009 Si02
#       5
#    16  16  16  16   8
#     4   9  19  39  67  97 135 180 236 298 363 438
#     4  11  24  42  68 105 136 190 238 303 373 447
#     4  11  25  45  68 103 143 192 242 313 376 452
#     4  11  23  42  69 101 139 181 244 306 372 444
#     4  12  24  46  70  98 150 186 250 302 384 462
#
# _framework density 23.943894
#
# number of rings (size 3 to 8) (size 9 to 14) (size 15 to 20)
#    0.000    1.333    2.222    3.333    3.111    0.444 
#    4.000    0.000    0.000   10.000    0.000    0.000 
#    0.000    0.000    0.000    0.000    0.000    0.000 
#
# Total GULP energy -200552.187765 kJ/mol
# GULP energy per Si atom -5570.894105 kJ/mol
# Density = 2.388940 g / cm^3
# Si number density = 23.943894 Si / 1000 Ang^3
#
#
#
# Elastic Constant Matrix: (Units=GPa)
#
#
# Indices 1 2 3 4 5 6 
#
# 1 45.9062 65.4122 -1.2774 0.0000 0.0000 0.0000
# 2 65.4122 45.9069 -1.2774 0.0000 0.0000 0.0000
# 3 -1.2774 -1.2774 81.0141 0.0000 0.0000 0.0000
# 4 0.0000 0.0000 0.0000 48.6383 0.0000 0.0000
# 5 0.0000 0.0000 0.0000 0.0000 48.6384 0.0000
# 6 0.0000 0.0000 0.0000 0.0000 0.0000 47.6519
#
#
#
# Elastic Compliance Matrix: (Units=1/GPa)
#
#
# Indices 1 2 3 4 5 6 
#
# 1 -0.021140 0.030127 0.000142 0.000000 0.000000 0.000000
# 2 0.030127 -0.021140 0.000142 0.000000 0.000000 0.000000
# 3 0.000142 0.000142 0.012348 0.000000 0.000000 0.000000
# 4 0.000000 0.000000 0.000000 0.020560 0.000000 0.000000
# 5 0.000000 0.000000 0.000000 0.000000 0.020560 0.000000
# 6 0.000000 0.000000 0.000000 0.000000 0.000000 0.020986
#
#
# Mechanical properties :
#
#
# Convention : Reuss Voigt Hill
#
# Bulk Modulus (GPa) = 32.37534 33.17133 32.77333
# Shear Modulus (GPa) = -272.45258 36.31703 -118.06777
#
# Velocity S-wave (km/s) = -10.67871 3.89878 -7.02974
# Velocity P-wave (km/s) = 11.76843 5.84390 7.22304
#
# Compressibility (1/GPa) = 0.03088771
#
# Stress axis : x y z
#
# Youngs Moduli (GPa) = -47.30258 -47.30327 80.98478
#
# Poissons Ratio (x) = 1.42510 -0.01147
# Poissons Ratio (y) = 1.42508 -0.01148
# Poissons Ratio (z) = 0.00670 0.00670
#
# Static dielectric constant tensor:
#      x y z
#    x 2.008880 0.000000 0.000000 
#    y 0.000000 2.008880 0.000000 
#    z 0.000000 0.000000 1.912990 
# 
# From -- ./inp_files/4245.got.cif
#   From: 2010.05.17/outbox.cif.g08.bks.cpg/sg120_3_cif.got.tgz:4245.got - 2010.05.20 11:28:13.
