data_PCOD9560937
_publ_section_title
;
Structure prediction by ZEFSAII (Michael W. Deem and Ramdas Pophale) SiO2 
 PCOD9560937
Probable space group: I -4 2 D
;
_chemical_formula_sum "Si O2"
_cell_formula_units_Z 100
_cell_length_a 30.720909
_cell_length_b 30.720909
_cell_length_c 5.300369
_cell_angle_alpha 90.000000
_cell_angle_beta 90.000000
_cell_angle_gamma 90.000000
_cell_volume 5002.351777
_symmetry_space_group_name_H-M "I -4 2 D"
_symmetry_group_IT_number 122
_symmetry_cell_setting 'tetragonal'
loop_
_space_group_symop_operation_xyz
x,y,z
y,-x,-z
-x,-y,z
-y,x,-z
x,1/2-y,1/4-z
-x,1/2+y,1/4-z
-y,1/2-x,1/4+z
y,1/2+x,1/4+z
1/2+x,1/2+y,1/2+z
1/2+y,1/2-x,1/2-z
1/2-x,1/2-y,1/2+z
1/2-y,1/2+x,1/2-z
1/2+x,-y,3/4-z
1/2-x,y,3/4-z
1/2-y,-x,3/4+z
1/2+y,x,3/4+z
loop_
_atom_site_type_symbol
_atom_site_label
_atom_site_fract_x
_atom_site_fract_y
_atom_site_fract_z
Si Si1 0.278343 0.250000 0.125000
Si Si2 0.657971 0.185154 0.294963
Si Si3 0.607266 0.250000 0.625000
Si Si4 0.504505 0.869038 0.941810
Si Si5 0.500000 0.000000 0.750000
Si Si6 0.398654 0.381588 0.294222
Si Si7 0.667939 0.582883 0.656169
Si Si8 0.522651 0.085350 0.429056
O O1 0.250000 0.261974 0.375000
O O2 0.306846 0.209077 0.219644
O O3 0.638879 0.228427 0.422303
O O4 0.647701 0.141086 0.449814
O O5 0.625910 0.179807 0.060335
O O6 0.579699 0.291705 0.537301
O O7 0.498889 0.906179 0.157633
O O8 0.555432 0.857360 0.942990
O O9 0.465362 0.836501 0.020297
O O10 0.494292 0.882122 0.651301
O O11 0.487730 0.960120 0.565802
O O12 0.379340 0.403705 0.546927
O O13 0.406408 0.425898 0.136479
#
# Coordination Sequence:
#
# PCOD9560937 Si02
#       8
#     8  16   8  16   4  16  16  16
#     4  12  26  44  72 109 134 163 212 288 362 424
#     4  11  22  42  69  98 134 170 217 277 353 414
#     4  10  20  40  66  97 120 163 218 276 338 406
#     4  11  24  40  60  90 130 177 223 271 328 393
#     4  12  24  34  60  90 132 182 240 290 340 382
#     4  10  23  39  62  92 133 178 227 269 341 395
#     4  10  22  40  66  95 128 179 222 283 330 407
#     4  11  24  37  57  90 130 175 228 282 329 384
#
# _framework density 19.990597999999999
#
# number of rings (size 3 to 8) (size 9 to 14) (size 15 to 20)
#    0.000    1.280    4.000    1.440    6.720    0.640 
#    0.000    0.000    7.040    0.000    0.000    0.000 
#    0.000    0.000    0.000    0.000    0.000    0.000 
#
# Total GULP energy -278338.875118 kJ/mol
# GULP energy per Si atom -5566.777502 kJ/mol
# Density = 1.994510 g / cm^3
# Si number density = 19.990598 Si / 1000 Ang^3
#
#
#
# Elastic Constant Matrix: (Units=GPa)
#
#
# Indices 1 2 3 4 5 6 
#
# 1 110.0251 36.6652 16.3327 0.0000 0.0000 0.0000
# 2 36.6652 110.0251 16.3327 0.0000 0.0000 0.0000
# 3 16.3327 16.3327 54.6547 0.0000 0.0000 0.0000
# 4 0.0000 0.0000 0.0000 23.4689 0.0000 0.0000
# 5 0.0000 0.0000 0.0000 0.0000 23.4689 0.0000
# 6 0.0000 0.0000 0.0000 0.0000 0.0000 15.2876
#
#
#
# Elastic Compliance Matrix: (Units=1/GPa)
#
#
# Indices 1 2 3 4 5 6 
#
# 1 0.010467 -0.003164 -0.002182 0.000000 0.000000 0.000000
# 2 -0.003164 0.010467 -0.002182 0.000000 0.000000 0.000000
# 3 -0.002182 -0.002182 0.019601 0.000000 0.000000 0.000000
# 4 0.000000 0.000000 0.000000 0.042610 0.000000 0.000000
# 5 0.000000 0.000000 0.000000 0.000000 0.042610 0.000000
# 6 0.000000 0.000000 0.000000 0.000000 0.000000 0.065413
#
#
# Mechanical properties :
#
#
# Convention : Reuss Voigt Hill
#
# Bulk Modulus (GPa) = 39.25026 45.92957 42.58991
# Shear Modulus (GPa) = 23.28637 26.13669 24.71153
#
# Velocity S-wave (km/s) = 3.41672 3.61979 3.51972
# Velocity P-wave (km/s) = 5.93652 6.36364 6.15379
#
# Compressibility (1/GPa) = 0.02547754
#
# Stress axis : x y z
#
# Youngs Moduli (GPa) = 95.53615 95.53615 51.01771
#
# Poissons Ratio (x) = 0.30229 0.11134
# Poissons Ratio (y) = 0.30229 0.11134
# Poissons Ratio (z) = 0.20850 0.20850
#
# Static dielectric constant tensor:
#      x y z
#    x 1.738680 0.000000 0.000000 
#    y 0.000000 1.738680 0.000000 
#    z 0.000000 0.000000 1.835330 
# 
# From -- ./inp_files/1498.got.cif
#   From: 2010.05.17/outbox.cif.g08.bks.cpg/sg122_1_cif.got.tgz:1498.got - 2010.05.20 11:37:33.
