data_PCOD9560467
_publ_section_title
;
Structure prediction by ZEFSAII (Michael W. Deem and Ramdas Pophale) SiO2 
 PCOD9560467
Probable space group: I -4 2 M
;
_chemical_formula_sum "Si O2"
_cell_formula_units_Z 64
_cell_length_a 13.260048
_cell_length_b 13.260048
_cell_length_c 18.185031
_cell_angle_alpha 90.000000
_cell_angle_beta 90.000000
_cell_angle_gamma 90.000000
_cell_volume 3197.453506
_symmetry_space_group_name_H-M "I -4 2 M"
_symmetry_group_IT_number 121
_symmetry_cell_setting 'tetragonal'
loop_
_space_group_symop_operation_xyz
x,y,z
y,-x,-z
-x,-y,z
-y,x,-z
x,-y,-z
-x,y,-z
-y,-x,z
y,x,z
1/2+x,1/2+y,1/2+z
1/2+y,1/2-x,1/2-z
1/2-x,1/2-y,1/2+z
1/2-y,1/2+x,1/2-z
1/2+x,1/2-y,1/2-z
1/2-x,1/2+y,1/2-z
1/2-y,1/2-x,1/2+z
1/2+y,1/2+x,1/2+z
loop_
_atom_site_type_symbol
_atom_site_label
_atom_site_fract_x
_atom_site_fract_y
_atom_site_fract_z
Si Si1 0.843152 0.996886 0.680848
Si Si2 0.746217 0.100324 0.460699
Si Si3 0.739735 0.574133 0.569245
Si Si4 0.660645 0.028008 0.776173
O O1 0.920499 0.079502 0.650184
O O2 0.762183 0.048804 0.731819
O O3 0.782997 0.937450 0.618531
O O4 0.913447 0.913447 0.720659
O O5 0.843216 0.156785 0.495063
O O6 0.658478 0.180868 0.456900
O O7 0.712266 0.000000 0.500000
O O8 0.720937 0.500000 0.500000
O O9 0.637363 0.637363 0.589276
O O10 0.799365 0.525475 0.639397
O O11 0.576298 0.111384 0.754605
#
# Coordination Sequence:
#
# PCOD9560467 Si02
#       4
#    16  16  16  16
#     4  10  21  38  63  93 126 168 216 272 337 400
#     4  10  21  38  61  93 130 167 211 268 332 402
#     4  11  26  46  68  97 136 182 229 279 338 413
#     4  11  24  42  67 101 133 177 228 283 345 400
#
# _framework density 20.015929
#
# number of rings (size 3 to 8) (size 9 to 14) (size 15 to 20)
#    0.000    1.500    2.500    1.500    3.500    4.000 
#    0.000    0.000    0.000    0.000    0.000    0.000 
#    0.000    0.000    0.000    0.000    0.000    0.000 
#
# Total GULP energy -178215.373175 kJ/mol
# GULP energy per Si atom -5569.230412 kJ/mol
# Density = 1.997037 g / cm^3
# Si number density = 20.015929 Si / 1000 Ang^3
#
#
#
# Elastic Constant Matrix: (Units=GPa)
#
#
# Indices 1 2 3 4 5 6 
#
# 1 80.3714 36.3213 32.5094 0.0000 0.0000 0.0000
# 2 36.3213 80.3724 32.5098 0.0000 0.0000 0.0000
# 3 32.5094 32.5098 83.4763 0.0000 0.0000 0.0000
# 4 0.0000 0.0000 0.0000 31.9639 0.0000 0.0000
# 5 0.0000 0.0000 0.0000 0.0000 31.9639 0.0000
# 6 0.0000 0.0000 0.0000 0.0000 0.0000 13.8674
#
#
#
# Elastic Compliance Matrix: (Units=1/GPa)
#
#
# Indices 1 2 3 4 5 6 
#
# 1 0.016823 -0.005878 -0.004262 0.000000 0.000000 0.000000
# 2 -0.005878 0.016823 -0.004262 0.000000 0.000000 0.000000
# 3 -0.004262 -0.004262 0.015299 0.000000 0.000000 0.000000
# 4 0.000000 0.000000 0.000000 0.031285 0.000000 0.000000
# 5 0.000000 0.000000 0.000000 0.000000 0.031285 0.000000
# 6 0.000000 0.000000 0.000000 0.000000 0.000000 0.072112
#
#
# Mechanical properties :
#
#
# Convention : Reuss Voigt Hill
#
# Bulk Modulus (GPa) = 49.65495 49.65567 49.65531
# Shear Modulus (GPa) = 22.81587 25.08436 23.95011
#
# Velocity S-wave (km/s) = 3.37988 3.54393 3.46288
# Velocity P-wave (km/s) = 6.33191 6.45041 6.39143
#
# Compressibility (1/GPa) = 0.02013898
#
# Stress axis : x y z
#
# Youngs Moduli (GPa) = 59.44311 59.44373 65.36263
#
# Poissons Ratio (x) = 0.34944 0.27859
# Poissons Ratio (y) = 0.34943 0.27859
# Poissons Ratio (z) = 0.25336 0.25336
#
# Static dielectric constant tensor:
#      x y z
#    x 1.710920 0.000000 0.000000 
#    y 0.000000 1.710920 0.000000 
#    z 0.000000 0.000000 1.748200 
# 
# From -- ./inp_files/4049.got.cif
#   From: 2010.05.17/outbox.cif.g08.bks.cpg/sg121_3_cif.got.tgz:4049.got - 2010.05.20 11:32:06.
