data_PCOD9560622
_publ_section_title
;
Structure prediction by ZEFSAII (Michael W. Deem and Ramdas Pophale) SiO2 
 PCOD9560622
Probable space group: I -4 2 M
;
_chemical_formula_sum "Si O2"
_cell_formula_units_Z 84
_cell_length_a 12.191631
_cell_length_b 12.191631
_cell_length_c 33.029161
_cell_angle_alpha 90.000000
_cell_angle_beta 90.000000
_cell_angle_gamma 90.000000
_cell_volume 4909.317963
_symmetry_space_group_name_H-M "I -4 2 M"
_symmetry_group_IT_number 121
_symmetry_cell_setting 'tetragonal'
loop_
_space_group_symop_operation_xyz
x,y,z
y,-x,-z
-x,-y,z
-y,x,-z
x,-y,-z
-x,y,-z
-y,-x,z
y,x,z
1/2+x,1/2+y,1/2+z
1/2+y,1/2-x,1/2-z
1/2-x,1/2-y,1/2+z
1/2-y,1/2+x,1/2-z
1/2+x,1/2-y,1/2-z
1/2-x,1/2+y,1/2-z
1/2-y,1/2-x,1/2+z
1/2+y,1/2+x,1/2+z
loop_
_atom_site_type_symbol
_atom_site_label
_atom_site_fract_x
_atom_site_fract_y
_atom_site_fract_z
Si Si1 0.692638 0.871494 0.704474
Si Si2 0.128591 0.313212 0.500000
Si Si3 0.192638 0.371494 0.795526
Si Si4 1.000000 0.264463 0.847167
Si Si5 0.500000 0.128592 0.433205
Si Si6 0.500000 0.500000 0.660714
O O1 0.806555 0.806555 0.701194
O O2 0.648247 0.851752 0.750000
O O3 0.605735 0.818779 0.673885
O O4 0.704353 0.000000 0.697179
O O5 0.212153 0.212153 0.500000
O O6 0.146091 0.393166 0.538625
O O7 0.146091 0.393167 0.461375
O O8 0.000000 0.280104 0.500000
O O9 0.306553 0.306553 0.798806
O O10 0.105732 0.318779 0.826114
O O11 0.000001 0.294430 0.894435
O O12 1.000000 0.135396 0.839777
O O13 0.500000 0.000000 0.420805
#
# Coordination Sequence:
#
# PCOD9560622 Si02
#       6
#    16  16  16  16  16   4
#     4  11  23  39  59  86 115 153 201 250 304 366
#     4   9  19  36  58  88 121 153 198 238 290 357
#     4  11  23  39  59  86 115 153 201 250 304 366
#     4  12  23  42  61  85 124 158 204 256 316 367
#     4   9  20  38  60  84 114 162 198 236 298 362
#     4  12  28  40  56  97 124 152 204 272 308 365
#
# _framework density 17.110319
#
# number of rings (size 3 to 8) (size 9 to 14) (size 15 to 20)
#    0.000    1.524    3.810    2.857    2.667    0.571 
#    0.000    0.000    0.000    2.286    0.000    5.333 
#    0.000    0.000    0.000    0.000    0.000    0.000 
#
# Total GULP energy -234026.565873 kJ/mol
# GULP energy per Si atom -5572.061092 kJ/mol
# Density = 1.707138 g / cm^3
# Si number density = 17.110319 Si / 1000 Ang^3
#
#
#
# Elastic Constant Matrix: (Units=GPa)
#
#
# Indices 1 2 3 4 5 6 
#
# 1 182.3331 92.2505 45.0246 0.0000 0.0000 0.0000
# 2 92.2505 182.3331 45.0246 0.0000 0.0000 0.0000
# 3 45.0246 45.0246 79.7842 0.0000 0.0000 0.0000
# 4 0.0000 0.0000 0.0000 7.6149 0.0000 0.0000
# 5 0.0000 0.0000 0.0000 0.0000 7.6149 0.0000
# 6 0.0000 0.0000 0.0000 0.0000 0.0000 31.3115
#
#
#
# Elastic Compliance Matrix: (Units=1/GPa)
#
#
# Indices 1 2 3 4 5 6 
#
# 1 0.007785 -0.003316 -0.002522 0.000000 0.000000 0.000000
# 2 -0.003316 0.007785 -0.002522 0.000000 0.000000 0.000000
# 3 -0.002522 -0.002522 0.015380 0.000000 0.000000 0.000000
# 4 0.000000 0.000000 0.000000 0.131322 0.000000 0.000000
# 5 0.000000 0.000000 0.000000 0.000000 0.131322 0.000000
# 6 0.000000 0.000000 0.000000 0.000000 0.000000 0.031937
#
#
# Mechanical properties :
#
#
# Convention : Reuss Voigt Hill
#
# Bulk Modulus (GPa) = 70.27259 89.89443 80.08351
# Shear Modulus (GPa) = 14.40942 26.78496 20.59719
#
# Velocity S-wave (km/s) = 2.90513 3.96084 3.47333
# Velocity P-wave (km/s) = 7.23965 8.57729 7.93670
#
# Compressibility (1/GPa) = 0.01423030
#
# Stress axis : x y z
#
# Youngs Moduli (GPa) = 128.45327 128.45327 65.01844
#
# Poissons Ratio (x) = 0.42595 0.16397
# Poissons Ratio (y) = 0.42595 0.16397
# Poissons Ratio (z) = 0.32395 0.32395
#
# Static dielectric constant tensor:
#      x y z
#    x 1.556690 0.000000 0.000000 
#    y 0.000000 1.556690 0.000000 
#    z 0.000000 0.000000 1.578380 
# 
# From -- ./inp_files/8207.got.cif
#   From: 2010.05.17/outbox.cif.g08.bks.cpg/sg121_5_cif.got.tgz:8207.got - 2010.05.20 11:32:06.
