data_PCOD9560502
_publ_section_title
;
Structure prediction by ZEFSAII (Michael W. Deem and Ramdas Pophale) SiO2 
 PCOD9560502
Probable space group: I -4 2 M
;
_chemical_formula_sum "Si O2"
_cell_formula_units_Z 58
_cell_length_a 11.700039
_cell_length_b 11.700039
_cell_length_c 21.775002
_cell_angle_alpha 90.000000
_cell_angle_beta 90.000000
_cell_angle_gamma 90.000000
_cell_volume 2980.799896
_symmetry_space_group_name_H-M "I -4 2 M"
_symmetry_group_IT_number 121
_symmetry_cell_setting 'tetragonal'
loop_
_space_group_symop_operation_xyz
x,y,z
y,-x,-z
-x,-y,z
-y,x,-z
x,-y,-z
-x,y,-z
-y,-x,z
y,x,z
1/2+x,1/2+y,1/2+z
1/2+y,1/2-x,1/2-z
1/2-x,1/2-y,1/2+z
1/2-y,1/2+x,1/2-z
1/2+x,1/2-y,1/2-z
1/2-x,1/2+y,1/2-z
1/2-y,1/2-x,1/2+z
1/2+y,1/2+x,1/2+z
loop_
_atom_site_type_symbol
_atom_site_label
_atom_site_fract_x
_atom_site_fract_y
_atom_site_fract_z
Si Si1 0.050462 0.653184 0.277908
Si Si2 0.167377 0.167377 0.568227
Si Si3 0.924196 0.386337 0.914485
Si Si4 0.000000 0.193168 0.000000
Si Si5 0.000000 0.000000 0.500000
Si Si6 0.903617 0.903617 0.705280
O O1 0.113811 0.580710 0.225480
O O2 0.104576 0.611308 0.342453
O O3 0.054218 0.786518 0.265147
O O4 0.132272 0.298594 0.554733
O O5 0.139273 0.139273 0.638973
O O6 0.082865 0.082865 0.535556
O O7 0.992462 0.277071 0.940716
O O8 0.000000 0.500000 0.927799
O O9 0.110122 0.110122 0.998410
O O10 0.000000 0.000000 0.702107
#
# Coordination Sequence:
#
# PCOD9560502 Si02
#       6
#    16   8  16   8   2   8
#     4  10  21  43  65  93 131 172 218 271 326 397
#     4  10  24  40  61  93 130 164 222 273 320 406
#     4  11  22  43  69  93 129 172 220 270 337 389
#     4  11  25  44  66  96 135 173 222 276 328 401
#     4  12  24  40  56  92 132 160 216 280 324 366
#     4  10  22  40  63  93 128 171 215 270 329 386
#
# _framework density 19.457863
#
# number of rings (size 3 to 8) (size 9 to 14) (size 15 to 20)
#    0.000    1.517    4.828    0.414    5.793    0.000 
#    2.483    0.000    0.000    0.000    0.000    0.000 
#    0.000    0.000    0.000    0.000    0.000    0.000 
#
# Total GULP energy -161456.135709 kJ/mol
# GULP energy per Si atom -5567.452955 kJ/mol
# Density = 1.941358 g / cm^3
# Si number density = 19.457863 Si / 1000 Ang^3
#
#
#
# Elastic Constant Matrix: (Units=GPa)
#
#
# Indices 1 2 3 4 5 6 
#
# 1 160.2960 80.9604 19.6697 0.0000 0.0000 0.0000
# 2 80.9604 160.2960 19.6697 0.0000 0.0000 0.0000
# 3 19.6697 19.6697 45.7453 0.0000 0.0000 0.0000
# 4 0.0000 0.0000 0.0000 24.9232 0.0000 0.0000
# 5 0.0000 0.0000 0.0000 0.0000 24.9232 0.0000
# 6 0.0000 0.0000 0.0000 0.0000 0.0000 25.0369
#
#
#
# Elastic Compliance Matrix: (Units=1/GPa)
#
#
# Indices 1 2 3 4 5 6 
#
# 1 0.008531 -0.004074 -0.001917 0.000000 0.000000 0.000000
# 2 -0.004074 0.008531 -0.001917 0.000000 0.000000 0.000000
# 3 -0.001917 -0.001917 0.023508 0.000000 0.000000 0.000000
# 4 0.000000 0.000000 0.000000 0.040123 0.000000 0.000000
# 5 0.000000 0.000000 0.000000 0.000000 0.040123 0.000000
# 6 0.000000 0.000000 0.000000 0.000000 0.000000 0.039941
#
#
# Mechanical properties :
#
#
# Convention : Reuss Voigt Hill
#
# Bulk Modulus (GPa) = 40.39292 67.43742 53.91517
# Shear Modulus (GPa) = 27.05276 31.37918 29.21597
#
# Velocity S-wave (km/s) = 3.73275 4.02017 3.87912
# Velocity P-wave (km/s) = 6.27552 7.50216 6.91609
#
# Compressibility (1/GPa) = 0.02475681
#
# Stress axis : x y z
#
# Youngs Moduli (GPa) = 117.21836 117.21836 42.53799
#
# Poissons Ratio (x) = 0.47750 0.08153
# Poissons Ratio (y) = 0.47750 0.08153
# Poissons Ratio (z) = 0.22467 0.22467
#
# Static dielectric constant tensor:
#      x y z
#    x 1.686970 0.000000 0.000000 
#    y 0.000000 1.686970 0.000000 
#    z 0.000000 0.000000 1.732900 
# 
# From -- ./inp_files/6087.got.cif
#   From: 2010.05.17/outbox.cif.g08.bks.cpg/sg121_4_cif.got.tgz:6087.got - 2010.05.20 11:32:06.
