data_PCOD9560768
_publ_section_title
;
Structure prediction by ZEFSAII (Michael W. Deem and Ramdas Pophale) SiO2 
 PCOD9560768
Probable space group: I -4 2 D
;
_chemical_formula_sum "Si O2"
_cell_formula_units_Z 96
_cell_length_a 25.522031
_cell_length_b 25.522031
_cell_length_c 8.943290
_cell_angle_alpha 90.000000
_cell_angle_beta 90.000000
_cell_angle_gamma 90.000000
_cell_volume 5825.427174
_symmetry_space_group_name_H-M "I -4 2 D"
_symmetry_group_IT_number 122
_symmetry_cell_setting 'tetragonal'
loop_
_space_group_symop_operation_xyz
x,y,z
y,-x,-z
-x,-y,z
-y,x,-z
x,1/2-y,1/4-z
-x,1/2+y,1/4-z
-y,1/2-x,1/4+z
y,1/2+x,1/4+z
1/2+x,1/2+y,1/2+z
1/2+y,1/2-x,1/2-z
1/2-x,1/2-y,1/2+z
1/2-y,1/2+x,1/2-z
1/2+x,-y,3/4-z
1/2-x,y,3/4-z
1/2-y,-x,3/4+z
1/2+y,x,3/4+z
loop_
_atom_site_type_symbol
_atom_site_label
_atom_site_fract_x
_atom_site_fract_y
_atom_site_fract_z
Si Si1 0.239911 0.997104 0.196951
Si Si2 0.919592 0.205067 0.022729
Si Si3 0.479632 0.122463 0.936225
Si Si4 0.584537 0.497179 0.005541
Si Si5 0.595208 0.095271 0.812284
Si Si6 0.163949 0.987702 0.757008
O O1 0.250000 0.998067 0.375000
O O2 0.184225 0.970371 0.162844
O O3 0.231043 0.055150 0.125627
O O4 0.286782 0.973136 0.098270
O O5 0.894342 0.250000 0.125000
O O6 0.969039 0.183623 0.123593
O O7 0.886713 0.154047 0.978771
O O8 0.537968 0.104998 0.884668
O O9 0.438455 0.090042 0.839238
O O10 0.476685 0.115044 0.112443
O O11 0.544972 0.451110 0.049350
O O12 0.621666 0.511716 0.141992
O O13 0.634607 0.060807 0.913219
#
# Coordination Sequence:
#
# PCOD9560768 Si02
#       6
#    16  16  16  16  16  16
#     4  10  19  33  52  70 101 138 179 223 257 298
#     4   9  20  36  52  73 103 141 177 217 262 310
#     4  11  22  34  49  75 107 141 179 216 262 309
#     4  11  22  30  44  71 109 145 176 211 257 310
#     4  11  20  34  51  74 105 142 177 211 258 323
#     4  11  19  33  50  71 102 142 184 214 259 308
#
# _framework density 16.479479000000001
#
# number of rings (size 3 to 8) (size 9 to 14) (size 15 to 20)
#    0.000    1.500    6.667    1.000    0.000    0.333 
#    0.000    0.000    0.000    0.000    0.000    0.000 
#    5.000    1.667    0.000    0.000    0.000    0.000 
#
# Total GULP energy -267293.330148 kJ/mol
# GULP energy per Si atom -5568.611045 kJ/mol
# Density = 1.644197 g / cm^3
# Si number density = 16.479479 Si / 1000 Ang^3
#
#
#
# Elastic Constant Matrix: (Units=GPa)
#
#
# Indices 1 2 3 4 5 6 
#
# 1 54.8197 18.6563 18.4989 0.0000 0.0000 0.0000
# 2 18.6563 54.8197 18.4989 0.0000 0.0000 0.0000
# 3 18.4989 18.4989 99.2754 0.0000 0.0000 0.0000
# 4 0.0000 0.0000 0.0000 28.4557 0.0000 0.0000
# 5 0.0000 0.0000 0.0000 0.0000 28.4557 0.0000
# 6 0.0000 0.0000 0.0000 0.0000 0.0000 8.8838
#
#
#
# Elastic Compliance Matrix: (Units=1/GPa)
#
#
# Indices 1 2 3 4 5 6 
#
# 1 0.021336 -0.006317 -0.002799 0.000000 0.000000 0.000000
# 2 -0.006317 0.021336 -0.002799 0.000000 0.000000 0.000000
# 3 -0.002799 -0.002799 0.011116 0.000000 0.000000 0.000000
# 4 0.000000 0.000000 0.000000 0.035142 0.000000 0.000000
# 5 0.000000 0.000000 0.000000 0.000000 0.035142 0.000000
# 6 0.000000 0.000000 0.000000 0.000000 0.000000 0.112565
#
#
# Mechanical properties :
#
#
# Convention : Reuss Voigt Hill
#
# Bulk Modulus (GPa) = 33.37825 35.58030 34.47928
# Shear Modulus (GPa) = 18.48763 23.37641 20.93202
#
# Velocity S-wave (km/s) = 3.35305 3.77041 3.56783
# Velocity P-wave (km/s) = 5.94045 6.37120 6.15959
#
# Compressibility (1/GPa) = 0.02995963
#
# Stress axis : x y z
#
# Youngs Moduli (GPa) = 46.86983 46.86983 89.96057
#
# Poissons Ratio (x) = 0.29606 0.25177
# Poissons Ratio (y) = 0.29606 0.25177
# Poissons Ratio (z) = 0.13117 0.13117
#
# Static dielectric constant tensor:
#      x y z
#    x 1.564900 0.000000 0.000000 
#    y 0.000000 1.564900 0.000000 
#    z 0.000000 0.000000 1.598690 
# 
# From -- ./inp_files/2905.got.cif
#   From: 2010.05.17/outbox.cif.g08.bks.cpg/sg122_2_cif.got.tgz:2905.got - 2010.05.20 11:37:33.
