data_PCOD9560970
_publ_section_title
;
Structure prediction by ZEFSAII (Michael W. Deem and Ramdas Pophale) SiO2 
 PCOD9560970
Probable space group: I -4 2 D
;
_chemical_formula_sum "Si O2"
_cell_formula_units_Z 52
_cell_length_a 19.560445
_cell_length_b 19.560445
_cell_length_c 6.547294
_cell_angle_alpha 90.000000
_cell_angle_beta 90.000000
_cell_angle_gamma 90.000000
_cell_volume 2505.066761
_symmetry_space_group_name_H-M "I -4 2 D"
_symmetry_group_IT_number 122
_symmetry_cell_setting 'tetragonal'
loop_
_space_group_symop_operation_xyz
x,y,z
y,-x,-z
-x,-y,z
-y,x,-z
x,1/2-y,1/4-z
-x,1/2+y,1/4-z
-y,1/2-x,1/4+z
y,1/2+x,1/4+z
1/2+x,1/2+y,1/2+z
1/2+y,1/2-x,1/2-z
1/2-x,1/2-y,1/2+z
1/2-y,1/2+x,1/2-z
1/2+x,-y,3/4-z
1/2-x,y,3/4-z
1/2-y,-x,3/4+z
1/2+y,x,3/4+z
loop_
_atom_site_type_symbol
_atom_site_label
_atom_site_fract_x
_atom_site_fract_y
_atom_site_fract_z
Si Si1 0.646950 0.967170 0.557650
Si Si2 0.100857 0.750000 0.125000
Si Si3 0.819404 0.840929 0.479175
Si Si4 0.500000 0.500000 0.500000
Si Si5 0.074104 0.250000 0.625000
O O1 0.694330 0.942305 0.746394
O O2 0.653268 0.908057 0.386743
O O3 0.569407 0.984022 0.621795
O O4 0.688202 0.030422 0.463872
O O5 0.141672 0.795536 0.290504
O O6 0.750000 0.817652 0.375000
O O7 0.876315 0.783811 0.461056
#
# Coordination Sequence:
#
# PCOD9560970 Si02
#       5
#    16   8  16   4   8
#     4  11  25  47  70 107 142 189 244 296 368 435
#     4  10  20  48  70  94 142 188 240 300 352 444
#     4  10  24  45  68 100 143 185 244 297 354 437
#     4  12  28  44  74 116 148 206 236 312 378 432
#     4  12  24  44  74 104 140 196 228 304 364 436
#
# _framework density 20.757928
#
# number of rings (size 3 to 8) (size 9 to 14) (size 15 to 20)
#    0.000    1.231    4.615    1.846    6.462    2.462 
#    0.000    1.538    0.000    0.000    0.000    0.000 
#    0.000    0.000    0.000    0.000    0.000    0.000 
#
# Total GULP energy -145200.515680 kJ/mol
# GULP energy per Si atom -5584.635218 kJ/mol
# Density = 2.071068 g / cm^3
# Si number density = 20.757928 Si / 1000 Ang^3
#
#
#
# Elastic Constant Matrix: (Units=GPa)
#
#
# Indices 1 2 3 4 5 6 
#
# 1 137.8717 78.0871 35.5929 0.0000 0.0000 0.0000
# 2 78.0871 137.8717 35.5929 0.0000 0.0000 0.0000
# 3 35.5929 35.5929 80.9832 0.0000 0.0000 0.0000
# 4 0.0000 0.0000 0.0000 -7.5367 0.0000 0.0000
# 5 0.0000 0.0000 0.0000 0.0000 -7.5367 0.0000
# 6 0.0000 0.0000 0.0000 0.0000 0.0000 -32.9400
#
#
#
# Elastic Compliance Matrix: (Units=1/GPa)
#
#
# Indices 1 2 3 4 5 6 
#
# 1 0.011071 -0.005656 -0.002380 0.000000 0.000000 0.000000
# 2 -0.005656 0.011071 -0.002380 0.000000 0.000000 0.000000
# 3 -0.002380 -0.002380 0.014440 0.000000 0.000000 0.000000
# 4 0.000000 0.000000 0.000000 -0.132683 0.000000 0.000000
# 5 0.000000 0.000000 0.000000 0.000000 -0.132683 0.000000
# 6 0.000000 0.000000 0.000000 0.000000 0.000000 -0.030358
#
#
# Mechanical properties :
#
#
# Convention : Reuss Voigt Hill
#
# Bulk Modulus (GPa) = 63.49010 72.80804 68.14907
# Shear Modulus (GPa) = -21.45359 4.22755 -8.61302
#
# Velocity S-wave (km/s) = -3.21832 1.42864 -2.03918
# Velocity P-wave (km/s) = 4.10393 6.15405 5.23042
#
# Compressibility (1/GPa) = 0.01575049
#
# Stress axis : x y z
#
# Youngs Moduli (GPa) = 90.32717 90.32717 69.25079
#
# Poissons Ratio (x) = 0.51088 0.16481
# Poissons Ratio (y) = 0.51088 0.16481
# Poissons Ratio (z) = 0.21497 0.21497
#
# Static dielectric constant tensor:
#      x y z
#    x 1.749220 0.000000 0.000000 
#    y 0.000000 1.749220 0.000000 
#    z 0.000000 0.000000 1.845900 
# 
# From -- ./inp_files/784.got.cif
#   From: 2010.05.17/outbox.cif.g08.bks.cpg/sg122_1_cif.got.tgz:784.got - 2010.05.20 11:37:33.
