data_PCOD9560843
_publ_section_title
;
Structure prediction by ZEFSAII (Michael W. Deem and Ramdas Pophale) SiO2 
 PCOD9560843
Probable space group: I -4 2 D
;
_chemical_formula_sum "Si O2"
_cell_formula_units_Z 76
_cell_length_a 29.411469
_cell_length_b 29.411469
_cell_length_c 5.000740
_cell_angle_alpha 90.000000
_cell_angle_beta 90.000000
_cell_angle_gamma 90.000000
_cell_volume 4325.812669
_symmetry_space_group_name_H-M "I -4 2 D"
_symmetry_group_IT_number 122
_symmetry_cell_setting 'tetragonal'
loop_
_space_group_symop_operation_xyz
x,y,z
y,-x,-z
-x,-y,z
-y,x,-z
x,1/2-y,1/4-z
-x,1/2+y,1/4-z
-y,1/2-x,1/4+z
y,1/2+x,1/4+z
1/2+x,1/2+y,1/2+z
1/2+y,1/2-x,1/2-z
1/2-x,1/2-y,1/2+z
1/2-y,1/2+x,1/2-z
1/2+x,-y,3/4-z
1/2-x,y,3/4-z
1/2-y,-x,3/4+z
1/2+y,x,3/4+z
loop_
_atom_site_type_symbol
_atom_site_label
_atom_site_fract_x
_atom_site_fract_y
_atom_site_fract_z
Si Si1 0.077683 0.385393 0.819341
Si Si2 0.295241 0.921148 0.962034
Si Si3 0.413677 0.446948 0.408422
Si Si4 0.492546 0.250000 0.125000
Si Si5 0.500000 0.500000 0.500000
Si Si6 0.341000 0.508932 0.689397
O O1 0.099883 0.416287 0.591864
O O2 0.029456 0.369727 0.687062
O O3 0.101563 0.337137 0.883666
O O4 0.074654 0.415020 0.086885
O O5 0.250000 0.894223 0.875000
O O6 0.320804 0.947577 0.721520
O O7 0.272890 0.959909 0.151800
O O8 0.459742 0.474724 0.340484
O O9 0.374060 0.479735 0.508067
O O10 0.517580 0.294717 0.232954
#
# Coordination Sequence:
#
# PCOD9560843 Si02
#       6
#    16  16  16   8   4  16
#     4  11  22  35  46  71  93 130 174 220 260 303
#     4   9  17  35  54  73  90 123 174 225 263 310
#     4  12  25  32  49  65 105 136 185 218 257 308
#     4   8  18  30  56  72  90 116 182 224 268 304
#     4  12  24  34  44  66  96 154 180 218 260 298
#     4  10  20  35  52  69  97 133 180 226 262 304
#
# _framework density 17.568950999999998
#
# number of rings (size 3 to 8) (size 9 to 14) (size 15 to 20)
#    0.000    1.684    4.211    0.000    8.842    0.842 
#    0.000    0.000    0.000    0.000    0.000    0.000 
#    0.000    0.000    0.000    0.000   36.000   45.263 
#
# Total GULP energy -211617.552474 kJ/mol
# GULP energy per Si atom -5568.882960 kJ/mol
# Density = 1.752896 g / cm^3
# Si number density = 17.568951 Si / 1000 Ang^3
#
#
#
# Elastic Constant Matrix: (Units=GPa)
#
#
# Indices 1 2 3 4 5 6 
#
# 1 51.4433 0.4903 3.7499 0.0000 0.0000 0.0000
# 2 0.4903 51.4433 3.7499 0.0000 0.0000 0.0000
# 3 3.7499 3.7499 72.5189 0.0000 0.0000 0.0000
# 4 0.0000 0.0000 0.0000 25.1206 0.0000 0.0000
# 5 0.0000 0.0000 0.0000 0.0000 25.1206 0.0000
# 6 0.0000 0.0000 0.0000 0.0000 0.0000 7.7249
#
#
#
# Elastic Compliance Matrix: (Units=1/GPa)
#
#
# Indices 1 2 3 4 5 6 
#
# 1 0.019513 -0.000113 -0.001003 0.000000 0.000000 0.000000
# 2 -0.000113 0.019513 -0.001003 0.000000 0.000000 0.000000
# 3 -0.001003 -0.001003 0.013893 0.000000 0.000000 0.000000
# 4 0.000000 0.000000 0.000000 0.039808 0.000000 0.000000
# 5 0.000000 0.000000 0.000000 0.000000 0.039808 0.000000
# 6 0.000000 0.000000 0.000000 0.000000 0.000000 0.129452
#
#
# Mechanical properties :
#
#
# Convention : Reuss Voigt Hill
#
# Bulk Modulus (GPa) = 20.54187 21.26506 20.90347
# Shear Modulus (GPa) = 17.70207 22.75423 20.22815
#
# Velocity S-wave (km/s) = 3.17768 3.60271 3.39685
# Velocity P-wave (km/s) = 5.01807 5.42550 5.22576
#
# Compressibility (1/GPa) = 0.04868106
#
# Stress axis : x y z
#
# Youngs Moduli (GPa) = 51.24765 51.24765 71.97743
#
# Poissons Ratio (x) = 0.00578 0.07220
# Poissons Ratio (y) = 0.00578 0.07220
# Poissons Ratio (z) = 0.05141 0.05141
#
# Static dielectric constant tensor:
#      x y z
#    x 1.643320 0.000000 0.000000 
#    y 0.000000 1.643320 0.000000 
#    z 0.000000 0.000000 1.733620 
# 
# From -- ./inp_files/1414.got.cif
#   From: 2010.05.17/outbox.cif.g08.bks.cpg/sg122_1_cif.got.tgz:1414.got - 2010.05.20 11:37:33.
