data_PCOD9560917
_publ_section_title
;
Structure prediction by ZEFSAII (Michael W. Deem and Ramdas Pophale) SiO2 
 PCOD9560917
Probable space group: I -4 2 D
;
_chemical_formula_sum "Si O2"
_cell_formula_units_Z 88
_cell_length_a 16.309136
_cell_length_b 16.309136
_cell_length_c 13.338122
_cell_angle_alpha 90.000000
_cell_angle_beta 90.000000
_cell_angle_gamma 90.000000
_cell_volume 3547.779288
_symmetry_space_group_name_H-M "I -4 2 D"
_symmetry_group_IT_number 122
_symmetry_cell_setting 'tetragonal'
loop_
_space_group_symop_operation_xyz
x,y,z
y,-x,-z
-x,-y,z
-y,x,-z
x,1/2-y,1/4-z
-x,1/2+y,1/4-z
-y,1/2-x,1/4+z
y,1/2+x,1/4+z
1/2+x,1/2+y,1/2+z
1/2+y,1/2-x,1/2-z
1/2-x,1/2-y,1/2+z
1/2-y,1/2+x,1/2-z
1/2+x,-y,3/4-z
1/2-x,y,3/4-z
1/2-y,-x,3/4+z
1/2+y,x,3/4+z
loop_
_atom_site_type_symbol
_atom_site_label
_atom_site_fract_x
_atom_site_fract_y
_atom_site_fract_z
Si Si1 0.500000 0.000000 0.397558
Si Si2 0.729717 0.890304 0.055441
Si Si3 0.541247 0.661042 0.729597
Si Si4 0.613645 0.550236 0.471682
Si Si5 0.784655 0.879043 0.264338
Si Si6 0.666181 0.440731 0.819637
O O1 0.473447 0.075085 0.465652
O O2 0.588266 0.033374 0.357165
O O3 0.725182 0.865586 0.171174
O O4 0.643456 0.857099 0.011155
O O5 0.723088 0.988157 0.043717
O O6 0.820076 0.881954 0.007971
O O7 0.500893 0.651230 0.620963
O O8 0.636828 0.675348 0.737247
O O9 0.590690 0.475692 0.548918
O O10 0.750000 0.863203 0.375000
O O11 0.811717 0.975064 0.261866
O O12 0.750000 0.422187 0.875000
#
# Coordination Sequence:
#
# PCOD9560917 Si02
#       6
#     8  16  16  16  16  16
#     4   8  16  34  67  91 120 178 222 284 355 425
#     4  11  23  39  65  96 134 183 228 289 370 433
#     4  10  20  39  64  95 131 171 239 291 349 445
#     4  11  22  38  67  96 131 180 231 294 362 434
#     4  10  22  42  66  94 134 181 235 293 366 442
#     4   9  20  39  64  94 136 176 231 298 361 438
#
# _framework density 24.804248000000001
#
# number of rings (size 3 to 8) (size 9 to 14) (size 15 to 20)
#    0.000    2.000    1.818    1.636    5.091    2.909 
#    3.273    0.000    0.000   14.182    0.000    0.000 
#    0.000    0.000    0.000    0.000    0.000    0.000 
#
# Total GULP energy -245046.884451 kJ/mol
# GULP energy per Si atom -5569.247374 kJ/mol
# Density = 2.474779 g / cm^3
# Si number density = 24.804248 Si / 1000 Ang^3
#
#
#
# Elastic Constant Matrix: (Units=GPa)
#
#
# Indices 1 2 3 4 5 6 
#
# 1 106.9778 14.3263 5.3387 0.0000 0.0000 0.0000
# 2 14.3263 106.9778 5.3387 0.0000 0.0000 0.0000
# 3 5.3387 5.3387 87.5719 0.0000 0.0000 0.0000
# 4 0.0000 0.0000 0.0000 86.6009 0.0000 0.0000
# 5 0.0000 0.0000 0.0000 0.0000 86.6009 0.0000
# 6 0.0000 0.0000 0.0000 0.0000 0.0000 34.8130
#
#
#
# Elastic Compliance Matrix: (Units=1/GPa)
#
#
# Indices 1 2 3 4 5 6 
#
# 1 0.009541 -0.001252 -0.000505 0.000000 0.000000 0.000000
# 2 -0.001252 0.009541 -0.000505 0.000000 0.000000 0.000000
# 3 -0.000505 -0.000505 0.011481 0.000000 0.000000 0.000000
# 4 0.000000 0.000000 0.000000 0.011547 0.000000 0.000000
# 5 0.000000 0.000000 0.000000 0.000000 0.011547 0.000000
# 6 0.000000 0.000000 0.000000 0.000000 0.000000 0.028725
#
#
# Mechanical properties :
#
#
# Convention : Reuss Voigt Hill
#
# Bulk Modulus (GPa) = 38.40820 39.05945 38.73382
# Shear Modulus (GPa) = 52.30880 60.03790 56.17335
#
# Velocity S-wave (km/s) = 4.59722 4.92516 4.76401
# Velocity P-wave (km/s) = 6.61040 6.93716 6.77575
#
# Compressibility (1/GPa) = 0.02603611
#
# Stress axis : x y z
#
# Youngs Moduli (GPa) = 104.81441 104.81441 87.10193
#
# Poissons Ratio (x) = 0.13127 0.04401
# Poissons Ratio (y) = 0.13127 0.04401
# Poissons Ratio (z) = 0.05296 0.05296
#
# Static dielectric constant tensor:
#      x y z
#    x 1.512440 0.000000 0.000000 
#    y 0.000000 1.512440 0.000000 
#    z 0.000000 0.000000 1.978260 
# 
# From -- ./inp_files/5401.got.cif
#   From: 2010.05.17/outbox.cif.g08.bks.cpg/sg122_3_cif.got.tgz:5401.got - 2010.05.20 11:37:33.
