data_PCOD9560962
_publ_section_title
;
Structure prediction by ZEFSAII (Michael W. Deem and Ramdas Pophale) SiO2 
 PCOD9560962
Probable space group: I -4 2 D
;
_chemical_formula_sum "Si O2"
_cell_formula_units_Z 116
_cell_length_a 26.066284
_cell_length_b 26.066284
_cell_length_c 8.287031
_cell_angle_alpha 90.000000
_cell_angle_beta 90.000000
_cell_angle_gamma 90.000000
_cell_volume 5630.632839
_symmetry_space_group_name_H-M "I -4 2 D"
_symmetry_group_IT_number 122
_symmetry_cell_setting 'tetragonal'
loop_
_space_group_symop_operation_xyz
x,y,z
y,-x,-z
-x,-y,z
-y,x,-z
x,1/2-y,1/4-z
-x,1/2+y,1/4-z
-y,1/2-x,1/4+z
y,1/2+x,1/4+z
1/2+x,1/2+y,1/2+z
1/2+y,1/2-x,1/2-z
1/2-x,1/2-y,1/2+z
1/2-y,1/2+x,1/2-z
1/2+x,-y,3/4-z
1/2-x,y,3/4-z
1/2-y,-x,3/4+z
1/2+y,x,3/4+z
loop_
_atom_site_type_symbol
_atom_site_label
_atom_site_fract_x
_atom_site_fract_y
_atom_site_fract_z
Si Si1 0.524646 0.296529 0.737797
Si Si2 0.404648 0.044187 0.834101
Si Si3 0.424883 0.246510 0.323615
Si Si4 0.000000 0.500000 0.750000
Si Si5 0.385275 0.143015 0.344704
Si Si6 0.689059 0.551325 0.905749
Si Si7 0.054016 0.059847 0.247542
Si Si8 0.442520 0.353718 0.245049
O O1 0.544248 0.250000 0.625000
O O2 0.472458 0.274899 0.821464
O O3 0.529344 0.346819 0.628708
O O4 0.552534 0.314731 0.900735
O O5 0.500991 0.061039 0.584189
O O6 0.408518 0.043814 0.642940
O O7 0.429677 0.096254 0.900648
O O8 0.381360 0.204474 0.365426
O O9 0.422529 0.306596 0.356341
O O10 0.430876 0.250000 0.125000
O O11 0.047522 0.477592 0.851219
O O12 0.338950 0.104720 0.390173
O O13 0.431202 0.116450 0.444394
O O14 0.406064 0.139286 0.161573
O O15 0.750000 0.550484 0.875000
O O16 0.663248 0.499486 0.826680
#
# Coordination Sequence:
#
# PCOD9560962 Si02
#       8
#    16  16  16   4  16  16  16  16
#     4  12  24  41  65  96 138 177 228 290 343 398
#     4  12  27  44  64 105 140 181 223 287 353 412
#     4  10  20  43  68  97 125 175 238 287 333 412
#     4  12  28  46  56  80 144 202 220 260 332 434
#     4  11  23  39  66  95 129 178 230 282 340 407
#     4  12  23  43  69  99 133 184 240 284 344 427
#     4  12  27  41  61  93 141 182 227 263 344 425
#     4  11  22  42  71  96 134 179 234 284 340 418
#
# _framework density 20.601592
#
# number of rings (size 3 to 8) (size 9 to 14) (size 15 to 20)
#    0.000    0.552    6.897    1.655    9.655    0.000 
#    2.483    0.000    0.000    0.828    0.000    0.000 
#    0.000    0.000    0.000    0.000    0.000    0.000 
#
# Total GULP energy -323215.122844 kJ/mol
# GULP energy per Si atom -5572.674532 kJ/mol
# Density = 2.055470 g / cm^3
# Si number density = 20.601592 Si / 1000 Ang^3
#
#
#
# Elastic Constant Matrix: (Units=GPa)
#
#
# Indices 1 2 3 4 5 6 
#
# 1 128.3440 30.2952 33.0408 0.0000 0.0000 0.0000
# 2 30.2952 128.3440 33.0408 0.0000 0.0000 0.0000
# 3 33.0408 33.0408 64.5793 0.0000 0.0000 0.0000
# 4 0.0000 0.0000 0.0000 30.7617 0.0000 0.0000
# 5 0.0000 0.0000 0.0000 0.0000 30.7617 0.0000
# 6 0.0000 0.0000 0.0000 0.0000 0.0000 27.5200
#
#
#
# Elastic Compliance Matrix: (Units=1/GPa)
#
#
# Indices 1 2 3 4 5 6 
#
# 1 0.009105 -0.001094 -0.004099 0.000000 0.000000 0.000000
# 2 -0.001094 0.009105 -0.004099 0.000000 0.000000 0.000000
# 3 -0.004099 -0.004099 0.019679 0.000000 0.000000 0.000000
# 4 0.000000 0.000000 0.000000 0.032508 0.000000 0.000000
# 5 0.000000 0.000000 0.000000 0.000000 0.032508 0.000000
# 6 0.000000 0.000000 0.000000 0.000000 0.000000 0.036337
#
#
# Mechanical properties :
#
#
# Convention : Reuss Voigt Hill
#
# Bulk Modulus (GPa) = 51.79709 57.11344 54.45526
# Shear Modulus (GPa) = 30.43960 32.80140 31.62050
#
# Velocity S-wave (km/s) = 3.84804 3.99454 3.92198
# Velocity P-wave (km/s) = 6.70374 7.00415 6.85559
#
# Compressibility (1/GPa) = 0.01930610
#
# Stress axis : x y z
#
# Youngs Moduli (GPa) = 109.83038 109.83038 50.81615
#
# Poissons Ratio (x) = 0.12016 0.20828
# Poissons Ratio (y) = 0.12016 0.20828
# Poissons Ratio (z) = 0.45015 0.45015
#
# Static dielectric constant tensor:
#      x y z
#    x 1.819840 0.000000 0.000000 
#    y 0.000000 1.819840 0.000000 
#    z 0.000000 0.000000 1.819780 
# 
# From -- ./inp_files/3114.got.cif
#   From: 2010.05.17/outbox.cif.g08.bks.cpg/sg122_2_cif.got.tgz:3114.got - 2010.05.20 11:37:33.
