data_PCOD9560534
_publ_section_title
;
Structure prediction by ZEFSAII (Michael W. Deem and Ramdas Pophale) SiO2 
 PCOD9560534
Probable space group: I -4 2 M
;
_chemical_formula_sum "Si O2"
_cell_formula_units_Z 56
_cell_length_a 13.474643
_cell_length_b 13.474643
_cell_length_c 14.176561
_cell_angle_alpha 90.000000
_cell_angle_beta 90.000000
_cell_angle_gamma 90.000000
_cell_volume 2573.981531
_symmetry_space_group_name_H-M "I -4 2 M"
_symmetry_group_IT_number 121
_symmetry_cell_setting 'tetragonal'
loop_
_space_group_symop_operation_xyz
x,y,z
y,-x,-z
-x,-y,z
-y,x,-z
x,-y,-z
-x,y,-z
-y,-x,z
y,x,z
1/2+x,1/2+y,1/2+z
1/2+y,1/2-x,1/2-z
1/2-x,1/2-y,1/2+z
1/2-y,1/2+x,1/2-z
1/2+x,1/2-y,1/2-z
1/2-x,1/2+y,1/2-z
1/2-y,1/2-x,1/2+z
1/2+y,1/2+x,1/2+z
loop_
_atom_site_type_symbol
_atom_site_label
_atom_site_fract_x
_atom_site_fract_y
_atom_site_fract_z
Si Si1 0.364526 0.364526 0.691512
Si Si2 0.743970 0.256031 0.663284
Si Si3 0.558545 0.870210 0.098571
Si Si4 0.734567 0.265433 0.943773
Si Si5 0.982824 0.294085 0.202961
O O1 0.317405 0.317405 0.784618
O O2 0.310217 0.310217 0.605134
O O3 0.472947 0.317441 0.691488
O O4 0.754946 0.245055 0.553536
O O5 0.633584 0.223288 0.691208
O O6 0.626866 0.772591 0.085016
O O7 0.498285 0.843799 0.193963
O O8 0.632034 0.961644 0.128423
O O9 0.500000 0.885658 0.000000
#
# Coordination Sequence:
#
# PCOD9560534 Si02
#       5
#     8   8  16   8  16
#     4  10  22  43  63  99 137 175 230 287 353 415
#     4  12  22  45  66  95 144 180 230 291 351 423
#     4  11  24  44  69 105 140 181 239 285 354 421
#     4  10  22  44  65  90 139 191 212 286 358 402
#     4  11  23  46  69 102 138 186 230 292 356 413
#
# _framework density 21.756177999999998
#
# number of rings (size 3 to 8) (size 9 to 14) (size 15 to 20)
#    0.000    1.143    5.714    1.714    0.000    5.714 
#    5.143    0.000    0.000    9.000    0.000    0.000 
#    0.000    0.000    0.000    0.000    0.000    0.000 
#
# Total GULP energy -156329.907841 kJ/mol
# GULP energy per Si atom -5583.210994 kJ/mol
# Density = 2.170666 g / cm^3
# Si number density = 21.756178 Si / 1000 Ang^3
#
#
#
# Elastic Constant Matrix: (Units=GPa)
#
#
# Indices 1 2 3 4 5 6 
#
# 1 82.8181 45.9093 23.2634 0.0000 0.0000 0.0000
# 2 45.9093 82.8219 23.2646 0.0000 0.0000 0.0000
# 3 23.2634 23.2646 171.7688 0.0000 0.0000 0.0000
# 4 0.0000 0.0000 0.0000 27.8731 0.0000 0.0000
# 5 0.0000 0.0000 0.0000 0.0000 27.8731 0.0000
# 6 0.0000 0.0000 0.0000 0.0000 0.0000 43.0207
#
#
#
# Elastic Compliance Matrix: (Units=1/GPa)
#
#
# Indices 1 2 3 4 5 6 
#
# 1 0.017631 -0.009462 -0.001106 0.000000 0.000000 0.000000
# 2 -0.009462 0.017630 -0.001106 0.000000 0.000000 0.000000
# 3 -0.001106 -0.001106 0.006121 0.000000 0.000000 0.000000
# 4 0.000000 0.000000 0.000000 0.035877 0.000000 0.000000
# 5 0.000000 0.000000 0.000000 0.000000 0.035877 0.000000
# 6 0.000000 0.000000 0.000000 0.000000 0.000000 0.023245
#
#
# Mechanical properties :
#
#
# Convention : Reuss Voigt Hill
#
# Bulk Modulus (GPa) = 55.45530 58.03150 56.74340
# Shear Modulus (GPa) = 30.16760 36.08480 33.12620
#
# Velocity S-wave (km/s) = 3.72778 4.07701 3.90630
# Velocity P-wave (km/s) = 6.63877 6.99244 6.81789
#
# Compressibility (1/GPa) = 0.01803254
#
# Stress axis : x y z
#
# Youngs Moduli (GPa) = 56.71944 56.72186 163.36024
#
# Poissons Ratio (x) = 0.53671 0.18071
# Poissons Ratio (y) = 0.53669 0.18073
# Poissons Ratio (z) = 0.06274 0.06275
#
# Static dielectric constant tensor:
#      x y z
#    x 1.844180 0.000000 0.000000 
#    y 0.000000 1.844170 0.000000 
#    z 0.000000 0.000000 1.796180 
# 
# From -- ./inp_files/2774.got.cif
#   From: 2010.05.17/outbox.cif.g08.bks.cpg/sg121_2_cif.got.tgz:2774.got - 2010.05.20 11:32:06.
