data_PCOD9560273
_publ_section_title
;
Structure prediction by ZEFSAII (Michael W. Deem and Ramdas Pophale) SiO2 
 PCOD9560273
Probable space group: I -4 2 M
;
_chemical_formula_sum "Si O2"
_cell_formula_units_Z 88
_cell_length_a 17.655586
_cell_length_b 17.655586
_cell_length_c 16.152081
_cell_angle_alpha 90.000000
_cell_angle_beta 90.000000
_cell_angle_gamma 90.000000
_cell_volume 5034.922118
_symmetry_space_group_name_H-M "I -4 2 M"
_symmetry_group_IT_number 121
_symmetry_cell_setting 'tetragonal'
loop_
_space_group_symop_operation_xyz
x,y,z
y,-x,-z
-x,-y,z
-y,x,-z
x,-y,-z
-x,y,-z
-y,-x,z
y,x,z
1/2+x,1/2+y,1/2+z
1/2+y,1/2-x,1/2-z
1/2-x,1/2-y,1/2+z
1/2-y,1/2+x,1/2-z
1/2+x,1/2-y,1/2-z
1/2-x,1/2+y,1/2-z
1/2-y,1/2-x,1/2+z
1/2+y,1/2+x,1/2+z
loop_
_atom_site_type_symbol
_atom_site_label
_atom_site_fract_x
_atom_site_fract_y
_atom_site_fract_z
Si Si1 0.041991 0.832735 0.087075
Si Si2 0.898304 0.101697 0.830879
Si Si3 0.785388 0.785388 0.139402
Si Si4 0.280394 0.064875 0.773672
Si Si5 0.303517 0.889793 0.731003
Si Si6 0.667690 0.667690 0.160544
Si Si7 0.339860 0.660141 0.151311
Si Si8 0.411129 0.588872 0.990607
O O1 0.115589 0.884412 0.077557
O O2 0.060186 0.755885 0.135201
O O3 0.983561 0.877443 0.147335
O O4 0.000000 0.822107 0.000000
O O5 0.846175 0.153826 0.892865
O O6 0.877781 0.122220 0.735077
O O7 0.843589 0.733071 0.191994
O O8 0.724267 0.724267 0.109212
O O9 0.358034 0.112247 0.776316
O O10 0.219947 0.112825 0.717770
O O11 0.293349 0.979413 0.741583
O O12 0.248845 0.859038 0.658509
O O13 0.619509 0.619509 0.096223
O O14 0.371661 0.628340 0.067667
O O15 0.500000 0.602933 0.000000
#
# Coordination Sequence:
#
# PCOD9560273 Si02
#       8
#    16   8   8  16  16   8   8   8
#     4  12  23  35  54  87 122 150 191 236 292 366
#     4  10  19  36  56  75 117 152 180 229 297 335
#     4   8  16  34  55  78 103 145 188 229 268 347
#     4  11  20  38  60  85 112 156 193 240 295 357
#     4   9  19  34  59  83 112 146 198 235 284 352
#     4  10  21  37  60  77 106 153 194 227 295 350
#     4  10  19  39  55  76 116 150 187 250 281 343
#     4  11  24  36  53  85 113 140 192 241 283 341
#
# _framework density 17.477927000000001
#
# number of rings (size 3 to 8) (size 9 to 14) (size 15 to 20)
#    0.000    1.909    5.455    1.909    0.000    0.364 
#    4.909    0.000    0.000    0.000    0.000    1.273 
#    0.000    0.000    0.000    0.000    0.000    0.000 
#
# Total GULP energy -244954.334978 kJ/mol
# GULP energy per Si atom -5567.143977 kJ/mol
# Density = 1.743815 g / cm^3
# Si number density = 17.477927 Si / 1000 Ang^3
#
#
#
# Elastic Constant Matrix: (Units=GPa)
#
#
# Indices 1 2 3 4 5 6 
#
# 1 101.9335 62.0977 16.3681 0.0000 0.0000 0.0000
# 2 62.0977 101.9328 16.3675 0.0000 0.0000 0.0000
# 3 16.3681 16.3675 49.7408 0.0000 0.0000 0.0000
# 4 0.0000 0.0000 0.0000 -0.8111 0.0000 0.0000
# 5 0.0000 0.0000 0.0000 0.0000 -0.8039 0.0000
# 6 0.0000 0.0000 0.0000 0.0000 0.0000 32.7355
#
#
#
# Elastic Compliance Matrix: (Units=1/GPa)
#
#
# Indices 1 2 3 4 5 6 
#
# 1 0.015814 -0.009289 -0.002147 0.000000 0.000000 0.000000
# 2 -0.009289 0.015814 -0.002147 0.000000 0.000000 0.000000
# 3 -0.002147 -0.002147 0.021517 0.000000 0.000000 0.000000
# 4 0.000000 0.000000 0.000000 -1.232841 0.000000 0.000000
# 5 0.000000 0.000000 0.000000 0.000000 -1.243874 0.000000
# 6 0.000000 0.000000 0.000000 0.000000 0.000000 0.030548
#
#
# Mechanical properties :
#
#
# Convention : Reuss Voigt Hill
#
# Bulk Modulus (GPa) = 38.49309 49.25264 43.87287
# Shear Modulus (GPa) = -2.12116 16.80902 7.34393
#
# Velocity S-wave (km/s) = -1.10284 3.10454 2.05206
# Velocity P-wave (km/s) = 4.52216 6.41030 5.54716
#
# Compressibility (1/GPa) = 0.02597869
#
# Stress axis : x y z
#
# Youngs Moduli (GPa) = 63.23493 63.23470 46.47430
#
# Poissons Ratio (x) = 0.58740 0.09979
# Poissons Ratio (y) = 0.58740 0.09978
# Poissons Ratio (z) = 0.13578 0.13576
#
# Static dielectric constant tensor:
#      x y z
#    x 1.637180 0.000000 0.000000 
#    y 0.000000 1.637170 0.000000 
#    z 0.000000 0.000000 1.594930 
# 
# From -- ./inp_files/4437.got.cif
#   From: 2010.05.17/outbox.cif.g08.bks.cpg/sg121_3_cif.got.tgz:4437.got - 2010.05.20 11:32:06.
