data_PCOD9560526
_publ_section_title
;
Structure prediction by ZEFSAII (Michael W. Deem and Ramdas Pophale) SiO2 
 PCOD9560526
Probable space group: I -4 2 M
;
_chemical_formula_sum "Si O2"
_cell_formula_units_Z 64
_cell_length_a 19.897702
_cell_length_b 19.897702
_cell_length_c 8.261704
_cell_angle_alpha 90.000000
_cell_angle_beta 90.000000
_cell_angle_gamma 90.000000
_cell_volume 3270.961826
_symmetry_space_group_name_H-M "I -4 2 M"
_symmetry_group_IT_number 121
_symmetry_cell_setting 'tetragonal'
loop_
_space_group_symop_operation_xyz
x,y,z
y,-x,-z
-x,-y,z
-y,x,-z
x,-y,-z
-x,y,-z
-y,-x,z
y,x,z
1/2+x,1/2+y,1/2+z
1/2+y,1/2-x,1/2-z
1/2-x,1/2-y,1/2+z
1/2-y,1/2+x,1/2-z
1/2+x,1/2-y,1/2-z
1/2-x,1/2+y,1/2-z
1/2-y,1/2-x,1/2+z
1/2+y,1/2+x,1/2+z
loop_
_atom_site_type_symbol
_atom_site_label
_atom_site_fract_x
_atom_site_fract_y
_atom_site_fract_z
Si Si1 0.594752 0.238518 0.742537
Si Si2 0.166570 0.166570 0.522586
Si Si3 0.526282 0.899839 0.312371
Si Si4 0.128130 0.128130 0.165718
Si Si5 0.500000 0.316731 0.500000
Si Si6 0.276814 0.723187 0.553767
O O1 0.563969 0.164671 0.763756
O O2 0.543944 0.271836 0.617811
O O3 0.667798 0.236619 0.657670
O O4 0.607606 0.293264 0.883370
O O5 0.139788 0.139788 0.353722
O O6 0.223512 0.223512 0.504826
O O7 0.500000 0.890730 0.500000
O O8 0.462263 0.922254 0.204692
O O9 0.143218 0.053271 0.106594
O O10 0.179960 0.179960 0.075587
#
# Coordination Sequence:
#
# PCOD9560526 Si02
#       6
#    16   8  16   8   8   8
#     4  10  22  40  64  91 132 169 219 269 334 386
#     4  11  23  39  65 103 123 159 222 283 320 398
#     4  11  24  43  60  92 137 185 232 273 317 395
#     4  10  22  41  65  91 130 161 212 258 328 406
#     4  10  22  45  64  89 128 172 200 258 344 394
#     4   9  21  41  60  94 129 166 204 274 336 388
#
# _framework density 19.566109000000001
#
# number of rings (size 3 to 8) (size 9 to 14) (size 15 to 20)
#    0.000    1.750    1.250    3.750    3.500    3.250 
#    4.500    0.000    0.000    1.500    0.000    0.000 
#    0.000    0.000    0.000    0.000    0.000    0.000 
#
# Total GULP energy -178431.001129 kJ/mol
# GULP energy per Si atom -5575.968785 kJ/mol
# Density = 1.952158 g / cm^3
# Si number density = 19.566109 Si / 1000 Ang^3
#
#
#
# Elastic Constant Matrix: (Units=GPa)
#
#
# Indices 1 2 3 4 5 6 
#
# 1 113.4903 74.8873 47.6517 0.0000 0.0000 0.0000
# 2 74.8873 113.4898 47.6514 0.0000 0.0000 0.0000
# 3 47.6517 47.6514 112.1128 0.0000 0.0000 0.0000
# 4 0.0000 0.0000 0.0000 18.0752 0.0000 0.0000
# 5 0.0000 0.0000 0.0000 0.0000 18.0744 0.0000
# 6 0.0000 0.0000 0.0000 0.0000 0.0000 34.5790
#
#
#
# Elastic Compliance Matrix: (Units=1/GPa)
#
#
# Indices 1 2 3 4 5 6 
#
# 1 0.016334 -0.009571 -0.002874 0.000000 0.000000 0.000000
# 2 -0.009571 0.016334 -0.002874 0.000000 0.000000 0.000000
# 3 -0.002874 -0.002874 0.011363 0.000000 0.000000 0.000000
# 4 0.000000 0.000000 0.000000 0.055324 0.000000 0.000000
# 5 0.000000 0.000000 0.000000 0.000000 0.055327 0.000000
# 6 0.000000 0.000000 0.000000 0.000000 0.000000 0.028919
#
#
# Mechanical properties :
#
#
# Convention : Reuss Voigt Hill
#
# Bulk Modulus (GPa) = 74.67755 75.49709 75.08732
# Shear Modulus (GPa) = 22.86190 25.40589 24.13390
#
# Velocity S-wave (km/s) = 3.42196 3.60733 3.51587
# Velocity P-wave (km/s) = 7.33912 7.48464 7.41224
#
# Compressibility (1/GPa) = 0.01339091
#
# Stress axis : x y z
#
# Youngs Moduli (GPa) = 61.22298 61.22277 88.00512
#
# Poissons Ratio (x) = 0.58597 0.25296
# Poissons Ratio (y) = 0.58597 0.25296
# Poissons Ratio (z) = 0.17598 0.17598
#
# Static dielectric constant tensor:
#      x y z
#    x 1.717190 0.000000 0.000000 
#    y 0.000000 1.717190 0.000000 
#    z 0.000000 0.000000 1.736170 
# 
# From -- ./inp_files/1659.got.cif
#   From: 2010.05.17/outbox.cif.g08.bks.cpg/sg121_1_cif.got.tgz:1659.got - 2010.05.20 11:32:06.
