data_PCOD9560990
_publ_section_title
;
Structure prediction by ZEFSAII (Michael W. Deem and Ramdas Pophale) SiO2 
 PCOD9560990
Probable space group: I -4 2 D
;
_chemical_formula_sum "Si O2"
_cell_formula_units_Z 120
_cell_length_a 27.049074
_cell_length_b 27.049074
_cell_length_c 8.338848
_cell_angle_alpha 90.000000
_cell_angle_beta 90.000000
_cell_angle_gamma 90.000000
_cell_volume 6101.138188
_symmetry_space_group_name_H-M "I -4 2 D"
_symmetry_group_IT_number 122
_symmetry_cell_setting 'tetragonal'
loop_
_space_group_symop_operation_xyz
x,y,z
y,-x,-z
-x,-y,z
-y,x,-z
x,1/2-y,1/4-z
-x,1/2+y,1/4-z
-y,1/2-x,1/4+z
y,1/2+x,1/4+z
1/2+x,1/2+y,1/2+z
1/2+y,1/2-x,1/2-z
1/2-x,1/2-y,1/2+z
1/2-y,1/2+x,1/2-z
1/2+x,-y,3/4-z
1/2-x,y,3/4-z
1/2-y,-x,3/4+z
1/2+y,x,3/4+z
loop_
_atom_site_type_symbol
_atom_site_label
_atom_site_fract_x
_atom_site_fract_y
_atom_site_fract_z
Si Si1 0.240215 0.328631 0.049225
Si Si2 0.750000 0.163856 0.875000
Si Si3 0.856524 0.158691 0.389323
Si Si4 0.896458 0.326019 0.222320
Si Si5 0.665226 0.087969 0.779656
Si Si6 0.808769 0.056783 0.329644
Si Si7 0.544755 0.197696 0.217166
Si Si8 0.502252 0.301938 0.676816
O O1 0.202489 0.283511 0.026060
O O2 0.296189 0.317401 0.101427
O O3 0.215619 0.367223 0.175160
O O4 0.250000 0.350089 0.875000
O O5 0.709495 0.128028 0.797943
O O6 0.875664 0.166248 0.207406
O O7 0.833507 0.104800 0.412665
O O8 0.903589 0.168753 0.506232
O O9 0.883721 0.378893 0.296987
O O10 0.953406 0.313538 0.196025
O O11 0.677154 0.064009 0.606899
O O12 0.662753 0.044262 0.908677
O O13 0.750000 0.058351 0.375000
O O14 0.827389 0.002456 0.381338
O O15 0.550013 0.250000 0.125000
O O16 0.524962 0.204382 0.398521
O O17 0.479708 0.250000 0.625000
#
# Coordination Sequence:
#
# PCOD9560990 Si02
#       8
#    16   8  16  16  16  16  16  16
#     4  11  23  34  55  80 114 150 195 239 283 352
#     4  10  24  36  50  80 120 152 192 234 292 366
#     4  10  21  37  58  79 115 160 188 239 304 356
#     4   9  21  39  54  81 112 148 194 240 293 357
#     4  10  21  37  55  79 115 150 190 237 298 350
#     4  10  22  35  57  82 117 147 195 247 292 354
#     4  10  21  37  55  86 115 146 199 248 288 356
#     4  11  19  34  63  78 107 153 191 235 298 345
#
# _framework density 19.668461000000001
#
# number of rings (size 3 to 8) (size 9 to 14) (size 15 to 20)
#    0.000    1.867    0.667    4.000    2.800    4.267 
#    0.000    0.000    0.000    0.800    0.000    5.600 
#    0.000    0.000    0.000    0.000    0.000    0.000 
#
# Total GULP energy -334184.662864 kJ/mol
# GULP energy per Si atom -5569.744381 kJ/mol
# Density = 1.962369 g / cm^3
# Si number density = 19.668461 Si / 1000 Ang^3
#
#
#
# Elastic Constant Matrix: (Units=GPa)
#
#
# Indices 1 2 3 4 5 6 
#
# 1 93.1955 35.6558 31.8620 0.0000 0.0000 0.0000
# 2 35.6558 93.1955 31.8620 0.0000 0.0000 0.0000
# 3 31.8620 31.8620 48.2770 0.0000 0.0000 0.0000
# 4 0.0000 0.0000 0.0000 22.8862 0.0000 0.0000
# 5 0.0000 0.0000 0.0000 0.0000 22.8862 0.0000
# 6 0.0000 0.0000 0.0000 0.0000 0.0000 13.5306
#
#
#
# Elastic Compliance Matrix: (Units=1/GPa)
#
#
# Indices 1 2 3 4 5 6 
#
# 1 0.014450 -0.002929 -0.007604 0.000000 0.000000 0.000000
# 2 -0.002929 0.014450 -0.007604 0.000000 0.000000 0.000000
# 3 -0.007604 -0.007604 0.030751 0.000000 0.000000 0.000000
# 4 0.000000 0.000000 0.000000 0.043695 0.000000 0.000000
# 5 0.000000 0.000000 0.000000 0.000000 0.043695 0.000000
# 6 0.000000 0.000000 0.000000 0.000000 0.000000 0.073907
#
#
# Mechanical properties :
#
#
# Convention : Reuss Voigt Hill
#
# Bulk Modulus (GPa) = 42.77556 48.15861 45.46708
# Shear Modulus (GPa) = 18.86696 20.87980 19.87338
#
# Velocity S-wave (km/s) = 3.10054 3.26174 3.18216
# Velocity P-wave (km/s) = 5.88330 6.22283 6.05545
#
# Compressibility (1/GPa) = 0.02337784
#
# Stress axis : x y z
#
# Youngs Moduli (GPa) = 69.20232 69.20232 32.51945
#
# Poissons Ratio (x) = 0.20269 0.24728
# Poissons Ratio (y) = 0.20269 0.24728
# Poissons Ratio (z) = 0.52621 0.52621
#
# Static dielectric constant tensor:
#      x y z
#    x 1.722000 0.000000 0.000000 
#    y 0.000000 1.722000 0.000000 
#    z 0.000000 0.000000 1.789980 
# 
# From -- ./inp_files/3122.got.cif
#   From: 2010.05.17/outbox.cif.g08.bks.cpg/sg122_2_cif.got.tgz:3122.got - 2010.05.20 11:37:33.
