data_PCOD9560235
_publ_section_title
;
Structure prediction by ZEFSAII (Michael W. Deem and Ramdas Pophale) SiO2 
 PCOD9560235
Probable space group: I -4 2 M
;
_chemical_formula_sum "Si O2"
_cell_formula_units_Z 48
_cell_length_a 22.706764
_cell_length_b 22.706764
_cell_length_c 5.284281
_cell_angle_alpha 90.000000
_cell_angle_beta 90.000000
_cell_angle_gamma 90.000000
_cell_volume 2724.560125
_symmetry_space_group_name_H-M "I -4 2 M"
_symmetry_group_IT_number 121
_symmetry_cell_setting 'tetragonal'
loop_
_space_group_symop_operation_xyz
x,y,z
y,-x,-z
-x,-y,z
-y,x,-z
x,-y,-z
-x,y,-z
-y,-x,z
y,x,z
1/2+x,1/2+y,1/2+z
1/2+y,1/2-x,1/2-z
1/2-x,1/2-y,1/2+z
1/2-y,1/2+x,1/2-z
1/2+x,1/2-y,1/2-z
1/2-x,1/2+y,1/2-z
1/2-y,1/2-x,1/2+z
1/2+y,1/2+x,1/2+z
loop_
_atom_site_type_symbol
_atom_site_label
_atom_site_fract_x
_atom_site_fract_y
_atom_site_fract_z
Si Si1 0.738859 0.571252 0.499303
Si Si2 0.666632 0.429052 0.000656
Si Si3 0.374736 0.929421 0.970207
O O1 0.740602 0.500000 0.500000
O O2 0.702479 0.411703 0.252197
O O3 0.806622 0.590345 0.508476
O O4 0.705001 0.588203 0.244340
O O5 0.605204 0.394797 0.994760
O O6 0.658889 0.500000 0.000000
O O7 0.400227 0.910800 0.699045
O O8 0.377363 0.000000 0.000000
#
# Coordination Sequence:
#
# PCOD9560235 Si02
#       3
#    16  16  16
#     4   9  19  35  53  74 102 142 181 205 245 314
#     4  10  19  33  55  80 106 136 172 216 261 307
#     4  11  22  36  56  80 107 138 172 215 263 311
#
# _framework density 17.617521
#
# number of rings (size 3 to 8) (size 9 to 14) (size 15 to 20)
#    0.000    2.000    0.000    4.000    0.000    7.667 
#    0.000    0.000    0.000   26.000    0.000    0.000 
#    0.000    0.000    0.000    0.000    0.000    0.000 
#
# Total GULP energy -133939.507807 kJ/mol
# GULP energy per Si atom -5580.812825 kJ/mol
# Density = 1.757742 g / cm^3
# Si number density = 17.617521 Si / 1000 Ang^3
#
#
#
# Elastic Constant Matrix: (Units=GPa)
#
#
# Indices 1 2 3 4 5 6 
#
# 1 58.0673 15.2556 2.7268 0.0000 0.0000 0.0000
# 2 15.2556 58.0607 2.7285 0.0000 0.0000 0.0000
# 3 2.7268 2.7285 90.5728 0.0000 0.0000 0.0000
# 4 0.0000 0.0000 0.0000 -1.5685 0.0000 0.0000
# 5 0.0000 0.0000 0.0000 0.0000 -1.6064 0.0000
# 6 0.0000 0.0000 0.0000 0.0000 0.0000 -12.7193
#
#
#
# Elastic Compliance Matrix: (Units=1/GPa)
#
#
# Indices 1 2 3 4 5 6 
#
# 1 0.018514 -0.004845 -0.000411 0.000000 0.000000 0.000000
# 2 -0.004845 0.018516 -0.000412 0.000000 0.000000 0.000000
# 3 -0.000411 -0.000412 0.011066 0.000000 0.000000 0.000000
# 4 0.000000 0.000000 0.000000 -0.637538 0.000000 0.000000
# 5 0.000000 0.000000 0.000000 0.000000 -0.622510 0.000000
# 6 0.000000 0.000000 0.000000 0.000000 0.000000 -0.078621
#
#
# Mechanical properties :
#
#
# Convention : Reuss Voigt Hill
#
# Bulk Modulus (GPa) = 27.20491 27.56918 27.38705
# Shear Modulus (GPa) = -3.94638 9.22048 2.63705
#
# Velocity S-wave (km/s) = -1.49830 2.29021 1.22478
# Velocity P-wave (km/s) = 3.53303 4.76194 4.19276
#
# Compressibility (1/GPa) = 0.03675807
#
# Stress axis : x y z
#
# Youngs Moduli (GPa) = 54.01417 54.00799 90.36988
#
# Poissons Ratio (x) = 0.26168 0.03718
# Poissons Ratio (y) = 0.26171 0.03722
# Poissons Ratio (z) = 0.02222 0.02225
#
# Static dielectric constant tensor:
#      x y z
#    x 1.584590 0.000000 0.000000 
#    y 0.000000 1.584600 0.000000 
#    z 0.000000 0.000000 1.589620 
# 
# From -- ./inp_files/301.got.cif
#   From: 2010.05.17/outbox.cif.g08.bks.cpg/sg121_1_cif.got.tgz:301.got - 2010.05.20 11:32:06.
