data_PCOD9560063
_publ_section_title
;
Structure prediction by ZEFSAII (Michael W. Deem and Ramdas Pophale) SiO2 
 PCOD9560063
Probable space group: I -4 C 2
;
_chemical_formula_sum "Si O2"
_cell_formula_units_Z 40
_cell_length_a 13.558215
_cell_length_b 13.558215
_cell_length_c 8.893856
_cell_angle_alpha 90.000000
_cell_angle_beta 90.000000
_cell_angle_gamma 90.000000
_cell_volume 1634.914804
_symmetry_space_group_name_H-M "I -4 C 2"
_symmetry_group_IT_number 120
_symmetry_cell_setting 'tetragonal'
loop_
_space_group_symop_operation_xyz
x,y,z
y,-x,-z
-x,-y,z
-y,x,-z
y,x,1/2-z
-y,-x,1/2-z
-x,y,1/2+z
x,-y,1/2+z
1/2+x,1/2+y,1/2+z
1/2+y,1/2-x,1/2-z
1/2-x,1/2-y,1/2+z
1/2-y,1/2+x,1/2-z
1/2+y,1/2+x,-z
1/2-y,1/2-x,-z
1/2-x,1/2+y,z
1/2+x,1/2-y,z
loop_
_atom_site_type_symbol
_atom_site_label
_atom_site_fract_x
_atom_site_fract_y
_atom_site_fract_z
Si Si1 0.644664 0.644664 0.250000
Si Si2 0.604182 0.104182 0.500000
Si Si3 0.464314 0.781531 0.218427
Si Si4 0.778727 0.278727 0.500000
O O1 0.532635 0.684299 0.245573
O O2 0.704463 0.687636 0.391572
O O3 0.573201 0.189633 0.383337
O O4 0.523065 0.129786 0.632064
O O5 0.370898 0.771062 0.111566
#
# Coordination Sequence:
#
# PCOD9560063 Si02
#       4
#     8   8  16   8
#     4  12  26  46  78 116 156 214 264 334 402 486
#     4  12  23  45  71 113 164 206 262 336 409 465
#     4  12  25  47  76 119 156 210 262 344 400 476
#     4  12  27  47  77 114 162 205 272 338 405 473
#
# _framework density 24.466106
#
# number of rings (size 3 to 8) (size 9 to 14) (size 15 to 20)
#    0.000    0.000    8.000    1.200    0.000    6.400 
#    0.000    0.000    0.000    9.600    0.000    0.000 
#    0.000    0.000    0.000    0.000    0.000    0.000 
#
# Total GULP energy -111400.704875 kJ/mol
# GULP energy per Si atom -5570.035244 kJ/mol
# Density = 2.441042 g / cm^3
# Si number density = 24.466106 Si / 1000 Ang^3
#
#
#
# Elastic Constant Matrix: (Units=GPa)
#
#
# Indices 1 2 3 4 5 6 
#
# 1 89.4242 51.2132 61.2417 0.0000 0.0000 0.0000
# 2 51.2132 89.4242 61.2417 0.0000 0.0000 0.0000
# 3 61.2417 61.2417 220.9966 0.0000 0.0000 0.0000
# 4 0.0000 0.0000 0.0000 34.0603 0.0000 0.0000
# 5 0.0000 0.0000 0.0000 0.0000 34.0603 0.0000
# 6 0.0000 0.0000 0.0000 0.0000 0.0000 61.9248
#
#
#
# Elastic Compliance Matrix: (Units=1/GPa)
#
#
# Indices 1 2 3 4 5 6 
#
# 1 0.017771 -0.008399 -0.002597 0.000000 0.000000 0.000000
# 2 -0.008399 0.017771 -0.002597 0.000000 0.000000 0.000000
# 3 -0.002597 -0.002597 0.005964 0.000000 0.000000 0.000000
# 4 0.000000 0.000000 0.000000 0.029360 0.000000 0.000000
# 5 0.000000 0.000000 0.000000 0.000000 0.029360 0.000000
# 6 0.000000 0.000000 0.000000 0.000000 0.000000 0.016149
#
#
# Mechanical properties :
#
#
# Convention : Reuss Voigt Hill
#
# Bulk Modulus (GPa) = 69.83067 83.02646 76.42857
# Shear Modulus (GPa) = 33.70731 41.08566 37.39649
#
# Velocity S-wave (km/s) = 3.71578 4.10236 3.91385
# Velocity P-wave (km/s) = 6.85662 7.51319 7.19240
#
# Compressibility (1/GPa) = 0.01432035
#
# Stress axis : x y z
#
# Youngs Moduli (GPa) = 56.27000 56.27000 167.66025
#
# Poissons Ratio (x) = 0.47261 0.43546
# Poissons Ratio (y) = 0.47261 0.43546
# Poissons Ratio (z) = 0.14615 0.14615
#
# Static dielectric constant tensor:
#      x y z
#    x 2.092520 0.000000 0.000000 
#    y 0.000000 2.092520 0.000000 
#    z 0.000000 0.000000 1.868070 
# 
# From -- ./inp_files/731.got.cif
#   From: 2010.05.17/outbox.cif.g08.bks.cpg/sg120_1_cif.got.tgz:731.got - 2010.05.20 11:28:13.
