data_PCOD9560761
_publ_section_title
;
Structure prediction by ZEFSAII (Michael W. Deem and Ramdas Pophale) SiO2 
 PCOD9560761
Probable space group: I -4 2 D
;
_chemical_formula_sum "Si O2"
_cell_formula_units_Z 112
_cell_length_a 13.714654
_cell_length_b 13.714654
_cell_length_c 32.972720
_cell_angle_alpha 90.000000
_cell_angle_beta 90.000000
_cell_angle_gamma 90.000000
_cell_volume 6201.896091
_symmetry_space_group_name_H-M "I -4 2 D"
_symmetry_group_IT_number 122
_symmetry_cell_setting 'tetragonal'
loop_
_space_group_symop_operation_xyz
x,y,z
y,-x,-z
-x,-y,z
-y,x,-z
x,1/2-y,1/4-z
-x,1/2+y,1/4-z
-y,1/2-x,1/4+z
y,1/2+x,1/4+z
1/2+x,1/2+y,1/2+z
1/2+y,1/2-x,1/2-z
1/2-x,1/2-y,1/2+z
1/2-y,1/2+x,1/2-z
1/2+x,-y,3/4-z
1/2-x,y,3/4-z
1/2-y,-x,3/4+z
1/2+y,x,3/4+z
loop_
_atom_site_type_symbol
_atom_site_label
_atom_site_fract_x
_atom_site_fract_y
_atom_site_fract_z
Si Si1 0.541233 0.658366 0.098660
Si Si2 0.392252 0.252386 0.958841
Si Si3 0.742943 0.934902 0.271149
Si Si4 0.845984 0.493591 0.262403
Si Si5 0.968959 0.643237 0.867501
Si Si6 0.732222 0.871022 0.827046
Si Si7 0.411592 0.199154 0.450033
O O1 0.573758 0.750000 0.125000
O O2 0.502882 0.696326 0.055874
O O3 0.448884 0.604278 0.119271
O O4 0.617378 0.570977 0.096515
O O5 0.329041 0.339862 0.980206
O O6 0.415080 0.284110 0.912724
O O7 0.325513 0.157376 0.951239
O O8 0.493730 0.243859 0.982930
O O9 0.845953 0.890990 0.285557
O O10 0.920361 0.402907 0.261619
O O11 0.819359 0.536516 0.306123
O O12 0.751221 0.462019 0.237668
O O13 0.984334 0.673937 0.913639
O O14 0.750000 0.883485 0.875000
O O15 0.662179 0.777735 0.820180
#
# Coordination Sequence:
#
# PCOD9560761 Si02
#       7
#    16  16  16  16  16  16  16
#     4  10  19  31  48  76 110 156 199 235 274 330
#     4  10  20  33  53  82 115 156 199 231 286 343
#     4  10  20  33  54  78 119 154 194 239 282 338
#     4   9  20  39  62  86 106 137 190 240 302 361
#     4  10  19  32  53  77 109 157 201 232 278 346
#     4  10  19  36  64  85 110 152 193 240 295 357
#     4  10  19  36  60  80 112 153 195 234 293 356
#
# _framework density 18.058993000000001
#
# number of rings (size 3 to 8) (size 9 to 14) (size 15 to 20)
#    0.000    2.143    2.857    0.857    0.000    2.571 
#    0.000    2.857    3.143    0.000    0.000    0.000 
#    0.000    0.000    0.000    0.000    0.000    0.000 
#
# Total GULP energy -311934.274482 kJ/mol
# GULP energy per Si atom -5570.254901 kJ/mol
# Density = 1.801789 g / cm^3
# Si number density = 18.058993 Si / 1000 Ang^3
#
#
#
# Elastic Constant Matrix: (Units=GPa)
#
#
# Indices 1 2 3 4 5 6 
#
# 1 51.1357 25.5023 28.6979 0.0000 0.0000 0.0000
# 2 25.5023 51.1357 28.6979 0.0000 0.0000 0.0000
# 3 28.6979 28.6979 84.9426 0.0000 0.0000 0.0000
# 4 0.0000 0.0000 0.0000 20.6251 0.0000 0.0000
# 5 0.0000 0.0000 0.0000 0.0000 20.6251 0.0000
# 6 0.0000 0.0000 0.0000 0.0000 0.0000 17.1456
#
#
#
# Elastic Compliance Matrix: (Units=1/GPa)
#
#
# Indices 1 2 3 4 5 6 
#
# 1 0.028240 -0.010772 -0.005902 0.000000 0.000000 0.000000
# 2 -0.010772 0.028240 -0.005902 0.000000 0.000000 0.000000
# 3 -0.005902 -0.005902 0.015760 0.000000 0.000000 0.000000
# 4 0.000000 0.000000 0.000000 0.048485 0.000000 0.000000
# 5 0.000000 0.000000 0.000000 0.000000 0.048485 0.000000
# 6 0.000000 0.000000 0.000000 0.000000 0.000000 0.058324
#
#
# Mechanical properties :
#
#
# Convention : Reuss Voigt Hill
#
# Bulk Modulus (GPa) = 36.91366 39.22338 38.06852
# Shear Modulus (GPa) = 17.74853 18.63356 18.19105
#
# Velocity S-wave (km/s) = 3.13838 3.21567 3.17726
# Velocity P-wave (km/s) = 5.79806 5.96273 5.88097
#
# Compressibility (1/GPa) = 0.02709024
#
# Stress axis : x y z
#
# Youngs Moduli (GPa) = 35.41084 35.41084 63.45007
#
# Poissons Ratio (x) = 0.38144 0.37446
# Poissons Ratio (y) = 0.38144 0.37446
# Poissons Ratio (z) = 0.20898 0.20898
#
# Static dielectric constant tensor:
#      x y z
#    x 1.631940 0.000000 0.000000 
#    y 0.000000 1.631940 0.000000 
#    z 0.000000 0.000000 1.601230 
# 
# From -- ./inp_files/8819.got.cif
#   From: 2010.05.17/outbox.cif.g08.bks.cpg/sg122_5_cif.got.tgz:8819.got - 2010.05.20 11:37:33.
