data_PCOD9560885
_publ_section_title
;
Structure prediction by ZEFSAII (Michael W. Deem and Ramdas Pophale) SiO2 
 PCOD9560885
Probable space group: I -4 2 D
;
_chemical_formula_sum "Si O2"
_cell_formula_units_Z 96
_cell_length_a 25.805276
_cell_length_b 25.805276
_cell_length_c 7.497135
_cell_angle_alpha 90.000000
_cell_angle_beta 90.000000
_cell_angle_gamma 90.000000
_cell_volume 4992.434182
_symmetry_space_group_name_H-M "I -4 2 D"
_symmetry_group_IT_number 122
_symmetry_cell_setting 'tetragonal'
loop_
_space_group_symop_operation_xyz
x,y,z
y,-x,-z
-x,-y,z
-y,x,-z
x,1/2-y,1/4-z
-x,1/2+y,1/4-z
-y,1/2-x,1/4+z
y,1/2+x,1/4+z
1/2+x,1/2+y,1/2+z
1/2+y,1/2-x,1/2-z
1/2-x,1/2-y,1/2+z
1/2-y,1/2+x,1/2-z
1/2+x,-y,3/4-z
1/2-x,y,3/4-z
1/2-y,-x,3/4+z
1/2+y,x,3/4+z
loop_
_atom_site_type_symbol
_atom_site_label
_atom_site_fract_x
_atom_site_fract_y
_atom_site_fract_z
Si Si1 0.618660 0.040763 0.092824
Si Si2 0.750000 0.580310 0.375000
Si Si3 0.007237 0.171965 0.998822
Si Si4 0.616229 0.795053 0.271245
Si Si5 0.463979 0.871054 0.111929
Si Si6 0.795236 0.620997 0.733697
Si Si7 0.904351 0.750000 0.125000
O O1 0.671331 0.064842 0.181163
O O2 0.579680 0.087621 0.057690
O O3 0.602015 0.999266 0.238821
O O4 0.630546 0.013537 0.906167
O O5 0.793712 0.542719 0.294329
O O6 0.771951 0.612461 0.538887
O O7 0.057535 0.208648 0.027113
O O8 0.998107 0.148015 0.804881
O O9 0.660944 0.835123 0.220035
O O10 0.629457 0.772439 0.465837
O O11 0.608669 0.750000 0.125000
O O12 0.432173 0.823204 0.199480
O O13 0.750000 0.633425 0.875000
#
# Coordination Sequence:
#
# PCOD9560885 Si02
#       7
#    16   8  16  16  16  16   8
#     4  10  23  39  62  93 119 163 204 248 309 363
#     4  11  20  38  66  90 116 152 210 254 295 362
#     4  10  20  37  64  91 116 155 204 257 300 353
#     4  10  22  41  60  91 124 162 202 247 307 361
#     4  11  22  40  62  87 129 156 204 256 303 367
#     4  11  23  39  62  91 121 161 204 252 306 358
#     4   9  20  38  64  90 118 158 210 248 299 368
#
# _framework density 19.229095999999998
#
# number of rings (size 3 to 8) (size 9 to 14) (size 15 to 20)
#    0.000    1.667    3.333    1.000    0.000    3.667 
#    6.000    0.000    0.000    0.000    0.000    0.000 
#    0.000    0.000    0.000    0.000    0.000    0.000 
#
# Total GULP energy -267911.719907 kJ/mol
# GULP energy per Si atom -5581.494165 kJ/mol
# Density = 1.918533 g / cm^3
# Si number density = 19.229096 Si / 1000 Ang^3
#
#
#
# Elastic Constant Matrix: (Units=GPa)
#
#
# Indices 1 2 3 4 5 6 
#
# 1 44.4586 7.9948 37.2160 0.0000 0.0000 0.0000
# 2 7.9948 44.4586 37.2160 0.0000 0.0000 0.0000
# 3 37.2160 37.2160 143.0540 0.0000 0.0000 0.0000
# 4 0.0000 0.0000 0.0000 21.9134 0.0000 0.0000
# 5 0.0000 0.0000 0.0000 0.0000 21.9134 0.0000
# 6 0.0000 0.0000 0.0000 0.0000 0.0000 4.2925
#
#
#
# Elastic Compliance Matrix: (Units=1/GPa)
#
#
# Indices 1 2 3 4 5 6 
#
# 1 0.028823 0.001398 -0.007862 0.000000 0.000000 0.000000
# 2 0.001398 0.028823 -0.007862 0.000000 0.000000 0.000000
# 3 -0.007862 -0.007862 0.011081 0.000000 0.000000 0.000000
# 4 0.000000 0.000000 0.000000 0.045634 0.000000 0.000000
# 5 0.000000 0.000000 0.000000 0.000000 0.045634 0.000000
# 6 0.000000 0.000000 0.000000 0.000000 0.000000 0.232963
#
#
# Mechanical properties :
#
#
# Convention : Reuss Voigt Hill
#
# Bulk Modulus (GPa) = 24.95347 44.09164 34.52256
# Shear Modulus (GPa) = 11.49511 19.59349 15.54430
#
# Velocity S-wave (km/s) = 2.44764 3.19556 2.84628
# Velocity P-wave (km/s) = 4.58182 6.04937 5.36600
#
# Compressibility (1/GPa) = 0.04007458
#
# Stress axis : x y z
#
# Youngs Moduli (GPa) = 34.69488 34.69488 90.24412
#
# Poissons Ratio (x) = -0.04851 0.70951
# Poissons Ratio (y) = -0.04851 0.70951
# Poissons Ratio (z) = 0.27277 0.27277
#
# Static dielectric constant tensor:
#      x y z
#    x 1.683860 0.000000 0.000000 
#    y 0.000000 1.683860 0.000000 
#    z 0.000000 0.000000 1.657380 
# 
# From -- ./inp_files/1472.got.cif
#   From: 2010.05.17/outbox.cif.g08.bks.cpg/sg122_1_cif.got.tgz:1472.got - 2010.05.20 11:37:33.
