data_PCOD9560636
_publ_section_title
;
Structure prediction by ZEFSAII (Michael W. Deem and Ramdas Pophale) SiO2 
 PCOD9560636
Probable space group: I -4 2 M
;
_chemical_formula_sum "Si O2"
_cell_formula_units_Z 56
_cell_length_a 14.047810
_cell_length_b 14.047810
_cell_length_c 13.874683
_cell_angle_alpha 90.000000
_cell_angle_beta 90.000000
_cell_angle_gamma 90.000000
_cell_volume 2738.043343
_symmetry_space_group_name_H-M "I -4 2 M"
_symmetry_group_IT_number 121
_symmetry_cell_setting 'tetragonal'
loop_
_space_group_symop_operation_xyz
x,y,z
y,-x,-z
-x,-y,z
-y,x,-z
x,-y,-z
-x,y,-z
-y,-x,z
y,x,z
1/2+x,1/2+y,1/2+z
1/2+y,1/2-x,1/2-z
1/2-x,1/2-y,1/2+z
1/2-y,1/2+x,1/2-z
1/2+x,1/2-y,1/2-z
1/2-x,1/2+y,1/2-z
1/2-y,1/2-x,1/2+z
1/2+y,1/2+x,1/2+z
loop_
_atom_site_type_symbol
_atom_site_label
_atom_site_fract_x
_atom_site_fract_y
_atom_site_fract_z
Si Si1 0.346585 0.500000 0.500000
Si Si2 0.296462 0.856547 0.448309
Si Si3 0.436928 0.172417 0.854338
Si Si4 0.010313 0.693811 0.859514
O O1 0.413499 0.586502 0.467668
O O2 0.287780 0.534584 0.594504
O O3 0.216978 0.783023 0.411918
O O4 0.279512 0.875642 0.561342
O O5 0.403344 0.819867 0.434016
O O6 0.306858 0.956203 0.391725
O O7 0.440120 0.205173 0.744250
O O8 0.394495 0.063872 0.853337
#
# Coordination Sequence:
#
# PCOD9560636 Si02
#       4
#     8  16  16  16
#     4  11  26  46  67 100 146 188 227 280 349 422
#     4  11  24  41  64  97 138 177 220 279 343 409
#     4  11  24  41  67 100 135 173 230 284 343 394
#     4  12  22  41  70  97 135 177 227 285 343 404
#
# _framework density 20.452563000000001
#
# number of rings (size 3 to 8) (size 9 to 14) (size 15 to 20)
#    0.000    0.714    5.714    1.714    0.000    5.714 
#    0.000    0.000    0.000    6.857    0.000    0.000 
#    0.000    0.000    0.000    0.000    0.000    0.000 
#
# Total GULP energy -155881.795027 kJ/mol
# GULP energy per Si atom -5567.206965 kJ/mol
# Density = 2.040601 g / cm^3
# Si number density = 20.452563 Si / 1000 Ang^3
#
#
#
# Elastic Constant Matrix: (Units=GPa)
#
#
# Indices 1 2 3 4 5 6 
#
# 1 77.5676 44.6805 25.0006 0.0000 0.0000 0.0000
# 2 44.6805 77.5677 25.0027 0.0000 0.0000 0.0000
# 3 25.0006 25.0027 137.4829 0.0000 0.0000 0.0000
# 4 0.0000 0.0000 0.0000 18.4993 0.0000 0.0000
# 5 0.0000 0.0000 0.0000 0.0000 18.4993 0.0000
# 6 0.0000 0.0000 0.0000 0.0000 0.0000 45.4849
#
#
#
# Elastic Compliance Matrix: (Units=1/GPa)
#
#
# Indices 1 2 3 4 5 6 
#
# 1 0.019622 -0.010785 -0.001607 0.000000 0.000000 0.000000
# 2 -0.010785 0.019622 -0.001607 0.000000 0.000000 0.000000
# 3 -0.001607 -0.001607 0.007858 0.000000 0.000000 0.000000
# 4 0.000000 0.000000 0.000000 0.054056 0.000000 0.000000
# 5 0.000000 0.000000 0.000000 0.000000 0.054056 0.000000
# 6 0.000000 0.000000 0.000000 0.000000 0.000000 0.021985
#
#
# Mechanical properties :
#
#
# Convention : Reuss Voigt Hill
#
# Bulk Modulus (GPa) = 52.34347 53.55398 52.94872
# Shear Modulus (GPa) = 23.63324 29.69232 26.66278
#
# Velocity S-wave (km/s) = 3.40297 3.81434 3.61451
# Velocity P-wave (km/s) = 6.41003 6.75575 6.58516
#
# Compressibility (1/GPa) = 0.01910458
#
# Stress axis : x y z
#
# Youngs Moduli (GPa) = 50.96280 50.96241 127.25642
#
# Poissons Ratio (x) = 0.54962 0.20449
# Poissons Ratio (y) = 0.54962 0.20455
# Poissons Ratio (z) = 0.08189 0.08191
#
# Static dielectric constant tensor:
#      x y z
#    x 1.848730 0.000000 0.000000 
#    y 0.000000 1.848740 0.000000 
#    z 0.000000 0.000000 1.754140 
# 
# From -- ./inp_files/3952.got.cif
#   From: 2010.05.17/outbox.cif.g08.bks.cpg/sg121_2_cif.got.tgz:3952.got - 2010.05.20 11:32:06.
