data_PCOD9560454
_publ_section_title
;
Structure prediction by ZEFSAII (Michael W. Deem and Ramdas Pophale) SiO2 
 PCOD9560454
Probable space group: I -4 2 M
;
_chemical_formula_sum "Si O2"
_cell_formula_units_Z 48
_cell_length_a 10.733524
_cell_length_b 10.733524
_cell_length_c 17.397405
_cell_angle_alpha 90.000000
_cell_angle_beta 90.000000
_cell_angle_gamma 90.000000
_cell_volume 2004.329586
_symmetry_space_group_name_H-M "I -4 2 M"
_symmetry_group_IT_number 121
_symmetry_cell_setting 'tetragonal'
loop_
_space_group_symop_operation_xyz
x,y,z
y,-x,-z
-x,-y,z
-y,x,-z
x,-y,-z
-x,y,-z
-y,-x,z
y,x,z
1/2+x,1/2+y,1/2+z
1/2+y,1/2-x,1/2-z
1/2-x,1/2-y,1/2+z
1/2-y,1/2+x,1/2-z
1/2+x,1/2-y,1/2-z
1/2-x,1/2+y,1/2-z
1/2-y,1/2-x,1/2+z
1/2+y,1/2+x,1/2+z
loop_
_atom_site_type_symbol
_atom_site_label
_atom_site_fract_x
_atom_site_fract_y
_atom_site_fract_z
Si Si1 0.314173 0.893080 0.063255
Si Si2 0.513798 0.201614 0.732138
Si Si3 0.992965 0.194512 0.390728
O O1 0.211553 0.788448 0.042936
O O2 0.446880 0.823978 0.080618
O O3 0.270544 0.951359 0.145014
O O4 0.323564 0.000000 0.000000
O O5 0.622427 0.112349 0.765129
O O6 0.501744 0.302590 0.798166
O O7 0.091459 0.091459 0.417408
O O8 0.856124 0.143877 0.412454
#
# Coordination Sequence:
#
# PCOD9560454 Si02
#       3
#    16  16  16
#     4  10  21  37  60  95 136 173 212 266 336 404
#     4   9  18  35  60  89 122 166 217 267 319 382
#     4   9  18  35  61  91 124 170 229 282 324 377
#
# _framework density 23.948157999999999
#
# number of rings (size 3 to 8) (size 9 to 14) (size 15 to 20)
#    0.000    2.667    0.000    1.000    0.000    3.000 
#    0.000   13.333    0.000    6.000    0.000   37.333 
#    0.000   11.333    0.000    0.000    0.000    0.000 
#
# Total GULP energy -134100.635414 kJ/mol
# GULP energy per Si atom -5587.526476 kJ/mol
# Density = 2.389365 g / cm^3
# Si number density = 23.948158 Si / 1000 Ang^3
#
#
#
# Elastic Constant Matrix: (Units=GPa)
#
#
# Indices 1 2 3 4 5 6 
#
# 1 97.5087 60.4847 77.1350 0.0000 0.0000 0.0000
# 2 60.4847 97.5077 77.1348 0.0000 0.0000 0.0000
# 3 77.1350 77.1348 200.5571 0.0000 0.0000 0.0000
# 4 0.0000 0.0000 0.0000 -0.7341 0.0000 0.0000
# 5 0.0000 0.0000 0.0000 0.0000 -0.7399 0.0000
# 6 0.0000 0.0000 0.0000 0.0000 0.0000 -33.9026
#
#
#
# Elastic Compliance Matrix: (Units=1/GPa)
#
#
# Indices 1 2 3 4 5 6 
#
# 1 0.018573 -0.008437 -0.003898 0.000000 0.000000 0.000000
# 2 -0.008437 0.018573 -0.003898 0.000000 0.000000 0.000000
# 3 -0.003898 -0.003898 0.007985 0.000000 0.000000 0.000000
# 4 0.000000 0.000000 0.000000 -1.362273 0.000000 0.000000
# 5 0.000000 0.000000 0.000000 0.000000 -1.351592 0.000000
# 6 0.000000 0.000000 0.000000 0.000000 0.000000 -0.029496
#
#
# Mechanical properties :
#
#
# Convention : Reuss Voigt Hill
#
# Bulk Modulus (GPa) = 78.96877 91.67582 85.32229
# Shear Modulus (GPa) = -1.87861 4.97929 1.55034
#
# Velocity S-wave (km/s) = -0.88665 1.44351 0.80547
# Velocity P-wave (km/s) = 5.65670 6.41423 6.04734
#
# Compressibility (1/GPa) = 0.01266323
#
# Stress axis : x y z
#
# Youngs Moduli (GPa) = 53.84242 53.84178 125.23989
#
# Poissons Ratio (x) = 0.45426 0.48821
# Poissons Ratio (y) = 0.45427 0.48822
# Poissons Ratio (z) = 0.20989 0.20989
#
# Static dielectric constant tensor:
#      x y z
#    x 1.942750 0.000000 0.000000 
#    y 0.000000 1.942760 0.000000 
#    z 0.000000 0.000000 1.952500 
# 
# From -- ./inp_files/4901.got.cif
#   From: 2010.05.17/outbox.cif.g08.bks.cpg/sg121_3_cif.got.tgz:4901.got - 2010.05.20 11:32:06.
