data_PCOD9560493
_publ_section_title
;
Structure prediction by ZEFSAII (Michael W. Deem and Ramdas Pophale) SiO2 
 PCOD9560493
Probable space group: I -4 2 M
;
_chemical_formula_sum "Si O2"
_cell_formula_units_Z 116
_cell_length_a 17.199866
_cell_length_b 17.199866
_cell_length_c 18.130960
_cell_angle_alpha 90.000000
_cell_angle_beta 90.000000
_cell_angle_gamma 90.000000
_cell_volume 5363.779630
_symmetry_space_group_name_H-M "I -4 2 M"
_symmetry_group_IT_number 121
_symmetry_cell_setting 'tetragonal'
loop_
_space_group_symop_operation_xyz
x,y,z
y,-x,-z
-x,-y,z
-y,x,-z
x,-y,-z
-x,y,-z
-y,-x,z
y,x,z
1/2+x,1/2+y,1/2+z
1/2+y,1/2-x,1/2-z
1/2-x,1/2-y,1/2+z
1/2-y,1/2+x,1/2-z
1/2+x,1/2-y,1/2-z
1/2-x,1/2+y,1/2-z
1/2-y,1/2-x,1/2+z
1/2+y,1/2+x,1/2+z
loop_
_atom_site_type_symbol
_atom_site_label
_atom_site_fract_x
_atom_site_fract_y
_atom_site_fract_z
Si Si1 0.370504 0.495790 0.269158
Si Si2 0.665006 0.787224 0.265437
Si Si3 0.867150 0.460842 0.650639
Si Si4 0.636171 0.822804 0.612020
Si Si5 0.779959 0.091645 0.653578
Si Si6 0.000000 0.500000 0.750000
Si Si7 0.582578 0.845016 0.970559
Si Si8 0.952788 0.828773 0.072247
O O1 0.434067 0.565934 0.268631
O O2 0.417550 0.417550 0.251815
O O3 0.309295 0.522490 0.206656
O O4 0.340619 0.497130 0.353603
O O5 0.705771 0.705771 0.282503
O O6 0.581490 0.800914 0.301743
O O7 0.666306 0.805497 0.179292
O O8 0.721796 0.853263 0.299744
O O9 0.858483 0.552046 0.635734
O O10 0.945221 0.449214 0.698257
O O11 0.876536 0.412962 0.576029
O O12 0.670518 0.863764 0.540447
O O13 0.611620 0.735162 0.593334
O O14 0.853958 0.146043 0.633790
O O15 0.729289 0.069434 0.582278
O O16 0.500000 0.873506 0.000000
O O17 0.908953 0.908953 0.054486
O O18 0.000000 0.803360 0.000000
#
# Coordination Sequence:
#
# PCOD9560493 Si02
#       8
#    16  16  16  16  16   4  16  16
#     4   9  17  33  60  90 123 169 220 269 324 387
#     4  10  21  40  66  92 126 170 215 267 332 403
#     4  11  23  39  64  94 127 165 216 270 331 400
#     4  12  23  41  63  91 126 169 216 265 332 405
#     4   9  19  39  63  89 123 170 221 269 325 399
#     4  12  20  36  66 100 120 160 214 284 328 380
#     4  11  25  41  61  89 127 167 212 274 334 405
#     4  11  22  37  61  94 135 172 211 264 324 393
#
# _framework density 21.626542000000001
#
# number of rings (size 3 to 8) (size 9 to 14) (size 15 to 20)
#    0.000    1.517    2.759    2.897    0.000    2.345 
#    0.000    4.828    0.000    0.000    0.000    0.000 
#    0.000    0.000    0.000    0.000    0.000    0.000 
#
# Total GULP energy -324337.678793 kJ/mol
# GULP energy per Si atom -5592.028945 kJ/mol
# Density = 2.157732 g / cm^3
# Si number density = 21.626542 Si / 1000 Ang^3
#
#
#
# Elastic Constant Matrix: (Units=GPa)
#
#
# Indices 1 2 3 4 5 6 
#
# 1 64.0619 23.7159 30.4098 0.0000 0.0000 0.0000
# 2 23.7159 64.0619 30.4100 0.0000 0.0000 0.0000
# 3 30.4098 30.4100 114.6284 0.0000 0.0000 0.0000
# 4 0.0000 0.0000 0.0000 21.2292 0.0000 0.0000
# 5 0.0000 0.0000 0.0000 0.0000 21.2295 0.0000
# 6 0.0000 0.0000 0.0000 0.0000 0.0000 328.5748
#
#
#
# Elastic Compliance Matrix: (Units=1/GPa)
#
#
# Indices 1 2 3 4 5 6 
#
# 1 0.019372 -0.005414 -0.003703 0.000000 0.000000 0.000000
# 2 -0.005414 0.019372 -0.003703 0.000000 0.000000 0.000000
# 3 -0.003703 -0.003703 0.010689 0.000000 0.000000 0.000000
# 4 0.000000 0.000000 0.000000 0.047105 0.000000 0.000000
# 5 0.000000 0.000000 0.000000 0.000000 0.047104 0.000000
# 6 0.000000 0.000000 0.000000 0.000000 0.000000 0.003043
#
#
# Mechanical properties :
#
#
# Convention : Reuss Voigt Hill
#
# Bulk Modulus (GPa) = 42.02927 45.75820 43.89374
# Shear Modulus (GPa) = 27.73840 84.75444 56.24642
#
# Velocity S-wave (km/s) = 3.58524 6.26698 5.10534
# Velocity P-wave (km/s) = 6.05102 8.57736 7.42246
#
# Compressibility (1/GPa) = 0.02379294
#
# Stress axis : x y z
#
# Youngs Moduli (GPa) = 51.62131 51.62116 93.55786
#
# Poissons Ratio (x) = 0.27946 0.34644
# Poissons Ratio (y) = 0.27947 0.34644
# Poissons Ratio (z) = 0.19115 0.19115
#
# Static dielectric constant tensor:
#      x y z
#    x 1.822110 0.000000 0.000000 
#    y 0.000000 1.822110 0.000000 
#    z 0.000000 0.000000 1.716580 
# 
# From -- ./inp_files/5525.got.cif
#   From: 2010.05.17/outbox.cif.g08.bks.cpg/sg121_3_cif.got.tgz:5525.got - 2010.05.20 11:32:06.
