data_PCOD9560543
_publ_section_title
;
Structure prediction by ZEFSAII (Michael W. Deem and Ramdas Pophale) SiO2 
 PCOD9560543
Probable space group: I -4 2 M
;
_chemical_formula_sum "Si O2"
_cell_formula_units_Z 80
_cell_length_a 12.106162
_cell_length_b 12.106162
_cell_length_c 25.300087
_cell_angle_alpha 90.000000
_cell_angle_beta 90.000000
_cell_angle_gamma 90.000000
_cell_volume 3707.959457
_symmetry_space_group_name_H-M "I -4 2 M"
_symmetry_group_IT_number 121
_symmetry_cell_setting 'tetragonal'
loop_
_space_group_symop_operation_xyz
x,y,z
y,-x,-z
-x,-y,z
-y,x,-z
x,-y,-z
-x,y,-z
-y,-x,z
y,x,z
1/2+x,1/2+y,1/2+z
1/2+y,1/2-x,1/2-z
1/2-x,1/2-y,1/2+z
1/2-y,1/2+x,1/2-z
1/2+x,1/2-y,1/2-z
1/2-x,1/2+y,1/2-z
1/2-y,1/2-x,1/2+z
1/2+y,1/2+x,1/2+z
loop_
_atom_site_type_symbol
_atom_site_label
_atom_site_fract_x
_atom_site_fract_y
_atom_site_fract_z
Si Si1 0.140386 0.561658 0.376916
Si Si2 0.697727 0.115651 0.479474
Si Si3 0.085511 0.737314 0.290435
Si Si4 0.776296 0.055171 0.050930
Si Si5 0.832431 0.347987 0.178309
O O1 0.138209 0.642669 0.327776
O O2 0.256395 0.534985 0.404716
O O3 0.087702 0.625438 0.427220
O O4 0.111363 0.435820 0.358328
O O5 0.500000 0.328389 0.500000
O O6 0.792360 0.207641 0.468702
O O7 0.616541 0.169867 0.523917
O O8 0.744615 0.000000 0.500000
O O9 0.148540 0.851461 0.300892
O O10 0.108548 0.702474 0.230177
O O11 0.956895 0.733997 0.304354
O O12 0.851916 0.148085 0.073900
O O13 0.743463 0.256538 0.159202
#
# Coordination Sequence:
#
# PCOD9560543 Si02
#       5
#    16  16  16  16  16
#     4  11  22  40  68  95 130 173 228 277 331 401
#     4  10  23  41  63  97 135 177 223 278 339 401
#     4  11  24  42  65  98 137 177 225 284 343 403
#     4   9  20  37  60  90 126 165 216 273 331 397
#     4  11  24  42  68  99 134 177 227 284 345 409
#
# _framework density 21.575208
#
# number of rings (size 3 to 8) (size 9 to 14) (size 15 to 20)
#    0.000    1.600    2.000    1.800    5.600    4.400 
#    0.000    0.000    0.000    9.600    0.000    0.000 
#    0.000    0.000    0.000    0.000    0.000    0.000 
#
# Total GULP energy -222871.879497 kJ/mol
# GULP energy per Si atom -5571.796987 kJ/mol
# Density = 2.152610 g / cm^3
# Si number density = 21.575208 Si / 1000 Ang^3
#
#
#
# Elastic Constant Matrix: (Units=GPa)
#
#
# Indices 1 2 3 4 5 6 
#
# 1 97.6123 70.0828 33.5313 0.0000 0.0000 0.0000
# 2 70.0828 97.6099 33.5324 0.0000 0.0000 0.0000
# 3 33.5313 33.5324 65.9417 0.0000 0.0000 0.0000
# 4 0.0000 0.0000 0.0000 2.9838 0.0000 0.0000
# 5 0.0000 0.0000 0.0000 0.0000 2.9832 0.0000
# 6 0.0000 0.0000 0.0000 0.0000 0.0000 29.1016
#
#
#
# Elastic Compliance Matrix: (Units=1/GPa)
#
#
# Indices 1 2 3 4 5 6 
#
# 1 0.021905 -0.014420 -0.003806 0.000000 0.000000 0.000000
# 2 -0.014420 0.021906 -0.003807 0.000000 0.000000 0.000000
# 3 -0.003806 -0.003807 0.019036 0.000000 0.000000 0.000000
# 4 0.000000 0.000000 0.000000 0.335140 0.000000 0.000000
# 5 0.000000 0.000000 0.000000 0.000000 0.335209 0.000000
# 6 0.000000 0.000000 0.000000 0.000000 0.000000 0.034362
#
#
# Mechanical properties :
#
#
# Convention : Reuss Voigt Hill
#
# Bulk Modulus (GPa) = 53.24422 59.49521 56.36971
# Shear Modulus (GPa) = 6.11332 15.28156 10.69744
#
# Velocity S-wave (km/s) = 1.68512 2.66426 2.22912
# Velocity P-wave (km/s) = 5.34024 6.09098 5.72792
#
# Compressibility (1/GPa) = 0.01878138
#
# Stress axis : x y z
#
# Youngs Moduli (GPa) = 45.65089 45.64883 52.53174
#
# Poissons Ratio (x) = 0.65827 0.19993
# Poissons Ratio (y) = 0.65830 0.19999
# Poissons Ratio (z) = 0.17374 0.17378
#
# Static dielectric constant tensor:
#      x y z
#    x 1.831330 0.000000 0.000000 
#    y 0.000000 1.831340 0.000000 
#    z 0.000000 0.000000 1.802010 
# 
# From -- ./inp_files/8053.got.cif
#   From: 2010.05.17/outbox.cif.g08.bks.cpg/sg121_5_cif.got.tgz:8053.got - 2010.05.20 11:32:06.
