data_PCOD9560488
_publ_section_title
;
Structure prediction by ZEFSAII (Michael W. Deem and Ramdas Pophale) SiO2 
 PCOD9560488
Probable space group: I -4 2 M
;
_chemical_formula_sum "Si O2"
_cell_formula_units_Z 120
_cell_length_a 28.326490
_cell_length_b 28.326490
_cell_length_c 8.522060
_cell_angle_alpha 90.000000
_cell_angle_beta 90.000000
_cell_angle_gamma 90.000000
_cell_volume 6838.016028
_symmetry_space_group_name_H-M "I -4 2 M"
_symmetry_group_IT_number 121
_symmetry_cell_setting 'tetragonal'
loop_
_space_group_symop_operation_xyz
x,y,z
y,-x,-z
-x,-y,z
-y,x,-z
x,-y,-z
-x,y,-z
-y,-x,z
y,x,z
1/2+x,1/2+y,1/2+z
1/2+y,1/2-x,1/2-z
1/2-x,1/2-y,1/2+z
1/2-y,1/2+x,1/2-z
1/2+x,1/2-y,1/2-z
1/2-x,1/2+y,1/2-z
1/2-y,1/2-x,1/2+z
1/2+y,1/2+x,1/2+z
loop_
_atom_site_type_symbol
_atom_site_label
_atom_site_fract_x
_atom_site_fract_y
_atom_site_fract_z
Si Si1 0.290885 0.185067 0.351325
Si Si2 0.304763 0.695238 0.354258
Si Si3 0.782508 0.138464 0.440667
Si Si4 0.949526 0.703182 0.081950
Si Si5 0.952684 0.246950 0.579967
Si Si6 0.128693 0.388326 0.752486
Si Si7 0.946580 0.351486 0.456741
Si Si8 0.260803 0.368216 0.413549
O O1 0.246978 0.189155 0.235178
O O2 0.266595 0.163800 0.508282
O O3 0.330740 0.150861 0.280605
O O4 0.318314 0.232724 0.391768
O O5 0.354944 0.703461 0.449308
O O6 0.824001 0.176000 0.469843
O O7 0.785327 0.092688 0.550859
O O8 0.781610 0.123534 0.259336
O O9 0.956380 0.734798 0.241115
O O10 0.926343 0.654036 0.138828
O O11 0.911068 0.728100 0.969737
O O12 0.000000 0.697724 0.000000
O O13 0.942935 0.295282 0.481705
O O14 0.000000 0.227200 0.500000
O O15 0.079168 0.366352 0.701324
O O16 0.123452 0.414466 0.915327
O O17 0.000000 0.363669 0.500000
#
# Coordination Sequence:
#
# PCOD9560488 Si02
#       8
#    16   8  16  16  16  16  16  16
#     4  12  23  35  51  77 116 155 187 233 282 350
#     4  12  22  36  50  80 122 154 192 231 284 345
#     4  12  23  35  52  82 116 157 195 232 290 342
#     4  11  23  40  59  84 109 149 198 249 291 342
#     4  10  21  40  59  81 112 153 197 240 287 346
#     4  11  22  39  57  82 105 138 184 233 297 339
#     4  10  22  39  61  82 105 138 182 237 294 357
#     4  12  24  35  53  80 114 157 197 236 284 341
#
# _framework density 17.548950000000001
#
# number of rings (size 3 to 8) (size 9 to 14) (size 15 to 20)
#    0.000    0.800    5.333    3.600    1.867    5.333 
#    0.000    0.000    0.000    3.200    0.000    0.000 
#    0.000    0.267    0.000    0.000    0.000    2.200 
#
# Total GULP energy -334099.537899 kJ/mol
# GULP energy per Si atom -5568.325632 kJ/mol
# Density = 1.750901 g / cm^3
# Si number density = 17.548950 Si / 1000 Ang^3
#
#
#
# Elastic Constant Matrix: (Units=GPa)
#
#
# Indices 1 2 3 4 5 6 
#
# 1 29.3217 17.3687 11.0020 0.0000 0.0000 0.0000
# 2 17.3687 29.3212 11.0002 0.0000 0.0000 0.0000
# 3 11.0020 11.0002 41.2757 0.0000 0.0000 0.0000
# 4 0.0000 0.0000 0.0000 43.1184 0.0000 0.0000
# 5 0.0000 0.0000 0.0000 0.0000 43.1182 0.0000
# 6 0.0000 0.0000 0.0000 0.0000 0.0000 14.9998
#
#
#
# Elastic Compliance Matrix: (Units=1/GPa)
#
#
# Indices 1 2 3 4 5 6 
#
# 1 0.054079 -0.029584 -0.006530 0.000000 0.000000 0.000000
# 2 -0.029584 0.054078 -0.006526 0.000000 0.000000 0.000000
# 3 -0.006530 -0.006526 0.027707 0.000000 0.000000 0.000000
# 4 0.000000 0.000000 0.000000 0.023192 0.000000 0.000000
# 5 0.000000 0.000000 0.000000 0.000000 0.023192 0.000000
# 6 0.000000 0.000000 0.000000 0.000000 0.000000 0.066668
#
#
# Mechanical properties :
#
#
# Convention : Reuss Voigt Hill
#
# Bulk Modulus (GPa) = 19.76980 19.85116 19.81048
# Shear Modulus (GPa) = 14.24264 24.28379 19.26322
#
# Velocity S-wave (km/s) = 2.85194 3.72395 3.31673
# Velocity P-wave (km/s) = 4.70476 5.46139 5.09713
#
# Compressibility (1/GPa) = 0.05058221
#
# Stress axis : x y z
#
# Youngs Moduli (GPa) = 18.49150 18.49183 36.09151
#
# Poissons Ratio (x) = 0.54707 0.23569
# Poissons Ratio (y) = 0.54706 0.23555
# Poissons Ratio (z) = 0.12076 0.12069
#
# Static dielectric constant tensor:
#      x y z
#    x 0.000000 0.000000 0.000000 
#    y 0.000000 0.000000 0.000000 
#    z 0.000000 0.000000 0.000000 
# 
# From -- ./inp_files/2164.got.cif
#   From: 2010.05.17/outbox.cif.g08.bks.cpg/sg121_2_cif.got.tgz:2164.got - 2010.05.20 11:32:06.
