data_PCOD9560845
_publ_section_title
;
Structure prediction by ZEFSAII (Michael W. Deem and Ramdas Pophale) SiO2 
 PCOD9560845
Probable space group: I -4 2 D
;
_chemical_formula_sum "Si O2"
_cell_formula_units_Z 72
_cell_length_a 23.312015
_cell_length_b 23.312015
_cell_length_c 7.481360
_cell_angle_alpha 90.000000
_cell_angle_beta 90.000000
_cell_angle_gamma 90.000000
_cell_volume 4065.745416
_symmetry_space_group_name_H-M "I -4 2 D"
_symmetry_group_IT_number 122
_symmetry_cell_setting 'tetragonal'
loop_
_space_group_symop_operation_xyz
x,y,z
y,-x,-z
-x,-y,z
-y,x,-z
x,1/2-y,1/4-z
-x,1/2+y,1/4-z
-y,1/2-x,1/4+z
y,1/2+x,1/4+z
1/2+x,1/2+y,1/2+z
1/2+y,1/2-x,1/2-z
1/2-x,1/2-y,1/2+z
1/2-y,1/2+x,1/2-z
1/2+x,-y,3/4-z
1/2-x,y,3/4-z
1/2-y,-x,3/4+z
1/2+y,x,3/4+z
loop_
_atom_site_type_symbol
_atom_site_label
_atom_site_fract_x
_atom_site_fract_y
_atom_site_fract_z
Si Si1 0.468363 0.633564 0.599021
Si Si2 0.600089 0.250000 0.625000
Si Si3 0.562150 0.432543 0.952628
Si Si4 0.183917 0.781651 0.815428
Si Si5 0.117558 0.900082 0.801927
O O1 0.440555 0.695193 0.629978
O O2 0.443704 0.592333 0.755190
O O3 0.441176 0.613641 0.410936
O O4 0.537084 0.635259 0.623413
O O5 0.641804 0.250498 0.454701
O O6 0.499859 0.425329 0.043678
O O7 0.606034 0.404186 0.090087
O O8 0.177955 0.750000 0.625000
O O9 0.250000 0.778581 0.875000
O O10 0.161979 0.847852 0.824501
#
# Coordination Sequence:
#
# PCOD9560845 Si02
#       5
#    16   8  16  16  16
#     4  10  20  35  55  82 114 144 185 229 288 338
#     4  10  22  38  56  80 112 148 184 244 286 336
#     4   9  17  31  52  78 110 144 176 215 271 341
#     4  11  22  39  60  80 108 150 198 237 286 339
#     4  10  21  34  57  84 113 147 185 233 285 347
#
# _framework density 17.708929000000001
#
# number of rings (size 3 to 8) (size 9 to 14) (size 15 to 20)
#    0.000    2.000    1.111    2.667    1.556    2.222 
#    0.000    0.000    0.000    1.333    0.000    0.000 
#    0.000    0.000    0.000    0.000    0.000    0.000 
#
# Total GULP energy -200642.782434 kJ/mol
# GULP energy per Si atom -5573.410623 kJ/mol
# Density = 1.766862 g / cm^3
# Si number density = 17.708929 Si / 1000 Ang^3
#
#
#
# Elastic Constant Matrix: (Units=GPa)
#
#
# Indices 1 2 3 4 5 6 
#
# 1 68.9307 45.1401 30.2267 0.0000 0.0000 0.0000
# 2 45.1401 68.9307 30.2267 0.0000 0.0000 0.0000
# 3 30.2267 30.2267 86.2256 0.0000 0.0000 0.0000
# 4 0.0000 0.0000 0.0000 19.1498 0.0000 0.0000
# 5 0.0000 0.0000 0.0000 0.0000 19.1498 0.0000
# 6 0.0000 0.0000 0.0000 0.0000 0.0000 2.8518
#
#
#
# Elastic Compliance Matrix: (Units=1/GPa)
#
#
# Indices 1 2 3 4 5 6 
#
# 1 0.026400 -0.015633 -0.003774 0.000000 0.000000 0.000000
# 2 -0.015633 0.026400 -0.003774 0.000000 0.000000 0.000000
# 3 -0.003774 -0.003774 0.014244 0.000000 0.000000 0.000000
# 4 0.000000 0.000000 0.000000 0.052220 0.000000 0.000000
# 5 0.000000 0.000000 0.000000 0.000000 0.052220 0.000000
# 6 0.000000 0.000000 0.000000 0.000000 0.000000 0.350652
#
#
# Mechanical properties :
#
#
# Convention : Reuss Voigt Hill
#
# Bulk Modulus (GPa) = 48.35619 48.36380 48.35999
# Shear Modulus (GPa) = 8.68972 16.12984 12.40978
#
# Velocity S-wave (km/s) = 2.21757 3.02127 2.65007
# Velocity P-wave (km/s) = 5.82428 6.28812 6.06064
#
# Compressibility (1/GPa) = 0.02067988
#
# Stress axis : x y z
#
# Youngs Moduli (GPa) = 37.87880 37.87880 70.20656
#
# Poissons Ratio (x) = 0.59217 0.26498
# Poissons Ratio (y) = 0.59217 0.26498
# Poissons Ratio (z) = 0.14297 0.14297
#
# Static dielectric constant tensor:
#      x y z
#    x 1.596350 0.000000 0.000000 
#    y 0.000000 1.596350 0.000000 
#    z 0.000000 0.000000 1.627690 
# 
# From -- ./inp_files/2646.got.cif
#   From: 2010.05.17/outbox.cif.g08.bks.cpg/sg122_2_cif.got.tgz:2646.got - 2010.05.20 11:37:33.
