data_PCOD9560414
_publ_section_title
;
Structure prediction by ZEFSAII (Michael W. Deem and Ramdas Pophale) SiO2 
 PCOD9560414
Probable space group: I -4 2 M
;
_chemical_formula_sum "Si O2"
_cell_formula_units_Z 88
_cell_length_a 16.183433
_cell_length_b 16.183433
_cell_length_c 20.024439
_cell_angle_alpha 90.000000
_cell_angle_beta 90.000000
_cell_angle_gamma 90.000000
_cell_volume 5244.470733
_symmetry_space_group_name_H-M "I -4 2 M"
_symmetry_group_IT_number 121
_symmetry_cell_setting 'tetragonal'
loop_
_space_group_symop_operation_xyz
x,y,z
y,-x,-z
-x,-y,z
-y,x,-z
x,-y,-z
-x,y,-z
-y,-x,z
y,x,z
1/2+x,1/2+y,1/2+z
1/2+y,1/2-x,1/2-z
1/2-x,1/2-y,1/2+z
1/2-y,1/2+x,1/2-z
1/2+x,1/2-y,1/2-z
1/2-x,1/2+y,1/2-z
1/2-y,1/2-x,1/2+z
1/2+y,1/2+x,1/2+z
loop_
_atom_site_type_symbol
_atom_site_label
_atom_site_fract_x
_atom_site_fract_y
_atom_site_fract_z
Si Si1 0.588056 0.821449 0.733172
Si Si2 0.391225 0.608776 0.864839
Si Si3 0.291934 0.291934 0.034099
Si Si4 0.441250 0.693226 0.159688
Si Si5 0.540362 0.090121 0.650138
Si Si6 0.265077 0.734924 0.818234
Si Si7 0.582292 0.175292 0.043823
O O1 0.549807 0.743455 0.771833
O O2 0.533101 0.848535 0.670495
O O3 0.588995 0.896848 0.786496
O O4 0.680782 0.797840 0.713172
O O5 0.358883 0.641118 0.937159
O O6 0.369638 0.514780 0.853026
O O7 0.335412 0.664589 0.815105
O O8 0.254174 0.254174 0.101933
O O9 0.221946 0.343861 0.995340
O O10 0.354796 0.645205 0.158616
O O11 0.444332 0.760137 0.101053
O O12 0.593327 0.109290 0.584033
O O13 0.500000 0.000000 0.642821
O O14 0.500000 0.159315 0.000000
#
# Coordination Sequence:
#
# PCOD9560414 Si02
#       7
#    16   8   8  16  16   8  16
#     4  11  20  40  56  90 116 149 197 236 304 353
#     4  10  21  34  56  79 112 156 186 238 290 333
#     4  10  22  38  55  78 117 158 195 233 282 350
#     4  11  21  35  58  84 117 154 190 238 287 354
#     4  11  23  35  61  85 121 152 192 249 297 351
#     4  10  22  36  63  78 111 164 185 245 294 345
#     4  11  22  38  55  84 120 156 198 236 289 355
#
# _framework density 16.779577
#
# number of rings (size 3 to 8) (size 9 to 14) (size 15 to 20)
#    0.545    0.727    5.455    1.364    5.091    0.364 
#    0.000    0.909    0.000    0.000    0.000    0.000 
#    0.000    0.000    0.000    0.000    0.000    0.000 
#
# Total GULP energy -245377.557187 kJ/mol
# GULP energy per Si atom -5576.762663 kJ/mol
# Density = 1.674139 g / cm^3
# Si number density = 16.779577 Si / 1000 Ang^3
#
#
#
# Elastic Constant Matrix: (Units=GPa)
#
#
# Indices 1 2 3 4 5 6 
#
# 1 56.7566 22.6571 23.4559 0.0000 0.0000 0.0000
# 2 22.6571 56.7496 23.4590 0.0000 0.0000 0.0000
# 3 23.4559 23.4590 57.4455 0.0000 0.0000 0.0000
# 4 0.0000 0.0000 0.0000 26.6460 0.0000 0.0000
# 5 0.0000 0.0000 0.0000 0.0000 26.6476 0.0000
# 6 0.0000 0.0000 0.0000 0.0000 0.0000 32.7845
#
#
#
# Elastic Compliance Matrix: (Units=1/GPa)
#
#
# Indices 1 2 3 4 5 6 
#
# 1 0.022961 -0.006366 -0.006775 0.000000 0.000000 0.000000
# 2 -0.006366 0.022965 -0.006779 0.000000 0.000000 0.000000
# 3 -0.006775 -0.006779 0.022943 0.000000 0.000000 0.000000
# 4 0.000000 0.000000 0.000000 0.037529 0.000000 0.000000
# 5 0.000000 0.000000 0.000000 0.000000 0.037527 0.000000
# 6 0.000000 0.000000 0.000000 0.000000 0.000000 0.030502
#
#
# Mechanical properties :
#
#
# Convention : Reuss Voigt Hill
#
# Bulk Modulus (GPa) = 34.45015 34.45508 34.45261
# Shear Modulus (GPa) = 22.32710 23.97426 23.15068
#
# Velocity S-wave (km/s) = 3.65171 3.78402 3.71845
# Velocity P-wave (km/s) = 6.19319 6.29843 6.24603
#
# Compressibility (1/GPa) = 0.02902745
#
# Stress axis : x y z
#
# Youngs Moduli (GPa) = 43.55300 43.54424 43.58708
#
# Poissons Ratio (x) = 0.27721 0.29532
# Poissons Ratio (y) = 0.27726 0.29547
# Poissons Ratio (z) = 0.29509 0.29518
#
# Static dielectric constant tensor:
#      x y z
#    x 1.560160 0.000000 0.000000 
#    y 0.000000 1.560160 0.000000 
#    z 0.000000 0.000000 1.581820 
# 
# From -- ./inp_files/6350.got.cif
#   From: 2010.05.17/outbox.cif.g08.bks.cpg/sg121_4_cif.got.tgz:6350.got - 2010.05.20 11:32:06.
