data_PCOD9560432
_publ_section_title
;
Structure prediction by ZEFSAII (Michael W. Deem and Ramdas Pophale) SiO2 
 PCOD9560432
Probable space group: I -4 2 M
;
_chemical_formula_sum "Si O2"
_cell_formula_units_Z 72
_cell_length_a 10.961434
_cell_length_b 10.961434
_cell_length_c 27.659870
_cell_angle_alpha 90.000000
_cell_angle_beta 90.000000
_cell_angle_gamma 90.000000
_cell_volume 3323.417338
_symmetry_space_group_name_H-M "I -4 2 M"
_symmetry_group_IT_number 121
_symmetry_cell_setting 'tetragonal'
loop_
_space_group_symop_operation_xyz
x,y,z
y,-x,-z
-x,-y,z
-y,x,-z
x,-y,-z
-x,y,-z
-y,-x,z
y,x,z
1/2+x,1/2+y,1/2+z
1/2+y,1/2-x,1/2-z
1/2-x,1/2-y,1/2+z
1/2-y,1/2+x,1/2-z
1/2+x,1/2-y,1/2-z
1/2-x,1/2+y,1/2-z
1/2-y,1/2-x,1/2+z
1/2+y,1/2+x,1/2+z
loop_
_atom_site_type_symbol
_atom_site_label
_atom_site_fract_x
_atom_site_fract_y
_atom_site_fract_z
Si Si1 0.500000 0.703695 0.500000
Si Si2 0.798551 0.004538 0.732372
Si Si3 0.138359 0.331365 0.085042
Si Si4 0.039882 0.763662 0.161826
Si Si5 0.928730 0.268314 0.627301
O O1 0.611830 0.611830 0.486246
O O2 0.546430 0.788954 0.543134
O O3 0.864414 0.135587 0.739379
O O4 0.739295 0.007521 0.679997
O O5 0.728866 0.974909 0.781746
O O6 0.903736 0.903736 0.729383
O O7 0.265187 0.265187 0.074291
O O8 0.171668 0.472481 0.092007
O O9 0.081698 0.268858 0.133080
O O10 0.099770 0.900231 0.160176
O O11 0.137269 0.678837 0.135730
O O12 0.862436 0.137565 0.616234
#
# Coordination Sequence:
#
# PCOD9560432 Si02
#       5
#     8  16  16  16  16
#     4   9  20  40  67 100 130 158 209 283 348 396
#     4   9  18  33  53  80 119 166 212 256 303 363
#     4  11  22  38  64  93 125 166 207 258 326 392
#     4  10  21  36  56  85 122 164 213 269 318 367
#     4  10  22  38  56  86 130 174 213 258 309 378
#
# _framework density 21.664446000000002
#
# number of rings (size 3 to 8) (size 9 to 14) (size 15 to 20)
#    0.000    2.111    0.000    2.667    3.111    3.556 
#    0.000    2.222    0.000    0.000    0.000    3.111 
#    0.000   21.333    0.000    0.000    0.000    0.000 
#
# Total GULP energy -200778.391485 kJ/mol
# GULP energy per Si atom -5577.177541 kJ/mol
# Density = 2.161514 g / cm^3
# Si number density = 21.664446 Si / 1000 Ang^3
#
#
#
# Elastic Constant Matrix: (Units=GPa)
#
#
# Indices 1 2 3 4 5 6 
#
# 1 96.0477 47.4226 49.6676 0.0000 0.0000 0.0000
# 2 47.4226 96.0472 49.6674 0.0000 0.0000 0.0000
# 3 49.6676 49.6674 65.2751 0.0000 0.0000 0.0000
# 4 0.0000 0.0000 0.0000 22.3957 0.0000 0.0000
# 5 0.0000 0.0000 0.0000 0.0000 22.3951 0.0000
# 6 0.0000 0.0000 0.0000 0.0000 0.0000 18.5391
#
#
#
# Elastic Compliance Matrix: (Units=1/GPa)
#
#
# Indices 1 2 3 4 5 6 
#
# 1 0.017648 -0.002918 -0.011208 0.000000 0.000000 0.000000
# 2 -0.002918 0.017648 -0.011208 0.000000 0.000000 0.000000
# 3 -0.011208 -0.011208 0.032377 0.000000 0.000000 0.000000
# 4 0.000000 0.000000 0.000000 0.044651 0.000000 0.000000
# 5 0.000000 0.000000 0.000000 0.000000 0.044653 0.000000
# 6 0.000000 0.000000 0.000000 0.000000 0.000000 0.053940
#
#
# Mechanical properties :
#
#
# Convention : Reuss Voigt Hill
#
# Bulk Modulus (GPa) = 58.80937 61.20948 60.00943
# Shear Modulus (GPa) = 18.70886 20.04015 19.37450
#
# Velocity S-wave (km/s) = 2.94185 3.04472 2.99373
# Velocity P-wave (km/s) = 6.22445 6.37771 6.30155
#
# Compressibility (1/GPa) = 0.01700409
#
# Stress axis : x y z
#
# Youngs Moduli (GPa) = 56.66362 56.66348 30.88660
#
# Poissons Ratio (x) = 0.16532 0.34619
# Poissons Ratio (y) = 0.16532 0.34619
# Poissons Ratio (z) = 0.63511 0.63510
#
# Static dielectric constant tensor:
#      x y z
#    x 1.861420 0.000000 0.000000 
#    y 0.000000 1.861440 0.000000 
#    z 0.000000 0.000000 1.799700 
# 
# From -- ./inp_files/7557.got.cif
#   From: 2010.05.17/outbox.cif.g08.bks.cpg/sg121_4_cif.got.tgz:7557.got - 2010.05.20 11:32:06.
