data_PCOD9560026
_publ_section_title
;
Structure prediction by ZEFSAII (Michael W. Deem and Ramdas Pophale) SiO2 
 PCOD9560026
Probable space group: I -4 C 2
;
_chemical_formula_sum "Si O2"
_cell_formula_units_Z 48
_cell_length_a 9.767145
_cell_length_b 9.767145
_cell_length_c 18.881554
_cell_angle_alpha 90.000000
_cell_angle_beta 90.000000
_cell_angle_gamma 90.000000
_cell_volume 1801.245900
_symmetry_space_group_name_H-M "I -4 C 2"
_symmetry_group_IT_number 120
_symmetry_cell_setting 'tetragonal'
loop_
_space_group_symop_operation_xyz
x,y,z
y,-x,-z
-x,-y,z
-y,x,-z
y,x,1/2-z
-y,-x,1/2-z
-x,y,1/2+z
x,-y,1/2+z
1/2+x,1/2+y,1/2+z
1/2+y,1/2-x,1/2-z
1/2-x,1/2-y,1/2+z
1/2-y,1/2+x,1/2-z
1/2+y,1/2+x,-z
1/2-y,1/2-x,-z
1/2-x,1/2+y,z
1/2+x,1/2-y,z
loop_
_atom_site_type_symbol
_atom_site_label
_atom_site_fract_x
_atom_site_fract_y
_atom_site_fract_z
Si Si1 0.413860 0.623639 0.053060
Si Si2 0.895064 0.600625 0.871905
Si Si3 0.776751 0.994529 0.740849
O O1 0.500000 0.500000 0.093364
O O2 0.355473 0.756731 0.089323
O O3 0.535000 0.678852 0.999960
O O4 0.833698 0.522234 0.802107
O O5 0.000000 0.500000 0.910024
O O6 0.987059 0.719292 0.838262
O O7 0.888779 0.111222 0.750000
O O8 0.848070 0.848070 0.750000
#
# Coordination Sequence:
#
# PCOD9560026 Si02
#       3
#    16  16  16
#     4   6  18  40  72 111 140 219 276 312 410 477
#     4  12  21  41  71 119 156 193 272 344 404 510
#     4  11  25  40  66 113 163 213 256 333 434 491
#
# _framework density 26.648222000000001
#
# number of rings (size 3 to 8) (size 9 to 14) (size 15 to 20)
#    2.000    0.333    3.333    1.000    4.667    0.000 
#    0.000    0.000    0.000   16.000    0.000    0.000 
#    0.000    0.000    0.000    0.000    0.000    0.000 
#
# Total GULP energy -133945.950712 kJ/mol
# GULP energy per Si atom -5581.081280 kJ/mol
# Density = 2.658757 g / cm^3
# Si number density = 26.648222 Si / 1000 Ang^3
#
#
#
# Elastic Constant Matrix: (Units=GPa)
#
#
# Indices 1 2 3 4 5 6 
#
# 1 88.7209 19.2851 9.2644 0.0000 0.0000 0.0000
# 2 19.2851 88.7231 9.2645 0.0000 0.0000 0.0000
# 3 9.2644 9.2645 55.1228 0.0000 0.0000 0.0000
# 4 0.0000 0.0000 0.0000 22.9999 0.0000 0.0000
# 5 0.0000 0.0000 0.0000 0.0000 23.0002 0.0000
# 6 0.0000 0.0000 0.0000 0.0000 0.0000 59.0820
#
#
#
# Elastic Compliance Matrix: (Units=1/GPa)
#
#
# Indices 1 2 3 4 5 6 
#
# 1 0.011968 -0.002434 -0.001602 0.000000 0.000000 0.000000
# 2 -0.002434 0.011967 -0.001602 0.000000 0.000000 0.000000
# 3 -0.001602 -0.001602 0.018680 0.000000 0.000000 0.000000
# 4 0.000000 0.000000 0.000000 0.043479 0.000000 0.000000
# 5 0.000000 0.000000 0.000000 0.000000 0.043478 0.000000
# 6 0.000000 0.000000 0.000000 0.000000 0.000000 0.016926
#
#
# Mechanical properties :
#
#
# Convention : Reuss Voigt Hill
#
# Bulk Modulus (GPa) = 31.91035 34.24386 33.07711
# Shear Modulus (GPa) = 29.72297 33.99995 31.86146
#
# Velocity S-wave (km/s) = 3.34336 3.57582 3.46154
# Velocity P-wave (km/s) = 5.18698 5.47055 5.33065
#
# Compressibility (1/GPa) = 0.03133779
#
# Stress axis : x y z
#
# Youngs Moduli (GPa) = 83.55826 83.56040 53.53347
#
# Poissons Ratio (x) = 0.20339 0.08578
# Poissons Ratio (y) = 0.20338 0.08578
# Poissons Ratio (z) = 0.13389 0.13389
#
# Static dielectric constant tensor:
#      x y z
#    x 2.129420 0.000000 0.000000 
#    y 0.000000 2.129420 0.000000 
#    z 0.000000 0.000000 2.230810 
# 
# From -- ./inp_files/5621.got.cif
#   From: 2010.05.17/outbox.cif.g08.bks.cpg/sg120_3_cif.got.tgz:5621.got - 2010.05.20 11:28:13.
