data_PCOD9560770
_publ_section_title
;
Structure prediction by ZEFSAII (Michael W. Deem and Ramdas Pophale) SiO2 
 PCOD9560770
Probable space group: I -4 2 D
;
_chemical_formula_sum "Si O2"
_cell_formula_units_Z 104
_cell_length_a 17.595803
_cell_length_b 17.595803
_cell_length_c 16.032668
_cell_angle_alpha 90.000000
_cell_angle_beta 90.000000
_cell_angle_gamma 90.000000
_cell_volume 4963.910946
_symmetry_space_group_name_H-M "I -4 2 D"
_symmetry_group_IT_number 122
_symmetry_cell_setting 'tetragonal'
loop_
_space_group_symop_operation_xyz
x,y,z
y,-x,-z
-x,-y,z
-y,x,-z
x,1/2-y,1/4-z
-x,1/2+y,1/4-z
-y,1/2-x,1/4+z
y,1/2+x,1/4+z
1/2+x,1/2+y,1/2+z
1/2+y,1/2-x,1/2-z
1/2-x,1/2-y,1/2+z
1/2-y,1/2+x,1/2-z
1/2+x,-y,3/4-z
1/2-x,y,3/4-z
1/2-y,-x,3/4+z
1/2+y,x,3/4+z
loop_
_atom_site_type_symbol
_atom_site_label
_atom_site_fract_x
_atom_site_fract_y
_atom_site_fract_z
Si Si1 0.365314 0.643491 0.009318
Si Si2 0.697160 0.575769 0.149867
Si Si3 0.239901 0.232893 0.036211
Si Si4 0.846813 0.372677 0.177984
Si Si5 0.270167 0.962438 0.540584
Si Si6 0.033526 0.750000 0.625000
Si Si7 0.280366 0.999071 0.788412
O O1 0.410079 0.632603 0.920839
O O2 0.300227 0.703762 0.984745
O O3 0.315392 0.573069 0.041828
O O4 0.417208 0.685357 0.077987
O O5 0.715030 0.655709 0.193031
O O6 0.764870 0.542094 0.090603
O O7 0.708497 0.517294 0.226965
O O8 0.200719 0.250000 0.125000
O O9 0.184565 0.218528 0.959472
O O10 0.826744 0.406110 0.087836
O O11 0.924250 0.326778 0.188991
O O12 0.837302 0.442824 0.241206
O O13 0.287490 0.981023 0.445639
O O14 0.250000 0.968227 0.875000
#
# Coordination Sequence:
#
# PCOD9560770 Si02
#       7
#    16  16  16  16  16   8  16
#     4  10  19  33  58  86 111 156 194 239 304 352
#     4   8  19  35  48  85 117 138 188 245 285 349
#     4   9  17  31  58  83 112 140 192 252 291 343
#     4  10  21  35  53  83 115 148 198 239 300 356
#     4  10  21  34  56  83 117 160 186 246 303 350
#     4  10  22  36  52  90 128 148 202 258 292 358
#     4  10  21  36  57  79 116 154 186 247 301 353
#
# _framework density 20.951222999999999
#
# number of rings (size 3 to 8) (size 9 to 14) (size 15 to 20)
#    0.000    2.462    0.000    1.385    7.538    0.308 
#    0.000    4.615    0.000    7.385    0.000    0.000 
#    0.000    0.000    0.000    0.000    0.000    0.000 
#
# Total GULP energy -289614.498118 kJ/mol
# GULP energy per Si atom -5569.509579 kJ/mol
# Density = 2.090354 g / cm^3
# Si number density = 20.951223 Si / 1000 Ang^3
#
#
#
# Elastic Constant Matrix: (Units=GPa)
#
#
# Indices 1 2 3 4 5 6 
#
# 1 67.7906 22.6299 31.0291 0.0000 0.0000 0.0000
# 2 22.6299 67.7906 31.0291 0.0000 0.0000 0.0000
# 3 31.0291 31.0291 143.0697 0.0000 0.0000 0.0000
# 4 0.0000 0.0000 0.0000 31.0753 0.0000 0.0000
# 5 0.0000 0.0000 0.0000 0.0000 31.0753 0.0000
# 6 0.0000 0.0000 0.0000 0.0000 0.0000 -22.9921
#
#
#
# Elastic Compliance Matrix: (Units=1/GPa)
#
#
# Indices 1 2 3 4 5 6 
#
# 1 0.017568 -0.004575 -0.002818 0.000000 0.000000 0.000000
# 2 -0.004575 0.017568 -0.002818 0.000000 0.000000 0.000000
# 3 -0.002818 -0.002818 0.008212 0.000000 0.000000 0.000000
# 4 0.000000 0.000000 0.000000 0.032180 0.000000 0.000000
# 5 0.000000 0.000000 0.000000 0.000000 0.032180 0.000000
# 6 0.000000 0.000000 0.000000 0.000000 0.000000 -0.043493
#
#
# Mechanical properties :
#
#
# Convention : Reuss Voigt Hill
#
# Bulk Modulus (GPa) = 43.61695 49.78077 46.69886
# Shear Modulus (GPa) = 54.18325 20.76254 37.47290
#
# Velocity S-wave (km/s) = 5.09095 3.15142 4.23375
# Velocity P-wave (km/s) = 7.44450 6.08719 6.79979
#
# Compressibility (1/GPa) = 0.02292687
#
# Stress axis : x y z
#
# Youngs Moduli (GPa) = 56.92053 56.92053 121.77357
#
# Poissons Ratio (x) = 0.26040 0.34316
# Poissons Ratio (y) = 0.26040 0.34316
# Poissons Ratio (z) = 0.16041 0.16041
#
# Static dielectric constant tensor:
#      x y z
#    x 1.772320 0.000000 0.000000 
#    y 0.000000 1.772320 0.000000 
#    z 0.000000 0.000000 1.852100 
# 
# From -- ./inp_files/6411.got.cif
#   From: 2010.05.17/outbox.cif.g08.bks.cpg/sg122_4_cif.got.tgz:6411.got - 2010.05.20 11:37:33.
