data_PCOD9560633
_publ_section_title
;
Structure prediction by ZEFSAII (Michael W. Deem and Ramdas Pophale) SiO2 
 PCOD9560633
Probable space group: I -4 2 M
;
_chemical_formula_sum "Si O2"
_cell_formula_units_Z 58
_cell_length_a 11.368285
_cell_length_b 11.368285
_cell_length_c 22.791596
_cell_angle_alpha 90.000000
_cell_angle_beta 90.000000
_cell_angle_gamma 90.000000
_cell_volume 2945.538092
_symmetry_space_group_name_H-M "I -4 2 M"
_symmetry_group_IT_number 121
_symmetry_cell_setting 'tetragonal'
loop_
_space_group_symop_operation_xyz
x,y,z
y,-x,-z
-x,-y,z
-y,x,-z
x,-y,-z
-x,y,-z
-y,-x,z
y,x,z
1/2+x,1/2+y,1/2+z
1/2+y,1/2-x,1/2-z
1/2-x,1/2-y,1/2+z
1/2-y,1/2+x,1/2-z
1/2+x,1/2-y,1/2-z
1/2-x,1/2+y,1/2-z
1/2-y,1/2-x,1/2+z
1/2+y,1/2+x,1/2+z
loop_
_atom_site_type_symbol
_atom_site_label
_atom_site_fract_x
_atom_site_fract_y
_atom_site_fract_z
Si Si1 0.175539 0.499850 0.226458
Si Si2 0.000000 0.000000 0.000000
Si Si3 0.596160 0.403841 0.287292
Si Si4 0.000000 0.803958 0.500000
Si Si5 0.335018 0.335018 0.581572
Si Si6 0.561695 0.872716 0.094708
O O1 0.114681 0.407923 0.270933
O O2 0.301444 0.537028 0.249198
O O3 0.168267 0.444370 0.162290
O O4 0.082567 0.917434 0.958804
O O5 0.500000 0.500000 0.301793
O O6 0.643120 0.356881 0.349195
O O7 0.009728 0.720150 0.555939
O O8 0.112042 0.887959 0.493415
O O9 0.196863 0.366106 0.572650
O O10 0.500000 0.000000 0.089785
#
# Coordination Sequence:
#
# PCOD9560633 Si02
#       6
#    16   2   8   8   8  16
#     4  11  23  46  69 101 139 181 226 282 346 422
#     4  12  32  48  68 104 132 196 236 286 352 400
#     4  12  26  40  70 105 139 183 224 289 351 410
#     4  11  27  46  68 102 139 177 236 290 344 421
#     4  12  26  50  69  98 149 177 242 291 335 427
#     4  12  25  47  73  99 138 186 233 288 355 411
#
# _framework density 19.690798999999998
#
# number of rings (size 3 to 8) (size 9 to 14) (size 15 to 20)
#    0.000    0.414    7.586    0.414    9.655    0.000 
#    0.000    0.000    0.000    0.000    0.000    0.000 
#    0.000    0.000    0.000    0.000    0.000    0.000 
#
# Total GULP energy -162117.377676 kJ/mol
# GULP energy per Si atom -5590.254403 kJ/mol
# Density = 1.964598 g / cm^3
# Si number density = 19.690799 Si / 1000 Ang^3
#
#
#
# Elastic Constant Matrix: (Units=GPa)
#
#
# Indices 1 2 3 4 5 6 
#
# 1 73.0390 21.7021 15.0404 0.0000 0.0000 0.0000
# 2 21.7021 73.0385 15.0402 0.0000 0.0000 0.0000
# 3 15.0404 15.0402 81.3914 0.0000 0.0000 0.0000
# 4 0.0000 0.0000 0.0000 15.4210 0.0000 0.0000
# 5 0.0000 0.0000 0.0000 0.0000 15.4122 0.0000
# 6 0.0000 0.0000 0.0000 0.0000 0.0000 18.7545
#
#
#
# Elastic Compliance Matrix: (Units=1/GPa)
#
#
# Indices 1 2 3 4 5 6 
#
# 1 0.015346 -0.004133 -0.002072 0.000000 0.000000 0.000000
# 2 -0.004133 0.015346 -0.002072 0.000000 0.000000 0.000000
# 3 -0.002072 -0.002072 0.013052 0.000000 0.000000 0.000000
# 4 0.000000 0.000000 0.000000 0.064847 0.000000 0.000000
# 5 0.000000 0.000000 0.000000 0.000000 0.064884 0.000000
# 6 0.000000 0.000000 0.000000 0.000000 0.000000 0.053321
#
#
# Mechanical properties :
#
#
# Convention : Reuss Voigt Hill
#
# Bulk Modulus (GPa) = 36.77838 36.78160 36.77999
# Shear Modulus (GPa) = 19.80878 21.62993 20.71936
#
# Velocity S-wave (km/s) = 3.17518 3.31793 3.24734
# Velocity P-wave (km/s) = 5.67105 5.77913 5.72535
#
# Compressibility (1/GPa) = 0.02718989
#
# Stress axis : x y z
#
# Youngs Moduli (GPa) = 65.16320 65.16279 76.61598
#
# Poissons Ratio (x) = 0.26933 0.15875
# Poissons Ratio (y) = 0.26933 0.15875
# Poissons Ratio (z) = 0.13502 0.13502
#
# Static dielectric constant tensor:
#      x y z
#    x 1.701460 0.000000 0.000000 
#    y 0.000000 1.701460 0.000000 
#    z 0.000000 0.000000 1.705370 
# 
# From -- ./inp_files/6089.got.cif
#   From: 2010.05.17/outbox.cif.g08.bks.cpg/sg121_4_cif.got.tgz:6089.got - 2010.05.20 11:32:06.
