data_PCOD9560341
_publ_section_title
;
Structure prediction by ZEFSAII (Michael W. Deem and Ramdas Pophale) SiO2 
 PCOD9560341
Probable space group: I -4 2 M
;
_chemical_formula_sum "Si O2"
_cell_formula_units_Z 56
_cell_length_a 14.126157
_cell_length_b 14.126157
_cell_length_c 12.205835
_cell_angle_alpha 90.000000
_cell_angle_beta 90.000000
_cell_angle_gamma 90.000000
_cell_volume 2435.653766
_symmetry_space_group_name_H-M "I -4 2 M"
_symmetry_group_IT_number 121
_symmetry_cell_setting 'tetragonal'
loop_
_space_group_symop_operation_xyz
x,y,z
y,-x,-z
-x,-y,z
-y,x,-z
x,-y,-z
-x,y,-z
-y,-x,z
y,x,z
1/2+x,1/2+y,1/2+z
1/2+y,1/2-x,1/2-z
1/2-x,1/2-y,1/2+z
1/2-y,1/2+x,1/2-z
1/2+x,1/2-y,1/2-z
1/2-x,1/2+y,1/2-z
1/2-y,1/2-x,1/2+z
1/2+y,1/2+x,1/2+z
loop_
_atom_site_type_symbol
_atom_site_label
_atom_site_fract_x
_atom_site_fract_y
_atom_site_fract_z
Si Si1 0.713729 0.012156 0.324869
Si Si2 0.667832 0.667832 0.124541
Si Si3 0.861252 0.861252 0.372980
Si Si4 0.358616 0.927486 0.090858
Si Si5 0.798380 0.798380 0.871864
O O1 0.816932 0.959456 0.328572
O O2 0.646374 0.941949 0.389469
O O3 0.729457 0.116312 0.376641
O O4 0.667615 0.023724 0.206269
O O5 0.658522 0.658522 0.259669
O O6 0.630792 0.630792 0.005603
O O7 0.781520 0.781520 0.342355
O O8 0.260365 0.874772 0.061960
O O9 0.385940 0.000000 0.000000
#
# Coordination Sequence:
#
# PCOD9560341 Si02
#       5
#    16   8   8  16   8
#     4  10  23  40  60  92 122 160 209 253 310 381
#     4  10  20  39  58  81 125 163 200 251 312 372
#     4  10  20  35  62  88 118 160 202 255 313 365
#     4  10  22  41  64  89 124 162 204 259 310 363
#     4   8  20  38  56  83 119 165 206 238 303 387
#
# _framework density 22.991775000000001
#
# number of rings (size 3 to 8) (size 9 to 14) (size 15 to 20)
#    0.000    2.286    0.000    0.857    0.000   18.286 
#    0.000    8.571    0.000    2.143    0.000    0.000 
#    0.000    0.000    0.000    0.000    0.000    0.000 
#
# Total GULP energy -155907.997113 kJ/mol
# GULP energy per Si atom -5568.142754 kJ/mol
# Density = 2.293944 g / cm^3
# Si number density = 22.991775 Si / 1000 Ang^3
#
#
#
# Elastic Constant Matrix: (Units=GPa)
#
#
# Indices 1 2 3 4 5 6 
#
# 1 93.1005 63.6272 51.1393 0.0000 0.0000 0.0000
# 2 63.6272 93.1005 51.1393 0.0000 0.0000 0.0000
# 3 51.1393 51.1393 98.3156 0.0000 0.0000 0.0000
# 4 0.0000 0.0000 0.0000 30.1447 0.0000 0.0000
# 5 0.0000 0.0000 0.0000 0.0000 30.1447 0.0000
# 6 0.0000 0.0000 0.0000 0.0000 0.0000 45.2055
#
#
#
# Elastic Compliance Matrix: (Units=1/GPa)
#
#
# Indices 1 2 3 4 5 6 
#
# 1 0.021794 -0.012135 -0.005024 0.000000 0.000000 0.000000
# 2 -0.012135 0.021794 -0.005024 0.000000 0.000000 0.000000
# 3 -0.005024 -0.005024 0.015398 0.000000 0.000000 0.000000
# 4 0.000000 0.000000 0.000000 0.033173 0.000000 0.000000
# 5 0.000000 0.000000 0.000000 0.000000 0.033173 0.000000
# 6 0.000000 0.000000 0.000000 0.000000 0.000000 0.022121
#
#
# Mechanical properties :
#
#
# Convention : Reuss Voigt Hill
#
# Bulk Modulus (GPa) = 68.40195 68.48094 68.44145
# Shear Modulus (GPa) = 25.42013 29.00638 27.21326
#
# Velocity S-wave (km/s) = 3.32869 3.55575 3.44409
# Velocity P-wave (km/s) = 6.67748 6.83429 6.75634
#
# Compressibility (1/GPa) = 0.01461947
#
# Stress axis : x y z
#
# Youngs Moduli (GPa) = 45.88385 45.88385 64.94272
#
# Poissons Ratio (x) = 0.55679 0.32629
# Poissons Ratio (y) = 0.55679 0.32629
# Poissons Ratio (z) = 0.23054 0.23054
#
# Static dielectric constant tensor:
#      x y z
#    x 1.955290 0.000000 0.000000 
#    y 0.000000 1.955290 0.000000 
#    z 0.000000 0.000000 1.848650 
# 
# From -- ./inp_files/2769.got.cif
#   From: 2010.05.17/outbox.cif.g08.bks.cpg/sg121_2_cif.got.tgz:2769.got - 2010.05.20 11:32:06.
