data_PCOD9560184
_publ_section_title
;
Structure prediction by ZEFSAII (Michael W. Deem and Ramdas Pophale) SiO2 
 PCOD9560184
Probable space group: I -4 2 M
;
_chemical_formula_sum "Si O2"
_cell_formula_units_Z 88
_cell_length_a 13.560730
_cell_length_b 13.560730
_cell_length_c 30.134668
_cell_angle_alpha 90.000000
_cell_angle_beta 90.000000
_cell_angle_gamma 90.000000
_cell_volume 5541.566500
_symmetry_space_group_name_H-M "I -4 2 M"
_symmetry_group_IT_number 121
_symmetry_cell_setting 'tetragonal'
loop_
_space_group_symop_operation_xyz
x,y,z
y,-x,-z
-x,-y,z
-y,x,-z
x,-y,-z
-x,y,-z
-y,-x,z
y,x,z
1/2+x,1/2+y,1/2+z
1/2+y,1/2-x,1/2-z
1/2-x,1/2-y,1/2+z
1/2-y,1/2+x,1/2-z
1/2+x,1/2-y,1/2-z
1/2-x,1/2+y,1/2-z
1/2-y,1/2-x,1/2+z
1/2+y,1/2+x,1/2+z
loop_
_atom_site_type_symbol
_atom_site_label
_atom_site_fract_x
_atom_site_fract_y
_atom_site_fract_z
Si Si1 0.209520 0.625539 0.851699
Si Si2 0.500000 0.334115 0.500000
Si Si3 0.756252 0.080977 0.164426
Si Si4 0.599008 0.238859 0.169492
Si Si5 0.760925 0.400069 0.275450
Si Si6 0.578083 0.255327 0.409880
O O1 0.306209 0.693792 0.856640
O O2 0.236514 0.511236 0.848869
O O3 0.157598 0.658922 0.805347
O O4 0.132737 0.657685 0.890661
O O5 0.408664 0.408664 0.488547
O O6 0.534907 0.266282 0.459114
O O7 0.843102 0.156898 0.173769
O O8 0.661173 0.145739 0.152403
O O9 0.740796 0.010426 0.206334
O O10 0.779511 0.009202 0.123971
O O11 0.661928 0.338073 0.159883
O O12 0.600340 0.225240 0.222939
O O13 0.658548 0.341453 0.284741
O O14 0.660474 0.339526 0.405759
#
# Coordination Sequence:
#
# PCOD9560184 Si02
#       6
#    16   8  16  16  16  16
#     4   9  18  33  48  63  91 126 159 198 241 282
#     4   9  16  28  50  79 106 126 146 175 216 279
#     4  10  19  30  45  66  95 126 154 190 235 283
#     4  10  20  31  44  64  88 121 168 210 238 266
#     4   9  18  30  44  64  89 121 161 201 241 282
#     4   9  18  31  49  74 100 125 149 176 222 284
#
# _framework density 15.879987
#
# number of rings (size 3 to 8) (size 9 to 14) (size 15 to 20)
#    0.000    2.636    0.000    3.273    0.000    7.636 
#    0.000    5.455    0.000    2.182    0.000    0.000 
#    0.000    0.000    0.000    9.455    0.000    0.182 
#
# Total GULP energy -245083.934286 kJ/mol
# GULP energy per Si atom -5570.089416 kJ/mol
# Density = 1.584384 g / cm^3
# Si number density = 15.879987 Si / 1000 Ang^3
#
#
#
# Elastic Constant Matrix: (Units=GPa)
#
#
# Indices 1 2 3 4 5 6 
#
# 1 68.7275 8.3388 10.7562 0.0000 0.0000 0.0000
# 2 8.3388 68.7324 10.7571 0.0000 0.0000 0.0000
# 3 10.7562 10.7571 61.4849 0.0000 0.0000 0.0000
# 4 0.0000 0.0000 0.0000 17.6403 0.0000 0.0000
# 5 0.0000 0.0000 0.0000 0.0000 17.6405 0.0000
# 6 0.0000 0.0000 0.0000 0.0000 0.0000 1.6009
#
#
#
# Elastic Compliance Matrix: (Units=1/GPa)
#
#
# Indices 1 2 3 4 5 6 
#
# 1 0.015101 -0.001459 -0.002387 0.000000 0.000000 0.000000
# 2 -0.001459 0.015100 -0.002387 0.000000 0.000000 0.000000
# 3 -0.002387 -0.002387 0.017099 0.000000 0.000000 0.000000
# 4 0.000000 0.000000 0.000000 0.056689 0.000000 0.000000
# 5 0.000000 0.000000 0.000000 0.000000 0.056688 0.000000
# 6 0.000000 0.000000 0.000000 0.000000 0.000000 0.624662
#
#
# Mechanical properties :
#
#
# Convention : Reuss Voigt Hill
#
# Bulk Modulus (GPa) = 28.70580 28.73878 28.72229
# Shear Modulus (GPa) = 6.17731 18.64918 12.41324
#
# Velocity S-wave (km/s) = 1.97445 3.43064 2.79891
# Velocity P-wave (km/s) = 4.82845 5.81629 5.34524
#
# Compressibility (1/GPa) = 0.03483616
#
# Stress axis : x y z
#
# Youngs Moduli (GPa) = 66.22216 66.22672 58.48228
#
# Poissons Ratio (x) = 0.09659 0.13957
# Poissons Ratio (y) = 0.09659 0.13957
# Poissons Ratio (z) = 0.15804 0.15806
#
# Static dielectric constant tensor:
#      x y z
#    x 1.530360 0.000000 0.000000 
#    y 0.000000 1.530360 0.000000 
#    z 0.000000 0.000000 1.535390 
# 
# From -- ./inp_files/8188.got.cif
#   From: 2010.05.17/outbox.cif.g08.bks.cpg/sg121_5_cif.got.tgz:8188.got - 2010.05.20 11:32:06.
