data_PCOD9560208
_publ_section_title
;
Structure prediction by ZEFSAII (Michael W. Deem and Ramdas Pophale) SiO2 
 PCOD9560208
Probable space group: I -4 2 M
;
_chemical_formula_sum "Si O2"
_cell_formula_units_Z 120
_cell_length_a 15.026284
_cell_length_b 15.026284
_cell_length_c 30.317832
_cell_angle_alpha 90.000000
_cell_angle_beta 90.000000
_cell_angle_gamma 90.000000
_cell_volume 6845.439362
_symmetry_space_group_name_H-M "I -4 2 M"
_symmetry_group_IT_number 121
_symmetry_cell_setting 'tetragonal'
loop_
_space_group_symop_operation_xyz
x,y,z
y,-x,-z
-x,-y,z
-y,x,-z
x,-y,-z
-x,y,-z
-y,-x,z
y,x,z
1/2+x,1/2+y,1/2+z
1/2+y,1/2-x,1/2-z
1/2-x,1/2-y,1/2+z
1/2-y,1/2+x,1/2-z
1/2+x,1/2-y,1/2-z
1/2-x,1/2+y,1/2-z
1/2-y,1/2-x,1/2+z
1/2+y,1/2+x,1/2+z
loop_
_atom_site_type_symbol
_atom_site_label
_atom_site_fract_x
_atom_site_fract_y
_atom_site_fract_z
Si Si1 0.389899 0.925114 0.375504
Si Si2 0.500000 0.352752 0.500000
Si Si3 0.742255 0.600469 0.579021
Si Si4 0.613467 0.917220 0.854542
Si Si5 0.398731 0.255973 0.195930
Si Si6 0.807570 0.339632 0.228925
Si Si7 0.190151 0.047352 0.857646
Si Si8 0.477393 0.333173 0.738697
O O1 0.392885 0.847921 0.412329
O O2 0.602691 0.969878 0.386599
O O3 0.301647 0.918580 0.346498
O O4 0.477200 0.900797 0.345758
O O5 0.419760 0.419760 0.485720
O O6 0.540254 0.290768 0.461756
O O7 0.696215 0.696215 0.574747
O O8 0.697717 0.549430 0.620655
O O9 0.611106 0.853647 0.812019
O O10 0.715135 0.908448 0.870486
O O11 0.307105 0.307105 0.188330
O O12 0.383188 0.192592 0.237881
O O13 0.469611 0.325450 0.215347
O O14 0.745174 0.254827 0.215149
O O15 0.743813 0.404257 0.256263
O O16 0.107317 0.107317 0.872181
O O17 0.183545 0.035773 0.804834
O O18 0.425341 0.425341 0.733717
#
# Coordination Sequence:
#
# PCOD9560208 Si02
#       8
#    16   8  16  16  16  16  16  16
#     4  10  21  33  50  69  96 132 172 218 258 308
#     4   9  18  34  58  89 120 146 174 211 266 339
#     4  10  20  35  56  83 111 138 168 209 263 326
#     4  10  19  33  48  67  91 126 172 220 261 306
#     4  11  21  32  45  64  93 131 176 224 277 319
#     4  10  19  32  46  62  88 124 171 222 272 319
#     4  11  21  34  51  72 100 135 176 225 277 329
#     4  11  22  33  46  67  97 132 178 233 285 325
#
# _framework density 17.529920000000001
#
# number of rings (size 3 to 8) (size 9 to 14) (size 15 to 20)
#    0.000    1.667    2.667    3.600    0.000    3.467 
#    0.000    1.333    0.000    6.400    0.000    0.000 
#    0.000    0.000    0.000    0.000    0.000    0.000 
#
# Total GULP energy -334220.526942 kJ/mol
# GULP energy per Si atom -5570.342116 kJ/mol
# Density = 1.749002 g / cm^3
# Si number density = 17.529920 Si / 1000 Ang^3
#
#
#
# Elastic Constant Matrix: (Units=GPa)
#
#
# Indices 1 2 3 4 5 6 
#
# 1 63.9073 33.7377 20.6015 0.0000 0.0000 0.0000
# 2 33.7377 63.9084 20.6015 0.0000 0.0000 0.0000
# 3 20.6015 20.6015 44.1357 0.0000 0.0000 0.0000
# 4 0.0000 0.0000 0.0000 19.6150 0.0000 0.0000
# 5 0.0000 0.0000 0.0000 0.0000 19.6149 0.0000
# 6 0.0000 0.0000 0.0000 0.0000 0.0000 23.3380
#
#
#
# Elastic Compliance Matrix: (Units=1/GPa)
#
#
# Indices 1 2 3 4 5 6 
#
# 1 0.022949 -0.010196 -0.005953 0.000000 0.000000 0.000000
# 2 -0.010196 0.022949 -0.005953 0.000000 0.000000 0.000000
# 3 -0.005953 -0.005953 0.028215 0.000000 0.000000 0.000000
# 4 0.000000 0.000000 0.000000 0.050981 0.000000 0.000000
# 5 0.000000 0.000000 0.000000 0.000000 0.050982 0.000000
# 6 0.000000 0.000000 0.000000 0.000000 0.000000 0.042849
#
#
# Mechanical properties :
#
#
# Convention : Reuss Voigt Hill
#
# Bulk Modulus (GPa) = 33.43425 35.75919 34.59672
# Shear Modulus (GPa) = 18.30845 18.98096 18.64470
#
# Velocity S-wave (km/s) = 3.23524 3.29412 3.26482
# Velocity P-wave (km/s) = 5.75063 5.90860 5.83015
#
# Compressibility (1/GPa) = 0.02990945
#
# Stress axis : x y z
#
# Youngs Moduli (GPa) = 43.57413 43.57504 35.44261
#
# Poissons Ratio (x) = 0.44430 0.21099
# Poissons Ratio (y) = 0.44429 0.21098
# Poissons Ratio (z) = 0.25939 0.25939
#
# Static dielectric constant tensor:
#      x y z
#    x 1.657160 0.000000 0.000000 
#    y 0.000000 1.657160 0.000000 
#    z 0.000000 0.000000 1.571850 
# 
# From -- ./inp_files/8468.got.cif
#   From: 2010.05.17/outbox.cif.g08.bks.cpg/sg121_5_cif.got.tgz:8468.got - 2010.05.20 11:32:06.
