data_PCOD9560189
_publ_section_title
;
Structure prediction by ZEFSAII (Michael W. Deem and Ramdas Pophale) SiO2 
 PCOD9560189
Probable space group: I -4 2 M
;
_chemical_formula_sum "Si O2"
_cell_formula_units_Z 80
_cell_length_a 16.933162
_cell_length_b 16.933162
_cell_length_c 17.484630
_cell_angle_alpha 90.000000
_cell_angle_beta 90.000000
_cell_angle_gamma 90.000000
_cell_volume 5013.402498
_symmetry_space_group_name_H-M "I -4 2 M"
_symmetry_group_IT_number 121
_symmetry_cell_setting 'tetragonal'
loop_
_space_group_symop_operation_xyz
x,y,z
y,-x,-z
-x,-y,z
-y,x,-z
x,-y,-z
-x,y,-z
-y,-x,z
y,x,z
1/2+x,1/2+y,1/2+z
1/2+y,1/2-x,1/2-z
1/2-x,1/2-y,1/2+z
1/2-y,1/2+x,1/2-z
1/2+x,1/2-y,1/2-z
1/2-x,1/2+y,1/2-z
1/2-y,1/2-x,1/2+z
1/2+y,1/2+x,1/2+z
loop_
_atom_site_type_symbol
_atom_site_label
_atom_site_fract_x
_atom_site_fract_y
_atom_site_fract_z
Si Si1 0.800362 0.673242 0.533526
Si Si2 0.150885 0.419000 0.679299
Si Si3 0.322314 0.992592 0.665497
Si Si4 0.891362 0.558860 0.431919
Si Si5 0.695726 0.433805 0.937001
O O1 0.721047 0.721047 0.519700
O O2 0.801334 0.632092 0.616927
O O3 0.820541 0.608212 0.470166
O O4 0.872395 0.736710 0.533761
O O5 0.068870 0.372641 0.690588
O O6 0.186904 0.435594 0.762021
O O7 0.132460 0.501939 0.637410
O O8 0.239239 0.021543 0.632259
O O9 0.376701 0.952981 0.599589
O O10 0.917970 0.500000 0.500000
O O11 0.619941 0.380060 0.918056
O O12 0.677264 0.500000 0.000000
#
# Coordination Sequence:
#
# PCOD9560189 Si02
#       5
#    16  16  16  16  16
#     4   9  19  35  50  70 102 138 173 210 253 306
#     4  10  20  29  49  77 108 131 165 205 262 313
#     4  11  19  31  48  78 107 135 163 210 265 313
#     4  10  19  30  50  77 100 134 172 210 253 310
#     4  10  20  34  51  69  97 137 181 218 249 292
#
# _framework density 15.957227
#
# number of rings (size 3 to 8) (size 9 to 14) (size 15 to 20)
#    0.000    2.000    4.000    0.600    0.000    4.200 
#    0.000    3.000    0.000    0.000    0.000    0.000 
#    0.000   46.800    0.000    0.000    0.000    0.000 
#
# Total GULP energy -222937.831161 kJ/mol
# GULP energy per Si atom -5573.445779 kJ/mol
# Density = 1.592091 g / cm^3
# Si number density = 15.957227 Si / 1000 Ang^3
#
#
#
# Elastic Constant Matrix: (Units=GPa)
#
#
# Indices 1 2 3 4 5 6 
#
# 1 74.5847 47.5589 40.2325 0.0000 0.0000 0.0000
# 2 47.5589 74.5860 40.2337 0.0000 0.0000 0.0000
# 3 40.2325 40.2337 89.3907 0.0000 0.0000 0.0000
# 4 0.0000 0.0000 0.0000 15.6195 0.0000 0.0000
# 5 0.0000 0.0000 0.0000 0.0000 15.6196 0.0000
# 6 0.0000 0.0000 0.0000 0.0000 0.0000 31.3292
#
#
#
# Elastic Compliance Matrix: (Units=1/GPa)
#
#
# Indices 1 2 3 4 5 6 
#
# 1 0.024319 -0.012682 -0.005238 0.000000 0.000000 0.000000
# 2 -0.012682 0.024319 -0.005238 0.000000 0.000000 0.000000
# 3 -0.005238 -0.005238 0.015902 0.000000 0.000000 0.000000
# 4 0.000000 0.000000 0.000000 0.064022 0.000000 0.000000
# 5 0.000000 0.000000 0.000000 0.000000 0.064022 0.000000
# 6 0.000000 0.000000 0.000000 0.000000 0.000000 0.031919
#
#
# Mechanical properties :
#
#
# Convention : Reuss Voigt Hill
#
# Bulk Modulus (GPa) = 54.86802 54.95683 54.91242
# Shear Modulus (GPa) = 18.05745 19.88274 18.97009
#
# Velocity S-wave (km/s) = 3.36760 3.53370 3.45165
# Velocity P-wave (km/s) = 7.04131 7.15292 7.09733
#
# Compressibility (1/GPa) = 0.01822555
#
# Stress axis : x y z
#
# Youngs Moduli (GPa) = 41.11964 41.11985 62.88594
#
# Poissons Ratio (x) = 0.52146 0.32938
# Poissons Ratio (y) = 0.52146 0.32940
# Poissons Ratio (z) = 0.21537 0.21539
#
# Static dielectric constant tensor:
#      x y z
#    x 1.528500 0.000000 0.000000 
#    y 0.000000 1.528500 0.000000 
#    z 0.000000 0.000000 1.554740 
# 
# From -- ./inp_files/4264.got.cif
#   From: 2010.05.17/outbox.cif.g08.bks.cpg/sg121_3_cif.got.tgz:4264.got - 2010.05.20 11:32:06.
