data_PCOD9560823
_publ_section_title
;
Structure prediction by ZEFSAII (Michael W. Deem and Ramdas Pophale) SiO2 
 PCOD9560823
Probable space group: I -4 2 D
;
_chemical_formula_sum "Si O2"
_cell_formula_units_Z 96
_cell_length_a 21.298516
_cell_length_b 21.298516
_cell_length_c 8.924946
_cell_angle_alpha 90.000000
_cell_angle_beta 90.000000
_cell_angle_gamma 90.000000
_cell_volume 4048.594550
_symmetry_space_group_name_H-M "I -4 2 D"
_symmetry_group_IT_number 122
_symmetry_cell_setting 'tetragonal'
loop_
_space_group_symop_operation_xyz
x,y,z
y,-x,-z
-x,-y,z
-y,x,-z
x,1/2-y,1/4-z
-x,1/2+y,1/4-z
-y,1/2-x,1/4+z
y,1/2+x,1/4+z
1/2+x,1/2+y,1/2+z
1/2+y,1/2-x,1/2-z
1/2-x,1/2-y,1/2+z
1/2-y,1/2+x,1/2-z
1/2+x,-y,3/4-z
1/2-x,y,3/4-z
1/2-y,-x,3/4+z
1/2+y,x,3/4+z
loop_
_atom_site_type_symbol
_atom_site_label
_atom_site_fract_x
_atom_site_fract_y
_atom_site_fract_z
Si Si1 0.885341 0.129901 0.258096
Si Si2 0.464159 0.181552 0.183516
Si Si3 0.572001 0.319942 0.274178
Si Si4 0.503641 0.776534 0.472019
Si Si5 0.182831 0.753105 0.309661
Si Si6 0.574424 0.069975 0.776197
O O1 0.878560 0.067752 0.358307
O O2 0.944245 0.177474 0.250419
O O3 0.832016 0.173558 0.328579
O O4 0.878552 0.103003 0.090477
O O5 0.442229 0.250000 0.125000
O O6 0.453430 0.184885 0.359818
O O7 0.539204 0.181697 0.139202
O O8 0.520806 0.284018 0.379321
O O9 0.634125 0.285115 0.334364
O O10 0.577405 0.391828 0.321982
O O11 0.530428 0.750000 0.625000
O O12 0.250000 0.736444 0.375000
O O13 0.176606 0.750000 0.125000
O O14 0.504131 0.081265 0.711354
#
# Coordination Sequence:
#
# PCOD9560823 Si02
#       6
#    16  16  16  16  16  16
#     4  11  20  41  64  92 131 175 223 278 358 416
#     4  10  22  38  66  94 130 173 227 285 336 424
#     4  10  19  41  64  89 128 175 224 281 347 411
#     4  10  20  38  65  92 126 185 223 277 353 422
#     4  11  23  39  68  95 131 176 219 289 357 423
#     4  11  21  36  67  98 127 180 236 285 348 424
#
# _framework density 23.711931
#
# number of rings (size 3 to 8) (size 9 to 14) (size 15 to 20)
#    0.000    1.500    5.000    1.500    0.000    3.333 
#    3.000    0.000   14.667    0.000    0.000    0.000 
#    0.000    0.000    0.000    0.000    0.000    0.000 
#
# Total GULP energy -267516.143394 kJ/mol
# GULP energy per Si atom -5573.252987 kJ/mol
# Density = 2.365796 g / cm^3
# Si number density = 23.711931 Si / 1000 Ang^3
#
#
#
# Elastic Constant Matrix: (Units=GPa)
#
#
# Indices 1 2 3 4 5 6 
#
# 1 86.9781 11.8292 16.2557 0.0000 0.0000 0.0000
# 2 11.8292 86.9781 16.2557 0.0000 0.0000 0.0000
# 3 16.2557 16.2557 114.1508 0.0000 0.0000 0.0000
# 4 0.0000 0.0000 0.0000 27.5913 0.0000 0.0000
# 5 0.0000 0.0000 0.0000 0.0000 27.5913 0.0000
# 6 0.0000 0.0000 0.0000 0.0000 0.0000 20.0287
#
#
#
# Elastic Compliance Matrix: (Units=1/GPa)
#
#
# Indices 1 2 3 4 5 6 
#
# 1 0.011963 -0.001344 -0.001512 0.000000 0.000000 0.000000
# 2 -0.001344 0.011963 -0.001512 0.000000 0.000000 0.000000
# 3 -0.001512 -0.001512 0.009191 0.000000 0.000000 0.000000
# 4 0.000000 0.000000 0.000000 0.036243 0.000000 0.000000
# 5 0.000000 0.000000 0.000000 0.000000 0.036243 0.000000
# 6 0.000000 0.000000 0.000000 0.000000 0.000000 0.049928
#
#
# Mechanical properties :
#
#
# Convention : Reuss Voigt Hill
#
# Bulk Modulus (GPa) = 41.01873 41.86537 41.44205
# Shear Modulus (GPa) = 29.00324 31.29336 30.14830
#
# Velocity S-wave (km/s) = 3.50115 3.63675 3.56959
# Velocity P-wave (km/s) = 5.80348 5.94380 5.87406
#
# Compressibility (1/GPa) = 0.02437910
#
# Stress axis : x y z
#
# Youngs Moduli (GPa) = 83.59404 83.59404 108.80198
#
# Poissons Ratio (x) = 0.11238 0.16452
# Poissons Ratio (y) = 0.11238 0.16452
# Poissons Ratio (z) = 0.12640 0.12640
#
# Static dielectric constant tensor:
#      x y z
#    x 1.952820 0.000000 0.000000 
#    y 0.000000 1.952820 0.000000 
#    z 0.000000 0.000000 1.947880 
# 
# From -- ./inp_files/2880.got.cif
#   From: 2010.05.17/outbox.cif.g08.bks.cpg/sg122_2_cif.got.tgz:2880.got - 2010.05.20 11:37:33.
