data_PCOD9560333
_publ_section_title
;
Structure prediction by ZEFSAII (Michael W. Deem and Ramdas Pophale) SiO2 
 PCOD9560333
Probable space group: I -4 2 M
;
_chemical_formula_sum "Si O2"
_cell_formula_units_Z 72
_cell_length_a 11.623486
_cell_length_b 11.623486
_cell_length_c 27.699899
_cell_angle_alpha 90.000000
_cell_angle_beta 90.000000
_cell_angle_gamma 90.000000
_cell_volume 3742.406676
_symmetry_space_group_name_H-M "I -4 2 M"
_symmetry_group_IT_number 121
_symmetry_cell_setting 'tetragonal'
loop_
_space_group_symop_operation_xyz
x,y,z
y,-x,-z
-x,-y,z
-y,x,-z
x,-y,-z
-x,y,-z
-y,-x,z
y,x,z
1/2+x,1/2+y,1/2+z
1/2+y,1/2-x,1/2-z
1/2-x,1/2-y,1/2+z
1/2-y,1/2+x,1/2-z
1/2+x,1/2-y,1/2-z
1/2-x,1/2+y,1/2-z
1/2-y,1/2-x,1/2+z
1/2+y,1/2+x,1/2+z
loop_
_atom_site_type_symbol
_atom_site_label
_atom_site_fract_x
_atom_site_fract_y
_atom_site_fract_z
Si Si1 0.267556 0.452061 0.341129
Si Si2 0.632480 0.186901 0.414392
Si Si3 0.691338 0.500000 0.500000
Si Si4 0.472875 0.128754 0.852171
Si Si5 0.690521 0.497508 0.231887
O O1 0.388763 0.388763 0.349281
O O2 0.248738 0.570060 0.369130
O O3 0.256206 0.473996 0.284029
O O4 0.163752 0.371590 0.359910
O O5 0.756329 0.243672 0.421796
O O6 0.552276 0.227080 0.458614
O O7 0.640887 0.053717 0.399236
O O8 0.604009 0.395992 0.515468
O O9 0.502287 0.219933 0.811345
O O10 0.500000 0.000000 0.833794
O O11 0.625132 0.374869 0.234133
O O12 0.593163 0.593163 0.223431
#
# Coordination Sequence:
#
# PCOD9560333 Si02
#       5
#    16  16   8  16  16
#     4  10  21  34  51  75 107 148 190 234 278 326
#     4  10  20  35  57  82 110 141 181 231 284 343
#     4   9  18  34  59  88 116 148 187 235 288 342
#     4  10  22  34  50  76 110 147 182 226 283 337
#     4  10  21  36  54  76 105 149 201 240 272 324
#
# _framework density 19.238956000000002
#
# number of rings (size 3 to 8) (size 9 to 14) (size 15 to 20)
#    0.000    2.111    0.000    2.667    6.222    2.222 
#    0.000    5.000    0.000    0.000    0.000    0.000 
#    0.000    0.000    0.000   54.000    0.000    0.000 
#
# Total GULP energy -200769.912951 kJ/mol
# GULP energy per Si atom -5576.942026 kJ/mol
# Density = 1.919517 g / cm^3
# Si number density = 19.238956 Si / 1000 Ang^3
#
#
#
# Elastic Constant Matrix: (Units=GPa)
#
#
# Indices 1 2 3 4 5 6 
#
# 1 74.5514 22.1426 33.3030 0.0000 0.0000 0.0000
# 2 22.1426 74.5534 33.3033 0.0000 0.0000 0.0000
# 3 33.3030 33.3033 66.5848 0.0000 0.0000 0.0000
# 4 0.0000 0.0000 0.0000 24.8571 0.0000 0.0000
# 5 0.0000 0.0000 0.0000 0.0000 24.8574 0.0000
# 6 0.0000 0.0000 0.0000 0.0000 0.0000 18.8078
#
#
#
# Elastic Compliance Matrix: (Units=1/GPa)
#
#
# Indices 1 2 3 4 5 6 
#
# 1 0.017429 -0.001651 -0.007891 0.000000 0.000000 0.000000
# 2 -0.001651 0.017429 -0.007891 0.000000 0.000000 0.000000
# 3 -0.007891 -0.007891 0.022912 0.000000 0.000000 0.000000
# 4 0.000000 0.000000 0.000000 0.040230 0.000000 0.000000
# 5 0.000000 0.000000 0.000000 0.000000 0.040229 0.000000
# 6 0.000000 0.000000 0.000000 0.000000 0.000000 0.053169
#
#
# Mechanical properties :
#
#
# Convention : Reuss Voigt Hill
#
# Bulk Modulus (GPa) = 43.66404 43.68748 43.67576
# Shear Modulus (GPa) = 21.37654 22.16718 21.77186
#
# Velocity S-wave (km/s) = 3.33694 3.39809 3.36766
# Velocity P-wave (km/s) = 6.13122 6.17683 6.15406
#
# Compressibility (1/GPa) = 0.02290214
#
# Stress axis : x y z
#
# Youngs Moduli (GPa) = 57.37482 57.37654 43.64466
#
# Poissons Ratio (x) = 0.09475 0.34442
# Poissons Ratio (y) = 0.09475 0.34441
# Poissons Ratio (z) = 0.45277 0.45277
#
# Static dielectric constant tensor:
#      x y z
#    x 1.694990 0.000000 0.000000 
#    y 0.000000 1.694990 0.000000 
#    z 0.000000 0.000000 1.649780 
# 
# From -- ./inp_files/7527.got.cif
#   From: 2010.05.17/outbox.cif.g08.bks.cpg/sg121_4_cif.got.tgz:7527.got - 2010.05.20 11:32:06.
