data_PCOD9560167
_publ_section_title
;
Structure prediction by ZEFSAII (Michael W. Deem and Ramdas Pophale) SiO2 
 PCOD9560167
Probable space group: I -4 2 M
;
_chemical_formula_sum "Si O2"
_cell_formula_units_Z 112
_cell_length_a 13.921263
_cell_length_b 13.921263
_cell_length_c 29.575585
_cell_angle_alpha 90.000000
_cell_angle_beta 90.000000
_cell_angle_gamma 90.000000
_cell_volume 5731.794615
_symmetry_space_group_name_H-M "I -4 2 M"
_symmetry_group_IT_number 121
_symmetry_cell_setting 'tetragonal'
loop_
_space_group_symop_operation_xyz
x,y,z
y,-x,-z
-x,-y,z
-y,x,-z
x,-y,-z
-x,y,-z
-y,-x,z
y,x,z
1/2+x,1/2+y,1/2+z
1/2+y,1/2-x,1/2-z
1/2-x,1/2-y,1/2+z
1/2-y,1/2+x,1/2-z
1/2+x,1/2-y,1/2-z
1/2-x,1/2+y,1/2-z
1/2-y,1/2-x,1/2+z
1/2+y,1/2+x,1/2+z
loop_
_atom_site_type_symbol
_atom_site_label
_atom_site_fract_x
_atom_site_fract_y
_atom_site_fract_z
Si Si1 0.183374 0.552326 0.106162
Si Si2 0.720072 0.127376 0.271671
Si Si3 0.603293 0.945678 0.808461
Si Si4 0.683084 0.831787 0.579166
Si Si5 0.344693 0.505701 0.170884
Si Si6 0.900323 0.248372 0.838589
Si Si7 0.610963 0.887109 0.488236
O O1 0.120892 0.585693 0.148433
O O2 0.163093 0.440758 0.094141
O O3 0.290840 0.544646 0.126297
O O4 0.152570 0.615636 0.062697
O O5 0.802087 0.197914 0.252079
O O6 0.634429 0.108816 0.236950
O O7 0.769836 0.032973 0.292022
O O8 0.676841 0.180491 0.315218
O O9 0.500000 0.000000 0.803466
O O10 0.701744 0.004421 0.819905
O O11 0.787291 0.787291 0.590384
O O12 0.609057 0.767453 0.607926
O O13 0.670097 0.829677 0.525590
O O14 0.408946 0.591055 0.190226
O O15 0.417003 0.417003 0.160921
O O16 0.858595 0.141406 0.828626
O O17 0.500000 0.862764 0.500000
O O18 0.619565 0.000000 0.500000
#
# Coordination Sequence:
#
# PCOD9560167 Si02
#       7
#    16  16  16  16  16  16  16
#     4  11  21  35  55  85 119 147 194 254 307 356
#     4  10  23  40  53  76 113 153 193 247 302 354
#     4  12  24  35  58  88 116 150 200 251 306 361
#     4  10  18  34  55  78 112 153 186 229 299 369
#     4  10  21  39  60  79 111 163 210 247 305 379
#     4  10  21  36  55  78 113 151 190 240 298 363
#     4   9  19  32  53  80 112 150 187 236 295 357
#
# _framework density 19.540126999999998
#
# number of rings (size 3 to 8) (size 9 to 14) (size 15 to 20)
#    0.000    1.714    2.857    1.286    6.000    1.714 
#    0.000    0.000    0.000    0.000    0.000    7.000 
#    0.000    1.429    0.000    0.000    0.000    0.000 
#
# Total GULP energy -311820.105900 kJ/mol
# GULP energy per Si atom -5568.216177 kJ/mol
# Density = 1.949565 g / cm^3
# Si number density = 19.540127 Si / 1000 Ang^3
#
#
#
# Elastic Constant Matrix: (Units=GPa)
#
#
# Indices 1 2 3 4 5 6 
#
# 1 49.5876 25.1959 31.4130 0.0000 0.0000 0.0000
# 2 25.1959 49.5858 31.4118 0.0000 0.0000 0.0000
# 3 31.4130 31.4118 130.7652 0.0000 0.0000 0.0000
# 4 0.0000 0.0000 0.0000 17.4318 0.0000 0.0000
# 5 0.0000 0.0000 0.0000 0.0000 17.4315 0.0000
# 6 0.0000 0.0000 0.0000 0.0000 0.0000 28.0061
#
#
#
# Elastic Compliance Matrix: (Units=1/GPa)
#
#
# Indices 1 2 3 4 5 6 
#
# 1 0.028876 -0.012123 -0.004024 0.000000 0.000000 0.000000
# 2 -0.012123 0.028876 -0.004024 0.000000 0.000000 0.000000
# 3 -0.004024 -0.004024 0.009581 0.000000 0.000000 0.000000
# 4 0.000000 0.000000 0.000000 0.057367 0.000000 0.000000
# 5 0.000000 0.000000 0.000000 0.000000 0.057368 0.000000
# 6 0.000000 0.000000 0.000000 0.000000 0.000000 0.035707
#
#
# Mechanical properties :
#
#
# Convention : Reuss Voigt Hill
#
# Bulk Modulus (GPa) = 37.05195 45.10890 41.08043
# Shear Modulus (GPa) = 18.71863 22.03505 20.37684
#
# Velocity S-wave (km/s) = 3.09845 3.36174 3.23278
# Velocity P-wave (km/s) = 5.63947 6.18092 5.91639
#
# Compressibility (1/GPa) = 0.02698913
#
# Stress axis : x y z
#
# Youngs Moduli (GPa) = 34.63132 34.63026 104.37566
#
# Poissons Ratio (x) = 0.41982 0.42006
# Poissons Ratio (y) = 0.41984 0.42004
# Poissons Ratio (z) = 0.13937 0.13936
#
# Static dielectric constant tensor:
#      x y z
#    x 1.733470 0.000000 0.000000 
#    y 0.000000 1.733470 0.000000 
#    z 0.000000 0.000000 1.691800 
# 
# From -- ./inp_files/8416.got.cif
#   From: 2010.05.17/outbox.cif.g08.bks.cpg/sg121_5_cif.got.tgz:8416.got - 2010.05.20 11:32:06.
