data_PCOD9560874
_publ_section_title
;
Structure prediction by ZEFSAII (Michael W. Deem and Ramdas Pophale) SiO2 
 PCOD9560874
Probable space group: I -4 2 D
;
_chemical_formula_sum "Si O2"
_cell_formula_units_Z 96
_cell_length_a 19.818769
_cell_length_b 19.818769
_cell_length_c 10.781528
_cell_angle_alpha 90.000000
_cell_angle_beta 90.000000
_cell_angle_gamma 90.000000
_cell_volume 4234.807432
_symmetry_space_group_name_H-M "I -4 2 D"
_symmetry_group_IT_number 122
_symmetry_cell_setting 'tetragonal'
loop_
_space_group_symop_operation_xyz
x,y,z
y,-x,-z
-x,-y,z
-y,x,-z
x,1/2-y,1/4-z
-x,1/2+y,1/4-z
-y,1/2-x,1/4+z
y,1/2+x,1/4+z
1/2+x,1/2+y,1/2+z
1/2+y,1/2-x,1/2-z
1/2-x,1/2-y,1/2+z
1/2-y,1/2+x,1/2-z
1/2+x,-y,3/4-z
1/2-x,y,3/4-z
1/2-y,-x,3/4+z
1/2+y,x,3/4+z
loop_
_atom_site_type_symbol
_atom_site_label
_atom_site_fract_x
_atom_site_fract_y
_atom_site_fract_z
Si Si1 0.419498 0.740400 0.827076
Si Si2 0.553542 0.403298 0.214939
Si Si3 0.588742 0.381761 0.505551
Si Si4 0.591431 0.552307 0.233378
Si Si5 0.760948 0.064133 0.015126
Si Si6 0.836572 0.192268 0.705223
O O1 0.409287 0.801010 0.728993
O O2 0.412286 0.661819 0.797066
O O3 0.500625 0.746807 0.854086
O O4 0.366439 0.765952 0.929287
O O5 0.565050 0.393473 0.364048
O O6 0.584317 0.476452 0.182224
O O7 0.474236 0.406674 0.191368
O O8 0.596032 0.344033 0.150975
O O9 0.544481 0.411353 0.616527
O O10 0.662446 0.412387 0.525005
O O11 0.712868 0.129485 0.023146
O O12 0.750000 0.038303 0.875000
O O13 0.802629 0.250000 0.625000
#
# Coordination Sequence:
#
# PCOD9560874 Si02
#       6
#    16  16  16  16  16  16
#     4  11  22  38  64  94 127 172 214 269 330 390
#     4  10  20  37  59  90 131 171 203 272 331 376
#     4  11  20  33  62  94 132 166 204 267 344 396
#     4  11  20  34  60  98 128 157 223 264 329 398
#     4  12  21  43  68  96 134 170 215 277 344 389
#     4  11  25  46  64  87 134 183 220 266 327 399
#
# _framework density 22.669270000000001
#
# number of rings (size 3 to 8) (size 9 to 14) (size 15 to 20)
#    0.000    1.000    5.000    5.500    0.000    2.667 
#    3.000    0.000    0.000    2.000    0.000    0.000 
#    0.000    0.000    0.000    0.000    0.000    0.000 
#
# Total GULP energy -267889.288771 kJ/mol
# GULP energy per Si atom -5581.026849 kJ/mol
# Density = 2.261767 g / cm^3
# Si number density = 22.669270 Si / 1000 Ang^3
#
#
#
# Elastic Constant Matrix: (Units=GPa)
#
#
# Indices 1 2 3 4 5 6 
#
# 1 105.9418 7.6428 5.6310 0.0000 0.0000 0.0000
# 2 7.6428 105.9418 5.6310 0.0000 0.0000 0.0000
# 3 5.6310 5.6310 8.8766 0.0000 0.0000 0.0000
# 4 0.0000 0.0000 0.0000 15.7853 0.0000 0.0000
# 5 0.0000 0.0000 0.0000 0.0000 15.7853 0.0000
# 6 0.0000 0.0000 0.0000 0.0000 0.0000 15.7770
#
#
#
# Elastic Compliance Matrix: (Units=1/GPa)
#
#
# Indices 1 2 3 4 5 6 
#
# 1 0.009784 -0.000389 -0.005960 0.000000 0.000000 0.000000
# 2 -0.000389 0.009784 -0.005960 0.000000 0.000000 0.000000
# 3 -0.005960 -0.005960 0.120218 0.000000 0.000000 0.000000
# 4 0.000000 0.000000 0.000000 0.063350 0.000000 0.000000
# 5 0.000000 0.000000 0.000000 0.000000 0.063350 0.000000
# 6 0.000000 0.000000 0.000000 0.000000 0.000000 0.063384
#
#
# Mechanical properties :
#
#
# Convention : Reuss Voigt Hill
#
# Bulk Modulus (GPa) = 8.68295 28.72998 18.70647
# Shear Modulus (GPa) = 12.72664 22.92652 17.82658
#
# Velocity S-wave (km/s) = 2.37197 3.18362 2.80728
# Velocity P-wave (km/s) = 3.36753 5.12005 4.33331
#
# Compressibility (1/GPa) = 0.11516823
#
# Stress axis : x y z
#
# Youngs Moduli (GPa) = 102.20781 102.20781 8.31824
#
# Poissons Ratio (x) = 0.03976 0.04958
# Poissons Ratio (y) = 0.03976 0.04958
# Poissons Ratio (z) = 0.60914 0.60914
#
# Static dielectric constant tensor:
#      x y z
#    x 1.859690 0.000000 0.000000 
#    y 0.000000 1.859690 0.000000 
#    z 0.000000 0.000000 1.994330 
# 
# From -- ./inp_files/4446.got.cif
#   From: 2010.05.17/outbox.cif.g08.bks.cpg/sg122_3_cif.got.tgz:4446.got - 2010.05.20 11:37:33.
