data_PCOD9560143
_publ_section_title
;
Structure prediction by ZEFSAII (Michael W. Deem and Ramdas Pophale) SiO2 
 PCOD9560143
Probable space group: I -4 2 M
;
_chemical_formula_sum "Si O2"
_cell_formula_units_Z 96
_cell_length_a 14.968788
_cell_length_b 14.968788
_cell_length_c 24.564481
_cell_angle_alpha 90.000000
_cell_angle_beta 90.000000
_cell_angle_gamma 90.000000
_cell_volume 5504.030958
_symmetry_space_group_name_H-M "I -4 2 M"
_symmetry_group_IT_number 121
_symmetry_cell_setting 'tetragonal'
loop_
_space_group_symop_operation_xyz
x,y,z
y,-x,-z
-x,-y,z
-y,x,-z
x,-y,-z
-x,y,-z
-y,-x,z
y,x,z
1/2+x,1/2+y,1/2+z
1/2+y,1/2-x,1/2-z
1/2-x,1/2-y,1/2+z
1/2-y,1/2+x,1/2-z
1/2+x,1/2-y,1/2-z
1/2-x,1/2+y,1/2-z
1/2-y,1/2-x,1/2+z
1/2+y,1/2+x,1/2+z
loop_
_atom_site_type_symbol
_atom_site_label
_atom_site_fract_x
_atom_site_fract_y
_atom_site_fract_z
Si Si1 0.496530 0.646875 0.942658
Si Si2 0.923637 0.923637 0.865786
Si Si3 0.076848 0.076848 0.738434
Si Si4 0.639671 0.946784 0.249811
Si Si5 0.517147 0.256963 0.835816
Si Si6 0.800816 0.649897 0.644665
Si Si7 0.695913 0.457051 0.441315
O O1 0.400487 0.599514 0.933023
O O2 0.567339 0.567339 0.949543
O O3 0.521251 0.701249 0.890175
O O4 0.500000 0.697422 0.000000
O O5 0.904044 0.904044 0.802253
O O6 0.967742 0.843374 0.900208
O O7 0.000000 0.000000 0.863897
O O8 0.164985 0.044949 0.706266
O O9 0.000000 0.000000 0.734511
O O10 0.549775 0.889857 0.256644
O O11 0.693865 0.913093 0.197689
O O12 0.696583 0.946564 0.304403
O O13 0.604520 0.201058 0.854442
O O14 0.722850 0.722850 0.651466
O O15 0.775377 0.593614 0.590871
O O16 0.717376 0.500000 0.500000
O O17 0.616120 0.383881 0.449435
#
# Coordination Sequence:
#
# PCOD9560143 Si02
#       7
#    16   8   8  16  16  16  16
#     4   9  17  30  49  74 102 134 174 218 264 323
#     4   9  18  28  45  76 102 130 174 225 259 308
#     4  11  20  30  51  84 116 137 178 231 279 331
#     4   9  20  37  56  75 104 146 185 220 268 337
#     4  11  19  33  53  77 108 144 177 221 280 324
#     4  10  20  34  53  80 108 141 179 225 276 333
#     4  10  18  31  51  74 105 142 180 218 269 322
#
# _framework density 17.441763999999999
#
# number of rings (size 3 to 8) (size 9 to 14) (size 15 to 20)
#    0.000    2.167    2.500    2.000    0.000    2.667 
#    0.000    1.667    0.000    0.000    0.000    0.000 
#    0.000    0.000    0.000    0.000    0.000    0.000 
#
# Total GULP energy -267513.004454 kJ/mol
# GULP energy per Si atom -5573.187593 kJ/mol
# Density = 1.740207 g / cm^3
# Si number density = 17.441764 Si / 1000 Ang^3
#
#
#
# Elastic Constant Matrix: (Units=GPa)
#
#
# Indices 1 2 3 4 5 6 
#
# 1 27.8333 5.1283 25.9027 0.0000 0.0000 0.0000
# 2 5.1283 27.8325 25.9024 0.0000 0.0000 0.0000
# 3 25.9027 25.9024 145.7511 0.0000 0.0000 0.0000
# 4 0.0000 0.0000 0.0000 19.7291 0.0000 0.0000
# 5 0.0000 0.0000 0.0000 0.0000 19.7295 0.0000
# 6 0.0000 0.0000 0.0000 0.0000 0.0000 9.6509
#
#
#
# Elastic Compliance Matrix: (Units=1/GPa)
#
#
# Indices 1 2 3 4 5 6 
#
# 1 0.043070 -0.000973 -0.007481 0.000000 0.000000 0.000000
# 2 -0.000973 0.043071 -0.007481 0.000000 0.000000 0.000000
# 3 -0.007481 -0.007481 0.009520 0.000000 0.000000 0.000000
# 4 0.000000 0.000000 0.000000 0.050687 0.000000 0.000000
# 5 0.000000 0.000000 0.000000 0.000000 0.050685 0.000000
# 6 0.000000 0.000000 0.000000 0.000000 0.000000 0.103618
#
#
# Mechanical properties :
#
#
# Convention : Reuss Voigt Hill
#
# Bulk Modulus (GPa) = 15.67673 35.03153 25.35413
# Shear Modulus (GPa) = 14.13283 19.45414 16.79348
#
# Velocity S-wave (km/s) = 2.84964 3.34335 3.10632
# Velocity P-wave (km/s) = 4.45363 5.91882 5.23771
#
# Compressibility (1/GPa) = 0.06378883
#
# Stress axis : x y z
#
# Youngs Moduli (GPa) = 23.21810 23.21740 105.04022
#
# Poissons Ratio (x) = 0.02260 0.78584
# Poissons Ratio (y) = 0.02260 0.78586
# Poissons Ratio (z) = 0.17370 0.17370
#
# Static dielectric constant tensor:
#      x y z
#    x 1.602870 0.000000 0.000000 
#    y 0.000000 1.602870 0.000000 
#    z 0.000000 0.000000 1.596680 
# 
# From -- ./inp_files/7132.got.cif
#   From: 2010.05.17/outbox.cif.g08.bks.cpg/sg121_4_cif.got.tgz:7132.got - 2010.05.20 11:32:06.
