data_PCOD9560982
_publ_section_title
;
Structure prediction by ZEFSAII (Michael W. Deem and Ramdas Pophale) SiO2 
 PCOD9560982
Probable space group: I -4 2 D
;
_chemical_formula_sum "Si O2"
_cell_formula_units_Z 116
_cell_length_a 18.064565
_cell_length_b 18.064565
_cell_length_c 17.318100
_cell_angle_alpha 90.000000
_cell_angle_beta 90.000000
_cell_angle_gamma 90.000000
_cell_volume 5651.389745
_symmetry_space_group_name_H-M "I -4 2 D"
_symmetry_group_IT_number 122
_symmetry_cell_setting 'tetragonal'
loop_
_space_group_symop_operation_xyz
x,y,z
y,-x,-z
-x,-y,z
-y,x,-z
x,1/2-y,1/4-z
-x,1/2+y,1/4-z
-y,1/2-x,1/4+z
y,1/2+x,1/4+z
1/2+x,1/2+y,1/2+z
1/2+y,1/2-x,1/2-z
1/2-x,1/2-y,1/2+z
1/2-y,1/2+x,1/2-z
1/2+x,-y,3/4-z
1/2-x,y,3/4-z
1/2-y,-x,3/4+z
1/2+y,x,3/4+z
loop_
_atom_site_type_symbol
_atom_site_label
_atom_site_fract_x
_atom_site_fract_y
_atom_site_fract_z
Si Si1 0.356184 0.995763 0.343648
Si Si2 0.463151 0.583598 0.248290
Si Si3 0.535573 0.387290 0.517887
Si Si4 0.239924 0.446778 0.554959
Si Si5 0.500000 0.000000 0.250000
Si Si6 0.975953 0.740152 0.466160
Si Si7 0.199845 0.852437 0.312131
Si Si8 0.542997 0.820762 0.585321
O O1 0.388604 0.050167 0.409866
O O2 0.428982 0.973802 0.296960
O O3 0.289813 0.015123 0.284210
O O4 0.328423 0.924251 0.390053
O O5 0.500000 0.500000 0.248791
O O6 0.511163 0.651348 0.282090
O O7 0.389827 0.585106 0.299501
O O8 0.459093 0.413500 0.478216
O O9 0.570484 0.325033 0.464270
O O10 0.513203 0.354661 0.600909
O O11 0.231988 0.490083 0.635908
O O12 0.194207 0.372096 0.545731
O O13 0.212397 0.499955 0.487315
O O14 0.888580 0.743955 0.489748
O O15 0.250000 0.810968 0.375000
O O16 0.582133 0.750000 0.625000
#
# Coordination Sequence:
#
# PCOD9560982 Si02
#       8
#    16  16  16  16   4  16  16  16
#     4  10  21  35  59  98 136 172 218 277 325 402
#     4  11  21  37  65  94 126 176 220 276 330 393
#     4  10  23  41  66  96 125 161 222 286 339 394
#     4  11  22  39  64  97 125 179 213 272 347 405
#     4  12  20  32  60 100 136 164 230 276 328 408
#     4  10  22  38  63  96 135 174 221 274 339 408
#     4   9  20  40  60  90 132 176 222 265 333 411
#     4  10  23  39  59  96 131 158 219 286 334 402
#
# _framework density 20.525925000000001
#
# number of rings (size 3 to 8) (size 9 to 14) (size 15 to 20)
#    0.000    1.793    0.690    4.552    7.724    0.000 
#    0.000    5.517    0.000    0.000    0.000    0.000 
#    0.000    0.000    0.000    0.000    0.000    0.000 
#
# Total GULP energy -323027.451271 kJ/mol
# GULP energy per Si atom -5569.438815 kJ/mol
# Density = 2.047921 g / cm^3
# Si number density = 20.525925 Si / 1000 Ang^3
#
#
#
# Elastic Constant Matrix: (Units=GPa)
#
#
# Indices 1 2 3 4 5 6 
#
# 1 69.0278 18.5970 24.7410 0.0000 0.0000 0.0000
# 2 18.5970 69.0278 24.7410 0.0000 0.0000 0.0000
# 3 24.7410 24.7410 108.7600 0.0000 0.0000 0.0000
# 4 0.0000 0.0000 0.0000 17.0600 0.0000 0.0000
# 5 0.0000 0.0000 0.0000 0.0000 17.0600 0.0000
# 6 0.0000 0.0000 0.0000 0.0000 0.0000 25.5052
#
#
#
# Elastic Compliance Matrix: (Units=1/GPa)
#
#
# Indices 1 2 3 4 5 6 
#
# 1 0.016462 -0.003367 -0.002979 0.000000 0.000000 0.000000
# 2 -0.003367 0.016462 -0.002979 0.000000 0.000000 0.000000
# 3 -0.002979 -0.002979 0.010550 0.000000 0.000000 0.000000
# 4 0.000000 0.000000 0.000000 0.058617 0.000000 0.000000
# 5 0.000000 0.000000 0.000000 0.000000 0.058617 0.000000
# 6 0.000000 0.000000 0.000000 0.000000 0.000000 0.039208
#
#
# Mechanical properties :
#
#
# Convention : Reuss Voigt Hill
#
# Bulk Modulus (GPa) = 40.28424 42.55261 41.41842
# Shear Modulus (GPa) = 22.04210 23.84081 22.94145
#
# Velocity S-wave (km/s) = 3.28055 3.41177 3.34680
# Velocity P-wave (km/s) = 5.83249 6.02465 5.92935
#
# Compressibility (1/GPa) = 0.02482361
#
# Stress axis : x y z
#
# Youngs Moduli (GPa) = 60.74682 60.74682 94.78864
#
# Poissons Ratio (x) = 0.20456 0.28235
# Poissons Ratio (y) = 0.20456 0.28235
# Poissons Ratio (z) = 0.18095 0.18095
#
# Static dielectric constant tensor:
#      x y z
#    x 1.773420 0.000000 0.000000 
#    y 0.000000 1.773420 0.000000 
#    z 0.000000 0.000000 1.815600 
# 
# From -- ./inp_files/6443.got.cif
#   From: 2010.05.17/outbox.cif.g08.bks.cpg/sg122_4_cif.got.tgz:6443.got - 2010.05.20 11:37:33.
