data_PCOD9560222
_publ_section_title
;
Structure prediction by ZEFSAII (Michael W. Deem and Ramdas Pophale) SiO2 
 PCOD9560222
Probable space group: I -4 2 M
;
_chemical_formula_sum "Si O2"
_cell_formula_units_Z 128
_cell_length_a 17.573048
_cell_length_b 17.573048
_cell_length_c 22.958417
_cell_angle_alpha 90.000000
_cell_angle_beta 90.000000
_cell_angle_gamma 90.000000
_cell_volume 7089.835038
_symmetry_space_group_name_H-M "I -4 2 M"
_symmetry_group_IT_number 121
_symmetry_cell_setting 'tetragonal'
loop_
_space_group_symop_operation_xyz
x,y,z
y,-x,-z
-x,-y,z
-y,x,-z
x,-y,-z
-x,y,-z
-y,-x,z
y,x,z
1/2+x,1/2+y,1/2+z
1/2+y,1/2-x,1/2-z
1/2-x,1/2-y,1/2+z
1/2-y,1/2+x,1/2-z
1/2+x,1/2-y,1/2-z
1/2-x,1/2+y,1/2-z
1/2-y,1/2-x,1/2+z
1/2+y,1/2+x,1/2+z
loop_
_atom_site_type_symbol
_atom_site_label
_atom_site_fract_x
_atom_site_fract_y
_atom_site_fract_z
Si Si1 0.125792 0.998317 0.319646
Si Si2 0.257625 0.373915 0.324065
Si Si3 0.004648 0.296771 0.701352
Si Si4 0.670774 0.450577 0.054080
Si Si5 0.121502 0.683535 0.605012
Si Si6 0.478591 0.911544 0.563645
Si Si7 0.686323 0.970633 0.173976
Si Si8 0.673566 0.201749 0.805554
O O1 0.077563 0.922438 0.307260
O O2 0.205835 0.003140 0.286641
O O3 0.147818 0.002118 0.388231
O O4 0.070362 0.070362 0.308847
O O5 0.342175 0.342175 0.325540
O O6 0.205430 0.331544 0.371403
O O7 0.249438 0.463560 0.334806
O O8 0.221470 0.346534 0.262080
O O9 0.086917 0.303220 0.670521
O O10 0.936218 0.318565 0.659623
O O11 0.995900 0.343154 0.761484
O O12 0.597007 0.402994 0.035862
O O13 0.736977 0.393679 0.074186
O O14 0.697169 0.500000 0.000000
O O15 0.098021 0.611775 0.567164
O O16 0.500000 0.880681 0.500000
O O17 0.516272 0.869770 0.619489
O O18 0.500000 0.000000 0.566672
O O19 0.707435 0.882120 0.182677
O O20 0.731113 0.268888 0.825220
#
# Coordination Sequence:
#
# PCOD9560222 Si02
#       8
#    16  16  16  16  16  16  16  16
#     4   9  18  32  50  74 108 149 186 224 272 323
#     4   9  18  33  54  78 106 140 178 222 271 324
#     4  10  19  32  51  80 111 138 182 225 271 319
#     4  10  20  31  49  73 104 145 191 232 259 303
#     4  10  19  34  54  76 105 142 182 222 267 327
#     4  10  22  38  57  76 105 144 175 220 273 325
#     4  10  20  35  54  82 104 139 181 223 270 327
#     4  10  19  32  52  78 113 143 168 217 282 331
#
# _framework density 18.054017999999999
#
# number of rings (size 3 to 8) (size 9 to 14) (size 15 to 20)
#    0.000    2.250    1.250    1.875    1.750    2.125 
#    0.000    0.000    0.000    3.375    0.000    0.000 
#    0.000    0.000    0.000    5.875    0.000    0.250 
#
# Total GULP energy -356399.495195 kJ/mol
# GULP energy per Si atom -5568.742112 kJ/mol
# Density = 1.801293 g / cm^3
# Si number density = 18.054018 Si / 1000 Ang^3
#
#
#
# Elastic Constant Matrix: (Units=GPa)
#
#
# Indices 1 2 3 4 5 6 
#
# 1 73.4401 12.5354 19.7870 0.0000 0.0000 0.0000
# 2 12.5354 73.4379 19.7868 0.0000 0.0000 0.0000
# 3 19.7870 19.7868 68.1630 0.0000 0.0000 0.0000
# 4 0.0000 0.0000 0.0000 -2.9281 0.0000 0.0000
# 5 0.0000 0.0000 0.0000 0.0000 -2.9299 0.0000
# 6 0.0000 0.0000 0.0000 0.0000 0.0000 21.9256
#
#
#
# Elastic Compliance Matrix: (Units=1/GPa)
#
#
# Indices 1 2 3 4 5 6 
#
# 1 0.014922 -0.001497 -0.003897 0.000000 0.000000 0.000000
# 2 -0.001497 0.014923 -0.003897 0.000000 0.000000 0.000000
# 3 -0.003897 -0.003897 0.016933 0.000000 0.000000 0.000000
# 4 0.000000 0.000000 0.000000 -0.341524 0.000000 0.000000
# 5 0.000000 0.000000 0.000000 0.000000 -0.341312 0.000000
# 6 0.000000 0.000000 0.000000 0.000000 0.000000 0.045609
#
#
# Mechanical properties :
#
#
# Convention : Reuss Voigt Hill
#
# Bulk Modulus (GPa) = 35.46722 35.47328 35.47025
# Shear Modulus (GPa) = -8.88939 14.07566 2.59313
#
# Velocity S-wave (km/s) = -2.22137 2.79524 1.19977
# Velocity P-wave (km/s) = 3.62055 5.48715 4.64851
#
# Compressibility (1/GPa) = 0.02819505
#
# Stress axis : x y z
#
# Youngs Moduli (GPa) = 67.01480 67.01269 59.05519
#
# Poissons Ratio (x) = 0.10032 0.23015
# Poissons Ratio (y) = 0.10033 0.23015
# Poissons Ratio (z) = 0.26117 0.26116
#
# Static dielectric constant tensor:
#      x y z
#    x 1.651370 0.000000 0.000000 
#    y 0.000000 1.651370 0.000000 
#    z 0.000000 0.000000 1.641830 
# 
# From -- ./inp_files/7354.got.cif
#   From: 2010.05.17/outbox.cif.g08.bks.cpg/sg121_4_cif.got.tgz:7354.got - 2010.05.20 11:32:06.
