data_PCOD9560747
_publ_section_title
;
Structure prediction by ZEFSAII (Michael W. Deem and Ramdas Pophale) SiO2 
 PCOD9560747
Probable space group: I -4 2 D
;
_chemical_formula_sum "Si O2"
_cell_formula_units_Z 72
_cell_length_a 11.797161
_cell_length_b 11.797161
_cell_length_c 24.234941
_cell_angle_alpha 90.000000
_cell_angle_beta 90.000000
_cell_angle_gamma 90.000000
_cell_volume 3372.849629
_symmetry_space_group_name_H-M "I -4 2 D"
_symmetry_group_IT_number 122
_symmetry_cell_setting 'tetragonal'
loop_
_space_group_symop_operation_xyz
x,y,z
y,-x,-z
-x,-y,z
-y,x,-z
x,1/2-y,1/4-z
-x,1/2+y,1/4-z
-y,1/2-x,1/4+z
y,1/2+x,1/4+z
1/2+x,1/2+y,1/2+z
1/2+y,1/2-x,1/2-z
1/2-x,1/2-y,1/2+z
1/2-y,1/2+x,1/2-z
1/2+x,-y,3/4-z
1/2-x,y,3/4-z
1/2-y,-x,3/4+z
1/2+y,x,3/4+z
loop_
_atom_site_type_symbol
_atom_site_label
_atom_site_fract_x
_atom_site_fract_y
_atom_site_fract_z
Si Si1 0.127064 0.157436 0.202015
Si Si2 0.146771 0.034899 0.699939
Si Si3 0.714144 0.379607 0.939282
Si Si4 0.584341 0.099399 0.830013
Si Si5 0.000000 0.000000 0.595888
O O1 0.261844 0.166019 0.212508
O O2 0.084932 0.285441 0.188132
O O3 0.110228 0.086261 0.146461
O O4 0.054862 0.118165 0.253567
O O5 0.099565 0.161220 0.713807
O O6 0.281379 0.046427 0.694967
O O7 0.102655 0.993078 0.640066
O O8 0.750000 0.357130 0.875000
O O9 0.614906 0.473425 0.937837
O O10 0.500000 0.000000 0.813950
#
# Coordination Sequence:
#
# PCOD9560747 Si02
#       5
#    16  16  16  16   8
#     4  10  19  37  58  94 140 170 218 282 330 400
#     4  10  21  34  65  98 125 185 229 268 346 409
#     4   9  17  38  62  92 131 175 224 276 348 388
#     4  10  21  36  59  96 141 175 213 277 341 396
#     4  10  18  38  66  82 127 190 225 286 340 392
#
# _framework density 21.346935999999999
#
# number of rings (size 3 to 8) (size 9 to 14) (size 15 to 20)
#    0.000    2.222    6.667    0.000    7.778    0.000 
#    0.000    0.000   14.667   29.333    0.000    0.000 
#    0.000    0.000    0.000    0.000    0.000    0.000 
#
# Total GULP energy -200961.635352 kJ/mol
# GULP energy per Si atom -5582.267649 kJ/mol
# Density = 2.129835 g / cm^3
# Si number density = 21.346936 Si / 1000 Ang^3
#
#
#
# Elastic Constant Matrix: (Units=GPa)
#
#
# Indices 1 2 3 4 5 6 
#
# 1 119.7546 88.9697 35.3150 0.0000 0.0000 0.0000
# 2 88.9697 119.7546 35.3150 0.0000 0.0000 0.0000
# 3 35.3150 35.3150 64.6078 0.0000 0.0000 0.0000
# 4 0.0000 0.0000 0.0000 -8.0409 0.0000 0.0000
# 5 0.0000 0.0000 0.0000 0.0000 -8.0409 0.0000
# 6 0.0000 0.0000 0.0000 0.0000 0.0000 46.0378
#
#
#
# Elastic Compliance Matrix: (Units=1/GPa)
#
#
# Indices 1 2 3 4 5 6 
#
# 1 0.019181 -0.013303 -0.003213 0.000000 0.000000 0.000000
# 2 -0.013303 0.019181 -0.003213 0.000000 0.000000 0.000000
# 3 -0.003213 -0.003213 0.018991 0.000000 0.000000 0.000000
# 4 0.000000 0.000000 0.000000 -0.124365 0.000000 0.000000
# 5 0.000000 0.000000 0.000000 0.000000 -0.124365 0.000000
# 6 0.000000 0.000000 0.000000 0.000000 0.000000 0.021721
#
#
# Mechanical properties :
#
#
# Convention : Reuss Voigt Hill
#
# Bulk Modulus (GPa) = 55.88224 69.25736 62.56980
# Shear Modulus (GPa) = -40.24671 15.62572 -12.31050
#
# Velocity S-wave (km/s) = -4.34679 2.70846 -2.40404
# Velocity P-wave (km/s) = 1.02088 6.50347 4.65496
#
# Compressibility (1/GPa) = 0.01789477
#
# Stress axis : x y z
#
# Youngs Moduli (GPa) = 52.13528 52.13528 52.65757
#
# Poissons Ratio (x) = 0.69353 0.16919
# Poissons Ratio (y) = 0.69353 0.16919
# Poissons Ratio (z) = 0.16752 0.16752
#
# Static dielectric constant tensor:
#      x y z
#    x 1.791180 0.000000 0.000000 
#    y 0.000000 1.791180 0.000000 
#    z 0.000000 0.000000 1.784550 
# 
# From -- ./inp_files/8601.got.cif
#   From: 2010.05.17/outbox.cif.g08.bks.cpg/sg122_5_cif.got.tgz:8601.got - 2010.05.20 11:37:33.
