data_PCOD9560376
_publ_section_title
;
Structure prediction by ZEFSAII (Michael W. Deem and Ramdas Pophale) SiO2 
 PCOD9560376
Probable space group: I -4 2 M
;
_chemical_formula_sum "Si O2"
_cell_formula_units_Z 112
_cell_length_a 15.158948
_cell_length_b 15.158948
_cell_length_c 22.900521
_cell_angle_alpha 90.000000
_cell_angle_beta 90.000000
_cell_angle_gamma 90.000000
_cell_volume 5262.395555
_symmetry_space_group_name_H-M "I -4 2 M"
_symmetry_group_IT_number 121
_symmetry_cell_setting 'tetragonal'
loop_
_space_group_symop_operation_xyz
x,y,z
y,-x,-z
-x,-y,z
-y,x,-z
x,-y,-z
-x,y,-z
-y,-x,z
y,x,z
1/2+x,1/2+y,1/2+z
1/2+y,1/2-x,1/2-z
1/2-x,1/2-y,1/2+z
1/2-y,1/2+x,1/2-z
1/2+x,1/2-y,1/2-z
1/2-x,1/2+y,1/2-z
1/2-y,1/2-x,1/2+z
1/2+y,1/2+x,1/2+z
loop_
_atom_site_type_symbol
_atom_site_label
_atom_site_fract_x
_atom_site_fract_y
_atom_site_fract_z
Si Si1 0.315162 0.461986 0.083552
Si Si2 0.066099 0.422459 0.344491
Si Si3 0.865965 0.276910 0.566578
Si Si4 0.959981 0.677515 0.226953
Si Si5 0.178137 0.675139 0.868313
Si Si6 0.505050 0.360556 0.782981
Si Si7 0.102234 0.248754 0.019080
O O1 0.392506 0.392506 0.063551
O O2 0.285836 0.551058 0.049663
O O3 0.227128 0.406090 0.100013
O O4 0.346343 0.495829 0.147367
O O5 0.092338 0.345171 0.387689
O O6 0.028944 0.381904 0.284505
O O7 0.153606 0.469904 0.322333
O O8 0.000000 0.500000 0.366284
O O9 0.789139 0.210862 0.588710
O O10 0.818898 0.338526 0.518096
O O11 0.867902 0.660958 0.193684
O O12 0.975480 0.774969 0.249199
O O13 0.255022 0.744979 0.859270
O O14 0.110408 0.717185 0.914547
O O15 0.602145 0.397856 0.768404
O O16 0.435295 0.435295 0.768628
O O17 0.156151 0.156151 0.014115
O O18 0.000000 0.244800 0.000000
#
# Coordination Sequence:
#
# PCOD9560376 Si02
#       7
#    16  16  16  16  16  16  16
#     4  10  20  37  60  88 127 172 216 263 322 384
#     4  12  23  38  58  90 130 166 206 262 322 384
#     4  11  24  41  66  96 129 169 221 275 321 381
#     4  12  20  35  59  86 123 166 212 259 322 387
#     4  10  22  39  62  90 125 169 213 265 327 388
#     4  10  21  36  55  84 123 165 212 262 315 384
#     4  10  23  46  69  97 128 163 213 272 330 386
#
# _framework density 21.283083000000001
#
# number of rings (size 3 to 8) (size 9 to 14) (size 15 to 20)
#    0.000    1.286    2.857    3.429    0.000    2.714 
#    0.000    1.429    0.000    1.714    0.000    8.000 
#    0.000    0.000    0.000    0.000    0.000    0.000 
#
# Total GULP energy -312607.922697 kJ/mol
# GULP energy per Si atom -5582.284334 kJ/mol
# Density = 2.123464 g / cm^3
# Si number density = 21.283083 Si / 1000 Ang^3
#
#
#
# Elastic Constant Matrix: (Units=GPa)
#
#
# Indices 1 2 3 4 5 6 
#
# 1 135.6936 56.9424 40.8037 0.0000 0.0000 0.0000
# 2 56.9424 135.6942 40.8057 0.0000 0.0000 0.0000
# 3 40.8037 40.8057 56.6965 0.0000 0.0000 0.0000
# 4 0.0000 0.0000 0.0000 16.0303 0.0000 0.0000
# 5 0.0000 0.0000 0.0000 0.0000 16.0306 0.0000
# 6 0.0000 0.0000 0.0000 0.0000 0.0000 28.1169
#
#
#
# Elastic Compliance Matrix: (Units=1/GPa)
#
#
# Indices 1 2 3 4 5 6 
#
# 1 0.010083 -0.002615 -0.005375 0.000000 0.000000 0.000000
# 2 -0.002615 0.010083 -0.005375 0.000000 0.000000 0.000000
# 3 -0.005375 -0.005375 0.025374 0.000000 0.000000 0.000000
# 4 0.000000 0.000000 0.000000 0.062382 0.000000 0.000000
# 5 0.000000 0.000000 0.000000 0.000000 0.062381 0.000000
# 6 0.000000 0.000000 0.000000 0.000000 0.000000 0.035566
#
#
# Mechanical properties :
#
#
# Convention : Reuss Voigt Hill
#
# Bulk Modulus (GPa) = 53.15967 67.24312 60.20139
# Shear Modulus (GPa) = 20.93197 24.67105 22.80151
#
# Velocity S-wave (km/s) = 3.13949 3.40838 3.27669
# Velocity P-wave (km/s) = 6.17847 6.86677 6.53169
#
# Compressibility (1/GPa) = 0.01881125
#
# Stress axis : x y z
#
# Youngs Moduli (GPa) = 99.17621 99.17412 39.40976
#
# Poissons Ratio (x) = 0.25934 0.21181
# Poissons Ratio (y) = 0.25935 0.21183
# Poissons Ratio (z) = 0.53303 0.53308
#
# Static dielectric constant tensor:
#      x y z
#    x 1.809260 0.000000 0.000000 
#    y 0.000000 1.809260 0.000000 
#    z 0.000000 0.000000 1.764900 
# 
# From -- ./inp_files/7211.got.cif
#   From: 2010.05.17/outbox.cif.g08.bks.cpg/sg121_4_cif.got.tgz:7211.got - 2010.05.20 11:32:06.
