data_PCOD9560749
_publ_section_title
;
Structure prediction by ZEFSAII (Michael W. Deem and Ramdas Pophale) SiO2 
 PCOD9560749
Probable space group: I -4 2 D
;
_chemical_formula_sum "Si O2"
_cell_formula_units_Z 108
_cell_length_a 28.289119
_cell_length_b 28.289119
_cell_length_c 5.923282
_cell_angle_alpha 90.000000
_cell_angle_beta 90.000000
_cell_angle_gamma 90.000000
_cell_volume 4740.250083
_symmetry_space_group_name_H-M "I -4 2 D"
_symmetry_group_IT_number 122
_symmetry_cell_setting 'tetragonal'
loop_
_space_group_symop_operation_xyz
x,y,z
y,-x,-z
-x,-y,z
-y,x,-z
x,1/2-y,1/4-z
-x,1/2+y,1/4-z
-y,1/2-x,1/4+z
y,1/2+x,1/4+z
1/2+x,1/2+y,1/2+z
1/2+y,1/2-x,1/2-z
1/2-x,1/2-y,1/2+z
1/2-y,1/2+x,1/2-z
1/2+x,-y,3/4-z
1/2-x,y,3/4-z
1/2-y,-x,3/4+z
1/2+y,x,3/4+z
loop_
_atom_site_type_symbol
_atom_site_label
_atom_site_fract_x
_atom_site_fract_y
_atom_site_fract_z
Si Si1 0.775019 0.965519 0.128028
Si Si2 0.122175 0.399065 0.595202
Si Si3 0.250000 0.607000 0.875000
Si Si4 0.625193 0.823090 0.473860
Si Si5 0.500000 0.500000 0.500000
Si Si6 0.798006 0.635383 0.278256
Si Si7 0.669666 0.053969 0.652817
Si Si8 0.434136 0.017760 0.131970
O O1 0.750000 0.975403 0.375000
O O2 0.822191 0.998225 0.114616
O O3 0.750000 0.974120 0.875000
O O4 0.785451 0.909710 0.125761
O O5 0.120503 0.370399 0.826374
O O6 0.171388 0.386813 0.480566
O O7 0.080754 0.377580 0.432201
O O8 0.114127 0.454553 0.628912
O O9 0.221001 0.634971 0.687354
O O10 0.289447 0.575528 0.755612
O O11 0.666968 0.829631 0.651374
O O12 0.575293 0.818449 0.601869
O O13 0.452390 0.500634 0.355854
O O14 0.750000 0.656607 0.375000
O O15 0.473826 0.056661 0.205229
#
# Coordination Sequence:
#
# PCOD9560749 Si02
#       8
#    16  16   8  16   4  16  16  16
#     4  11  24  40  67  99 137 182 222 273 349 411
#     4  10  23  38  60  98 125 173 219 274 343 401
#     4  10  18  38  66  98 122 160 212 276 342 390
#     4  10  22  38  65  95 128 165 218 276 342 404
#     4   8  18  36  60  74 124 180 210 264 304 362
#     4  10  25  43  62  94 130 182 218 271 345 418
#     4  10  21  38  62 100 129 167 215 280 335 410
#     4   9  20  37  58  88 123 173 217 270 319 377
#
# _framework density 22.783608999999998
#
# number of rings (size 3 to 8) (size 9 to 14) (size 15 to 20)
#    0.000    2.222    0.741    1.333    6.222    8.296 
#    0.000    0.000    0.000    0.000  138.667    0.000 
#    0.000    0.000    0.000    0.000    0.000    0.000 
#
# Total GULP energy -301383.517315 kJ/mol
# GULP energy per Si atom -5581.176247 kJ/mol
# Density = 2.273175 g / cm^3
# Si number density = 22.783609 Si / 1000 Ang^3
#
#
#
# Elastic Constant Matrix: (Units=GPa)
#
#
# Indices 1 2 3 4 5 6 
#
# 1 40.0377 -3.7011 13.3872 0.0000 0.0000 0.0000
# 2 -3.7011 40.0377 13.3872 0.0000 0.0000 0.0000
# 3 13.3872 13.3872 93.1349 0.0000 0.0000 0.0000
# 4 0.0000 0.0000 0.0000 5.3160 0.0000 0.0000
# 5 0.0000 0.0000 0.0000 0.0000 5.3160 0.0000
# 6 0.0000 0.0000 0.0000 0.0000 0.0000 20.6427
#
#
#
# Elastic Compliance Matrix: (Units=1/GPa)
#
#
# Indices 1 2 3 4 5 6 
#
# 1 0.026822 0.003959 -0.004424 0.000000 0.000000 0.000000
# 2 0.003959 0.026822 -0.004424 0.000000 0.000000 0.000000
# 3 -0.004424 -0.004424 0.012009 0.000000 0.000000 0.000000
# 4 0.000000 0.000000 0.000000 0.188113 0.000000 0.000000
# 5 0.000000 0.000000 0.000000 0.000000 0.188113 0.000000
# 6 0.000000 0.000000 0.000000 0.000000 0.000000 0.048443
#
#
# Mechanical properties :
#
#
# Convention : Reuss Voigt Hill
#
# Bulk Modulus (GPa) = 17.89786 24.37298 21.13542
# Shear Modulus (GPa) = 9.63901 16.26406 12.95153
#
# Velocity S-wave (km/s) = 2.05909 2.67469 2.38682
# Velocity P-wave (km/s) = 3.67774 4.50105 4.11006
#
# Compressibility (1/GPa) = 0.05587261
#
# Stress axis : x y z
#
# Youngs Moduli (GPa) = 37.28310 37.28310 83.27058
#
# Poissons Ratio (x) = -0.14760 0.36842
# Poissons Ratio (y) = -0.14760 0.36842
# Poissons Ratio (z) = 0.16496 0.16496
#
# Static dielectric constant tensor:
#      x y z
#    x 1.866080 0.000000 0.000000 
#    y 0.000000 1.866080 0.000000 
#    z 0.000000 0.000000 1.896540 
# 
# From -- ./inp_files/1580.got.cif
#   From: 2010.05.17/outbox.cif.g08.bks.cpg/sg122_1_cif.got.tgz:1580.got - 2010.05.20 11:37:33.
