data_PCOD9560419
_publ_section_title
;
Structure prediction by ZEFSAII (Michael W. Deem and Ramdas Pophale) SiO2 
 PCOD9560419
Probable space group: I -4 2 M
;
_chemical_formula_sum "Si O2"
_cell_formula_units_Z 96
_cell_length_a 17.904930
_cell_length_b 17.904930
_cell_length_c 17.486164
_cell_angle_alpha 90.000000
_cell_angle_beta 90.000000
_cell_angle_gamma 90.000000
_cell_volume 5605.828435
_symmetry_space_group_name_H-M "I -4 2 M"
_symmetry_group_IT_number 121
_symmetry_cell_setting 'tetragonal'
loop_
_space_group_symop_operation_xyz
x,y,z
y,-x,-z
-x,-y,z
-y,x,-z
x,-y,-z
-x,y,-z
-y,-x,z
y,x,z
1/2+x,1/2+y,1/2+z
1/2+y,1/2-x,1/2-z
1/2-x,1/2-y,1/2+z
1/2-y,1/2+x,1/2-z
1/2+x,1/2-y,1/2-z
1/2-x,1/2+y,1/2-z
1/2-y,1/2-x,1/2+z
1/2+y,1/2+x,1/2+z
loop_
_atom_site_type_symbol
_atom_site_label
_atom_site_fract_x
_atom_site_fract_y
_atom_site_fract_z
Si Si1 0.741536 0.620687 0.271829
Si Si2 0.237219 0.354888 0.823915
Si Si3 0.800538 0.581758 0.971120
Si Si4 0.815313 0.310470 0.381267
Si Si5 0.293260 0.964599 0.810998
Si Si6 0.083263 0.530898 0.582428
O O1 0.662245 0.662245 0.265953
O O2 0.793328 0.671278 0.327166
O O3 0.784526 0.632360 0.190465
O O4 0.739601 0.535972 0.300439
O O5 0.308382 0.308382 0.791852
O O6 0.254097 0.385683 0.907417
O O7 0.209249 0.422102 0.770280
O O8 0.880669 0.577645 0.928695
O O9 0.780000 0.500000 0.000000
O O10 0.808623 0.636044 0.042836
O O11 0.749027 0.250974 0.384636
O O12 0.782455 0.393065 0.366200
O O13 0.367676 0.002529 0.846476
O O14 0.112360 0.500000 0.500000
O O15 0.000000 0.500000 0.591496
#
# Coordination Sequence:
#
# PCOD9560419 Si02
#       6
#    16  16  16  16  16  16
#     4   9  19  35  52  77 106 139 189 232 269 330
#     4  10  22  37  53  79 111 144 188 234 274 334
#     4  12  20  34  56  80 113 148 181 225 273 332
#     4  10  21  35  53  77 110 147 185 227 280 334
#     4  11  19  35  55  73 108 151 184 227 275 323
#     4  11  20  34  48  79 119 145 177 216 259 336
#
# _framework density 17.125033999999999
#
# number of rings (size 3 to 8) (size 9 to 14) (size 15 to 20)
#    0.000    1.500    5.000    3.000    0.000    1.333 
#    0.000    0.000    0.000    2.000    0.000    0.000 
#    0.000    4.333    0.000    0.000    0.000    0.000 
#
# Total GULP energy -267349.112885 kJ/mol
# GULP energy per Si atom -5569.773185 kJ/mol
# Density = 1.708606 g / cm^3
# Si number density = 17.125034 Si / 1000 Ang^3
#
#
#
# Elastic Constant Matrix: (Units=GPa)
#
#
# Indices 1 2 3 4 5 6 
#
# 1 72.5265 32.9217 34.5662 0.0000 0.0000 0.0000
# 2 32.9217 72.5259 34.5661 0.0000 0.0000 0.0000
# 3 34.5662 34.5661 89.7976 0.0000 0.0000 0.0000
# 4 0.0000 0.0000 0.0000 19.4300 0.0000 0.0000
# 5 0.0000 0.0000 0.0000 0.0000 19.4287 0.0000
# 6 0.0000 0.0000 0.0000 0.0000 0.0000 20.0968
#
#
#
# Elastic Compliance Matrix: (Units=1/GPa)
#
#
# Indices 1 2 3 4 5 6 
#
# 1 0.018967 -0.006283 -0.004883 0.000000 0.000000 0.000000
# 2 -0.006283 0.018967 -0.004883 0.000000 0.000000 0.000000
# 3 -0.004883 -0.004883 0.014895 0.000000 0.000000 0.000000
# 4 0.000000 0.000000 0.000000 0.051467 0.000000 0.000000
# 5 0.000000 0.000000 0.000000 0.000000 0.051470 0.000000
# 6 0.000000 0.000000 0.000000 0.000000 0.000000 0.049759
#
#
# Mechanical properties :
#
#
# Convention : Reuss Voigt Hill
#
# Bulk Modulus (GPa) = 48.23137 48.77309 48.50223
# Shear Modulus (GPa) = 20.44716 20.64416 20.54566
#
# Velocity S-wave (km/s) = 3.45917 3.47579 3.46749
# Velocity P-wave (km/s) = 6.64679 6.68211 6.66447
#
# Compressibility (1/GPa) = 0.02073339
#
# Stress axis : x y z
#
# Youngs Moduli (GPa) = 52.72320 52.72272 67.13582
#
# Poissons Ratio (x) = 0.33124 0.32780
# Poissons Ratio (y) = 0.33124 0.32780
# Poissons Ratio (z) = 0.25743 0.25743
#
# Static dielectric constant tensor:
#      x y z
#    x 1.586250 0.000000 0.000000 
#    y 0.000000 1.586250 0.000000 
#    z 0.000000 0.000000 1.629920 
# 
# From -- ./inp_files/5402.got.cif
#   From: 2010.05.17/outbox.cif.g08.bks.cpg/sg121_3_cif.got.tgz:5402.got - 2010.05.20 11:32:06.
