data_PCOD9560240
_publ_section_title
;
Structure prediction by ZEFSAII (Michael W. Deem and Ramdas Pophale) SiO2 
 PCOD9560240
Probable space group: I -4 2 M
;
_chemical_formula_sum "Si O2"
_cell_formula_units_Z 112
_cell_length_a 14.005722
_cell_length_b 14.005722
_cell_length_c 29.863573
_cell_angle_alpha 90.000000
_cell_angle_beta 90.000000
_cell_angle_gamma 90.000000
_cell_volume 5858.045908
_symmetry_space_group_name_H-M "I -4 2 M"
_symmetry_group_IT_number 121
_symmetry_cell_setting 'tetragonal'
loop_
_space_group_symop_operation_xyz
x,y,z
y,-x,-z
-x,-y,z
-y,x,-z
x,-y,-z
-x,y,-z
-y,-x,z
y,x,z
1/2+x,1/2+y,1/2+z
1/2+y,1/2-x,1/2-z
1/2-x,1/2-y,1/2+z
1/2-y,1/2+x,1/2-z
1/2+x,1/2-y,1/2-z
1/2-x,1/2+y,1/2-z
1/2-y,1/2-x,1/2+z
1/2+y,1/2+x,1/2+z
loop_
_atom_site_type_symbol
_atom_site_label
_atom_site_fract_x
_atom_site_fract_y
_atom_site_fract_z
Si Si1 0.603591 0.235412 0.485469
Si Si2 0.155342 0.007334 0.587376
Si Si3 0.051881 0.645853 0.243063
Si Si4 0.892478 0.730207 0.118419
Si Si5 0.228952 0.391935 0.351989
Si Si6 0.799233 0.364503 0.062716
Si Si7 0.597338 0.754093 0.170473
O O1 0.500000 0.271009 0.500000
O O2 0.679595 0.320406 0.489658
O O3 0.604151 0.204421 0.434028
O O4 0.633145 0.154588 0.520833
O O5 0.073823 0.926178 0.589487
O O6 0.244054 0.964429 0.560811
O O7 0.196416 0.030745 0.636309
O O8 0.103467 0.103467 0.569990
O O9 0.109973 0.555869 0.262731
O O10 0.098997 0.682141 0.197197
O O11 0.050037 0.722111 0.282681
O O12 0.820425 0.820425 0.123429
O O13 0.845853 0.641651 0.145069
O O14 0.999307 0.754314 0.134361
O O15 0.319219 0.319219 0.351595
O O16 0.155870 0.352713 0.390115
O O17 0.716685 0.283316 0.061037
O O18 0.687306 0.687306 0.180141
#
# Coordination Sequence:
#
# PCOD9560240 Si02
#       7
#    16  16  16  16  16  16  16
#     4  10  19  33  56  84 117 159 199 236 284 341
#     4   9  18  35  61  88 113 149 198 246 295 350
#     4  11  22  36  56  84 113 149 195 242 297 359
#     4  10  21  37  57  82 119 160 195 238 292 346
#     4  11  21  36  57  83 116 155 200 248 294 345
#     4   9  18  33  55  85 119 154 193 242 294 341
#     4  10  20  38  59  81 114 153 192 241 296 351
#
# _framework density 19.119005000000001
#
# number of rings (size 3 to 8) (size 9 to 14) (size 15 to 20)
#    0.000    2.000    2.857    1.286    0.000    0.429 
#    0.000    3.571    0.000    5.143    0.000    8.000 
#    0.000    0.000    0.000    0.000    0.000    0.000 
#
# Total GULP energy -312317.775181 kJ/mol
# GULP energy per Si atom -5577.103128 kJ/mol
# Density = 1.907549 g / cm^3
# Si number density = 19.119005 Si / 1000 Ang^3
#
#
#
# Elastic Constant Matrix: (Units=GPa)
#
#
# Indices 1 2 3 4 5 6 
#
# 1 42.2403 21.1481 23.6574 0.0000 0.0000 0.0000
# 2 21.1481 42.2405 23.6577 0.0000 0.0000 0.0000
# 3 23.6574 23.6577 81.7710 0.0000 0.0000 0.0000
# 4 0.0000 0.0000 0.0000 25.1617 0.0000 0.0000
# 5 0.0000 0.0000 0.0000 0.0000 25.1618 0.0000
# 6 0.0000 0.0000 0.0000 0.0000 0.0000 10.2461
#
#
#
# Elastic Compliance Matrix: (Units=1/GPa)
#
#
# Indices 1 2 3 4 5 6 
#
# 1 0.033766 -0.013645 -0.005821 0.000000 0.000000 0.000000
# 2 -0.013645 0.033766 -0.005821 0.000000 0.000000 0.000000
# 3 -0.005821 -0.005821 0.015598 0.000000 0.000000 0.000000
# 4 0.000000 0.000000 0.000000 0.039743 0.000000 0.000000
# 5 0.000000 0.000000 0.000000 0.000000 0.039743 0.000000
# 6 0.000000 0.000000 0.000000 0.000000 0.000000 0.097598
#
#
# Mechanical properties :
#
#
# Convention : Reuss Voigt Hill
#
# Bulk Modulus (GPa) = 30.71784 33.68645 32.20214
# Shear Modulus (GPa) = 15.54535 18.63316 17.08925
#
# Velocity S-wave (km/s) = 2.85456 3.12523 2.99295
# Velocity P-wave (km/s) = 5.19290 5.53898 5.36873
#
# Compressibility (1/GPa) = 0.03255438
#
# Stress axis : x y z
#
# Youngs Moduli (GPa) = 29.61573 29.61581 64.11221
#
# Poissons Ratio (x) = 0.40410 0.37321
# Poissons Ratio (y) = 0.40410 0.37322
# Poissons Ratio (z) = 0.17240 0.17240
#
# Static dielectric constant tensor:
#      x y z
#    x 1.674610 0.000000 0.000000 
#    y 0.000000 1.674610 0.000000 
#    z 0.000000 0.000000 1.671490 
# 
# From -- ./inp_files/7740.got.cif
#   From: 2010.05.17/outbox.cif.g08.bks.cpg/sg121_4_cif.got.tgz:7740.got - 2010.05.20 11:32:06.
