data_PCOD9560708
_publ_section_title
;
Structure prediction by ZEFSAII (Michael W. Deem and Ramdas Pophale) SiO2 
 PCOD9560708
Probable space group: I -4 2 D
;
_chemical_formula_sum "Si O2"
_cell_formula_units_Z 84
_cell_length_a 18.070012
_cell_length_b 18.070012
_cell_length_c 15.505420
_cell_angle_alpha 90.000000
_cell_angle_beta 90.000000
_cell_angle_gamma 90.000000
_cell_volume 5062.912439
_symmetry_space_group_name_H-M "I -4 2 D"
_symmetry_group_IT_number 122
_symmetry_cell_setting 'tetragonal'
loop_
_space_group_symop_operation_xyz
x,y,z
y,-x,-z
-x,-y,z
-y,x,-z
x,1/2-y,1/4-z
-x,1/2+y,1/4-z
-y,1/2-x,1/4+z
y,1/2+x,1/4+z
1/2+x,1/2+y,1/2+z
1/2+y,1/2-x,1/2-z
1/2-x,1/2-y,1/2+z
1/2-y,1/2+x,1/2-z
1/2+x,-y,3/4-z
1/2-x,y,3/4-z
1/2-y,-x,3/4+z
1/2+y,x,3/4+z
loop_
_atom_site_type_symbol
_atom_site_label
_atom_site_fract_x
_atom_site_fract_y
_atom_site_fract_z
Si Si1 0.382486 0.284214 0.542419
Si Si2 0.753529 0.801501 0.471278
Si Si3 0.967831 0.859343 0.891568
Si Si4 0.136909 0.687868 0.050746
Si Si5 0.101805 0.738177 0.369806
Si Si6 0.500000 0.500000 0.500000
O O1 0.421834 0.250000 0.625000
O O2 0.329040 0.225739 0.495742
O O3 0.437063 0.316432 0.474251
O O4 0.325670 0.345224 0.579402
O O5 0.750000 0.833544 0.375000
O O6 0.801593 0.725602 0.467423
O O7 0.774374 0.855964 0.549108
O O8 0.894842 0.877213 0.835377
O O9 0.028115 0.804480 0.850733
O O10 0.004850 0.930915 0.934985
O O11 0.120981 0.750000 0.125000
O O12 0.094572 0.707117 0.962082
#
# Coordination Sequence:
#
# PCOD9560708 Si02
#       6
#    16  16  16  16  16   4
#     4   9  17  31  52  73  98 137 175 214 265 322
#     4   9  16  34  56  76 100 131 181 242 261 302
#     4  12  20  34  49  78 113 148 173 217 280 342
#     4  10  17  34  54  76 103 141 186 221 261 324
#     4  10  20  32  51  81 107 135 183 221 277 318
#     4  12  24  32  44  76 132 146 164 216 280 360
#
# _framework density 16.591241
#
# number of rings (size 3 to 8) (size 9 to 14) (size 15 to 20)
#    0.000    1.905    7.619    1.714    0.000    2.286 
#    0.000    1.905    0.000    0.000    0.000    0.000 
#    0.000    0.000    0.000    0.000    0.000    0.000 
#
# Total GULP energy -233841.012074 kJ/mol
# GULP energy per Si atom -5567.643145 kJ/mol
# Density = 1.655348 g / cm^3
# Si number density = 16.591241 Si / 1000 Ang^3
#
#
#
# Elastic Constant Matrix: (Units=GPa)
#
#
# Indices 1 2 3 4 5 6 
#
# 1 31.7625 5.6212 20.6927 0.0000 0.0000 0.0000
# 2 5.6212 31.7625 20.6927 0.0000 0.0000 0.0000
# 3 20.6927 20.6927 73.1958 0.0000 0.0000 0.0000
# 4 0.0000 0.0000 0.0000 11.7399 0.0000 0.0000
# 5 0.0000 0.0000 0.0000 0.0000 11.7399 0.0000
# 6 0.0000 0.0000 0.0000 0.0000 0.0000 16.7780
#
#
#
# Elastic Compliance Matrix: (Units=1/GPa)
#
#
# Indices 1 2 3 4 5 6 
#
# 1 0.038594 0.000341 -0.011007 0.000000 0.000000 0.000000
# 2 0.000341 0.038594 -0.011007 0.000000 0.000000 0.000000
# 3 -0.011007 -0.011007 0.019885 0.000000 0.000000 0.000000
# 4 0.000000 0.000000 0.000000 0.085180 0.000000 0.000000
# 5 0.000000 0.000000 0.000000 0.000000 0.085180 0.000000
# 6 0.000000 0.000000 0.000000 0.000000 0.000000 0.059602
#
#
# Mechanical properties :
#
#
# Convention : Reuss Voigt Hill
#
# Bulk Modulus (GPa) = 18.61261 25.63714 22.12488
# Shear Modulus (GPa) = 12.87693 14.03250 13.45472
#
# Velocity S-wave (km/s) = 2.78893 2.91138 2.85081
# Velocity P-wave (km/s) = 4.64904 5.17564 4.91939
#
# Compressibility (1/GPa) = 0.05372701
#
# Stress axis : x y z
#
# Youngs Moduli (GPa) = 25.91060 25.91060 50.28797
#
# Poissons Ratio (x) = -0.00883 0.55352
# Poissons Ratio (y) = -0.00883 0.55352
# Poissons Ratio (z) = 0.28520 0.28520
#
# Static dielectric constant tensor:
#      x y z
#    x 1.602400 0.000000 0.000000 
#    y 0.000000 1.602400 0.000000 
#    z 0.000000 0.000000 1.578260 
# 
# From -- ./inp_files/6252.got.cif
#   From: 2010.05.17/outbox.cif.g08.bks.cpg/sg122_4_cif.got.tgz:6252.got - 2010.05.20 11:37:33.
