data_PCOD9560192
_publ_section_title
;
Structure prediction by ZEFSAII (Michael W. Deem and Ramdas Pophale) SiO2 
 PCOD9560192
Probable space group: I -4 2 M
;
_chemical_formula_sum "Si O2"
_cell_formula_units_Z 104
_cell_length_a 21.442688
_cell_length_b 21.442688
_cell_length_c 13.802832
_cell_angle_alpha 90.000000
_cell_angle_beta 90.000000
_cell_angle_gamma 90.000000
_cell_volume 6346.388510
_symmetry_space_group_name_H-M "I -4 2 M"
_symmetry_group_IT_number 121
_symmetry_cell_setting 'tetragonal'
loop_
_space_group_symop_operation_xyz
x,y,z
y,-x,-z
-x,-y,z
-y,x,-z
x,-y,-z
-x,y,-z
-y,-x,z
y,x,z
1/2+x,1/2+y,1/2+z
1/2+y,1/2-x,1/2-z
1/2-x,1/2-y,1/2+z
1/2-y,1/2+x,1/2-z
1/2+x,1/2-y,1/2-z
1/2-x,1/2+y,1/2-z
1/2-y,1/2-x,1/2+z
1/2+y,1/2+x,1/2+z
loop_
_atom_site_type_symbol
_atom_site_label
_atom_site_fract_x
_atom_site_fract_y
_atom_site_fract_z
Si Si1 0.876839 0.226863 0.050318
Si Si2 0.730849 0.626146 0.676981
Si Si3 0.552992 0.447009 0.124566
Si Si4 0.494129 0.320019 0.343258
Si Si5 0.835390 0.000000 0.500000
Si Si6 0.090456 0.194724 0.659599
Si Si7 0.322720 0.216339 0.268633
Si Si8 0.448574 0.551427 0.355980
O O1 0.836084 0.163917 0.068935
O O2 0.947554 0.212820 0.081533
O O3 0.849360 0.278616 0.122993
O O4 0.868428 0.242521 0.938336
O O5 0.669298 0.669298 0.697732
O O6 0.718772 0.553451 0.693862
O O7 0.788888 0.653831 0.735678
O O8 0.500000 0.500000 0.106674
O O9 0.617300 0.466997 0.075111
O O10 0.558034 0.441967 0.239572
O O11 0.450287 0.331989 0.249662
O O12 0.525739 0.381839 0.388029
O O13 0.797557 0.951465 0.564834
O O14 0.143413 0.143413 0.638038
O O15 0.123423 0.257300 0.698225
O O16 0.268366 0.268366 0.262076
O O17 0.500000 0.500000 0.378236
#
# Coordination Sequence:
#
# PCOD9560192 Si02
#       8
#    16  16   8  16   8  16  16   8
#     4   9  18  33  52  67  92 130 163 196 241 290
#     4  10  19  33  49  69  94 121 167 209 243 276
#     4  11  18  24  36  57  89 131 175 203 232 272
#     4  11  19  30  45  69  95 130 165 203 236 280
#     4  12  17  26  40  62  92 128 171 206 238 288
#     4  10  19  31  46  65  95 135 167 199 247 296
#     4   8  17  34  50  64  86 125 165 201 244 290
#     4  11  20  28  40  61  95 141 175 203 236 273
#
# _framework density 16.387274000000001
#
# number of rings (size 3 to 8) (size 9 to 14) (size 15 to 20)
#    0.000    2.000    3.846    2.769    0.000    0.000 
#    2.769    0.000    0.000    0.000    0.000    0.000 
#    0.000    9.846    1.231    0.000    0.000    0.000 
#
# Total GULP energy -290039.958724 kJ/mol
# GULP energy per Si atom -5577.691514 kJ/mol
# Density = 1.634998 g / cm^3
# Si number density = 16.387274 Si / 1000 Ang^3
#
#
#
# Elastic Constant Matrix: (Units=GPa)
#
#
# Indices 1 2 3 4 5 6 
#
# 1 48.8612 26.3151 2.0125 0.0000 0.0000 0.0000
# 2 26.3151 48.8613 2.0122 0.0000 0.0000 0.0000
# 3 2.0125 2.0122 38.6216 0.0000 0.0000 0.0000
# 4 0.0000 0.0000 0.0000 14.8352 0.0000 0.0000
# 5 0.0000 0.0000 0.0000 0.0000 14.8341 0.0000
# 6 0.0000 0.0000 0.0000 0.0000 0.0000 23.7002
#
#
#
# Elastic Compliance Matrix: (Units=1/GPa)
#
#
# Indices 1 2 3 4 5 6 
#
# 1 0.028846 -0.015507 -0.000695 0.000000 0.000000 0.000000
# 2 -0.015507 0.028846 -0.000695 0.000000 0.000000 0.000000
# 3 -0.000695 -0.000695 0.025965 0.000000 0.000000 0.000000
# 4 0.000000 0.000000 0.000000 0.067407 0.000000 0.000000
# 5 0.000000 0.000000 0.000000 0.000000 0.067412 0.000000
# 6 0.000000 0.000000 0.000000 0.000000 0.000000 0.042194
#
#
# Mechanical properties :
#
#
# Convention : Reuss Voigt Hill
#
# Bulk Modulus (GPa) = 20.05493 21.89153 20.97323
# Shear Modulus (GPa) = 16.07272 17.74085 16.90678
#
# Velocity S-wave (km/s) = 3.13518 3.29386 3.21550
# Velocity P-wave (km/s) = 5.03691 5.27767 5.15870
#
# Compressibility (1/GPa) = 0.04986305
#
# Stress axis : x y z
#
# Youngs Moduli (GPa) = 34.66627 34.66637 38.51389
#
# Poissons Ratio (x) = 0.53758 0.02678
# Poissons Ratio (y) = 0.53758 0.02676
# Poissons Ratio (z) = 0.02410 0.02409
#
# Static dielectric constant tensor:
#      x y z
#    x 1.567690 0.000000 0.000000 
#    y 0.000000 1.567700 0.000000 
#    z 0.000000 0.000000 1.590130 
# 
# From -- ./inp_files/4602.got.cif
#   From: 2010.05.17/outbox.cif.g08.bks.cpg/sg121_3_cif.got.tgz:4602.got - 2010.05.20 11:32:06.
