data_PCOD9560461
_publ_section_title
;
Structure prediction by ZEFSAII (Michael W. Deem and Ramdas Pophale) SiO2 
 PCOD9560461
Probable space group: I -4 2 M
;
_chemical_formula_sum "Si O2"
_cell_formula_units_Z 96
_cell_length_a 24.867282
_cell_length_b 24.867282
_cell_length_c 9.092861
_cell_angle_alpha 90.000000
_cell_angle_beta 90.000000
_cell_angle_gamma 90.000000
_cell_volume 5622.858971
_symmetry_space_group_name_H-M "I -4 2 M"
_symmetry_group_IT_number 121
_symmetry_cell_setting 'tetragonal'
loop_
_space_group_symop_operation_xyz
x,y,z
y,-x,-z
-x,-y,z
-y,x,-z
x,-y,-z
-x,y,-z
-y,-x,z
y,x,z
1/2+x,1/2+y,1/2+z
1/2+y,1/2-x,1/2-z
1/2-x,1/2-y,1/2+z
1/2-y,1/2+x,1/2-z
1/2+x,1/2-y,1/2-z
1/2-x,1/2+y,1/2-z
1/2-y,1/2-x,1/2+z
1/2+y,1/2+x,1/2+z
loop_
_atom_site_type_symbol
_atom_site_label
_atom_site_fract_x
_atom_site_fract_y
_atom_site_fract_z
Si Si1 0.279439 0.941681 0.424904
Si Si2 0.164062 0.746240 0.573165
Si Si3 0.932783 0.548676 0.693927
Si Si4 0.246118 0.336624 0.579837
Si Si5 0.282585 0.059160 0.925289
Si Si6 0.390760 0.099128 0.443229
O O1 0.244919 0.893244 0.495551
O O2 0.272570 0.945596 0.249519
O O3 0.338828 0.919339 0.467193
O O4 0.272231 0.000000 0.500000
O O5 0.201681 0.798320 0.560173
O O6 0.198081 0.697896 0.496877
O O7 0.157072 0.733701 0.746448
O O8 0.928395 0.488032 0.742930
O O9 0.933142 0.561805 0.524597
O O10 0.884866 0.579883 0.775924
O O11 0.298875 0.298875 0.565857
O O12 0.253259 0.394760 0.503944
O O13 0.341109 0.086690 0.943528
O O14 0.280838 0.000000 0.000000
#
# Coordination Sequence:
#
# PCOD9560461 Si02
#       6
#    16  16  16  16  16  16
#     4  12  25  38  57  79 107 144 185 234 283 334
#     4  10  21  38  59  83 110 143 184 231 283 337
#     4  11  22  36  48  60  83 124 178 230 277 322
#     4  10  21  38  59  83 110 143 184 231 283 337
#     4  12  25  38  57  79 107 144 185 234 283 334
#     4  12  24  35  47  68  96 136 176 224 276 321
#
# _framework density 17.073163999999998
#
# number of rings (size 3 to 8) (size 9 to 14) (size 15 to 20)
#    0.000    0.833    3.333    5.000    4.667    3.333 
#    0.000    0.000    0.000    0.000    0.000    0.000 
#    0.000    0.667    0.000    7.000    0.000    3.000 
#
# Total GULP energy -267851.986464 kJ/mol
# GULP energy per Si atom -5580.249718 kJ/mol
# Density = 1.703430 g / cm^3
# Si number density = 17.073164 Si / 1000 Ang^3
#
#
#
# Elastic Constant Matrix: (Units=GPa)
#
#
# Indices 1 2 3 4 5 6 
#
# 1 86.4346 36.5068 52.6151 0.0000 0.0000 0.0000
# 2 36.5068 86.4362 52.6162 0.0000 0.0000 0.0000
# 3 52.6151 52.6162 149.6300 0.0000 0.0000 0.0000
# 4 0.0000 0.0000 0.0000 22.8110 0.0000 0.0000
# 5 0.0000 0.0000 0.0000 0.0000 22.8112 0.0000
# 6 0.0000 0.0000 0.0000 0.0000 0.0000 18.5919
#
#
#
# Elastic Compliance Matrix: (Units=1/GPa)
#
#
# Indices 1 2 3 4 5 6 
#
# 1 0.015832 -0.004196 -0.004092 0.000000 0.000000 0.000000
# 2 -0.004196 0.015832 -0.004092 0.000000 0.000000 0.000000
# 3 -0.004092 -0.004092 0.009561 0.000000 0.000000 0.000000
# 4 0.000000 0.000000 0.000000 0.043838 0.000000 0.000000
# 5 0.000000 0.000000 0.000000 0.000000 0.043838 0.000000
# 6 0.000000 0.000000 0.000000 0.000000 0.000000 0.053787
#
#
# Mechanical properties :
#
#
# Convention : Reuss Voigt Hill
#
# Bulk Modulus (GPa) = 60.73038 67.33079 64.03058
# Shear Modulus (GPa) = 23.48111 24.89367 24.18739
#
# Velocity S-wave (km/s) = 3.71256 3.82260 3.76798
# Velocity P-wave (km/s) = 7.35019 7.68149 7.51766
#
# Compressibility (1/GPa) = 0.01646622
#
# Stress axis : x y z
#
# Youngs Moduli (GPa) = 63.16125 63.16198 104.59400
#
# Poissons Ratio (x) = 0.26504 0.42797
# Poissons Ratio (y) = 0.26504 0.42798
# Poissons Ratio (z) = 0.25844 0.25844
#
# Static dielectric constant tensor:
#      x y z
#    x 1.621470 0.000000 0.000000 
#    y 0.000000 1.621470 0.000000 
#    z 0.000000 0.000000 1.588840 
# 
# From -- ./inp_files/1930.got.cif
#   From: 2010.05.17/outbox.cif.g08.bks.cpg/sg121_1_cif.got.tgz:1930.got - 2010.05.20 11:32:06.
