data_PCOD9560495
_publ_section_title
;
Structure prediction by ZEFSAII (Michael W. Deem and Ramdas Pophale) SiO2 
 PCOD9560495
Probable space group: I -4 2 M
;
_chemical_formula_sum "Si O2"
_cell_formula_units_Z 72
_cell_length_a 21.240135
_cell_length_b 21.240135
_cell_length_c 8.304154
_cell_angle_alpha 90.000000
_cell_angle_beta 90.000000
_cell_angle_gamma 90.000000
_cell_volume 3746.363728
_symmetry_space_group_name_H-M "I -4 2 M"
_symmetry_group_IT_number 121
_symmetry_cell_setting 'tetragonal'
loop_
_space_group_symop_operation_xyz
x,y,z
y,-x,-z
-x,-y,z
-y,x,-z
x,-y,-z
-x,y,-z
-y,-x,z
y,x,z
1/2+x,1/2+y,1/2+z
1/2+y,1/2-x,1/2-z
1/2-x,1/2-y,1/2+z
1/2-y,1/2+x,1/2-z
1/2+x,1/2-y,1/2-z
1/2-x,1/2+y,1/2-z
1/2-y,1/2-x,1/2+z
1/2+y,1/2+x,1/2+z
loop_
_atom_site_type_symbol
_atom_site_label
_atom_site_fract_x
_atom_site_fract_y
_atom_site_fract_z
Si Si1 0.452865 0.653545 0.648933
Si Si2 0.000000 0.814003 0.500000
Si Si3 0.067527 0.301547 0.929564
Si Si4 0.333395 0.168361 0.201218
Si Si5 0.864609 0.768151 0.462502
O O1 0.500000 0.636715 0.500000
O O2 0.392558 0.607443 0.644320
O O3 0.482955 0.650706 0.830659
O O4 0.435970 0.727276 0.616720
O O5 0.060674 0.771647 0.538754
O O6 0.097771 0.340014 0.781351
O O7 0.117721 0.315245 0.068550
O O8 0.000000 0.319520 0.000000
O O9 0.277833 0.162536 0.328372
O O10 0.338795 0.237089 0.124441
O O11 0.837605 0.837605 0.441668
#
# Coordination Sequence:
#
# PCOD9560495 Si02
#       5
#    16   8  16  16  16
#     4  11  25  44  65  91 129 173 220 269 325 390
#     4  12  24  40  66  95 131 176 210 262 332 398
#     4  10  21  41  63  93 128 167 207 263 329 393
#     4  10  22  36  64  94 119 165 207 268 326 387
#     4  11  22  38  59  93 126 159 211 265 324 384
#
# _framework density 19.218636
#
# number of rings (size 3 to 8) (size 9 to 14) (size 15 to 20)
#    0.000    1.333    2.222    4.000    0.000    8.222 
#    0.000    0.000    0.000    5.000    0.000    0.000 
#    0.000    0.000    0.000    0.000    0.000    0.000 
#
# Total GULP energy -200598.102180 kJ/mol
# GULP energy per Si atom -5572.169505 kJ/mol
# Density = 1.917489 g / cm^3
# Si number density = 19.218636 Si / 1000 Ang^3
#
#
#
# Elastic Constant Matrix: (Units=GPa)
#
#
# Indices 1 2 3 4 5 6 
#
# 1 77.7372 56.3032 30.6992 0.0000 0.0000 0.0000
# 2 56.3032 77.7305 30.6952 0.0000 0.0000 0.0000
# 3 30.6992 30.6952 107.0248 0.0000 0.0000 0.0000
# 4 0.0000 0.0000 0.0000 38.3298 0.0000 0.0000
# 5 0.0000 0.0000 0.0000 0.0000 38.3380 0.0000
# 6 0.0000 0.0000 0.0000 0.0000 0.0000 22.8567
#
#
#
# Elastic Compliance Matrix: (Units=1/GPa)
#
#
# Indices 1 2 3 4 5 6 
#
# 1 0.027625 -0.019037 -0.002464 0.000000 0.000000 0.000000
# 2 -0.019037 0.027626 -0.002463 0.000000 0.000000 0.000000
# 3 -0.002464 -0.002463 0.010757 0.000000 0.000000 0.000000
# 4 0.000000 0.000000 0.000000 0.026089 0.000000 0.000000
# 5 0.000000 0.000000 0.000000 0.000000 0.026084 0.000000
# 6 0.000000 0.000000 0.000000 0.000000 0.000000 0.043751
#
#
# Mechanical properties :
#
#
# Convention : Reuss Voigt Hill
#
# Bulk Modulus (GPa) = 55.30745 55.32084 55.31415
# Shear Modulus (GPa) = 23.16037 29.55788 26.35913
#
# Velocity S-wave (km/s) = 3.47522 3.92596 3.70745
# Velocity P-wave (km/s) = 6.70398 7.02840 6.86811
#
# Compressibility (1/GPa) = 0.01808075
#
# Stress axis : x y z
#
# Youngs Moduli (GPa) = 36.19955 36.19725 92.96419
#
# Poissons Ratio (x) = 0.68907 0.22908
# Poissons Ratio (y) = 0.68911 0.22896
# Poissons Ratio (z) = 0.08920 0.08915
#
# Static dielectric constant tensor:
#      x y z
#    x 1.606390 0.000000 0.000000 
#    y 0.000000 1.606340 0.000000 
#    z 0.000000 0.000000 1.775000 
# 
# From -- ./inp_files/1724.got.cif
#   From: 2010.05.17/outbox.cif.g08.bks.cpg/sg121_1_cif.got.tgz:1724.got - 2010.05.20 11:32:06.
