data_PCOD9560791
_publ_section_title
;
Structure prediction by ZEFSAII (Michael W. Deem and Ramdas Pophale) SiO2 
 PCOD9560791
Probable space group: I -4 2 D
;
_chemical_formula_sum "Si O2"
_cell_formula_units_Z 72
_cell_length_a 11.765559
_cell_length_b 11.765559
_cell_length_c 26.087339
_cell_angle_alpha 90.000000
_cell_angle_beta 90.000000
_cell_angle_gamma 90.000000
_cell_volume 3611.228039
_symmetry_space_group_name_H-M "I -4 2 D"
_symmetry_group_IT_number 122
_symmetry_cell_setting 'tetragonal'
loop_
_space_group_symop_operation_xyz
x,y,z
y,-x,-z
-x,-y,z
-y,x,-z
x,1/2-y,1/4-z
-x,1/2+y,1/4-z
-y,1/2-x,1/4+z
y,1/2+x,1/4+z
1/2+x,1/2+y,1/2+z
1/2+y,1/2-x,1/2-z
1/2-x,1/2-y,1/2+z
1/2-y,1/2+x,1/2-z
1/2+x,-y,3/4-z
1/2-x,y,3/4-z
1/2-y,-x,3/4+z
1/2+y,x,3/4+z
loop_
_atom_site_type_symbol
_atom_site_label
_atom_site_fract_x
_atom_site_fract_y
_atom_site_fract_z
Si Si1 0.894072 0.670586 0.043977
Si Si2 0.350828 0.117496 0.109370
Si Si3 0.000000 0.500000 0.533408
Si Si4 0.098222 0.410201 0.162094
Si Si5 0.353877 0.421178 0.026892
O O1 0.913256 0.622206 0.101549
O O2 0.918553 0.802725 0.050860
O O3 0.764480 0.645863 0.026659
O O4 0.968045 0.603060 0.003511
O O5 0.332529 0.250000 0.125000
O O6 0.453660 0.099072 0.070444
O O7 0.234063 0.066335 0.085967
O O8 0.375390 0.056403 0.163112
O O9 0.000000 0.500000 0.173501
O O10 0.352326 0.540842 0.997114
#
# Coordination Sequence:
#
# PCOD9560791 Si02
#       5
#    16  16   8  16  16
#     4  10  21  38  65  94 123 174 226 278 333 397
#     4  11  22  42  64  93 138 174 213 278 338 393
#     4  12  24  38  65 100 128 175 224 274 336 412
#     4  10  20  44  67  88 127 179 225 277 340 389
#     4  10  19  36  64  97 131 177 217 265 336 405
#
# _framework density 19.937816999999999
#
# number of rings (size 3 to 8) (size 9 to 14) (size 15 to 20)
#    0.000    1.556    5.556    2.667    0.000    0.000 
#    4.000    0.000    4.889    0.000    0.000    0.000 
#    0.000    0.000    0.000    0.000    0.000    0.000 
#
# Total GULP energy -200791.548987 kJ/mol
# GULP energy per Si atom -5577.543027 kJ/mol
# Density = 1.989244 g / cm^3
# Si number density = 19.937817 Si / 1000 Ang^3
#
#
#
# Elastic Constant Matrix: (Units=GPa)
#
#
# Indices 1 2 3 4 5 6 
#
# 1 111.8501 76.1696 48.6524 0.0000 0.0000 0.0000
# 2 76.1696 111.8501 48.6524 0.0000 0.0000 0.0000
# 3 48.6524 48.6524 99.3514 0.0000 0.0000 0.0000
# 4 0.0000 0.0000 0.0000 33.3540 0.0000 0.0000
# 5 0.0000 0.0000 0.0000 0.0000 33.3540 0.0000
# 6 0.0000 0.0000 0.0000 0.0000 0.0000 34.0191
#
#
#
# Elastic Compliance Matrix: (Units=1/GPa)
#
#
# Indices 1 2 3 4 5 6 
#
# 1 0.017575 -0.010451 -0.003489 0.000000 0.000000 0.000000
# 2 -0.010451 0.017575 -0.003489 0.000000 0.000000 0.000000
# 3 -0.003489 -0.003489 0.013482 0.000000 0.000000 0.000000
# 4 0.000000 0.000000 0.000000 0.029981 0.000000 0.000000
# 5 0.000000 0.000000 0.000000 0.000000 0.029981 0.000000
# 6 0.000000 0.000000 0.000000 0.000000 0.000000 0.029395
#
#
# Mechanical properties :
#
#
# Convention : Reuss Voigt Hill
#
# Bulk Modulus (GPa) = 72.59224 74.44448 73.51836
# Shear Modulus (GPa) = 28.17860 30.11723 29.14792
#
# Velocity S-wave (km/s) = 3.76350 3.89081 3.82768
# Velocity P-wave (km/s) = 7.44134 7.58972 7.51590
#
# Compressibility (1/GPa) = 0.01377558
#
# Stress axis : x y z
#
# Youngs Moduli (GPa) = 56.89814 56.89814 74.17255
#
# Poissons Ratio (x) = 0.59465 0.25876
# Poissons Ratio (y) = 0.59465 0.25876
# Poissons Ratio (z) = 0.19850 0.19850
#
# Static dielectric constant tensor:
#      x y z
#    x 1.721600 0.000000 0.000000 
#    y 0.000000 1.721600 0.000000 
#    z 0.000000 0.000000 1.701960 
# 
# From -- ./inp_files/8597.got.cif
#   From: 2010.05.17/outbox.cif.g08.bks.cpg/sg122_5_cif.got.tgz:8597.got - 2010.05.20 11:37:33.
