data_PCOD9560483
_publ_section_title
;
Structure prediction by ZEFSAII (Michael W. Deem and Ramdas Pophale) SiO2 
 PCOD9560483
Probable space group: I -4 2 M
;
_chemical_formula_sum "Si O2"
_cell_formula_units_Z 128
_cell_length_a 24.808725
_cell_length_b 24.808725
_cell_length_c 11.227622
_cell_angle_alpha 90.000000
_cell_angle_beta 90.000000
_cell_angle_gamma 90.000000
_cell_volume 6910.296355
_symmetry_space_group_name_H-M "I -4 2 M"
_symmetry_group_IT_number 121
_symmetry_cell_setting 'tetragonal'
loop_
_space_group_symop_operation_xyz
x,y,z
y,-x,-z
-x,-y,z
-y,x,-z
x,-y,-z
-x,y,-z
-y,-x,z
y,x,z
1/2+x,1/2+y,1/2+z
1/2+y,1/2-x,1/2-z
1/2-x,1/2-y,1/2+z
1/2-y,1/2+x,1/2-z
1/2+x,1/2-y,1/2-z
1/2-x,1/2+y,1/2-z
1/2-y,1/2-x,1/2+z
1/2+y,1/2+x,1/2+z
loop_
_atom_site_type_symbol
_atom_site_label
_atom_site_fract_x
_atom_site_fract_y
_atom_site_fract_z
Si Si1 0.150544 0.705851 0.377266
Si Si2 0.764335 0.560272 0.452773
Si Si3 0.308927 0.394523 0.254976
Si Si4 0.910931 0.741625 0.387440
Si Si5 0.638007 0.977179 0.366787
Si Si6 0.647784 0.559960 0.011602
Si Si7 0.867394 0.419117 0.705581
Si Si8 0.738674 0.349041 0.355558
O O1 0.140182 0.760780 0.304741
O O2 0.122410 0.714049 0.504812
O O3 0.121264 0.658064 0.304092
O O4 0.212865 0.691882 0.385669
O O5 0.766942 0.500000 0.500000
O O6 0.720124 0.567464 0.349192
O O7 0.822415 0.576199 0.397577
O O8 0.746601 0.601389 0.555204
O O9 0.353376 0.353376 0.305818
O O10 0.335786 0.427412 0.147611
O O11 0.958390 0.700232 0.354592
O O12 0.934252 0.797655 0.435525
O O13 0.871815 0.752498 0.277079
O O14 0.603077 0.923845 0.342139
O O15 0.629925 0.000000 0.500000
O O16 0.626367 0.023613 0.271139
O O17 0.605096 0.605096 0.974138
O O18 0.625962 0.500000 0.000000
O O19 0.682673 0.317328 0.366287
#
# Coordination Sequence:
#
# PCOD9560483 Si02
#       8
#    16  16  16  16  16  16  16  16
#     4  10  21  39  63  91 125 156 201 259 319 392
#     4  11  25  41  61  88 126 169 211 261 306 381
#     4   9  20  40  62  89 123 162 203 246 311 382
#     4  11  22  41  65  94 123 164 213 253 319 383
#     4  12  24  42  71  89 125 172 218 273 332 377
#     4  10  22  38  65  96 125 158 203 255 307 377
#     4  11  25  43  63  94 119 164 223 271 322 381
#     4  12  25  38  61  94 131 166 202 261 323 386
#
# _framework density 18.523083
#
# number of rings (size 3 to 8) (size 9 to 14) (size 15 to 20)
#    0.000    1.250    2.500    3.000    7.000    1.875 
#    0.000    0.625    0.000    0.000    0.000    0.000 
#    0.000    2.250    0.000    0.000    0.000    0.000 
#
# Total GULP energy -357866.005654 kJ/mol
# GULP energy per Si atom -5591.656338 kJ/mol
# Density = 1.848092 g / cm^3
# Si number density = 18.523083 Si / 1000 Ang^3
#
#
#
# Elastic Constant Matrix: (Units=GPa)
#
#
# Indices 1 2 3 4 5 6 
#
# 1 107.9802 66.9357 46.4436 0.0000 0.0000 0.0000
# 2 66.9357 107.9740 46.4441 0.0000 0.0000 0.0000
# 3 46.4436 46.4441 70.4777 0.0000 0.0000 0.0000
# 4 0.0000 0.0000 0.0000 24.3061 0.0000 0.0000
# 5 0.0000 0.0000 0.0000 0.0000 24.3056 0.0000
# 6 0.0000 0.0000 0.0000 0.0000 0.0000 14.8920
#
#
#
# Elastic Compliance Matrix: (Units=1/GPa)
#
#
# Indices 1 2 3 4 5 6 
#
# 1 0.016580 -0.007785 -0.005795 0.000000 0.000000 0.000000
# 2 -0.007785 0.016581 -0.005796 0.000000 0.000000 0.000000
# 3 -0.005795 -0.005796 0.021828 0.000000 0.000000 0.000000
# 4 0.000000 0.000000 0.000000 0.041142 0.000000 0.000000
# 5 0.000000 0.000000 0.000000 0.000000 0.041143 0.000000
# 6 0.000000 0.000000 0.000000 0.000000 0.000000 0.067150
#
#
# Mechanical properties :
#
#
# Convention : Reuss Voigt Hill
#
# Bulk Modulus (GPa) = 61.59746 67.34206 64.46976
# Shear Modulus (GPa) = 20.11358 21.14131 20.62745
#
# Velocity S-wave (km/s) = 3.29882 3.38205 3.34070
# Velocity P-wave (km/s) = 6.91638 7.18928 7.05415
#
# Compressibility (1/GPa) = 0.01623444
#
# Stress axis : x y z
#
# Youngs Moduli (GPa) = 60.31516 60.30980 45.81363
#
# Poissons Ratio (x) = 0.46953 0.26550
# Poissons Ratio (y) = 0.46957 0.26555
# Poissons Ratio (z) = 0.34954 0.34958
#
# Static dielectric constant tensor:
#      x y z
#    x 1.625320 0.000000 0.000000 
#    y 0.000000 1.625320 0.000000 
#    z 0.000000 0.000000 1.643320 
# 
# From -- ./inp_files/3544.got.cif
#   From: 2010.05.17/outbox.cif.g08.bks.cpg/sg121_2_cif.got.tgz:3544.got - 2010.05.20 11:32:06.
