data_PCOD9560161
_publ_section_title
;
Structure prediction by ZEFSAII (Michael W. Deem and Ramdas Pophale) SiO2 
 PCOD9560161
Probable space group: I -4 2 M
;
_chemical_formula_sum "Si O2"
_cell_formula_units_Z 112
_cell_length_a 15.334369
_cell_length_b 15.334369
_cell_length_c 26.900466
_cell_angle_alpha 90.000000
_cell_angle_beta 90.000000
_cell_angle_gamma 90.000000
_cell_volume 6325.452850
_symmetry_space_group_name_H-M "I -4 2 M"
_symmetry_group_IT_number 121
_symmetry_cell_setting 'tetragonal'
loop_
_space_group_symop_operation_xyz
x,y,z
y,-x,-z
-x,-y,z
-y,x,-z
x,-y,-z
-x,y,-z
-y,-x,z
y,x,z
1/2+x,1/2+y,1/2+z
1/2+y,1/2-x,1/2-z
1/2-x,1/2-y,1/2+z
1/2-y,1/2+x,1/2-z
1/2+x,1/2-y,1/2-z
1/2-x,1/2+y,1/2-z
1/2-y,1/2-x,1/2+z
1/2+y,1/2+x,1/2+z
loop_
_atom_site_type_symbol
_atom_site_label
_atom_site_fract_x
_atom_site_fract_y
_atom_site_fract_z
Si Si1 0.407587 0.737461 0.167745
Si Si2 0.766555 0.473796 0.447102
Si Si3 0.837139 0.593201 0.013314
Si Si4 0.639729 0.045335 0.758484
Si Si5 0.805019 0.666505 0.416989
Si Si6 0.732130 0.870820 0.149862
Si Si7 0.768965 0.910434 0.611141
O O1 0.349706 0.650295 0.174253
O O2 0.428335 0.788111 0.218156
O O3 0.351370 0.801625 0.132585
O O4 0.498866 0.723532 0.139591
O O5 0.719501 0.500000 0.500000
O O6 0.844929 0.412516 0.465784
O O7 0.798850 0.563637 0.423366
O O8 0.731577 0.418488 0.400080
O O9 0.764344 0.578422 0.054888
O O10 0.875810 0.500000 0.000000
O O11 0.800666 0.639540 0.964262
O O12 0.553501 0.105869 0.750647
O O13 0.686192 0.063438 0.811476
O O14 0.710418 0.710418 0.419636
O O15 0.810466 0.810466 0.170836
O O16 0.654489 0.803788 0.134780
O O17 0.858926 0.858926 0.612364
#
# Coordination Sequence:
#
# PCOD9560161 Si02
#       7
#    16  16  16  16  16  16  16
#     4  11  22  37  55  79 111 151 194 233 280 338
#     4   9  20  33  53  86 111 147 189 236 297 348
#     4  10  18  33  54  82 113 147 190 239 293 347
#     4  11  22  37  59  89 118 149 188 243 299 348
#     4  10  20  34  52  78 116 153 187 235 287 343
#     4  10  20  38  60  84 116 152 192 240 297 357
#     4  10  20  36  56  79 111 151 193 234 280 341
#
# _framework density 17.706242
#
# number of rings (size 3 to 8) (size 9 to 14) (size 15 to 20)
#    0.000    1.857    2.857    1.714    0.000    6.286 
#    0.000    0.000    0.000    0.429    0.000    3.000 
#    0.000    0.000    0.000    0.000    0.000    0.000 
#
# Total GULP energy -311971.392953 kJ/mol
# GULP energy per Si atom -5570.917731 kJ/mol
# Density = 1.766594 g / cm^3
# Si number density = 17.706242 Si / 1000 Ang^3
#
#
#
# Elastic Constant Matrix: (Units=GPa)
#
#
# Indices 1 2 3 4 5 6 
#
# 1 34.8585 15.6670 15.5452 0.0000 0.0000 0.0000
# 2 15.6670 34.8610 15.5461 0.0000 0.0000 0.0000
# 3 15.5452 15.5461 70.1850 0.0000 0.0000 0.0000
# 4 0.0000 0.0000 0.0000 18.4235 0.0000 0.0000
# 5 0.0000 0.0000 0.0000 0.0000 18.4237 0.0000
# 6 0.0000 0.0000 0.0000 0.0000 0.0000 5.3991
#
#
#
# Elastic Compliance Matrix: (Units=1/GPa)
#
#
# Indices 1 2 3 4 5 6 
#
# 1 0.037510 -0.014594 -0.005075 0.000000 0.000000 0.000000
# 2 -0.014594 0.037508 -0.005076 0.000000 0.000000 0.000000
# 3 -0.005075 -0.005076 0.016496 0.000000 0.000000 0.000000
# 4 0.000000 0.000000 0.000000 0.054279 0.000000 0.000000
# 5 0.000000 0.000000 0.000000 0.000000 0.054278 0.000000
# 6 0.000000 0.000000 0.000000 0.000000 0.000000 0.185216
#
#
# Mechanical properties :
#
#
# Convention : Reuss Voigt Hill
#
# Bulk Modulus (GPa) = 23.79604 25.93569 24.86586
# Shear Modulus (GPa) = 11.14121 14.65900 12.90011
#
# Velocity S-wave (km/s) = 2.51116 2.88045 2.70212
# Velocity P-wave (km/s) = 4.67722 5.07368 4.87948
#
# Compressibility (1/GPa) = 0.04202381
#
# Stress axis : x y z
#
# Youngs Moduli (GPa) = 26.65947 26.66131 60.61910
#
# Poissons Ratio (x) = 0.38910 0.30767
# Poissons Ratio (y) = 0.38907 0.30767
# Poissons Ratio (z) = 0.13531 0.13532
#
# Static dielectric constant tensor:
#      x y z
#    x 1.593020 0.000000 0.000000 
#    y 0.000000 1.593020 0.000000 
#    z 0.000000 0.000000 1.639090 
# 
# From -- ./inp_files/7188.got.cif
#   From: 2010.05.17/outbox.cif.g08.bks.cpg/sg121_4_cif.got.tgz:7188.got - 2010.05.20 11:32:06.
