data_PCOD9560991
_publ_section_title
;
Structure prediction by ZEFSAII (Michael W. Deem and Ramdas Pophale) SiO2 
 PCOD9560991
Probable space group: I -4 2 D
;
_chemical_formula_sum "Si O2"
_cell_formula_units_Z 96
_cell_length_a 14.018057
_cell_length_b 14.018057
_cell_length_c 24.179486
_cell_angle_alpha 90.000000
_cell_angle_beta 90.000000
_cell_angle_gamma 90.000000
_cell_volume 4751.412191
_symmetry_space_group_name_H-M "I -4 2 D"
_symmetry_group_IT_number 122
_symmetry_cell_setting 'tetragonal'
loop_
_space_group_symop_operation_xyz
x,y,z
y,-x,-z
-x,-y,z
-y,x,-z
x,1/2-y,1/4-z
-x,1/2+y,1/4-z
-y,1/2-x,1/4+z
y,1/2+x,1/4+z
1/2+x,1/2+y,1/2+z
1/2+y,1/2-x,1/2-z
1/2-x,1/2-y,1/2+z
1/2-y,1/2+x,1/2-z
1/2+x,-y,3/4-z
1/2-x,y,3/4-z
1/2-y,-x,3/4+z
1/2+y,x,3/4+z
loop_
_atom_site_type_symbol
_atom_site_label
_atom_site_fract_x
_atom_site_fract_y
_atom_site_fract_z
Si Si1 0.096931 0.055153 0.855146
Si Si2 0.782915 0.940558 0.960822
Si Si3 0.379064 0.242213 0.482273
Si Si4 0.829788 0.247581 0.422052
Si Si5 0.091088 0.129098 0.493375
Si Si6 0.546759 0.774333 0.369143
O O1 0.152523 0.022181 0.910057
O O2 0.172798 0.051725 0.806272
O O3 0.075637 0.164676 0.866512
O O4 0.000000 0.000000 0.845086
O O5 0.807706 0.831543 0.973814
O O6 0.794349 0.019319 0.007280
O O7 0.335865 0.181322 0.533753
O O8 0.405230 0.186741 0.425770
O O9 0.750000 0.258506 0.375000
O O10 0.817756 0.155350 0.461540
O O11 0.932138 0.229759 0.391760
O O12 0.093858 0.174101 0.433037
O O13 0.980004 0.126544 0.509741
#
# Coordination Sequence:
#
# PCOD9560991 Si02
#       6
#    16  16  16  16  16  16
#     4  10  21  37  57  83 123 169 208 263 314 389
#     4  10  23  35  57  88 119 167 213 254 323 385
#     4  11  23  38  61  92 130 169 211 269 322 401
#     4  11  23  39  65  95 128 164 221 274 322 398
#     4   9  20  43  68  90 122 164 211 272 333 390
#     4  10  22  40  62  92 127 171 215 264 337 391
#
# _framework density 20.204519999999999
#
# number of rings (size 3 to 8) (size 9 to 14) (size 15 to 20)
#    0.000    1.833    0.000    3.000    9.333    2.000 
#    6.000    0.000   14.667    0.000    0.000    0.000 
#    0.000    0.000    0.000    0.000    0.000    0.000 
#
# Total GULP energy -267598.307060 kJ/mol
# GULP energy per Si atom -5574.964730 kJ/mol
# Density = 2.015853 g / cm^3
# Si number density = 20.204520 Si / 1000 Ang^3
#
#
#
# Elastic Constant Matrix: (Units=GPa)
#
#
# Indices 1 2 3 4 5 6 
#
# 1 43.8582 21.9415 41.4388 0.0000 0.0000 0.0000
# 2 21.9415 43.8582 41.4388 0.0000 0.0000 0.0000
# 3 41.4388 41.4388 133.1552 0.0000 0.0000 0.0000
# 4 0.0000 0.0000 0.0000 31.4416 0.0000 0.0000
# 5 0.0000 0.0000 0.0000 0.0000 31.4416 0.0000
# 6 0.0000 0.0000 0.0000 0.0000 0.0000 21.2616
#
#
#
# Elastic Compliance Matrix: (Units=1/GPa)
#
#
# Indices 1 2 3 4 5 6 
#
# 1 0.035311 -0.010316 -0.007779 0.000000 0.000000 0.000000
# 2 -0.010316 0.035311 -0.007779 0.000000 0.000000 0.000000
# 3 -0.007779 -0.007779 0.012352 0.000000 0.000000 0.000000
# 4 0.000000 0.000000 0.000000 0.031805 0.000000 0.000000
# 5 0.000000 0.000000 0.000000 0.000000 0.031805 0.000000
# 6 0.000000 0.000000 0.000000 0.000000 0.000000 0.047033
#
#
# Mechanical properties :
#
#
# Convention : Reuss Voigt Hill
#
# Bulk Modulus (GPa) = 32.02326 47.83443 39.92885
# Shear Modulus (GPa) = 19.54857 24.56579 22.05718
#
# Velocity S-wave (km/s) = 3.11390 3.49070 3.30767
# Velocity P-wave (km/s) = 5.36772 6.32243 5.86454
#
# Compressibility (1/GPa) = 0.03122730
#
# Stress axis : x y z
#
# Youngs Moduli (GPa) = 28.31961 28.31961 80.96128
#
# Poissons Ratio (x) = 0.29215 0.62977
# Poissons Ratio (y) = 0.29215 0.62977
# Poissons Ratio (z) = 0.22029 0.22029
#
# Static dielectric constant tensor:
#      x y z
#    x 1.744300 0.000000 0.000000 
#    y 0.000000 1.744300 0.000000 
#    z 0.000000 0.000000 1.811120 
# 
# From -- ./inp_files/7284.got.cif
#   From: 2010.05.17/outbox.cif.g08.bks.cpg/sg122_4_cif.got.tgz:7284.got - 2010.05.20 11:37:33.
