data_PCOD9560774
_publ_section_title
;
Structure prediction by ZEFSAII (Michael W. Deem and Ramdas Pophale) SiO2 
 PCOD9560774
Probable space group: I -4 2 D
;
_chemical_formula_sum "Si O2"
_cell_formula_units_Z 104
_cell_length_a 15.356208
_cell_length_b 15.356208
_cell_length_c 16.624757
_cell_angle_alpha 90.000000
_cell_angle_beta 90.000000
_cell_angle_gamma 90.000000
_cell_volume 3920.335886
_symmetry_space_group_name_H-M "I -4 2 D"
_symmetry_group_IT_number 122
_symmetry_cell_setting 'tetragonal'
loop_
_space_group_symop_operation_xyz
x,y,z
y,-x,-z
-x,-y,z
-y,x,-z
x,1/2-y,1/4-z
-x,1/2+y,1/4-z
-y,1/2-x,1/4+z
y,1/2+x,1/4+z
1/2+x,1/2+y,1/2+z
1/2+y,1/2-x,1/2-z
1/2-x,1/2-y,1/2+z
1/2-y,1/2+x,1/2-z
1/2+x,-y,3/4-z
1/2-x,y,3/4-z
1/2-y,-x,3/4+z
1/2+y,x,3/4+z
loop_
_atom_site_type_symbol
_atom_site_label
_atom_site_fract_x
_atom_site_fract_y
_atom_site_fract_z
Si Si1 0.602497 0.400985 0.017300
Si Si2 0.070454 0.165794 0.840439
Si Si3 0.508007 0.634366 0.502807
Si Si4 0.577896 0.852710 0.447565
Si Si5 0.373113 0.773885 0.930324
Si Si6 0.000000 0.500000 0.473883
Si Si7 0.391586 0.777576 0.493713
O O1 0.649608 0.396643 0.104358
O O2 0.497391 0.386942 0.020440
O O3 0.639748 0.322033 0.965447
O O4 0.067204 0.184185 0.936069
O O5 0.978552 0.208161 0.814753
O O6 0.058146 0.060810 0.832795
O O7 0.159764 0.173270 0.791426
O O8 0.573744 0.565716 0.540606
O O9 0.446614 0.705240 0.543970
O O10 0.475287 0.830201 0.458861
O O11 0.649950 0.829141 0.515846
O O12 0.568120 0.955436 0.467347
O O13 0.350512 0.767291 0.835524
#
# Coordination Sequence:
#
# PCOD9560774 Si02
#       7
#    16  16  16  16  16   8  16
#     4  11  21  33  57  86 121 168 224 277 325 384
#     4   9  19  35  61  88 122 163 203 264 322 389
#     4  10  21  39  66  97 125 161 219 274 324 401
#     4  10  19  34  56  88 123 170 215 273 327 386
#     4  10  21  36  58  89 129 167 218 269 325 396
#     4   8  14  28  54  80 108 148 204 254 300 362
#     4  10  21  41  64  93 128 168 214 269 342 398
#
# _framework density 26.528341000000001
#
# number of rings (size 3 to 8) (size 9 to 14) (size 15 to 20)
#    0.000    2.154    1.538    2.308    4.308    3.077 
#    0.000    1.538    3.385    3.692    0.000    0.000 
#    0.000    0.000    0.000    0.000    0.000    0.000 
#
# Total GULP energy -289664.485430 kJ/mol
# GULP energy per Si atom -5570.470874 kJ/mol
# Density = 2.646796 g / cm^3
# Si number density = 26.528341 Si / 1000 Ang^3
#
#
#
# Elastic Constant Matrix: (Units=GPa)
#
#
# Indices 1 2 3 4 5 6 
#
# 1 96.7492 11.8926 41.5795 0.0000 0.0000 0.0000
# 2 11.8926 96.7492 41.5795 0.0000 0.0000 0.0000
# 3 41.5795 41.5795 108.1488 0.0000 0.0000 0.0000
# 4 0.0000 0.0000 0.0000 53.6678 0.0000 0.0000
# 5 0.0000 0.0000 0.0000 0.0000 53.6678 0.0000
# 6 0.0000 0.0000 0.0000 0.0000 0.0000 40.7567
#
#
#
# Elastic Compliance Matrix: (Units=1/GPa)
#
#
# Indices 1 2 3 4 5 6 
#
# 1 0.012414 0.000629 -0.005015 0.000000 0.000000 0.000000
# 2 0.000629 0.012414 -0.005015 0.000000 0.000000 0.000000
# 3 -0.005015 -0.005015 0.013102 0.000000 0.000000 0.000000
# 4 0.000000 0.000000 0.000000 0.018633 0.000000 0.000000
# 5 0.000000 0.000000 0.000000 0.000000 0.018633 0.000000
# 6 0.000000 0.000000 0.000000 0.000000 0.000000 0.024536
#
#
# Mechanical properties :
#
#
# Convention : Reuss Voigt Hill
#
# Bulk Modulus (GPa) = 52.27395 54.63891 53.45643
# Shear Modulus (GPa) = 40.02929 43.39150 41.71039
#
# Velocity S-wave (km/s) = 3.88870 4.04872 3.96952
# Velocity P-wave (km/s) = 6.31747 6.51900 6.41903
#
# Compressibility (1/GPa) = 0.01912999
#
# Stress axis : x y z
#
# Youngs Moduli (GPa) = 80.55584 80.55584 76.32211
#
# Poissons Ratio (x) = -0.05068 0.38272
# Poissons Ratio (y) = -0.05068 0.38272
# Poissons Ratio (z) = 0.40395 0.40395
#
# Static dielectric constant tensor:
#      x y z
#    x 2.310220 0.000000 0.000000 
#    y 0.000000 2.310220 0.000000 
#    z 0.000000 0.000000 2.157710 
# 
# From -- ./inp_files/6381.got.cif
#   From: 2010.05.17/outbox.cif.g08.bks.cpg/sg122_4_cif.got.tgz:6381.got - 2010.05.20 11:37:33.
