data_PCOD9560191
_publ_section_title
;
Structure prediction by ZEFSAII (Michael W. Deem and Ramdas Pophale) SiO2 
 PCOD9560191
Probable space group: I -4 2 M
;
_chemical_formula_sum "Si O2"
_cell_formula_units_Z 72
_cell_length_a 14.714538
_cell_length_b 14.714538
_cell_length_c 17.281859
_cell_angle_alpha 90.000000
_cell_angle_beta 90.000000
_cell_angle_gamma 90.000000
_cell_volume 3741.827128
_symmetry_space_group_name_H-M "I -4 2 M"
_symmetry_group_IT_number 121
_symmetry_cell_setting 'tetragonal'
loop_
_space_group_symop_operation_xyz
x,y,z
y,-x,-z
-x,-y,z
-y,x,-z
x,-y,-z
-x,y,-z
-y,-x,z
y,x,z
1/2+x,1/2+y,1/2+z
1/2+y,1/2-x,1/2-z
1/2-x,1/2-y,1/2+z
1/2-y,1/2+x,1/2-z
1/2+x,1/2-y,1/2-z
1/2-x,1/2+y,1/2-z
1/2-y,1/2-x,1/2+z
1/2+y,1/2+x,1/2+z
loop_
_atom_site_type_symbol
_atom_site_label
_atom_site_fract_x
_atom_site_fract_y
_atom_site_fract_z
Si Si1 0.500000 0.000000 0.500000
Si Si2 0.394345 0.394345 0.478666
Si Si3 0.229624 0.770377 0.911236
Si Si4 0.716242 0.002706 0.248898
Si Si5 0.500000 0.500000 0.711404
Si Si6 0.862837 0.862837 0.229777
Si Si7 0.394204 0.113910 0.124426
Si Si8 0.137450 0.137450 0.795641
O O1 0.560877 0.062713 0.445875
O O2 0.375708 0.500000 0.500000
O O3 0.327192 0.327192 0.524924
O O4 0.380732 0.380732 0.386553
O O5 0.195744 0.804257 0.827759
O O6 0.196990 0.666502 0.909162
O O7 0.650018 0.027841 0.318133
O O8 0.764066 0.098364 0.224508
O O9 0.794253 0.930061 0.272951
O O10 0.666870 0.955348 0.176141
O O11 0.428283 0.428283 0.676527
O O12 0.569248 0.430753 0.750938
#
# Coordination Sequence:
#
# PCOD9560191 Si02
#       8
#     4   8   8  16   4   8  16   8
#     4  12  28  42  60  80 118 168 208 236 320 386
#     4  11  19  29  50  88 130 164 191 236 310 377
#     4  10  22  34  56  83 120 152 196 253 299 347
#     4  10  20  38  61  86 118 153 201 250 300 362
#     4   8  12  26  43  80 114 139 174 222 276 356
#     4   8  16  31  54  84 110 145 185 240 297 350
#     4  11  23  41  60  86 118 160 203 255 305 368
#     4  10  19  30  57  86 117 157 197 234 299 359
#
# _framework density 19.241935999999999
#
# number of rings (size 3 to 8) (size 9 to 14) (size 15 to 20)
#    0.000    1.889    0.000    6.667    4.667    0.000 
#    0.000    1.111    0.000    0.000    0.000    0.000 
#    0.000    0.000    0.000    0.000    0.000    0.000 
#
# Total GULP energy -200500.644568 kJ/mol
# GULP energy per Si atom -5569.462349 kJ/mol
# Density = 1.919814 g / cm^3
# Si number density = 19.241936 Si / 1000 Ang^3
#
#
#
# Elastic Constant Matrix: (Units=GPa)
#
#
# Indices 1 2 3 4 5 6 
#
# 1 76.3599 34.2810 40.6225 0.0000 0.0000 0.0000
# 2 34.2810 76.3591 40.6223 0.0000 0.0000 0.0000
# 3 40.6225 40.6223 85.5110 0.0000 0.0000 0.0000
# 4 0.0000 0.0000 0.0000 12.2481 0.0000 0.0000
# 5 0.0000 0.0000 0.0000 0.0000 12.2488 0.0000
# 6 0.0000 0.0000 0.0000 0.0000 0.0000 39.2161
#
#
#
# Elastic Compliance Matrix: (Units=1/GPa)
#
#
# Indices 1 2 3 4 5 6 
#
# 1 0.018823 -0.004942 -0.006594 0.000000 0.000000 0.000000
# 2 -0.004942 0.018823 -0.006594 0.000000 0.000000 0.000000
# 3 -0.006594 -0.006594 0.017959 0.000000 0.000000 0.000000
# 4 0.000000 0.000000 0.000000 0.081645 0.000000 0.000000
# 5 0.000000 0.000000 0.000000 0.000000 0.081641 0.000000
# 6 0.000000 0.000000 0.000000 0.000000 0.000000 0.025500
#
#
# Mechanical properties :
#
#
# Convention : Reuss Voigt Hill
#
# Bulk Modulus (GPa) = 51.69482 52.14240 51.91861
# Shear Modulus (GPa) = 17.41559 20.92286 19.16922
#
# Velocity S-wave (km/s) = 3.01173 3.30109 3.15972
# Velocity P-wave (km/s) = 6.24644 6.45652 6.35235
#
# Compressibility (1/GPa) = 0.01934430
#
# Stress axis : x y z
#
# Youngs Moduli (GPa) = 53.12772 53.12709 55.68139
#
# Poissons Ratio (x) = 0.26258 0.36715
# Poissons Ratio (y) = 0.26258 0.36716
# Poissons Ratio (z) = 0.35032 0.35032
#
# Static dielectric constant tensor:
#      x y z
#    x 1.738910 0.000000 0.000000 
#    y 0.000000 1.738910 0.000000 
#    z 0.000000 0.000000 1.640290 
# 
# From -- ./inp_files/5260.got.cif
#   From: 2010.05.17/outbox.cif.g08.bks.cpg/sg121_3_cif.got.tgz:5260.got - 2010.05.20 11:32:06.
