data_PCOD9560562
_publ_section_title
;
Structure prediction by ZEFSAII (Michael W. Deem and Ramdas Pophale) SiO2 
 PCOD9560562
Probable space group: I -4 2 M
;
_chemical_formula_sum "Si O2"
_cell_formula_units_Z 60
_cell_length_a 13.475869
_cell_length_b 13.475869
_cell_length_c 16.699051
_cell_angle_alpha 90.000000
_cell_angle_beta 90.000000
_cell_angle_gamma 90.000000
_cell_volume 3032.531719
_symmetry_space_group_name_H-M "I -4 2 M"
_symmetry_group_IT_number 121
_symmetry_cell_setting 'tetragonal'
loop_
_space_group_symop_operation_xyz
x,y,z
y,-x,-z
-x,-y,z
-y,x,-z
x,-y,-z
-x,y,-z
-y,-x,z
y,x,z
1/2+x,1/2+y,1/2+z
1/2+y,1/2-x,1/2-z
1/2-x,1/2-y,1/2+z
1/2-y,1/2+x,1/2-z
1/2+x,1/2-y,1/2-z
1/2-x,1/2+y,1/2-z
1/2-y,1/2-x,1/2+z
1/2+y,1/2+x,1/2+z
loop_
_atom_site_type_symbol
_atom_site_label
_atom_site_fract_x
_atom_site_fract_y
_atom_site_fract_z
Si Si1 0.738543 0.261457 0.552446
Si Si2 0.110475 0.396849 0.032988
Si Si3 0.635286 0.926002 0.719463
Si Si4 0.845324 0.845324 0.782323
Si Si5 0.095261 0.904740 0.554682
Si Si6 0.000000 0.000000 0.709684
O O1 0.799384 0.338547 0.500005
O O2 0.685340 0.314661 0.627170
O O3 0.822207 0.177794 0.569832
O O4 0.114774 0.400987 0.127819
O O5 0.154953 0.500000 0.000000
O O6 0.000000 0.394834 0.000000
O O7 0.544733 0.876446 0.768964
O O8 0.742553 0.885567 0.744239
O O9 0.928978 0.928978 0.762985
O O10 0.000000 0.871601 0.500000
O O11 0.062771 0.937230 0.643932
#
# Coordination Sequence:
#
# PCOD9560562 Si02
#       6
#     8  16  16   8   8   4
#     4  12  24  41  68 100 130 182 234 270 346 424
#     4  11  23  41  65  94 134 173 219 280 338 408
#     4  11  24  43  67  99 137 178 235 292 354 423
#     4  12  27  41  68  99 139 187 232 296 359 423
#     4   9  22  40  71 106 141 172 226 304 363 410
#     4  10  27  44  62 102 145 178 226 292 368 419
#
# _framework density 19.785447999999999
#
# number of rings (size 3 to 8) (size 9 to 14) (size 15 to 20)
#    0.000    1.200    0.000    8.000   14.933    0.000 
#    0.000    4.000    0.000    0.000    0.000    0.000 
#    0.000    0.000    0.000    0.000    0.000    0.000 
#
# Total GULP energy -167535.243183 kJ/mol
# GULP energy per Si atom -5584.508106 kJ/mol
# Density = 1.974042 g / cm^3
# Si number density = 19.785448 Si / 1000 Ang^3
#
#
#
# Elastic Constant Matrix: (Units=GPa)
#
#
# Indices 1 2 3 4 5 6 
#
# 1 140.6451 100.3903 70.8080 0.0000 0.0000 0.0000
# 2 100.3903 140.6433 70.8086 0.0000 0.0000 0.0000
# 3 70.8080 70.8086 179.4203 0.0000 0.0000 0.0000
# 4 0.0000 0.0000 0.0000 -18.8905 0.0000 0.0000
# 5 0.0000 0.0000 0.0000 0.0000 -18.8887 0.0000
# 6 0.0000 0.0000 0.0000 0.0000 0.0000 43.0440
#
#
#
# Elastic Compliance Matrix: (Units=1/GPa)
#
#
# Indices 1 2 3 4 5 6 
#
# 1 0.015122 -0.009721 -0.002131 0.000000 0.000000 0.000000
# 2 -0.009721 0.015122 -0.002132 0.000000 0.000000 0.000000
# 3 -0.002131 -0.002132 0.007256 0.000000 0.000000 0.000000
# 4 0.000000 0.000000 0.000000 -0.052937 0.000000 0.000000
# 5 0.000000 0.000000 0.000000 0.000000 -0.052942 0.000000
# 6 0.000000 0.000000 0.000000 0.000000 0.000000 0.023232
#
#
# Mechanical properties :
#
#
# Convention : Reuss Voigt Hill
#
# Bulk Modulus (GPa) = 104.90984 104.96917 104.93950
# Shear Modulus (GPa) = -357.08586 15.63308 -170.72639
#
# Velocity S-wave (km/s) = -13.44882 2.81398 -9.29926
# Velocity P-wave (km/s) = 13.71212 7.98291 7.88338
#
# Compressibility (1/GPa) = 0.00953199
#
# Stress axis : x y z
#
# Youngs Moduli (GPa) = 66.13071 66.12933 137.81781
#
# Poissons Ratio (x) = 0.64281 0.29375
# Poissons Ratio (y) = 0.64283 0.29378
# Poissons Ratio (z) = 0.14095 0.14097
#
# Static dielectric constant tensor:
#      x y z
#    x 1.731120 0.000000 0.000000 
#    y 0.000000 1.731120 0.000000 
#    z 0.000000 0.000000 1.665840 
# 
# From -- ./inp_files/4122.got.cif
#   From: 2010.05.17/outbox.cif.g08.bks.cpg/sg121_3_cif.got.tgz:4122.got - 2010.05.20 11:32:06.
