data_PCOD9560872
_publ_section_title
;
Structure prediction by ZEFSAII (Michael W. Deem and Ramdas Pophale) SiO2 
 PCOD9560872
Probable space group: I -4 2 D
;
_chemical_formula_sum "Si O2"
_cell_formula_units_Z 60
_cell_length_a 20.226620
_cell_length_b 20.226620
_cell_length_c 5.506384
_cell_angle_alpha 90.000000
_cell_angle_beta 90.000000
_cell_angle_gamma 90.000000
_cell_volume 2252.750659
_symmetry_space_group_name_H-M "I -4 2 D"
_symmetry_group_IT_number 122
_symmetry_cell_setting 'tetragonal'
loop_
_space_group_symop_operation_xyz
x,y,z
y,-x,-z
-x,-y,z
-y,x,-z
x,1/2-y,1/4-z
-x,1/2+y,1/4-z
-y,1/2-x,1/4+z
y,1/2+x,1/4+z
1/2+x,1/2+y,1/2+z
1/2+y,1/2-x,1/2-z
1/2-x,1/2-y,1/2+z
1/2-y,1/2+x,1/2-z
1/2+x,-y,3/4-z
1/2-x,y,3/4-z
1/2-y,-x,3/4+z
1/2+y,x,3/4+z
loop_
_atom_site_type_symbol
_atom_site_label
_atom_site_fract_x
_atom_site_fract_y
_atom_site_fract_z
Si Si1 0.909643 0.889244 0.142759
Si Si2 0.218456 0.750000 0.625000
Si Si3 0.500000 0.000000 0.750000
Si Si4 0.480785 0.250000 0.125000
Si Si5 0.366988 0.362160 0.128503
Si Si6 0.250000 0.983244 0.875000
O O1 0.972739 0.936354 0.133268
O O2 0.877537 0.909237 0.397910
O O3 0.936477 0.814265 0.144300
O O4 0.865655 0.892776 0.897383
O O5 0.250000 0.715696 0.375000
O O6 0.179980 0.805698 0.471274
O O7 0.430880 0.312841 0.138621
O O8 0.521248 0.250487 0.372426
#
# Coordination Sequence:
#
# PCOD9560872 Si02
#       6
#    16   8   4   8  16   8
#     4  10  23  41  67  94 139 184 251 302 370 432
#     4  12  22  32  64 110 152 192 248 298 368 470
#     4  12  28  50  76 106 132 206 272 310 360 458
#     4   8  14  28  53  81 128 168 222 254 346 420
#     4  10  20  37  58  99 144 184 229 303 367 433
#     4   8  16  34  59  89 120 170 212 290 360 416
#
# _framework density 26.634107
#
# number of rings (size 3 to 8) (size 9 to 14) (size 15 to 20)
#    0.000    2.133    1.333    1.600    7.467    3.200 
#    0.000    2.667    0.000    3.200    0.000    0.000 
#    0.000    0.000    0.000    0.000    0.000    0.000 
#
# Total GULP energy -167318.125245 kJ/mol
# GULP energy per Si atom -5577.270841 kJ/mol
# Density = 2.657349 g / cm^3
# Si number density = 26.634107 Si / 1000 Ang^3
#
#
#
# Elastic Constant Matrix: (Units=GPa)
#
#
# Indices 1 2 3 4 5 6 
#
# 1 80.7307 40.8269 23.0307 0.0000 0.0000 0.0000
# 2 40.8269 80.7307 23.0307 0.0000 0.0000 0.0000
# 3 23.0307 23.0307 294.5041 0.0000 0.0000 0.0000
# 4 0.0000 0.0000 0.0000 28.9282 0.0000 0.0000
# 5 0.0000 0.0000 0.0000 0.0000 28.9282 0.0000
# 6 0.0000 0.0000 0.0000 0.0000 0.0000 35.7560
#
#
#
# Elastic Compliance Matrix: (Units=1/GPa)
#
#
# Indices 1 2 3 4 5 6 
#
# 1 0.016769 -0.008291 -0.000663 0.000000 0.000000 0.000000
# 2 -0.008291 0.016769 -0.000663 0.000000 0.000000 0.000000
# 3 -0.000663 -0.000663 0.003499 0.000000 0.000000 0.000000
# 4 0.000000 0.000000 0.000000 0.034568 0.000000 0.000000
# 5 0.000000 0.000000 0.000000 0.000000 0.034568 0.000000
# 6 0.000000 0.000000 0.000000 0.000000 0.000000 0.027967
#
#
# Mechanical properties :
#
#
# Convention : Reuss Voigt Hill
#
# Bulk Modulus (GPa) = 56.17072 69.97135 63.07104
# Shear Modulus (GPa) = 31.38533 43.32760 37.35647
#
# Velocity S-wave (km/s) = 3.43649 4.03770 3.74917
# Velocity P-wave (km/s) = 6.07302 6.93295 6.51718
#
# Compressibility (1/GPa) = 0.01780287
#
# Stress axis : x y z
#
# Youngs Moduli (GPa) = 59.63381 59.63381 285.77714
#
# Poissons Ratio (x) = 0.49444 0.18946
# Poissons Ratio (y) = 0.49444 0.18946
# Poissons Ratio (z) = 0.03954 0.03954
#
# Static dielectric constant tensor:
#      x y z
#    x 1.863280 0.000000 0.000000 
#    y 0.000000 1.863280 0.000000 
#    z 0.000000 0.000000 2.241470 
# 
# From -- ./inp_files/1177.got.cif
#   From: 2010.05.17/outbox.cif.g08.bks.cpg/sg122_1_cif.got.tgz:1177.got - 2010.05.20 11:37:33.
