data_PCOD9560503
_publ_section_title
;
Structure prediction by ZEFSAII (Michael W. Deem and Ramdas Pophale) SiO2 
 PCOD9560503
Probable space group: I -4 2 M
;
_chemical_formula_sum "Si O2"
_cell_formula_units_Z 56
_cell_length_a 21.017828
_cell_length_b 21.017828
_cell_length_c 5.486461
_cell_angle_alpha 90.000000
_cell_angle_beta 90.000000
_cell_angle_gamma 90.000000
_cell_volume 2423.639175
_symmetry_space_group_name_H-M "I -4 2 M"
_symmetry_group_IT_number 121
_symmetry_cell_setting 'tetragonal'
loop_
_space_group_symop_operation_xyz
x,y,z
y,-x,-z
-x,-y,z
-y,x,-z
x,-y,-z
-x,y,-z
-y,-x,z
y,x,z
1/2+x,1/2+y,1/2+z
1/2+y,1/2-x,1/2-z
1/2-x,1/2-y,1/2+z
1/2-y,1/2+x,1/2-z
1/2+x,1/2-y,1/2-z
1/2-x,1/2+y,1/2-z
1/2-y,1/2-x,1/2+z
1/2+y,1/2+x,1/2+z
loop_
_atom_site_type_symbol
_atom_site_label
_atom_site_fract_x
_atom_site_fract_y
_atom_site_fract_z
Si Si1 0.376672 0.623329 0.316061
Si Si2 0.916874 0.598480 0.409680
Si Si3 0.715571 0.086304 0.306186
Si Si4 0.178124 0.821877 0.319163
Si Si5 0.000000 0.811138 0.000000
O O1 0.340310 0.659691 0.540097
O O2 0.355417 0.551072 0.363421
O O3 0.358073 0.641928 0.040966
O O4 0.929928 0.561983 0.656766
O O5 0.933486 0.672349 0.461210
O O6 0.840171 0.596323 0.389951
O O7 0.750644 0.153071 0.353101
O O8 0.766665 0.037497 0.195014
#
# Coordination Sequence:
#
# PCOD9560503 Si02
#       5
#     8  16  16   8   8
#     4  10  24  39  53  88 104 158 212 256 271 367
#     4   8  18  33  50  82 110 145 186 240 278 397
#     4   9  20  35  55  81 113 153 185 248 298 362
#     4  10  22  34  55  81 114 138 200 237 301 366
#     4  10  22  41  62  80 122 161 208 256 316 330
#
# _framework density 23.105747999999998
#
# number of rings (size 3 to 8) (size 9 to 14) (size 15 to 20)
#    1.714    1.143    0.000    0.000    8.000    6.000 
#    0.000    0.000    0.000    6.857    0.000    0.000 
#    0.000    3.429    0.000    0.000    0.000    0.000 
#
# Total GULP energy -155912.580941 kJ/mol
# GULP energy per Si atom -5568.306462 kJ/mol
# Density = 2.305316 g / cm^3
# Si number density = 23.105748 Si / 1000 Ang^3
#
#
#
# Elastic Constant Matrix: (Units=GPa)
#
#
# Indices 1 2 3 4 5 6 
#
# 1 99.1202 30.8238 15.2670 0.0000 0.0000 0.0000
# 2 30.8238 99.1154 15.2667 0.0000 0.0000 0.0000
# 3 15.2670 15.2667 134.5935 0.0000 0.0000 0.0000
# 4 0.0000 0.0000 0.0000 16.6822 0.0000 0.0000
# 5 0.0000 0.0000 0.0000 0.0000 16.6830 0.0000
# 6 0.0000 0.0000 0.0000 0.0000 0.0000 29.9617
#
#
#
# Elastic Compliance Matrix: (Units=1/GPa)
#
#
# Indices 1 2 3 4 5 6 
#
# 1 0.011274 -0.003368 -0.000897 0.000000 0.000000 0.000000
# 2 -0.003368 0.011275 -0.000897 0.000000 0.000000 0.000000
# 3 -0.000897 -0.000897 0.007633 0.000000 0.000000 0.000000
# 4 0.000000 0.000000 0.000000 0.059944 0.000000 0.000000
# 5 0.000000 0.000000 0.000000 0.000000 0.059941 0.000000
# 6 0.000000 0.000000 0.000000 0.000000 0.000000 0.033376
#
#
# Mechanical properties :
#
#
# Convention : Reuss Voigt Hill
#
# Bulk Modulus (GPa) = 50.35519 50.61599 50.48559
# Shear Modulus (GPa) = 24.95175 30.76349 27.85762
#
# Velocity S-wave (km/s) = 3.28974 3.65282 3.47602
# Velocity P-wave (km/s) = 6.02250 6.30433 6.16503
#
# Compressibility (1/GPa) = 0.01985893
#
# Stress axis : x y z
#
# Youngs Moduli (GPa) = 88.69761 88.69330 131.00610
#
# Poissons Ratio (x) = 0.29872 0.11749
# Poissons Ratio (y) = 0.29874 0.11749
# Poissons Ratio (z) = 0.07955 0.07954
#
# Static dielectric constant tensor:
#      x y z
#    x 1.873570 0.000000 0.000000 
#    y 0.000000 1.873580 0.000000 
#    z 0.000000 0.000000 1.935500 
# 
# From -- ./inp_files/429.got.cif
#   From: 2010.05.17/outbox.cif.g08.bks.cpg/sg121_1_cif.got.tgz:429.got - 2010.05.20 11:32:06.
