data_PCOD9560203
_publ_section_title
;
Structure prediction by ZEFSAII (Michael W. Deem and Ramdas Pophale) SiO2 
 PCOD9560203
Probable space group: I -4 2 M
;
_chemical_formula_sum "Si O2"
_cell_formula_units_Z 96
_cell_length_a 22.560805
_cell_length_b 22.560805
_cell_length_c 10.956649
_cell_angle_alpha 90.000000
_cell_angle_beta 90.000000
_cell_angle_gamma 90.000000
_cell_volume 5576.823923
_symmetry_space_group_name_H-M "I -4 2 M"
_symmetry_group_IT_number 121
_symmetry_cell_setting 'tetragonal'
loop_
_space_group_symop_operation_xyz
x,y,z
y,-x,-z
-x,-y,z
-y,x,-z
x,-y,-z
-x,y,-z
-y,-x,z
y,x,z
1/2+x,1/2+y,1/2+z
1/2+y,1/2-x,1/2-z
1/2-x,1/2-y,1/2+z
1/2-y,1/2+x,1/2-z
1/2+x,1/2-y,1/2-z
1/2-x,1/2+y,1/2-z
1/2-y,1/2-x,1/2+z
1/2+y,1/2+x,1/2+z
loop_
_atom_site_type_symbol
_atom_site_label
_atom_site_fract_x
_atom_site_fract_y
_atom_site_fract_z
Si Si1 0.493529 0.322283 0.358395
Si Si2 0.640738 0.359263 0.615799
Si Si3 0.810269 0.373896 0.851972
Si Si4 0.315093 0.866388 0.615632
Si Si5 0.732819 0.995558 0.364233
Si Si6 0.787339 0.787339 0.703416
Si Si7 0.886245 0.886245 0.157470
Si Si8 0.197881 0.197881 0.308273
O O1 0.500000 0.300799 0.500000
O O2 0.425883 0.343226 0.343029
O O3 0.507277 0.275443 0.252351
O O4 0.544015 0.372332 0.342211
O O5 0.687905 0.312096 0.667461
O O6 0.639031 0.360970 0.470114
O O7 0.840325 0.351311 0.728568
O O8 0.804127 0.444238 0.850758
O O9 0.744833 0.343958 0.853565
O O10 0.839957 0.354745 0.979954
O O11 0.249790 0.836857 0.622652
O O12 0.306068 0.936332 0.632618
O O13 0.762297 0.000000 0.500000
O O14 0.736670 0.736670 0.711137
O O15 0.849173 0.849173 0.256930
#
# Coordination Sequence:
#
# PCOD9560203 Si02
#       8
#    16   8  16  16  16   8   8   8
#     4  10  20  35  54  78 105 143 184 227 267 311
#     4  10  20  34  54  78 107 141 185 228 267 316
#     4  10  21  35  54  80 109 140 176 217 265 318
#     4  10  21  35  54  80 109 140 176 217 265 318
#     4  10  20  36  55  80 108 140 177 219 264 319
#     4  10  19  31  50  75 109 139 173 210 271 315
#     4  10  20  34  54  78 107 141 185 228 267 316
#     4  10  19  31  50  75 109 139 173 210 271 315
#
# _framework density 17.214099000000001
#
# number of rings (size 3 to 8) (size 9 to 14) (size 15 to 20)
#    0.000    2.000    3.333    0.500    0.000    7.000 
#    0.000    2.500    0.000    0.500    0.000    4.667 
#    0.000    0.000    0.000    0.000    0.000    0.000 
#
# Total GULP energy -267232.623775 kJ/mol
# GULP energy per Si atom -5567.346329 kJ/mol
# Density = 1.717492 g / cm^3
# Si number density = 17.214099 Si / 1000 Ang^3
#
#
#
# Elastic Constant Matrix: (Units=GPa)
#
#
# Indices 1 2 3 4 5 6 
#
# 1 68.2752 4.7313 30.7119 0.0000 0.0000 0.0000
# 2 4.7313 68.2764 30.7112 0.0000 0.0000 0.0000
# 3 30.7119 30.7112 126.8090 0.0000 0.0000 0.0000
# 4 0.0000 0.0000 0.0000 21.3036 0.0000 0.0000
# 5 0.0000 0.0000 0.0000 0.0000 21.3038 0.0000
# 6 0.0000 0.0000 0.0000 0.0000 0.0000 15.0388
#
#
#
# Elastic Compliance Matrix: (Units=1/GPa)
#
#
# Indices 1 2 3 4 5 6 
#
# 1 0.016470 0.000733 -0.004166 0.000000 0.000000 0.000000
# 2 0.000733 0.016470 -0.004166 0.000000 0.000000 0.000000
# 3 -0.004166 -0.004166 0.009904 0.000000 0.000000 0.000000
# 4 0.000000 0.000000 0.000000 0.046940 0.000000 0.000000
# 5 0.000000 0.000000 0.000000 0.000000 0.046940 0.000000
# 6 0.000000 0.000000 0.000000 0.000000 0.000000 0.066495
#
#
# Mechanical properties :
#
#
# Convention : Reuss Voigt Hill
#
# Bulk Modulus (GPa) = 36.17427 43.96326 40.06877
# Shear Modulus (GPa) = 21.96523 24.67632 23.32077
#
# Velocity S-wave (km/s) = 3.57599 3.79026 3.68468
# Velocity P-wave (km/s) = 6.17335 6.68949 6.43660
#
# Compressibility (1/GPa) = 0.02764396
#
# Stress axis : x y z
#
# Youngs Moduli (GPa) = 60.71663 60.71817 100.97042
#
# Poissons Ratio (x) = -0.04449 0.42068
# Poissons Ratio (y) = -0.04449 0.42066
# Poissons Ratio (z) = 0.25296 0.25296
#
# Static dielectric constant tensor:
#      x y z
#    x 1.573720 0.000000 0.000000 
#    y 0.000000 1.573720 0.000000 
#    z 0.000000 0.000000 1.634530 
# 
# From -- ./inp_files/3385.got.cif
#   From: 2010.05.17/outbox.cif.g08.bks.cpg/sg121_2_cif.got.tgz:3385.got - 2010.05.20 11:32:06.
