data_PCOD9560229
_publ_section_title
;
Structure prediction by ZEFSAII (Michael W. Deem and Ramdas Pophale) SiO2 
 PCOD9560229
Probable space group: I -4 2 M
;
_chemical_formula_sum "Si O2"
_cell_formula_units_Z 112
_cell_length_a 25.861135
_cell_length_b 25.861135
_cell_length_c 11.359251
_cell_angle_alpha 90.000000
_cell_angle_beta 90.000000
_cell_angle_gamma 90.000000
_cell_volume 7597.047798
_symmetry_space_group_name_H-M "I -4 2 M"
_symmetry_group_IT_number 121
_symmetry_cell_setting 'tetragonal'
loop_
_space_group_symop_operation_xyz
x,y,z
y,-x,-z
-x,-y,z
-y,x,-z
x,-y,-z
-x,y,-z
-y,-x,z
y,x,z
1/2+x,1/2+y,1/2+z
1/2+y,1/2-x,1/2-z
1/2-x,1/2-y,1/2+z
1/2-y,1/2+x,1/2-z
1/2+x,1/2-y,1/2-z
1/2-x,1/2+y,1/2-z
1/2-y,1/2-x,1/2+z
1/2+y,1/2+x,1/2+z
loop_
_atom_site_type_symbol
_atom_site_label
_atom_site_fract_x
_atom_site_fract_y
_atom_site_fract_z
Si Si1 0.282493 0.555728 0.994357
Si Si2 0.373834 0.288165 0.647563
Si Si3 0.055459 0.142803 0.288847
Si Si4 0.837076 0.249081 0.603510
Si Si5 0.165337 0.254355 0.917446
Si Si6 0.117542 0.967915 0.118713
Si Si7 0.604937 0.690766 0.249103
O O1 0.330617 0.548836 0.084719
O O2 0.254463 0.607733 0.039748
O O3 0.254584 0.500000 0.000000
O O4 0.298949 0.568978 0.862020
O O5 0.338233 0.338233 0.621722
O O6 0.426871 0.311701 0.697976
O O7 0.347830 0.259041 0.757936
O O8 0.370346 0.253538 0.531960
O O9 0.102231 0.102231 0.297695
O O10 0.006475 0.115896 0.229834
O O11 0.799129 0.200872 0.567627
O O12 0.806726 0.302061 0.582214
O O13 0.209433 0.209433 0.920414
O O14 0.132236 0.241474 0.801634
O O15 0.065909 0.934092 0.107866
O O16 0.163707 0.928096 0.147491
O O17 0.125336 0.000000 0.000000
O O18 0.649532 0.649532 0.215342
#
# Coordination Sequence:
#
# PCOD9560229 Si02
#       7
#    16  16  16  16  16  16  16
#     4  11  20  34  49  67  91 126 163 194 236 293
#     4   8  15  28  43  63  87 115 149 187 241 295
#     4  10  19  33  49  62  85 122 165 210 253 295
#     4   9  18  29  47  70  93 121 153 197 242 285
#     4   9  17  28  46  71  94 115 145 195 247 292
#     4  11  22  34  48  65  86 117 162 216 264 297
#     4  10  20  33  49  69  90 117 155 199 247 297
#
# _framework density 14.742569
#
# number of rings (size 3 to 8) (size 9 to 14) (size 15 to 20)
#    0.000    2.286    1.429    3.429    2.000    3.286 
#    0.000    0.000    0.000    0.000    0.000    0.000 
#    0.000    0.000    0.000    0.000    0.000   17.143 
#
# Total GULP energy -311977.669230 kJ/mol
# GULP energy per Si atom -5571.029808 kJ/mol
# Density = 1.470901 g / cm^3
# Si number density = 14.742569 Si / 1000 Ang^3
#
#
#
# Elastic Constant Matrix: (Units=GPa)
#
#
# Indices 1 2 3 4 5 6 
#
# 1 56.2822 35.7132 32.8609 0.0000 0.0000 0.0000
# 2 35.7132 56.2827 32.8610 0.0000 0.0000 0.0000
# 3 32.8609 32.8610 72.3542 0.0000 0.0000 0.0000
# 4 0.0000 0.0000 0.0000 12.7995 0.0000 0.0000
# 5 0.0000 0.0000 0.0000 0.0000 12.7994 0.0000
# 6 0.0000 0.0000 0.0000 0.0000 0.0000 12.5140
#
#
#
# Elastic Compliance Matrix: (Units=1/GPa)
#
#
# Indices 1 2 3 4 5 6 
#
# 1 0.032354 -0.016263 -0.007308 0.000000 0.000000 0.000000
# 2 -0.016263 0.032353 -0.007308 0.000000 0.000000 0.000000
# 3 -0.007308 -0.007308 0.020459 0.000000 0.000000 0.000000
# 4 0.000000 0.000000 0.000000 0.078128 0.000000 0.000000
# 5 0.000000 0.000000 0.000000 0.000000 0.078129 0.000000
# 6 0.000000 0.000000 0.000000 0.000000 0.000000 0.079910
#
#
# Mechanical properties :
#
#
# Convention : Reuss Voigt Hill
#
# Bulk Modulus (GPa) = 42.71875 43.08768 42.90322
# Shear Modulus (GPa) = 12.79121 13.18819 12.98970
#
# Velocity S-wave (km/s) = 2.94876 2.99417 2.97156
# Velocity P-wave (km/s) = 6.37440 6.42212 6.39830
#
# Compressibility (1/GPa) = 0.02340893
#
# Stress axis : x y z
#
# Youngs Moduli (GPa) = 30.90837 30.90862 48.87830
#
# Poissons Ratio (x) = 0.50266 0.35720
# Poissons Ratio (y) = 0.50265 0.35720
# Poissons Ratio (z) = 0.22588 0.22588
#
# Static dielectric constant tensor:
#      x y z
#    x 1.493280 0.000000 0.000000 
#    y 0.000000 1.493290 0.000000 
#    z 0.000000 0.000000 1.520190 
# 
# From -- ./inp_files/3509.got.cif
#   From: 2010.05.17/outbox.cif.g08.bks.cpg/sg121_2_cif.got.tgz:3509.got - 2010.05.20 11:32:06.
