data_PCOD9560364
_publ_section_title
;
Structure prediction by ZEFSAII (Michael W. Deem and Ramdas Pophale) SiO2 
 PCOD9560364
Probable space group: I -4 2 M
;
_chemical_formula_sum "Si O2"
_cell_formula_units_Z 96
_cell_length_a 15.988821
_cell_length_b 15.988821
_cell_length_c 19.311254
_cell_angle_alpha 90.000000
_cell_angle_beta 90.000000
_cell_angle_gamma 90.000000
_cell_volume 4936.775261
_symmetry_space_group_name_H-M "I -4 2 M"
_symmetry_group_IT_number 121
_symmetry_cell_setting 'tetragonal'
loop_
_space_group_symop_operation_xyz
x,y,z
y,-x,-z
-x,-y,z
-y,x,-z
x,-y,-z
-x,y,-z
-y,-x,z
y,x,z
1/2+x,1/2+y,1/2+z
1/2+y,1/2-x,1/2-z
1/2-x,1/2-y,1/2+z
1/2-y,1/2+x,1/2-z
1/2+x,1/2-y,1/2-z
1/2-x,1/2+y,1/2-z
1/2-y,1/2-x,1/2+z
1/2+y,1/2+x,1/2+z
loop_
_atom_site_type_symbol
_atom_site_label
_atom_site_fract_x
_atom_site_fract_y
_atom_site_fract_z
Si Si1 0.226549 0.226549 0.271480
Si Si2 0.164156 0.577284 0.050606
Si Si3 0.796584 0.466979 0.817691
Si Si4 0.215586 0.784415 0.488796
Si Si5 0.833113 0.166888 0.333423
Si Si6 0.031958 0.273964 0.927005
Si Si7 0.082112 0.688572 0.806156
Si Si8 0.695327 0.304674 0.599648
O O1 0.288712 0.288712 0.231122
O O2 0.250482 0.136993 0.241800
O O3 0.246306 0.246306 0.351364
O O4 0.187412 0.536731 0.124231
O O5 0.242759 0.630015 0.018944
O O6 0.085030 0.639914 0.059808
O O7 0.144364 0.500000 0.000000
O O8 0.703100 0.427590 0.826797
O O9 0.860677 0.390079 0.825525
O O10 0.822814 0.502086 0.742783
O O11 0.202096 0.797905 0.407055
O O12 0.282209 0.717792 0.519749
O O13 0.100019 0.216853 0.889230
O O14 0.952370 0.280964 0.878596
O O15 0.000000 0.241745 0.000000
#
# Coordination Sequence:
#
# PCOD9560364 Si02
#       8
#     8  16  16   8   8  16  16   8
#     4  10  22  40  64  83 113 164 216 251 286 375
#     4  11  21  36  58  86 125 161 203 249 310 369
#     4  11  22  37  60  87 122 160 201 255 305 371
#     4  10  20  36  60  85 115 167 209 244 287 371
#     4  10  20  36  60  85 113 161 215 244 289 360
#     4  11  24  37  59  90 123 161 199 253 317 373
#     4  11  23  38  60  89 120 157 204 249 314 366
#     4  10  22  42  62  83 123 166 214 247 296 370
#
# _framework density 19.445891
#
# number of rings (size 3 to 8) (size 9 to 14) (size 15 to 20)
#    0.000    1.333    1.667    6.000    7.000    4.000 
#    0.000    0.000    0.000    6.000    0.000    0.000 
#    0.000    0.000    0.000    0.000    0.000    0.000 
#
# Total GULP energy -267490.705384 kJ/mol
# GULP energy per Si atom -5572.723029 kJ/mol
# Density = 1.940163 g / cm^3
# Si number density = 19.445891 Si / 1000 Ang^3
#
#
#
# Elastic Constant Matrix: (Units=GPa)
#
#
# Indices 1 2 3 4 5 6 
#
# 1 60.3552 18.5289 2.8429 0.0000 0.0000 0.0000
# 2 18.5289 60.3557 2.8427 0.0000 0.0000 0.0000
# 3 2.8429 2.8427 87.4455 0.0000 0.0000 0.0000
# 4 0.0000 0.0000 0.0000 30.5805 0.0000 0.0000
# 5 0.0000 0.0000 0.0000 0.0000 30.5804 0.0000
# 6 0.0000 0.0000 0.0000 0.0000 0.0000 17.3807
#
#
#
# Elastic Compliance Matrix: (Units=1/GPa)
#
#
# Indices 1 2 3 4 5 6 
#
# 1 0.018307 -0.005601 -0.000413 0.000000 0.000000 0.000000
# 2 -0.005601 0.018307 -0.000413 0.000000 0.000000 0.000000
# 3 -0.000413 -0.000413 0.011463 0.000000 0.000000 0.000000
# 4 0.000000 0.000000 0.000000 0.032701 0.000000 0.000000
# 5 0.000000 0.000000 0.000000 0.000000 0.032701 0.000000
# 6 0.000000 0.000000 0.000000 0.000000 0.000000 0.057535
#
#
# Mechanical properties :
#
#
# Convention : Reuss Voigt Hill
#
# Bulk Modulus (GPa) = 28.39027 28.50950 28.44988
# Shear Modulus (GPa) = 25.56122 27.97113 26.76617
#
# Velocity S-wave (km/s) = 3.62951 3.79675 3.71407
# Velocity P-wave (km/s) = 5.67413 5.82350 5.74930
#
# Compressibility (1/GPa) = 0.03522333
#
# Stress axis : x y z
#
# Youngs Moduli (GPa) = 54.62247 54.62296 87.24064
#
# Poissons Ratio (x) = 0.30593 0.03604
# Poissons Ratio (y) = 0.30593 0.03603
# Poissons Ratio (z) = 0.02257 0.02256
#
# Static dielectric constant tensor:
#      x y z
#    x 1.726340 0.000000 0.000000 
#    y 0.000000 1.726340 0.000000 
#    z 0.000000 0.000000 1.692020 
# 
# From -- ./inp_files/6496.got.cif
#   From: 2010.05.17/outbox.cif.g08.bks.cpg/sg121_4_cif.got.tgz:6496.got - 2010.05.20 11:32:06.
