data_PCOD9560479
_publ_section_title
;
Structure prediction by ZEFSAII (Michael W. Deem and Ramdas Pophale) SiO2 
 PCOD9560479
Probable space group: I -4 2 M
;
_chemical_formula_sum "Si O2"
_cell_formula_units_Z 96
_cell_length_a 15.128045
_cell_length_b 15.128045
_cell_length_c 19.725304
_cell_angle_alpha 90.000000
_cell_angle_beta 90.000000
_cell_angle_gamma 90.000000
_cell_volume 4514.288603
_symmetry_space_group_name_H-M "I -4 2 M"
_symmetry_group_IT_number 121
_symmetry_cell_setting 'tetragonal'
loop_
_space_group_symop_operation_xyz
x,y,z
y,-x,-z
-x,-y,z
-y,x,-z
x,-y,-z
-x,y,-z
-y,-x,z
y,x,z
1/2+x,1/2+y,1/2+z
1/2+y,1/2-x,1/2-z
1/2-x,1/2-y,1/2+z
1/2-y,1/2+x,1/2-z
1/2+x,1/2-y,1/2-z
1/2-x,1/2+y,1/2-z
1/2-y,1/2-x,1/2+z
1/2+y,1/2+x,1/2+z
loop_
_atom_site_type_symbol
_atom_site_label
_atom_site_fract_x
_atom_site_fract_y
_atom_site_fract_z
Si Si1 0.849327 0.385047 0.632493
Si Si2 0.645165 0.494170 0.795719
Si Si3 0.908483 0.769307 0.983979
Si Si4 0.262773 0.011915 0.423215
Si Si5 0.918282 0.375214 0.901116
Si Si6 0.222445 0.371975 0.734704
O O1 0.756327 0.400699 0.594924
O O2 0.890944 0.299800 0.594146
O O3 0.895615 0.479854 0.618214
O O4 0.855627 0.355060 0.710221
O O5 0.596379 0.403622 0.774155
O O6 0.569205 0.569205 0.798026
O O7 0.688267 0.484633 0.869911
O O8 0.724073 0.537492 0.751811
O O9 0.825871 0.825871 0.005649
O O10 0.914518 0.681793 0.030163
O O11 0.000000 0.818182 0.000000
O O12 0.233386 0.000000 0.500000
O O13 0.351112 0.954718 0.411314
O O14 0.881037 0.317377 0.839342
O O15 0.292018 0.292018 0.740014
#
# Coordination Sequence:
#
# PCOD9560479 Si02
#       6
#    16  16  16  16  16  16
#     4  10  22  39  60  84 122 162 199 246 311 377
#     4   9  21  42  63  88 126 167 208 254 310 378
#     4  10  21  39  61  84 115 156 201 252 307 363
#     4  11  22  39  61  93 123 162 203 252 314 374
#     4  11  23  38  59  91 122 156 206 256 308 371
#     4  10  22  40  61  90 126 163 208 260 311 375
#
# _framework density 21.265809999999998
#
# number of rings (size 3 to 8) (size 9 to 14) (size 15 to 20)
#    0.000    1.833    1.667    1.500    4.667    3.500 
#    0.000    4.167    0.000    4.000    0.000    0.000 
#    0.000    0.000    0.000    0.000    0.000    0.000 
#
# Total GULP energy -267915.415634 kJ/mol
# GULP energy per Si atom -5581.571159 kJ/mol
# Density = 2.121741 g / cm^3
# Si number density = 21.265810 Si / 1000 Ang^3
#
#
#
# Elastic Constant Matrix: (Units=GPa)
#
#
# Indices 1 2 3 4 5 6 
#
# 1 64.5115 16.3936 9.5140 0.0000 0.0000 0.0000
# 2 16.3936 64.5130 9.5141 0.0000 0.0000 0.0000
# 3 9.5140 9.5141 81.6819 0.0000 0.0000 0.0000
# 4 0.0000 0.0000 0.0000 -1.4471 0.0000 0.0000
# 5 0.0000 0.0000 0.0000 0.0000 -1.4466 0.0000
# 6 0.0000 0.0000 0.0000 0.0000 0.0000 22.5540
#
#
#
# Elastic Compliance Matrix: (Units=1/GPa)
#
#
# Indices 1 2 3 4 5 6 
#
# 1 0.016745 -0.004037 -0.001480 0.000000 0.000000 0.000000
# 2 -0.004037 0.016745 -0.001480 0.000000 0.000000 0.000000
# 3 -0.001480 -0.001480 0.012587 0.000000 0.000000 0.000000
# 4 0.000000 0.000000 0.000000 -0.691026 -0.000001 0.000000
# 5 0.000000 0.000000 0.000000 -0.000001 -0.691286 0.000000
# 6 0.000000 0.000000 0.000000 0.000000 0.000000 0.044338
#
#
# Mechanical properties :
#
#
# Convention : Reuss Voigt Hill
#
# Bulk Modulus (GPa) = 31.16921 31.28331 31.22626
# Shear Modulus (GPa) = -3.94568 15.61770 5.83601
#
# Velocity S-wave (km/s) = -1.36361 2.71293 1.65839
# Velocity P-wave (km/s) = 3.49421 4.95539 4.28750
#
# Compressibility (1/GPa) = 0.03208295
#
# Stress axis : x y z
#
# Youngs Moduli (GPa) = 59.71842 59.71977 79.44430
#
# Poissons Ratio (x) = 0.24108 0.11760
# Poissons Ratio (y) = 0.24108 0.11759
# Poissons Ratio (z) = 0.08840 0.08840
#
# Static dielectric constant tensor:
#      x y z
#    x 1.791780 0.000000 0.000000 
#    y 0.000000 1.791780 0.000000 
#    z 0.000000 0.000000 1.738660 
# 
# From -- ./inp_files/6405.got.cif
#   From: 2010.05.17/outbox.cif.g08.bks.cpg/sg121_4_cif.got.tgz:6405.got - 2010.05.20 11:32:06.
