data_PCOD9560279
_publ_section_title
;
Structure prediction by ZEFSAII (Michael W. Deem and Ramdas Pophale) SiO2 
 PCOD9560279
Probable space group: I -4 2 M
;
_chemical_formula_sum "Si O2"
_cell_formula_units_Z 96
_cell_length_a 14.319169
_cell_length_b 14.319169
_cell_length_c 24.736932
_cell_angle_alpha 90.000000
_cell_angle_beta 90.000000
_cell_angle_gamma 90.000000
_cell_volume 5072.025927
_symmetry_space_group_name_H-M "I -4 2 M"
_symmetry_group_IT_number 121
_symmetry_cell_setting 'tetragonal'
loop_
_space_group_symop_operation_xyz
x,y,z
y,-x,-z
-x,-y,z
-y,x,-z
x,-y,-z
-x,y,-z
-y,-x,z
y,x,z
1/2+x,1/2+y,1/2+z
1/2+y,1/2-x,1/2-z
1/2-x,1/2-y,1/2+z
1/2-y,1/2+x,1/2-z
1/2+x,1/2-y,1/2-z
1/2-x,1/2+y,1/2-z
1/2-y,1/2-x,1/2+z
1/2+y,1/2+x,1/2+z
loop_
_atom_site_type_symbol
_atom_site_label
_atom_site_fract_x
_atom_site_fract_y
_atom_site_fract_z
Si Si1 0.079754 0.079754 0.850185
Si Si2 0.779882 0.502540 0.623086
Si Si3 0.921941 0.349772 0.575401
Si Si4 0.441982 0.713175 0.171227
Si Si5 0.623450 0.096797 0.966664
Si Si6 0.919429 0.080572 0.276923
Si Si7 0.143387 0.446963 0.739744
O O1 0.040899 0.176345 0.875205
O O2 0.098604 0.098604 0.786362
O O3 0.000000 0.000000 0.854280
O O4 0.854714 0.421850 0.607090
O O5 0.796533 0.582859 0.577839
O O6 0.808660 0.540963 0.681751
O O7 0.941620 0.263358 0.613952
O O8 0.875370 0.330484 0.516539
O O9 0.024538 0.391462 0.563101
O O10 0.371145 0.628856 0.168255
O O11 0.538909 0.670126 0.192783
O O12 0.407275 0.785440 0.216579
O O13 0.622741 0.000000 0.000000
O O14 0.000000 0.000000 0.277477
O O15 0.112612 0.548966 0.761757
#
# Coordination Sequence:
#
# PCOD9560279 Si02
#       7
#     8  16  16  16  16   8  16
#     4  11  24  40  60  81 126 185 213 243 308 387
#     4  11  20  34  61  87 121 162 210 250 307 375
#     4  10  19  36  65  91 115 154 207 260 317 359
#     4  11  22  38  61  87 122 163 207 247 308 376
#     4   9  19  37  66  92 118 157 198 262 327 367
#     4   9  20  40  58  79 116 168 203 237 298 378
#     4  11  22  33  54  92 129 154 194 257 317 373
#
# _framework density 18.927349
#
# number of rings (size 3 to 8) (size 9 to 14) (size 15 to 20)
#    0.000    1.667    3.333    4.500    3.500    0.000 
#    1.500    0.833   23.833    0.000    0.000    0.000 
#    0.000    0.000    0.000    0.000    0.000    0.000 
#
# Total GULP energy -267629.076232 kJ/mol
# GULP energy per Si atom -5575.605755 kJ/mol
# Density = 1.888427 g / cm^3
# Si number density = 18.927349 Si / 1000 Ang^3
#
#
#
# Elastic Constant Matrix: (Units=GPa)
#
#
# Indices 1 2 3 4 5 6 
#
# 1 48.5574 9.7353 53.2157 0.0000 0.0000 0.0000
# 2 9.7353 48.5600 53.2161 0.0000 0.0000 0.0000
# 3 53.2157 53.2161 136.3746 0.0000 0.0000 0.0000
# 4 0.0000 0.0000 0.0000 -1.4891 0.0000 0.0000
# 5 0.0000 0.0000 0.0000 0.0000 -1.5087 0.0000
# 6 0.0000 0.0000 0.0000 0.0000 0.0000 16.4464
#
#
#
# Elastic Compliance Matrix: (Units=1/GPa)
#
#
# Indices 1 2 3 4 5 6 
#
# 1 0.042710 0.016950 -0.023280 0.000000 0.000000 0.000000
# 2 0.016950 0.042706 -0.023279 0.000000 0.000000 0.000000
# 3 -0.023280 -0.023279 0.025501 0.000000 0.000000 0.000000
# 4 0.000000 0.000000 0.000000 -0.671526 0.000000 0.000000
# 5 0.000000 0.000000 0.000000 0.000000 -0.662825 0.000000
# 6 0.000000 0.000000 0.000000 0.000000 0.000000 0.060803
#
#
# Mechanical properties :
#
#
# Convention : Reuss Voigt Hill
#
# Bulk Modulus (GPa) = 19.34302 51.75847 35.55075
# Shear Modulus (GPa) = -4.60329 10.51137 2.95404
#
# Velocity S-wave (km/s) = -1.56121 2.35915 1.25065
# Velocity P-wave (km/s) = 2.64424 5.90136 4.57264
#
# Compressibility (1/GPa) = 0.05169824
#
# Stress axis : x y z
#
# Youngs Moduli (GPa) = 23.41398 23.41592 39.21411
#
# Poissons Ratio (x) = -0.39690 0.91291
# Poissons Ratio (y) = -0.39687 0.91286
# Poissons Ratio (z) = 0.54508 0.54510
#
# Static dielectric constant tensor:
#      x y z
#    x 1.675270 0.000000 0.000000 
#    y 0.000000 1.675270 0.000000 
#    z 0.000000 0.000000 1.696120 
# 
# From -- ./inp_files/7159.got.cif
#   From: 2010.05.17/outbox.cif.g08.bks.cpg/sg121_4_cif.got.tgz:7159.got - 2010.05.20 11:32:06.
