data_PCOD9560330
_publ_section_title
;
Structure prediction by ZEFSAII (Michael W. Deem and Ramdas Pophale) SiO2 
 PCOD9560330
Probable space group: I -4 2 M
;
_chemical_formula_sum "Si O2"
_cell_formula_units_Z 120
_cell_length_a 18.233029
_cell_length_b 18.233029
_cell_length_c 19.042001
_cell_angle_alpha 90.000000
_cell_angle_beta 90.000000
_cell_angle_gamma 90.000000
_cell_volume 6330.386537
_symmetry_space_group_name_H-M "I -4 2 M"
_symmetry_group_IT_number 121
_symmetry_cell_setting 'tetragonal'
loop_
_space_group_symop_operation_xyz
x,y,z
y,-x,-z
-x,-y,z
-y,x,-z
x,-y,-z
-x,y,-z
-y,-x,z
y,x,z
1/2+x,1/2+y,1/2+z
1/2+y,1/2-x,1/2-z
1/2-x,1/2-y,1/2+z
1/2-y,1/2+x,1/2-z
1/2+x,1/2-y,1/2-z
1/2-x,1/2+y,1/2-z
1/2-y,1/2-x,1/2+z
1/2+y,1/2+x,1/2+z
loop_
_atom_site_type_symbol
_atom_site_label
_atom_site_fract_x
_atom_site_fract_y
_atom_site_fract_z
Si Si1 0.500000 0.620700 0.500000
Si Si2 0.156566 0.343374 0.596293
Si Si3 0.602375 0.717621 0.826584
Si Si4 0.214425 0.328409 0.249738
Si Si5 0.912581 0.506383 0.147303
Si Si6 0.580305 0.701790 0.620762
Si Si7 0.289064 0.995393 0.242103
Si Si8 0.572036 0.198251 0.040401
O O1 0.568517 0.568517 0.483281
O O2 0.522437 0.666255 0.568207
O O3 0.167543 0.292769 0.665158
O O4 0.090453 0.395835 0.624444
O O5 0.236355 0.374687 0.580535
O O6 0.127124 0.316342 0.522412
O O7 0.638856 0.638856 0.816359
O O8 0.651389 0.775434 0.781100
O O9 0.518649 0.731644 0.803424
O O10 0.605684 0.744258 0.905884
O O11 0.290247 0.290247 0.269132
O O12 0.208316 0.410523 0.277049
O O13 0.867979 0.489629 0.219987
O O14 0.872465 0.455252 0.087637
O O15 0.000000 0.500000 0.151859
O O16 0.637668 0.637668 0.645357
O O17 0.540628 0.752478 0.678982
O O18 0.500000 0.225904 0.000000
#
# Coordination Sequence:
#
# PCOD9560330 Si02
#       8
#     8  16  16  16  16  16  16  16
#     4   9  22  42  60  82 111 146 192 248 307 360
#     4  10  20  35  56  84 114 154 192 236 286 347
#     4  10  20  38  61  85 117 156 195 242 297 356
#     4  10  21  38  57  81 118 154 194 245 292 348
#     4   9  20  38  55  82 121 158 191 234 288 345
#     4  11  22  38  60  81 110 149 192 244 299 352
#     4  10  21  37  57  85 112 148 197 240 288 351
#     4   9  20  37  56  83 119 153 197 241 285 349
#
# _framework density 18.956188000000001
#
# number of rings (size 3 to 8) (size 9 to 14) (size 15 to 20)
#    0.000    2.200    1.333    1.600    0.000    8.267 
#    0.000    2.667    0.000    1.200    0.000    0.000 
#    0.000    0.000    0.000    0.000    0.000    0.000 
#
# Total GULP energy -334088.257946 kJ/mol
# GULP energy per Si atom -5568.137632 kJ/mol
# Density = 1.891304 g / cm^3
# Si number density = 18.956188 Si / 1000 Ang^3
#
#
#
# Elastic Constant Matrix: (Units=GPa)
#
#
# Indices 1 2 3 4 5 6 
#
# 1 40.3359 -3.1060 15.8700 0.0000 0.0000 0.0000
# 2 -3.1060 40.3359 15.8700 0.0000 0.0000 0.0000
# 3 15.8700 15.8700 99.2375 0.0000 0.0000 0.0000
# 4 0.0000 0.0000 0.0000 12.9852 0.0000 0.0000
# 5 0.0000 0.0000 0.0000 0.0000 12.9852 0.0000
# 6 0.0000 0.0000 0.0000 0.0000 0.0000 9.8539
#
#
#
# Elastic Compliance Matrix: (Units=1/GPa)
#
#
# Indices 1 2 3 4 5 6 
#
# 1 0.027060 0.004041 -0.004974 0.000000 0.000000 0.000000
# 2 0.004041 0.027060 -0.004974 0.000000 0.000000 0.000000
# 3 -0.004974 -0.004974 0.011668 0.000000 0.000000 0.000000
# 4 0.000000 0.000000 0.000000 0.077010 0.000000 0.000000
# 5 0.000000 0.000000 0.000000 0.000000 0.077010 0.000000
# 6 0.000000 0.000000 0.000000 0.000000 0.000000 0.101483
#
#
# Mechanical properties :
#
#
# Convention : Reuss Voigt Hill
#
# Bulk Modulus (GPa) = 18.52743 26.35302 22.44022
# Shear Modulus (GPa) = 14.24115 17.24990 15.74553
#
# Velocity S-wave (km/s) = 2.74390 3.01987 2.88519
# Velocity P-wave (km/s) = 4.45350 5.10801 4.79194
#
# Compressibility (1/GPa) = 0.05397404
#
# Stress axis : x y z
#
# Youngs Moduli (GPa) = 36.95523 36.95523 85.70772
#
# Poissons Ratio (x) = -0.14932 0.42627
# Poissons Ratio (y) = -0.14932 0.42627
# Poissons Ratio (z) = 0.18380 0.18380
#
# Static dielectric constant tensor:
#      x y z
#    x 1.694990 0.000000 0.000000 
#    y 0.000000 1.694990 0.000000 
#    z 0.000000 0.000000 1.850080 
# 
# From -- ./inp_files/6679.got.cif
#   From: 2010.05.17/outbox.cif.g08.bks.cpg/sg121_4_cif.got.tgz:6679.got - 2010.05.20 11:32:06.
