data_PCOD9560226
_publ_section_title
;
Structure prediction by ZEFSAII (Michael W. Deem and Ramdas Pophale) SiO2 
 PCOD9560226
Probable space group: I -4 2 M
;
_chemical_formula_sum "Si O2"
_cell_formula_units_Z 112
_cell_length_a 15.185777
_cell_length_b 15.185777
_cell_length_c 24.448353
_cell_angle_alpha 90.000000
_cell_angle_beta 90.000000
_cell_angle_gamma 90.000000
_cell_volume 5637.981464
_symmetry_space_group_name_H-M "I -4 2 M"
_symmetry_group_IT_number 121
_symmetry_cell_setting 'tetragonal'
loop_
_space_group_symop_operation_xyz
x,y,z
y,-x,-z
-x,-y,z
-y,x,-z
x,-y,-z
-x,y,-z
-y,-x,z
y,x,z
1/2+x,1/2+y,1/2+z
1/2+y,1/2-x,1/2-z
1/2-x,1/2-y,1/2+z
1/2-y,1/2+x,1/2-z
1/2+x,1/2-y,1/2-z
1/2-x,1/2+y,1/2-z
1/2-y,1/2-x,1/2+z
1/2+y,1/2+x,1/2+z
loop_
_atom_site_type_symbol
_atom_site_label
_atom_site_fract_x
_atom_site_fract_y
_atom_site_fract_z
Si Si1 0.296013 0.557168 0.897312
Si Si2 0.394707 0.252594 0.498072
Si Si3 0.182770 0.332036 0.801300
Si Si4 0.225700 0.628576 0.071912
Si Si5 0.020413 0.281475 0.210968
Si Si6 0.207454 0.656065 0.380336
Si Si7 0.139130 0.992535 0.717193
O O1 0.385495 0.614506 0.912204
O O2 0.264154 0.471295 0.931291
O O3 0.216767 0.625388 0.894764
O O4 0.306241 0.526415 0.834406
O O5 0.500000 0.261213 0.500000
O O6 0.337840 0.337840 0.477586
O O7 0.354111 0.167486 0.465552
O O8 0.373701 0.242068 0.561640
O O9 0.250139 0.250139 0.788117
O O10 0.197397 0.355016 0.865012
O O11 0.196697 0.417545 0.763074
O O12 0.080354 0.310489 0.790533
O O13 0.307316 0.692685 0.058699
O O14 0.074274 0.311071 0.158521
O O15 0.013209 0.177971 0.222410
O O16 0.280543 0.719458 0.352590
O O17 0.061605 0.061605 0.719758
O O18 0.102301 0.897700 0.700422
#
# Coordination Sequence:
#
# PCOD9560226 Si02
#       7
#    16  16  16  16  16  16  16
#     4  10  20  37  60  89 124 167 215 264 324 389
#     4  10  22  43  68  93 122 161 209 265 331 394
#     4  11  24  40  59  87 123 164 207 258 319 378
#     4  10  21  40  64  92 126 166 215 273 325 382
#     4  12  22  37  57  85 124 164 207 253 309 381
#     4  10  22  39  60  87 121 162 202 251 315 378
#     4  10  19  32  55  86 119 160 210 261 316 378
#
# _framework density 19.865265000000001
#
# number of rings (size 3 to 8) (size 9 to 14) (size 15 to 20)
#    0.000    1.571    1.429    3.857    0.000    3.000 
#    0.000    3.571    0.000    2.571    0.000    8.000 
#    0.000    0.000    0.000    0.000    0.000    0.000 
#
# Total GULP energy -311752.773690 kJ/mol
# GULP energy per Si atom -5567.013816 kJ/mol
# Density = 1.982005 g / cm^3
# Si number density = 19.865265 Si / 1000 Ang^3
#
#
#
# Elastic Constant Matrix: (Units=GPa)
#
#
# Indices 1 2 3 4 5 6 
#
# 1 120.1891 63.9644 12.5104 0.0000 0.0000 0.0000
# 2 63.9644 120.1889 12.5087 0.0000 0.0000 0.0000
# 3 12.5104 12.5087 36.2577 0.0000 0.0000 0.0000
# 4 0.0000 0.0000 0.0000 8.6946 0.0000 0.0000
# 5 0.0000 0.0000 0.0000 0.0000 8.6999 0.0000
# 6 0.0000 0.0000 0.0000 0.0000 0.0000 8.1205
#
#
#
# Elastic Compliance Matrix: (Units=1/GPa)
#
#
# Indices 1 2 3 4 5 6 
#
# 1 0.011742 -0.006044 -0.001966 0.000000 0.000000 0.000000
# 2 -0.006044 0.011742 -0.001965 0.000000 0.000000 0.000000
# 3 -0.001966 -0.001965 0.028937 0.000000 0.000000 0.000000
# 4 0.000000 0.000000 0.000000 0.115013 0.000000 0.000000
# 5 0.000000 0.000000 0.000000 0.000000 0.114944 0.000000
# 6 0.000000 0.000000 0.000000 0.000000 0.000000 0.123145
#
#
# Mechanical properties :
#
#
# Convention : Reuss Voigt Hill
#
# Bulk Modulus (GPa) = 30.79894 50.51141 40.65517
# Shear Modulus (GPa) = 11.46011 17.61316 14.53663
#
# Velocity S-wave (km/s) = 2.40446 2.98086 2.70804
# Velocity P-wave (km/s) = 4.82143 6.10980 5.50344
#
# Compressibility (1/GPa) = 0.03246865
#
# Stress axis : x y z
#
# Youngs Moduli (GPa) = 85.16717 85.16790 34.55816
#
# Poissons Ratio (x) = 0.51478 0.06794
# Poissons Ratio (y) = 0.51477 0.06792
# Poissons Ratio (z) = 0.16745 0.16738
#
# Static dielectric constant tensor:
#      x y z
#    x 1.425310 0.000000 0.000000 
#    y 0.000000 1.425090 0.000000 
#    z 0.000000 0.000000 1.753190 
# 
# From -- ./inp_files/7178.got.cif
#   From: 2010.05.17/outbox.cif.g08.bks.cpg/sg121_4_cif.got.tgz:7178.got - 2010.05.20 11:32:06.
