data_PCOD9560087
_publ_section_title
;
Structure prediction by ZEFSAII (Michael W. Deem and Ramdas Pophale) SiO2 
 PCOD9560087
Probable space group: I -4 2 M
;
_chemical_formula_sum "Si O2"
_cell_formula_units_Z 52
_cell_length_a 13.933986
_cell_length_b 13.933986
_cell_length_c 13.266061
_cell_angle_alpha 90.000000
_cell_angle_beta 90.000000
_cell_angle_gamma 90.000000
_cell_volume 2575.684886
_symmetry_space_group_name_H-M "I -4 2 M"
_symmetry_group_IT_number 121
_symmetry_cell_setting 'tetragonal'
loop_
_space_group_symop_operation_xyz
x,y,z
y,-x,-z
-x,-y,z
-y,x,-z
x,-y,-z
-x,y,-z
-y,-x,z
y,x,z
1/2+x,1/2+y,1/2+z
1/2+y,1/2-x,1/2-z
1/2-x,1/2-y,1/2+z
1/2-y,1/2+x,1/2-z
1/2+x,1/2-y,1/2-z
1/2-x,1/2+y,1/2-z
1/2-y,1/2-x,1/2+z
1/2+y,1/2+x,1/2+z
loop_
_atom_site_type_symbol
_atom_site_label
_atom_site_fract_x
_atom_site_fract_y
_atom_site_fract_z
Si Si1 0.252954 0.747046 0.424874
Si Si2 0.822027 0.397881 0.590675
Si Si3 0.500000 0.339184 0.500000
Si Si4 0.710479 0.710479 0.795620
Si Si5 0.886914 0.113087 0.511322
Si Si6 0.000000 0.500000 0.000000
O O1 0.204027 0.664413 0.491488
O O2 0.295268 0.704733 0.323345
O O3 0.170924 0.829077 0.424754
O O4 0.734495 0.473646 0.590557
O O5 0.813446 0.321513 0.679031
O O6 0.926346 0.441311 0.570949
O O7 0.409857 0.409857 0.515775
O O8 0.650045 0.650045 0.878473
O O9 0.000000 0.131290 0.500000
#
# Coordination Sequence:
#
# PCOD9560087 Si02
#       6
#     8  16   8   8   8   4
#     4  10  21  39  60  83 123 157 199 246 309 353
#     4   9  20  38  58  84 115 157 197 243 307 355
#     4  10  16  32  56  78 110 148 178 228 290 354
#     4  10  21  39  60  83 123 157 199 246 309 353
#     4   9  20  42  68  86 117 164 212 252 297 364
#     4  10  20  38  66  82 114 156 200 254 306 354
#
# _framework density 20.188804000000001
#
# number of rings (size 3 to 8) (size 9 to 14) (size 15 to 20)
#    0.000    2.769    3.077    0.000    8.615    0.000 
#   11.077    1.538    6.769    0.000    0.000    0.000 
#    0.000    0.000    0.000    0.000    0.000    0.000 
#
# Total GULP energy -144775.105666 kJ/mol
# GULP energy per Si atom -5568.273295 kJ/mol
# Density = 2.014285 g / cm^3
# Si number density = 20.188804 Si / 1000 Ang^3
#
#
#
# Elastic Constant Matrix: (Units=GPa)
#
#
# Indices 1 2 3 4 5 6 
#
# 1 124.2271 54.8917 8.3228 0.0000 0.0000 0.0000
# 2 54.8917 124.2259 8.3231 0.0000 0.0000 0.0000
# 3 8.3228 8.3231 73.7572 0.0000 0.0000 0.0000
# 4 0.0000 0.0000 0.0000 6.0112 0.0000 0.0000
# 5 0.0000 0.0000 0.0000 0.0000 6.0107 0.0000
# 6 0.0000 0.0000 0.0000 0.0000 0.0000 49.5591
#
#
#
# Elastic Compliance Matrix: (Units=1/GPa)
#
#
# Indices 1 2 3 4 5 6 
#
# 1 0.010032 -0.004390 -0.000637 0.000000 0.000000 0.000000
# 2 -0.004390 0.010032 -0.000637 0.000000 0.000000 0.000000
# 3 -0.000637 -0.000637 0.013702 0.000000 0.000000 0.000000
# 4 0.000000 0.000000 0.000000 0.166356 0.000000 0.000000
# 5 0.000000 0.000000 0.000000 0.000000 0.166371 0.000000
# 6 0.000000 0.000000 0.000000 0.000000 0.000000 0.020178
#
#
# Mechanical properties :
#
#
# Convention : Reuss Voigt Hill
#
# Bulk Modulus (GPa) = 44.56493 51.69838 48.13166
# Shear Modulus (GPa) = 12.33111 29.02769 20.67940
#
# Velocity S-wave (km/s) = 2.47410 3.79596 3.20394
# Velocity P-wave (km/s) = 5.50305 6.69892 6.13021
#
# Compressibility (1/GPa) = 0.02243917
#
# Stress axis : x y z
#
# Youngs Moduli (GPa) = 99.67732 99.67633 72.98369
#
# Poissons Ratio (x) = 0.43761 0.04646
# Poissons Ratio (y) = 0.43762 0.04647
# Poissons Ratio (z) = 0.06346 0.06346
#
# Static dielectric constant tensor:
#      x y z
#    x 1.798330 0.000000 0.000000 
#    y 0.000000 1.798340 0.000000 
#    z 0.000000 0.000000 1.684870 
# 
# From -- ./inp_files/4017.got.cif
#   From: 2010.05.17/outbox.cif.g08.bks.cpg/sg121_3_cif.got.tgz:4017.got - 2010.05.20 11:32:06.
