data_PCOD9560974
_publ_section_title
;
Structure prediction by ZEFSAII (Michael W. Deem and Ramdas Pophale) SiO2 
 PCOD9560974
Probable space group: I -4 2 D
;
_chemical_formula_sum "Si O2"
_cell_formula_units_Z 112
_cell_length_a 14.534337
_cell_length_b 14.534337
_cell_length_c 29.393155
_cell_angle_alpha 90.000000
_cell_angle_beta 90.000000
_cell_angle_gamma 90.000000
_cell_volume 6209.214404
_symmetry_space_group_name_H-M "I -4 2 D"
_symmetry_group_IT_number 122
_symmetry_cell_setting 'tetragonal'
loop_
_space_group_symop_operation_xyz
x,y,z
y,-x,-z
-x,-y,z
-y,x,-z
x,1/2-y,1/4-z
-x,1/2+y,1/4-z
-y,1/2-x,1/4+z
y,1/2+x,1/4+z
1/2+x,1/2+y,1/2+z
1/2+y,1/2-x,1/2-z
1/2-x,1/2-y,1/2+z
1/2-y,1/2+x,1/2-z
1/2+x,-y,3/4-z
1/2-x,y,3/4-z
1/2-y,-x,3/4+z
1/2+y,x,3/4+z
loop_
_atom_site_type_symbol
_atom_site_label
_atom_site_fract_x
_atom_site_fract_y
_atom_site_fract_z
Si Si1 0.897859 0.022934 0.709144
Si Si2 0.621410 0.427245 0.518707
Si Si3 0.232139 0.506981 0.146438
Si Si4 0.774466 0.171892 0.163067
Si Si5 0.672004 0.668606 0.658763
Si Si6 0.978480 0.394292 0.064271
Si Si7 0.703520 0.200951 0.009597
O O1 0.816743 0.981290 0.678909
O O2 0.869216 0.130577 0.716534
O O3 0.893202 0.981878 0.759682
O O4 0.000000 0.000000 0.691683
O O5 0.520953 0.382556 0.511345
O O6 0.651370 0.454970 0.569983
O O7 0.701487 0.357415 0.504456
O O8 0.268618 0.584074 0.111709
O O9 0.195454 0.424090 0.117221
O O10 0.774062 0.250000 0.125000
O O11 0.879421 0.141728 0.171795
O O12 0.726557 0.213574 0.207799
O O13 0.697564 0.750000 0.625000
O O14 0.562451 0.667557 0.668279
O O15 0.719689 0.672256 0.708212
O O16 0.000000 0.500000 0.078332
#
# Coordination Sequence:
#
# PCOD9560974 Si02
#       7
#    16  16  16  16  16  16  16
#     4   9  20  39  63  84 116 155 206 256 313 368
#     4  10  21  34  54  85 129 166 200 238 295 365
#     4  11  23  39  63  90 120 166 211 259 315 383
#     4  12  22  38  62  89 124 166 217 255 307 380
#     4  11  23  38  57  87 128 161 207 255 311 378
#     4  10  21  36  58  90 123 168 203 244 305 369
#     4  10  23  38  59  88 117 167 206 264 312 363
#
# _framework density 18.037709
#
# number of rings (size 3 to 8) (size 9 to 14) (size 15 to 20)
#    0.000    1.571    4.286    1.286    8.000    3.429 
#    0.000    0.000    6.286    0.000    0.000    0.000 
#    0.000    0.000    0.000    0.000    0.000    0.000 
#
# Total GULP energy -312467.246865 kJ/mol
# GULP energy per Si atom -5579.772265 kJ/mol
# Density = 1.799665 g / cm^3
# Si number density = 18.037709 Si / 1000 Ang^3
#
#
#
# Elastic Constant Matrix: (Units=GPa)
#
#
# Indices 1 2 3 4 5 6 
#
# 1 56.6672 -6.8962 24.3929 0.0000 0.0000 0.0000
# 2 -6.8962 56.6672 24.3929 0.0000 0.0000 0.0000
# 3 24.3929 24.3929 104.4029 0.0000 0.0000 0.0000
# 4 0.0000 0.0000 0.0000 6.3460 0.0000 0.0000
# 5 0.0000 0.0000 0.0000 0.0000 6.3460 0.0000
# 6 0.0000 0.0000 0.0000 0.0000 0.0000 17.6098
#
#
#
# Elastic Compliance Matrix: (Units=1/GPa)
#
#
# Indices 1 2 3 4 5 6 
#
# 1 0.020896 0.005164 -0.006089 0.000000 0.000000 0.000000
# 2 0.005164 0.020896 -0.006089 0.000000 0.000000 0.000000
# 3 -0.006089 -0.006089 0.012423 0.000000 0.000000 0.000000
# 4 0.000000 0.000000 0.000000 0.157580 0.000000 0.000000
# 5 0.000000 0.000000 0.000000 0.000000 0.157580 0.000000
# 6 0.000000 0.000000 0.000000 0.000000 0.000000 0.056786
#
#
# Mechanical properties :
#
#
# Convention : Reuss Voigt Hill
#
# Bulk Modulus (GPa) = 24.88251 33.50185 29.19218
# Shear Modulus (GPa) = 11.02329 17.78355 14.40342
#
# Velocity S-wave (km/s) = 2.47478 3.14333 2.82887
# Velocity P-wave (km/s) = 4.68942 5.63804 5.18547
#
# Compressibility (1/GPa) = 0.04018887
#
# Stress axis : x y z
#
# Youngs Moduli (GPa) = 47.85538 47.85538 80.49275
#
# Poissons Ratio (x) = -0.24712 0.49010
# Poissons Ratio (y) = -0.24712 0.49010
# Poissons Ratio (z) = 0.29138 0.29138
#
# Static dielectric constant tensor:
#      x y z
#    x 1.573860 0.000000 0.000000 
#    y 0.000000 1.573860 0.000000 
#    z 0.000000 0.000000 1.638280 
# 
# From -- ./inp_files/9675.got.cif
#   From: 2010.05.17/outbox.cif.g08.bks.cpg/sg122_5_cif.got.tgz:9675.got - 2010.05.20 11:37:33.
