data_PCOD9560760
_publ_section_title
;
Structure prediction by ZEFSAII (Michael W. Deem and Ramdas Pophale) SiO2 
 PCOD9560760
Probable space group: I -4 2 D
;
_chemical_formula_sum "Si O2"
_cell_formula_units_Z 96
_cell_length_a 16.996369
_cell_length_b 16.996369
_cell_length_c 14.038341
_cell_angle_alpha 90.000000
_cell_angle_beta 90.000000
_cell_angle_gamma 90.000000
_cell_volume 4055.347645
_symmetry_space_group_name_H-M "I -4 2 D"
_symmetry_group_IT_number 122
_symmetry_cell_setting 'tetragonal'
loop_
_space_group_symop_operation_xyz
x,y,z
y,-x,-z
-x,-y,z
-y,x,-z
x,1/2-y,1/4-z
-x,1/2+y,1/4-z
-y,1/2-x,1/4+z
y,1/2+x,1/4+z
1/2+x,1/2+y,1/2+z
1/2+y,1/2-x,1/2-z
1/2-x,1/2-y,1/2+z
1/2-y,1/2+x,1/2-z
1/2+x,-y,3/4-z
1/2-x,y,3/4-z
1/2-y,-x,3/4+z
1/2+y,x,3/4+z
loop_
_atom_site_type_symbol
_atom_site_label
_atom_site_fract_x
_atom_site_fract_y
_atom_site_fract_z
Si Si1 0.913132 0.973846 0.765972
Si Si2 0.163169 0.181635 0.827321
Si Si3 0.368082 0.605363 0.377797
Si Si4 0.701641 0.014434 0.692756
Si Si5 0.427403 0.910106 0.297539
Si Si6 0.856606 0.220980 0.365583
O O1 0.866912 0.054864 0.782198
O O2 0.925307 0.941198 0.659715
O O3 0.872102 0.907676 0.831233
O O4 0.000000 0.000000 0.797441
O O5 0.250000 0.187397 0.875000
O O6 0.088037 0.224097 0.874229
O O7 0.180068 0.195056 0.715563
O O8 0.323566 0.556194 0.459242
O O9 0.457279 0.628327 0.411407
O O10 0.332604 0.691271 0.360980
O O11 0.765951 0.944058 0.684697
O O12 0.394736 0.988512 0.250194
O O13 0.372835 0.834200 0.295233
#
# Coordination Sequence:
#
# PCOD9560760 Si02
#       6
#    16  16  16  16  16  16
#     4  11  18  30  54  83 108 144 195 250 304 339
#     4  11  18  32  53  84 124 160 186 232 300 366
#     4  10  19  30  48  87 120 144 186 235 297 363
#     4  10  19  31  52  85 125 155 186 233 300 363
#     4  10  20  37  60  80 107 143 206 262 300 332
#     4   9  21  33  54  87 115 155 192 245 292 362
#
# _framework density 23.672447999999999
#
# number of rings (size 3 to 8) (size 9 to 14) (size 15 to 20)
#    1.000    0.833    5.000    2.000    0.000    0.000 
#    0.000    0.833    0.000    4.000    8.667    0.000 
#    0.000    0.000    0.000    0.000    0.000    0.000 
#
# Total GULP energy -267451.317197 kJ/mol
# GULP energy per Si atom -5571.902442 kJ/mol
# Density = 2.361857 g / cm^3
# Si number density = 23.672448 Si / 1000 Ang^3
#
#
#
# Elastic Constant Matrix: (Units=GPa)
#
#
# Indices 1 2 3 4 5 6 
#
# 1 123.1339 7.8023 6.3500 0.0000 0.0000 0.0000
# 2 7.8023 123.1339 6.3500 0.0000 0.0000 0.0000
# 3 6.3500 6.3500 37.0683 0.0000 0.0000 0.0000
# 4 0.0000 0.0000 0.0000 27.8059 0.0000 0.0000
# 5 0.0000 0.0000 0.0000 0.0000 27.8059 0.0000
# 6 0.0000 0.0000 0.0000 0.0000 0.0000 17.4716
#
#
#
# Elastic Compliance Matrix: (Units=1/GPa)
#
#
# Indices 1 2 3 4 5 6 
#
# 1 0.008219 -0.000452 -0.001330 0.000000 0.000000 0.000000
# 2 -0.000452 0.008219 -0.001330 0.000000 0.000000 0.000000
# 3 -0.001330 -0.001330 0.027433 0.000000 0.000000 0.000000
# 4 0.000000 0.000000 0.000000 0.035964 0.000000 0.000000
# 5 0.000000 0.000000 0.000000 0.000000 0.035964 0.000000
# 6 0.000000 0.000000 0.000000 0.000000 0.000000 0.057236
#
#
# Mechanical properties :
#
#
# Convention : Reuss Voigt Hill
#
# Bulk Modulus (GPa) = 26.56464 36.03787 31.30125
# Shear Modulus (GPa) = 26.06787 32.13891 29.10339
#
# Velocity S-wave (km/s) = 3.32202 3.68863 3.51011
# Velocity P-wave (km/s) = 5.09515 5.77909 5.44786
#
# Compressibility (1/GPa) = 0.03764403
#
# Stress axis : x y z
#
# Youngs Moduli (GPa) = 121.67665 121.67665 36.45241
#
# Poissons Ratio (x) = 0.05502 0.04850
# Poissons Ratio (y) = 0.05502 0.04850
# Poissons Ratio (z) = 0.16188 0.16188
#
# Static dielectric constant tensor:
#      x y z
#    x 2.008130 0.000000 0.000000 
#    y 0.000000 2.008130 0.000000 
#    z 0.000000 0.000000 1.890570 
# 
# From -- ./inp_files/5492.got.cif
#   From: 2010.05.17/outbox.cif.g08.bks.cpg/sg122_3_cif.got.tgz:5492.got - 2010.05.20 11:37:33.
