data_PCOD9560015
_publ_section_title
;
Structure prediction by ZEFSAII (Michael W. Deem and Ramdas Pophale) SiO2 
 PCOD9560015
Probable space group: I -4 C 2
;
_chemical_formula_sum "Si O2"
_cell_formula_units_Z 60
_cell_length_a 13.433240
_cell_length_b 13.433240
_cell_length_c 14.061650
_cell_angle_alpha 90.000000
_cell_angle_beta 90.000000
_cell_angle_gamma 90.000000
_cell_volume 2537.451978
_symmetry_space_group_name_H-M "I -4 C 2"
_symmetry_group_IT_number 120
_symmetry_cell_setting 'tetragonal'
loop_
_space_group_symop_operation_xyz
x,y,z
y,-x,-z
-x,-y,z
-y,x,-z
y,x,1/2-z
-y,-x,1/2-z
-x,y,1/2+z
x,-y,1/2+z
1/2+x,1/2+y,1/2+z
1/2+y,1/2-x,1/2-z
1/2-x,1/2-y,1/2+z
1/2-y,1/2+x,1/2-z
1/2+y,1/2+x,-z
1/2-y,1/2-x,-z
1/2-x,1/2+y,z
1/2+x,1/2-y,z
loop_
_atom_site_type_symbol
_atom_site_label
_atom_site_fract_x
_atom_site_fract_y
_atom_site_fract_z
Si Si1 0.259659 0.794924 0.854413
Si Si2 0.001814 0.782791 0.077109
Si Si3 0.000000 0.000000 0.500000
Si Si4 0.838804 0.338804 0.000000
Si Si5 0.453878 0.846585 0.758036
O O1 0.209345 0.790656 0.750000
O O2 0.223247 0.699332 0.909625
O O3 0.376889 0.806075 0.835281
O O4 0.223524 0.882893 0.921854
O O5 0.022377 0.739635 0.183168
O O6 0.026876 0.898401 0.057602
O O7 0.048828 0.702143 0.003291
O O8 0.558896 0.894953 0.788963
#
# Coordination Sequence:
#
# PCOD9560015 Si02
#       5
#    16  16   4   8  16
#     4  11  23  45  71 106 145 195 247 314 386 458
#     4  11  24  45  71 102 150 195 250 314 376 467
#     4  12  24  48  70 112 152 202 252 308 390 464
#     4  12  24  44  70 104 148 192 250 314 374 462
#     4   9  20  42  72 102 133 181 246 310 374 447
#
# _framework density 23.645766999999999
#
# number of rings (size 3 to 8) (size 9 to 14) (size 15 to 20)
#    0.000    1.333    5.333    0.000    0.000    2.133 
#   14.400    0.000    0.000    0.000    0.000    0.000 
#    0.000    0.000    0.000    0.000    0.000    0.000 
#
# Total GULP energy -167314.500108 kJ/mol
# GULP energy per Si atom -5577.150004 kJ/mol
# Density = 2.359195 g / cm^3
# Si number density = 23.645767 Si / 1000 Ang^3
#
#
#
# Elastic Constant Matrix: (Units=GPa)
#
#
# Indices 1 2 3 4 5 6 
#
# 1 125.2730 21.9401 27.5063 0.0000 0.0000 0.0000
# 2 21.9401 125.2728 27.5063 0.0000 0.0000 0.0000
# 3 27.5063 27.5063 52.5720 0.0000 0.0000 0.0000
# 4 0.0000 0.0000 0.0000 32.9527 0.0000 0.0000
# 5 0.0000 0.0000 0.0000 0.0000 32.9528 0.0000
# 6 0.0000 0.0000 0.0000 0.0000 0.0000 32.6132
#
#
#
# Elastic Compliance Matrix: (Units=1/GPa)
#
#
# Indices 1 2 3 4 5 6 
#
# 1 0.009061 -0.000617 -0.004418 0.000000 0.000000 0.000000
# 2 -0.000617 0.009061 -0.004418 0.000000 0.000000 0.000000
# 3 -0.004418 -0.004418 0.023645 0.000000 0.000000 0.000000
# 4 0.000000 0.000000 0.000000 0.030347 0.000000 0.000000
# 5 0.000000 0.000000 0.000000 0.000000 0.030346 0.000000
# 6 0.000000 0.000000 0.000000 0.000000 0.000000 0.030662
#
#
# Mechanical properties :
#
#
# Convention : Reuss Voigt Hill
#
# Bulk Modulus (GPa) = 43.74348 50.78037 47.26192
# Shear Modulus (GPa) = 31.31914 34.78140 33.05027
#
# Velocity S-wave (km/s) = 3.64333 3.83944 3.74267
# Velocity P-wave (km/s) = 6.01982 6.41694 6.22155
#
# Compressibility (1/GPa) = 0.02286055
#
# Stress axis : x y z
#
# Youngs Moduli (GPa) = 110.36748 110.36727 42.29301
#
# Poissons Ratio (x) = 0.06808 0.18685
# Poissons Ratio (y) = 0.06808 0.18685
# Poissons Ratio (z) = 0.48759 0.48759
#
# Static dielectric constant tensor:
#      x y z
#    x 1.968080 0.000000 0.000000 
#    y 0.000000 1.968070 0.000000 
#    z 0.000000 0.000000 1.904840 
# 
# From -- ./inp_files/3328.got.cif
#   From: 2010.05.17/outbox.cif.g08.bks.cpg/sg120_2_cif.got.tgz:3328.got - 2010.05.20 11:28:13.
