data_PCOD9560213
_publ_section_title
;
Structure prediction by ZEFSAII (Michael W. Deem and Ramdas Pophale) SiO2 
 PCOD9560213
Probable space group: I -4 2 M
;
_chemical_formula_sum "Si O2"
_cell_formula_units_Z 104
_cell_length_a 19.449940
_cell_length_b 19.449940
_cell_length_c 15.599252
_cell_angle_alpha 90.000000
_cell_angle_beta 90.000000
_cell_angle_gamma 90.000000
_cell_volume 5901.199621
_symmetry_space_group_name_H-M "I -4 2 M"
_symmetry_group_IT_number 121
_symmetry_cell_setting 'tetragonal'
loop_
_space_group_symop_operation_xyz
x,y,z
y,-x,-z
-x,-y,z
-y,x,-z
x,-y,-z
-x,y,-z
-y,-x,z
y,x,z
1/2+x,1/2+y,1/2+z
1/2+y,1/2-x,1/2-z
1/2-x,1/2-y,1/2+z
1/2-y,1/2+x,1/2-z
1/2+x,1/2-y,1/2-z
1/2-x,1/2+y,1/2-z
1/2-y,1/2-x,1/2+z
1/2+y,1/2+x,1/2+z
loop_
_atom_site_type_symbol
_atom_site_label
_atom_site_fract_x
_atom_site_fract_y
_atom_site_fract_z
Si Si1 0.855571 0.262342 0.479736
Si Si2 0.348679 0.230426 0.388824
Si Si3 0.000000 0.187971 0.500000
Si Si4 0.302234 0.816035 0.291118
Si Si5 0.686232 0.428323 0.484770
Si Si6 0.503880 0.386706 0.818821
Si Si7 0.911896 0.206360 0.790816
O O1 0.802366 0.197635 0.479076
O O2 0.828918 0.312988 0.554332
O O3 0.849203 0.297921 0.385628
O O4 0.931062 0.233675 0.499084
O O5 0.291153 0.291153 0.386732
O O6 0.363739 0.213229 0.290360
O O7 0.412690 0.258170 0.442747
O O8 0.004044 0.140750 0.584379
O O9 0.243378 0.756622 0.294015
O O10 0.372391 0.775921 0.266450
O O11 0.649814 0.500000 0.500000
O O12 0.632652 0.367349 0.487209
O O13 0.716281 0.428630 0.390161
O O14 0.576902 0.423099 0.797124
O O15 0.446697 0.446697 0.811423
O O16 0.476900 0.323710 0.760403
O O17 0.853858 0.146143 0.783800
#
# Coordination Sequence:
#
# PCOD9560213 Si02
#       7
#    16  16   8  16  16  16  16
#     4  10  19  32  50  73 102 138 177 221 277 332
#     4   9  17  32  52  73  97 131 176 226 277 323
#     4  12  22  31  46  74 109 140 176 226 272 330
#     4   9  16  29  52  74  95 129 177 232 281 317
#     4  10  20  33  50  73 104 139 177 218 261 316
#     4  10  20  32  46  66 101 150 190 217 259 327
#     4   9  17  32  50  69  97 137 182 225 266 311
#
# _framework density 17.623536000000001
#
# number of rings (size 3 to 8) (size 9 to 14) (size 15 to 20)
#    0.000    2.308    1.538    2.308    0.000    5.077 
#    0.000    3.077    0.000    0.000    0.000    0.538 
#    0.000    0.000    1.846    0.000    0.000    0.000 
#
# Total GULP energy -289663.162662 kJ/mol
# GULP energy per Si atom -5570.445436 kJ/mol
# Density = 1.758342 g / cm^3
# Si number density = 17.623536 Si / 1000 Ang^3
#
#
#
# Elastic Constant Matrix: (Units=GPa)
#
#
# Indices 1 2 3 4 5 6 
#
# 1 37.1533 16.0235 7.7751 0.0000 0.0000 0.0000
# 2 16.0235 37.1540 7.7746 0.0000 0.0000 0.0000
# 3 7.7751 7.7746 57.9643 0.0000 0.0000 0.0000
# 4 0.0000 0.0000 0.0000 17.0181 0.0000 0.0000
# 5 0.0000 0.0000 0.0000 0.0000 17.0182 0.0000
# 6 0.0000 0.0000 0.0000 0.0000 0.0000 174.3737
#
#
#
# Elastic Compliance Matrix: (Units=1/GPa)
#
#
# Indices 1 2 3 4 5 6 
#
# 1 0.033450 -0.013877 -0.002626 0.000000 0.000000 0.000000
# 2 -0.013877 0.033449 -0.002625 0.000000 0.000000 0.000000
# 3 -0.002626 -0.002625 0.017956 0.000000 0.000000 0.000000
# 4 0.000000 0.000000 0.000000 0.058761 0.000000 0.000000
# 5 0.000000 0.000000 0.000000 0.000000 0.058761 0.000000
# 6 0.000000 0.000000 0.000000 0.000000 0.000000 0.005735
#
#
# Mechanical properties :
#
#
# Convention : Reuss Voigt Hill
#
# Bulk Modulus (GPa) = 21.45900 21.71310 21.58605
# Shear Modulus (GPa) = 19.09132 48.39522 33.74327
#
# Velocity S-wave (km/s) = 3.29490 5.24597 4.38044
# Velocity P-wave (km/s) = 5.16507 7.00292 6.15300
#
# Compressibility (1/GPa) = 0.04660050
#
# Stress axis : x y z
#
# Youngs Moduli (GPa) = 29.89569 29.89635 55.69084
#
# Poissons Ratio (x) = 0.41486 0.14622
# Poissons Ratio (y) = 0.41485 0.14619
# Poissons Ratio (z) = 0.07849 0.07848
#
# Static dielectric constant tensor:
#      x y z
#    x 1.613310 0.000000 0.000000 
#    y 0.000000 1.613310 0.000000 
#    z 0.000000 0.000000 1.643320 
# 
# From -- ./inp_files/4566.got.cif
#   From: 2010.05.17/outbox.cif.g08.bks.cpg/sg121_3_cif.got.tgz:4566.got - 2010.05.20 11:32:06.
