data_PCOD9560415
_publ_section_title
;
Structure prediction by ZEFSAII (Michael W. Deem and Ramdas Pophale) SiO2 
 PCOD9560415
Probable space group: I -4 2 M
;
_chemical_formula_sum "Si O2"
_cell_formula_units_Z 64
_cell_length_a 17.063381
_cell_length_b 17.063381
_cell_length_c 13.068024
_cell_angle_alpha 90.000000
_cell_angle_beta 90.000000
_cell_angle_gamma 90.000000
_cell_volume 3804.872423
_symmetry_space_group_name_H-M "I -4 2 M"
_symmetry_group_IT_number 121
_symmetry_cell_setting 'tetragonal'
loop_
_space_group_symop_operation_xyz
x,y,z
y,-x,-z
-x,-y,z
-y,x,-z
x,-y,-z
-x,y,-z
-y,-x,z
y,x,z
1/2+x,1/2+y,1/2+z
1/2+y,1/2-x,1/2-z
1/2-x,1/2-y,1/2+z
1/2-y,1/2+x,1/2-z
1/2+x,1/2-y,1/2-z
1/2-x,1/2+y,1/2-z
1/2-y,1/2-x,1/2+z
1/2+y,1/2+x,1/2+z
loop_
_atom_site_type_symbol
_atom_site_label
_atom_site_fract_x
_atom_site_fract_y
_atom_site_fract_z
Si Si1 0.558274 0.689202 0.908291
Si Si2 0.911792 0.780768 0.966628
Si Si3 0.215969 0.914877 0.274262
Si Si4 0.205041 0.338800 0.040636
O O1 0.624270 0.624270 0.890512
O O2 0.503508 0.702324 0.810903
O O3 0.500000 0.662899 0.000000
O O4 0.600192 0.767046 0.953337
O O5 0.854538 0.854538 0.988262
O O6 0.876378 0.704130 0.021773
O O7 0.908445 0.766080 0.844805
O O8 0.000000 0.797024 0.000000
O O9 0.137922 0.862079 0.293670
O O10 0.281732 0.879481 0.349908
O O11 0.269678 0.269678 0.034886
#
# Coordination Sequence:
#
# PCOD9560415 Si02
#       4
#    16  16  16  16
#     4   9  16  27  47  74 100 127 160 201 246 285
#     4  10  21  35  50  71  99 129 161 197 240 292
#     4   9  18  31  48  73 102 129 160 199 239 284
#     4   8  16  32  51  70  94 126 167 209 240 273
#
# _framework density 16.820539
#
# number of rings (size 3 to 8) (size 9 to 14) (size 15 to 20)
#    0.000    3.000    0.000    2.250    0.000    5.000 
#    0.000    7.500    0.000    6.750    0.000   10.500 
#    0.000    0.000    0.000    0.000    0.000    0.000 
#
# Total GULP energy -178218.165485 kJ/mol
# GULP energy per Si atom -5569.317671 kJ/mol
# Density = 1.678225 g / cm^3
# Si number density = 16.820539 Si / 1000 Ang^3
#
#
#
# Elastic Constant Matrix: (Units=GPa)
#
#
# Indices 1 2 3 4 5 6 
#
# 1 65.0002 66.9340 36.4164 0.0000 0.0000 0.0000
# 2 66.9340 65.0002 36.4180 0.0000 0.0000 0.0000
# 3 36.4164 36.4180 50.5941 0.0000 0.0000 0.0000
# 4 0.0000 0.0000 0.0000 17.2168 0.0000 0.0000
# 5 0.0000 0.0000 0.0000 0.0000 17.2173 0.0000
# 6 0.0000 0.0000 0.0000 0.0000 0.0000 17.7890
#
#
#
# Elastic Compliance Matrix: (Units=1/GPa)
#
#
# Indices 1 2 3 4 5 6 
#
# 1 -0.252259 0.264844 -0.009066 0.000000 0.000000 0.000000
# 2 0.264844 -0.252274 -0.009040 0.000000 0.000000 0.000000
# 3 -0.009066 -0.009040 0.032798 0.000000 0.000000 0.000000
# 4 0.000000 0.000000 0.000000 0.058083 0.000000 0.000000
# 5 0.000000 0.000000 0.000000 0.000000 0.058081 0.000000
# 6 0.000000 0.000000 0.000000 0.000000 0.000000 0.056215
#
#
# Mechanical properties :
#
#
# Convention : Reuss Voigt Hill
#
# Bulk Modulus (GPa) = 45.99772 51.12570 48.56171
# Shear Modulus (GPa) = -6.36466 13.16636 3.40085
#
# Velocity S-wave (km/s) = -1.94733 2.80081 1.42346
# Velocity P-wave (km/s) = 4.72752 6.39689 5.62448
#
# Compressibility (1/GPa) = 0.02174021
#
# Stress axis : x y z
#
# Youngs Moduli (GPa) = -3.96417 -3.96394 30.48991
#
# Poissons Ratio (x) = 1.04983 0.27643
# Poissons Ratio (y) = 1.04989 0.27562
# Poissons Ratio (z) = -0.03594 -0.03583
#
# Static dielectric constant tensor:
#      x y z
#    x 1.565900 0.000000 0.000000 
#    y 0.000000 1.565910 0.000000 
#    z 0.000000 0.000000 1.575760 
# 
# From -- ./inp_files/2889.got.cif
#   From: 2010.05.17/outbox.cif.g08.bks.cpg/sg121_2_cif.got.tgz:2889.got - 2010.05.20 11:32:06.
