data_PCOD9560339
_publ_section_title
;
Structure prediction by ZEFSAII (Michael W. Deem and Ramdas Pophale) SiO2 
 PCOD9560339
Probable space group: I -4 2 M
;
_chemical_formula_sum "Si O2"
_cell_formula_units_Z 96
_cell_length_a 14.086283
_cell_length_b 14.086283
_cell_length_c 21.693482
_cell_angle_alpha 90.000000
_cell_angle_beta 90.000000
_cell_angle_gamma 90.000000
_cell_volume 4304.493778
_symmetry_space_group_name_H-M "I -4 2 M"
_symmetry_group_IT_number 121
_symmetry_cell_setting 'tetragonal'
loop_
_space_group_symop_operation_xyz
x,y,z
y,-x,-z
-x,-y,z
-y,x,-z
x,-y,-z
-x,y,-z
-y,-x,z
y,x,z
1/2+x,1/2+y,1/2+z
1/2+y,1/2-x,1/2-z
1/2-x,1/2-y,1/2+z
1/2-y,1/2+x,1/2-z
1/2+x,1/2-y,1/2-z
1/2-x,1/2+y,1/2-z
1/2-y,1/2-x,1/2+z
1/2+y,1/2+x,1/2+z
loop_
_atom_site_type_symbol
_atom_site_label
_atom_site_fract_x
_atom_site_fract_y
_atom_site_fract_z
Si Si1 0.417760 0.254603 0.947469
Si Si2 0.625315 0.906324 0.743019
Si Si3 0.230041 0.614071 0.507284
Si Si4 0.220752 0.626991 0.367804
Si Si5 0.505669 0.344524 0.830176
Si Si6 0.290725 0.560845 0.690364
O O1 0.342254 0.342254 0.957419
O O2 0.468649 0.271757 0.881643
O O3 0.500000 0.254345 0.000000
O O4 0.353004 0.158853 0.950491
O O5 0.519402 0.875824 0.757646
O O6 0.649049 0.865305 0.676832
O O7 0.700817 0.873298 0.793428
O O8 0.239892 0.500000 0.500000
O O9 0.328515 0.671486 0.520269
O O10 0.199141 0.644272 0.438338
O O11 0.306771 0.693230 0.348022
O O12 0.256429 0.520125 0.355403
O O13 0.604773 0.395228 0.849386
O O14 0.425976 0.425976 0.829296
O O15 0.519659 0.315396 0.758558
O O16 0.379338 0.620663 0.667617
#
# Coordination Sequence:
#
# PCOD9560339 Si02
#       6
#    16  16  16  16  16  16
#     4  10  21  38  61  92 126 165 210 259 317 389
#     4   9  19  37  55  84 120 160 196 239 292 369
#     4  10  24  46  66  89 121 166 223 278 325 376
#     4  10  21  39  64  87 116 158 204 256 314 370
#     4   9  18  33  56  90 130 166 202 255 321 388
#     4  10  20  35  59  92 125 159 200 249 311 378
#
# _framework density 22.302275000000002
#
# number of rings (size 3 to 8) (size 9 to 14) (size 15 to 20)
#    0.000    2.333    0.000    1.500    2.333    3.000 
#   15.000    1.667    0.000    0.000    0.000    0.000 
#    0.000    0.000    0.000    0.000    0.000    0.000 
#
# Total GULP energy -267975.253350 kJ/mol
# GULP energy per Si atom -5582.817778 kJ/mol
# Density = 2.225151 g / cm^3
# Si number density = 22.302275 Si / 1000 Ang^3
#
#
#
# Elastic Constant Matrix: (Units=GPa)
#
#
# Indices 1 2 3 4 5 6 
#
# 1 76.2549 33.3291 13.7028 0.0000 0.0000 0.0000
# 2 33.3291 76.2639 13.7061 0.0000 0.0000 0.0000
# 3 13.7028 13.7061 82.4119 0.0000 0.0000 0.0000
# 4 0.0000 0.0000 0.0000 30.2670 0.0000 0.0000
# 5 0.0000 0.0000 0.0000 0.0000 30.2671 0.0000
# 6 0.0000 0.0000 0.0000 0.0000 0.0000 27.1329
#
#
#
# Elastic Compliance Matrix: (Units=1/GPa)
#
#
# Indices 1 2 3 4 5 6 
#
# 1 0.016408 -0.006886 -0.001583 0.000000 0.000000 0.000000
# 2 -0.006886 0.016406 -0.001584 0.000000 0.000000 0.000000
# 3 -0.001583 -0.001584 0.012661 0.000000 0.000000 0.000000
# 4 0.000000 0.000000 0.000000 0.033039 0.000000 0.000000
# 5 0.000000 0.000000 0.000000 0.000000 0.033039 0.000000
# 6 0.000000 0.000000 0.000000 0.000000 0.000000 0.036856
#
#
# Mechanical properties :
#
#
# Convention : Reuss Voigt Hill
#
# Bulk Modulus (GPa) = 39.41707 39.60074 39.50891
# Shear Modulus (GPa) = 28.25311 29.14625 28.69968
#
# Velocity S-wave (km/s) = 3.56311 3.61899 3.59116
# Velocity P-wave (km/s) = 5.88558 5.93782 5.91176
#
# Compressibility (1/GPa) = 0.02536972
#
# Stress axis : x y z
#
# Youngs Moduli (GPa) = 60.94514 60.95172 78.98435
#
# Poissons Ratio (x) = 0.41973 0.12503
# Poissons Ratio (y) = 0.41969 0.12508
# Poissons Ratio (z) = 0.09647 0.09652
#
# Static dielectric constant tensor:
#      x y z
#    x 1.872310 0.000000 0.000000 
#    y 0.000000 1.872310 0.000000 
#    z 0.000000 0.000000 1.781000 
# 
# From -- ./inp_files/6424.got.cif
#   From: 2010.05.17/outbox.cif.g08.bks.cpg/sg121_4_cif.got.tgz:6424.got - 2010.05.20 11:32:06.
