data_PCOD9560889
_publ_section_title
;
Structure prediction by ZEFSAII (Michael W. Deem and Ramdas Pophale) SiO2 
 PCOD9560889
Probable space group: I -4 2 D
;
_chemical_formula_sum "Si O2"
_cell_formula_units_Z 96
_cell_length_a 20.815021
_cell_length_b 20.815021
_cell_length_c 9.022892
_cell_angle_alpha 90.000000
_cell_angle_beta 90.000000
_cell_angle_gamma 90.000000
_cell_volume 3909.304198
_symmetry_space_group_name_H-M "I -4 2 D"
_symmetry_group_IT_number 122
_symmetry_cell_setting 'tetragonal'
loop_
_space_group_symop_operation_xyz
x,y,z
y,-x,-z
-x,-y,z
-y,x,-z
x,1/2-y,1/4-z
-x,1/2+y,1/4-z
-y,1/2-x,1/4+z
y,1/2+x,1/4+z
1/2+x,1/2+y,1/2+z
1/2+y,1/2-x,1/2-z
1/2-x,1/2-y,1/2+z
1/2-y,1/2+x,1/2-z
1/2+x,-y,3/4-z
1/2-x,y,3/4-z
1/2-y,-x,3/4+z
1/2+y,x,3/4+z
loop_
_atom_site_type_symbol
_atom_site_label
_atom_site_fract_x
_atom_site_fract_y
_atom_site_fract_z
Si Si1 0.880068 0.153308 0.255581
Si Si2 0.444836 0.181441 0.194134
Si Si3 0.557429 0.327460 0.253686
Si Si4 0.512379 0.769918 0.468662
Si Si5 0.191817 0.741046 0.455701
Si Si6 0.574205 0.075694 0.768828
O O1 0.875179 0.093398 0.367330
O O2 0.946144 0.192259 0.253077
O O3 0.827941 0.201600 0.336247
O O4 0.880323 0.118290 0.092005
O O5 0.423138 0.250000 0.125000
O O6 0.439935 0.188982 0.368171
O O7 0.520001 0.174861 0.150465
O O8 0.509196 0.290530 0.367309
O O9 0.624232 0.292035 0.264342
O O10 0.571813 0.396720 0.316658
O O11 0.539831 0.750000 0.625000
O O12 0.215486 0.750000 0.625000
O O13 0.250000 0.705405 0.375000
O O14 0.499946 0.085724 0.719971
#
# Coordination Sequence:
#
# PCOD9560889 Si02
#       6
#    16  16  16  16  16  16
#     4  11  22  43  68 100 142 186 238 300 373 445
#     4  10  21  41  67  95 137 187 235 294 359 439
#     4  10  20  42  68  91 141 187 231 292 369 431
#     4  10  20  37  65  97 129 186 237 289 356 430
#     4  11  26  45  71 103 143 192 243 309 380 449
#     4  11  23  41  71 110 144 190 247 307 374 454
#
# _framework density 24.556801
#
# number of rings (size 3 to 8) (size 9 to 14) (size 15 to 20)
#    0.000    1.500    3.333    3.000    2.333    0.000 
#    6.000    0.833    3.667    0.000    0.000    0.000 
#    0.000    0.000    0.000    0.000    0.000    0.000 
#
# Total GULP energy -267856.094921 kJ/mol
# GULP energy per Si atom -5580.335311 kJ/mol
# Density = 2.450091 g / cm^3
# Si number density = 24.556801 Si / 1000 Ang^3
#
#
#
# Elastic Constant Matrix: (Units=GPa)
#
#
# Indices 1 2 3 4 5 6 
#
# 1 79.5017 13.9940 23.0510 0.0000 0.0000 0.0000
# 2 13.9940 79.5017 23.0510 0.0000 0.0000 0.0000
# 3 23.0510 23.0510 121.6591 0.0000 0.0000 0.0000
# 4 0.0000 0.0000 0.0000 37.0625 0.0000 0.0000
# 5 0.0000 0.0000 0.0000 0.0000 37.0625 0.0000
# 6 0.0000 0.0000 0.0000 0.0000 0.0000 5.5832
#
#
#
# Elastic Compliance Matrix: (Units=1/GPa)
#
#
# Indices 1 2 3 4 5 6 
#
# 1 0.013532 -0.001734 -0.002235 0.000000 0.000000 0.000000
# 2 -0.001734 0.013532 -0.002235 0.000000 0.000000 0.000000
# 3 -0.002235 -0.002235 0.009067 0.000000 0.000000 0.000000
# 4 0.000000 0.000000 0.000000 0.026981 0.000000 0.000000
# 5 0.000000 0.000000 0.000000 0.000000 0.026981 0.000000
# 6 0.000000 0.000000 0.000000 0.000000 0.000000 0.179107
#
#
# Mechanical properties :
#
#
# Convention : Reuss Voigt Hill
#
# Bulk Modulus (GPa) = 42.15654 44.53938 43.34796
# Shear Modulus (GPa) = 17.27017 30.64607 23.95812
#
# Velocity S-wave (km/s) = 2.65481 3.53649 3.12688
# Velocity P-wave (km/s) = 5.15767 5.90359 5.54319
#
# Compressibility (1/GPa) = 0.02372111
#
# Stress axis : x y z
#
# Youngs Moduli (GPa) = 73.90080 73.90080 110.29291
#
# Poissons Ratio (x) = 0.12812 0.24655
# Poissons Ratio (y) = 0.12812 0.24655
# Poissons Ratio (z) = 0.16520 0.16520
#
# Static dielectric constant tensor:
#      x y z
#    x 1.974100 0.000000 0.000000 
#    y 0.000000 1.974100 0.000000 
#    z 0.000000 0.000000 2.073540 
# 
# From -- ./inp_files/2879.got.cif
#   From: 2010.05.17/outbox.cif.g08.bks.cpg/sg122_2_cif.got.tgz:2879.got - 2010.05.20 11:37:33.
