data_PCOD9560106
_publ_section_title
;
Structure prediction by ZEFSAII (Michael W. Deem and Ramdas Pophale) SiO2 
 PCOD9560106
Probable space group: I -4 2 M
;
_chemical_formula_sum "Si O2"
_cell_formula_units_Z 80
_cell_length_a 31.148651
_cell_length_b 31.148651
_cell_length_c 5.483240
_cell_angle_alpha 90.000000
_cell_angle_beta 90.000000
_cell_angle_gamma 90.000000
_cell_volume 5320.050329
_symmetry_space_group_name_H-M "I -4 2 M"
_symmetry_group_IT_number 121
_symmetry_cell_setting 'tetragonal'
loop_
_space_group_symop_operation_xyz
x,y,z
y,-x,-z
-x,-y,z
-y,x,-z
x,-y,-z
-x,y,-z
-y,-x,z
y,x,z
1/2+x,1/2+y,1/2+z
1/2+y,1/2-x,1/2-z
1/2-x,1/2-y,1/2+z
1/2-y,1/2+x,1/2-z
1/2+x,1/2-y,1/2-z
1/2-x,1/2+y,1/2-z
1/2-y,1/2-x,1/2+z
1/2+y,1/2+x,1/2+z
loop_
_atom_site_type_symbol
_atom_site_label
_atom_site_fract_x
_atom_site_fract_y
_atom_site_fract_z
Si Si1 0.337831 0.913019 0.107082
Si Si2 0.278715 0.160552 0.012488
Si Si3 0.441756 0.072148 0.878043
Si Si4 0.455925 0.828953 0.108931
Si Si5 0.677095 0.252077 0.987144
O O1 0.389336 0.919910 0.110261
O O2 0.322868 0.923174 0.382638
O O3 0.322399 0.865800 0.032519
O O4 0.317905 0.941599 0.884834
O O5 0.291190 0.210644 0.027009
O O6 0.256579 0.149783 0.269109
O O7 0.249689 0.153658 0.773593
O O8 0.449537 0.047188 0.631076
O O9 0.461294 0.119444 0.865882
O O10 0.500000 0.810745 0.000000
O O11 0.705746 0.294255 0.013255
#
# Coordination Sequence:
#
# PCOD9560106 Si02
#       5
#    16  16  16  16  16
#     4  10  19  28  42  58  70  89 122 144 163 210
#     4  10  18  25  41  52  72  94 123 142 168 185
#     4   8  16  25  39  52  70  79 108 131 160 193
#     4  10  19  29  39  53  77  92 105 137 184 212
#     4  10  19  27  37  55  79  99 119 139 172 194
#
# _framework density 15.037452
#
# number of rings (size 3 to 8) (size 9 to 14) (size 15 to 20)
#    0.000    2.400    0.000    4.800   16.800    0.000 
#    0.000    0.000    0.000    0.000    0.000    0.000 
#    0.000  194.400    0.000    0.000    0.000    0.000 
#
# Total GULP energy -222782.848709 kJ/mol
# GULP energy per Si atom -5569.571218 kJ/mol
# Density = 1.500323 g / cm^3
# Si number density = 15.037452 Si / 1000 Ang^3
#
#
#
# Elastic Constant Matrix: (Units=GPa)
#
#
# Indices 1 2 3 4 5 6 
#
# 1 -1.4590 21.8231 0.5539 0.0000 0.0000 0.0000
# 2 21.8231 -1.4480 0.5479 0.0000 0.0000 0.0000
# 3 0.5539 0.5479 133.8685 0.0000 0.0000 0.0000
# 4 0.0000 0.0000 0.0000 13.4961 0.0000 0.0000
# 5 0.0000 0.0000 0.0000 0.0000 13.4961 0.0000
# 6 0.0000 0.0000 0.0000 0.0000 0.0000 0.4527
#
#
#
# Elastic Compliance Matrix: (Units=1/GPa)
#
#
# Indices 1 2 3 4 5 6 
#
# 1 0.003059 0.046033 -0.000201 0.000000 0.000000 0.000000
# 2 0.046033 0.003083 -0.000203 0.000000 0.000000 0.000000
# 3 -0.000201 -0.000203 0.007472 0.000000 0.000000 0.000000
# 4 0.000000 0.000000 0.000000 0.074095 0.000000 0.000000
# 5 0.000000 0.000000 0.000000 0.000000 0.074096 0.000000
# 6 0.000000 0.000000 0.000000 0.000000 0.000000 2.208979
#
#
# Mechanical properties :
#
#
# Convention : Reuss Voigt Hill
#
# Bulk Modulus (GPa) = 9.53555 19.64570 14.59063
# Shear Modulus (GPa) = 2.16031 12.69141 7.42586
#
# Velocity S-wave (km/s) = 1.19989 2.90830 2.22463
# Velocity P-wave (km/s) = 2.87656 4.93664 4.04012
#
# Compressibility (1/GPa) = 0.10487068
#
# Stress axis : x y z
#
# Youngs Moduli (GPa) = 326.86561 324.38483 133.83866
#
# Poissons Ratio (x) = -14.93227 0.02691
# Poissons Ratio (y) = -15.04647 0.02718
# Poissons Ratio (z) = 0.06572 0.06588
#
# Static dielectric constant tensor:
#      x y z
#    x 1.511450 0.000000 0.000000 
#    y 0.000000 1.511450 0.000000 
#    z 0.000000 0.000000 1.649940 
# 
# From -- ./inp_files/626.got.cif
#   From: 2010.05.17/outbox.cif.g08.bks.cpg/sg121_1_cif.got.tgz:626.got - 2010.05.20 11:32:06.
