data_PCOD9560130
_publ_section_title
;
Structure prediction by ZEFSAII (Michael W. Deem and Ramdas Pophale) SiO2 
 PCOD9560130
Probable space group: I -4 2 M
;
_chemical_formula_sum "Si O2"
_cell_formula_units_Z 96
_cell_length_a 13.667870
_cell_length_b 13.667870
_cell_length_c 21.276795
_cell_angle_alpha 90.000000
_cell_angle_beta 90.000000
_cell_angle_gamma 90.000000
_cell_volume 3974.732337
_symmetry_space_group_name_H-M "I -4 2 M"
_symmetry_group_IT_number 121
_symmetry_cell_setting 'tetragonal'
loop_
_space_group_symop_operation_xyz
x,y,z
y,-x,-z
-x,-y,z
-y,x,-z
x,-y,-z
-x,y,-z
-y,-x,z
y,x,z
1/2+x,1/2+y,1/2+z
1/2+y,1/2-x,1/2-z
1/2-x,1/2-y,1/2+z
1/2-y,1/2+x,1/2-z
1/2+x,1/2-y,1/2-z
1/2-x,1/2+y,1/2-z
1/2-y,1/2-x,1/2+z
1/2+y,1/2+x,1/2+z
loop_
_atom_site_type_symbol
_atom_site_label
_atom_site_fract_x
_atom_site_fract_y
_atom_site_fract_z
Si Si1 0.146917 0.314082 0.767648
Si Si2 0.263856 0.573083 0.127190
Si Si3 0.674473 0.158556 0.507655
Si Si4 0.841304 0.009605 0.803184
Si Si5 0.862985 0.299624 0.367969
Si Si6 0.802165 0.959272 0.934914
O O1 0.230073 0.230073 0.766509
O O2 0.182483 0.383615 0.824233
O O3 0.046797 0.253988 0.778827
O O4 0.140765 0.358568 0.697462
O O5 0.361200 0.638801 0.134341
O O6 0.270808 0.458001 0.138130
O O7 0.228633 0.586462 0.055147
O O8 0.748823 0.251178 0.501963
O O9 0.650454 0.128687 0.436419
O O10 0.581409 0.196887 0.546493
O O11 0.928714 0.928714 0.798279
O O12 0.814883 0.029289 0.876356
O O13 0.890469 0.109532 0.777000
O O14 0.767902 0.232099 0.369451
O O15 0.865062 0.865062 0.915245
O O16 0.842605 0.000000 0.000000
#
# Coordination Sequence:
#
# PCOD9560130 Si02
#       6
#    16  16  16  16  16  16
#     4   9  18  35  54  78 117 160 196 236 298 374
#     4  10  19  36  62  85 114 158 198 241 308 375
#     4   9  18  35  56  79 112 158 201 239 293 364
#     4   9  16  28  49  77 111 151 192 236 289 353
#     4  10  21  36  58  88 117 147 199 259 302 357
#     4  10  18  30  50  79 114 147 186 238 294 356
#
# _framework density 24.152567999999999
#
# number of rings (size 3 to 8) (size 9 to 14) (size 15 to 20)
#    0.000    2.500    1.667    1.000    0.000    1.833 
#    3.000    1.667    0.000    7.500    0.000    0.000 
#    0.000    0.000    0.000    0.000    0.000    0.000 
#
# Total GULP energy -267773.708925 kJ/mol
# GULP energy per Si atom -5578.618936 kJ/mol
# Density = 2.409760 g / cm^3
# Si number density = 24.152568 Si / 1000 Ang^3
#
#
#
# Elastic Constant Matrix: (Units=GPa)
#
#
# Indices 1 2 3 4 5 6 
#
# 1 53.6961 18.2922 18.3663 0.0000 0.0000 0.0000
# 2 18.2922 53.6944 18.3662 0.0000 0.0000 0.0000
# 3 18.3663 18.3662 177.2799 0.0000 0.0000 0.0000
# 4 0.0000 0.0000 0.0000 26.3893 0.0000 0.0000
# 5 0.0000 0.0000 0.0000 0.0000 26.3892 0.0000
# 6 0.0000 0.0000 0.0000 0.0000 0.0000 15.7826
#
#
#
# Elastic Compliance Matrix: (Units=1/GPa)
#
#
# Indices 1 2 3 4 5 6 
#
# 1 0.021456 -0.006790 -0.001519 0.000000 0.000000 0.000000
# 2 -0.006790 0.021457 -0.001519 0.000000 0.000000 0.000000
# 3 -0.001519 -0.001519 0.005956 0.000000 0.000000 0.000000
# 4 0.000000 0.000000 0.000000 0.037894 0.000000 0.000000
# 5 0.000000 0.000000 0.000000 0.000000 0.037894 0.000000
# 6 0.000000 0.000000 0.000000 0.000000 0.000000 0.063361
#
#
# Mechanical properties :
#
#
# Convention : Reuss Voigt Hill
#
# Bulk Modulus (GPa) = 34.23365 43.85777 39.04571
# Shear Modulus (GPa) = 22.99779 29.02194 26.00986
#
# Velocity S-wave (km/s) = 3.08910 3.47018 3.28517
# Velocity P-wave (km/s) = 5.18923 5.85272 5.53093
#
# Compressibility (1/GPa) = 0.02921102
#
# Stress axis : x y z
#
# Youngs Moduli (GPa) = 46.60690 46.60537 167.90835
#
# Poissons Ratio (x) = 0.31644 0.25513
# Poissons Ratio (y) = 0.31645 0.25513
# Poissons Ratio (z) = 0.07082 0.07082
#
# Static dielectric constant tensor:
#      x y z
#    x 1.937550 0.000000 0.000000 
#    y 0.000000 1.937550 0.000000 
#    z 0.000000 0.000000 2.010370 
# 
# From -- ./inp_files/6454.got.cif
#   From: 2010.05.17/outbox.cif.g08.bks.cpg/sg121_4_cif.got.tgz:6454.got - 2010.05.20 11:32:06.
