data_PCOD9560452
_publ_section_title
;
Structure prediction by ZEFSAII (Michael W. Deem and Ramdas Pophale) SiO2 
 PCOD9560452
Probable space group: I -4 2 M
;
_chemical_formula_sum "Si O2"
_cell_formula_units_Z 80
_cell_length_a 12.499372
_cell_length_b 12.499372
_cell_length_c 26.429762
_cell_angle_alpha 90.000000
_cell_angle_beta 90.000000
_cell_angle_gamma 90.000000
_cell_volume 4129.235376
_symmetry_space_group_name_H-M "I -4 2 M"
_symmetry_group_IT_number 121
_symmetry_cell_setting 'tetragonal'
loop_
_space_group_symop_operation_xyz
x,y,z
y,-x,-z
-x,-y,z
-y,x,-z
x,-y,-z
-x,y,-z
-y,-x,z
y,x,z
1/2+x,1/2+y,1/2+z
1/2+y,1/2-x,1/2-z
1/2-x,1/2-y,1/2+z
1/2-y,1/2+x,1/2-z
1/2+x,1/2-y,1/2-z
1/2-x,1/2+y,1/2-z
1/2-y,1/2-x,1/2+z
1/2+y,1/2+x,1/2+z
loop_
_atom_site_type_symbol
_atom_site_label
_atom_site_fract_x
_atom_site_fract_y
_atom_site_fract_z
Si Si1 0.783740 0.395551 0.868485
Si Si2 0.391919 0.211719 0.809396
Si Si3 0.831419 0.003378 0.895770
Si Si4 0.291735 0.023553 0.197255
Si Si5 0.388714 0.039632 0.057681
O O1 0.680568 0.319433 0.863928
O O2 0.765998 0.517675 0.851560
O O3 0.876406 0.350789 0.830280
O O4 0.836897 0.385102 0.924410
O O5 0.288931 0.288931 0.815404
O O6 0.446078 0.231181 0.754698
O O7 0.357732 0.086735 0.807643
O O8 0.911184 0.911184 0.911242
O O9 0.814445 0.006003 0.835770
O O10 0.715711 0.987363 0.918614
O O11 0.884580 0.115421 0.911744
O O12 0.500000 0.000000 0.080955
O O13 0.389019 0.000000 0.000000
#
# Coordination Sequence:
#
# PCOD9560452 Si02
#       5
#    16  16  16  16  16
#     4  11  23  40  62  91 128 165 203 262 323 374
#     4  12  24  37  60  90 124 174 222 260 307 368
#     4  10  21  37  59  88 123 155 190 254 324 372
#     4  11  21  37  57  84 123 169 218 259 298 357
#     4  10  21  39  63  88 117 155 203 253 306 376
#
# _framework density 19.374046
#
# number of rings (size 3 to 8) (size 9 to 14) (size 15 to 20)
#    0.000    1.200    2.000    7.200    0.000    2.800 
#    0.000    1.000    0.000    2.400    0.000    0.000 
#    0.000    0.000    0.000    0.000    0.000    0.000 
#
# Total GULP energy -223102.653438 kJ/mol
# GULP energy per Si atom -5577.566336 kJ/mol
# Density = 1.932995 g / cm^3
# Si number density = 19.374046 Si / 1000 Ang^3
#
#
#
# Elastic Constant Matrix: (Units=GPa)
#
#
# Indices 1 2 3 4 5 6 
#
# 1 99.9246 45.8079 18.1797 0.0000 0.0000 0.0000
# 2 45.8079 99.9162 18.1781 0.0000 0.0000 0.0000
# 3 18.1797 18.1781 79.1952 0.0000 0.0000 0.0000
# 4 0.0000 0.0000 0.0000 15.5589 0.0000 0.0000
# 5 0.0000 0.0000 0.0000 0.0000 15.5585 0.0000
# 6 0.0000 0.0000 0.0000 0.0000 0.0000 27.6446
#
#
#
# Elastic Compliance Matrix: (Units=1/GPa)
#
#
# Indices 1 2 3 4 5 6 
#
# 1 0.012879 -0.005601 -0.001671 0.000000 0.000000 0.000000
# 2 -0.005601 0.012880 -0.001671 0.000000 0.000000 0.000000
# 3 -0.001671 -0.001671 0.013394 0.000000 0.000000 0.000000
# 4 0.000000 0.000000 0.000000 0.064272 0.000000 0.000000
# 5 0.000000 0.000000 0.000000 0.000000 0.064273 0.000000
# 6 0.000000 0.000000 0.000000 0.000000 0.000000 0.036173
#
#
# Mechanical properties :
#
#
# Convention : Reuss Voigt Hill
#
# Bulk Modulus (GPa) = 47.01767 49.26303 48.14035
# Shear Modulus (GPa) = 21.84880 24.87711 23.36296
#
# Velocity S-wave (km/s) = 3.36182 3.58724 3.47636
# Velocity P-wave (km/s) = 6.27616 6.52995 6.40431
#
# Compressibility (1/GPa) = 0.02126860
#
# Stress axis : x y z
#
# Youngs Moduli (GPa) = 77.64601 77.63983 74.65970
#
# Poissons Ratio (x) = 0.43482 0.12475
# Poissons Ratio (y) = 0.43486 0.12474
# Poissons Ratio (z) = 0.12974 0.12972
#
# Static dielectric constant tensor:
#      x y z
#    x 1.694100 0.000000 0.000000 
#    y 0.000000 1.694100 0.000000 
#    z 0.000000 0.000000 1.754280 
# 
# From -- ./inp_files/8030.got.cif
#   From: 2010.05.17/outbox.cif.g08.bks.cpg/sg121_5_cif.got.tgz:8030.got - 2010.05.20 11:32:06.
