data_PCOD9560568
_publ_section_title
;
Structure prediction by ZEFSAII (Michael W. Deem and Ramdas Pophale) SiO2 
 PCOD9560568
Probable space group: I -4 2 M
;
_chemical_formula_sum "Si O2"
_cell_formula_units_Z 96
_cell_length_a 25.637062
_cell_length_b 25.637062
_cell_length_c 8.707026
_cell_angle_alpha 90.000000
_cell_angle_beta 90.000000
_cell_angle_gamma 90.000000
_cell_volume 5722.770749
_symmetry_space_group_name_H-M "I -4 2 M"
_symmetry_group_IT_number 121
_symmetry_cell_setting 'tetragonal'
loop_
_space_group_symop_operation_xyz
x,y,z
y,-x,-z
-x,-y,z
-y,x,-z
x,-y,-z
-x,y,-z
-y,-x,z
y,x,z
1/2+x,1/2+y,1/2+z
1/2+y,1/2-x,1/2-z
1/2-x,1/2-y,1/2+z
1/2-y,1/2+x,1/2-z
1/2+x,1/2-y,1/2-z
1/2-x,1/2+y,1/2-z
1/2-y,1/2-x,1/2+z
1/2+y,1/2+x,1/2+z
loop_
_atom_site_type_symbol
_atom_site_label
_atom_site_fract_x
_atom_site_fract_y
_atom_site_fract_z
Si Si1 0.944845 0.267878 0.071643
Si Si2 0.056843 0.731259 0.437208
Si Si3 0.787830 0.354767 0.367791
Si Si4 0.669211 0.753375 0.957670
Si Si5 0.141053 0.434487 0.828646
Si Si6 0.967665 0.616733 0.867996
O O1 0.942217 0.260781 0.254312
O O2 0.945647 0.330664 0.056528
O O3 0.893166 0.253554 0.975954
O O4 0.000000 0.249003 0.000000
O O5 0.109136 0.758676 0.499909
O O6 0.063779 0.672663 0.510687
O O7 0.000000 0.748435 0.500000
O O8 0.757979 0.328395 0.226385
O O9 0.815095 0.309342 0.466999
O O10 0.827468 0.393160 0.275671
O O11 0.709627 0.709627 0.012185
O O12 0.081807 0.416258 0.825263
O O13 0.137696 0.492321 0.758775
O O14 0.000000 0.587735 0.000000
#
# Coordination Sequence:
#
# PCOD9560568 Si02
#       6
#    16  16  16  16  16  16
#     4  11  19  36  53  77  98 133 187 234 266 334
#     4  11  21  36  61  79 101 140 182 222 281 337
#     4  11  21  35  57  73 103 143 177 230 283 338
#     4  11  23  37  55  84 111 137 180 229 288 345
#     4  11  23  36  51  74  95 139 184 239 281 339
#     4  11  22  33  49  65  98 127 180 237 289 323
#
# _framework density 16.775091
#
# number of rings (size 3 to 8) (size 9 to 14) (size 15 to 20)
#    0.000    1.000    5.000    5.500    2.333    0.333 
#    0.000    1.667    0.000    0.000    0.000    0.000 
#    0.000    0.333    0.000    0.000    0.000    3.667 
#
# Total GULP energy -267481.726697 kJ/mol
# GULP energy per Si atom -5572.535973 kJ/mol
# Density = 1.673691 g / cm^3
# Si number density = 16.775091 Si / 1000 Ang^3
#
#
#
# Elastic Constant Matrix: (Units=GPa)
#
#
# Indices 1 2 3 4 5 6 
#
# 1 54.0832 37.1864 30.7575 0.0000 0.0000 0.0000
# 2 37.1864 54.0832 30.7575 0.0000 0.0000 0.0000
# 3 30.7575 30.7575 119.0270 0.0000 0.0000 0.0000
# 4 0.0000 0.0000 0.0000 17.8113 0.0000 0.0000
# 5 0.0000 0.0000 0.0000 0.0000 17.8113 0.0000
# 6 0.0000 0.0000 0.0000 0.0000 0.0000 21.0291
#
#
#
# Elastic Compliance Matrix: (Units=1/GPa)
#
#
# Indices 1 2 3 4 5 6 
#
# 1 0.036225 -0.022958 -0.003428 0.000000 0.000000 0.000000
# 2 -0.022958 0.036225 -0.003428 0.000000 0.000000 0.000000
# 3 -0.003428 -0.003428 0.010173 0.000000 0.000000 0.000000
# 4 0.000000 0.000000 0.000000 0.056144 0.000000 0.000000
# 5 0.000000 0.000000 0.000000 0.000000 0.056144 0.000000
# 6 0.000000 0.000000 0.000000 0.000000 0.000000 0.047553
#
#
# Mechanical properties :
#
#
# Convention : Reuss Voigt Hill
#
# Bulk Modulus (GPa) = 43.48900 47.17737 45.33318
# Shear Modulus (GPa) = 16.14163 19.89648 18.01906
#
# Velocity S-wave (km/s) = 3.10536 3.44768 3.28099
# Velocity P-wave (km/s) = 6.23207 6.63575 6.43708
#
# Compressibility (1/GPa) = 0.02299432
#
# Stress axis : x y z
#
# Youngs Moduli (GPa) = 27.60532 27.60532 98.29659
#
# Poissons Ratio (x) = 0.63375 0.33700
# Poissons Ratio (y) = 0.63375 0.33700
# Poissons Ratio (z) = 0.09464 0.09464
#
# Static dielectric constant tensor:
#      x y z
#    x 1.602160 0.000000 0.000000 
#    y 0.000000 1.602160 0.000000 
#    z 0.000000 0.000000 1.669610 
# 
# From -- ./inp_files/2063.got.cif
#   From: 2010.05.17/outbox.cif.g08.bks.cpg/sg121_2_cif.got.tgz:2063.got - 2010.05.20 11:32:06.
