data_PCOD9560800
_publ_section_title
;
Structure prediction by ZEFSAII (Michael W. Deem and Ramdas Pophale) SiO2 
 PCOD9560800
Probable space group: I -4 2 D
;
_chemical_formula_sum "Si O2"
_cell_formula_units_Z 84
_cell_length_a 14.837821
_cell_length_b 14.837821
_cell_length_c 17.750129
_cell_angle_alpha 90.000000
_cell_angle_beta 90.000000
_cell_angle_gamma 90.000000
_cell_volume 3907.884944
_symmetry_space_group_name_H-M "I -4 2 D"
_symmetry_group_IT_number 122
_symmetry_cell_setting 'tetragonal'
loop_
_space_group_symop_operation_xyz
x,y,z
y,-x,-z
-x,-y,z
-y,x,-z
x,1/2-y,1/4-z
-x,1/2+y,1/4-z
-y,1/2-x,1/4+z
y,1/2+x,1/4+z
1/2+x,1/2+y,1/2+z
1/2+y,1/2-x,1/2-z
1/2-x,1/2-y,1/2+z
1/2-y,1/2+x,1/2-z
1/2+x,-y,3/4-z
1/2-x,y,3/4-z
1/2-y,-x,3/4+z
1/2+y,x,3/4+z
loop_
_atom_site_type_symbol
_atom_site_label
_atom_site_fract_x
_atom_site_fract_y
_atom_site_fract_z
Si Si1 0.307900 0.133060 0.039898
Si Si2 0.250000 0.828599 0.875000
Si Si3 0.583102 0.698912 0.782602
Si Si4 0.376276 0.938832 0.633798
Si Si5 0.620321 0.250000 0.625000
Si Si6 0.605476 0.501973 0.785561
Si Si7 0.500000 0.500000 0.500000
O O1 0.237739 0.168447 0.100662
O O2 0.275844 0.165759 0.956307
O O3 0.411420 0.156059 0.062276
O O4 0.310908 0.025185 0.031348
O O5 0.272770 0.884184 0.949824
O O6 0.594478 0.777233 0.844054
O O7 0.631575 0.604583 0.802942
O O8 0.431503 0.844519 0.638820
O O9 0.413715 0.003937 0.697286
O O10 0.388481 0.986425 0.554638
O O11 0.500000 0.500000 0.808289
#
# Coordination Sequence:
#
# PCOD9560800 Si02
#       7
#    16   8  16  16   8  16   4
#     4  10  21  38  59  83 125 164 211 263 320 396
#     4  12  23  38  63  98 126 170 222 265 328 403
#     4  11  22  35  56  89 120 162 205 261 321 389
#     4  11  21  34  54  80 118 156 202 250 311 386
#     4  10  19  38  51  76 112 166 192 249 310 383
#     4   9  20  38  57  79 119 165 205 253 319 376
#     4  12  24  32  48  88 116 164 204 260 318 372
#
# _framework density 21.495003000000001
#
# number of rings (size 3 to 8) (size 9 to 14) (size 15 to 20)
#    0.000    1.524    2.857    2.857    2.667    0.000 
#    0.000    0.952    0.000    0.000    0.000    0.000 
#    0.000    0.000    0.000    0.000    0.000    0.000 
#
# Total GULP energy -234018.424257 kJ/mol
# GULP energy per Si atom -5571.867244 kJ/mol
# Density = 2.144608 g / cm^3
# Si number density = 21.495003 Si / 1000 Ang^3
#
#
#
# Elastic Constant Matrix: (Units=GPa)
#
#
# Indices 1 2 3 4 5 6 
#
# 1 99.1124 3.3313 5.6041 0.0000 0.0000 0.0000
# 2 3.3313 99.1124 5.6041 0.0000 0.0000 0.0000
# 3 5.6041 5.6041 37.2797 0.0000 0.0000 0.0000
# 4 0.0000 0.0000 0.0000 28.2350 0.0000 0.0000
# 5 0.0000 0.0000 0.0000 0.0000 28.2350 0.0000
# 6 0.0000 0.0000 0.0000 0.0000 0.0000 22.5924
#
#
#
# Elastic Compliance Matrix: (Units=1/GPa)
#
#
# Indices 1 2 3 4 5 6 
#
# 1 0.010183 -0.000258 -0.001492 0.000000 0.000000 0.000000
# 2 -0.000258 0.010183 -0.001492 0.000000 0.000000 0.000000
# 3 -0.001492 -0.001492 0.027273 0.000000 0.000000 0.000000
# 4 0.000000 0.000000 0.000000 0.035417 0.000000 0.000000
# 5 0.000000 0.000000 0.000000 0.000000 0.035417 0.000000
# 6 0.000000 0.000000 0.000000 0.000000 0.000000 0.044263
#
#
# Mechanical properties :
#
#
# Convention : Reuss Voigt Hill
#
# Bulk Modulus (GPa) = 24.29871 29.39815 26.84843
# Shear Modulus (GPa) = 27.33191 30.54348 28.93770
#
# Velocity S-wave (km/s) = 3.56974 3.77365 3.67311
# Velocity P-wave (km/s) = 5.32162 5.71784 5.52328
#
# Compressibility (1/GPa) = 0.04115444
#
# Stress axis : x y z
#
# Youngs Moduli (GPa) = 98.20695 98.20695 36.66662
#
# Poissons Ratio (x) = 0.02533 0.05470
# Poissons Ratio (y) = 0.02533 0.05470
# Poissons Ratio (z) = 0.14652 0.14652
#
# Static dielectric constant tensor:
#      x y z
#    x 1.908640 0.000000 0.000000 
#    y 0.000000 1.908640 0.000000 
#    z 0.000000 0.000000 1.769720 
# 
# From -- ./inp_files/7237.got.cif
#   From: 2010.05.17/outbox.cif.g08.bks.cpg/sg122_4_cif.got.tgz:7237.got - 2010.05.20 11:37:33.
