data_PCOD9560111
_publ_section_title
;
Structure prediction by ZEFSAII (Michael W. Deem and Ramdas Pophale) SiO2 
 PCOD9560111
Probable space group: I -4 2 M
;
_chemical_formula_sum "Si O2"
_cell_formula_units_Z 96
_cell_length_a 15.457170
_cell_length_b 15.457170
_cell_length_c 19.924640
_cell_angle_alpha 90.000000
_cell_angle_beta 90.000000
_cell_angle_gamma 90.000000
_cell_volume 4760.476768
_symmetry_space_group_name_H-M "I -4 2 M"
_symmetry_group_IT_number 121
_symmetry_cell_setting 'tetragonal'
loop_
_space_group_symop_operation_xyz
x,y,z
y,-x,-z
-x,-y,z
-y,x,-z
x,-y,-z
-x,y,-z
-y,-x,z
y,x,z
1/2+x,1/2+y,1/2+z
1/2+y,1/2-x,1/2-z
1/2-x,1/2-y,1/2+z
1/2-y,1/2+x,1/2-z
1/2+x,1/2-y,1/2-z
1/2-x,1/2+y,1/2-z
1/2-y,1/2-x,1/2+z
1/2+y,1/2+x,1/2+z
loop_
_atom_site_type_symbol
_atom_site_label
_atom_site_fract_x
_atom_site_fract_y
_atom_site_fract_z
Si Si1 0.882865 0.581099 0.119106
Si Si2 0.084780 0.619474 0.124969
Si Si3 0.003456 0.857327 0.793722
Si Si4 0.559847 0.695737 0.563226
Si Si5 0.829677 0.308767 0.493504
Si Si6 0.729753 0.875866 0.742852
O O1 0.892277 0.480492 0.137256
O O2 0.822385 0.586973 0.053031
O O3 0.833969 0.627707 0.180027
O O4 0.981354 0.616206 0.109114
O O5 0.110399 0.673902 0.190210
O O6 0.140059 0.655927 0.062541
O O7 0.930868 0.930868 0.805907
O O8 0.960719 0.792305 0.740587
O O9 0.017642 0.807039 0.863711
O O10 0.091770 0.908231 0.775752
O O11 0.500000 0.711548 0.500000
O O12 0.600983 0.600983 0.555461
O O13 0.636575 0.763244 0.552987
O O14 0.784442 0.215559 0.503113
O O15 0.792630 0.792630 0.746462
#
# Coordination Sequence:
#
# PCOD9560111 Si02
#       6
#    16  16  16  16  16  16
#     4  11  23  40  61  85 117 157 197 238 291 356
#     4  11  23  40  61  85 117 157 197 238 291 356
#     4   9  18  32  50  75 111 155 197 238 291 352
#     4  10  18  27  45  74 108 145 183 227 281 342
#     4  11  22  37  58  85 114 145 188 239 290 343
#     4  11  22  38  60  87 119 152 196 252 301 352
#
# _framework density 20.166046999999999
#
# number of rings (size 3 to 8) (size 9 to 14) (size 15 to 20)
#    0.000    1.500    0.000    6.500    0.000    6.167 
#    0.000    5.833    0.000    0.000    0.000    0.000 
#    0.000    4.000    0.000    0.000    0.000    0.000 
#
# Total GULP energy -267853.436601 kJ/mol
# GULP energy per Si atom -5580.279929 kJ/mol
# Density = 2.012015 g / cm^3
# Si number density = 20.166047 Si / 1000 Ang^3
#
#
#
# Elastic Constant Matrix: (Units=GPa)
#
#
# Indices 1 2 3 4 5 6 
#
# 1 81.8120 32.0238 25.1081 0.0000 0.0000 0.0000
# 2 32.0238 81.8135 25.1078 0.0000 0.0000 0.0000
# 3 25.1081 25.1078 92.9702 0.0000 0.0000 0.0000
# 4 0.0000 0.0000 0.0000 26.8743 0.0000 0.0000
# 5 0.0000 0.0000 0.0000 0.0000 26.8732 0.0000
# 6 0.0000 0.0000 0.0000 0.0000 0.0000 28.7652
#
#
#
# Elastic Compliance Matrix: (Units=1/GPa)
#
#
# Indices 1 2 3 4 5 6 
#
# 1 0.015029 -0.005056 -0.002693 0.000000 0.000000 0.000000
# 2 -0.005056 0.015029 -0.002693 0.000000 0.000000 0.000000
# 3 -0.002693 -0.002693 0.012211 0.000000 0.000000 0.000000
# 4 0.000000 0.000000 0.000000 0.037210 0.000000 0.000000
# 5 0.000000 0.000000 0.000000 0.000000 0.037212 0.000000
# 6 0.000000 0.000000 0.000000 0.000000 0.000000 0.034764
#
#
# Mechanical properties :
#
#
# Convention : Reuss Voigt Hill
#
# Bulk Modulus (GPa) = 46.76605 46.78611 46.77608
# Shear Modulus (GPa) = 27.86022 28.12626 27.99324
#
# Velocity S-wave (km/s) = 3.72094 3.73866 3.72981
# Velocity P-wave (km/s) = 6.45766 6.47206 6.46487
#
# Compressibility (1/GPa) = 0.02138303
#
# Stress axis : x y z
#
# Youngs Moduli (GPa) = 66.53868 66.54017 81.89453
#
# Poissons Ratio (x) = 0.33643 0.22057
# Poissons Ratio (y) = 0.33643 0.22055
# Poissons Ratio (z) = 0.17921 0.17920
#
# Static dielectric constant tensor:
#      x y z
#    x 1.791060 0.000000 0.000000 
#    y 0.000000 1.791060 0.000000 
#    z 0.000000 0.000000 1.705330 
# 
# From -- ./inp_files/6446.got.cif
#   From: 2010.05.17/outbox.cif.g08.bks.cpg/sg121_4_cif.got.tgz:6446.got - 2010.05.20 11:32:06.
