data_PCOD9560125
_publ_section_title
;
Structure prediction by ZEFSAII (Michael W. Deem and Ramdas Pophale) SiO2 
 PCOD9560125
Probable space group: I -4 2 M
;
_chemical_formula_sum "Si O2"
_cell_formula_units_Z 112
_cell_length_a 17.718277
_cell_length_b 17.718277
_cell_length_c 20.103542
_cell_angle_alpha 90.000000
_cell_angle_beta 90.000000
_cell_angle_gamma 90.000000
_cell_volume 6311.252497
_symmetry_space_group_name_H-M "I -4 2 M"
_symmetry_group_IT_number 121
_symmetry_cell_setting 'tetragonal'
loop_
_space_group_symop_operation_xyz
x,y,z
y,-x,-z
-x,-y,z
-y,x,-z
x,-y,-z
-x,y,-z
-y,-x,z
y,x,z
1/2+x,1/2+y,1/2+z
1/2+y,1/2-x,1/2-z
1/2-x,1/2-y,1/2+z
1/2-y,1/2+x,1/2-z
1/2+x,1/2-y,1/2-z
1/2-x,1/2+y,1/2-z
1/2-y,1/2-x,1/2+z
1/2+y,1/2+x,1/2+z
loop_
_atom_site_type_symbol
_atom_site_label
_atom_site_fract_x
_atom_site_fract_y
_atom_site_fract_z
Si Si1 0.152420 0.608981 0.253897
Si Si2 0.568363 0.312637 0.307583
Si Si3 0.570376 0.741917 0.544867
Si Si4 0.620912 0.946562 0.393597
Si Si5 0.175138 0.708407 0.068369
Si Si6 0.605232 0.268927 0.704576
Si Si7 0.904530 0.553587 0.608627
O O1 0.240606 0.609714 0.274008
O O2 0.141846 0.566907 0.183713
O O3 0.119485 0.693575 0.247679
O O4 0.110728 0.565286 0.313069
O O5 0.610536 0.389465 0.286787
O O6 0.576574 0.304841 0.387540
O O7 0.479642 0.300704 0.291881
O O8 0.500000 0.716247 0.500000
O O9 0.640624 0.752664 0.496349
O O10 0.558497 0.826722 0.570492
O O11 0.667130 0.881993 0.432021
O O12 0.532464 0.928197 0.401804
O O13 0.617445 0.034760 0.412048
O O14 0.258529 0.741472 0.079957
O O15 0.124059 0.738629 0.130020
O O16 0.666007 0.333994 0.719964
#
# Coordination Sequence:
#
# PCOD9560125 Si02
#       7
#    16  16  16  16  16  16  16
#     4  10  18  33  51  72 101 128 165 205 255 309
#     4  11  22  34  53  76 100 134 174 217 255 305
#     4  11  18  34  48  69  99 130 171 207 252 301
#     4  10  18  30  45  75  98 130 162 199 254 303
#     4  10  19  32  48  64  92 132 170 204 245 298
#     4  10  20  34  52  71  97 132 167 212 258 304
#     4  10  19  28  49  72 103 129 158 209 250 305
#
# _framework density 17.746082000000001
#
# number of rings (size 3 to 8) (size 9 to 14) (size 15 to 20)
#    0.000    1.714    2.857    5.143    0.000    2.571 
#    0.000    0.000    0.000    0.000    0.000    0.000 
#    0.000    0.000    0.000    0.000    0.000   10.286 
#
# Total GULP energy -312186.471004 kJ/mol
# GULP energy per Si atom -5574.758411 kJ/mol
# Density = 1.770569 g / cm^3
# Si number density = 17.746082 Si / 1000 Ang^3
#
#
#
# Elastic Constant Matrix: (Units=GPa)
#
#
# Indices 1 2 3 4 5 6 
#
# 1 51.2848 22.5709 0.1981 0.0000 0.0000 0.0000
# 2 22.5709 51.2852 0.2023 0.0000 0.0000 0.0000
# 3 0.1981 0.2023 19.6216 0.0000 0.0000 0.0000
# 4 0.0000 0.0000 0.0000 -0.2579 0.0000 0.0000
# 5 0.0000 0.0000 0.0000 0.0000 -0.2670 0.0000
# 6 0.0000 0.0000 0.0000 0.0000 0.0000 32.9819
#
#
#
# Elastic Compliance Matrix: (Units=1/GPa)
#
#
# Indices 1 2 3 4 5 6 
#
# 1 0.024183 -0.010643 -0.000134 0.000000 0.000000 0.000000
# 2 -0.010643 0.024183 -0.000142 0.000000 0.000000 0.000000
# 3 -0.000134 -0.000142 0.050967 0.000000 0.000000 0.000000
# 4 0.000000 0.000000 0.000000 -3.877087 0.000003 0.000000
# 5 0.000000 0.000000 0.000000 0.000003 -3.745799 0.000000
# 6 0.000000 0.000000 0.000000 0.000000 0.000000 0.030320
#
#
# Mechanical properties :
#
#
# Convention : Reuss Voigt Hill
#
# Bulk Modulus (GPa) = 12.90392 18.68157 15.79275
# Shear Modulus (GPa) = -0.67154 13.10609 6.21728
#
# Velocity S-wave (km/s) = -0.61582 2.72055 1.87378
# Velocity P-wave (km/s) = 2.60414 4.51868 3.68782
#
# Compressibility (1/GPa) = 0.07749581
#
# Stress axis : x y z
#
# Youngs Moduli (GPa) = 41.35057 41.35087 19.62049
#
# Poissons Ratio (x) = 0.44009 0.00264
# Poissons Ratio (y) = 0.44008 0.00278
# Poissons Ratio (z) = 0.00556 0.00586
#
# Static dielectric constant tensor:
#      x y z
#    x 1.767000 0.000000 0.000000 
#    y 0.000000 1.767030 0.000000 
#    z 0.000000 0.000000 1.639050 
# 
# From -- ./inp_files/6641.got.cif
#   From: 2010.05.17/outbox.cif.g08.bks.cpg/sg121_4_cif.got.tgz:6641.got - 2010.05.20 11:32:06.
