data_PCOD9560000
_publ_section_title
;
Structure prediction by ZEFSAII (Michael W. Deem and Ramdas Pophale) SiO2 
 PCOD9560000
Probable space group: I -4 C 2
;
_chemical_formula_sum "Si O2"
_cell_formula_units_Z 116
_cell_length_a 17.638410
_cell_length_b 17.638410
_cell_length_c 17.644679
_cell_angle_alpha 90.000000
_cell_angle_beta 90.000000
_cell_angle_gamma 90.000000
_cell_volume 5489.497969
_symmetry_space_group_name_H-M "I -4 C 2"
_symmetry_group_IT_number 120
_symmetry_cell_setting 'tetragonal'
loop_
_space_group_symop_operation_xyz
x,y,z
y,-x,-z
-x,-y,z
-y,x,-z
y,x,1/2-z
-y,-x,1/2-z
-x,y,1/2+z
x,-y,1/2+z
1/2+x,1/2+y,1/2+z
1/2+y,1/2-x,1/2-z
1/2-x,1/2-y,1/2+z
1/2-y,1/2+x,1/2-z
1/2+y,1/2+x,-z
1/2-y,1/2-x,-z
1/2-x,1/2+y,z
1/2+x,1/2-y,z
loop_
_atom_site_type_symbol
_atom_site_label
_atom_site_fract_x
_atom_site_fract_y
_atom_site_fract_z
Si Si1 0.500000 0.000000 0.500000
Si Si2 0.688549 0.966298 0.170695
Si Si3 0.912237 0.673306 0.695858
Si Si4 0.965383 0.654596 0.090328
Si Si5 0.627572 0.344345 0.328726
Si Si6 0.099004 0.933190 0.984098
Si Si7 0.179589 0.308121 0.175652
Si Si8 0.259410 0.912441 0.053284
O O1 0.574623 0.991289 0.446121
O O2 0.618927 0.908600 0.170337
O O3 0.765439 0.917411 0.176812
O O4 0.677154 0.024835 0.238735
O O5 0.701978 0.017374 0.097130
O O6 0.960461 0.698965 0.622066
O O7 0.840242 0.707024 0.742420
O O8 0.902993 0.652636 0.157966
O O9 0.917907 0.699588 0.027248
O O10 0.611897 0.388104 0.250000
O O11 0.606423 0.389013 0.404773
O O12 0.718308 0.330080 0.328826
O O13 0.171659 0.920465 0.035827
O O14 0.023177 0.907686 0.026940
O O15 0.229936 0.340458 0.107478
#
# Coordination Sequence:
#
# PCOD9560000 Si02
#       8
#     4  16  16  16  16  16  16  16
#     4  12  24  32  58 100 140 188 242 276 356 438
#     4  11  24  42  67 102 143 191 231 295 368 440
#     4  11  23  40  62 102 143 182 237 283 354 438
#     4  12  22  37  61  94 139 190 233 290 345 437
#     4  12  23  46  75 103 138 192 239 302 370 445
#     4  11  25  48  76 102 135 182 243 315 379 432
#     4  11  23  42  67  96 143 190 240 288 370 432
#     4  11  23  45  66 101 139 185 244 302 366 436
#
# _framework density 21.131257000000002
#
# number of rings (size 3 to 8) (size 9 to 14) (size 15 to 20)
#    0.000    0.690    6.897    0.828    1.931    0.276 
#    2.483    2.759    0.000    0.000    0.000    0.000 
#    0.000    0.000    0.000    0.000    0.000    0.000 
#
# Total GULP energy -323467.196760 kJ/mol
# GULP energy per Si atom -5577.020634 kJ/mol
# Density = 2.108316 g / cm^3
# Si number density = 21.131257 Si / 1000 Ang^3
#
#
#
# Elastic Constant Matrix: (Units=GPa)
#
#
# Indices 1 2 3 4 5 6 
#
# 1 99.4249 35.6797 33.1169 0.0000 0.0000 0.0000
# 2 35.6797 99.4248 33.1172 0.0000 0.0000 0.0000
# 3 33.1169 33.1172 91.2108 0.0000 0.0000 0.0000
# 4 0.0000 0.0000 0.0000 26.0593 0.0000 0.0000
# 5 0.0000 0.0000 0.0000 0.0000 26.0594 0.0000
# 6 0.0000 0.0000 0.0000 0.0000 0.0000 24.5272
#
#
#
# Elastic Compliance Matrix: (Units=1/GPa)
#
#
# Indices 1 2 3 4 5 6 
#
# 1 0.012346 -0.003342 -0.003269 0.000000 0.000000 0.000000
# 2 -0.003342 0.012346 -0.003269 0.000000 0.000000 0.000000
# 3 -0.003269 -0.003269 0.013338 0.000000 0.000000 0.000000
# 4 0.000000 0.000000 0.000000 0.038374 0.000000 0.000000
# 5 0.000000 0.000000 0.000000 0.000000 0.038374 0.000000
# 6 0.000000 0.000000 0.000000 0.000000 0.000000 0.040771
#
#
# Mechanical properties :
#
#
# Convention : Reuss Voigt Hill
#
# Bulk Modulus (GPa) = 54.73701 54.87647 54.80674
# Shear Modulus (GPa) = 27.56359 27.87229 27.71794
#
# Velocity S-wave (km/s) = 3.61556 3.63575 3.62567
# Velocity P-wave (km/s) = 6.58706 6.60687 6.59697
#
# Compressibility (1/GPa) = 0.01826917
#
# Stress axis : x y z
#
# Youngs Moduli (GPa) = 80.99829 80.99796 74.97534
#
# Poissons Ratio (x) = 0.27066 0.24512
# Poissons Ratio (y) = 0.27066 0.24512
# Poissons Ratio (z) = 0.26481 0.26481
#
# Static dielectric constant tensor:
#      x y z
#    x 1.788610 0.000000 0.000000 
#    y 0.000000 1.788610 0.000000 
#    z 0.000000 0.000000 1.828500 
# 
# From -- ./inp_files/4593.got.cif
#   From: 2010.05.17/outbox.cif.g08.bks.cpg/sg120_3_cif.got.tgz:4593.got - 2010.05.20 11:28:13.
