data_PCOD9560379
_publ_section_title
;
Structure prediction by ZEFSAII (Michael W. Deem and Ramdas Pophale) SiO2 
 PCOD9560379
Probable space group: I -4 2 M
;
_chemical_formula_sum "Si O2"
_cell_formula_units_Z 120
_cell_length_a 26.190295
_cell_length_b 26.190295
_cell_length_c 8.202369
_cell_angle_alpha 90.000000
_cell_angle_beta 90.000000
_cell_angle_gamma 90.000000
_cell_volume 5626.263700
_symmetry_space_group_name_H-M "I -4 2 M"
_symmetry_group_IT_number 121
_symmetry_cell_setting 'tetragonal'
loop_
_space_group_symop_operation_xyz
x,y,z
y,-x,-z
-x,-y,z
-y,x,-z
x,-y,-z
-x,y,-z
-y,-x,z
y,x,z
1/2+x,1/2+y,1/2+z
1/2+y,1/2-x,1/2-z
1/2-x,1/2-y,1/2+z
1/2-y,1/2+x,1/2-z
1/2+x,1/2-y,1/2-z
1/2-x,1/2+y,1/2-z
1/2-y,1/2-x,1/2+z
1/2+y,1/2+x,1/2+z
loop_
_atom_site_type_symbol
_atom_site_label
_atom_site_fract_x
_atom_site_fract_y
_atom_site_fract_z
Si Si1 0.626705 0.710803 0.092443
Si Si2 0.826982 0.090633 0.755806
Si Si3 0.431567 0.040918 0.722756
Si Si4 0.515375 0.711107 0.185227
Si Si5 0.000000 0.280584 0.000000
Si Si6 0.743764 0.661049 0.596620
Si Si7 0.424716 0.864602 0.517356
Si Si8 0.306197 0.159812 0.783460
O O1 0.675388 0.675388 0.134682
O O2 0.573614 0.692443 0.173855
O O3 0.635133 0.769967 0.143085
O O4 0.615284 0.701362 0.901807
O O5 0.880988 0.119013 0.772081
O O6 0.828054 0.030227 0.729837
O O7 0.789361 0.109290 0.899685
O O8 0.482601 0.056896 0.824554
O O9 0.418294 0.087185 0.601728
O O10 0.385269 0.036570 0.846253
O O11 0.514073 0.750328 0.335725
O O12 0.500000 0.730153 0.000000
O O13 0.951494 0.314946 0.947433
O O14 0.705042 0.705042 0.651381
O O15 0.793081 0.663363 0.710239
O O16 0.764490 0.674154 0.418686
O O17 0.376200 0.845426 0.619432
#
# Coordination Sequence:
#
# PCOD9560379 Si02
#       8
#    16  16  16  16   8  16  16  16
#     4  10  20  37  61  88 120 160 206 250 304 378
#     4   9  20  38  61  89 118 159 208 252 306 372
#     4  11  23  43  64  82 109 153 205 259 325 386
#     4  10  22  41  65  90 128 169 201 256 317 374
#     4  12  22  44  61  94 126 155 212 262 310 380
#     4  11  22  37  56  81 114 157 202 245 302 372
#     4  12  24  41  60  88 117 151 205 268 319 381
#     4  12  23  38  56  85 120 157 200 254 316 373
#
# _framework density 21.328541000000001
#
# number of rings (size 3 to 8) (size 9 to 14) (size 15 to 20)
#    0.000    1.200    2.667    4.000    0.000    2.133 
#    2.400    0.000    0.000    0.400    0.000    2.800 
#    0.000    1.067    0.000    0.133    0.000    0.000 
#
# Total GULP energy -334703.147556 kJ/mol
# GULP energy per Si atom -5578.385793 kJ/mol
# Density = 2.128000 g / cm^3
# Si number density = 21.328541 Si / 1000 Ang^3
#
#
#
# Elastic Constant Matrix: (Units=GPa)
#
#
# Indices 1 2 3 4 5 6 
#
# 1 75.2665 17.7694 8.3880 0.0000 0.0000 0.0000
# 2 17.7694 75.2670 8.3877 0.0000 0.0000 0.0000
# 3 8.3880 8.3877 56.1401 0.0000 0.0000 0.0000
# 4 0.0000 0.0000 0.0000 27.5592 0.0000 0.0000
# 5 0.0000 0.0000 0.0000 0.0000 27.5586 0.0000
# 6 0.0000 0.0000 0.0000 0.0000 0.0000 25.0558
#
#
#
# Elastic Compliance Matrix: (Units=1/GPa)
#
#
# Indices 1 2 3 4 5 6 
#
# 1 0.014219 -0.003173 -0.001650 0.000000 0.000000 0.000000
# 2 -0.003173 0.014219 -0.001650 0.000000 0.000000 0.000000
# 3 -0.001650 -0.001650 0.018306 0.000000 0.000000 0.000000
# 4 0.000000 0.000000 0.000000 0.036286 0.000000 0.000000
# 5 0.000000 0.000000 0.000000 0.000000 0.036286 0.000000
# 6 0.000000 0.000000 0.000000 0.000000 0.000000 0.039911
#
#
# Mechanical properties :
#
#
# Convention : Reuss Voigt Hill
#
# Bulk Modulus (GPa) = 29.58897 30.64043 30.11470
# Shear Modulus (GPa) = 27.25691 27.50995 27.38343
#
# Velocity S-wave (km/s) = 3.57873 3.59530 3.58702
# Velocity P-wave (km/s) = 5.56592 5.62424 5.59515
#
# Compressibility (1/GPa) = 0.03379638
#
# Stress axis : x y z
#
# Youngs Moduli (GPa) = 70.32766 70.32821 54.62765
#
# Poissons Ratio (x) = 0.22315 0.09016
# Poissons Ratio (y) = 0.22315 0.09015
# Poissons Ratio (z) = 0.11607 0.11607
#
# Static dielectric constant tensor:
#      x y z
#    x 1.775960 0.000000 0.000000 
#    y 0.000000 1.775960 0.000000 
#    z 0.000000 0.000000 1.860140 
# 
# From -- ./inp_files/2174.got.cif
#   From: 2010.05.17/outbox.cif.g08.bks.cpg/sg121_2_cif.got.tgz:2174.got - 2010.05.20 11:32:06.
