data_PCOD9560995
_publ_section_title
;
Structure prediction by ZEFSAII (Michael W. Deem and Ramdas Pophale) SiO2 
 PCOD9560995
Probable space group: I -4 2 D
;
_chemical_formula_sum "Si O2"
_cell_formula_units_Z 88
_cell_length_a 11.448117
_cell_length_b 11.448117
_cell_length_c 26.067884
_cell_angle_alpha 90.000000
_cell_angle_beta 90.000000
_cell_angle_gamma 90.000000
_cell_volume 3416.440789
_symmetry_space_group_name_H-M "I -4 2 D"
_symmetry_group_IT_number 122
_symmetry_cell_setting 'tetragonal'
loop_
_space_group_symop_operation_xyz
x,y,z
y,-x,-z
-x,-y,z
-y,x,-z
x,1/2-y,1/4-z
-x,1/2+y,1/4-z
-y,1/2-x,1/4+z
y,1/2+x,1/4+z
1/2+x,1/2+y,1/2+z
1/2+y,1/2-x,1/2-z
1/2-x,1/2-y,1/2+z
1/2-y,1/2+x,1/2-z
1/2+x,-y,3/4-z
1/2-x,y,3/4-z
1/2-y,-x,3/4+z
1/2+y,x,3/4+z
loop_
_atom_site_type_symbol
_atom_site_label
_atom_site_fract_x
_atom_site_fract_y
_atom_site_fract_z
Si Si1 0.387597 0.925441 0.830975
Si Si2 0.429378 0.708982 0.320706
Si Si3 0.133978 0.961669 0.411209
Si Si4 0.917242 0.246378 0.242752
Si Si5 0.795046 0.187225 0.570293
Si Si6 0.500000 0.000000 0.001262
O O1 0.368078 0.843838 0.879533
O O2 0.430659 0.844787 0.784671
O O3 0.500000 0.000000 0.846988
O O4 0.284672 0.004723 0.806720
O O5 0.377371 0.837198 0.311965
O O6 0.564706 0.734596 0.332206
O O7 0.440543 0.608142 0.278837
O O8 0.250000 0.952484 0.375000
O O9 0.165761 0.072037 0.446494
O O10 0.000000 0.000000 0.390527
O O11 0.785753 0.248871 0.221054
O O12 0.942249 0.121434 0.270385
O O13 0.799029 0.250000 0.625000
#
# Coordination Sequence:
#
# PCOD9560995 Si02
#       6
#    16  16  16  16  16   8
#     4  12  22  39  63  97 133 175 226 290 364 436
#     4  10  21  37  63  96 128 170 232 286 345 420
#     4   9  19  37  59  96 125 164 222 284 333 402
#     4  11  23  39  59  91 130 174 217 283 359 424
#     4   9  19  36  61  87 127 171 218 282 343 406
#     4  10  24  40  60  93 136 176 226 282 350 425
#
# _framework density 25.757801000000001
#
# number of rings (size 3 to 8) (size 9 to 14) (size 15 to 20)
#    0.000    1.818    2.727    1.091    5.091    0.000 
#    4.909    0.000    0.000    0.000    0.000    0.000 
#    0.000    0.000    0.000    0.000    0.000    0.000 
#
# Total GULP energy -245797.905534 kJ/mol
# GULP energy per Si atom -5586.316035 kJ/mol
# Density = 2.569917 g / cm^3
# Si number density = 25.757801 Si / 1000 Ang^3
#
#
#
# Elastic Constant Matrix: (Units=GPa)
#
#
# Indices 1 2 3 4 5 6 
#
# 1 125.3239 19.9793 18.9542 0.0000 0.0000 0.0000
# 2 19.9793 125.3239 18.9542 0.0000 0.0000 0.0000
# 3 18.9542 18.9542 37.4408 0.0000 0.0000 0.0000
# 4 0.0000 0.0000 0.0000 5.9382 0.0000 0.0000
# 5 0.0000 0.0000 0.0000 0.0000 5.9382 0.0000
# 6 0.0000 0.0000 0.0000 0.0000 0.0000 44.4964
#
#
#
# Elastic Compliance Matrix: (Units=1/GPa)
#
#
# Indices 1 2 3 4 5 6 
#
# 1 0.008711 -0.000782 -0.004014 0.000000 0.000000 0.000000
# 2 -0.000782 0.008711 -0.004014 0.000000 0.000000 0.000000
# 3 -0.004014 -0.004014 0.030773 0.000000 0.000000 0.000000
# 4 0.000000 0.000000 0.000000 0.168402 0.000000 0.000000
# 5 0.000000 0.000000 0.000000 0.000000 0.168402 0.000000
# 6 0.000000 0.000000 0.000000 0.000000 0.000000 0.022474
#
#
# Mechanical properties :
#
#
# Convention : Reuss Voigt Hill
#
# Bulk Modulus (GPa) = 32.70633 44.87378 38.79005
# Shear Modulus (GPa) = 11.48672 26.62128 19.05400
#
# Velocity S-wave (km/s) = 2.11405 3.21833 2.72276
# Velocity P-wave (km/s) = 4.32251 5.59191 4.99768
#
# Compressibility (1/GPa) = 0.03057513
#
# Stress axis : x y z
#
# Youngs Moduli (GPa) = 114.79668 114.79668 32.49581
#
# Poissons Ratio (x) = 0.08973 0.13045
# Poissons Ratio (y) = 0.08973 0.13045
# Poissons Ratio (z) = 0.46082 0.46082
#
# Static dielectric constant tensor:
#      x y z
#    x 2.064730 0.000000 0.000000 
#    y 0.000000 2.064730 0.000000 
#    z 0.000000 0.000000 2.626890 
# 
# From -- ./inp_files/9487.got.cif
#   From: 2010.05.17/outbox.cif.g08.bks.cpg/sg122_5_cif.got.tgz:9487.got - 2010.05.20 11:37:33.
