data_PCOD9560406
_publ_section_title
;
Structure prediction by ZEFSAII (Michael W. Deem and Ramdas Pophale) SiO2 
 PCOD9560406
Probable space group: I -4 2 M
;
_chemical_formula_sum "Si O2"
_cell_formula_units_Z 96
_cell_length_a 22.591322
_cell_length_b 22.591322
_cell_length_c 8.451810
_cell_angle_alpha 90.000000
_cell_angle_beta 90.000000
_cell_angle_gamma 90.000000
_cell_volume 4313.531927
_symmetry_space_group_name_H-M "I -4 2 M"
_symmetry_group_IT_number 121
_symmetry_cell_setting 'tetragonal'
loop_
_space_group_symop_operation_xyz
x,y,z
y,-x,-z
-x,-y,z
-y,x,-z
x,-y,-z
-x,y,-z
-y,-x,z
y,x,z
1/2+x,1/2+y,1/2+z
1/2+y,1/2-x,1/2-z
1/2-x,1/2-y,1/2+z
1/2-y,1/2+x,1/2-z
1/2+x,1/2-y,1/2-z
1/2-x,1/2+y,1/2-z
1/2-y,1/2-x,1/2+z
1/2+y,1/2+x,1/2+z
loop_
_atom_site_type_symbol
_atom_site_label
_atom_site_fract_x
_atom_site_fract_y
_atom_site_fract_z
Si Si1 0.273889 0.273889 0.704192
Si Si2 0.488885 0.182459 0.748723
Si Si3 0.400621 0.732259 0.430322
Si Si4 0.000000 0.406039 0.500000
Si Si5 0.812303 0.187697 0.447497
Si Si6 0.000000 0.406368 0.000000
Si Si7 0.973123 0.880391 0.175710
Si Si8 0.707454 0.566137 0.205666
O O1 0.254760 0.333976 0.616738
O O2 0.224451 0.224451 0.683070
O O3 0.290083 0.290083 0.883492
O O4 0.441549 0.215863 0.639390
O O5 0.466542 0.137814 0.881216
O O6 0.523963 0.137252 0.634853
O O7 0.527558 0.234325 0.824811
O O8 0.425339 0.672393 0.348445
O O9 0.409109 0.719967 0.616450
O O10 0.050193 0.449686 0.567776
O O11 0.881342 0.199339 0.416981
O O12 0.938376 0.938376 0.232275
O O13 0.024810 0.850684 0.279563
O O14 0.000000 0.891836 0.000000
#
# Coordination Sequence:
#
# PCOD9560406 Si02
#       8
#     8  16  16   8   8   8  16  16
#     4  12  26  44  70  95 132 178 214 277 338 410
#     4  11  22  42  67  94 129 174 223 271 335 395
#     4  10  20  42  69  93 129 172 216 271 339 392
#     4  11  26  36  66  90 132 172 221 286 322 402
#     4  12  28  44  63 101 134 170 223 273 342 402
#     4  11  22  46  56  92 128 176 225 270 342 378
#     4   9  18  34  64  99 129 168 219 271 318 387
#     4  10  22  43  66  95 135 173 216 278 329 401
#
# _framework density 22.255544
#
# number of rings (size 3 to 8) (size 9 to 14) (size 15 to 20)
#    0.000    1.500    2.500    3.500    5.833    4.167 
#    0.000    0.000    0.000    0.000    0.000    4.667 
#    0.000    0.000    0.000    0.000    0.000    0.000 
#
# Total GULP energy -268149.343150 kJ/mol
# GULP energy per Si atom -5586.444649 kJ/mol
# Density = 2.220489 g / cm^3
# Si number density = 22.255544 Si / 1000 Ang^3
#
#
#
# Elastic Constant Matrix: (Units=GPa)
#
#
# Indices 1 2 3 4 5 6 
#
# 1 111.8359 50.7449 18.0557 0.0000 0.0000 0.0000
# 2 50.7449 111.8349 18.0560 0.0000 0.0000 0.0000
# 3 18.0557 18.0560 50.6542 0.0000 0.0000 0.0000
# 4 0.0000 0.0000 0.0000 24.9097 0.0000 0.0000
# 5 0.0000 0.0000 0.0000 0.0000 24.9094 0.0000
# 6 0.0000 0.0000 0.0000 0.0000 0.0000 31.2146
#
#
#
# Elastic Compliance Matrix: (Units=1/GPa)
#
#
# Indices 1 2 3 4 5 6 
#
# 1 0.011524 -0.004845 -0.002381 0.000000 0.000000 0.000000
# 2 -0.004845 0.011524 -0.002381 0.000000 0.000000 0.000000
# 3 -0.002381 -0.002381 0.021439 0.000000 0.000000 0.000000
# 4 0.000000 0.000000 0.000000 0.040145 0.000000 0.000000
# 5 0.000000 0.000000 0.000000 0.000000 0.040145 0.000000
# 6 0.000000 0.000000 0.000000 0.000000 0.000000 0.032036
#
#
# Mechanical properties :
#
#
# Convention : Reuss Voigt Hill
#
# Bulk Modulus (GPa) = 39.56559 49.78202 44.67380
# Shear Modulus (GPa) = 27.10719 28.70464 27.90591
#
# Velocity S-wave (km/s) = 3.49377 3.59524 3.54487
# Velocity P-wave (km/s) = 5.83881 6.29692 6.07219
#
# Compressibility (1/GPa) = 0.02527449
#
# Stress axis : x y z
#
# Youngs Moduli (GPa) = 86.77283 86.77183 46.64373
#
# Poissons Ratio (x) = 0.42039 0.11105
# Poissons Ratio (y) = 0.42039 0.11106
# Poissons Ratio (z) = 0.20660 0.20661
#
# Static dielectric constant tensor:
#      x y z
#    x 1.793050 0.000000 0.000000 
#    y 0.000000 1.793060 0.000000 
#    z 0.000000 0.000000 1.867650 
# 
# From -- ./inp_files/2011.got.cif
#   From: 2010.05.17/outbox.cif.g08.bks.cpg/sg121_2_cif.got.tgz:2011.got - 2010.05.20 11:32:06.
