data_PCOD9560494
_publ_section_title
;
Structure prediction by ZEFSAII (Michael W. Deem and Ramdas Pophale) SiO2 
 PCOD9560494
Probable space group: I -4 2 M
;
_chemical_formula_sum "Si O2"
_cell_formula_units_Z 40
_cell_length_a 16.522875
_cell_length_b 16.522875
_cell_length_c 6.126227
_cell_angle_alpha 90.000000
_cell_angle_beta 90.000000
_cell_angle_gamma 90.000000
_cell_volume 1672.493042
_symmetry_space_group_name_H-M "I -4 2 M"
_symmetry_group_IT_number 121
_symmetry_cell_setting 'tetragonal'
loop_
_space_group_symop_operation_xyz
x,y,z
y,-x,-z
-x,-y,z
-y,x,-z
x,-y,-z
-x,y,-z
-y,-x,z
y,x,z
1/2+x,1/2+y,1/2+z
1/2+y,1/2-x,1/2-z
1/2-x,1/2-y,1/2+z
1/2-y,1/2+x,1/2-z
1/2+x,1/2-y,1/2-z
1/2-x,1/2+y,1/2-z
1/2-y,1/2-x,1/2+z
1/2+y,1/2+x,1/2+z
loop_
_atom_site_type_symbol
_atom_site_label
_atom_site_fract_x
_atom_site_fract_y
_atom_site_fract_z
Si Si1 0.285360 0.586832 0.390532
Si Si2 0.258386 0.500000 0.000000
Si Si3 0.092448 0.393870 0.631690
O O1 0.298415 0.500000 0.500000
O O2 0.341515 0.658485 0.475095
O O3 0.190064 0.608934 0.382715
O O4 0.306064 0.563488 0.141535
O O5 0.195332 0.553978 0.858813
O O6 0.070747 0.424354 0.379444
#
# Coordination Sequence:
#
# PCOD9560494 Si02
#       3
#    16   8  16
#     4  11  24  44  68 100 143 188 238 295 358 434
#     4  10  22  44  67 105 140 178 246 296 362 419
#     4  10  21  40  70  98 138 178 231 291 350 416
#
# _framework density 23.916392999999999
#
# number of rings (size 3 to 8) (size 9 to 14) (size 15 to 20)
#    0.000    1.600    4.000    0.000    0.000    8.400 
#    0.000    1.000    0.000    0.000    0.000    0.000 
#    0.000    0.000    0.000    0.000    0.000    0.000 
#
# Total GULP energy -111346.225779 kJ/mol
# GULP energy per Si atom -5567.311289 kJ/mol
# Density = 2.386196 g / cm^3
# Si number density = 23.916393 Si / 1000 Ang^3
#
#
#
# Elastic Constant Matrix: (Units=GPa)
#
#
# Indices 1 2 3 4 5 6 
#
# 1 99.1740 71.6515 47.9429 0.0000 0.0000 0.0000
# 2 71.6515 99.1674 47.9450 0.0000 0.0000 0.0000
# 3 47.9429 47.9450 158.0626 0.0000 0.0000 0.0000
# 4 0.0000 0.0000 0.0000 20.2783 0.0000 0.0000
# 5 0.0000 0.0000 0.0000 0.0000 20.2806 0.0000
# 6 0.0000 0.0000 0.0000 0.0000 0.0000 42.8645
#
#
#
# Elastic Compliance Matrix: (Units=1/GPa)
#
#
# Indices 1 2 3 4 5 6 
#
# 1 0.021696 -0.014641 -0.002139 0.000000 0.000000 0.000000
# 2 -0.014641 0.021698 -0.002141 0.000000 0.000000 0.000000
# 3 -0.002139 -0.002141 0.007625 0.000000 0.000000 0.000000
# 4 0.000000 0.000000 0.000000 0.049314 0.000000 0.000000
# 5 0.000000 0.000000 0.000000 0.000000 0.049308 0.000000
# 6 0.000000 0.000000 0.000000 0.000000 0.000000 0.023329
#
#
# Mechanical properties :
#
#
# Convention : Reuss Voigt Hill
#
# Bulk Modulus (GPa) = 75.89943 76.83142 76.36542
# Shear Modulus (GPa) = 23.23370 29.27565 26.25467
#
# Velocity S-wave (km/s) = 3.12020 3.50249 3.31685
# Velocity P-wave (km/s) = 6.69216 6.96787 6.83141
#
# Compressibility (1/GPa) = 0.01317533
#
# Stress axis : x y z
#
# Youngs Moduli (GPa) = 46.09192 46.08760 131.15014
#
# Poissons Ratio (x) = 0.67479 0.28059
# Poissons Ratio (y) = 0.67485 0.28074
# Poissons Ratio (z) = 0.09861 0.09865
#
# Static dielectric constant tensor:
#      x y z
#    x 1.921160 0.000000 0.000000 
#    y 0.000000 1.921160 0.000000 
#    z 0.000000 0.000000 2.184660 
# 
# From -- ./inp_files/174.got.cif
#   From: 2010.05.17/outbox.cif.g08.bks.cpg/sg121_1_cif.got.tgz:174.got - 2010.05.20 11:32:06.
