data_PCOD9560656
_publ_section_title
;
Structure prediction by ZEFSAII (Michael W. Deem and Ramdas Pophale) SiO2 
 PCOD9560656
Probable space group: I -4 2 M
;
_chemical_formula_sum "Si O2"
_cell_formula_units_Z 46
_cell_length_a 13.607527
_cell_length_b 13.607527
_cell_length_c 13.607544
_cell_angle_alpha 90.000000
_cell_angle_beta 90.000000
_cell_angle_gamma 90.000000
_cell_volume 2519.638042
_symmetry_space_group_name_H-M "I -4 2 M"
_symmetry_group_IT_number 121
_symmetry_cell_setting 'tetragonal'
loop_
_space_group_symop_operation_xyz
x,y,z
y,-x,-z
-x,-y,z
-y,x,-z
x,-y,-z
-x,y,-z
-y,-x,z
y,x,z
1/2+x,1/2+y,1/2+z
1/2+y,1/2-x,1/2-z
1/2-x,1/2-y,1/2+z
1/2-y,1/2+x,1/2-z
1/2+x,1/2-y,1/2-z
1/2-x,1/2+y,1/2-z
1/2-y,1/2-x,1/2+z
1/2+y,1/2+x,1/2+z
loop_
_atom_site_type_symbol
_atom_site_label
_atom_site_fract_x
_atom_site_fract_y
_atom_site_fract_z
Si Si1 0.500000 0.000000 0.750000
Si Si2 0.083946 0.083946 0.358902
Si Si3 0.500000 0.500000 0.500000
Si Si4 0.750002 0.500000 0.000000
Si Si5 0.416054 0.858899 0.416053
Si Si6 0.635698 0.364303 0.364300
O O1 0.456773 0.083428 0.678679
O O2 0.178681 0.043230 0.416574
O O3 0.111709 0.111709 0.248471
O O4 0.000000 0.000000 0.360703
O O5 0.567784 0.432217 0.432216
O O6 0.821322 0.583427 0.043230
O O7 0.500000 0.860695 0.500000
O O8 0.388289 0.748469 0.388286
#
# Coordination Sequence:
#
# PCOD9560656 Si02
#       6
#     4   8   2   8  16   8
#     4  12  22  48  68 102 136 176 218 288 332 402
#     4  12  25  45  71  98 139 174 226 279 338 396
#     4  12  24  48  64  86 160 168 228 268 332 394
#     4  12  22  48  68 102 136 176 218 288 332 402
#     4  12  25  45  71  98 139 174 226 279 338 396
#     4  12  27  45  67 101 127 192 219 274 329 415
#
# _framework density 18.256589999999999
#
# number of rings (size 3 to 8) (size 9 to 14) (size 15 to 20)
#    0.000    0.000    7.826    3.130    0.000    0.000 
#    0.000    0.000    0.000    0.000    0.000    0.000 
#    0.000    0.000    0.000    0.000    0.000    0.000 
#
# Total GULP energy -128746.847934 kJ/mol
# GULP energy per Si atom -5597.689041 kJ/mol
# Density = 1.821504 g / cm^3
# Si number density = 18.256590 Si / 1000 Ang^3
#
#
#
# Elastic Constant Matrix: (Units=GPa)
#
#
# Indices 1 2 3 4 5 6 
#
# 1 199.8660 118.2782 118.2801 0.0000 0.0000 0.0000
# 2 118.2782 199.8642 118.2803 0.0000 0.0000 0.0000
# 3 118.2801 118.2803 199.8712 0.0000 0.0000 0.0000
# 4 0.0000 0.0000 0.0000 36.3134 0.0000 0.0000
# 5 0.0000 0.0000 0.0000 0.0000 36.3133 0.0000
# 6 0.0000 0.0000 0.0000 0.0000 0.0000 36.3141
#
#
#
# Elastic Compliance Matrix: (Units=1/GPa)
#
#
# Indices 1 2 3 4 5 6 
#
# 1 0.008935 -0.003322 -0.003322 0.000000 0.000000 0.000000
# 2 -0.003322 0.008935 -0.003322 0.000000 0.000000 0.000000
# 3 -0.003322 -0.003322 0.008935 0.000000 0.000000 0.000000
# 4 0.000000 0.000000 0.000000 0.027538 0.000000 0.000000
# 5 0.000000 0.000000 0.000000 0.000000 0.027538 0.000000
# 6 0.000000 0.000000 0.000000 0.000000 0.000000 0.027538
#
#
# Mechanical properties :
#
#
# Convention : Reuss Voigt Hill
#
# Bulk Modulus (GPa) = 145.47540 145.47540 145.47540
# Shear Modulus (GPa) = 37.98218 38.10570 38.04394
#
# Velocity S-wave (km/s) = 4.56616 4.57358 4.56987
# Velocity P-wave (km/s) = 10.37577 10.38012 10.37794
#
# Compressibility (1/GPa) = 0.00687401
#
# Stress axis : x y z
#
# Youngs Moduli (GPa) = 111.91982 111.91806 111.92212
#
# Poissons Ratio (x) = 0.37177 0.37178
# Poissons Ratio (y) = 0.37178 0.37179
# Poissons Ratio (z) = 0.37177 0.37177
#
# Static dielectric constant tensor:
#      x y z
#    x 1.595260 0.000000 0.000000 
#    y 0.000000 1.595260 0.000000 
#    z 0.000000 0.000000 1.595260 
# 
# From -- ./inp_files/3913.got.cif
#   From: 2010.05.17/outbox.cif.g08.bks.cpg/sg121_2_cif.got.tgz:3913.got - 2010.05.20 11:32:06.
