data_PCOD9560312
_publ_section_title
;
Structure prediction by ZEFSAII (Michael W. Deem and Ramdas Pophale) SiO2 
 PCOD9560312
Probable space group: I -4 2 M
;
_chemical_formula_sum "Si O2"
_cell_formula_units_Z 128
_cell_length_a 19.639087
_cell_length_b 19.639087
_cell_length_c 20.165274
_cell_angle_alpha 90.000000
_cell_angle_beta 90.000000
_cell_angle_gamma 90.000000
_cell_volume 7777.619911
_symmetry_space_group_name_H-M "I -4 2 M"
_symmetry_group_IT_number 121
_symmetry_cell_setting 'tetragonal'
loop_
_space_group_symop_operation_xyz
x,y,z
y,-x,-z
-x,-y,z
-y,x,-z
x,-y,-z
-x,y,-z
-y,-x,z
y,x,z
1/2+x,1/2+y,1/2+z
1/2+y,1/2-x,1/2-z
1/2-x,1/2-y,1/2+z
1/2-y,1/2+x,1/2-z
1/2+x,1/2-y,1/2-z
1/2-x,1/2+y,1/2-z
1/2-y,1/2-x,1/2+z
1/2+y,1/2+x,1/2+z
loop_
_atom_site_type_symbol
_atom_site_label
_atom_site_fract_x
_atom_site_fract_y
_atom_site_fract_z
Si Si1 0.238493 0.354849 0.035630
Si Si2 0.135788 0.251131 0.689679
Si Si3 0.831318 0.052136 0.060587
Si Si4 0.835284 0.720080 0.296187
Si Si5 0.162574 0.279282 0.930928
Si Si6 0.284995 0.481064 0.804768
Si Si7 0.500377 0.610315 0.306493
Si Si8 0.333425 0.553785 0.049758
O O1 0.296574 0.296574 0.033880
O O2 0.226429 0.367135 0.112826
O O3 0.175327 0.326268 0.994445
O O4 0.271085 0.416281 0.993706
O O5 0.180367 0.180367 0.693719
O O6 0.176585 0.304323 0.735502
O O7 0.057123 0.242358 0.710538
O O8 0.892446 0.107555 0.053163
O O9 0.760525 0.092307 0.065005
O O10 0.842996 0.015467 0.130629
O O11 0.833593 0.000000 0.000000
O O12 0.790052 0.790052 0.299790
O O13 0.819682 0.678305 0.363497
O O14 0.915114 0.737680 0.292390
O O15 0.220198 0.220198 0.931812
O O16 0.349096 0.473975 0.756345
O O17 0.308228 0.477808 0.881495
O O18 0.445081 0.554920 0.327348
O O19 0.569253 0.569253 0.289263
O O20 0.384661 0.615340 0.065211
O O21 0.367591 0.500000 0.000000
#
# Coordination Sequence:
#
# PCOD9560312 Si02
#       8
#    16  16  16  16  16  16  16  16
#     4   9  17  32  50  71 101 136 173 217 263 306
#     4  10  21  35  53  79 112 145 180 228 279 324
#     4  10  20  34  53  76 104 141 180 222 277 337
#     4  10  20  35  54  78 106 140 184 230 275 324
#     4   9  17  31  51  72  98 133 174 224 273 313
#     4  12  21  34  57  79 107 148 192 227 267 328
#     4  10  21  34  48  73 111 148 180 218 268 330
#     4  11  21  33  50  77 112 147 182 216 256 315
#
# _framework density 16.457476
#
# number of rings (size 3 to 8) (size 9 to 14) (size 15 to 20)
#    0.000    1.875    2.500    2.625    0.000    4.250 
#    0.000    2.500    0.000    0.375    0.000    0.000 
#    0.000    0.500    0.000    0.000    0.000    0.000 
#
# Total GULP energy -356801.016856 kJ/mol
# GULP energy per Si atom -5575.015888 kJ/mol
# Density = 1.642002 g / cm^3
# Si number density = 16.457476 Si / 1000 Ang^3
#
#
#
# Elastic Constant Matrix: (Units=GPa)
#
#
# Indices 1 2 3 4 5 6 
#
# 1 64.2225 38.8117 37.9852 0.0000 0.0000 0.0000
# 2 38.8117 64.2237 37.9836 0.0000 0.0000 0.0000
# 3 37.9852 37.9836 70.6882 0.0000 0.0000 0.0000
# 4 0.0000 0.0000 0.0000 24.0018 0.0000 0.0000
# 5 0.0000 0.0000 0.0000 0.0000 24.0020 0.0000
# 6 0.0000 0.0000 0.0000 0.0000 0.0000 17.3243
#
#
#
# Elastic Compliance Matrix: (Units=1/GPa)
#
#
# Indices 1 2 3 4 5 6 
#
# 1 0.027714 -0.011639 -0.008638 0.000000 0.000000 0.000000
# 2 -0.011639 0.027712 -0.008636 0.000000 0.000000 0.000000
# 3 -0.008638 -0.008636 0.023429 0.000000 0.000000 0.000000
# 4 0.000000 0.000000 0.000000 0.041664 0.000000 0.000000
# 5 0.000000 0.000000 0.000000 0.000000 0.041663 0.000000
# 6 0.000000 0.000000 0.000000 0.000000 0.000000 0.057722
#
#
# Mechanical properties :
#
#
# Convention : Reuss Voigt Hill
#
# Bulk Modulus (GPa) = 47.55645 47.63283 47.59464
# Shear Modulus (GPa) = 17.55977 18.68920 18.12449
#
# Velocity S-wave (km/s) = 3.27001 3.37353 3.32217
# Velocity P-wave (km/s) = 6.57393 6.64681 6.61047
#
# Compressibility (1/GPa) = 0.02102764
#
# Stress axis : x y z
#
# Youngs Moduli (GPa) = 36.08274 36.08520 42.68185
#
# Poissons Ratio (x) = 0.42001 0.36870
# Poissons Ratio (y) = 0.41998 0.36861
# Poissons Ratio (z) = 0.31169 0.31164
#
# Static dielectric constant tensor:
#      x y z
#    x 1.560590 0.000000 0.000000 
#    y 0.000000 1.560580 0.000000 
#    z 0.000000 0.000000 1.551530 
# 
# From -- ./inp_files/5658.got.cif
#   From: 2010.05.17/outbox.cif.g08.bks.cpg/sg121_3_cif.got.tgz:5658.got - 2010.05.20 11:32:06.
