data_PCOD9560142
_publ_section_title
;
Structure prediction by ZEFSAII (Michael W. Deem and Ramdas Pophale) SiO2 
 PCOD9560142
Probable space group: I -4 2 M
;
_chemical_formula_sum "Si O2"
_cell_formula_units_Z 96
_cell_length_a 24.698325
_cell_length_b 24.698325
_cell_length_c 8.637704
_cell_angle_alpha 90.000000
_cell_angle_beta 90.000000
_cell_angle_gamma 90.000000
_cell_volume 5269.062131
_symmetry_space_group_name_H-M "I -4 2 M"
_symmetry_group_IT_number 121
_symmetry_cell_setting 'tetragonal'
loop_
_space_group_symop_operation_xyz
x,y,z
y,-x,-z
-x,-y,z
-y,x,-z
x,-y,-z
-x,y,-z
-y,-x,z
y,x,z
1/2+x,1/2+y,1/2+z
1/2+y,1/2-x,1/2-z
1/2-x,1/2-y,1/2+z
1/2-y,1/2+x,1/2-z
1/2+x,1/2-y,1/2-z
1/2-x,1/2+y,1/2-z
1/2-y,1/2-x,1/2+z
1/2+y,1/2+x,1/2+z
loop_
_atom_site_type_symbol
_atom_site_label
_atom_site_fract_x
_atom_site_fract_y
_atom_site_fract_z
Si Si1 0.679544 0.232362 0.159756
Si Si2 0.783388 0.539842 0.372561
Si Si3 0.704033 0.382179 0.434360
Si Si4 0.025327 0.184407 0.265712
Si Si5 0.421493 0.666079 0.906964
Si Si6 0.721129 0.128752 0.338184
O O1 0.724230 0.275771 0.100586
O O2 0.645032 0.263286 0.291392
O O3 0.708841 0.182142 0.240393
O O4 0.643856 0.210897 0.017190
O O5 0.811026 0.500000 0.500000
O O6 0.747794 0.585740 0.462867
O O7 0.742189 0.499001 0.286147
O O8 0.809812 0.577325 0.239194
O O9 0.664640 0.335361 0.500559
O O10 0.668228 0.430571 0.360322
O O11 0.054215 0.186803 0.431208
O O12 0.970899 0.150619 0.294325
O O13 0.383659 0.616341 0.939508
O O14 0.387529 0.715624 0.838603
#
# Coordination Sequence:
#
# PCOD9560142 Si02
#       6
#    16  16  16  16  16  16
#     4  11  21  31  48  76 109 141 171 210 267 329
#     4   9  20  35  49  70  96 130 181 221 257 313
#     4  10  19  33  51  71  99 133 172 220 268 321
#     4   9  18  31  49  70  92 127 175 224 269 321
#     4  10  18  31  51  72  94 127 176 229 269 314
#     4  11  21  33  49  72 104 135 169 215 259 311
#
# _framework density 18.219560999999999
#
# number of rings (size 3 to 8) (size 9 to 14) (size 15 to 20)
#    0.000    2.000    1.667    3.000    0.000    5.333 
#    0.000    0.000    0.000    8.500    0.000    0.000 
#    0.000    0.000    0.000    0.000    0.000  480.000 
#
# Total GULP energy -267254.093130 kJ/mol
# GULP energy per Si atom -5567.793607 kJ/mol
# Density = 1.817809 g / cm^3
# Si number density = 18.219561 Si / 1000 Ang^3
#
#
#
# Elastic Constant Matrix: (Units=GPa)
#
#
# Indices 1 2 3 4 5 6 
#
# 1 57.3511 27.6929 21.4830 0.0000 0.0000 0.0000
# 2 27.6929 57.3523 21.4829 0.0000 0.0000 0.0000
# 3 21.4830 21.4829 65.9289 0.0000 0.0000 0.0000
# 4 0.0000 0.0000 0.0000 23.9801 0.0000 0.0000
# 5 0.0000 0.0000 0.0000 0.0000 23.9801 0.0000
# 6 0.0000 0.0000 0.0000 0.0000 0.0000 1.6025
#
#
#
# Elastic Compliance Matrix: (Units=1/GPa)
#
#
# Indices 1 2 3 4 5 6 
#
# 1 0.023897 -0.009820 -0.004587 0.000000 0.000000 0.000000
# 2 -0.009820 0.023896 -0.004586 0.000000 0.000000 0.000000
# 3 -0.004587 -0.004586 0.018157 0.000000 0.000000 0.000000
# 4 0.000000 0.000000 0.000000 0.041701 0.000000 0.000000
# 5 0.000000 0.000000 0.000000 0.000000 0.041701 0.000000
# 6 0.000000 0.000000 0.000000 0.000000 0.000000 0.624006
#
#
# Mechanical properties :
#
#
# Convention : Reuss Voigt Hill
#
# Bulk Modulus (GPa) = 35.76270 35.77221 35.76745
# Shear Modulus (GPa) = 6.09261 17.24413 11.66837
#
# Velocity S-wave (km/s) = 1.83064 3.07980 2.53342
# Velocity P-wave (km/s) = 4.91322 5.68537 5.31334
#
# Compressibility (1/GPa) = 0.02796210
#
# Stress axis : x y z
#
# Youngs Moduli (GPa) = 41.84704 41.84810 55.07542
#
# Poissons Ratio (x) = 0.41097 0.25261
# Poissons Ratio (y) = 0.41096 0.25260
# Poissons Ratio (z) = 0.19194 0.19194
#
# Static dielectric constant tensor:
#      x y z
#    x 1.638780 0.000000 0.000000 
#    y 0.000000 1.638770 0.000000 
#    z 0.000000 0.000000 1.748750 
# 
# From -- ./inp_files/1969.got.cif
#   From: 2010.05.17/outbox.cif.g08.bks.cpg/sg121_1_cif.got.tgz:1969.got - 2010.05.20 11:32:06.
