data_PCOD9560123
_publ_section_title
;
Structure prediction by ZEFSAII (Michael W. Deem and Ramdas Pophale) SiO2 
 PCOD9560123
Probable space group: I -4 2 M
;
_chemical_formula_sum "Si O2"
_cell_formula_units_Z 60
_cell_length_a 13.714105
_cell_length_b 13.714105
_cell_length_c 18.016923
_cell_angle_alpha 90.000000
_cell_angle_beta 90.000000
_cell_angle_gamma 90.000000
_cell_volume 3388.562989
_symmetry_space_group_name_H-M "I -4 2 M"
_symmetry_group_IT_number 121
_symmetry_cell_setting 'tetragonal'
loop_
_space_group_symop_operation_xyz
x,y,z
y,-x,-z
-x,-y,z
-y,x,-z
x,-y,-z
-x,y,-z
-y,-x,z
y,x,z
1/2+x,1/2+y,1/2+z
1/2+y,1/2-x,1/2-z
1/2-x,1/2-y,1/2+z
1/2-y,1/2+x,1/2-z
1/2+x,1/2-y,1/2-z
1/2-x,1/2+y,1/2-z
1/2-y,1/2-x,1/2+z
1/2+y,1/2+x,1/2+z
loop_
_atom_site_type_symbol
_atom_site_label
_atom_site_fract_x
_atom_site_fract_y
_atom_site_fract_z
Si Si1 0.776736 0.223265 0.464905
Si Si2 0.102304 0.405646 0.041142
Si Si3 0.428707 0.871353 0.785096
Si Si4 0.841406 0.841406 0.698246
Si Si5 0.095841 0.904160 0.545459
Si Si6 0.000000 0.000000 0.682182
O O1 0.808552 0.333991 0.464430
O O2 0.826783 0.173218 0.391598
O O3 0.823647 0.176354 0.537799
O O4 0.099502 0.428961 0.128146
O O5 0.148340 0.500000 0.000000
O O6 0.000000 0.392640 0.000000
O O7 0.540394 0.873575 0.756794
O O8 0.378017 0.765585 0.775853
O O9 0.923314 0.923314 0.717288
O O10 0.000000 0.872197 0.500000
O O11 0.065874 0.934127 0.627188
#
# Coordination Sequence:
#
# PCOD9560123 Si02
#       6
#     8  16  16   8   8   4
#     4  10  18  29  50  79 108 143 169 216 280 327
#     4  10  20  34  54  81 108 139 177 225 270 321
#     4  10  21  39  55  74 111 150 185 224 272 334
#     4  10  21  33  55  78 105 145 188 226 275 324
#     4   9  14  24  44  69 115 132 148 201 288 328
#     4  10  19  30  46  84 108 136 171 226 276 338
#
# _framework density 17.706620000000001
#
# number of rings (size 3 to 8) (size 9 to 14) (size 15 to 20)
#    0.000    2.267    2.667    4.000    3.733    1.067 
#    0.000    5.333    0.000    0.400    0.000    5.600 
#    0.000    0.000    0.000    0.000    0.000    0.000 
#
# Total GULP energy -167060.120792 kJ/mol
# GULP energy per Si atom -5568.670693 kJ/mol
# Density = 1.766632 g / cm^3
# Si number density = 17.706620 Si / 1000 Ang^3
#
#
#
# Elastic Constant Matrix: (Units=GPa)
#
#
# Indices 1 2 3 4 5 6 
#
# 1 124.0027 84.8647 45.1818 0.0000 0.0000 0.0000
# 2 84.8647 124.0044 45.1823 0.0000 0.0000 0.0000
# 3 45.1818 45.1823 83.4522 0.0000 0.0000 0.0000
# 4 0.0000 0.0000 0.0000 4.3306 0.0000 0.0000
# 5 0.0000 0.0000 0.0000 0.0000 4.3247 0.0000
# 6 0.0000 0.0000 0.0000 0.0000 0.0000 33.0815
#
#
#
# Elastic Compliance Matrix: (Units=1/GPa)
#
#
# Indices 1 2 3 4 5 6 
#
# 1 0.015901 -0.009649 -0.003385 0.000000 0.000000 0.000000
# 2 -0.009649 0.015901 -0.003385 0.000000 0.000000 0.000000
# 3 -0.003385 -0.003385 0.015648 0.000000 0.000000 0.000000
# 4 0.000000 0.000000 0.000000 0.230915 0.000000 0.000000
# 5 0.000000 0.000000 0.000000 0.000000 0.231229 0.000000
# 6 0.000000 0.000000 0.000000 0.000000 0.000000 0.030228
#
#
# Mechanical properties :
#
#
# Convention : Reuss Voigt Hill
#
# Bulk Modulus (GPa) = 68.43406 75.76856 72.10131
# Shear Modulus (GPa) = 8.65752 18.76272 13.71012
#
# Velocity S-wave (km/s) = 2.21360 3.25875 2.78563
# Velocity P-wave (km/s) = 6.72801 7.55270 7.15225
#
# Compressibility (1/GPa) = 0.01461261
#
# Stress axis : x y z
#
# Youngs Moduli (GPa) = 62.88825 62.88892 63.90483
#
# Poissons Ratio (x) = 0.60681 0.21632
# Poissons Ratio (y) = 0.60681 0.21632
# Poissons Ratio (z) = 0.21288 0.21288
#
# Static dielectric constant tensor:
#      x y z
#    x 1.649980 0.000000 0.000000 
#    y 0.000000 1.649980 0.000000 
#    z 0.000000 0.000000 1.607440 
# 
# From -- ./inp_files/4123.got.cif
#   From: 2010.05.17/outbox.cif.g08.bks.cpg/sg121_3_cif.got.tgz:4123.got - 2010.05.20 11:32:06.
