data_PCOD9560695
_publ_section_title
;
Structure prediction by ZEFSAII (Michael W. Deem and Ramdas Pophale) SiO2 
 PCOD9560695
Probable space group: I -4 2 D
;
_chemical_formula_sum "Si O2"
_cell_formula_units_Z 84
_cell_length_a 22.042774
_cell_length_b 22.042774
_cell_length_c 7.456198
_cell_angle_alpha 90.000000
_cell_angle_beta 90.000000
_cell_angle_gamma 90.000000
_cell_volume 3622.846456
_symmetry_space_group_name_H-M "I -4 2 D"
_symmetry_group_IT_number 122
_symmetry_cell_setting 'tetragonal'
loop_
_space_group_symop_operation_xyz
x,y,z
y,-x,-z
-x,-y,z
-y,x,-z
x,1/2-y,1/4-z
-x,1/2+y,1/4-z
-y,1/2-x,1/4+z
y,1/2+x,1/4+z
1/2+x,1/2+y,1/2+z
1/2+y,1/2-x,1/2-z
1/2-x,1/2-y,1/2+z
1/2-y,1/2+x,1/2-z
1/2+x,-y,3/4-z
1/2-x,y,3/4-z
1/2-y,-x,3/4+z
1/2+y,x,3/4+z
loop_
_atom_site_type_symbol
_atom_site_label
_atom_site_fract_x
_atom_site_fract_y
_atom_site_fract_z
Si Si1 0.625240 0.410764 0.709310
Si Si2 0.318412 0.275543 0.424648
Si Si3 0.500000 0.000000 0.250000
Si Si4 0.319722 0.472523 0.843191
Si Si5 0.849103 0.373434 0.630421
Si Si6 0.383929 0.505027 0.212089
O O1 0.669796 0.364321 0.611585
O O2 0.648341 0.480655 0.705140
O O3 0.554008 0.398514 0.667387
O O4 0.632450 0.397219 0.922354
O O5 0.318795 0.250000 0.625000
O O6 0.250000 0.292761 0.375000
O O7 0.341790 0.214563 0.328673
O O8 0.448893 0.974690 0.118796
O O9 0.250000 0.488532 0.875000
O O10 0.329466 0.401330 0.803053
O O11 0.347831 0.480769 0.040236
O O12 0.849138 0.432276 0.497275
#
# Coordination Sequence:
#
# PCOD9560695 Si02
#       6
#    16  16   4  16  16  16
#     4  10  19  36  60  90 125 160 207 262 319 388
#     4  12  26  44  62  84 119 171 223 279 345 404
#     4  12  12  32  56 100 134 156 204 252 318 376
#     4  10  17  27  52  89 122 159 201 252 301 371
#     4  10  19  36  60  92 125 162 207 256 326 394
#     4  10  17  30  57  91 126 157 197 255 310 376
#
# _framework density 23.186188000000001
#
# number of rings (size 3 to 8) (size 9 to 14) (size 15 to 20)
#    0.000    1.524    5.714    4.571    0.000    1.524 
#    0.000    2.857    0.000    0.000    0.000    2.667 
#    0.000    0.000    0.000    0.000    0.000    0.000 
#
# Total GULP energy -234191.413834 kJ/mol
# GULP energy per Si atom -5575.986044 kJ/mol
# Density = 2.313342 g / cm^3
# Si number density = 23.186188 Si / 1000 Ang^3
#
#
#
# Elastic Constant Matrix: (Units=GPa)
#
#
# Indices 1 2 3 4 5 6 
#
# 1 121.8359 36.4224 26.0448 0.0000 0.0000 0.0000
# 2 36.4224 121.8359 26.0448 0.0000 0.0000 0.0000
# 3 26.0448 26.0448 38.3908 0.0000 0.0000 0.0000
# 4 0.0000 0.0000 0.0000 8.3514 0.0000 0.0000
# 5 0.0000 0.0000 0.0000 0.0000 8.3514 0.0000
# 6 0.0000 0.0000 0.0000 0.0000 0.0000 33.4843
#
#
#
# Elastic Compliance Matrix: (Units=1/GPa)
#
#
# Indices 1 2 3 4 5 6 
#
# 1 0.009922 -0.001786 -0.005519 0.000000 0.000000 0.000000
# 2 -0.001786 0.009922 -0.005519 0.000000 0.000000 0.000000
# 3 -0.005519 -0.005519 0.033536 0.000000 0.000000 0.000000
# 4 0.000000 0.000000 0.000000 0.119741 0.000000 0.000000
# 5 0.000000 0.000000 0.000000 0.000000 0.119741 0.000000
# 6 0.000000 0.000000 0.000000 0.000000 0.000000 0.029865
#
#
# Mechanical properties :
#
#
# Convention : Reuss Voigt Hill
#
# Bulk Modulus (GPa) = 36.06123 51.00963 43.53543
# Shear Modulus (GPa) = 13.98140 22.94079 18.46110
#
# Velocity S-wave (km/s) = 2.45828 3.14891 2.82478
# Velocity P-wave (km/s) = 4.86253 5.93874 5.42738
#
# Compressibility (1/GPa) = 0.02773062
#
# Stress axis : x y z
#
# Youngs Moduli (GPa) = 100.79061 100.79061 29.81827
#
# Poissons Ratio (x) = 0.18003 0.16457
# Poissons Ratio (y) = 0.18003 0.16457
# Poissons Ratio (z) = 0.55628 0.55628
#
# Static dielectric constant tensor:
#      x y z
#    x 2.080920 0.000000 0.000000 
#    y 0.000000 2.080920 0.000000 
#    z 0.000000 0.000000 2.194330 
# 
# From -- ./inp_files/2850.got.cif
#   From: 2010.05.17/outbox.cif.g08.bks.cpg/sg122_2_cif.got.tgz:2850.got - 2010.05.20 11:37:33.
