data_PCOD9560913
_publ_section_title
;
Structure prediction by ZEFSAII (Michael W. Deem and Ramdas Pophale) SiO2 
 PCOD9560913
Probable space group: I -4 2 D
;
_chemical_formula_sum "Si O2"
_cell_formula_units_Z 96
_cell_length_a 16.498822
_cell_length_b 16.498822
_cell_length_c 17.639560
_cell_angle_alpha 90.000000
_cell_angle_beta 90.000000
_cell_angle_gamma 90.000000
_cell_volume 4801.684514
_symmetry_space_group_name_H-M "I -4 2 D"
_symmetry_group_IT_number 122
_symmetry_cell_setting 'tetragonal'
loop_
_space_group_symop_operation_xyz
x,y,z
y,-x,-z
-x,-y,z
-y,x,-z
x,1/2-y,1/4-z
-x,1/2+y,1/4-z
-y,1/2-x,1/4+z
y,1/2+x,1/4+z
1/2+x,1/2+y,1/2+z
1/2+y,1/2-x,1/2-z
1/2-x,1/2-y,1/2+z
1/2-y,1/2+x,1/2-z
1/2+x,-y,3/4-z
1/2-x,y,3/4-z
1/2-y,-x,3/4+z
1/2+y,x,3/4+z
loop_
_atom_site_type_symbol
_atom_site_label
_atom_site_fract_x
_atom_site_fract_y
_atom_site_fract_z
Si Si1 0.462982 0.585921 0.291308
Si Si2 0.679985 0.655451 0.811937
Si Si3 0.306141 0.393000 0.466489
Si Si4 0.201435 0.264387 0.537043
Si Si5 0.430134 0.327583 0.585551
Si Si6 0.706729 0.099163 0.599552
O O1 0.500000 0.500000 0.265246
O O2 0.422166 0.637694 0.224283
O O3 0.392802 0.558751 0.348998
O O4 0.523152 0.647339 0.336817
O O5 0.750000 0.640082 0.875000
O O6 0.730426 0.704286 0.747607
O O7 0.609654 0.714840 0.845669
O O8 0.235166 0.353427 0.516022
O O9 0.382790 0.372573 0.519326
O O10 0.296181 0.486471 0.449641
O O11 0.331096 0.349588 0.387602
O O12 0.187524 0.250000 0.625000
O O13 0.123538 0.259158 0.482951
O O14 0.388357 0.250000 0.625000
#
# Coordination Sequence:
#
# PCOD9560913 Si02
#       6
#    16  16  16  16  16  16
#     4  12  24  40  63 102 136 173 223 283 343 399
#     4   9  21  43  69  88 128 182 221 274 336 408
#     4  11  21  35  57  84 128 168 207 259 323 402
#     4  10  20  39  63  92 117 167 230 270 317 401
#     4  12  24  37  58  89 131 176 211 257 334 413
#     4  10  21  41  62  89 127 166 218 274 336 391
#
# _framework density 19.992985000000001
#
# number of rings (size 3 to 8) (size 9 to 14) (size 15 to 20)
#    0.000    1.333    1.667    7.000    0.000    0.667 
#    3.000    0.000    0.000    0.000    0.000    0.000 
#    0.000    0.000    0.000    0.000    0.000    0.000 
#
# Total GULP energy -267740.037796 kJ/mol
# GULP energy per Si atom -5577.917454 kJ/mol
# Density = 1.994748 g / cm^3
# Si number density = 19.992985 Si / 1000 Ang^3
#
#
#
# Elastic Constant Matrix: (Units=GPa)
#
#
# Indices 1 2 3 4 5 6 
#
# 1 72.5207 24.3199 19.7151 0.0000 0.0000 0.0000
# 2 24.3199 72.5207 19.7151 0.0000 0.0000 0.0000
# 3 19.7151 19.7151 119.5076 0.0000 0.0000 0.0000
# 4 0.0000 0.0000 0.0000 28.7982 0.0000 0.0000
# 5 0.0000 0.0000 0.0000 0.0000 28.7982 0.0000
# 6 0.0000 0.0000 0.0000 0.0000 0.0000 31.4971
#
#
#
# Elastic Compliance Matrix: (Units=1/GPa)
#
#
# Indices 1 2 3 4 5 6 
#
# 1 0.015908 -0.004838 -0.001826 0.000000 0.000000 0.000000
# 2 -0.004838 0.015908 -0.001826 0.000000 0.000000 0.000000
# 3 -0.001826 -0.001826 0.008970 0.000000 0.000000 0.000000
# 4 0.000000 0.000000 0.000000 0.034724 0.000000 0.000000
# 5 0.000000 0.000000 0.000000 0.000000 0.034724 0.000000
# 6 0.000000 0.000000 0.000000 0.000000 0.000000 0.031749
#
#
# Mechanical properties :
#
#
# Convention : Reuss Voigt Hill
#
# Bulk Modulus (GPa) = 42.00780 43.56101 42.78440
# Shear Modulus (GPa) = 29.95791 31.20529 30.58160
#
# Velocity S-wave (km/s) = 3.87514 3.95500 3.91527
# Velocity P-wave (km/s) = 6.40931 6.53387 6.47189
#
# Compressibility (1/GPa) = 0.02380510
#
# Stress axis : x y z
#
# Youngs Moduli (GPa) = 62.86073 62.86073 111.48031
#
# Poissons Ratio (x) = 0.30414 0.20358
# Poissons Ratio (y) = 0.30414 0.20358
# Poissons Ratio (z) = 0.11480 0.11480
#
# Static dielectric constant tensor:
#      x y z
#    x 1.733450 0.000000 0.000000 
#    y 0.000000 1.733450 0.000000 
#    z 0.000000 0.000000 1.735350 
# 
# From -- ./inp_files/6310.got.cif
#   From: 2010.05.17/outbox.cif.g08.bks.cpg/sg122_4_cif.got.tgz:6310.got - 2010.05.20 11:37:33.
