data_PCOD9560473
_publ_section_title
;
Structure prediction by ZEFSAII (Michael W. Deem and Ramdas Pophale) SiO2 
 PCOD9560473
Probable space group: I -4 2 M
;
_chemical_formula_sum "Si O2"
_cell_formula_units_Z 96
_cell_length_a 20.148560
_cell_length_b 20.148560
_cell_length_c 12.189557
_cell_angle_alpha 90.000000
_cell_angle_beta 90.000000
_cell_angle_gamma 90.000000
_cell_volume 4948.527048
_symmetry_space_group_name_H-M "I -4 2 M"
_symmetry_group_IT_number 121
_symmetry_cell_setting 'tetragonal'
loop_
_space_group_symop_operation_xyz
x,y,z
y,-x,-z
-x,-y,z
-y,x,-z
x,-y,-z
-x,y,-z
-y,-x,z
y,x,z
1/2+x,1/2+y,1/2+z
1/2+y,1/2-x,1/2-z
1/2-x,1/2-y,1/2+z
1/2-y,1/2+x,1/2-z
1/2+x,1/2-y,1/2-z
1/2-x,1/2+y,1/2-z
1/2-y,1/2-x,1/2+z
1/2+y,1/2+x,1/2+z
loop_
_atom_site_type_symbol
_atom_site_label
_atom_site_fract_x
_atom_site_fract_y
_atom_site_fract_z
Si Si1 0.776454 0.118487 0.560043
Si Si2 0.427309 0.171287 0.541618
Si Si3 0.190806 0.405750 0.145826
Si Si4 0.745404 0.477328 0.259175
Si Si5 0.609345 0.501012 0.631127
Si Si6 0.668791 0.226409 0.639181
O O1 0.846356 0.153644 0.541512
O O2 0.746059 0.090572 0.448462
O O3 0.777494 0.066496 0.657346
O O4 0.724617 0.174797 0.599593
O O5 0.500000 0.149013 0.500000
O O6 0.378157 0.113868 0.586997
O O7 0.436540 0.221915 0.642080
O O8 0.392039 0.210362 0.441757
O O9 0.197826 0.473420 0.213644
O O10 0.210168 0.350335 0.235808
O O11 0.678570 0.509478 0.307448
O O12 0.620934 0.500000 0.500000
O O13 0.557357 0.442644 0.656364
O O14 0.570517 0.570517 0.656591
O O15 0.700745 0.299255 0.628888
#
# Coordination Sequence:
#
# PCOD9560473 Si02
#       6
#    16  16  16  16  16  16
#     4  10  22  39  60  90 124 160 206 257 319 389
#     4  11  23  42  64  93 126 168 223 271 329 391
#     4  11  23  40  63  90 130 166 209 268 323 386
#     4  12  22  39  64  94 122 171 214 268 324 386
#     4   9  20  38  59  90 133 174 214 263 319 386
#     4  10  21  38  63  95 128 162 203 267 331 384
#
# _framework density 19.399712000000001
#
# number of rings (size 3 to 8) (size 9 to 14) (size 15 to 20)
#    0.000    1.500    3.333    2.500    0.000    3.333 
#    0.000    0.000    0.000   16.500    0.000    2.333 
#    0.000    0.000    0.000    0.000    0.000    0.000 
#
# Total GULP energy -267907.343546 kJ/mol
# GULP energy per Si atom -5581.402991 kJ/mol
# Density = 1.935556 g / cm^3
# Si number density = 19.399712 Si / 1000 Ang^3
#
#
#
# Elastic Constant Matrix: (Units=GPa)
#
#
# Indices 1 2 3 4 5 6 
#
# 1 80.2992 35.7519 31.5770 0.0000 0.0000 0.0000
# 2 35.7519 80.2994 31.5765 0.0000 0.0000 0.0000
# 3 31.5770 31.5765 107.9803 0.0000 0.0000 0.0000
# 4 0.0000 0.0000 0.0000 24.3421 0.0000 0.0000
# 5 0.0000 0.0000 0.0000 0.0000 24.3335 0.0000
# 6 0.0000 0.0000 0.0000 0.0000 0.0000 12.7877
#
#
#
# Elastic Compliance Matrix: (Units=1/GPa)
#
#
# Indices 1 2 3 4 5 6 
#
# 1 0.016348 -0.006100 -0.002997 0.000000 0.000000 0.000000
# 2 -0.006100 0.016348 -0.002997 0.000000 0.000000 0.000000
# 3 -0.002997 -0.002997 0.011014 0.000000 0.000000 0.000000
# 4 0.000000 0.000000 0.000000 0.041081 0.000000 0.000000
# 5 0.000000 0.000000 0.000000 0.000000 0.041096 0.000000
# 6 0.000000 0.000000 0.000000 0.000000 0.000000 0.078200
#
#
# Mechanical properties :
#
#
# Convention : Reuss Voigt Hill
#
# Bulk Modulus (GPa) = 51.22418 51.82107 51.52262
# Shear Modulus (GPa) = 21.29649 23.60423 22.45036
#
# Velocity S-wave (km/s) = 3.31686 3.49195 3.40553
# Velocity P-wave (km/s) = 6.41332 6.55962 6.48688
#
# Compressibility (1/GPa) = 0.01952203
#
# Stress axis : x y z
#
# Youngs Moduli (GPa) = 61.17003 61.17039 90.79665
#
# Poissons Ratio (x) = 0.37315 0.27210
# Poissons Ratio (y) = 0.37315 0.27209
# Poissons Ratio (z) = 0.18331 0.18331
#
# Static dielectric constant tensor:
#      x y z
#    x 1.694100 0.000000 0.000000 
#    y 0.000000 1.694100 0.000000 
#    z 0.000000 0.000000 1.645540 
# 
# From -- ./inp_files/3327.got.cif
#   From: 2010.05.17/outbox.cif.g08.bks.cpg/sg121_2_cif.got.tgz:3327.got - 2010.05.20 11:32:06.
