data_PCOD9560505
_publ_section_title
;
Structure prediction by ZEFSAII (Michael W. Deem and Ramdas Pophale) SiO2 
 PCOD9560505
Probable space group: I -4 2 M
;
_chemical_formula_sum "Si O2"
_cell_formula_units_Z 80
_cell_length_a 17.981111
_cell_length_b 17.981111
_cell_length_c 14.693741
_cell_angle_alpha 90.000000
_cell_angle_beta 90.000000
_cell_angle_gamma 90.000000
_cell_volume 4750.785524
_symmetry_space_group_name_H-M "I -4 2 M"
_symmetry_group_IT_number 121
_symmetry_cell_setting 'tetragonal'
loop_
_space_group_symop_operation_xyz
x,y,z
y,-x,-z
-x,-y,z
-y,x,-z
x,-y,-z
-x,y,-z
-y,-x,z
y,x,z
1/2+x,1/2+y,1/2+z
1/2+y,1/2-x,1/2-z
1/2-x,1/2-y,1/2+z
1/2-y,1/2+x,1/2-z
1/2+x,1/2-y,1/2-z
1/2-x,1/2+y,1/2-z
1/2-y,1/2-x,1/2+z
1/2+y,1/2+x,1/2+z
loop_
_atom_site_type_symbol
_atom_site_label
_atom_site_fract_x
_atom_site_fract_y
_atom_site_fract_z
Si Si1 0.155714 0.727515 0.971325
Si Si2 0.868850 0.753499 0.659508
Si Si3 0.338128 0.005355 0.609457
Si Si4 0.373941 0.034835 0.098807
Si Si5 0.842027 0.622684 0.334625
O O1 0.190648 0.809353 0.961401
O O2 0.216020 0.672034 0.926638
O O3 0.081104 0.701556 0.919934
O O4 0.142817 0.705346 0.075688
O O5 0.835032 0.835032 0.671326
O O6 0.954786 0.737226 0.641938
O O7 0.850225 0.703296 0.747654
O O8 0.408536 0.060927 0.629328
O O9 0.337975 0.000000 0.500000
O O10 0.345587 0.924564 0.652590
O O11 0.356180 0.966340 0.163980
O O12 0.396471 0.000000 0.000000
#
# Coordination Sequence:
#
# PCOD9560505 Si02
#       5
#    16  16  16  16  16
#     4   9  18  33  48  66 103 144 174 218 255 307
#     4  10  22  35  48  72 108 142 180 222 257 322
#     4  11  19  33  50  75 106 141 177 215 266 324
#     4   9  17  29  46  71 106 137 165 213 257 317
#     4  11  20  31  52  75 105 143 179 210 273 323
#
# _framework density 16.839320000000001
#
# number of rings (size 3 to 8) (size 9 to 14) (size 15 to 20)
#    0.000    2.000    6.000    1.200    5.600    0.000 
#    0.000    0.000    0.000    0.000    0.000    0.000 
#    0.000   59.200    0.000    0.000    0.000    0.000 
#
# Total GULP energy -222870.836408 kJ/mol
# GULP energy per Si atom -5571.770910 kJ/mol
# Density = 1.680099 g / cm^3
# Si number density = 16.839320 Si / 1000 Ang^3
#
#
#
# Elastic Constant Matrix: (Units=GPa)
#
#
# Indices 1 2 3 4 5 6 
#
# 1 58.1963 53.3991 5.4379 0.0000 0.0000 0.0000
# 2 53.3991 58.1951 5.4383 0.0000 0.0000 0.0000
# 3 5.4379 5.4383 51.9375 0.0000 0.0000 0.0000
# 4 0.0000 0.0000 0.0000 9.2388 0.0000 0.0000
# 5 0.0000 0.0000 0.0000 0.0000 9.2390 0.0000
# 6 0.0000 0.0000 0.0000 0.0000 0.0000 36.5211
#
#
#
# Elastic Compliance Matrix: (Units=1/GPa)
#
#
# Indices 1 2 3 4 5 6 
#
# 1 0.108766 -0.099713 -0.000947 0.000000 0.000000 0.000000
# 2 -0.099713 0.108768 -0.000949 0.000000 0.000000 0.000000
# 3 -0.000947 -0.000949 0.019452 0.000000 0.000000 0.000000
# 4 0.000000 0.000000 0.000000 0.108239 0.000000 0.000000
# 5 0.000000 0.000000 0.000000 0.000000 0.108237 0.000000
# 6 0.000000 0.000000 0.000000 0.000000 0.000000 0.027381
#
#
# Mechanical properties :
#
#
# Convention : Reuss Voigt Hill
#
# Bulk Modulus (GPa) = 29.61431 32.98661 31.30046
# Shear Modulus (GPa) = 7.19095 17.93667 12.56381
#
# Velocity S-wave (km/s) = 2.06872 3.26723 2.73445
# Velocity P-wave (km/s) = 4.83019 5.81933 5.34768
#
# Compressibility (1/GPa) = 0.03376746
#
# Stress axis : x y z
#
# Youngs Moduli (GPa) = 9.19408 9.19388 51.40747
#
# Poissons Ratio (x) = 0.91675 0.04869
# Poissons Ratio (y) = 0.91677 0.04877
# Poissons Ratio (z) = 0.00871 0.00872
#
# Static dielectric constant tensor:
#      x y z
#    x 1.590750 0.000000 0.000000 
#    y 0.000000 1.590750 0.000000 
#    z 0.000000 0.000000 1.636240 
# 
# From -- ./inp_files/4234.got.cif
#   From: 2010.05.17/outbox.cif.g08.bks.cpg/sg121_3_cif.got.tgz:4234.got - 2010.05.20 11:32:06.
