data_PCOD9560230
_publ_section_title
;
Structure prediction by ZEFSAII (Michael W. Deem and Ramdas Pophale) SiO2 
 PCOD9560230
Probable space group: I -4 2 M
;
_chemical_formula_sum "Si O2"
_cell_formula_units_Z 76
_cell_length_a 13.227815
_cell_length_b 13.227815
_cell_length_c 27.477263
_cell_angle_alpha 90.000000
_cell_angle_beta 90.000000
_cell_angle_gamma 90.000000
_cell_volume 4807.836557
_symmetry_space_group_name_H-M "I -4 2 M"
_symmetry_group_IT_number 121
_symmetry_cell_setting 'tetragonal'
loop_
_space_group_symop_operation_xyz
x,y,z
y,-x,-z
-x,-y,z
-y,x,-z
x,-y,-z
-x,y,-z
-y,-x,z
y,x,z
1/2+x,1/2+y,1/2+z
1/2+y,1/2-x,1/2-z
1/2-x,1/2-y,1/2+z
1/2-y,1/2+x,1/2-z
1/2+x,1/2-y,1/2-z
1/2-x,1/2+y,1/2-z
1/2-y,1/2-x,1/2+z
1/2+y,1/2+x,1/2+z
loop_
_atom_site_type_symbol
_atom_site_label
_atom_site_fract_x
_atom_site_fract_y
_atom_site_fract_z
Si Si1 0.500000 0.500000 0.318025
Si Si2 0.632714 0.948234 0.279205
Si Si3 0.832690 0.000000 0.000000
Si Si4 0.774150 0.225850 0.730968
Si Si5 0.500000 0.000000 0.868845
Si Si6 0.490612 0.779324 0.399370
Si Si7 0.658699 0.658699 0.672243
Si Si8 0.340027 0.340027 0.351879
O O1 0.582029 0.417972 0.298181
O O2 0.426160 0.426160 0.347649
O O3 0.546318 0.873702 0.255820
O O4 0.735684 0.886685 0.281466
O O5 0.592705 0.980721 0.331611
O O6 0.768152 0.023336 0.952279
O O7 0.905940 0.905940 0.988659
O O8 0.776416 0.223585 0.789639
O O9 0.700723 0.299278 0.699824
O O10 0.600786 0.018861 0.898709
O O11 0.410746 0.729679 0.361586
O O12 0.602412 0.748900 0.379931
#
# Coordination Sequence:
#
# PCOD9560230 Si02
#       8
#     4  16   8   8   8  16   8   8
#     4   8  20  32  48  73 104 128 180 229 256 292
#     4   9  19  33  46  69 102 142 181 213 256 304
#     4  11  22  35  62  86 108 135 172 227 292 332
#     4  12  20  30  52  74 102 148 182 212 258 316
#     4  10  19  33  50  70 108 140 172 218 254 316
#     4  11  20  37  54  81 107 139 176 224 274 326
#     4  10  20  33  53  79 107 139 180 220 266 320
#     4  10  20  33  53  77 103 143 178 214 266 324
#
# _framework density 15.807525
#
# number of rings (size 3 to 8) (size 9 to 14) (size 15 to 20)
#    0.000    2.000    4.211    2.526    2.947    0.421 
#    0.000    0.000    0.000    0.000    0.000    0.000 
#    0.000    0.000    0.000    3.789    0.000    0.316 
#
# Total GULP energy -211586.371914 kJ/mol
# GULP energy per Si atom -5568.062419 kJ/mol
# Density = 1.577155 g / cm^3
# Si number density = 15.807525 Si / 1000 Ang^3
#
#
#
# Elastic Constant Matrix: (Units=GPa)
#
#
# Indices 1 2 3 4 5 6 
#
# 1 69.3514 24.9709 18.7125 0.0000 0.0000 0.0000
# 2 24.9709 69.3514 18.7123 0.0000 0.0000 0.0000
# 3 18.7125 18.7123 69.7214 0.0000 0.0000 0.0000
# 4 0.0000 0.0000 0.0000 10.5714 0.0000 0.0000
# 5 0.0000 0.0000 0.0000 0.0000 10.5722 0.0000
# 6 0.0000 0.0000 0.0000 0.0000 0.0000 29.3113
#
#
#
# Elastic Compliance Matrix: (Units=1/GPa)
#
#
# Indices 1 2 3 4 5 6 
#
# 1 0.017199 -0.005333 -0.003185 0.000000 0.000000 0.000000
# 2 -0.005333 0.017199 -0.003185 0.000000 0.000000 0.000000
# 3 -0.003185 -0.003185 0.016052 0.000000 0.000000 0.000000
# 4 0.000000 0.000000 0.000000 0.094595 0.000000 0.000000
# 5 0.000000 0.000000 0.000000 0.000000 0.094587 0.000000
# 6 0.000000 0.000000 0.000000 0.000000 0.000000 0.034117
#
#
# Mechanical properties :
#
#
# Convention : Reuss Voigt Hill
#
# Bulk Modulus (GPa) = 36.97546 37.02394 36.99970
# Shear Modulus (GPa) = 16.33084 19.82621 18.07853
#
# Velocity S-wave (km/s) = 3.21768 3.54535 3.38548
# Velocity P-wave (km/s) = 6.10299 6.34286 6.22408
#
# Compressibility (1/GPa) = 0.02704497
#
# Stress axis : x y z
#
# Youngs Moduli (GPa) = 58.14303 58.14311 62.29680
#
# Poissons Ratio (x) = 0.31010 0.19839
# Poissons Ratio (y) = 0.31010 0.19839
# Poissons Ratio (z) = 0.18516 0.18516
#
# Static dielectric constant tensor:
#      x y z
#    x 1.569330 0.000000 0.000000 
#    y 0.000000 1.569330 0.000000 
#    z 0.000000 0.000000 1.522250 
# 
# From -- ./inp_files/7054.got.cif
#   From: 2010.05.17/outbox.cif.g08.bks.cpg/sg121_4_cif.got.tgz:7054.got - 2010.05.20 11:32:06.
