data_PCOD9560409
_publ_section_title
;
Structure prediction by ZEFSAII (Michael W. Deem and Ramdas Pophale) SiO2 
 PCOD9560409
Probable space group: I -4 2 M
;
_chemical_formula_sum "Si O2"
_cell_formula_units_Z 112
_cell_length_a 17.542608
_cell_length_b 17.542608
_cell_length_c 20.134454
_cell_angle_alpha 90.000000
_cell_angle_beta 90.000000
_cell_angle_gamma 90.000000
_cell_volume 6196.239199
_symmetry_space_group_name_H-M "I -4 2 M"
_symmetry_group_IT_number 121
_symmetry_cell_setting 'tetragonal'
loop_
_space_group_symop_operation_xyz
x,y,z
y,-x,-z
-x,-y,z
-y,x,-z
x,-y,-z
-x,y,-z
-y,-x,z
y,x,z
1/2+x,1/2+y,1/2+z
1/2+y,1/2-x,1/2-z
1/2-x,1/2-y,1/2+z
1/2-y,1/2+x,1/2-z
1/2+x,1/2-y,1/2-z
1/2-x,1/2+y,1/2-z
1/2-y,1/2-x,1/2+z
1/2+y,1/2+x,1/2+z
loop_
_atom_site_type_symbol
_atom_site_label
_atom_site_fract_x
_atom_site_fract_y
_atom_site_fract_z
Si Si1 0.515673 0.201793 0.820824
Si Si2 0.049133 0.428602 0.409479
Si Si3 0.650484 0.775442 0.789682
Si Si4 0.679858 0.808760 0.141564
Si Si5 0.163991 0.407283 0.510911
Si Si6 0.935805 0.188686 0.056354
Si Si7 0.698867 0.939297 0.831445
O O1 0.499532 0.123689 0.860382
O O2 0.432002 0.239394 0.821879
O O3 0.596595 0.230743 0.848934
O O4 0.529683 0.194836 0.742418
O O5 0.088359 0.383652 0.470574
O O6 0.121087 0.460435 0.368324
O O7 0.000000 0.500000 0.430674
O O8 0.702318 0.702318 0.795417
O O9 0.649662 0.799302 0.711392
O O10 0.691844 0.847360 0.824770
O O11 0.745863 0.745863 0.129046
O O12 0.670822 0.870302 0.082813
O O13 0.163194 0.500000 0.500000
O O14 0.242297 0.385450 0.474005
O O15 0.885311 0.114690 0.068464
O O16 0.963879 0.227954 0.125054
O O17 0.000000 0.173135 0.000000
#
# Coordination Sequence:
#
# PCOD9560409 Si02
#       7
#    16  16  16  16  16  16  16
#     4  10  21  33  55  82 111 143 191 238 280 333
#     4  10  21  31  51  81 115 152 178 226 275 335
#     4   9  19  35  57  81 108 148 191 233 279 334
#     4  10  21  37  57  80 113 154 195 233 281 341
#     4  10  21  35  53  78 116 150 188 221 272 335
#     4  10  21  36  55  76 104 144 186 230 274 325
#     4   9  20  34  52  79 113 147 184 224 278 341
#
# _framework density 18.075479999999999
#
# number of rings (size 3 to 8) (size 9 to 14) (size 15 to 20)
#    0.000    2.286    0.000    1.714   12.000    2.714 
#    0.000    2.143    0.000    0.429    0.000    0.000 
#    0.000    0.000    0.000    0.000    0.000    0.000 
#
# Total GULP energy -311829.195067 kJ/mol
# GULP energy per Si atom -5568.378483 kJ/mol
# Density = 1.803434 g / cm^3
# Si number density = 18.075480 Si / 1000 Ang^3
#
#
#
# Elastic Constant Matrix: (Units=GPa)
#
#
# Indices 1 2 3 4 5 6 
#
# 1 78.5890 41.6402 37.7350 0.0000 0.0000 0.0000
# 2 41.6402 78.5904 37.7348 0.0000 0.0000 0.0000
# 3 37.7350 37.7348 109.5397 0.0000 0.0000 0.0000
# 4 0.0000 0.0000 0.0000 22.4933 0.0000 0.0000
# 5 0.0000 0.0000 0.0000 0.0000 22.4938 0.0000
# 6 0.0000 0.0000 0.0000 0.0000 0.0000 20.6772
#
#
#
# Elastic Compliance Matrix: (Units=1/GPa)
#
#
# Indices 1 2 3 4 5 6 
#
# 1 0.018838 -0.008226 -0.003656 0.000000 0.000000 0.000000
# 2 -0.008226 0.018838 -0.003656 0.000000 0.000000 0.000000
# 3 -0.003656 -0.003656 0.011648 0.000000 0.000000 0.000000
# 4 0.000000 0.000000 0.000000 0.044458 0.000000 0.000000
# 5 0.000000 0.000000 0.000000 0.000000 0.044457 0.000000
# 6 0.000000 0.000000 0.000000 0.000000 0.000000 0.048362
#
#
# Mechanical properties :
#
#
# Convention : Reuss Voigt Hill
#
# Bulk Modulus (GPa) = 54.79703 55.65989 55.22846
# Shear Modulus (GPa) = 22.34552 23.10680 22.72616
#
# Velocity S-wave (km/s) = 3.51983 3.57928 3.54968
# Velocity P-wave (km/s) = 6.84839 6.92398 6.88629
#
# Compressibility (1/GPa) = 0.01824916
#
# Stress axis : x y z
#
# Youngs Moduli (GPa) = 53.08345 53.08471 85.85302
#
# Poissons Ratio (x) = 0.43667 0.31386
# Poissons Ratio (y) = 0.43666 0.31385
# Poissons Ratio (z) = 0.19406 0.19406
#
# Static dielectric constant tensor:
#      x y z
#    x 1.645000 0.000000 0.000000 
#    y 0.000000 1.645000 0.000000 
#    z 0.000000 0.000000 1.693440 
# 
# From -- ./inp_files/6643.got.cif
#   From: 2010.05.17/outbox.cif.g08.bks.cpg/sg121_4_cif.got.tgz:6643.got - 2010.05.20 11:32:06.
