data_PCOD9560988
_publ_section_title
;
Structure prediction by ZEFSAII (Michael W. Deem and Ramdas Pophale) SiO2 
 PCOD9560988
Probable space group: I -4 2 D
;
_chemical_formula_sum "Si O2"
_cell_formula_units_Z 100
_cell_length_a 29.618474
_cell_length_b 29.618474
_cell_length_c 5.094375
_cell_angle_alpha 90.000000
_cell_angle_beta 90.000000
_cell_angle_gamma 90.000000
_cell_volume 4469.060857
_symmetry_space_group_name_H-M "I -4 2 D"
_symmetry_group_IT_number 122
_symmetry_cell_setting 'tetragonal'
loop_
_space_group_symop_operation_xyz
x,y,z
y,-x,-z
-x,-y,z
-y,x,-z
x,1/2-y,1/4-z
-x,1/2+y,1/4-z
-y,1/2-x,1/4+z
y,1/2+x,1/4+z
1/2+x,1/2+y,1/2+z
1/2+y,1/2-x,1/2-z
1/2-x,1/2-y,1/2+z
1/2-y,1/2+x,1/2-z
1/2+x,-y,3/4-z
1/2-x,y,3/4-z
1/2-y,-x,3/4+z
1/2+y,x,3/4+z
loop_
_atom_site_type_symbol
_atom_site_label
_atom_site_fract_x
_atom_site_fract_y
_atom_site_fract_z
Si Si1 0.914663 0.889911 0.797983
Si Si2 0.500000 0.500000 0.500000
Si Si3 0.162969 0.499448 0.094083
Si Si4 0.821905 0.921645 0.796816
Si Si5 0.282326 0.153203 0.625283
Si Si6 0.250000 0.044744 0.375000
Si Si7 0.216695 0.250000 0.125000
Si Si8 0.947463 0.423279 0.561951
O O1 0.862782 0.889804 0.696805
O O2 0.934910 0.925958 0.591117
O O3 0.947719 0.847477 0.819853
O O4 0.914264 0.909107 0.092683
O O5 0.536286 0.524591 0.684263
O O6 0.159808 0.471094 0.367768
O O7 0.122948 0.475857 0.928043
O O8 0.212909 0.486919 0.009119
O O9 0.808065 0.893225 0.059221
O O10 0.780576 0.929783 0.597923
O O11 0.250000 0.151354 0.375000
O O12 0.308476 0.201433 0.617271
O O13 0.250000 0.157573 0.875000
O O14 0.250000 0.249133 0.375000
#
# Coordination Sequence:
#
# PCOD9560988 Si02
#       8
#    16   4  16  16  16   8   8  16
#     4  11  26  45  66  98 144 186 235 302 366 442
#     4  12  24  38  72 102 144 190 236 302 360 458
#     4  11  25  43  71 102 147 191 250 306 375 445
#     4  11  26  44  71 110 140 194 251 316 375 450
#     4  10  21  36  67  99 140 169 230 299 364 438
#     4  12  24  46  74 105 150 196 256 314 375 452
#     4   8  16  34  56  93 128 172 200 274 371 422
#     4  11  25  41  67 103 141 182 236 290 368 437
#
# _framework density 22.376068
#
# number of rings (size 3 to 8) (size 9 to 14) (size 15 to 20)
#    0.000    1.280    3.200    1.440    8.960    0.640 
#    0.000    0.000    3.520    3.840    0.000    0.000 
#    0.000    0.000    0.000    0.000    0.000    0.000 
#
# Total GULP energy -278813.582265 kJ/mol
# GULP energy per Si atom -5576.271645 kJ/mol
# Density = 2.232514 g / cm^3
# Si number density = 22.376068 Si / 1000 Ang^3
#
#
#
# Elastic Constant Matrix: (Units=GPa)
#
#
# Indices 1 2 3 4 5 6 
#
# 1 141.9869 50.3421 27.7198 0.0000 0.0000 0.0000
# 2 50.3421 141.9869 27.7198 0.0000 0.0000 0.0000
# 3 27.7198 27.7198 114.6158 0.0000 0.0000 0.0000
# 4 0.0000 0.0000 0.0000 37.9256 0.0000 0.0000
# 5 0.0000 0.0000 0.0000 0.0000 37.9256 0.0000
# 6 0.0000 0.0000 0.0000 0.0000 0.0000 30.5848
#
#
#
# Elastic Compliance Matrix: (Units=1/GPa)
#
#
# Indices 1 2 3 4 5 6 
#
# 1 0.008250 -0.002661 -0.001352 0.000000 0.000000 0.000000
# 2 -0.002661 0.008250 -0.001352 0.000000 0.000000 0.000000
# 3 -0.001352 -0.001352 0.009379 0.000000 0.000000 0.000000
# 4 0.000000 0.000000 0.000000 0.026367 0.000000 0.000000
# 5 0.000000 0.000000 0.000000 0.000000 0.026367 0.000000
# 6 0.000000 0.000000 0.000000 0.000000 0.000000 0.032696
#
#
# Mechanical properties :
#
#
# Convention : Reuss Voigt Hill
#
# Bulk Modulus (GPa) = 66.00707 67.79479 66.90093
# Shear Modulus (GPa) = 39.34228 40.80771 40.07499
#
# Velocity S-wave (km/s) = 4.19767 4.27514 4.23658
# Velocity P-wave (km/s) = 7.28402 7.39816 7.34131
#
# Compressibility (1/GPa) = 0.01514989
#
# Stress axis : x y z
#
# Youngs Moduli (GPa) = 121.20662 121.20662 106.62546
#
# Poissons Ratio (x) = 0.32257 0.14413
# Poissons Ratio (y) = 0.32257 0.14413
# Poissons Ratio (z) = 0.16384 0.16384
#
# Static dielectric constant tensor:
#      x y z
#    x 1.912970 0.000000 0.000000 
#    y 0.000000 1.912970 0.000000 
#    z 0.000000 0.000000 1.884920 
# 
# From -- ./inp_files/1510.got.cif
#   From: 2010.05.17/outbox.cif.g08.bks.cpg/sg122_1_cif.got.tgz:1510.got - 2010.05.20 11:37:33.
