data_PCOD9560207
_publ_section_title
;
Structure prediction by ZEFSAII (Michael W. Deem and Ramdas Pophale) SiO2 
 PCOD9560207
Probable space group: I -4 2 M
;
_chemical_formula_sum "Si O2"
_cell_formula_units_Z 80
_cell_length_a 27.554820
_cell_length_b 27.554820
_cell_length_c 5.261343
_cell_angle_alpha 90.000000
_cell_angle_beta 90.000000
_cell_angle_gamma 90.000000
_cell_volume 3994.769931
_symmetry_space_group_name_H-M "I -4 2 M"
_symmetry_group_IT_number 121
_symmetry_cell_setting 'tetragonal'
loop_
_space_group_symop_operation_xyz
x,y,z
y,-x,-z
-x,-y,z
-y,x,-z
x,-y,-z
-x,y,-z
-y,-x,z
y,x,z
1/2+x,1/2+y,1/2+z
1/2+y,1/2-x,1/2-z
1/2-x,1/2-y,1/2+z
1/2-y,1/2+x,1/2-z
1/2+x,1/2-y,1/2-z
1/2-x,1/2+y,1/2-z
1/2-y,1/2-x,1/2+z
1/2+y,1/2+x,1/2+z
loop_
_atom_site_type_symbol
_atom_site_label
_atom_site_fract_x
_atom_site_fract_y
_atom_site_fract_z
Si Si1 0.727222 0.876899 0.739036
Si Si2 0.309916 0.309916 0.216380
Si Si3 0.299231 0.954615 0.663987
Si Si4 0.447005 0.700790 0.442536
Si Si5 0.363634 0.097834 0.994054
Si Si6 0.854730 0.854730 0.219166
O O1 0.755268 0.827821 0.676129
O O2 0.702923 0.905388 0.503749
O O3 0.684268 0.868540 0.941645
O O4 0.768308 0.915006 0.848507
O O5 0.324469 0.324469 0.505149
O O6 0.339857 0.339857 0.003217
O O7 0.244153 0.960770 0.751387
O O8 0.314705 0.000000 0.500000
O O9 0.334370 0.948338 0.903192
O O10 0.500000 0.679256 0.500000
O O11 0.409883 0.661390 0.331687
O O12 0.390058 0.100523 0.725565
#
# Coordination Sequence:
#
# PCOD9560207 Si02
#       6
#    16   8  16  16  16   8
#     4  10  20  35  56  78 112 148 194 245 299 348
#     4  10  20  34  52  79 106 147 194 245 291 349
#     4  11  20  34  61  89 115 146 197 253 307 350
#     4  10  19  31  52  83 114 145 193 252 308 362
#     4  11  23  39  56  78 118 160 189 232 295 358
#     4  10  20  32  50  76 112 150 184 241 313 363
#
# _framework density 20.026181999999999
#
# number of rings (size 3 to 8) (size 9 to 14) (size 15 to 20)
#    0.000    1.600    6.000    0.000    0.000    0.000 
#    0.000    1.000    0.000    0.300    0.000    0.000 
#    0.000    4.400    0.000    0.000    0.000    0.500 
#
# Total GULP energy -222761.251354 kJ/mol
# GULP energy per Si atom -5569.031284 kJ/mol
# Density = 1.998060 g / cm^3
# Si number density = 20.026182 Si / 1000 Ang^3
#
#
#
# Elastic Constant Matrix: (Units=GPa)
#
#
# Indices 1 2 3 4 5 6 
#
# 1 39.3485 23.4181 11.3943 0.0000 0.0000 0.0000
# 2 23.4181 39.3485 11.3943 0.0000 0.0000 0.0000
# 3 11.3943 11.3943 80.1405 0.0000 0.0000 0.0000
# 4 0.0000 0.0000 0.0000 29.4093 0.0000 0.0000
# 5 0.0000 0.0000 0.0000 0.0000 29.4093 0.0000
# 6 0.0000 0.0000 0.0000 0.0000 0.0000 4.3380
#
#
#
# Elastic Compliance Matrix: (Units=1/GPa)
#
#
# Indices 1 2 3 4 5 6 
#
# 1 0.039786 -0.022987 -0.002389 0.000000 0.000000 0.000000
# 2 -0.022987 0.039786 -0.002389 0.000000 0.000000 0.000000
# 3 -0.002389 -0.002389 0.013157 0.000000 0.000000 0.000000
# 4 0.000000 0.000000 0.000000 0.034003 0.000000 0.000000
# 5 0.000000 0.000000 0.000000 0.000000 0.034003 0.000000
# 6 0.000000 0.000000 0.000000 0.000000 0.000000 0.230519
#
#
# Mechanical properties :
#
#
# Convention : Reuss Voigt Hill
#
# Bulk Modulus (GPa) = 26.88048 27.91678 27.39863
# Shear Modulus (GPa) = 10.88891 20.14005 15.51448
#
# Velocity S-wave (km/s) = 2.33434 3.17470 2.78638
# Velocity P-wave (km/s) = 4.55163 5.23533 4.90540
#
# Compressibility (1/GPa) = 0.03720171
#
# Stress axis : x y z
#
# Youngs Moduli (GPa) = 25.13441 25.13441 76.00352
#
# Poissons Ratio (x) = 0.57776 0.18153
# Poissons Ratio (y) = 0.57776 0.18153
# Poissons Ratio (z) = 0.06003 0.06003
#
# Static dielectric constant tensor:
#      x y z
#    x 1.745620 0.000000 0.000000 
#    y 0.000000 1.745620 0.000000 
#    z 0.000000 0.000000 1.826770 
# 
# From -- ./inp_files/604.got.cif
#   From: 2010.05.17/outbox.cif.g08.bks.cpg/sg121_1_cif.got.tgz:604.got - 2010.05.20 11:32:06.
