data_PCOD9560846
_publ_section_title
;
Structure prediction by ZEFSAII (Michael W. Deem and Ramdas Pophale) SiO2 
 PCOD9560846
Probable space group: I -4 2 D
;
_chemical_formula_sum "Si O2"
_cell_formula_units_Z 60
_cell_length_a 10.326629
_cell_length_b 10.326629
_cell_length_c 24.634589
_cell_angle_alpha 90.000000
_cell_angle_beta 90.000000
_cell_angle_gamma 90.000000
_cell_volume 2627.014502
_symmetry_space_group_name_H-M "I -4 2 D"
_symmetry_group_IT_number 122
_symmetry_cell_setting 'tetragonal'
loop_
_space_group_symop_operation_xyz
x,y,z
y,-x,-z
-x,-y,z
-y,x,-z
x,1/2-y,1/4-z
-x,1/2+y,1/4-z
-y,1/2-x,1/4+z
y,1/2+x,1/4+z
1/2+x,1/2+y,1/2+z
1/2+y,1/2-x,1/2-z
1/2-x,1/2-y,1/2+z
1/2-y,1/2+x,1/2-z
1/2+x,-y,3/4-z
1/2-x,y,3/4-z
1/2-y,-x,3/4+z
1/2+y,x,3/4+z
loop_
_atom_site_type_symbol
_atom_site_label
_atom_site_fract_x
_atom_site_fract_y
_atom_site_fract_z
Si Si1 0.361186 0.667036 0.738298
Si Si2 0.000000 0.000000 0.500000
Si Si3 0.495009 0.844371 0.400596
Si Si4 0.247347 0.109987 0.547495
Si Si5 0.250000 0.315894 0.375000
O O1 0.462629 0.673222 0.786407
O O2 0.324406 0.515113 0.726048
O O3 0.240416 0.752044 0.762232
O O4 0.396776 0.723391 0.679470
O O5 0.923952 0.097675 0.463448
O O6 0.395361 0.760052 0.362922
O O7 0.630054 0.779962 0.384352
O O8 0.500000 0.000000 0.392463
#
# Coordination Sequence:
#
# PCOD9560846 Si02
#       5
#    16   4  16  16   8
#     4  10  20  35  58  86 128 163 206 255 312 374
#     4   8  12  24  40  76 124 156 172 236 286 364
#     4  11  21  33  61  91 127 163 202 267 319 376
#     4   9  17  29  51  88 125 159 198 240 312 376
#     4  10  24  40  58  88 124 168 220 258 314 386
#
# _framework density 22.839615999999999
#
# number of rings (size 3 to 8) (size 9 to 14) (size 15 to 20)
#    0.000    2.133    1.333    2.400    7.467    0.000 
#    0.000    0.000   17.600    0.000    0.000    0.000 
#    0.000    0.000    0.000    0.000    0.000    0.000 
#
# Total GULP energy -167123.613370 kJ/mol
# GULP energy per Si atom -5570.787112 kJ/mol
# Density = 2.278763 g / cm^3
# Si number density = 22.839616 Si / 1000 Ang^3
#
#
#
# Elastic Constant Matrix: (Units=GPa)
#
#
# Indices 1 2 3 4 5 6 
#
# 1 44.3658 1.7267 30.7390 0.0000 0.0000 0.0000
# 2 1.7267 44.3658 30.7390 0.0000 0.0000 0.0000
# 3 30.7390 30.7390 191.1599 0.0000 0.0000 0.0000
# 4 0.0000 0.0000 0.0000 30.0428 0.0000 0.0000
# 5 0.0000 0.0000 0.0000 0.0000 30.0428 0.0000
# 6 0.0000 0.0000 0.0000 0.0000 0.0000 5.4100
#
#
#
# Elastic Compliance Matrix: (Units=1/GPa)
#
#
# Indices 1 2 3 4 5 6 
#
# 1 0.025536 0.002083 -0.004441 0.000000 0.000000 0.000000
# 2 0.002083 0.025536 -0.004441 0.000000 0.000000 0.000000
# 3 -0.004441 -0.004441 0.006660 0.000000 0.000000 0.000000
# 4 0.000000 0.000000 0.000000 0.033286 0.000000 0.000000
# 5 0.000000 0.000000 0.000000 0.000000 0.033286 0.000000
# 6 0.000000 0.000000 0.000000 0.000000 0.000000 0.184844
#
#
# Mechanical properties :
#
#
# Convention : Reuss Voigt Hill
#
# Bulk Modulus (GPa) = 22.65876 45.14455 33.90165
# Shear Modulus (GPa) = 14.81673 27.54488 21.18081
#
# Velocity S-wave (km/s) = 2.54978 3.47654 3.04858
# Velocity P-wave (km/s) = 4.31403 5.99365 5.22182
#
# Compressibility (1/GPa) = 0.04413304
#
# Stress axis : x y z
#
# Youngs Moduli (GPa) = 39.16047 39.16047 150.16022
#
# Poissons Ratio (x) = -0.08158 0.66690
# Poissons Ratio (y) = -0.08158 0.66690
# Poissons Ratio (z) = 0.17392 0.17392
#
# Static dielectric constant tensor:
#      x y z
#    x 1.893710 0.000000 0.000000 
#    y 0.000000 1.893710 0.000000 
#    z 0.000000 0.000000 1.991970 
# 
# From -- ./inp_files/6945.got.cif
#   From: 2010.05.17/outbox.cif.g08.bks.cpg/sg122_4_cif.got.tgz:6945.got - 2010.05.20 11:37:33.
