data_PCOD9560497
_publ_section_title
;
Structure prediction by ZEFSAII (Michael W. Deem and Ramdas Pophale) SiO2 
 PCOD9560497
Probable space group: I -4 2 M
;
_chemical_formula_sum "Si O2"
_cell_formula_units_Z 62
_cell_length_a 11.610307
_cell_length_b 11.610307
_cell_length_c 25.568920
_cell_angle_alpha 90.000000
_cell_angle_beta 90.000000
_cell_angle_gamma 90.000000
_cell_volume 3446.670693
_symmetry_space_group_name_H-M "I -4 2 M"
_symmetry_group_IT_number 121
_symmetry_cell_setting 'tetragonal'
loop_
_space_group_symop_operation_xyz
x,y,z
y,-x,-z
-x,-y,z
-y,x,-z
x,-y,-z
-x,y,-z
-y,-x,z
y,x,z
1/2+x,1/2+y,1/2+z
1/2+y,1/2-x,1/2-z
1/2-x,1/2-y,1/2+z
1/2-y,1/2+x,1/2-z
1/2+x,1/2-y,1/2-z
1/2-x,1/2+y,1/2-z
1/2-y,1/2-x,1/2+z
1/2+y,1/2+x,1/2+z
loop_
_atom_site_type_symbol
_atom_site_label
_atom_site_fract_x
_atom_site_fract_y
_atom_site_fract_z
Si Si1 0.000000 0.000000 0.500000
Si Si2 0.671552 0.671552 0.938022
Si Si3 0.909738 0.090263 0.777513
Si Si4 0.500000 0.000000 0.250000
Si Si5 0.870439 0.447380 0.552797
Si Si6 0.793296 0.206705 0.679434
Si Si7 0.805233 0.478853 0.670307
O O1 0.915247 0.084754 0.532891
O O2 0.807369 0.641908 0.949577
O O3 0.659357 0.659357 0.875446
O O4 0.849145 0.150856 0.729374
O O5 0.974774 0.183054 0.812389
O O6 0.000000 0.000000 0.755698
O O7 0.464991 0.899216 0.290609
O O8 0.815881 0.500000 0.500000
O O9 0.821265 0.491005 0.608189
O O10 0.000000 0.500000 0.553645
O O11 0.814747 0.342815 0.680217
#
# Coordination Sequence:
#
# PCOD9560497 Si02
#       7
#     2   8   8   4  16   8  16
#     4  12  20  40  60  92 128 152 204 260 298 384
#     4  10  24  39  63  94 124 162 204 257 316 363
#     4  12  24  37  64  94 123 157 208 255 304 372
#     4  12  20  36  62  88 120 168 200 242 304 380
#     4  10  21  41  66  88 120 166 208 254 309 369
#     4  10  22  41  57  87 125 161 195 254 311 360
#     4  11  22  38  61  89 123 160 207 250 306 366
#
# _framework density 17.988372999999999
#
# number of rings (size 3 to 8) (size 9 to 14) (size 15 to 20)
#    0.000    1.290    5.161    1.548    0.903    1.032 
#    0.000    1.290    0.000    0.000    0.000    0.000 
#    0.000    0.000    0.000    0.000    0.000    0.000 
#
# Total GULP energy -172772.166750 kJ/mol
# GULP energy per Si atom -5573.295702 kJ/mol
# Density = 1.794743 g / cm^3
# Si number density = 17.988373 Si / 1000 Ang^3
#
#
#
# Elastic Constant Matrix: (Units=GPa)
#
#
# Indices 1 2 3 4 5 6 
#
# 1 83.2570 30.5561 57.2353 0.0000 0.0000 0.0000
# 2 30.5561 83.2550 57.2344 0.0000 0.0000 0.0000
# 3 57.2353 57.2344 187.3317 0.0000 0.0000 0.0000
# 4 0.0000 0.0000 0.0000 -12.6037 0.0000 0.0000
# 5 0.0000 0.0000 0.0000 0.0000 -12.6224 0.0000
# 6 0.0000 0.0000 0.0000 0.0000 0.0000 28.2433
#
#
#
# Elastic Compliance Matrix: (Units=1/GPa)
#
#
# Indices 1 2 3 4 5 6 
#
# 1 0.015830 -0.003146 -0.003875 0.000000 0.000000 0.000000
# 2 -0.003146 0.015830 -0.003875 0.000000 0.000000 0.000000
# 3 -0.003875 -0.003875 0.007706 0.000000 0.000000 0.000000
# 4 0.000000 0.000000 0.000000 -0.079342 0.000000 0.000000
# 5 0.000000 0.000000 0.000000 0.000000 -0.079224 0.000000
# 6 0.000000 0.000000 0.000000 0.000000 0.000000 0.035407
#
#
# Mechanical properties :
#
#
# Convention : Reuss Voigt Hill
#
# Bulk Modulus (GPa) = 56.90521 71.54391 64.22456
# Shear Modulus (GPa) = -89.05773 14.52463 -37.26655
#
# Velocity S-wave (km/s) = -7.04386 2.84464 -4.55653
# Velocity P-wave (km/s) = 5.86954 7.11674 2.84574
#
# Compressibility (1/GPa) = 0.01757308
#
# Stress axis : x y z
#
# Youngs Moduli (GPa) = 63.17290 63.17143 129.76613
#
# Poissons Ratio (x) = 0.19871 0.50289
# Poissons Ratio (y) = 0.19872 0.50289
# Poissons Ratio (z) = 0.24482 0.24481
#
# Static dielectric constant tensor:
#      x y z
#    x 1.634490 0.000000 0.000000 
#    y 0.000000 1.634500 0.000000 
#    z 0.000000 0.000000 1.622940 
# 
# From -- ./inp_files/6999.got.cif
#   From: 2010.05.17/outbox.cif.g08.bks.cpg/sg121_4_cif.got.tgz:6999.got - 2010.05.20 11:32:06.
