data_PCOD9560842
_publ_section_title
;
Structure prediction by ZEFSAII (Michael W. Deem and Ramdas Pophale) SiO2 
 PCOD9560842
Probable space group: I -4 2 D
;
_chemical_formula_sum "Si O2"
_cell_formula_units_Z 96
_cell_length_a 16.820462
_cell_length_b 16.820462
_cell_length_c 17.102149
_cell_angle_alpha 90.000000
_cell_angle_beta 90.000000
_cell_angle_gamma 90.000000
_cell_volume 4838.675819
_symmetry_space_group_name_H-M "I -4 2 D"
_symmetry_group_IT_number 122
_symmetry_cell_setting 'tetragonal'
loop_
_space_group_symop_operation_xyz
x,y,z
y,-x,-z
-x,-y,z
-y,x,-z
x,1/2-y,1/4-z
-x,1/2+y,1/4-z
-y,1/2-x,1/4+z
y,1/2+x,1/4+z
1/2+x,1/2+y,1/2+z
1/2+y,1/2-x,1/2-z
1/2-x,1/2-y,1/2+z
1/2-y,1/2+x,1/2-z
1/2+x,-y,3/4-z
1/2-x,y,3/4-z
1/2-y,-x,3/4+z
1/2+y,x,3/4+z
loop_
_atom_site_type_symbol
_atom_site_label
_atom_site_fract_x
_atom_site_fract_y
_atom_site_fract_z
Si Si1 0.117671 0.006942 0.967713
Si Si2 0.222732 0.028308 0.210140
Si Si3 0.668242 0.111915 0.915550
Si Si4 0.945096 0.580515 0.556243
Si Si5 0.999299 0.281181 0.957603
Si Si6 0.447193 0.603958 0.976421
O O1 0.203552 0.032142 0.997543
O O2 0.129815 0.958748 0.887489
O O3 0.079266 0.944169 0.029896
O O4 0.179967 0.105087 0.174875
O O5 0.256843 0.986004 0.131962
O O6 0.304730 0.056957 0.250363
O O7 0.156361 0.982505 0.261316
O O8 0.750000 0.136821 0.875000
O O9 0.692387 0.079277 0.999766
O O10 0.856034 0.558183 0.529303
O O11 0.925235 0.596863 0.647752
O O12 0.000000 0.500000 0.546999
O O13 0.540243 0.583689 0.961269
#
# Coordination Sequence:
#
# PCOD9560842 Si02
#       6
#    16  16  16  16  16  16
#     4  10  20  34  59  89 124 179 223 267 334 400
#     4  11  23  40  66  96 124 173 223 266 346 414
#     4  10  21  38  58  92 137 171 216 284 339 390
#     4  11  21  39  69  92 121 172 217 268 334 407
#     4  10  22  37  58  94 131 163 221 276 316 399
#     4  10  22  45  66  92 129 163 219 286 331 402
#
# _framework density 19.840138
#
# number of rings (size 3 to 8) (size 9 to 14) (size 15 to 20)
#    0.000    1.667    5.000    0.000    2.333    0.667 
#    6.000    0.000    0.000    2.000    0.000    0.000 
#    0.000    0.000    0.000    0.000    0.000    0.000 
#
# Total GULP energy -267360.185889 kJ/mol
# GULP energy per Si atom -5570.003873 kJ/mol
# Density = 1.979498 g / cm^3
# Si number density = 19.840138 Si / 1000 Ang^3
#
#
#
# Elastic Constant Matrix: (Units=GPa)
#
#
# Indices 1 2 3 4 5 6 
#
# 1 99.1681 52.7227 44.8686 0.0000 0.0000 0.0000
# 2 52.7227 99.1681 44.8686 0.0000 0.0000 0.0000
# 3 44.8686 44.8686 62.9727 0.0000 0.0000 0.0000
# 4 0.0000 0.0000 0.0000 12.3951 0.0000 0.0000
# 5 0.0000 0.0000 0.0000 0.0000 12.3951 0.0000
# 6 0.0000 0.0000 0.0000 0.0000 0.0000 18.3353
#
#
#
# Elastic Compliance Matrix: (Units=1/GPa)
#
#
# Indices 1 2 3 4 5 6 
#
# 1 0.016450 -0.005080 -0.008101 0.000000 0.000000 0.000000
# 2 -0.005080 0.016450 -0.008101 0.000000 0.000000 0.000000
# 3 -0.008101 -0.008101 0.027424 0.000000 0.000000 0.000000
# 4 0.000000 0.000000 0.000000 0.080677 0.000000 0.000000
# 5 0.000000 0.000000 0.000000 0.000000 0.080677 0.000000
# 6 0.000000 0.000000 0.000000 0.000000 0.000000 0.054540
#
#
# Mechanical properties :
#
#
# Convention : Reuss Voigt Hill
#
# Bulk Modulus (GPa) = 56.30833 60.69208 58.50021
# Shear Modulus (GPa) = 15.39866 16.54836 15.97351
#
# Velocity S-wave (km/s) = 2.78895 2.89119 2.84053
# Velocity P-wave (km/s) = 6.23005 6.46546 6.34885
#
# Compressibility (1/GPa) = 0.01775936
#
# Stress axis : x y z
#
# Youngs Moduli (GPa) = 60.78947 60.78947 36.46430
#
# Poissons Ratio (x) = 0.30884 0.29540
# Poissons Ratio (y) = 0.30884 0.29540
# Poissons Ratio (z) = 0.49246 0.49246
#
# Static dielectric constant tensor:
#      x y z
#    x 1.756600 0.000000 0.000000 
#    y 0.000000 1.756600 0.000000 
#    z 0.000000 0.000000 1.783930 
# 
# From -- ./inp_files/6307.got.cif
#   From: 2010.05.17/outbox.cif.g08.bks.cpg/sg122_4_cif.got.tgz:6307.got - 2010.05.20 11:37:33.
