data_PCOD9560371
_publ_section_title
;
Structure prediction by ZEFSAII (Michael W. Deem and Ramdas Pophale) SiO2 
 PCOD9560371
Probable space group: I -4 2 M
;
_chemical_formula_sum "Si O2"
_cell_formula_units_Z 96
_cell_length_a 14.295546
_cell_length_b 14.295546
_cell_length_c 23.373013
_cell_angle_alpha 90.000000
_cell_angle_beta 90.000000
_cell_angle_gamma 90.000000
_cell_volume 4776.570535
_symmetry_space_group_name_H-M "I -4 2 M"
_symmetry_group_IT_number 121
_symmetry_cell_setting 'tetragonal'
loop_
_space_group_symop_operation_xyz
x,y,z
y,-x,-z
-x,-y,z
-y,x,-z
x,-y,-z
-x,y,-z
-y,-x,z
y,x,z
1/2+x,1/2+y,1/2+z
1/2+y,1/2-x,1/2-z
1/2-x,1/2-y,1/2+z
1/2-y,1/2+x,1/2-z
1/2+x,1/2-y,1/2-z
1/2-x,1/2+y,1/2-z
1/2-y,1/2-x,1/2+z
1/2+y,1/2+x,1/2+z
loop_
_atom_site_type_symbol
_atom_site_label
_atom_site_fract_x
_atom_site_fract_y
_atom_site_fract_z
Si Si1 0.000000 0.500000 0.361010
Si Si2 0.679982 0.047406 0.581227
Si Si3 0.037711 0.807746 0.911914
Si Si4 0.786019 0.637390 0.797144
Si Si5 0.198517 0.484563 0.299154
Si Si6 0.500000 0.341987 0.000000
Si Si7 0.725627 0.868822 0.983465
O O1 0.014509 0.593619 0.397748
O O2 0.907014 0.509370 0.323646
O O3 0.710960 0.105983 0.636948
O O4 0.632180 0.120392 0.537352
O O5 0.770162 0.000679 0.553261
O O6 0.091216 0.908785 0.912740
O O7 0.020150 0.768953 0.848485
O O8 0.940156 0.790125 0.946016
O O9 0.103870 0.741522 0.950851
O O10 0.692020 0.692020 0.784146
O O11 0.794358 0.547860 0.756530
O O12 0.874348 0.706109 0.787160
O O13 0.409741 0.409741 0.998957
O O14 0.766244 0.766244 0.973686
#
# Coordination Sequence:
#
# PCOD9560371 Si02
#       7
#     8  16  16  16  16   8  16
#     4  10  22  40  64  96 122 155 211 268 320 372
#     4  11  23  40  66  91 122 164 212 263 319 379
#     4  10  21  35  57  89 124 157 192 247 306 370
#     4  11  22  40  65  89 123 166 211 260 314 377
#     4  11  22  40  59  89 124 159 207 262 314 367
#     4  11  26  45  64  92 132 173 214 265 324 388
#     4  10  20  37  58  86 121 157 198 244 302 370
#
# _framework density 20.098101
#
# number of rings (size 3 to 8) (size 9 to 14) (size 15 to 20)
#    0.000    1.417    3.333    4.000    2.333    1.333 
#    0.000    5.000    0.000    2.500    0.000    0.000 
#    0.000    0.000    0.000    0.000    0.000    0.000 
#
# Total GULP energy -267879.078195 kJ/mol
# GULP energy per Si atom -5580.814129 kJ/mol
# Density = 2.005236 g / cm^3
# Si number density = 20.098101 Si / 1000 Ang^3
#
#
#
# Elastic Constant Matrix: (Units=GPa)
#
#
# Indices 1 2 3 4 5 6 
#
# 1 62.5631 17.9348 7.5545 0.0000 0.0000 0.0000
# 2 17.9348 62.5627 7.5541 0.0000 0.0000 0.0000
# 3 7.5545 7.5541 70.3870 0.0000 0.0000 0.0000
# 4 0.0000 0.0000 0.0000 21.8013 0.0000 0.0000
# 5 0.0000 0.0000 0.0000 0.0000 21.8020 0.0000
# 6 0.0000 0.0000 0.0000 0.0000 0.0000 31.4303
#
#
#
# Elastic Compliance Matrix: (Units=1/GPa)
#
#
# Indices 1 2 3 4 5 6 
#
# 1 0.017543 -0.004865 -0.001361 0.000000 0.000000 0.000000
# 2 -0.004865 0.017543 -0.001361 0.000000 0.000000 0.000000
# 3 -0.001361 -0.001361 0.014499 0.000000 0.000000 0.000000
# 4 0.000000 0.000000 0.000000 0.045869 0.000000 0.000000
# 5 0.000000 0.000000 0.000000 0.000000 0.045867 0.000000
# 6 0.000000 0.000000 0.000000 0.000000 0.000000 0.031816
#
#
# Mechanical properties :
#
#
# Convention : Reuss Voigt Hill
#
# Bulk Modulus (GPa) = 29.05900 29.06660 29.06280
# Shear Modulus (GPa) = 25.02751 25.83802 25.43277
#
# Velocity S-wave (km/s) = 3.53266 3.58941 3.56115
# Velocity P-wave (km/s) = 5.57939 5.62781 5.60365
#
# Compressibility (1/GPa) = 0.03441274
#
# Stress axis : x y z
#
# Youngs Moduli (GPa) = 57.00374 57.00347 68.96909
#
# Poissons Ratio (x) = 0.27730 0.09385
# Poissons Ratio (y) = 0.27730 0.09384
# Poissons Ratio (z) = 0.07757 0.07756
#
# Static dielectric constant tensor:
#      x y z
#    x 1.721660 0.000000 0.000000 
#    y 0.000000 1.721660 0.000000 
#    z 0.000000 0.000000 1.707110 
# 
# From -- ./inp_files/6461.got.cif
#   From: 2010.05.17/outbox.cif.g08.bks.cpg/sg121_4_cif.got.tgz:6461.got - 2010.05.20 11:32:06.
