data_PCOD9560711
_publ_section_title
;
Structure prediction by ZEFSAII (Michael W. Deem and Ramdas Pophale) SiO2 
 PCOD9560711
Probable space group: I -4 2 D
;
_chemical_formula_sum "Si O2"
_cell_formula_units_Z 84
_cell_length_a 11.718738
_cell_length_b 11.718738
_cell_length_c 28.818600
_cell_angle_alpha 90.000000
_cell_angle_beta 90.000000
_cell_angle_gamma 90.000000
_cell_volume 3957.624341
_symmetry_space_group_name_H-M "I -4 2 D"
_symmetry_group_IT_number 122
_symmetry_cell_setting 'tetragonal'
loop_
_space_group_symop_operation_xyz
x,y,z
y,-x,-z
-x,-y,z
-y,x,-z
x,1/2-y,1/4-z
-x,1/2+y,1/4-z
-y,1/2-x,1/4+z
y,1/2+x,1/4+z
1/2+x,1/2+y,1/2+z
1/2+y,1/2-x,1/2-z
1/2-x,1/2-y,1/2+z
1/2-y,1/2+x,1/2-z
1/2+x,-y,3/4-z
1/2-x,y,3/4-z
1/2-y,-x,3/4+z
1/2+y,x,3/4+z
loop_
_atom_site_type_symbol
_atom_site_label
_atom_site_fract_x
_atom_site_fract_y
_atom_site_fract_z
Si Si1 0.917229 0.106534 0.374475
Si Si2 0.089612 0.400382 0.474408
Si Si3 0.260432 0.983141 0.702266
Si Si4 0.530836 0.723701 0.051281
Si Si5 0.219950 0.774083 0.571684
Si Si6 0.500000 0.500000 0.500000
O O1 0.969895 0.215087 0.347655
O O2 0.823177 0.056341 0.338862
O O3 0.869454 0.118151 0.427013
O O4 0.000000 0.000000 0.376659
O O5 0.180117 0.460157 0.508820
O O6 0.044091 0.291602 0.503706
O O7 0.152084 0.334316 0.433154
O O8 0.000000 0.500000 0.462666
O O9 0.241348 0.847392 0.702813
O O10 0.389116 0.010264 0.717114
O O11 0.401191 0.678529 0.053515
O O12 0.198720 0.750000 0.625000
#
# Coordination Sequence:
#
# PCOD9560711 Si02
#       6
#    16  16  16  16  16   4
#     4  10  17  35  67  97 129 173 227 288 360 413
#     4  11  23  43  72  97 138 189 231 291 359 430
#     4  11  21  41  68  94 135 191 241 279 351 432
#     4  10  19  38  67  98 127 180 221 283 362 419
#     4  12  22  42  69  98 138 181 234 295 358 422
#     4  12  24  40  72  96 140 212 244 276 352 444
#
# _framework density 21.224854000000001
#
# number of rings (size 3 to 8) (size 9 to 14) (size 15 to 20)
#    0.000    1.143    7.619    1.143    0.000    0.000 
#    8.571    0.000   12.571    0.000    0.000    0.000 
#    0.000    0.000    0.000    0.000    0.000    0.000 
#
# Total GULP energy -234052.106626 kJ/mol
# GULP energy per Si atom -5572.669205 kJ/mol
# Density = 2.117655 g / cm^3
# Si number density = 21.224854 Si / 1000 Ang^3
#
#
#
# Elastic Constant Matrix: (Units=GPa)
#
#
# Indices 1 2 3 4 5 6 
#
# 1 103.5353 42.9334 20.5294 0.0000 0.0000 0.0000
# 2 42.9334 103.5353 20.5294 0.0000 0.0000 0.0000
# 3 20.5294 20.5294 25.6153 0.0000 0.0000 0.0000
# 4 0.0000 0.0000 0.0000 159.3261 0.0000 0.0000
# 5 0.0000 0.0000 0.0000 0.0000 159.3261 0.0000
# 6 0.0000 0.0000 0.0000 0.0000 0.0000 34.6018
#
#
#
# Elastic Compliance Matrix: (Units=1/GPa)
#
#
# Indices 1 2 3 4 5 6 
#
# 1 0.012653 -0.003848 -0.007057 0.000000 0.000000 0.000000
# 2 -0.003848 0.012653 -0.007057 0.000000 0.000000 0.000000
# 3 -0.007057 -0.007057 0.050351 0.000000 0.000000 0.000000
# 4 0.000000 0.000000 0.000000 0.006276 0.000000 0.000000
# 5 0.000000 0.000000 0.000000 0.000000 0.006276 0.000000
# 6 0.000000 0.000000 0.000000 0.000000 0.000000 0.028900
#
#
# Mechanical properties :
#
#
# Convention : Reuss Voigt Hill
#
# Bulk Modulus (GPa) = 25.16773 44.51890 34.84332
# Shear Modulus (GPa) = 30.06965 80.56372 55.31669
#
# Velocity S-wave (km/s) = 3.76802 6.16763 5.11066
# Velocity P-wave (km/s) = 5.55104 8.46995 7.16080
#
# Compressibility (1/GPa) = 0.03973341
#
# Stress axis : x y z
#
# Youngs Moduli (GPa) = 79.02990 79.02990 19.86044
#
# Poissons Ratio (x) = 0.30408 0.14016
# Poissons Ratio (y) = 0.30408 0.14016
# Poissons Ratio (z) = 0.55774 0.55774
#
# Static dielectric constant tensor:
#      x y z
#    x 1.299810 0.000000 0.000000 
#    y 0.000000 1.299810 0.000000 
#    z 0.000000 0.000000 1.813970 
# 
# From -- ./inp_files/9512.got.cif
#   From: 2010.05.17/outbox.cif.g08.bks.cpg/sg122_5_cif.got.tgz:9512.got - 2010.05.20 11:37:33.
