data_PCOD9560062
_publ_section_title
;
Structure prediction by ZEFSAII (Michael W. Deem and Ramdas Pophale) SiO2 
 PCOD9560062
Probable space group: I -4 C 2
;
_chemical_formula_sum "Si O2"
_cell_formula_units_Z 28
_cell_length_a 7.021805
_cell_length_b 7.021805
_cell_length_c 17.976241
_cell_angle_alpha 90.000000
_cell_angle_beta 90.000000
_cell_angle_gamma 90.000000
_cell_volume 886.331963
_symmetry_space_group_name_H-M "I -4 C 2"
_symmetry_group_IT_number 120
_symmetry_cell_setting 'tetragonal'
loop_
_space_group_symop_operation_xyz
x,y,z
y,-x,-z
-x,-y,z
-y,x,-z
y,x,1/2-z
-y,-x,1/2-z
-x,y,1/2+z
x,-y,1/2+z
1/2+x,1/2+y,1/2+z
1/2+y,1/2-x,1/2-z
1/2-x,1/2-y,1/2+z
1/2-y,1/2+x,1/2-z
1/2+y,1/2+x,-z
1/2-y,1/2-x,-z
1/2-x,1/2+y,z
1/2+x,1/2-y,z
loop_
_atom_site_type_symbol
_atom_site_label
_atom_site_fract_x
_atom_site_fract_y
_atom_site_fract_z
Si Si1 0.280031 0.500001 0.115420
Si Si2 0.250000 0.250001 0.000000
Si Si3 0.500000 0.000000 0.250000
O O1 0.500000 0.500000 0.129214
O O2 0.250001 0.750001 0.094910
O O3 0.170782 0.500002 0.192354
O O4 0.248374 0.500001 0.018989
#
# Coordination Sequence:
#
# PCOD9560062 Si02
#       3
#    16   8   4
#     4  12  27  55  85 123 172 219 290 357 407 521
#     4  12  22  56  84 114 162 234 282 334 416 504
#     4  12  32  54  88 132 172 226 272 352 472 462
#
# _framework density 31.590876000000002
#
# number of rings (size 3 to 8) (size 9 to 14) (size 15 to 20)
#    0.000    0.000    5.714    3.429    0.000    2.286 
#   10.286    0.000    0.000    0.000    0.000    0.000 
#    0.000    0.000    0.000    0.000    0.000    0.000 
#
# Total GULP energy -78495.173649 kJ/mol
# GULP energy per Si atom -5606.798118 kJ/mol
# Density = 3.151897 g / cm^3
# Si number density = 31.590876 Si / 1000 Ang^3
#
#
#
# Elastic Constant Matrix: (Units=GPa)
#
#
# Indices 1 2 3 4 5 6 
#
# 1 363.2327 146.7644 198.5865 0.0000 0.0000 0.0000
# 2 146.7644 363.2327 198.5865 0.0000 0.0000 0.0000
# 3 198.5865 198.5865 446.1712 0.0000 0.0000 0.0000
# 4 0.0000 0.0000 0.0000 93.1853 0.0000 0.0000
# 5 0.0000 0.0000 0.0000 0.0000 93.1853 0.0000
# 6 0.0000 0.0000 0.0000 0.0000 0.0000 98.3931
#
#
#
# Elastic Compliance Matrix: (Units=1/GPa)
#
#
# Indices 1 2 3 4 5 6 
#
# 1 0.003810 -0.000809 -0.001336 0.000000 0.000000 0.000000
# 2 -0.000809 0.003810 -0.001336 0.000000 0.000000 0.000000
# 3 -0.001336 -0.001336 0.003430 0.000000 0.000000 0.000000
# 4 0.000000 0.000000 0.000000 0.010731 0.000000 0.000000
# 5 0.000000 0.000000 0.000000 0.000000 0.010731 0.000000
# 6 0.000000 0.000000 0.000000 0.000000 0.000000 0.010163
#
#
# Mechanical properties :
#
#
# Convention : Reuss Voigt Hill
#
# Bulk Modulus (GPa) = 244.53028 251.16793 247.84911
# Shear Modulus (GPa) = 98.03623 98.86603 98.45113
#
# Velocity S-wave (km/s) = 5.57678 5.60033 5.58857
# Velocity P-wave (km/s) = 10.91058 11.02258 10.96672
#
# Compressibility (1/GPa) = 0.00408947
#
# Stress axis : x y z
#
# Youngs Moduli (GPa) = 262.44511 262.44511 291.51710
#
# Poissons Ratio (x) = 0.21240 0.38939
# Poissons Ratio (y) = 0.21240 0.38939
# Poissons Ratio (z) = 0.35056 0.35056
#
# Static dielectric constant tensor:
#      x y z
#    x 3.184010 0.000000 0.000000 
#    y 0.000000 3.184010 0.000000 
#    z 0.000000 0.000000 2.079530 
# 
# From -- ./inp_files/3764.got.cif
#   From: 2010.05.17/outbox.cif.g08.bks.cpg/sg120_2_cif.got.tgz:3764.got - 2010.05.20 11:28:13.
