data_PCOD9560121
_publ_section_title
;
Structure prediction by ZEFSAII (Michael W. Deem and Ramdas Pophale) SiO2 
 PCOD9560121
Probable space group: I -4 2 M
;
_chemical_formula_sum "Si O2"
_cell_formula_units_Z 96
_cell_length_a 13.714174
_cell_length_b 13.714174
_cell_length_c 32.871026
_cell_angle_alpha 90.000000
_cell_angle_beta 90.000000
_cell_angle_gamma 90.000000
_cell_volume 6182.335515
_symmetry_space_group_name_H-M "I -4 2 M"
_symmetry_group_IT_number 121
_symmetry_cell_setting 'tetragonal'
loop_
_space_group_symop_operation_xyz
x,y,z
y,-x,-z
-x,-y,z
-y,x,-z
x,-y,-z
-x,y,-z
-y,-x,z
y,x,z
1/2+x,1/2+y,1/2+z
1/2+y,1/2-x,1/2-z
1/2-x,1/2-y,1/2+z
1/2-y,1/2+x,1/2-z
1/2+x,1/2-y,1/2-z
1/2-x,1/2+y,1/2-z
1/2-y,1/2-x,1/2+z
1/2+y,1/2+x,1/2+z
loop_
_atom_site_type_symbol
_atom_site_label
_atom_site_fract_x
_atom_site_fract_y
_atom_site_fract_z
Si Si1 0.841320 0.007864 0.207443
Si Si2 0.219749 0.505261 0.372485
Si Si3 0.203000 0.361637 0.164243
Si Si4 0.055036 0.600928 0.670922
Si Si5 0.633410 0.793186 0.752242
Si Si6 0.499013 0.335674 0.545746
O O1 0.893788 0.106213 0.221570
O O2 0.799089 0.019937 0.162260
O O3 0.759656 0.965775 0.237283
O O4 0.923182 0.923182 0.205447
O O5 0.188899 0.616483 0.361859
O O6 0.129722 0.433080 0.363785
O O7 0.261007 0.497154 0.417408
O O8 0.304912 0.304912 0.156420
O O9 0.183767 0.476811 0.158433
O O10 0.175261 0.342014 0.211435
O O11 0.112124 0.636894 0.710514
O O12 0.000000 0.500000 0.681847
O O13 0.709657 0.709657 0.764843
O O14 0.500000 0.293631 0.500000
O O15 0.589653 0.410348 0.548594
O O16 0.402844 0.402844 0.550072
#
# Coordination Sequence:
#
# PCOD9560121 Si02
#       6
#    16  16  16  16  16  16
#     4   9  17  28  42  61  87 121 157 195 238 279
#     4  10  18  29  45  68  94 120 155 198 239 287
#     4   9  19  32  46  61  83 121 163 202 245 292
#     4  10  22  31  45  65  91 121 159 203 247 285
#     4   9  19  31  41  60  87 116 157 202 242 282
#     4   9  17  29  48  75 104 132 158 186 232 297
#
# _framework density 15.528112999999999
#
# number of rings (size 3 to 8) (size 9 to 14) (size 15 to 20)
#    0.000    2.667    0.000    3.500    7.000    3.333 
#    0.000    0.000    0.000    4.500    0.000    0.000 
#    0.000    0.000    0.000    0.000    0.000   20.833 
#
# Total GULP energy -267656.641212 kJ/mol
# GULP energy per Si atom -5576.180025 kJ/mol
# Density = 1.549277 g / cm^3
# Si number density = 15.528113 Si / 1000 Ang^3
#
#
#
# Elastic Constant Matrix: (Units=GPa)
#
#
# Indices 1 2 3 4 5 6 
#
# 1 63.9006 32.8113 45.6474 0.0000 0.0000 0.0000
# 2 32.8113 63.8997 45.6471 0.0000 0.0000 0.0000
# 3 45.6474 45.6471 114.2777 0.0000 0.0000 0.0000
# 4 0.0000 0.0000 0.0000 20.2557 0.0000 0.0000
# 5 0.0000 0.0000 0.0000 0.0000 20.2558 0.0000
# 6 0.0000 0.0000 0.0000 0.0000 0.0000 27.5450
#
#
#
# Elastic Compliance Matrix: (Units=1/GPa)
#
#
# Indices 1 2 3 4 5 6 
#
# 1 0.024382 -0.007783 -0.006630 0.000000 0.000000 0.000000
# 2 -0.007783 0.024383 -0.006630 0.000000 0.000000 0.000000
# 3 -0.006630 -0.006630 0.014047 0.000000 0.000000 0.000000
# 4 0.000000 0.000000 0.000000 0.049369 0.000000 0.000000
# 5 0.000000 0.000000 0.000000 0.000000 0.049369 0.000000
# 6 0.000000 0.000000 0.000000 0.000000 0.000000 0.036304
#
#
# Mechanical properties :
#
#
# Convention : Reuss Voigt Hill
#
# Bulk Modulus (GPa) = 48.25290 54.47662 51.36476
# Shear Modulus (GPa) = 20.25521 21.47612 20.86566
#
# Velocity S-wave (km/s) = 3.61560 3.72297 3.66968
# Velocity P-wave (km/s) = 6.96936 7.32389 7.14883
#
# Compressibility (1/GPa) = 0.02072414
#
# Stress axis : x y z
#
# Youngs Moduli (GPa) = 41.01342 41.01291 71.18728
#
# Poissons Ratio (x) = 0.31922 0.47199
# Poissons Ratio (y) = 0.31923 0.47199
# Poissons Ratio (z) = 0.27193 0.27193
#
# Static dielectric constant tensor:
#      x y z
#    x 1.557960 0.000000 0.000000 
#    y 0.000000 1.557960 0.000000 
#    z 0.000000 0.000000 1.473990 
# 
# From -- ./inp_files/8326.got.cif
#   From: 2010.05.17/outbox.cif.g08.bks.cpg/sg121_5_cif.got.tgz:8326.got - 2010.05.20 11:32:06.
