data_PCOD9560177
_publ_section_title
;
Structure prediction by ZEFSAII (Michael W. Deem and Ramdas Pophale) SiO2 
 PCOD9560177
Probable space group: I -4 2 M
;
_chemical_formula_sum "Si O2"
_cell_formula_units_Z 64
_cell_length_a 16.172731
_cell_length_b 16.172731
_cell_length_c 9.361343
_cell_angle_alpha 90.000000
_cell_angle_beta 90.000000
_cell_angle_gamma 90.000000
_cell_volume 2448.526925
_symmetry_space_group_name_H-M "I -4 2 M"
_symmetry_group_IT_number 121
_symmetry_cell_setting 'tetragonal'
loop_
_space_group_symop_operation_xyz
x,y,z
y,-x,-z
-x,-y,z
-y,x,-z
x,-y,-z
-x,y,-z
-y,-x,z
y,x,z
1/2+x,1/2+y,1/2+z
1/2+y,1/2-x,1/2-z
1/2-x,1/2-y,1/2+z
1/2-y,1/2+x,1/2-z
1/2+x,1/2-y,1/2-z
1/2-x,1/2+y,1/2-z
1/2-y,1/2-x,1/2+z
1/2+y,1/2+x,1/2+z
loop_
_atom_site_type_symbol
_atom_site_label
_atom_site_fract_x
_atom_site_fract_y
_atom_site_fract_z
Si Si1 0.721710 0.721710 0.259393
Si Si2 0.190755 0.000000 0.500000
Si Si3 0.634822 0.365179 0.490091
Si Si4 0.910145 0.910145 0.714695
Si Si5 0.574043 0.854834 0.910255
Si Si6 0.598219 0.797267 0.625640
O O1 0.698205 0.698205 0.422782
O O2 0.659376 0.659376 0.184899
O O3 0.813933 0.702246 0.210218
O O4 0.129696 0.986414 0.367319
O O5 0.257415 0.928496 0.539068
O O6 0.586656 0.413345 0.614423
O O7 0.700768 0.419204 0.402697
O O8 0.655169 0.896682 0.975930
O O9 0.500000 0.894039 0.000000
O O10 0.547823 0.847299 0.745118
#
# Coordination Sequence:
#
# PCOD9560177 Si02
#       6
#     8   8   8   8  16  16
#     4   9  15  29  55  87 117 141 201 269 324 360
#     4  10  22  35  60  84 133 164 214 252 306 388
#     4   9  19  30  61  90 115 149 210 285 330 351
#     4  10  18  38  52  87 126 164 213 245 304 379
#     4  10  21  36  55  92 119 163 202 255 329 389
#     4  11  18  33  59  87 124 154 200 278 331 361
#
# _framework density 26.138166999999999
#
# number of rings (size 3 to 8) (size 9 to 14) (size 15 to 20)
#    1.500    0.500    5.000    0.000    0.000    2.250 
#    0.000    5.000    0.000    2.250    0.000    1.750 
#    0.000    0.000    0.000    0.000    0.000    0.000 
#
# Total GULP energy -178311.838847 kJ/mol
# GULP energy per Si atom -5572.244964 kJ/mol
# Density = 2.607868 g / cm^3
# Si number density = 26.138167 Si / 1000 Ang^3
#
#
#
# Elastic Constant Matrix: (Units=GPa)
#
#
# Indices 1 2 3 4 5 6 
#
# 1 24.7305 25.5461 20.8510 0.0000 0.0000 0.0000
# 2 25.5461 24.7314 20.8506 0.0000 0.0000 0.0000
# 3 20.8510 20.8506 177.6859 0.0000 0.0000 0.0000
# 4 0.0000 0.0000 0.0000 39.6889 0.0000 0.0000
# 5 0.0000 0.0000 0.0000 0.0000 39.6887 0.0000
# 6 0.0000 0.0000 0.0000 0.0000 0.0000 11.3324
#
#
#
# Elastic Compliance Matrix: (Units=1/GPa)
#
#
# Indices 1 2 3 4 5 6 
#
# 1 -0.602345 0.624367 -0.002583 0.000000 0.000000 0.000000
# 2 0.624367 -0.602319 -0.002589 0.000000 0.000000 0.000000
# 3 -0.002583 -0.002589 0.006235 0.000000 0.000000 0.000000
# 4 0.000000 0.000000 0.000000 0.025196 0.000000 0.000000
# 5 0.000000 0.000000 0.000000 0.000000 0.025196 0.000000
# 6 0.000000 0.000000 0.000000 0.000000 0.000000 0.088243
#
#
# Mechanical properties :
#
#
# Convention : Reuss Voigt Hill
#
# Bulk Modulus (GPa) = 25.02444 40.18257 32.60350
# Shear Modulus (GPa) = -2.18831 28.80201 13.30685
#
# Velocity S-wave (km/s) = -0.91598 3.32311 2.25876
# Velocity P-wave (km/s) = 2.91135 5.48913 4.39355
#
# Compressibility (1/GPa) = 0.03996094
#
# Stress axis : x y z
#
# Youngs Moduli (GPa) = -1.66018 -1.66025 160.39159
#
# Poissons Ratio (x) = 1.03660 0.41425
# Poissons Ratio (y) = 1.03656 0.41518
# Poissons Ratio (z) = -0.00429 -0.00430
#
# Static dielectric constant tensor:
#      x y z
#    x 2.099200 0.000000 0.000000 
#    y 0.000000 2.099200 0.000000 
#    z 0.000000 0.000000 2.182300 
# 
# From -- ./inp_files/1654.got.cif
#   From: 2010.05.17/outbox.cif.g08.bks.cpg/sg121_1_cif.got.tgz:1654.got - 2010.05.20 11:32:06.
