data_PCOD9560662
_publ_section_title
;
Structure prediction by ZEFSAII (Michael W. Deem and Ramdas Pophale) SiO2 
 PCOD9560662
Probable space group: I -4 2 M
;
_chemical_formula_sum "Si O2"
_cell_formula_units_Z 56
_cell_length_a 9.890785
_cell_length_b 9.890785
_cell_length_c 30.991482
_cell_angle_alpha 90.000000
_cell_angle_beta 90.000000
_cell_angle_gamma 90.000000
_cell_volume 3031.823170
_symmetry_space_group_name_H-M "I -4 2 M"
_symmetry_group_IT_number 121
_symmetry_cell_setting 'tetragonal'
loop_
_space_group_symop_operation_xyz
x,y,z
y,-x,-z
-x,-y,z
-y,x,-z
x,-y,-z
-x,y,-z
-y,-x,z
y,x,z
1/2+x,1/2+y,1/2+z
1/2+y,1/2-x,1/2-z
1/2-x,1/2-y,1/2+z
1/2-y,1/2+x,1/2-z
1/2+x,1/2-y,1/2-z
1/2-x,1/2+y,1/2-z
1/2-y,1/2-x,1/2+z
1/2+y,1/2+x,1/2+z
loop_
_atom_site_type_symbol
_atom_site_label
_atom_site_fract_x
_atom_site_fract_y
_atom_site_fract_z
Si Si1 0.500000 0.729400 0.000000
Si Si2 0.492546 0.722713 0.271465
Si Si3 0.325277 0.092235 0.318791
Si Si4 0.995042 0.771319 0.593725
O O1 0.500400 0.799366 0.953264
O O2 0.629265 0.629265 0.001333
O O3 0.349063 0.650938 0.278893
O O4 0.605409 0.605409 0.272432
O O5 0.536757 0.832290 0.306474
O O6 0.493146 0.785078 0.223525
O O7 0.208260 0.208260 0.320972
O O8 0.318927 0.018528 0.364343
O O9 0.857226 0.857226 0.598159
O O10 0.114433 0.885568 0.593070
#
# Coordination Sequence:
#
# PCOD9560662 Si02
#       4
#     8  16  16  16
#     4   7  10  16  28  50  80 111 142 174 206 246
#     4   9  17  28  40  56  80 110 146 183 211 243
#     4   9  16  25  38  55  78 113 148 174 208 250
#     4   8  12  19  33  54  81 114 148 176 206 250
#
# _framework density 18.470735000000001
#
# number of rings (size 3 to 8) (size 9 to 14) (size 15 to 20)
#    0.000    3.571    0.000    2.571    0.000    4.000 
#    0.000    0.000    0.000    0.000    0.000    0.000 
#    0.000    4.571    0.000   24.286    0.000  220.000 
#
# Total GULP energy -155954.647897 kJ/mol
# GULP energy per Si atom -5569.808853 kJ/mol
# Density = 1.842869 g / cm^3
# Si number density = 18.470735 Si / 1000 Ang^3
#
#
#
# Elastic Constant Matrix: (Units=GPa)
#
#
# Indices 1 2 3 4 5 6 
#
# 1 40.2908 22.7595 50.1335 0.0000 0.0000 0.0000
# 2 22.7595 40.2901 50.1333 0.0000 0.0000 0.0000
# 3 50.1335 50.1333 218.8703 0.0000 0.0000 0.0000
# 4 0.0000 0.0000 0.0000 10.8601 0.0000 0.0000
# 5 0.0000 0.0000 0.0000 0.0000 10.8602 0.0000
# 6 0.0000 0.0000 0.0000 0.0000 0.0000 20.2919
#
#
#
# Elastic Compliance Matrix: (Units=1/GPa)
#
#
# Indices 1 2 3 4 5 6 
#
# 1 0.040995 -0.016047 -0.005714 0.000000 0.000000 0.000000
# 2 -0.016047 0.040995 -0.005715 0.000000 0.000000 0.000000
# 3 -0.005714 -0.005715 0.007187 0.000000 0.000000 0.000000
# 4 0.000000 0.000000 0.000000 0.092080 0.000000 0.000000
# 5 0.000000 0.000000 0.000000 0.000000 0.092079 0.000000
# 6 0.000000 0.000000 0.000000 0.000000 0.000000 0.049281
#
#
# Mechanical properties :
#
#
# Convention : Reuss Voigt Hill
#
# Bulk Modulus (GPa) = 29.21841 60.61152 44.91496
# Shear Modulus (GPa) = 12.85424 20.16411 16.50917
#
# Velocity S-wave (km/s) = 2.64090 3.30764 2.99289
# Velocity P-wave (km/s) = 5.01520 6.89010 6.02601
#
# Compressibility (1/GPa) = 0.03422500
#
# Stress axis : x y z
#
# Youngs Moduli (GPa) = 24.39346 24.39297 139.14422
#
# Poissons Ratio (x) = 0.39143 0.79513
# Poissons Ratio (y) = 0.39144 0.79515
# Poissons Ratio (z) = 0.13939 0.13940
#
# Static dielectric constant tensor:
#      x y z
#    x 1.655190 0.000000 0.000000 
#    y 0.000000 1.655190 0.000000 
#    z 0.000000 0.000000 1.656050 
# 
# From -- ./inp_files/6845.got.cif
#   From: 2010.05.17/outbox.cif.g08.bks.cpg/sg121_4_cif.got.tgz:6845.got - 2010.05.20 11:32:06.
