data_PCOD9560567
_publ_section_title
;
Structure prediction by ZEFSAII (Michael W. Deem and Ramdas Pophale) SiO2 
 PCOD9560567
Probable space group: I -4 2 M
;
_chemical_formula_sum "Si O2"
_cell_formula_units_Z 64
_cell_length_a 15.687482
_cell_length_b 15.687482
_cell_length_c 15.320340
_cell_angle_alpha 90.000000
_cell_angle_beta 90.000000
_cell_angle_gamma 90.000000
_cell_volume 3770.291115
_symmetry_space_group_name_H-M "I -4 2 M"
_symmetry_group_IT_number 121
_symmetry_cell_setting 'tetragonal'
loop_
_space_group_symop_operation_xyz
x,y,z
y,-x,-z
-x,-y,z
-y,x,-z
x,-y,-z
-x,y,-z
-y,-x,z
y,x,z
1/2+x,1/2+y,1/2+z
1/2+y,1/2-x,1/2-z
1/2-x,1/2-y,1/2+z
1/2-y,1/2+x,1/2-z
1/2+x,1/2-y,1/2-z
1/2-x,1/2+y,1/2-z
1/2-y,1/2-x,1/2+z
1/2+y,1/2+x,1/2+z
loop_
_atom_site_type_symbol
_atom_site_label
_atom_site_fract_x
_atom_site_fract_y
_atom_site_fract_z
Si Si1 0.771832 0.628506 0.628789
Si Si2 0.594353 0.897542 0.775031
Si Si3 0.495662 0.636015 0.605284
Si Si4 0.899215 0.404714 0.020670
O O1 0.697971 0.697971 0.622181
O O2 0.829392 0.640060 0.713920
O O3 0.725528 0.535448 0.634415
O O4 0.832512 0.634449 0.544346
O O5 0.492800 0.886692 0.758816
O O6 0.613137 0.888115 0.877136
O O7 0.500000 0.639063 0.500000
O O8 0.402710 0.597291 0.628991
O O9 0.564056 0.564056 0.633391
O O10 0.865489 0.500000 0.000000
O O11 0.000000 0.407569 0.000000
#
# Coordination Sequence:
#
# PCOD9560567 Si02
#       4
#    16  16  16  16
#     4  11  22  34  53  86 116 140 187 238 278 338
#     4  11  20  36  58  79 105 144 187 230 281 342
#     4   8  15  29  48  72 107 146 176 210 265 328
#     4  11  19  35  60  79 103 147 187 227 283 343
#
# _framework density 16.974816000000001
#
# number of rings (size 3 to 8) (size 9 to 14) (size 15 to 20)
#    0.000    1.750    5.000    3.000    0.000    1.000 
#    0.000    1.250    0.000    0.000    0.000    0.000 
#    0.000    0.500    0.000    0.000    0.000    0.000 
#
# Total GULP energy -178332.829393 kJ/mol
# GULP energy per Si atom -5572.900919 kJ/mol
# Density = 1.693618 g / cm^3
# Si number density = 16.974816 Si / 1000 Ang^3
#
#
#
# Elastic Constant Matrix: (Units=GPa)
#
#
# Indices 1 2 3 4 5 6 
#
# 1 75.4924 36.6901 40.5417 0.0000 0.0000 0.0000
# 2 36.6901 75.4917 40.5416 0.0000 0.0000 0.0000
# 3 40.5417 40.5416 147.4075 0.0000 0.0000 0.0000
# 4 0.0000 0.0000 0.0000 15.6284 0.0000 0.0000
# 5 0.0000 0.0000 0.0000 0.0000 15.6283 0.0000
# 6 0.0000 0.0000 0.0000 0.0000 0.0000 11.5448
#
#
#
# Elastic Compliance Matrix: (Units=1/GPa)
#
#
# Indices 1 2 3 4 5 6 
#
# 1 0.018449 -0.007323 -0.003060 0.000000 0.000000 0.000000
# 2 -0.007323 0.018449 -0.003060 0.000000 0.000000 0.000000
# 3 -0.003060 -0.003060 0.008467 0.000000 0.000000 0.000000
# 4 0.000000 0.000000 0.000000 0.063986 0.000000 0.000000
# 5 0.000000 0.000000 0.000000 0.000000 0.063986 0.000000
# 6 0.000000 0.000000 0.000000 0.000000 0.000000 0.086619
#
#
# Mechanical properties :
#
#
# Convention : Reuss Voigt Hill
#
# Bulk Modulus (GPa) = 54.11597 59.32650 56.72123
# Shear Modulus (GPa) = 17.06474 20.60151 18.83313
#
# Velocity S-wave (km/s) = 3.17408 3.48753 3.33449
# Velocity P-wave (km/s) = 6.73665 7.15840 6.95073
#
# Compressibility (1/GPa) = 0.01847883
#
# Stress axis : x y z
#
# Youngs Moduli (GPa) = 54.20426 54.20374 118.10472
#
# Poissons Ratio (x) = 0.39694 0.36139
# Poissons Ratio (y) = 0.39694 0.36139
# Poissons Ratio (z) = 0.16586 0.16586
#
# Static dielectric constant tensor:
#      x y z
#    x 1.603970 0.000000 0.000000 
#    y 0.000000 1.603980 0.000000 
#    z 0.000000 0.000000 1.553040 
# 
# From -- ./inp_files/4045.got.cif
#   From: 2010.05.17/outbox.cif.g08.bks.cpg/sg121_3_cif.got.tgz:4045.got - 2010.05.20 11:32:06.
