data_PCOD9560449
_publ_section_title
;
Structure prediction by ZEFSAII (Michael W. Deem and Ramdas Pophale) SiO2 
 PCOD9560449
Probable space group: I -4 2 M
;
_chemical_formula_sum "Si O2"
_cell_formula_units_Z 96
_cell_length_a 23.967100
_cell_length_b 23.967100
_cell_length_c 8.157196
_cell_angle_alpha 90.000000
_cell_angle_beta 90.000000
_cell_angle_gamma 90.000000
_cell_volume 4685.671882
_symmetry_space_group_name_H-M "I -4 2 M"
_symmetry_group_IT_number 121
_symmetry_cell_setting 'tetragonal'
loop_
_space_group_symop_operation_xyz
x,y,z
y,-x,-z
-x,-y,z
-y,x,-z
x,-y,-z
-x,y,-z
-y,-x,z
y,x,z
1/2+x,1/2+y,1/2+z
1/2+y,1/2-x,1/2-z
1/2-x,1/2-y,1/2+z
1/2-y,1/2+x,1/2-z
1/2+x,1/2-y,1/2-z
1/2-x,1/2+y,1/2-z
1/2-y,1/2-x,1/2+z
1/2+y,1/2+x,1/2+z
loop_
_atom_site_type_symbol
_atom_site_label
_atom_site_fract_x
_atom_site_fract_y
_atom_site_fract_z
Si Si1 0.083426 0.542761 0.750997
Si Si2 0.141286 0.601832 0.472437
Si Si3 0.245202 0.060176 0.078129
Si Si4 0.610103 0.700372 0.884261
Si Si5 0.708276 0.796609 0.378106
Si Si6 0.873784 0.782722 0.744437
O O1 0.070123 0.478121 0.782713
O O2 0.125673 0.554709 0.604846
O O3 0.110088 0.581767 0.888919
O O4 0.191901 0.576690 0.367777
O O5 0.166917 0.658787 0.541443
O O6 0.206686 0.066637 0.237411
O O7 0.228031 0.098037 0.920416
O O8 0.244781 0.000000 0.000000
O O9 0.640440 0.640440 0.886392
O O10 0.658971 0.744371 0.835262
O O11 0.593380 0.716020 0.071709
O O12 0.743461 0.743461 0.453078
O O13 0.673513 0.765616 0.233769
O O14 0.840607 0.840607 0.752723
#
# Coordination Sequence:
#
# PCOD9560449 Si02
#       6
#    16  16  16  16  16  16
#     4  11  23  40  59  76 102 147 206 267 315 351
#     4  11  23  38  56  80 109 143 191 248 308 364
#     4  11  23  37  55  82 120 157 193 240 294 357
#     4  10  21  37  58  84 114 151 191 235 288 350
#     4   9  20  35  57  87 113 142 184 237 301 372
#     4   9  20  36  57  84 114 149 192 239 288 353
#
# _framework density 20.48799
#
# number of rings (size 3 to 8) (size 9 to 14) (size 15 to 20)
#    0.000    1.833    0.000    3.500    9.333    2.667 
#    0.000    0.000    0.000    0.000    0.000    0.000 
#    0.000    5.333    0.000   14.667    0.000    0.000 
#
# Total GULP energy -267352.132341 kJ/mol
# GULP energy per Si atom -5569.836090 kJ/mol
# Density = 2.044136 g / cm^3
# Si number density = 20.487990 Si / 1000 Ang^3
#
#
#
# Elastic Constant Matrix: (Units=GPa)
#
#
# Indices 1 2 3 4 5 6 
#
# 1 44.3154 46.9349 11.6462 0.0000 0.0000 0.0000
# 2 46.9349 44.3154 11.6462 0.0000 0.0000 0.0000
# 3 11.6462 11.6462 77.4503 0.0000 0.0000 0.0000
# 4 0.0000 0.0000 0.0000 28.8586 0.0000 0.0000
# 5 0.0000 0.0000 0.0000 0.0000 28.8586 0.0000
# 6 0.0000 0.0000 0.0000 0.0000 0.0000 28.4049
#
#
#
# Elastic Compliance Matrix: (Units=1/GPa)
#
#
# Indices 1 2 3 4 5 6 
#
# 1 -0.185181 0.196577 -0.001714 0.000000 0.000000 0.000000
# 2 0.196577 -0.185181 -0.001714 0.000000 0.000000 0.000000
# 3 -0.001714 -0.001714 0.013427 0.000000 0.000000 0.000000
# 4 0.000000 0.000000 0.000000 0.034652 0.000000 0.000000
# 5 0.000000 0.000000 0.000000 0.000000 0.034652 0.000000
# 6 0.000000 0.000000 0.000000 0.000000 0.000000 0.035205
#
#
# Mechanical properties :
#
#
# Convention : Reuss Voigt Hill
#
# Bulk Modulus (GPa) = 34.05435 34.05952 34.05694
# Shear Modulus (GPa) = -7.94991 23.61467 7.83238
#
# Velocity S-wave (km/s) = -1.97198 3.39869 1.95735
# Velocity P-wave (km/s) = 3.38715 5.66231 4.66554
#
# Compressibility (1/GPa) = 0.02936482
#
# Stress axis : x y z
#
# Youngs Moduli (GPa) = -5.40012 -5.40012 74.47753
#
# Poissons Ratio (x) = 1.06154 0.12763
# Poissons Ratio (y) = 1.06154 0.12763
# Poissons Ratio (z) = -0.00925 -0.00925
#
# Static dielectric constant tensor:
#      x y z
#    x 1.733990 0.000000 0.000000 
#    y 0.000000 1.733990 0.000000 
#    z 0.000000 0.000000 1.955180 
# 
# From -- ./inp_files/1953.got.cif
#   From: 2010.05.17/outbox.cif.g08.bks.cpg/sg121_1_cif.got.tgz:1953.got - 2010.05.20 11:32:06.
