data_PCOD9560947
_publ_section_title
;
Structure prediction by ZEFSAII (Michael W. Deem and Ramdas Pophale) SiO2 
 PCOD9560947
Probable space group: I -4 2 D
;
_chemical_formula_sum "Si O2"
_cell_formula_units_Z 96
_cell_length_a 19.678545
_cell_length_b 19.678545
_cell_length_c 11.311359
_cell_angle_alpha 90.000000
_cell_angle_beta 90.000000
_cell_angle_gamma 90.000000
_cell_volume 4380.268724
_symmetry_space_group_name_H-M "I -4 2 D"
_symmetry_group_IT_number 122
_symmetry_cell_setting 'tetragonal'
loop_
_space_group_symop_operation_xyz
x,y,z
y,-x,-z
-x,-y,z
-y,x,-z
x,1/2-y,1/4-z
-x,1/2+y,1/4-z
-y,1/2-x,1/4+z
y,1/2+x,1/4+z
1/2+x,1/2+y,1/2+z
1/2+y,1/2-x,1/2-z
1/2-x,1/2-y,1/2+z
1/2-y,1/2+x,1/2-z
1/2+x,-y,3/4-z
1/2-x,y,3/4-z
1/2-y,-x,3/4+z
1/2+y,x,3/4+z
loop_
_atom_site_type_symbol
_atom_site_label
_atom_site_fract_x
_atom_site_fract_y
_atom_site_fract_z
Si Si1 0.272704 0.205384 0.737584
Si Si2 0.957843 0.815015 0.708268
Si Si3 0.826120 0.600801 0.603352
Si Si4 0.831747 0.972378 0.864839
Si Si5 0.659348 0.087273 0.710000
Si Si6 0.399577 0.463475 0.955411
O O1 0.249492 0.250000 0.625000
O O2 0.243141 0.132401 0.695522
O O3 0.353658 0.208696 0.745706
O O4 0.250000 0.218411 0.875000
O O5 0.970500 0.750000 0.625000
O O6 0.882979 0.842392 0.673616
O O7 0.953859 0.808069 0.849580
O O8 0.010556 0.874264 0.671151
O O9 0.844513 0.535589 0.523958
O O10 0.837159 0.577422 0.736066
O O11 0.750000 0.973101 0.875000
O O12 0.870551 0.906208 0.915581
O O13 0.858250 0.036846 0.934903
O O14 0.418417 0.533274 0.025883
#
# Coordination Sequence:
#
# PCOD9560947 Si02
#       6
#    16  16  16  16  16  16
#     4  12  23  45  73 103 139 185 236 288 365 421
#     4  10  21  37  63  96 129 170 223 284 345 406
#     4  10  20  41  67  86 135 179 213 293 352 399
#     4  11  22  42  64  92 133 176 225 286 345 414
#     4  11  24  41  66  96 135 185 225 286 352 418
#     4   9  20  39  64  95 128 175 226 272 344 418
#
# _framework density 21.916464000000001
#
# number of rings (size 3 to 8) (size 9 to 14) (size 15 to 20)
#    0.000    1.500    5.000    1.000    2.333    1.667 
#    0.000    5.833    0.000    0.000    0.000    0.000 
#    0.000    0.000    0.000    0.000    0.000    0.000 
#
# Total GULP energy -267399.583586 kJ/mol
# GULP energy per Si atom -5570.824658 kJ/mol
# Density = 2.186658 g / cm^3
# Si number density = 21.916464 Si / 1000 Ang^3
#
#
#
# Elastic Constant Matrix: (Units=GPa)
#
#
# Indices 1 2 3 4 5 6 
#
# 1 60.1813 -7.1970 36.6778 0.0000 0.0000 0.0000
# 2 -7.1970 60.1813 36.6778 0.0000 0.0000 0.0000
# 3 36.6778 36.6778 96.5373 0.0000 0.0000 0.0000
# 4 0.0000 0.0000 0.0000 30.0659 0.0000 0.0000
# 5 0.0000 0.0000 0.0000 0.0000 30.0659 0.0000
# 6 0.0000 0.0000 0.0000 0.0000 0.0000 14.2136
#
#
#
# Elastic Compliance Matrix: (Units=1/GPa)
#
#
# Indices 1 2 3 4 5 6 
#
# 1 0.027330 0.012488 -0.015128 0.000000 0.000000 0.000000
# 2 0.012488 0.027330 -0.015128 0.000000 0.000000 0.000000
# 3 -0.015128 -0.015128 0.021854 0.000000 0.000000 0.000000
# 4 0.000000 0.000000 0.000000 0.033260 0.000000 0.000000
# 5 0.000000 0.000000 0.000000 0.000000 0.033260 0.000000
# 6 0.000000 0.000000 0.000000 0.000000 0.000000 0.070355
#
#
# Mechanical properties :
#
#
# Convention : Reuss Voigt Hill
#
# Bulk Modulus (GPa) = 24.40359 38.80193 31.60276
# Shear Modulus (GPa) = 19.04137 24.91847 21.97992
#
# Velocity S-wave (km/s) = 2.95077 3.37556 3.17029
# Velocity P-wave (km/s) = 4.77162 5.73894 5.27749
#
# Compressibility (1/GPa) = 0.04097758
#
# Stress axis : x y z
#
# Youngs Moduli (GPa) = 36.58982 36.58982 45.75762
#
# Poissons Ratio (x) = -0.45695 0.69224
# Poissons Ratio (y) = -0.45695 0.69224
# Poissons Ratio (z) = 0.55355 0.55355
#
# Static dielectric constant tensor:
#      x y z
#    x 1.813560 0.000000 0.000000 
#    y 0.000000 1.813560 0.000000 
#    z 0.000000 0.000000 1.821740 
# 
# From -- ./inp_files/4469.got.cif
#   From: 2010.05.17/outbox.cif.g08.bks.cpg/sg122_3_cif.got.tgz:4469.got - 2010.05.20 11:37:33.
