data_PCOD9560608
_publ_section_title
;
Structure prediction by ZEFSAII (Michael W. Deem and Ramdas Pophale) SiO2 
 PCOD9560608
Probable space group: I -4 2 M
;
_chemical_formula_sum "Si O2"
_cell_formula_units_Z 40
_cell_length_a 10.702550
_cell_length_b 10.702550
_cell_length_c 17.102048
_cell_angle_alpha 90.000000
_cell_angle_beta 90.000000
_cell_angle_gamma 90.000000
_cell_volume 1958.946845
_symmetry_space_group_name_H-M "I -4 2 M"
_symmetry_group_IT_number 121
_symmetry_cell_setting 'tetragonal'
loop_
_space_group_symop_operation_xyz
x,y,z
y,-x,-z
-x,-y,z
-y,x,-z
x,-y,-z
-x,y,-z
-y,-x,z
y,x,z
1/2+x,1/2+y,1/2+z
1/2+y,1/2-x,1/2-z
1/2-x,1/2-y,1/2+z
1/2-y,1/2+x,1/2-z
1/2+x,1/2-y,1/2-z
1/2-x,1/2+y,1/2-z
1/2-y,1/2-x,1/2+z
1/2+y,1/2+x,1/2+z
loop_
_atom_site_type_symbol
_atom_site_label
_atom_site_fract_x
_atom_site_fract_y
_atom_site_fract_z
Si Si1 0.501866 0.700317 0.778785
Si Si2 0.877705 0.415342 0.637761
Si Si3 0.199667 0.000000 0.000000
O O1 0.384978 0.615023 0.803894
O O2 0.605516 0.605516 0.744928
O O3 0.455104 0.798798 0.714423
O O4 0.568458 0.777659 0.847201
O O5 0.786263 0.437897 0.565552
O O6 0.000000 0.500000 0.629231
O O7 0.107602 0.107602 0.032773
#
# Coordination Sequence:
#
# PCOD9560608 Si02
#       3
#    16  16   8
#     4  11  22  38  65  97 130 171 218 272 327 386
#     4  12  23  41  64  96 134 171 219 269 326 387
#     4  11  25  44  68  98 135 177 218 270 332 397
#
# _framework density 20.419134
#
# number of rings (size 3 to 8) (size 9 to 14) (size 15 to 20)
#    0.000    0.600    4.000    5.400    0.000    4.800 
#    0.000    0.000    0.000    0.000    0.000    5.600 
#    0.000    0.000    0.000    0.000    0.000    0.000 
#
# Total GULP energy -111789.679933 kJ/mol
# GULP energy per Si atom -5589.483997 kJ/mol
# Density = 2.037266 g / cm^3
# Si number density = 20.419134 Si / 1000 Ang^3
#
#
#
# Elastic Constant Matrix: (Units=GPa)
#
#
# Indices 1 2 3 4 5 6 
#
# 1 139.3389 65.3979 40.6595 0.0000 0.0000 0.0000
# 2 65.3979 139.3375 40.6599 0.0000 0.0000 0.0000
# 3 40.6595 40.6599 77.7273 0.0000 0.0000 0.0000
# 4 0.0000 0.0000 0.0000 21.7441 0.0000 0.0000
# 5 0.0000 0.0000 0.0000 0.0000 21.7435 0.0000
# 6 0.0000 0.0000 0.0000 0.0000 0.0000 58.0354
#
#
#
# Elastic Compliance Matrix: (Units=1/GPa)
#
#
# Indices 1 2 3 4 5 6 
#
# 1 0.009845 -0.003680 -0.003225 0.000000 0.000000 0.000000
# 2 -0.003680 0.009845 -0.003225 0.000000 0.000000 0.000000
# 3 -0.003225 -0.003225 0.016240 0.000000 0.000000 0.000000
# 4 0.000000 0.000000 0.000000 0.045989 0.000000 0.000000
# 5 0.000000 0.000000 0.000000 0.000000 0.045991 0.000000
# 6 0.000000 0.000000 0.000000 0.000000 0.000000 0.017231
#
#
# Mechanical properties :
#
#
# Convention : Reuss Voigt Hill
#
# Bulk Modulus (GPa) = 63.81696 72.20425 68.01060
# Shear Modulus (GPa) = 29.30431 34.28370 31.79400
#
# Velocity S-wave (km/s) = 3.79243 4.10200 3.95025
# Velocity P-wave (km/s) = 7.10620 7.60744 7.36109
#
# Compressibility (1/GPa) = 0.01566982
#
# Stress axis : x y z
#
# Youngs Moduli (GPa) = 101.57642 101.57492 61.57756
#
# Poissons Ratio (x) = 0.37375 0.19859
# Poissons Ratio (y) = 0.37375 0.19860
# Poissons Ratio (z) = 0.32759 0.32760
#
# Static dielectric constant tensor:
#      x y z
#    x 1.746180 0.000000 0.000000 
#    y 0.000000 1.746180 0.000000 
#    z 0.000000 0.000000 1.702420 
# 
# From -- ./inp_files/4784.got.cif
#   From: 2010.05.17/outbox.cif.g08.bks.cpg/sg121_3_cif.got.tgz:4784.got - 2010.05.20 11:32:06.
