data_PCOD9560405
_publ_section_title
;
Structure prediction by ZEFSAII (Michael W. Deem and Ramdas Pophale) SiO2 
 PCOD9560405
Probable space group: I -4 2 M
;
_chemical_formula_sum "Si O2"
_cell_formula_units_Z 64
_cell_length_a 12.175039
_cell_length_b 12.175039
_cell_length_c 21.967897
_cell_angle_alpha 90.000000
_cell_angle_beta 90.000000
_cell_angle_gamma 90.000000
_cell_volume 3256.335964
_symmetry_space_group_name_H-M "I -4 2 M"
_symmetry_group_IT_number 121
_symmetry_cell_setting 'tetragonal'
loop_
_space_group_symop_operation_xyz
x,y,z
y,-x,-z
-x,-y,z
-y,x,-z
x,-y,-z
-x,y,-z
-y,-x,z
y,x,z
1/2+x,1/2+y,1/2+z
1/2+y,1/2-x,1/2-z
1/2-x,1/2-y,1/2+z
1/2-y,1/2+x,1/2-z
1/2+x,1/2-y,1/2-z
1/2-x,1/2+y,1/2-z
1/2-y,1/2-x,1/2+z
1/2+y,1/2+x,1/2+z
loop_
_atom_site_type_symbol
_atom_site_label
_atom_site_fract_x
_atom_site_fract_y
_atom_site_fract_z
Si Si1 0.412399 0.587602 0.913342
Si Si2 0.668826 0.982314 0.727920
Si Si3 0.824699 0.497486 0.084405
Si Si4 0.620379 0.806534 0.508553
Si Si5 0.410817 0.589184 0.765823
O O1 0.500000 0.500000 0.932794
O O2 0.454545 0.705344 0.932981
O O3 0.409866 0.590135 0.839658
O O4 0.584103 0.882124 0.735672
O O5 0.671557 0.015207 0.656816
O O6 0.788131 0.946433 0.751052
O O7 0.847282 0.384961 0.048739
O O8 0.896819 0.600734 0.061471
O O9 0.500000 0.754476 0.500000
O O10 0.715463 0.715463 0.519394
O O11 0.500000 0.500000 0.745514
#
# Coordination Sequence:
#
# PCOD9560405 Si02
#       5
#     8  16  16  16   8
#     4   9  16  32  60  89 124 152 194 259 324 364
#     4  10  23  38  64  91 125 168 215 263 318 374
#     4  10  20  40  62  93 123 158 204 266 316 375
#     4  11  24  40  64  90 124 165 208 259 316 376
#     4   9  20  38  58  86 123 167 209 261 308 364
#
# _framework density 19.653991999999999
#
# number of rings (size 3 to 8) (size 9 to 14) (size 15 to 20)
#    0.000    2.000    1.250    2.250    8.750    1.250 
#    0.000    0.000    0.000    0.000    0.000    0.000 
#    0.000    0.000    0.000    0.000    0.000    0.000 
#
# Total GULP energy -178493.080314 kJ/mol
# GULP energy per Si atom -5577.908760 kJ/mol
# Density = 1.960926 g / cm^3
# Si number density = 19.653992 Si / 1000 Ang^3
#
#
#
# Elastic Constant Matrix: (Units=GPa)
#
#
# Indices 1 2 3 4 5 6 
#
# 1 114.1390 56.7508 -2.3995 0.0000 0.0000 0.0000
# 2 56.7508 114.1404 -2.3997 0.0000 0.0000 0.0000
# 3 -2.3995 -2.3997 41.8748 0.0000 0.0000 0.0000
# 4 0.0000 0.0000 0.0000 18.6731 0.0000 0.0000
# 5 0.0000 0.0000 0.0000 0.0000 18.6728 0.0000
# 6 0.0000 0.0000 0.0000 0.0000 0.0000 24.6126
#
#
#
# Elastic Compliance Matrix: (Units=1/GPa)
#
#
# Indices 1 2 3 4 5 6 
#
# 1 0.011643 -0.005782 0.000336 0.000000 0.000000 0.000000
# 2 -0.005782 0.011643 0.000336 0.000000 0.000000 0.000000
# 3 0.000336 0.000336 0.023919 0.000000 0.000000 0.000000
# 4 0.000000 0.000000 0.000000 0.053553 0.000000 0.000000
# 5 0.000000 0.000000 0.000000 0.000000 0.053554 0.000000
# 6 0.000000 0.000000 0.000000 0.000000 0.000000 0.040630
#
#
# Mechanical properties :
#
#
# Convention : Reuss Voigt Hill
#
# Bulk Modulus (GPa) = 27.03801 41.56192 34.29996
# Shear Modulus (GPa) = 22.98954 26.93855 24.96405
#
# Velocity S-wave (km/s) = 3.42382 3.70623 3.56782
# Velocity P-wave (km/s) = 5.42374 6.28551 5.87046
#
# Compressibility (1/GPa) = 0.03698497
#
# Stress axis : x y z
#
# Youngs Moduli (GPa) = 85.88755 85.88858 41.80736
#
# Poissons Ratio (x) = 0.49660 -0.01404
# Poissons Ratio (y) = 0.49660 -0.01404
# Poissons Ratio (z) = -0.02884 -0.02885
#
# Static dielectric constant tensor:
#      x y z
#    x 1.697260 0.000000 0.000000 
#    y 0.000000 1.697250 0.000000 
#    z 0.000000 0.000000 1.696740 
# 
# From -- ./inp_files/6938.got.cif
#   From: 2010.05.17/outbox.cif.g08.bks.cpg/sg121_4_cif.got.tgz:6938.got - 2010.05.20 11:32:06.
