data_PCOD9560094
_publ_section_title
;
Structure prediction by ZEFSAII (Michael W. Deem and Ramdas Pophale) SiO2 
 PCOD9560094
Probable space group: I -4 2 M
;
_chemical_formula_sum "Si O2"
_cell_formula_units_Z 80
_cell_length_a 14.742964
_cell_length_b 14.742964
_cell_length_c 16.983610
_cell_angle_alpha 90.000000
_cell_angle_beta 90.000000
_cell_angle_gamma 90.000000
_cell_volume 3691.472339
_symmetry_space_group_name_H-M "I -4 2 M"
_symmetry_group_IT_number 121
_symmetry_cell_setting 'tetragonal'
loop_
_space_group_symop_operation_xyz
x,y,z
y,-x,-z
-x,-y,z
-y,x,-z
x,-y,-z
-x,y,-z
-y,-x,z
y,x,z
1/2+x,1/2+y,1/2+z
1/2+y,1/2-x,1/2-z
1/2-x,1/2-y,1/2+z
1/2-y,1/2+x,1/2-z
1/2+x,1/2-y,1/2-z
1/2-x,1/2+y,1/2-z
1/2-y,1/2-x,1/2+z
1/2+y,1/2+x,1/2+z
loop_
_atom_site_type_symbol
_atom_site_label
_atom_site_fract_x
_atom_site_fract_y
_atom_site_fract_z
Si Si1 0.763590 0.093769 0.043487
Si Si2 0.812632 0.337391 0.276443
Si Si3 0.019406 0.166929 0.184360
Si Si4 0.205675 0.941840 0.354464
Si Si5 0.222999 0.622910 0.104021
O O1 0.840497 0.159504 0.007827
O O2 0.671315 0.151048 0.047675
O O3 0.802517 0.062581 0.128789
O O4 0.752825 0.000000 0.000000
O O5 0.752449 0.247552 0.263472
O O6 0.749022 0.408590 0.320494
O O7 0.895709 0.299399 0.325545
O O8 0.826773 0.377813 0.189616
O O9 0.074938 0.074938 0.164570
O O10 0.986318 0.163273 0.274826
O O11 0.134549 0.865452 0.384041
O O12 0.234202 0.024843 0.409756
O O13 0.306690 0.693311 0.109335
#
# Coordination Sequence:
#
# PCOD9560094 Si02
#       5
#    16  16  16  16  16
#     4  11  22  36  53  76 114 161 201 235 278 338
#     4   8  15  29  48  73 106 144 181 228 298 351
#     4  10  19  30  49  77 111 149 194 241 284 338
#     4  10  17  29  53  80 108 145 193 243 297 356
#     4   9  18  32  48  73 112 152 188 240 302 344
#
# _framework density 21.671571
#
# number of rings (size 3 to 8) (size 9 to 14) (size 15 to 20)
#    0.000    2.400    2.000    3.000    0.000    3.800 
#    0.000    1.000    0.000    2.400    0.000    0.000 
#    0.000    1.600    0.000   20.800    0.000    0.400 
#
# Total GULP energy -223150.325270 kJ/mol
# GULP energy per Si atom -5578.758132 kJ/mol
# Density = 2.162225 g / cm^3
# Si number density = 21.671571 Si / 1000 Ang^3
#
#
#
# Elastic Constant Matrix: (Units=GPa)
#
#
# Indices 1 2 3 4 5 6 
#
# 1 124.2083 73.7383 23.2947 0.0000 0.0000 0.0000
# 2 73.7383 124.2113 23.2957 0.0000 0.0000 0.0000
# 3 23.2947 23.2957 41.0165 0.0000 0.0000 0.0000
# 4 0.0000 0.0000 0.0000 19.7296 0.0000 0.0000
# 5 0.0000 0.0000 0.0000 0.0000 19.7289 0.0000
# 6 0.0000 0.0000 0.0000 0.0000 0.0000 38.1176
#
#
#
# Elastic Compliance Matrix: (Units=1/GPa)
#
#
# Indices 1 2 3 4 5 6 
#
# 1 0.012822 -0.006991 -0.003312 0.000000 0.000000 0.000000
# 2 -0.006991 0.012822 -0.003312 0.000000 0.000000 0.000000
# 3 -0.003312 -0.003312 0.028142 0.000000 0.000000 0.000000
# 4 0.000000 0.000000 0.000000 0.050685 0.000000 0.000000
# 5 0.000000 0.000000 0.000000 0.000000 0.050687 0.000000
# 6 0.000000 0.000000 0.000000 0.000000 0.000000 0.026235
#
#
# Mechanical properties :
#
#
# Convention : Reuss Voigt Hill
#
# Bulk Modulus (GPa) = 37.65415 58.89928 48.27672
# Shear Modulus (GPa) = 22.99107 26.78904 24.89006
#
# Velocity S-wave (km/s) = 3.26066 3.51969 3.39265
# Velocity P-wave (km/s) = 5.62036 6.61474 6.13772
#
# Compressibility (1/GPa) = 0.02655750
#
# Stress axis : x y z
#
# Youngs Moduli (GPa) = 77.98886 77.99005 35.53359
#
# Poissons Ratio (x) = 0.54522 0.11768
# Poissons Ratio (y) = 0.54521 0.11769
# Poissons Ratio (z) = 0.25827 0.25831
#
# Static dielectric constant tensor:
#      x y z
#    x 1.781680 0.000000 0.000000 
#    y 0.000000 1.781670 0.000000 
#    z 0.000000 0.000000 1.861280 
# 
# From -- ./inp_files/6196.got.cif
#   From: 2010.05.17/outbox.cif.g08.bks.cpg/sg121_4_cif.got.tgz:6196.got - 2010.05.20 11:32:06.
