data_PCOD9560667
_publ_section_title
;
Structure prediction by ZEFSAII (Michael W. Deem and Ramdas Pophale) SiO2 
 PCOD9560667
Probable space group: I -4 2 M
;
_chemical_formula_sum "Si O2"
_cell_formula_units_Z 64
_cell_length_a 13.318084
_cell_length_b 13.318084
_cell_length_c 16.801868
_cell_angle_alpha 90.000000
_cell_angle_beta 90.000000
_cell_angle_gamma 90.000000
_cell_volume 2980.170202
_symmetry_space_group_name_H-M "I -4 2 M"
_symmetry_group_IT_number 121
_symmetry_cell_setting 'tetragonal'
loop_
_space_group_symop_operation_xyz
x,y,z
y,-x,-z
-x,-y,z
-y,x,-z
x,-y,-z
-x,y,-z
-y,-x,z
y,x,z
1/2+x,1/2+y,1/2+z
1/2+y,1/2-x,1/2-z
1/2-x,1/2-y,1/2+z
1/2-y,1/2+x,1/2-z
1/2+x,1/2-y,1/2-z
1/2-x,1/2+y,1/2-z
1/2-y,1/2-x,1/2+z
1/2+y,1/2+x,1/2+z
loop_
_atom_site_type_symbol
_atom_site_label
_atom_site_fract_x
_atom_site_fract_y
_atom_site_fract_z
Si Si1 0.698164 0.133844 0.933535
Si Si2 0.994173 0.835619 0.853173
Si Si3 0.913998 0.747679 0.442956
Si Si4 0.262745 0.574122 0.816766
O O1 0.788135 0.211866 0.948827
O O2 0.751090 0.030647 0.913206
O O3 0.644311 0.174757 0.852448
O O4 0.622610 0.150722 0.006955
O O5 0.088787 0.911214 0.833083
O O6 0.949450 0.781303 0.775285
O O7 0.908172 0.908172 0.886739
O O8 0.821898 0.821898 0.434817
O O9 0.000000 0.793782 0.500000
O O10 0.968878 0.740064 0.359402
O O11 0.364972 0.635029 0.841884
#
# Coordination Sequence:
#
# PCOD9560667 Si02
#       4
#    16  16  16  16
#     4   8  15  26  38  59  96 137 174 213 262 319
#     4   9  16  26  42  65  96 136 181 224 261 311
#     4   9  15  22  35  59  96 139 175 211 261 319
#     4   9  16  25  40  65  98 137 177 219 269 323
#
# _framework density 21.475283000000001
#
# number of rings (size 3 to 8) (size 9 to 14) (size 15 to 20)
#    0.000    3.250    0.000    3.000    0.000    2.750 
#    0.000    0.000    0.000    0.750    0.000    1.750 
#    0.000   22.000    0.000  167.250    0.000  213.000 
#
# Total GULP energy -178180.602696 kJ/mol
# GULP energy per Si atom -5568.143834 kJ/mol
# Density = 2.142640 g / cm^3
# Si number density = 21.475283 Si / 1000 Ang^3
#
#
#
# Elastic Constant Matrix: (Units=GPa)
#
#
# Indices 1 2 3 4 5 6 
#
# 1 66.8828 66.3828 53.4822 0.0000 0.0000 0.0000
# 2 66.3828 66.8835 53.4821 0.0000 0.0000 0.0000
# 3 53.4822 53.4821 72.5359 0.0000 0.0000 0.0000
# 4 0.0000 0.0000 0.0000 26.3435 0.0000 0.0000
# 5 0.0000 0.0000 0.0000 0.0000 26.3433 0.0000
# 6 0.0000 0.0000 0.0000 0.0000 0.0000 101.1350
#
#
#
# Elastic Compliance Matrix: (Units=1/GPa)
#
#
# Indices 1 2 3 4 5 6 
#
# 1 1.008433 -0.990035 -0.013566 0.000000 0.000000 0.000000
# 2 -0.990035 1.008403 -0.013542 0.000000 0.000000 0.000000
# 3 -0.013566 -0.013542 0.033773 0.000000 0.000000 0.000000
# 4 0.000000 0.000000 0.000000 0.037960 0.000000 0.000000
# 5 0.000000 0.000000 0.000000 0.000000 0.037960 0.000000
# 6 0.000000 0.000000 0.000000 0.000000 0.000000 0.009888
#
#
# Mechanical properties :
#
#
# Convention : Reuss Voigt Hill
#
# Bulk Modulus (GPa) = 61.26282 61.44406 61.35344
# Shear Modulus (GPa) = 1.19728 32.96136 17.07932
#
# Velocity S-wave (km/s) = 0.74748 3.92197 2.82317
# Velocity P-wave (km/s) = 5.41609 7.01304 6.26565
#
# Compressibility (1/GPa) = 0.01632311
#
# Stress axis : x y z
#
# Youngs Moduli (GPa) = 0.99164 0.99167 29.60911
#
# Poissons Ratio (x) = 0.98178 0.40168
# Poissons Ratio (y) = 0.98176 0.40096
# Poissons Ratio (z) = 0.01345 0.01343
#
# Static dielectric constant tensor:
#      x y z
#    x 1.797090 0.000000 0.000000 
#    y 0.000000 1.797090 0.000000 
#    z 0.000000 0.000000 1.821130 
# 
# From -- ./inp_files/6037.got.cif
#   From: 2010.05.17/outbox.cif.g08.bks.cpg/sg121_4_cif.got.tgz:6037.got - 2010.05.20 11:32:06.
