data_PCOD9560803
_publ_section_title
;
Structure prediction by ZEFSAII (Michael W. Deem and Ramdas Pophale) SiO2 
 PCOD9560803
Probable space group: I -4 2 D
;
_chemical_formula_sum "Si O2"
_cell_formula_units_Z 120
_cell_length_a 20.537380
_cell_length_b 20.537380
_cell_length_c 14.104682
_cell_angle_alpha 90.000000
_cell_angle_beta 90.000000
_cell_angle_gamma 90.000000
_cell_volume 5949.128872
_symmetry_space_group_name_H-M "I -4 2 D"
_symmetry_group_IT_number 122
_symmetry_cell_setting 'tetragonal'
loop_
_space_group_symop_operation_xyz
x,y,z
y,-x,-z
-x,-y,z
-y,x,-z
x,1/2-y,1/4-z
-x,1/2+y,1/4-z
-y,1/2-x,1/4+z
y,1/2+x,1/4+z
1/2+x,1/2+y,1/2+z
1/2+y,1/2-x,1/2-z
1/2-x,1/2-y,1/2+z
1/2-y,1/2+x,1/2-z
1/2+x,-y,3/4-z
1/2-x,y,3/4-z
1/2-y,-x,3/4+z
1/2+y,x,3/4+z
loop_
_atom_site_type_symbol
_atom_site_label
_atom_site_fract_x
_atom_site_fract_y
_atom_site_fract_z
Si Si1 0.939829 0.705108 0.542689
Si Si2 0.904375 0.994855 0.048648
Si Si3 0.619443 0.932601 0.020099
Si Si4 0.500000 0.000000 0.369245
Si Si5 0.441024 0.632488 0.101489
Si Si6 0.823553 0.480603 0.357942
Si Si7 0.898728 0.131823 0.803537
Si Si8 0.273944 0.448969 0.068843
O O1 0.907750 0.750000 0.625000
O O2 0.895829 0.644688 0.507709
O O3 0.999084 0.670138 0.598837
O O4 0.978485 0.749022 0.464624
O O5 0.900350 0.965889 0.153170
O O6 0.941138 0.942707 0.981686
O O7 0.835080 0.006105 0.002804
O O8 0.680846 0.944935 0.089383
O O9 0.556521 0.966339 0.068134
O O10 0.635156 0.971145 0.924484
O O11 0.561405 0.964471 0.319304
O O12 0.393045 0.622936 0.190738
O O13 0.422031 0.679012 0.015514
O O14 0.750000 0.493083 0.375000
O O15 0.844503 0.408228 0.390414
O O16 0.906449 0.208101 0.824955
#
# Coordination Sequence:
#
# PCOD9560803 Si02
#       8
#    16  16  16   8  16  16  16  16
#     4   8  18  36  55  85 123 160 200 241 301 392
#     4   9  20  32  58  83 104 139 188 239 306 360
#     4  11  22  36  64  92 126 160 201 266 324 370
#     4  10  20  33  56  95 130 150 194 257 334 361
#     4   9  18  32  57  85 123 153 195 242 308 386
#     4  11  23  38  55  89 118 149 208 265 309 363
#     4  10  19  38  58  77 115 160 196 246 304 372
#     4  10  21  36  57  88 123 165 198 242 315 384
#
# _framework density 20.171019999999999
#
# number of rings (size 3 to 8) (size 9 to 14) (size 15 to 20)
#    0.000    2.267    1.333    2.000    5.600    3.733 
#    0.000    0.667    0.000    0.000    0.000    0.000 
#    0.000    0.000    0.000    0.000    0.000    0.000 
#
# Total GULP energy -334336.015503 kJ/mol
# GULP energy per Si atom -5572.266925 kJ/mol
# Density = 2.012511 g / cm^3
# Si number density = 20.171020 Si / 1000 Ang^3
#
#
#
# Elastic Constant Matrix: (Units=GPa)
#
#
# Indices 1 2 3 4 5 6 
#
# 1 80.2001 -7.5155 7.1714 0.0000 0.0000 0.0000
# 2 -7.5155 80.2001 7.1714 0.0000 0.0000 0.0000
# 3 7.1714 7.1714 69.7342 0.0000 0.0000 0.0000
# 4 0.0000 0.0000 0.0000 22.9893 0.0000 0.0000
# 5 0.0000 0.0000 0.0000 0.0000 22.9893 0.0000
# 6 0.0000 0.0000 0.0000 0.0000 0.0000 20.7603
#
#
#
# Elastic Compliance Matrix: (Units=1/GPa)
#
#
# Indices 1 2 3 4 5 6 
#
# 1 0.012722 0.001321 -0.001444 0.000000 0.000000 0.000000
# 2 0.001321 0.012722 -0.001444 0.000000 0.000000 0.000000
# 3 -0.001444 -0.001444 0.014637 0.000000 0.000000 0.000000
# 4 0.000000 0.000000 0.000000 0.043499 0.000000 0.000000
# 5 0.000000 0.000000 0.000000 0.000000 0.043499 0.000000
# 6 0.000000 0.000000 0.000000 0.000000 0.000000 0.048169
#
#
# Mechanical properties :
#
#
# Convention : Reuss Voigt Hill
#
# Bulk Modulus (GPa) = 27.06607 27.08765 27.07686
# Shear Modulus (GPa) = 26.21969 28.23491 27.22730
#
# Velocity S-wave (km/s) = 3.60928 3.74542 3.67798
# Velocity P-wave (km/s) = 5.55127 5.67119 5.61155
#
# Compressibility (1/GPa) = 0.03694663
#
# Stress axis : x y z
#
# Youngs Moduli (GPa) = 78.60542 78.60542 68.31903
#
# Poissons Ratio (x) = -0.10386 0.09866
# Poissons Ratio (y) = -0.10386 0.09866
# Poissons Ratio (z) = 0.11352 0.11352
#
# Static dielectric constant tensor:
#      x y z
#    x 1.731430 0.000000 0.000000 
#    y 0.000000 1.731430 0.000000 
#    z 0.000000 0.000000 1.775790 
# 
# From -- ./inp_files/5575.got.cif
#   From: 2010.05.17/outbox.cif.g08.bks.cpg/sg122_3_cif.got.tgz:5575.got - 2010.05.20 11:37:33.
