data_PCOD9560518
_publ_section_title
;
Structure prediction by ZEFSAII (Michael W. Deem and Ramdas Pophale) SiO2 
 PCOD9560518
Probable space group: I -4 2 M
;
_chemical_formula_sum "Si O2"
_cell_formula_units_Z 64
_cell_length_a 14.355113
_cell_length_b 14.355113
_cell_length_c 16.520834
_cell_angle_alpha 90.000000
_cell_angle_beta 90.000000
_cell_angle_gamma 90.000000
_cell_volume 3404.436190
_symmetry_space_group_name_H-M "I -4 2 M"
_symmetry_group_IT_number 121
_symmetry_cell_setting 'tetragonal'
loop_
_space_group_symop_operation_xyz
x,y,z
y,-x,-z
-x,-y,z
-y,x,-z
x,-y,-z
-x,y,-z
-y,-x,z
y,x,z
1/2+x,1/2+y,1/2+z
1/2+y,1/2-x,1/2-z
1/2-x,1/2-y,1/2+z
1/2-y,1/2+x,1/2-z
1/2+x,1/2-y,1/2-z
1/2-x,1/2+y,1/2-z
1/2-y,1/2-x,1/2+z
1/2+y,1/2+x,1/2+z
loop_
_atom_site_type_symbol
_atom_site_label
_atom_site_fract_x
_atom_site_fract_y
_atom_site_fract_z
Si Si1 0.602310 0.022739 0.594169
Si Si2 0.150320 0.702779 0.348805
Si Si3 0.276064 0.129418 0.840526
Si Si4 0.295138 0.450002 0.587641
O O1 0.619968 0.130306 0.609097
O O2 0.500000 0.000000 0.630601
O O3 0.597987 0.000000 0.500000
O O4 0.681523 0.955753 0.629207
O O5 0.198943 0.801058 0.370589
O O6 0.153383 0.696644 0.251455
O O7 0.212580 0.623187 0.392315
O O8 0.210800 0.210800 0.873500
O O9 0.218279 0.033514 0.848343
O O10 0.286927 0.500000 0.500000
O O11 0.390523 0.390523 0.591906
#
# Coordination Sequence:
#
# PCOD9560518 Si02
#       4
#    16  16  16  16
#     4  11  22  36  58  87 115 152 196 238 295 353
#     4  10  22  39  60  86 117 156 203 250 300 358
#     4  11  23  38  59  88 121 161 202 247 301 362
#     4  11  22  38  61  91 126 162 199 249 317 383
#
# _framework density 18.799002000000002
#
# number of rings (size 3 to 8) (size 9 to 14) (size 15 to 20)
#    0.000    1.250    2.500    3.750    0.000    4.750 
#    0.000    0.000    0.000    2.250    0.000    1.750 
#    0.000    0.000    0.000    0.000    0.000    0.000 
#
# Total GULP energy -178630.362184 kJ/mol
# GULP energy per Si atom -5582.198818 kJ/mol
# Density = 1.875621 g / cm^3
# Si number density = 18.799002 Si / 1000 Ang^3
#
#
#
# Elastic Constant Matrix: (Units=GPa)
#
#
# Indices 1 2 3 4 5 6 
#
# 1 109.9141 65.3427 27.7700 0.0000 0.0000 0.0000
# 2 65.3427 109.9126 27.7693 0.0000 0.0000 0.0000
# 3 27.7700 27.7693 58.6879 0.0000 0.0000 0.0000
# 4 0.0000 0.0000 0.0000 60.0049 0.0000 0.0000
# 5 0.0000 0.0000 0.0000 0.0000 59.9814 0.0000
# 6 0.0000 0.0000 0.0000 0.0000 0.0000 16.7066
#
#
#
# Elastic Compliance Matrix: (Units=1/GPa)
#
#
# Indices 1 2 3 4 5 6 
#
# 1 0.014574 -0.007862 -0.003176 0.000000 0.000000 0.000000
# 2 -0.007862 0.014574 -0.003176 0.000000 0.000000 0.000000
# 3 -0.003176 -0.003176 0.020045 0.000000 0.000000 0.000000
# 4 0.000000 0.000000 0.000000 0.016665 0.000000 0.000000
# 5 0.000000 0.000000 0.000000 0.000000 0.016672 0.000000
# 6 0.000000 0.000000 0.000000 0.000000 0.000000 0.059856
#
#
# Mechanical properties :
#
#
# Convention : Reuss Voigt Hill
#
# Bulk Modulus (GPa) = 48.15719 57.80870 52.98295
# Shear Modulus (GPa) = 28.13134 37.84742 32.98938
#
# Velocity S-wave (km/s) = 3.87257 4.49181 4.19363
# Velocity P-wave (km/s) = 6.75782 7.59734 7.18984
#
# Compressibility (1/GPa) = 0.02076533
#
# Stress axis : x y z
#
# Youngs Moduli (GPa) = 68.61383 68.61323 49.88757
#
# Poissons Ratio (x) = 0.53943 0.15846
# Poissons Ratio (y) = 0.53944 0.15845
# Poissons Ratio (z) = 0.21794 0.21792
#
# Static dielectric constant tensor:
#      x y z
#    x 1.655490 0.000000 0.000000 
#    y 0.000000 1.655500 0.000000 
#    z 0.000000 0.000000 1.677810 
# 
# From -- ./inp_files/4053.got.cif
#   From: 2010.05.17/outbox.cif.g08.bks.cpg/sg121_3_cif.got.tgz:4053.got - 2010.05.20 11:32:06.
