data_PCOD9560205
_publ_section_title
;
Structure prediction by ZEFSAII (Michael W. Deem and Ramdas Pophale) SiO2 
 PCOD9560205
Probable space group: I -4 2 M
;
_chemical_formula_sum "Si O2"
_cell_formula_units_Z 80
_cell_length_a 11.888366
_cell_length_b 11.888366
_cell_length_c 30.637656
_cell_angle_alpha 90.000000
_cell_angle_beta 90.000000
_cell_angle_gamma 90.000000
_cell_volume 4330.119377
_symmetry_space_group_name_H-M "I -4 2 M"
_symmetry_group_IT_number 121
_symmetry_cell_setting 'tetragonal'
loop_
_space_group_symop_operation_xyz
x,y,z
y,-x,-z
-x,-y,z
-y,x,-z
x,-y,-z
-x,y,-z
-y,-x,z
y,x,z
1/2+x,1/2+y,1/2+z
1/2+y,1/2-x,1/2-z
1/2-x,1/2-y,1/2+z
1/2-y,1/2+x,1/2-z
1/2+x,1/2-y,1/2-z
1/2-x,1/2+y,1/2-z
1/2-y,1/2-x,1/2+z
1/2+y,1/2+x,1/2+z
loop_
_atom_site_type_symbol
_atom_site_label
_atom_site_fract_x
_atom_site_fract_y
_atom_site_fract_z
Si Si1 0.634881 0.999606 0.569470
Si Si2 0.183524 0.008174 0.827073
Si Si3 0.184273 0.365526 0.496688
Si Si4 0.051934 0.674079 0.256311
Si Si5 0.828304 0.354380 0.851857
O O1 0.667835 0.900451 0.535780
O O2 0.673700 0.961563 0.616864
O O3 0.500000 0.000000 0.569942
O O4 0.666311 0.117806 0.547716
O O5 0.091840 0.908161 0.823599
O O6 0.228291 0.040454 0.779041
O O7 0.289858 0.949862 0.851410
O O8 0.116044 0.116044 0.845856
O O9 0.198781 0.500000 0.500000
O O10 0.299413 0.299413 0.500231
O O11 0.927763 0.623931 0.264523
O O12 0.109487 0.697953 0.302370
O O13 0.736509 0.263492 0.866462
#
# Coordination Sequence:
#
# PCOD9560205 Si02
#       5
#    16  16  16  16  16
#     4   9  19  33  56  78 106 143 178 217 259 321
#     4   9  18  32  48  69 102 140 177 224 281 330
#     4   9  18  36  58  83 110 141 175 213 269 326
#     4   9  18  30  49  71  99 141 186 227 269 326
#     4  10  19  31  52  77 102 137 180 228 275 321
#
# _framework density 18.475242000000001
#
# number of rings (size 3 to 8) (size 9 to 14) (size 15 to 20)
#    0.000    2.800    0.000    2.400    5.600    1.000 
#    0.000    5.000    0.000   16.200    0.000    0.000 
#    0.000    0.000    0.000    0.000    0.000    0.000 
#
# Total GULP energy -222803.236632 kJ/mol
# GULP energy per Si atom -5570.080916 kJ/mol
# Density = 1.843319 g / cm^3
# Si number density = 18.475242 Si / 1000 Ang^3
#
#
#
# Elastic Constant Matrix: (Units=GPa)
#
#
# Indices 1 2 3 4 5 6 
#
# 1 54.0969 25.8038 20.1749 0.0000 0.0000 0.0000
# 2 25.8038 54.0972 20.1743 0.0000 0.0000 0.0000
# 3 20.1749 20.1743 45.8162 0.0000 0.0000 0.0000
# 4 0.0000 0.0000 0.0000 15.9157 0.0000 0.0000
# 5 0.0000 0.0000 0.0000 0.0000 15.9160 0.0000
# 6 0.0000 0.0000 0.0000 0.0000 0.0000 18.6591
#
#
#
# Elastic Compliance Matrix: (Units=1/GPa)
#
#
# Indices 1 2 3 4 5 6 
#
# 1 0.025719 -0.009625 -0.007087 0.000000 0.000000 0.000000
# 2 -0.009625 0.025719 -0.007087 0.000000 0.000000 0.000000
# 3 -0.007087 -0.007087 0.028068 0.000000 0.000000 0.000000
# 4 0.000000 0.000000 0.000000 0.062831 0.000000 0.000000
# 5 0.000000 0.000000 0.000000 0.000000 0.062830 0.000000
# 6 0.000000 0.000000 0.000000 0.000000 0.000000 0.053593
#
#
# Mechanical properties :
#
#
# Convention : Reuss Voigt Hill
#
# Bulk Modulus (GPa) = 31.33957 31.81293 31.57625
# Shear Modulus (GPa) = 15.77316 15.95529 15.86423
#
# Velocity S-wave (km/s) = 2.92506 2.94190 2.93349
# Velocity P-wave (km/s) = 5.32990 5.36622 5.34809
#
# Compressibility (1/GPa) = 0.03190854
#
# Stress axis : x y z
#
# Youngs Moduli (GPa) = 38.88106 38.88182 35.62820
#
# Poissons Ratio (x) = 0.37423 0.25251
# Poissons Ratio (y) = 0.37422 0.25248
# Poissons Ratio (z) = 0.27556 0.27554
#
# Static dielectric constant tensor:
#      x y z
#    x 1.651510 0.000000 0.000000 
#    y 0.000000 1.651510 0.000000 
#    z 0.000000 0.000000 1.652730 
# 
# From -- ./inp_files/8043.got.cif
#   From: 2010.05.17/outbox.cif.g08.bks.cpg/sg121_5_cif.got.tgz:8043.got - 2010.05.20 11:32:06.
