data_PCOD9560927
_publ_section_title
;
Structure prediction by ZEFSAII (Michael W. Deem and Ramdas Pophale) SiO2 
 PCOD9560927
Probable space group: I -4 2 D
;
_chemical_formula_sum "Si O2"
_cell_formula_units_Z 60
_cell_length_a 10.874103
_cell_length_b 10.874103
_cell_length_c 20.786567
_cell_angle_alpha 90.000000
_cell_angle_beta 90.000000
_cell_angle_gamma 90.000000
_cell_volume 2457.930814
_symmetry_space_group_name_H-M "I -4 2 D"
_symmetry_group_IT_number 122
_symmetry_cell_setting 'tetragonal'
loop_
_space_group_symop_operation_xyz
x,y,z
y,-x,-z
-x,-y,z
-y,x,-z
x,1/2-y,1/4-z
-x,1/2+y,1/4-z
-y,1/2-x,1/4+z
y,1/2+x,1/4+z
1/2+x,1/2+y,1/2+z
1/2+y,1/2-x,1/2-z
1/2-x,1/2-y,1/2+z
1/2-y,1/2+x,1/2-z
1/2+x,-y,3/4-z
1/2-x,y,3/4-z
1/2-y,-x,3/4+z
1/2+y,x,3/4+z
loop_
_atom_site_type_symbol
_atom_site_label
_atom_site_fract_x
_atom_site_fract_y
_atom_site_fract_z
Si Si1 0.349926 0.439533 0.037660
Si Si2 0.250000 0.991869 0.375000
Si Si3 0.099110 0.762913 0.049414
Si Si4 0.500000 0.000000 0.750000
Si Si5 0.375133 0.142642 0.488093
O O1 0.403279 0.348952 0.090317
O O2 0.387417 0.582047 0.028249
O O3 0.204064 0.432533 0.040158
O O4 0.337045 0.071981 0.422801
O O5 0.121656 0.750000 0.125000
O O6 0.226988 0.802572 0.016832
O O7 0.015660 0.664263 0.009693
O O8 0.014021 0.882920 0.044253
#
# Coordination Sequence:
#
# PCOD9560927 Si02
#       5
#    16   8  16   4  16
#     4   9  20  41  59  87 125 161 207 257 313 374
#     4  10  20  42  62  86 130 166 204 258 314 378
#     4  10  20  40  62  87 123 156 201 257 300 373
#     4   8  20  40  56  84 120 160 188 248 310 340
#     4  10  21  41  62  94 121 162 209 252 323 367
#
# _framework density 24.410779000000002
#
# number of rings (size 3 to 8) (size 9 to 14) (size 15 to 20)
#    0.000    2.400    1.333    0.000    1.867    0.000 
#   28.800    0.000    0.000    0.000    0.000    0.000 
#    0.000    0.000    0.000    0.000    0.000    0.000 
#
# Total GULP energy -167075.515819 kJ/mol
# GULP energy per Si atom -5569.183861 kJ/mol
# Density = 2.435522 g / cm^3
# Si number density = 24.410779 Si / 1000 Ang^3
#
#
#
# Elastic Constant Matrix: (Units=GPa)
#
#
# Indices 1 2 3 4 5 6 
#
# 1 68.6172 20.7950 9.6688 0.0000 0.0000 0.0000
# 2 20.7950 68.6172 9.6688 0.0000 0.0000 0.0000
# 3 9.6688 9.6688 34.1920 0.0000 0.0000 0.0000
# 4 0.0000 0.0000 0.0000 25.4717 0.0000 0.0000
# 5 0.0000 0.0000 0.0000 0.0000 25.4717 0.0000
# 6 0.0000 0.0000 0.0000 0.0000 0.0000 47.5812
#
#
#
# Elastic Compliance Matrix: (Units=1/GPa)
#
#
# Indices 1 2 3 4 5 6 
#
# 1 0.016412 -0.004499 -0.003369 0.000000 0.000000 0.000000
# 2 -0.004499 0.016412 -0.003369 0.000000 0.000000 0.000000
# 3 -0.003369 -0.003369 0.031152 0.000000 0.000000 0.000000
# 4 0.000000 0.000000 0.000000 0.039259 0.000000 0.000000
# 5 0.000000 0.000000 0.000000 0.000000 0.039259 0.000000
# 6 0.000000 0.000000 0.000000 0.000000 0.000000 0.021017
#
#
# Mechanical properties :
#
#
# Convention : Reuss Voigt Hill
#
# Bulk Modulus (GPa) = 24.09491 27.96572 26.03032
# Shear Modulus (GPa) = 25.02285 28.45784 26.74034
#
# Velocity S-wave (km/s) = 3.20515 3.41807 3.31332
# Velocity P-wave (km/s) = 4.85689 5.20181 5.03230
#
# Compressibility (1/GPa) = 0.04150254
#
# Stress axis : x y z
#
# Youngs Moduli (GPa) = 60.93192 60.93192 32.10088
#
# Poissons Ratio (x) = 0.27414 0.10814
# Poissons Ratio (y) = 0.27414 0.10814
# Poissons Ratio (z) = 0.20526 0.20526
#
# Static dielectric constant tensor:
#      x y z
#    x 2.030430 0.000000 0.000000 
#    y 0.000000 2.030430 0.000000 
#    z 0.000000 0.000000 2.114750 
# 
# From -- ./inp_files/6946.got.cif
#   From: 2010.05.17/outbox.cif.g08.bks.cpg/sg122_4_cif.got.tgz:6946.got - 2010.05.20 11:37:33.
