data_PCOD9560789
_publ_section_title
;
Structure prediction by ZEFSAII (Michael W. Deem and Ramdas Pophale) SiO2 
 PCOD9560789
Probable space group: I -4 2 D
;
_chemical_formula_sum "Si O2"
_cell_formula_units_Z 128
_cell_length_a 24.865637
_cell_length_b 24.865637
_cell_length_c 9.418930
_cell_angle_alpha 90.000000
_cell_angle_beta 90.000000
_cell_angle_gamma 90.000000
_cell_volume 5823.723509
_symmetry_space_group_name_H-M "I -4 2 D"
_symmetry_group_IT_number 122
_symmetry_cell_setting 'tetragonal'
loop_
_space_group_symop_operation_xyz
x,y,z
y,-x,-z
-x,-y,z
-y,x,-z
x,1/2-y,1/4-z
-x,1/2+y,1/4-z
-y,1/2-x,1/4+z
y,1/2+x,1/4+z
1/2+x,1/2+y,1/2+z
1/2+y,1/2-x,1/2-z
1/2-x,1/2-y,1/2+z
1/2-y,1/2+x,1/2-z
1/2+x,-y,3/4-z
1/2-x,y,3/4-z
1/2-y,-x,3/4+z
1/2+y,x,3/4+z
loop_
_atom_site_type_symbol
_atom_site_label
_atom_site_fract_x
_atom_site_fract_y
_atom_site_fract_z
Si Si1 0.307126 0.262830 0.953870
Si Si2 0.168060 0.970632 0.662148
Si Si3 0.636830 0.877048 0.348350
Si Si4 0.523416 0.795101 0.802664
Si Si5 0.666707 0.365146 0.540977
Si Si6 0.587044 0.151621 0.449452
Si Si7 0.011482 0.813363 0.647658
Si Si8 0.727243 0.899404 0.722039
O O1 0.250000 0.258087 0.875000
O O2 0.329908 0.322479 0.926960
O O3 0.345488 0.220485 0.872153
O O4 0.304777 0.250000 0.125000
O O5 0.136751 0.916351 0.684142
O O6 0.231274 0.964933 0.695843
O O7 0.146792 0.024386 0.735549
O O8 0.164254 0.985456 0.494654
O O9 0.620007 0.896617 0.190333
O O10 0.666693 0.927732 0.416390
O O11 0.575085 0.822886 0.731670
O O12 0.459935 0.796017 0.762389
O O13 0.522813 0.819989 0.960798
O O14 0.622153 0.363804 0.665866
O O15 0.644143 0.318465 0.434944
O O16 0.595358 0.214749 0.396198
O O17 0.014539 0.750000 0.625000
O O18 0.750000 0.881116 0.875000
#
# Coordination Sequence:
#
# PCOD9560789 Si02
#       8
#    16  16  16  16  16  16  16  16
#     4  12  25  38  60  94 137 169 199 249 322 396
#     4   9  18  32  54  82 112 146 194 239 294 360
#     4  11  19  34  55  86 119 152 193 249 298 357
#     4  10  19  36  58  82 105 148 208 256 288 372
#     4  11  20  37  62  83 109 161 208 247 308 374
#     4   9  18  33  57  79 114 154 190 240 300 374
#     4   9  19  32  54  83 115 145 187 242 307 355
#     4   9  20  37  56  76 114 157 201 235 309 373
#
# _framework density 21.979064000000001
#
# number of rings (size 3 to 8) (size 9 to 14) (size 15 to 20)
#    0.000    2.000    2.500    3.000    0.000    0.000 
#    0.000    4.375    0.000   14.625    0.000    0.000 
#    0.000    0.000    0.000    0.000    0.000    0.000 
#
# Total GULP energy -357271.490738 kJ/mol
# GULP energy per Si atom -5582.367043 kJ/mol
# Density = 2.192904 g / cm^3
# Si number density = 21.979064 Si / 1000 Ang^3
#
#
#
# Elastic Constant Matrix: (Units=GPa)
#
#
# Indices 1 2 3 4 5 6 
#
# 1 103.4638 50.6499 9.5956 0.0000 0.0000 0.0000
# 2 50.6499 103.4638 9.5956 0.0000 0.0000 0.0000
# 3 9.5956 9.5956 59.2673 0.0000 0.0000 0.0000
# 4 0.0000 0.0000 0.0000 21.8648 0.0000 0.0000
# 5 0.0000 0.0000 0.0000 0.0000 21.8648 0.0000
# 6 0.0000 0.0000 0.0000 0.0000 0.0000 29.3553
#
#
#
# Elastic Compliance Matrix: (Units=1/GPa)
#
#
# Indices 1 2 3 4 5 6 
#
# 1 0.012778 -0.006156 -0.001072 0.000000 0.000000 0.000000
# 2 -0.006156 0.012778 -0.001072 0.000000 0.000000 0.000000
# 3 -0.001072 -0.001072 0.017220 0.000000 0.000000 0.000000
# 4 0.000000 0.000000 0.000000 0.045736 0.000000 0.000000
# 5 0.000000 0.000000 0.000000 0.000000 0.045736 0.000000
# 6 0.000000 0.000000 0.000000 0.000000 0.000000 0.034065
#
#
# Mechanical properties :
#
#
# Convention : Reuss Voigt Hill
#
# Bulk Modulus (GPa) = 38.20338 45.09744 41.65041
# Shear Modulus (GPa) = 25.82123 27.70724 26.76424
#
# Velocity S-wave (km/s) = 3.43127 3.55437 3.49336
# Velocity P-wave (km/s) = 5.75479 6.11618 5.93823
#
# Compressibility (1/GPa) = 0.02617569
#
# Stress axis : x y z
#
# Youngs Moduli (GPa) = 78.25759 78.25759 58.07239
#
# Poissons Ratio (x) = 0.48176 0.06226
# Poissons Ratio (y) = 0.48176 0.06226
# Poissons Ratio (z) = 0.08390 0.08390
#
# Static dielectric constant tensor:
#      x y z
#    x 1.824400 0.000000 0.000000 
#    y 0.000000 1.824400 0.000000 
#    z 0.000000 0.000000 1.901690 
# 
# From -- ./inp_files/4635.got.cif
#   From: 2010.05.17/outbox.cif.g08.bks.cpg/sg122_3_cif.got.tgz:4635.got - 2010.05.20 11:37:33.
