data_PCOD9560420
_publ_section_title
;
Structure prediction by ZEFSAII (Michael W. Deem and Ramdas Pophale) SiO2 
 PCOD9560420
Probable space group: I -4 2 M
;
_chemical_formula_sum "Si O2"
_cell_formula_units_Z 112
_cell_length_a 14.476479
_cell_length_b 14.476479
_cell_length_c 28.969731
_cell_angle_alpha 90.000000
_cell_angle_beta 90.000000
_cell_angle_gamma 90.000000
_cell_volume 6071.141456
_symmetry_space_group_name_H-M "I -4 2 M"
_symmetry_group_IT_number 121
_symmetry_cell_setting 'tetragonal'
loop_
_space_group_symop_operation_xyz
x,y,z
y,-x,-z
-x,-y,z
-y,x,-z
x,-y,-z
-x,y,-z
-y,-x,z
y,x,z
1/2+x,1/2+y,1/2+z
1/2+y,1/2-x,1/2-z
1/2-x,1/2-y,1/2+z
1/2-y,1/2+x,1/2-z
1/2+x,1/2-y,1/2-z
1/2-x,1/2+y,1/2-z
1/2-y,1/2-x,1/2+z
1/2+y,1/2+x,1/2+z
loop_
_atom_site_type_symbol
_atom_site_label
_atom_site_fract_x
_atom_site_fract_y
_atom_site_fract_z
Si Si1 0.447705 0.099916 0.042421
Si Si2 0.003534 0.153473 0.864491
Si Si3 0.168009 0.315322 0.713143
Si Si4 0.393660 0.248845 0.801772
Si Si5 0.528602 0.676039 0.260446
Si Si6 0.110194 0.483591 0.145052
Si Si7 0.228643 0.070648 0.041275
O O1 0.465623 0.139940 0.092709
O O2 0.337704 0.092526 0.034902
O O3 0.500000 0.000000 0.045231
O O4 0.500000 0.148347 0.000000
O O5 0.927067 0.072933 0.865738
O O6 0.979042 0.216479 0.908645
O O7 0.996117 0.196401 0.813170
O O8 0.102995 0.102995 0.869978
O O9 0.252355 0.252355 0.694856
O O10 0.205548 0.385607 0.750746
O O11 0.104487 0.250386 0.745180
O O12 0.105406 0.361791 0.674952
O O13 0.298566 0.298566 0.815159
O O14 0.467040 0.325879 0.786035
O O15 0.432247 0.171208 0.835158
O O16 0.577777 0.577777 0.266054
O O17 0.000000 0.500000 0.148741
O O18 0.159926 0.159926 0.040139
O O19 0.201754 0.000000 0.000000
#
# Coordination Sequence:
#
# PCOD9560420 Si02
#       7
#    16  16  16  16  16  16  16
#     4  10  21  43  62  78 112 157 201 244 297 351
#     4   9  18  31  50  81 118 151 182 220 273 344
#     4   9  20  35  51  80 118 149 186 241 288 342
#     4  10  21  35  53  82 116 147 187 243 291 341
#     4   9  18  33  52  75 110 154 188 216 270 344
#     4  10  23  36  62  84 109 155 202 245 298 351
#     4  11  22  37  61  90 119 157 196 244 303 367
#
# _framework density 18.447931000000001
#
# number of rings (size 3 to 8) (size 9 to 14) (size 15 to 20)
#    0.000    2.286    1.429    0.857    6.000    3.286 
#    0.000    0.714    0.000    0.000    0.000    0.000 
#    0.000    1.429    0.000    0.286    0.000    0.000 
#
# Total GULP energy -311766.981184 kJ/mol
# GULP energy per Si atom -5567.267521 kJ/mol
# Density = 1.840594 g / cm^3
# Si number density = 18.447931 Si / 1000 Ang^3
#
#
#
# Elastic Constant Matrix: (Units=GPa)
#
#
# Indices 1 2 3 4 5 6 
#
# 1 60.3008 34.4449 53.2424 0.0000 0.0000 0.0000
# 2 34.4449 60.3009 53.2434 0.0000 0.0000 0.0000
# 3 53.2424 53.2434 111.0337 0.0000 0.0000 0.0000
# 4 0.0000 0.0000 0.0000 -14.9524 0.0000 0.0000
# 5 0.0000 0.0000 0.0000 0.0000 -14.9526 0.0000
# 6 0.0000 0.0000 0.0000 0.0000 0.0000 19.0462
#
#
#
# Elastic Compliance Matrix: (Units=1/GPa)
#
#
# Indices 1 2 3 4 5 6 
#
# 1 0.030783 -0.007892 -0.010977 0.000000 0.000000 0.000000
# 2 -0.007892 0.030784 -0.010977 0.000000 0.000000 0.000000
# 3 -0.010977 -0.010977 0.019534 0.000000 0.000000 0.000000
# 4 0.000000 0.000000 0.000000 -0.066879 0.000000 0.000000
# 5 0.000000 0.000000 0.000000 0.000000 -0.066878 0.000000
# 6 0.000000 0.000000 0.000000 0.000000 0.000000 0.052504
#
#
# Mechanical properties :
#
#
# Convention : Reuss Voigt Hill
#
# Bulk Modulus (GPa) = 46.70925 57.05522 51.88224
# Shear Modulus (GPa) = 74.98840 3.87523 39.43181
#
# Velocity S-wave (km/s) = 6.38255 1.45093 4.62829
# Velocity P-wave (km/s) = 8.92695 5.81393 7.53300
#
# Compressibility (1/GPa) = 0.02140904
#
# Stress axis : x y z
#
# Youngs Moduli (GPa) = 32.48496 32.48419 51.19336
#
# Poissons Ratio (x) = 0.25636 0.56194
# Poissons Ratio (y) = 0.25637 0.56197
# Poissons Ratio (z) = 0.35658 0.35659
#
# Static dielectric constant tensor:
#      x y z
#    x 1.614920 0.000000 0.000000 
#    y 0.000000 1.614920 0.000000 
#    z 0.000000 0.000000 1.641700 
# 
# From -- ./inp_files/7726.got.cif
#   From: 2010.05.17/outbox.cif.g08.bks.cpg/sg121_4_cif.got.tgz:7726.got - 2010.05.20 11:32:06.
