data_PCOD9560114
_publ_section_title
;
Structure prediction by ZEFSAII (Michael W. Deem and Ramdas Pophale) SiO2 
 PCOD9560114
Probable space group: I -4 2 M
;
_chemical_formula_sum "Si O2"
_cell_formula_units_Z 96
_cell_length_a 15.216773
_cell_length_b 15.216773
_cell_length_c 19.727902
_cell_angle_alpha 90.000000
_cell_angle_beta 90.000000
_cell_angle_gamma 90.000000
_cell_volume 4567.999270
_symmetry_space_group_name_H-M "I -4 2 M"
_symmetry_group_IT_number 121
_symmetry_cell_setting 'tetragonal'
loop_
_space_group_symop_operation_xyz
x,y,z
y,-x,-z
-x,-y,z
-y,x,-z
x,-y,-z
-x,y,-z
-y,-x,z
y,x,z
1/2+x,1/2+y,1/2+z
1/2+y,1/2-x,1/2-z
1/2-x,1/2-y,1/2+z
1/2-y,1/2+x,1/2-z
1/2+x,1/2-y,1/2-z
1/2-x,1/2+y,1/2-z
1/2-y,1/2-x,1/2+z
1/2+y,1/2+x,1/2+z
loop_
_atom_site_type_symbol
_atom_site_label
_atom_site_fract_x
_atom_site_fract_y
_atom_site_fract_z
Si Si1 0.858100 0.007718 0.660602
Si Si2 0.972663 0.244700 0.793293
Si Si3 0.183090 0.039530 0.929039
Si Si4 0.319261 0.830738 0.217464
Si Si5 0.924792 0.779892 0.543691
Si Si6 0.170757 0.319763 0.436227
O O1 0.904250 0.095751 0.631800
O O2 0.829938 0.028182 0.736349
O O3 0.777287 0.968872 0.617245
O O4 0.932181 0.932181 0.660122
O O5 0.890556 0.306317 0.774262
O O6 0.972602 0.204410 0.868578
O O7 0.067895 0.290285 0.783156
O O8 0.111442 0.111442 0.904738
O O9 0.273585 0.091581 0.944121
O O10 0.152679 0.000000 0.000000
O O11 0.234797 0.765204 0.223775
O O12 0.359525 0.815513 0.142008
O O13 0.839551 0.839551 0.551444
O O14 0.898035 0.698033 0.496359
O O15 0.000000 0.828489 0.500000
O O16 0.242318 0.242318 0.441680
#
# Coordination Sequence:
#
# PCOD9560114 Si02
#       6
#    16  16  16  16  16  16
#     4  10  20  32  49  78 116 155 193 242 309 375
#     4  11  22  39  61  86 121 158 205 260 306 367
#     4  10  22  40  61  85 114 153 203 260 317 369
#     4  10  21  38  62  89 119 164 212 254 314 376
#     4  10  18  28  47  75 108 145 185 230 283 350
#     4   8  17  36  57  78 110 150 193 240 291 356
#
# _framework density 21.015764000000001
#
# number of rings (size 3 to 8) (size 9 to 14) (size 15 to 20)
#    0.000    2.167    0.000    4.500    0.000    5.333 
#    0.000    1.667    0.000    2.500    0.000    0.000 
#    0.000    0.000    0.000    0.000    0.000    0.000 
#
# Total GULP energy -267614.147700 kJ/mol
# GULP energy per Si atom -5575.294744 kJ/mol
# Density = 2.096793 g / cm^3
# Si number density = 21.015764 Si / 1000 Ang^3
#
#
#
# Elastic Constant Matrix: (Units=GPa)
#
#
# Indices 1 2 3 4 5 6 
#
# 1 58.9654 11.0298 15.6391 0.0000 0.0000 0.0000
# 2 11.0298 58.9645 15.6389 0.0000 0.0000 0.0000
# 3 15.6391 15.6389 103.8640 0.0000 0.0000 0.0000
# 4 0.0000 0.0000 0.0000 33.0573 0.0000 0.0000
# 5 0.0000 0.0000 0.0000 0.0000 33.0574 0.0000
# 6 0.0000 0.0000 0.0000 0.0000 0.0000 26.5084
#
#
#
# Elastic Compliance Matrix: (Units=1/GPa)
#
#
# Indices 1 2 3 4 5 6 
#
# 1 0.018089 -0.002772 -0.002306 0.000000 0.000000 0.000000
# 2 -0.002772 0.018090 -0.002306 0.000000 0.000000 0.000000
# 3 -0.002306 -0.002306 0.010323 0.000000 0.000000 0.000000
# 4 0.000000 0.000000 0.000000 0.030250 0.000000 0.000000
# 5 0.000000 0.000000 0.000000 0.000000 0.030250 0.000000
# 6 0.000000 0.000000 0.000000 0.000000 0.000000 0.037724
#
#
# Mechanical properties :
#
#
# Convention : Reuss Voigt Hill
#
# Bulk Modulus (GPa) = 31.51406 34.04549 32.77978
# Shear Modulus (GPa) = 29.39914 30.49038 29.94476
#
# Velocity S-wave (km/s) = 3.74426 3.81311 3.77884
# Velocity P-wave (km/s) = 5.80694 5.96838 5.88822
#
# Compressibility (1/GPa) = 0.03173187
#
# Stress axis : x y z
#
# Youngs Moduli (GPa) = 55.28118 55.28043 96.87551
#
# Poissons Ratio (x) = 0.15324 0.22343
# Poissons Ratio (y) = 0.15324 0.22343
# Poissons Ratio (z) = 0.12750 0.12750
#
# Static dielectric constant tensor:
#      x y z
#    x 1.798990 0.000000 0.000000 
#    y 0.000000 1.798990 0.000000 
#    z 0.000000 0.000000 1.802460 
# 
# From -- ./inp_files/6438.got.cif
#   From: 2010.05.17/outbox.cif.g08.bks.cpg/sg121_4_cif.got.tgz:6438.got - 2010.05.20 11:32:06.
