data_PCOD9560824
_publ_section_title
;
Structure prediction by ZEFSAII (Michael W. Deem and Ramdas Pophale) SiO2 
 PCOD9560824
Probable space group: I -4 2 D
;
_chemical_formula_sum "Si O2"
_cell_formula_units_Z 88
_cell_length_a 15.886602
_cell_length_b 15.886602
_cell_length_c 18.322450
_cell_angle_alpha 90.000000
_cell_angle_beta 90.000000
_cell_angle_gamma 90.000000
_cell_volume 4624.295476
_symmetry_space_group_name_H-M "I -4 2 D"
_symmetry_group_IT_number 122
_symmetry_cell_setting 'tetragonal'
loop_
_space_group_symop_operation_xyz
x,y,z
y,-x,-z
-x,-y,z
-y,x,-z
x,1/2-y,1/4-z
-x,1/2+y,1/4-z
-y,1/2-x,1/4+z
y,1/2+x,1/4+z
1/2+x,1/2+y,1/2+z
1/2+y,1/2-x,1/2-z
1/2-x,1/2-y,1/2+z
1/2-y,1/2+x,1/2-z
1/2+x,-y,3/4-z
1/2-x,y,3/4-z
1/2-y,-x,3/4+z
1/2+y,x,3/4+z
loop_
_atom_site_type_symbol
_atom_site_label
_atom_site_fract_x
_atom_site_fract_y
_atom_site_fract_z
Si Si1 0.591964 0.957423 0.343408
Si Si2 0.430978 0.598966 0.458162
Si Si3 0.500000 0.000000 0.925546
Si Si4 0.660938 0.235150 0.411303
Si Si5 0.007709 0.692665 0.806172
Si Si6 0.853776 0.439610 0.982861
O O1 0.644157 0.974650 0.269973
O O2 0.565223 0.859771 0.347637
O O3 0.500000 0.000000 0.338642
O O4 0.638097 0.000294 0.411730
O O5 0.524006 0.610562 0.493807
O O6 0.446541 0.559540 0.378131
O O7 0.379082 0.684288 0.451396
O O8 0.557955 0.943419 0.977189
O O9 0.750000 0.257291 0.375000
O O10 0.592527 0.201506 0.352550
O O11 0.673247 0.153893 0.461861
O O12 0.977041 0.784811 0.786431
#
# Coordination Sequence:
#
# PCOD9560824 Si02
#       6
#    16  16   8  16  16  16
#     4  12  20  37  60  86 127 181 207 244 329 386
#     4   9  22  46  71  89 122 167 219 265 326 388
#     4  10  19  42  66  91 118 172 212 260 330 387
#     4  12  24  40  63  99 131 165 213 275 316 377
#     4  12  22  39  62  89 133 171 213 267 314 389
#     4  12  23  38  64  96 130 167 224 262 319 397
#
# _framework density 19.029926
#
# number of rings (size 3 to 8) (size 9 to 14) (size 15 to 20)
#    0.000    0.909    6.364    2.727    0.000    1.455 
#    3.273    2.727    0.000    0.000    0.000    0.000 
#    0.000    0.000    0.000    0.000    0.000    0.000 
#
# Total GULP energy -245724.032144 kJ/mol
# GULP energy per Si atom -5584.637094 kJ/mol
# Density = 1.898661 g / cm^3
# Si number density = 19.029926 Si / 1000 Ang^3
#
#
#
# Elastic Constant Matrix: (Units=GPa)
#
#
# Indices 1 2 3 4 5 6 
#
# 1 72.8494 13.7009 6.2860 0.0000 0.0000 0.0000
# 2 13.7009 72.8494 6.2860 0.0000 0.0000 0.0000
# 3 6.2860 6.2860 46.4746 0.0000 0.0000 0.0000
# 4 0.0000 0.0000 0.0000 14.8136 0.0000 0.0000
# 5 0.0000 0.0000 0.0000 0.0000 14.8136 0.0000
# 6 0.0000 0.0000 0.0000 0.0000 0.0000 25.7206
#
#
#
# Elastic Compliance Matrix: (Units=1/GPa)
#
#
# Indices 1 2 3 4 5 6 
#
# 1 0.014346 -0.002561 -0.001594 0.000000 0.000000 0.000000
# 2 -0.002561 0.014346 -0.001594 0.000000 0.000000 0.000000
# 3 -0.001594 -0.001594 0.021948 0.000000 0.000000 0.000000
# 4 0.000000 0.000000 0.000000 0.067505 0.000000 0.000000
# 5 0.000000 0.000000 0.000000 0.000000 0.067505 0.000000
# 6 0.000000 0.000000 0.000000 0.000000 0.000000 0.038879
#
#
# Mechanical properties :
#
#
# Convention : Reuss Voigt Hill
#
# Bulk Modulus (GPa) = 25.54725 27.19101 26.36913
# Shear Modulus (GPa) = 20.07423 22.12961 21.10192
#
# Velocity S-wave (km/s) = 3.25141 3.41381 3.33360
# Velocity P-wave (km/s) = 5.24876 5.46428 5.35760
#
# Compressibility (1/GPa) = 0.03914315
#
# Stress axis : x y z
#
# Youngs Moduli (GPa) = 69.70557 69.70557 45.56149
#
# Poissons Ratio (x) = 0.17848 0.07263
# Poissons Ratio (y) = 0.17848 0.07263
# Poissons Ratio (z) = 0.11112 0.11112
#
# Static dielectric constant tensor:
#      x y z
#    x 1.670380 0.000000 0.000000 
#    y 0.000000 1.670380 0.000000 
#    z 0.000000 0.000000 1.669490 
# 
# From -- ./inp_files/7178.got.cif
#   From: 2010.05.17/outbox.cif.g08.bks.cpg/sg122_4_cif.got.tgz:7178.got - 2010.05.20 11:37:33.
