data_PCOD9560653
_publ_section_title
;
Structure prediction by ZEFSAII (Michael W. Deem and Ramdas Pophale) SiO2 
 PCOD9560653
Probable space group: I -4 2 M
;
_chemical_formula_sum "Si O2"
_cell_formula_units_Z 44
_cell_length_a 13.134138
_cell_length_b 13.134138
_cell_length_c 13.262206
_cell_angle_alpha 90.000000
_cell_angle_beta 90.000000
_cell_angle_gamma 90.000000
_cell_volume 2287.804551
_symmetry_space_group_name_H-M "I -4 2 M"
_symmetry_group_IT_number 121
_symmetry_cell_setting 'tetragonal'
loop_
_space_group_symop_operation_xyz
x,y,z
y,-x,-z
-x,-y,z
-y,x,-z
x,-y,-z
-x,y,-z
-y,-x,z
y,x,z
1/2+x,1/2+y,1/2+z
1/2+y,1/2-x,1/2-z
1/2-x,1/2-y,1/2+z
1/2-y,1/2+x,1/2-z
1/2+x,1/2-y,1/2-z
1/2-x,1/2+y,1/2-z
1/2-y,1/2-x,1/2+z
1/2+y,1/2+x,1/2+z
loop_
_atom_site_type_symbol
_atom_site_label
_atom_site_fract_x
_atom_site_fract_y
_atom_site_fract_z
Si Si1 0.877375 0.877375 0.389686
Si Si2 0.384031 0.384031 0.128351
Si Si3 0.622476 0.065894 0.813937
Si Si4 0.771267 0.771267 0.221604
Si Si5 0.500000 0.000000 0.000000
O O1 0.865744 0.865744 0.509271
O O2 0.800972 0.800972 0.335112
O O3 0.995757 0.860595 0.359327
O O4 0.313343 0.313343 0.196486
O O5 0.546980 0.123845 0.734672
O O6 0.727296 0.124171 0.822069
O O7 0.569073 0.063397 0.922648
#
# Coordination Sequence:
#
# PCOD9560653 Si02
#       5
#     8   8  16   8   4
#     4   9  20  39  55  79 112 139 182 222 262 325
#     4   9  20  37  59  79 106 147 176 220 274 311
#     4   9  20  36  54  76 105 141 174 216 267 312
#     4  12  20  30  56  88 106 130 178 226 268 310
#     4   8  18  40  52  66 112 148 174 212 256 322
#
# _framework density 19.232412
#
# number of rings (size 3 to 8) (size 9 to 14) (size 15 to 20)
#    0.000    2.909    0.000    3.273    0.000    8.727 
#    0.000    0.000    0.000    0.000    0.000    2.545 
#    0.000    0.000    0.000    0.000    0.000    0.000 
#
# Total GULP energy -122559.861754 kJ/mol
# GULP energy per Si atom -5570.902807 kJ/mol
# Density = 1.918864 g / cm^3
# Si number density = 19.232412 Si / 1000 Ang^3
#
#
#
# Elastic Constant Matrix: (Units=GPa)
#
#
# Indices 1 2 3 4 5 6 
#
# 1 55.1407 34.1987 39.1282 0.0000 0.0000 0.0000
# 2 34.1987 55.1407 39.1282 0.0000 0.0000 0.0000
# 3 39.1282 39.1282 110.0509 0.0000 0.0000 0.0000
# 4 0.0000 0.0000 0.0000 25.9343 0.0000 0.0000
# 5 0.0000 0.0000 0.0000 0.0000 25.9343 0.0000
# 6 0.0000 0.0000 0.0000 0.0000 0.0000 57.5027
#
#
#
# Elastic Compliance Matrix: (Units=1/GPa)
#
#
# Indices 1 2 3 4 5 6 
#
# 1 0.032003 -0.015747 -0.005780 0.000000 0.000000 0.000000
# 2 -0.015747 0.032003 -0.005780 0.000000 0.000000 0.000000
# 3 -0.005780 -0.005780 0.013197 0.000000 0.000000 0.000000
# 4 0.000000 0.000000 0.000000 0.038559 0.000000 0.000000
# 5 0.000000 0.000000 0.000000 0.000000 0.038559 0.000000
# 6 0.000000 0.000000 0.000000 0.000000 0.000000 0.017390
#
#
# Mechanical properties :
#
#
# Convention : Reuss Voigt Hill
#
# Bulk Modulus (GPa) = 44.26808 49.47137 46.86973
# Shear Modulus (GPa) = 21.38071 29.06607 25.22339
#
# Velocity S-wave (km/s) = 3.33784 3.89177 3.62540
# Velocity P-wave (km/s) = 6.15811 6.78036 6.47671
#
# Compressibility (1/GPa) = 0.02258964
#
# Stress axis : x y z
#
# Youngs Moduli (GPa) = 31.24667 31.24667 75.77684
#
# Poissons Ratio (x) = 0.49205 0.43797
# Poissons Ratio (y) = 0.49205 0.43797
# Poissons Ratio (z) = 0.18060 0.18060
#
# Static dielectric constant tensor:
#      x y z
#    x 1.722860 0.000000 0.000000 
#    y 0.000000 1.722860 0.000000 
#    z 0.000000 0.000000 1.639730 
# 
# From -- ./inp_files/2584.got.cif
#   From: 2010.05.17/outbox.cif.g08.bks.cpg/sg121_2_cif.got.tgz:2584.got - 2010.05.20 11:32:06.
