data_PCOD9560972
_publ_section_title
;
Structure prediction by ZEFSAII (Michael W. Deem and Ramdas Pophale) SiO2 
 PCOD9560972
Probable space group: I -4 2 D
;
_chemical_formula_sum "Si O2"
_cell_formula_units_Z 88
_cell_length_a 17.165156
_cell_length_b 17.165156
_cell_length_c 13.414753
_cell_angle_alpha 90.000000
_cell_angle_beta 90.000000
_cell_angle_gamma 90.000000
_cell_volume 3952.557441
_symmetry_space_group_name_H-M "I -4 2 D"
_symmetry_group_IT_number 122
_symmetry_cell_setting 'tetragonal'
loop_
_space_group_symop_operation_xyz
x,y,z
y,-x,-z
-x,-y,z
-y,x,-z
x,1/2-y,1/4-z
-x,1/2+y,1/4-z
-y,1/2-x,1/4+z
y,1/2+x,1/4+z
1/2+x,1/2+y,1/2+z
1/2+y,1/2-x,1/2-z
1/2-x,1/2-y,1/2+z
1/2-y,1/2+x,1/2-z
1/2+x,-y,3/4-z
1/2-x,y,3/4-z
1/2-y,-x,3/4+z
1/2+y,x,3/4+z
loop_
_atom_site_type_symbol
_atom_site_label
_atom_site_fract_x
_atom_site_fract_y
_atom_site_fract_z
Si Si1 0.142517 0.837941 0.473842
Si Si2 0.750000 0.639898 0.375000
Si Si3 0.948073 0.858948 0.364167
Si Si4 0.762603 0.465960 0.988210
Si Si5 0.909715 0.109270 0.256916
Si Si6 0.774297 0.181179 0.761688
O O1 0.098234 0.892074 0.556032
O O2 0.229006 0.877289 0.493310
O O3 0.128682 0.861753 0.360762
O O4 0.158362 0.747788 0.493742
O O5 0.819613 0.592375 0.428695
O O6 0.789247 0.697800 0.295300
O O7 0.000908 0.798212 0.431830
O O8 0.893927 0.807979 0.292871
O O9 0.003882 0.908789 0.294615
O O10 0.750000 0.494036 0.875000
O O11 0.851656 0.460974 0.022047
O O12 0.750000 0.168083 0.875000
#
# Coordination Sequence:
#
# PCOD9560972 Si02
#       6
#    16   8  16  16  16  16
#     4   9  17  34  56  76 108 148 191 238 290 339
#     4  12  18  32  58  76 118 160 166 244 310 336
#     4  10  21  30  53  88 114 145 194 237 285 361
#     4   8  15  32  55  74 108 147 179 233 300 330
#     4  11  19  32  54  86 114 146 191 230 301 354
#     4  12  18  31  54  81 110 150 186 230 297 349
#
# _framework density 22.264067000000001
#
# number of rings (size 3 to 8) (size 9 to 14) (size 15 to 20)
#    1.091    0.727    7.273    0.545    1.273    0.000 
#    0.000    1.818    0.000    0.545    0.000    0.000 
#    0.000    0.000    0.000    0.000    0.000    0.000 
#
# Total GULP energy -245140.572261 kJ/mol
# GULP energy per Si atom -5571.376642 kJ/mol
# Density = 2.221339 g / cm^3
# Si number density = 22.264067 Si / 1000 Ang^3
#
#
#
# Elastic Constant Matrix: (Units=GPa)
#
#
# Indices 1 2 3 4 5 6 
#
# 1 31.5008 -6.9210 7.7315 0.0000 0.0000 0.0000
# 2 -6.9210 31.5008 7.7315 0.0000 0.0000 0.0000
# 3 7.7315 7.7315 116.1357 0.0000 0.0000 0.0000
# 4 0.0000 0.0000 0.0000 19.8740 0.0000 0.0000
# 5 0.0000 0.0000 0.0000 0.0000 19.8740 0.0000
# 6 0.0000 0.0000 0.0000 0.0000 0.0000 21.8754
#
#
#
# Elastic Compliance Matrix: (Units=1/GPa)
#
#
# Indices 1 2 3 4 5 6 
#
# 1 0.034244 0.008218 -0.002827 0.000000 0.000000 0.000000
# 2 0.008218 0.034244 -0.002827 0.000000 0.000000 0.000000
# 3 -0.002827 -0.002827 0.008987 0.000000 0.000000 0.000000
# 4 0.000000 0.000000 0.000000 0.050317 0.000000 0.000000
# 5 0.000000 0.000000 0.000000 0.000000 0.050317 0.000000
# 6 0.000000 0.000000 0.000000 0.000000 0.000000 0.045713
#
#
# Mechanical properties :
#
#
# Convention : Reuss Voigt Hill
#
# Bulk Modulus (GPa) = 12.10596 21.80236 16.95416
# Shear Modulus (GPa) = 20.30621 23.69770 22.00196
#
# Velocity S-wave (km/s) = 3.02331 3.26604 3.14702
# Velocity P-wave (km/s) = 4.19958 4.90271 4.56471
#
# Compressibility (1/GPa) = 0.08260391
#
# Stress axis : x y z
#
# Youngs Moduli (GPa) = 29.20179 29.20179 111.27190
#
# Poissons Ratio (x) = -0.23997 0.31455
# Poissons Ratio (y) = -0.23997 0.31455
# Poissons Ratio (z) = 0.08255 0.08255
#
# Static dielectric constant tensor:
#      x y z
#    x 1.935510 0.000000 0.000000 
#    y 0.000000 1.935510 0.000000 
#    z 0.000000 0.000000 1.844750 
# 
# From -- ./inp_files/5372.got.cif
#   From: 2010.05.17/outbox.cif.g08.bks.cpg/sg122_3_cif.got.tgz:5372.got - 2010.05.20 11:37:33.
