data_PCOD9560906
_publ_section_title
;
Structure prediction by ZEFSAII (Michael W. Deem and Ramdas Pophale) SiO2 
 PCOD9560906
Probable space group: I -4 2 D
;
_chemical_formula_sum "Si O2"
_cell_formula_units_Z 100
_cell_length_a 15.482464
_cell_length_b 15.482464
_cell_length_c 19.897762
_cell_angle_alpha 90.000000
_cell_angle_beta 90.000000
_cell_angle_gamma 90.000000
_cell_volume 4769.626697
_symmetry_space_group_name_H-M "I -4 2 D"
_symmetry_group_IT_number 122
_symmetry_cell_setting 'tetragonal'
loop_
_space_group_symop_operation_xyz
x,y,z
y,-x,-z
-x,-y,z
-y,x,-z
x,1/2-y,1/4-z
-x,1/2+y,1/4-z
-y,1/2-x,1/4+z
y,1/2+x,1/4+z
1/2+x,1/2+y,1/2+z
1/2+y,1/2-x,1/2-z
1/2-x,1/2-y,1/2+z
1/2-y,1/2+x,1/2-z
1/2+x,-y,3/4-z
1/2-x,y,3/4-z
1/2-y,-x,3/4+z
1/2+y,x,3/4+z
loop_
_atom_site_type_symbol
_atom_site_label
_atom_site_fract_x
_atom_site_fract_y
_atom_site_fract_z
Si Si1 0.963076 0.698419 0.054548
Si Si2 0.687962 0.525442 0.018226
Si Si3 0.658332 0.561998 0.635663
Si Si4 0.867088 0.869007 0.860094
Si Si5 0.833889 0.712700 0.769766
Si Si6 0.000000 0.500000 0.750000
Si Si7 0.830590 0.677657 0.245942
O O1 0.957248 0.750000 0.125000
O O2 0.899558 0.617651 0.063551
O O3 0.917483 0.762933 0.002238
O O4 0.060292 0.662281 0.055043
O O5 0.748767 0.548207 0.080409
O O6 0.715248 0.431564 0.988470
O O7 0.588450 0.512792 0.040336
O O8 0.688464 0.611455 0.972143
O O9 0.617616 0.468116 0.628651
O O10 0.663505 0.612266 0.565760
O O11 0.847329 0.772046 0.835207
O O12 0.825631 0.873339 0.933853
O O13 0.752546 0.760103 0.734982
#
# Coordination Sequence:
#
# PCOD9560906 Si02
#       7
#    16  16  16  16  16   4  16
#     4  10  21  39  58  88 126 170 212 267 318 383
#     4   9  18  37  63  93 116 166 207 265 332 382
#     4  10  22  38  61  90 127 167 216 262 320 393
#     4  11  24  38  63  95 130 169 221 267 330 390
#     4  10  20  38  65  89 125 162 212 272 324 398
#     4   8  16  32  68  88 124 148 208 268 316 390
#     4  11  23  38  65  90 132 174 215 270 328 399
#
# _framework density 20.966002
#
# number of rings (size 3 to 8) (size 9 to 14) (size 15 to 20)
#    0.000    1.920    1.600    1.920    6.720    0.000 
#    0.000    0.000   24.640    0.000    4.160    0.000 
#    0.000    0.000    0.000    0.000    0.000    0.000 
#
# Total GULP energy -278504.781198 kJ/mol
# GULP energy per Si atom -5570.095624 kJ/mol
# Density = 2.091828 g / cm^3
# Si number density = 20.966002 Si / 1000 Ang^3
#
#
#
# Elastic Constant Matrix: (Units=GPa)
#
#
# Indices 1 2 3 4 5 6 
#
# 1 119.6955 60.6282 22.5654 0.0000 0.0000 0.0000
# 2 60.6282 119.6956 22.5654 0.0000 0.0000 0.0000
# 3 22.5654 22.5654 33.3952 0.0000 0.0000 0.0000
# 4 0.0000 0.0000 0.0000 23.0313 0.0000 0.0000
# 5 0.0000 0.0000 0.0000 0.0000 23.0313 0.0000
# 6 0.0000 0.0000 0.0000 0.0000 0.0000 33.0085
#
#
#
# Elastic Compliance Matrix: (Units=1/GPa)
#
#
# Indices 1 2 3 4 5 6 
#
# 1 0.011802 -0.005128 -0.004510 0.000000 0.000000 0.000000
# 2 -0.005128 0.011802 -0.004510 0.000000 0.000000 0.000000
# 3 -0.004510 -0.004510 0.036039 0.000000 0.000000 0.000000
# 4 0.000000 0.000000 0.000000 0.043419 0.000000 0.000000
# 5 0.000000 0.000000 0.000000 0.000000 0.043419 0.000000
# 6 0.000000 0.000000 0.000000 0.000000 0.000000 0.030295
#
#
# Mechanical properties :
#
#
# Convention : Reuss Voigt Hill
#
# Bulk Modulus (GPa) = 31.89971 53.81159 42.85565
# Shear Modulus (GPa) = 23.19958 26.94939 25.07449
#
# Velocity S-wave (km/s) = 3.33007 3.58912 3.46202
# Velocity P-wave (km/s) = 5.48031 6.54962 6.03868
#
# Compressibility (1/GPa) = 0.03134824
#
# Stress axis : x y z
#
# Youngs Moduli (GPa) = 84.73093 84.73093 27.74761
#
# Poissons Ratio (x) = 0.43448 0.12514
# Poissons Ratio (y) = 0.43448 0.12514
# Poissons Ratio (z) = 0.38213 0.38213
#
# Static dielectric constant tensor:
#      x y z
#    x 1.827060 0.000000 0.000000 
#    y 0.000000 1.827060 0.000000 
#    z 0.000000 0.000000 1.722140 
# 
# From -- ./inp_files/8048.got.cif
#   From: 2010.05.17/outbox.cif.g08.bks.cpg/sg122_5_cif.got.tgz:8048.got - 2010.05.20 11:37:33.
