data_PCOD9560350
_publ_section_title
;
Structure prediction by ZEFSAII (Michael W. Deem and Ramdas Pophale) SiO2 
 PCOD9560350
Probable space group: I -4 2 M
;
_chemical_formula_sum "Si O2"
_cell_formula_units_Z 96
_cell_length_a 22.666591
_cell_length_b 22.666591
_cell_length_c 8.669640
_cell_angle_alpha 90.000000
_cell_angle_beta 90.000000
_cell_angle_gamma 90.000000
_cell_volume 4454.238635
_symmetry_space_group_name_H-M "I -4 2 M"
_symmetry_group_IT_number 121
_symmetry_cell_setting 'tetragonal'
loop_
_space_group_symop_operation_xyz
x,y,z
y,-x,-z
-x,-y,z
-y,x,-z
x,-y,-z
-x,y,-z
-y,-x,z
y,x,z
1/2+x,1/2+y,1/2+z
1/2+y,1/2-x,1/2-z
1/2-x,1/2-y,1/2+z
1/2-y,1/2+x,1/2-z
1/2+x,1/2-y,1/2-z
1/2-x,1/2+y,1/2-z
1/2-y,1/2-x,1/2+z
1/2+y,1/2+x,1/2+z
loop_
_atom_site_type_symbol
_atom_site_label
_atom_site_fract_x
_atom_site_fract_y
_atom_site_fract_z
Si Si1 0.272210 0.272210 0.461389
Si Si2 0.485323 0.180223 0.755380
Si Si3 0.402137 0.735957 0.434190
Si Si4 0.000000 0.409568 0.500000
Si Si5 0.811250 0.188751 0.381679
Si Si6 0.000000 0.403533 0.000000
Si Si7 0.970133 0.877260 0.168973
Si Si8 0.710194 0.559059 0.212678
O O1 0.253982 0.333106 0.544691
O O2 0.223016 0.223016 0.485558
O O3 0.286785 0.286785 0.283404
O O4 0.434323 0.212009 0.657607
O O5 0.467233 0.132912 0.881093
O O6 0.521634 0.140111 0.633803
O O7 0.522587 0.232319 0.833135
O O8 0.422012 0.675249 0.351960
O O9 0.426484 0.725714 0.607653
O O10 0.051593 0.451121 0.566053
O O11 0.880971 0.200688 0.378713
O O12 0.935952 0.935952 0.217384
O O13 0.019521 0.848703 0.278951
O O14 0.000000 0.887025 0.000000
#
# Coordination Sequence:
#
# PCOD9560350 Si02
#       8
#     8  16  16   8   8   8  16  16
#     4  10  20  36  58  82 112 150 194 234 284 340
#     4  11  20  40  60  82 111 151 191 232 294 344
#     4   9  17  35  58  79 107 152 188 228 287 347
#     4  11  26  36  58  86 110 142 195 250 276 340
#     4  10  22  38  55  86 118 152 191 238 282 338
#     4  11  22  42  56  78 116 152 183 234 304 340
#     4   9  16  27  50  81 113 143 181 230 278 339
#     4   9  19  36  57  78 117 155 179 232 294 337
#
# _framework density 21.552505
#
# number of rings (size 3 to 8) (size 9 to 14) (size 15 to 20)
#    0.000    2.167    2.500    2.000    3.500    4.167 
#    3.000    0.000    0.000    0.000    0.000    0.000 
#    0.000    0.000    0.000    3.833    0.000    0.000 
#
# Total GULP energy -267842.641601 kJ/mol
# GULP energy per Si atom -5580.055033 kJ/mol
# Density = 2.150345 g / cm^3
# Si number density = 21.552505 Si / 1000 Ang^3
#
#
#
# Elastic Constant Matrix: (Units=GPa)
#
#
# Indices 1 2 3 4 5 6 
#
# 1 103.0131 43.5527 10.5479 0.0000 0.0000 0.0000
# 2 43.5527 103.0127 10.5477 0.0000 0.0000 0.0000
# 3 10.5479 10.5477 15.5224 0.0000 0.0000 0.0000
# 4 0.0000 0.0000 0.0000 13.1660 0.0000 0.0000
# 5 0.0000 0.0000 0.0000 0.0000 13.1661 0.0000
# 6 0.0000 0.0000 0.0000 0.0000 0.0000 30.4267
#
#
#
# Elastic Compliance Matrix: (Units=1/GPa)
#
#
# Indices 1 2 3 4 5 6 
#
# 1 0.012190 -0.004628 -0.005139 0.000000 0.000000 0.000000
# 2 -0.004628 0.012190 -0.005139 0.000000 0.000000 0.000000
# 3 -0.005139 -0.005139 0.071407 0.000000 0.000000 0.000000
# 4 0.000000 0.000000 0.000000 0.075953 0.000000 0.000000
# 5 0.000000 0.000000 0.000000 0.000000 0.075953 0.000000
# 6 0.000000 0.000000 0.000000 0.000000 0.000000 0.032866
#
#
# Mechanical properties :
#
#
# Convention : Reuss Voigt Hill
#
# Bulk Modulus (GPa) = 15.15693 38.98277 27.06985
# Shear Modulus (GPa) = 15.04382 21.81175 18.42778
#
# Velocity S-wave (km/s) = 2.64485 3.18469 2.92724
# Velocity P-wave (km/s) = 4.04658 5.62580 4.90023
#
# Compressibility (1/GPa) = 0.06597643
#
# Stress axis : x y z
#
# Youngs Moduli (GPa) = 82.03274 82.03263 14.00422
#
# Poissons Ratio (x) = 0.37962 0.07197
# Poissons Ratio (y) = 0.37962 0.07197
# Poissons Ratio (z) = 0.42157 0.42155
#
# Static dielectric constant tensor:
#      x y z
#    x 1.775630 0.000000 0.000000 
#    y 0.000000 1.775640 0.000000 
#    z 0.000000 0.000000 1.811230 
# 
# From -- ./inp_files/2012.got.cif
#   From: 2010.05.17/outbox.cif.g08.bks.cpg/sg121_2_cif.got.tgz:2012.got - 2010.05.20 11:32:06.
