data_PCOD9560424
_publ_section_title
;
Structure prediction by ZEFSAII (Michael W. Deem and Ramdas Pophale) SiO2 
 PCOD9560424
Probable space group: I -4 2 M
;
_chemical_formula_sum "Si O2"
_cell_formula_units_Z 128
_cell_length_a 20.485260
_cell_length_b 20.485260
_cell_length_c 17.226529
_cell_angle_alpha 90.000000
_cell_angle_beta 90.000000
_cell_angle_gamma 90.000000
_cell_volume 7229.041874
_symmetry_space_group_name_H-M "I -4 2 M"
_symmetry_group_IT_number 121
_symmetry_cell_setting 'tetragonal'
loop_
_space_group_symop_operation_xyz
x,y,z
y,-x,-z
-x,-y,z
-y,x,-z
x,-y,-z
-x,y,-z
-y,-x,z
y,x,z
1/2+x,1/2+y,1/2+z
1/2+y,1/2-x,1/2-z
1/2-x,1/2-y,1/2+z
1/2-y,1/2+x,1/2-z
1/2+x,1/2-y,1/2-z
1/2-x,1/2+y,1/2-z
1/2-y,1/2-x,1/2+z
1/2+y,1/2+x,1/2+z
loop_
_atom_site_type_symbol
_atom_site_label
_atom_site_fract_x
_atom_site_fract_y
_atom_site_fract_z
Si Si1 0.737759 0.625460 0.981371
Si Si2 0.809927 0.081998 0.820299
Si Si3 0.333243 0.221230 0.407846
Si Si4 0.686488 0.577625 0.500392
Si Si5 0.826356 0.713891 0.247673
Si Si6 0.243514 0.868055 0.348124
Si Si7 0.154401 0.952701 0.258971
Si Si8 0.967507 0.857930 0.415688
O O1 0.680252 0.680252 0.979931
O O2 0.743480 0.598347 0.068466
O O3 0.803005 0.664792 0.962130
O O4 0.711419 0.570310 0.923349
O O5 0.871341 0.128660 0.802354
O O6 0.793222 0.092937 0.910466
O O7 0.750765 0.105959 0.765874
O O8 0.831948 0.009003 0.802040
O O9 0.279711 0.279711 0.406176
O O10 0.397084 0.256911 0.441808
O O11 0.328951 0.187098 0.323796
O O12 0.674885 0.500000 0.500000
O O13 0.621358 0.621358 0.485125
O O14 0.772095 0.772095 0.250584
O O15 0.808750 0.669428 0.174069
O O16 0.187044 0.812957 0.352962
O O17 0.219976 0.913202 0.278213
O O18 0.097706 0.902295 0.235903
O O19 0.137638 0.984613 0.342748
O O20 0.913180 0.913180 0.404242
O O21 0.000000 0.869080 0.500000
#
# Coordination Sequence:
#
# PCOD9560424 Si02
#       8
#    16  16  16  16  16  16  16  16
#     4   9  16  29  47  67  93 127 166 212 266 312
#     4  10  21  36  51  71 102 140 181 225 266 309
#     4   9  17  30  52  76  94 124 169 221 277 324
#     4  10  22  37  53  75 106 146 188 226 264 310
#     4   9  17  31  52  74  93 121 164 219 279 324
#     4   9  17  29  46  67  92 124 163 209 260 311
#     4  11  22  33  46  69 100 141 181 213 254 306
#     4  11  20  30  43  65 101 142 180 211 244 298
#
# _framework density 17.706357000000001
#
# number of rings (size 3 to 8) (size 9 to 14) (size 15 to 20)
#    0.000    2.250    1.250    2.250    1.750    7.250 
#    0.000    1.250    0.000    0.000    0.000    0.000 
#    0.000    1.000    1.000    0.000    0.000    0.000 
#
# Total GULP energy -356602.397802 kJ/mol
# GULP energy per Si atom -5571.912466 kJ/mol
# Density = 1.766606 g / cm^3
# Si number density = 17.706357 Si / 1000 Ang^3
#
#
#
# Elastic Constant Matrix: (Units=GPa)
#
#
# Indices 1 2 3 4 5 6 
#
# 1 45.1188 48.8522 13.1687 0.0000 0.0000 0.0000
# 2 48.8522 45.1180 13.1673 0.0000 0.0000 0.0000
# 3 13.1687 13.1673 51.1050 0.0000 0.0000 0.0000
# 4 0.0000 0.0000 0.0000 21.7528 0.0000 0.0000
# 5 0.0000 0.0000 0.0000 0.0000 21.7524 0.0000
# 6 0.0000 0.0000 0.0000 0.0000 0.0000 21.8423
#
#
#
# Elastic Compliance Matrix: (Units=1/GPa)
#
#
# Indices 1 2 3 4 5 6 
#
# 1 -0.128176 0.139646 -0.002952 0.000000 0.000000 0.000000
# 2 0.139646 -0.128176 -0.002959 0.000000 0.000000 0.000000
# 3 -0.002952 -0.002959 0.021091 0.000000 0.000000 0.000000
# 4 0.000000 0.000000 0.000000 0.045971 0.000000 0.000000
# 5 0.000000 0.000000 0.000000 0.000000 0.045972 0.000000
# 6 0.000000 0.000000 0.000000 0.000000 0.000000 0.045783
#
#
# Mechanical properties :
#
#
# Convention : Reuss Voigt Hill
#
# Bulk Modulus (GPa) = 31.04743 32.41312 31.73028
# Shear Modulus (GPa) = -14.11349 17.47973 1.68312
#
# Velocity S-wave (km/s) = -2.82633 3.14538 0.97603
# Velocity P-wave (km/s) = 2.63093 5.61577 4.38513
#
# Compressibility (1/GPa) = 0.03220878
#
# Stress axis : x y z
#
# Youngs Moduli (GPa) = -7.80175 -7.80175 47.41453
#
# Poissons Ratio (x) = 1.08949 0.13995
# Poissons Ratio (y) = 1.08949 0.14030
# Poissons Ratio (z) = -0.02303 -0.02309
#
# Static dielectric constant tensor:
#      x y z
#    x 1.609880 0.000000 0.000000 
#    y 0.000000 1.609880 0.000000 
#    z 0.000000 0.000000 1.663560 
# 
# From -- ./inp_files/5663.got.cif
#   From: 2010.05.17/outbox.cif.g08.bks.cpg/sg121_3_cif.got.tgz:5663.got - 2010.05.20 11:32:06.
