data_PCOD9560470
_publ_section_title
;
Structure prediction by ZEFSAII (Michael W. Deem and Ramdas Pophale) SiO2 
 PCOD9560470
Probable space group: I -4 2 M
;
_chemical_formula_sum "Si O2"
_cell_formula_units_Z 96
_cell_length_a 20.462167
_cell_length_b 20.462167
_cell_length_c 11.826231
_cell_angle_alpha 90.000000
_cell_angle_beta 90.000000
_cell_angle_gamma 90.000000
_cell_volume 4951.646211
_symmetry_space_group_name_H-M "I -4 2 M"
_symmetry_group_IT_number 121
_symmetry_cell_setting 'tetragonal'
loop_
_space_group_symop_operation_xyz
x,y,z
y,-x,-z
-x,-y,z
-y,x,-z
x,-y,-z
-x,y,-z
-y,-x,z
y,x,z
1/2+x,1/2+y,1/2+z
1/2+y,1/2-x,1/2-z
1/2-x,1/2-y,1/2+z
1/2-y,1/2+x,1/2-z
1/2+x,1/2-y,1/2-z
1/2-x,1/2+y,1/2-z
1/2-y,1/2-x,1/2+z
1/2+y,1/2+x,1/2+z
loop_
_atom_site_type_symbol
_atom_site_label
_atom_site_fract_x
_atom_site_fract_y
_atom_site_fract_z
Si Si1 0.044650 0.585926 0.299950
Si Si2 0.574488 0.162202 0.466056
Si Si3 0.609753 0.209632 0.703869
Si Si4 0.154486 0.259841 0.212908
Si Si5 0.674747 0.566331 0.158968
Si Si6 0.582324 0.689520 0.907343
O O1 0.072183 0.532812 0.207504
O O2 0.088691 0.577193 0.412633
O O3 0.059410 0.658828 0.261135
O O4 0.500000 0.173996 0.500000
O O5 0.614835 0.182317 0.577098
O O6 0.600866 0.211623 0.371675
O O7 0.679801 0.202206 0.762402
O O8 0.584184 0.281431 0.732877
O O9 0.197473 0.197473 0.175098
O O10 0.117354 0.241200 0.327578
O O11 0.607208 0.607208 0.163329
O O12 0.671779 0.488845 0.140548
O O13 0.709756 0.585071 0.039221
O O14 0.624107 0.624107 0.900753
#
# Coordination Sequence:
#
# PCOD9560470 Si02
#       6
#    16  16  16  16  16  16
#     4  10  22  40  58  84 119 160 207 251 297 353
#     4  11  22  40  61  86 120 160 203 258 309 365
#     4  11  23  37  58  87 122 159 202 251 305 366
#     4  10  23  39  58  85 119 161 204 248 307 368
#     4  10  21  38  62  91 121 156 202 253 311 376
#     4   9  20  39  62  88 121 158 200 255 306 367
#
# _framework density 19.387492999999999
#
# number of rings (size 3 to 8) (size 9 to 14) (size 15 to 20)
#    0.000    1.833    1.667    1.500    7.000    2.333 
#    0.000    1.667    0.000    0.000    0.000    0.000 
#    0.000    4.000    0.000    0.000    0.000    0.000 
#
# Total GULP energy -267491.553095 kJ/mol
# GULP energy per Si atom -5572.740689 kJ/mol
# Density = 1.934337 g / cm^3
# Si number density = 19.387493 Si / 1000 Ang^3
#
#
#
# Elastic Constant Matrix: (Units=GPa)
#
#
# Indices 1 2 3 4 5 6 
#
# 1 32.5189 19.1809 14.4910 0.0000 0.0000 0.0000
# 2 19.1809 32.5189 14.4910 0.0000 0.0000 0.0000
# 3 14.4910 14.4910 65.9896 0.0000 0.0000 0.0000
# 4 0.0000 0.0000 0.0000 25.9281 0.0000 0.0000
# 5 0.0000 0.0000 0.0000 0.0000 25.9281 0.0000
# 6 0.0000 0.0000 0.0000 0.0000 0.0000 17.6907
#
#
#
# Elastic Compliance Matrix: (Units=1/GPa)
#
#
# Indices 1 2 3 4 5 6 
#
# 1 0.048516 -0.026458 -0.004844 0.000000 0.000000 0.000000
# 2 -0.026458 0.048516 -0.004844 0.000000 0.000000 0.000000
# 3 -0.004844 -0.004844 0.017281 0.000000 0.000000 0.000000
# 4 0.000000 0.000000 0.000000 0.038568 0.000000 0.000000
# 5 0.000000 0.000000 0.000000 0.000000 0.038568 0.000000
# 6 0.000000 0.000000 0.000000 0.000000 0.000000 0.056527
#
#
# Mechanical properties :
#
#
# Convention : Reuss Voigt Hill
#
# Bulk Modulus (GPa) = 23.79725 25.26148 24.52936
# Shear Modulus (GPa) = 14.95778 19.43369 17.19573
#
# Velocity S-wave (km/s) = 2.78063 3.16948 2.98140
# Velocity P-wave (km/s) = 4.75504 5.14317 4.95291
#
# Compressibility (1/GPa) = 0.04202166
#
# Stress axis : x y z
#
# Youngs Moduli (GPa) = 20.61186 20.61186 57.86613
#
# Poissons Ratio (x) = 0.54535 0.28029
# Poissons Ratio (y) = 0.54535 0.28029
# Poissons Ratio (z) = 0.09984 0.09984
#
# Static dielectric constant tensor:
#      x y z
#    x 1.687200 0.000000 0.000000 
#    y 0.000000 1.687200 0.000000 
#    z 0.000000 0.000000 1.733590 
# 
# From -- ./inp_files/3319.got.cif
#   From: 2010.05.17/outbox.cif.g08.bks.cpg/sg121_2_cif.got.tgz:3319.got - 2010.05.20 11:32:06.
