data_PCOD9560374
_publ_section_title
;
Structure prediction by ZEFSAII (Michael W. Deem and Ramdas Pophale) SiO2 
 PCOD9560374
Probable space group: I -4 2 M
;
_chemical_formula_sum "Si O2"
_cell_formula_units_Z 32
_cell_length_a 11.565544
_cell_length_b 11.565544
_cell_length_c 8.971521
_cell_angle_alpha 90.000000
_cell_angle_beta 90.000000
_cell_angle_gamma 90.000000
_cell_volume 1200.046870
_symmetry_space_group_name_H-M "I -4 2 M"
_symmetry_group_IT_number 121
_symmetry_cell_setting 'tetragonal'
loop_
_space_group_symop_operation_xyz
x,y,z
y,-x,-z
-x,-y,z
-y,x,-z
x,-y,-z
-x,y,-z
-y,-x,z
y,x,z
1/2+x,1/2+y,1/2+z
1/2+y,1/2-x,1/2-z
1/2-x,1/2-y,1/2+z
1/2-y,1/2+x,1/2-z
1/2+x,1/2-y,1/2-z
1/2-x,1/2+y,1/2-z
1/2-y,1/2-x,1/2+z
1/2+y,1/2+x,1/2+z
loop_
_atom_site_type_symbol
_atom_site_label
_atom_site_fract_x
_atom_site_fract_y
_atom_site_fract_z
Si Si1 0.189688 0.524248 0.265079
Si Si2 0.698802 0.698802 0.506723
Si Si3 0.138424 0.138424 0.662809
O O1 0.091443 0.612408 0.202193
O O2 0.248301 0.592130 0.400631
O O3 0.300036 0.486470 0.165178
O O4 0.794904 0.794904 0.533823
O O5 0.668610 0.668610 0.338381
#
# Coordination Sequence:
#
# PCOD9560374 Si02
#       3
#    16   8   8
#     4   9  19  37  60  88 120 157 198 249 303 356
#     4  10  20  37  59  89 120 156 204 253 299 361
#     4  10  20  37  59  89 120 156 204 253 299 361
#
# _framework density 26.665624000000001
#
# number of rings (size 3 to 8) (size 9 to 14) (size 15 to 20)
#    0.000    2.500    0.000    1.500    0.000    1.000 
#    0.000  105.000    0.000    0.000    0.000   56.000 
#    0.000    0.000    0.000    0.000    0.000    0.000 
#
# Total GULP energy -89084.042961 kJ/mol
# GULP energy per Si atom -5567.752685 kJ/mol
# Density = 2.660493 g / cm^3
# Si number density = 26.665624 Si / 1000 Ang^3
#
#
#
# Elastic Constant Matrix: (Units=GPa)
#
#
# Indices 1 2 3 4 5 6 
#
# 1 157.4544 82.8482 48.5977 0.0000 0.0000 0.0000
# 2 82.8482 157.4544 48.5977 0.0000 0.0000 0.0000
# 3 48.5977 48.5977 150.1491 0.0000 0.0000 0.0000
# 4 0.0000 0.0000 0.0000 48.9237 0.0000 0.0000
# 5 0.0000 0.0000 0.0000 0.0000 48.9237 0.0000
# 6 0.0000 0.0000 0.0000 0.0000 0.0000 62.3656
#
#
#
# Elastic Compliance Matrix: (Units=1/GPa)
#
#
# Indices 1 2 3 4 5 6 
#
# 1 0.009096 -0.004308 -0.001550 0.000000 0.000000 0.000000
# 2 -0.004308 0.009096 -0.001550 0.000000 0.000000 0.000000
# 3 -0.001550 -0.001550 0.007663 0.000000 0.000000 0.000000
# 4 0.000000 0.000000 0.000000 0.020440 0.000000 0.000000
# 5 0.000000 0.000000 0.000000 0.000000 0.020440 0.000000
# 6 0.000000 0.000000 0.000000 0.000000 0.000000 0.016034
#
#
# Mechanical properties :
#
#
# Convention : Reuss Voigt Hill
#
# Bulk Modulus (GPa) = 90.57435 91.68279 91.12857
# Shear Modulus (GPa) = 49.37567 51.04358 50.20963
#
# Velocity S-wave (km/s) = 4.30776 4.37991 4.34399
# Velocity P-wave (km/s) = 7.66700 7.74824 7.70773
#
# Compressibility (1/GPa) = 0.01104065
#
# Stress axis : x y z
#
# Youngs Moduli (GPa) = 109.93859 109.93859 130.49279
#
# Poissons Ratio (x) = 0.47359 0.20224
# Poissons Ratio (y) = 0.47359 0.20224
# Poissons Ratio (z) = 0.17038 0.17038
#
# Static dielectric constant tensor:
#      x y z
#    x 2.204380 0.000000 0.000000 
#    y 0.000000 2.204380 0.000000 
#    z 0.000000 0.000000 2.048960 
# 
# From -- ./inp_files/874.got.cif
#   From: 2010.05.17/outbox.cif.g08.bks.cpg/sg121_1_cif.got.tgz:874.got - 2010.05.20 11:32:06.
