data_PCOD9560152
_publ_section_title
;
Structure prediction by ZEFSAII (Michael W. Deem and Ramdas Pophale) SiO2 
 PCOD9560152
Probable space group: I -4 2 M
;
_chemical_formula_sum "Si O2"
_cell_formula_units_Z 64
_cell_length_a 22.207714
_cell_length_b 22.207714
_cell_length_c 7.334612
_cell_angle_alpha 90.000000
_cell_angle_beta 90.000000
_cell_angle_gamma 90.000000
_cell_volume 3617.302731
_symmetry_space_group_name_H-M "I -4 2 M"
_symmetry_group_IT_number 121
_symmetry_cell_setting 'tetragonal'
loop_
_space_group_symop_operation_xyz
x,y,z
y,-x,-z
-x,-y,z
-y,x,-z
x,-y,-z
-x,y,-z
-y,-x,z
y,x,z
1/2+x,1/2+y,1/2+z
1/2+y,1/2-x,1/2-z
1/2-x,1/2-y,1/2+z
1/2-y,1/2+x,1/2-z
1/2+x,1/2-y,1/2-z
1/2-x,1/2+y,1/2-z
1/2-y,1/2-x,1/2+z
1/2+y,1/2+x,1/2+z
loop_
_atom_site_type_symbol
_atom_site_label
_atom_site_fract_x
_atom_site_fract_y
_atom_site_fract_z
Si Si1 0.675314 0.324687 0.709837
Si Si2 0.439034 0.168457 0.073561
Si Si3 0.245654 0.245654 0.112296
Si Si4 0.739533 0.442903 0.608623
Si Si5 0.875140 0.313415 0.796257
O O1 0.702716 0.297285 0.897059
O O2 0.713281 0.286719 0.558058
O O3 0.691811 0.393636 0.676422
O O4 0.458825 0.219137 0.218102
O O5 0.385119 0.131208 0.168345
O O6 0.500000 0.137196 0.000000
O O7 0.406511 0.196043 0.896666
O O8 0.281457 0.189975 0.204465
O O9 0.714002 0.500000 0.500000
O O10 0.783658 0.411022 0.462148
#
# Coordination Sequence:
#
# PCOD9560152 Si02
#       5
#     8  16   8  16  16
#     4  10  20  32  56  81 116 144 174 235 280 349
#     4  12  22  34  58  79 112 154 184 225 279 331
#     4  10  18  32  54  84 114 134 174 228 298 345
#     4  11  22  37  55  83 117 145 189 229 281 344
#     4  11  21  35  55  85 111 147 185 230 284 339
#
# _framework density 17.692741000000002
#
# number of rings (size 3 to 8) (size 9 to 14) (size 15 to 20)
#    0.000    1.000    7.500    1.500    0.000    0.000 
#    0.000    0.000    0.000    6.375    0.000    0.000 
#    0.000    0.000    0.000    0.000    0.000    0.000 
#
# Total GULP energy -178348.625318 kJ/mol
# GULP energy per Si atom -5573.394541 kJ/mol
# Density = 1.765247 g / cm^3
# Si number density = 17.692741 Si / 1000 Ang^3
#
#
#
# Elastic Constant Matrix: (Units=GPa)
#
#
# Indices 1 2 3 4 5 6 
#
# 1 81.4818 21.9449 8.3361 0.0000 0.0000 0.0000
# 2 21.9449 81.4832 8.3356 0.0000 0.0000 0.0000
# 3 8.3361 8.3356 73.7843 0.0000 0.0000 0.0000
# 4 0.0000 0.0000 0.0000 20.9188 0.0000 0.0000
# 5 0.0000 0.0000 0.0000 0.0000 20.9191 0.0000
# 6 0.0000 0.0000 0.0000 0.0000 0.0000 15.0550
#
#
#
# Elastic Compliance Matrix: (Units=1/GPa)
#
#
# Indices 1 2 3 4 5 6 
#
# 1 0.013322 -0.003474 -0.001113 0.000000 0.000000 0.000000
# 2 -0.003474 0.013322 -0.001113 0.000000 0.000000 0.000000
# 3 -0.001113 -0.001113 0.013804 0.000000 0.000000 0.000000
# 4 0.000000 0.000000 0.000000 0.047804 0.000000 0.000000
# 5 0.000000 0.000000 0.000000 0.000000 0.047803 0.000000
# 6 0.000000 0.000000 0.000000 0.000000 0.000000 0.066423
#
#
# Mechanical properties :
#
#
# Convention : Reuss Voigt Hill
#
# Bulk Modulus (GPa) = 34.42343 34.88696 34.65520
# Shear Modulus (GPa) = 22.36533 24.58744 23.47638
#
# Velocity S-wave (km/s) = 3.55927 3.73190 3.64661
# Velocity P-wave (km/s) = 6.03239 6.19116 6.11229
#
# Compressibility (1/GPa) = 0.02904998
#
# Stress axis : x y z
#
# Youngs Moduli (GPa) = 75.06294 75.06430 72.44066
#
# Poissons Ratio (x) = 0.26078 0.08060
# Poissons Ratio (y) = 0.26077 0.08059
# Poissons Ratio (z) = 0.08352 0.08351
#
# Static dielectric constant tensor:
#      x y z
#    x 1.620250 0.000000 0.000000 
#    y 0.000000 1.620250 0.000000 
#    z 0.000000 0.000000 1.712560 
# 
# From -- ./inp_files/1613.got.cif
#   From: 2010.05.17/outbox.cif.g08.bks.cpg/sg121_1_cif.got.tgz:1613.got - 2010.05.20 11:32:06.
