data_PCOD9560309
_publ_section_title
;
Structure prediction by ZEFSAII (Michael W. Deem and Ramdas Pophale) SiO2 
 PCOD9560309
Probable space group: I -4 2 M
;
_chemical_formula_sum "Si O2"
_cell_formula_units_Z 48
_cell_length_a 9.213770
_cell_length_b 9.213770
_cell_length_c 31.903322
_cell_angle_alpha 90.000000
_cell_angle_beta 90.000000
_cell_angle_gamma 90.000000
_cell_volume 2708.386504
_symmetry_space_group_name_H-M "I -4 2 M"
_symmetry_group_IT_number 121
_symmetry_cell_setting 'tetragonal'
loop_
_space_group_symop_operation_xyz
x,y,z
y,-x,-z
-x,-y,z
-y,x,-z
x,-y,-z
-x,y,-z
-y,-x,z
y,x,z
1/2+x,1/2+y,1/2+z
1/2+y,1/2-x,1/2-z
1/2-x,1/2-y,1/2+z
1/2-y,1/2+x,1/2-z
1/2+x,1/2-y,1/2-z
1/2-x,1/2+y,1/2-z
1/2-y,1/2-x,1/2+z
1/2+y,1/2+x,1/2+z
loop_
_atom_site_type_symbol
_atom_site_label
_atom_site_fract_x
_atom_site_fract_y
_atom_site_fract_z
Si Si1 0.563963 0.203942 0.270535
Si Si2 0.257829 0.497985 0.365513
Si Si3 0.500000 0.000000 0.431526
Si Si4 0.000000 0.246515 0.500000
O O1 0.642723 0.357278 0.264214
O O2 0.423307 0.174976 0.242382
O O3 0.520471 0.192669 0.319138
O O4 0.370696 0.629305 0.372360
O O5 0.350942 0.350942 0.365461
O O6 0.139004 0.497318 0.401448
O O7 0.356206 0.998092 0.460496
O O8 0.859550 0.140451 0.500455
#
# Coordination Sequence:
#
# PCOD9560309 Si02
#       4
#    16  16   8   8
#     4  10  20  34  52  75 105 140 178 219 262 307
#     4  10  21  36  54  78 107 138 176 221 261 301
#     4  11  20  36  61  80 102 140 177 208 254 319
#     4  10  22  38  56  82 112 136 164 210 264 314
#
# _framework density 17.722726999999999
#
# number of rings (size 3 to 8) (size 9 to 14) (size 15 to 20)
#    0.000    1.833    0.000    5.000    0.000    2.000 
#    0.000    1.667    0.000   12.000    0.000    0.000 
#    0.000    0.000    0.000    0.000    0.000    0.000 
#
# Total GULP energy -133995.719295 kJ/mol
# GULP energy per Si atom -5583.154971 kJ/mol
# Density = 1.768239 g / cm^3
# Si number density = 17.722727 Si / 1000 Ang^3
#
#
#
# Elastic Constant Matrix: (Units=GPa)
#
#
# Indices 1 2 3 4 5 6 
#
# 1 121.7068 69.5619 93.8566 0.0000 0.0000 0.0000
# 2 69.5619 121.7047 93.8571 0.0000 0.0000 0.0000
# 3 93.8566 93.8571 171.2646 0.0000 0.0000 0.0000
# 4 0.0000 0.0000 0.0000 31.5716 0.0000 0.0000
# 5 0.0000 0.0000 0.0000 0.0000 31.5698 0.0000
# 6 0.0000 0.0000 0.0000 0.0000 0.0000 34.9976
#
#
#
# Elastic Compliance Matrix: (Units=1/GPa)
#
#
# Indices 1 2 3 4 5 6 
#
# 1 0.015245 -0.003933 -0.006199 0.000000 0.000000 0.000000
# 2 -0.003933 0.015245 -0.006200 0.000000 0.000000 0.000000
# 3 -0.006199 -0.006200 0.012634 0.000000 0.000000 0.000000
# 4 0.000000 0.000000 0.000000 0.031674 0.000000 0.000000
# 5 0.000000 0.000000 0.000000 0.000000 0.031676 0.000000
# 6 0.000000 0.000000 0.000000 0.000000 0.000000 0.028573
#
#
# Mechanical properties :
#
#
# Convention : Reuss Voigt Hill
#
# Bulk Modulus (GPa) = 95.59396 103.24749 99.42072
# Shear Modulus (GPa) = 29.20594 30.12117 29.66356
#
# Velocity S-wave (km/s) = 4.06388 4.12707 4.09560
# Velocity P-wave (km/s) = 8.72215 9.00521 8.86481
#
# Compressibility (1/GPa) = 0.01046091
#
# Stress axis : x y z
#
# Youngs Moduli (GPa) = 65.59564 65.59315 79.15169
#
# Poissons Ratio (x) = 0.25795 0.49069
# Poissons Ratio (y) = 0.25796 0.49072
# Poissons Ratio (z) = 0.40666 0.40666
#
# Static dielectric constant tensor:
#      x y z
#    x 1.602080 0.000000 0.000000 
#    y 0.000000 1.602090 0.000000 
#    z 0.000000 0.000000 1.570210 
# 
# From -- ./inp_files/7883.got.cif
#   From: 2010.05.17/outbox.cif.g08.bks.cpg/sg121_4_cif.got.tgz:7883.got - 2010.05.20 11:32:06.
