data_PCOD9560413
_publ_section_title
;
Structure prediction by ZEFSAII (Michael W. Deem and Ramdas Pophale) SiO2 
 PCOD9560413
Probable space group: I -4 2 M
;
_chemical_formula_sum "Si O2"
_cell_formula_units_Z 64
_cell_length_a 16.813238
_cell_length_b 16.813238
_cell_length_c 12.645525
_cell_angle_alpha 90.000000
_cell_angle_beta 90.000000
_cell_angle_gamma 90.000000
_cell_volume 3574.699881
_symmetry_space_group_name_H-M "I -4 2 M"
_symmetry_group_IT_number 121
_symmetry_cell_setting 'tetragonal'
loop_
_space_group_symop_operation_xyz
x,y,z
y,-x,-z
-x,-y,z
-y,x,-z
x,-y,-z
-x,y,-z
-y,-x,z
y,x,z
1/2+x,1/2+y,1/2+z
1/2+y,1/2-x,1/2-z
1/2-x,1/2-y,1/2+z
1/2-y,1/2+x,1/2-z
1/2+x,1/2-y,1/2-z
1/2-x,1/2+y,1/2-z
1/2-y,1/2-x,1/2+z
1/2+y,1/2+x,1/2+z
loop_
_atom_site_type_symbol
_atom_site_label
_atom_site_fract_x
_atom_site_fract_y
_atom_site_fract_z
Si Si1 0.942844 0.820794 0.592993
Si Si2 0.891227 0.565613 0.587198
Si Si3 0.701792 0.829383 0.460523
Si Si4 0.526457 0.175163 0.187581
O O1 0.891066 0.891066 0.642025
O O2 0.883279 0.762764 0.528781
O O3 0.000000 0.852379 0.500000
O O4 0.990346 0.763399 0.672005
O O5 0.909232 0.500000 0.500000
O O6 0.826354 0.624703 0.534755
O O7 0.856589 0.528441 0.694049
O O8 0.968995 0.616780 0.620271
O O9 0.748049 0.748049 0.434898
O O10 0.678092 0.884642 0.360930
#
# Coordination Sequence:
#
# PCOD9560413 Si02
#       4
#    16  16  16  16
#     4   8  15  30  51  76 104 135 175 221 270 322
#     4  11  22  35  52  80 111 142 180 221 268 327
#     4   9  19  35  52  71 100 137 177 222 270 320
#     4  10  21  34  53  77 107 146 179 221 275 327
#
# _framework density 17.903601999999999
#
# number of rings (size 3 to 8) (size 9 to 14) (size 15 to 20)
#    0.000    2.500    0.000    3.750    0.000    7.750 
#    0.000    6.250    0.000    0.000    0.000    0.000 
#    0.000    2.500    0.000    1.000    0.000    0.000 
#
# Total GULP energy -178432.078112 kJ/mol
# GULP energy per Si atom -5576.002441 kJ/mol
# Density = 1.786285 g / cm^3
# Si number density = 17.903602 Si / 1000 Ang^3
#
#
#
# Elastic Constant Matrix: (Units=GPa)
#
#
# Indices 1 2 3 4 5 6 
#
# 1 79.3712 62.7898 51.3926 0.0000 0.0000 0.0000
# 2 62.7898 79.3712 51.3926 0.0000 0.0000 0.0000
# 3 51.3926 51.3926 112.6677 0.0000 0.0000 0.0000
# 4 0.0000 0.0000 0.0000 18.4409 0.0000 0.0000
# 5 0.0000 0.0000 0.0000 0.0000 18.4409 0.0000
# 6 0.0000 0.0000 0.0000 0.0000 0.0000 27.3973
#
#
#
# Elastic Compliance Matrix: (Units=1/GPa)
#
#
# Indices 1 2 3 4 5 6 
#
# 1 0.035402 -0.024906 -0.004788 0.000000 0.000000 0.000000
# 2 -0.024906 0.035402 -0.004788 0.000000 0.000000 0.000000
# 3 -0.004788 -0.004788 0.013243 0.000000 0.000000 0.000000
# 4 0.000000 0.000000 0.000000 0.054227 0.000000 0.000000
# 5 0.000000 0.000000 0.000000 0.000000 0.054227 0.000000
# 6 0.000000 0.000000 0.000000 0.000000 0.000000 0.036500
#
#
# Mechanical properties :
#
#
# Convention : Reuss Voigt Hill
#
# Bulk Modulus (GPa) = 66.29296 66.95113 66.62204
# Shear Modulus (GPa) = 16.50202 19.91148 18.20675
#
# Velocity S-wave (km/s) = 3.03927 3.33851 3.19240
# Velocity P-wave (km/s) = 7.03024 7.23446 7.13308
#
# Compressibility (1/GPa) = 0.01508456
#
# Stress axis : x y z
#
# Youngs Moduli (GPa) = 28.24694 28.24694 75.50981
#
# Poissons Ratio (x) = 0.70353 0.36151
# Poissons Ratio (y) = 0.70353 0.36151
# Poissons Ratio (z) = 0.13523 0.13523
#
# Static dielectric constant tensor:
#      x y z
#    x 1.652650 0.000000 0.000000 
#    y 0.000000 1.652650 0.000000 
#    z 0.000000 0.000000 1.603730 
# 
# From -- ./inp_files/2905.got.cif
#   From: 2010.05.17/outbox.cif.g08.bks.cpg/sg121_2_cif.got.tgz:2905.got - 2010.05.20 11:32:06.
