data_PCOD9560635
_publ_section_title
;
Structure prediction by ZEFSAII (Michael W. Deem and Ramdas Pophale) SiO2 
 PCOD9560635
Probable space group: I -4 2 M
;
_chemical_formula_sum "Si O2"
_cell_formula_units_Z 88
_cell_length_a 11.911095
_cell_length_b 11.911095
_cell_length_c 29.322056
_cell_angle_alpha 90.000000
_cell_angle_beta 90.000000
_cell_angle_gamma 90.000000
_cell_volume 4160.042771
_symmetry_space_group_name_H-M "I -4 2 M"
_symmetry_group_IT_number 121
_symmetry_cell_setting 'tetragonal'
loop_
_space_group_symop_operation_xyz
x,y,z
y,-x,-z
-x,-y,z
-y,x,-z
x,-y,-z
-x,y,-z
-y,-x,z
y,x,z
1/2+x,1/2+y,1/2+z
1/2+y,1/2-x,1/2-z
1/2-x,1/2-y,1/2+z
1/2-y,1/2+x,1/2-z
1/2+x,1/2-y,1/2-z
1/2-x,1/2+y,1/2-z
1/2-y,1/2-x,1/2+z
1/2+y,1/2+x,1/2+z
loop_
_atom_site_type_symbol
_atom_site_label
_atom_site_fract_x
_atom_site_fract_y
_atom_site_fract_z
Si Si1 0.275456 0.543950 0.551697
Si Si2 0.768161 0.406679 0.034906
Si Si3 0.677640 0.975155 0.233407
Si Si4 0.364103 0.635898 0.207243
Si Si5 0.288173 0.103421 0.137214
Si Si6 0.023621 0.787549 0.372505
O O1 0.287187 0.500000 0.500000
O O2 0.387719 0.612282 0.563937
O O3 0.173321 0.632069 0.550833
O O4 0.247119 0.452497 0.589670
O O5 0.673956 0.326045 0.012726
O O6 0.714968 0.466755 0.078392
O O7 0.808809 0.500000 0.000000
O O8 0.588784 0.875839 0.246198
O O9 0.795512 0.938184 0.254444
O O10 0.689984 0.981664 0.178750
O O11 0.294877 0.567613 0.166953
O O12 0.190302 0.190302 0.150990
O O13 0.399511 0.177565 0.131069
O O14 0.104621 0.895380 0.367073
#
# Coordination Sequence:
#
# PCOD9560635 Si02
#       6
#    16  16  16   8  16  16
#     4  11  26  46  70  98 136 180 229 287 354 420
#     4  11  24  40  64  99 134 175 223 284 338 415
#     4  11  25  43  70 100 139 184 232 291 349 412
#     4  12  23  44  70  99 138 188 230 284 353 418
#     4  11  24  44  69 100 133 176 232 289 342 417
#     4  11  24  42  67  98 137 181 228 283 355 419
#
# _framework density 21.153628999999999
#
# number of rings (size 3 to 8) (size 9 to 14) (size 15 to 20)
#    0.000    0.909    3.636    2.455    2.545    7.636 
#    1.636    0.000    0.000    0.000    0.000    0.000 
#    0.000    0.000    0.000    0.000    0.000    0.000 
#
# Total GULP energy -245049.852995 kJ/mol
# GULP energy per Si atom -5569.314841 kJ/mol
# Density = 2.110548 g / cm^3
# Si number density = 21.153629 Si / 1000 Ang^3
#
#
#
# Elastic Constant Matrix: (Units=GPa)
#
#
# Indices 1 2 3 4 5 6 
#
# 1 -30.1375 76.3311 21.0705 0.0000 0.0000 0.0000
# 2 76.3311 -30.1316 21.0568 0.0000 0.0000 0.0000
# 3 21.0705 21.0568 103.4504 0.0000 0.0000 0.0000
# 4 0.0000 0.0000 0.0000 13.0036 0.0000 0.0000
# 5 0.0000 0.0000 0.0000 0.0000 13.0012 0.0000
# 6 0.0000 0.0000 0.0000 0.0000 0.0000 9.1430
#
#
#
# Elastic Compliance Matrix: (Units=1/GPa)
#
#
# Indices 1 2 3 4 5 6 
#
# 1 0.008593 0.017988 -0.005412 0.000000 0.000000 0.000000
# 2 0.017988 0.008596 -0.005413 0.000000 0.000000 0.000000
# 3 -0.005412 -0.005413 0.011871 0.000000 0.000000 0.000000
# 4 0.000000 0.000000 0.000000 0.076902 0.000000 0.000000
# 5 0.000000 0.000000 0.000000 0.000000 0.076916 0.000000
# 6 0.000000 0.000000 0.000000 0.000000 0.000000 0.109373
#
#
# Mechanical properties :
#
#
# Convention : Reuss Voigt Hill
#
# Bulk Modulus (GPa) = 23.04926 31.12203 27.08564
# Shear Modulus (GPa) = 17.10059 2.01109 9.55584
#
# Velocity S-wave (km/s) = 2.84632 0.97610 2.12771
# Velocity P-wave (km/s) = 4.66067 4.00183 4.34376
#
# Compressibility (1/GPa) = 0.04338534
#
# Stress axis : x y z
#
# Youngs Moduli (GPa) = 116.36868 116.33006 84.24221
#
# Poissons Ratio (x) = -2.09249 0.45588
# Poissons Ratio (y) = -2.09318 0.45603
# Poissons Ratio (z) = 0.62973 0.62974
#
# Static dielectric constant tensor:
#      x y z
#    x 1.797460 0.000000 0.000000 
#    y 0.000000 1.797470 0.000000 
#    z 0.000000 0.000000 1.737530 
# 
# From -- ./inp_files/8200.got.cif
#   From: 2010.05.17/outbox.cif.g08.bks.cpg/sg121_5_cif.got.tgz:8200.got - 2010.05.20 11:32:06.
