data_PCOD9560342
_publ_section_title
;
Structure prediction by ZEFSAII (Michael W. Deem and Ramdas Pophale) SiO2 
 PCOD9560342
Probable space group: I -4 2 M
;
_chemical_formula_sum "Si O2"
_cell_formula_units_Z 72
_cell_length_a 13.805867
_cell_length_b 13.805867
_cell_length_c 18.794094
_cell_angle_alpha 90.000000
_cell_angle_beta 90.000000
_cell_angle_gamma 90.000000
_cell_volume 3582.191221
_symmetry_space_group_name_H-M "I -4 2 M"
_symmetry_group_IT_number 121
_symmetry_cell_setting 'tetragonal'
loop_
_space_group_symop_operation_xyz
x,y,z
y,-x,-z
-x,-y,z
-y,x,-z
x,-y,-z
-x,y,-z
-y,-x,z
y,x,z
1/2+x,1/2+y,1/2+z
1/2+y,1/2-x,1/2-z
1/2-x,1/2-y,1/2+z
1/2-y,1/2+x,1/2-z
1/2+x,1/2-y,1/2-z
1/2-x,1/2+y,1/2-z
1/2-y,1/2-x,1/2+z
1/2+y,1/2+x,1/2+z
loop_
_atom_site_type_symbol
_atom_site_label
_atom_site_fract_x
_atom_site_fract_y
_atom_site_fract_z
Si Si1 0.720712 0.720712 0.717025
Si Si2 0.014734 0.707175 0.577096
Si Si3 0.893169 0.106832 0.905452
Si Si4 0.432339 0.127433 0.778324
Si Si5 0.231369 0.768632 0.555517
Si Si6 0.824259 0.175742 0.404967
Si Si7 0.884528 0.884528 0.922485
O O1 0.665301 0.665301 0.653205
O O2 0.642608 0.786197 0.759680
O O3 0.791765 0.791765 0.673114
O O4 0.013880 0.641413 0.646327
O O5 0.122498 0.746783 0.575705
O O6 0.000000 0.658263 0.500000
O O7 0.934972 0.791996 0.584092
O O8 0.006627 0.133537 0.895866
O O9 0.882472 0.117529 0.991015
O O10 0.523626 0.121068 0.724412
O O11 0.232497 0.767504 0.468708
O O12 0.304473 0.695528 0.594235
#
# Coordination Sequence:
#
# PCOD9560342 Si02
#       7
#     8  16   8  16   8   8   8
#     4  12  22  42  68  88 136 181 218 268 364 390
#     4  10  22  42  68  99 131 178 229 271 339 400
#     4   9  20  35  59  90 125 188 211 272 341 408
#     4  11  25  44  66  99 138 175 224 283 336 406
#     4  10  20  35  68  97 131 173 228 278 331 393
#     4  10  20  41  63  93 132 176 219 282 331 404
#     4   9  18  37  56  91 138 159 232 277 327 396
#
# _framework density 20.099430000000002
#
# number of rings (size 3 to 8) (size 9 to 14) (size 15 to 20)
#    0.000    1.778    3.333    1.333    3.111    0.444 
#    0.000    6.667    0.000    0.000    0.000    0.000 
#    0.000    0.000    0.000    0.000    0.000    0.000 
#
# Total GULP energy -200563.005534 kJ/mol
# GULP energy per Si atom -5571.194598 kJ/mol
# Density = 2.005368 g / cm^3
# Si number density = 20.099430 Si / 1000 Ang^3
#
#
#
# Elastic Constant Matrix: (Units=GPa)
#
#
# Indices 1 2 3 4 5 6 
#
# 1 126.7466 51.9132 32.6554 0.0000 0.0000 0.0000
# 2 51.9132 126.7453 32.6563 0.0000 0.0000 0.0000
# 3 32.6554 32.6563 92.7613 0.0000 0.0000 0.0000
# 4 0.0000 0.0000 0.0000 34.3585 0.0000 0.0000
# 5 0.0000 0.0000 0.0000 0.0000 34.3623 0.0000
# 6 0.0000 0.0000 0.0000 0.0000 0.0000 37.5395
#
#
#
# Elastic Compliance Matrix: (Units=1/GPa)
#
#
# Indices 1 2 3 4 5 6 
#
# 1 0.009893 -0.003470 -0.002261 0.000000 0.000000 0.000000
# 2 -0.003470 0.009894 -0.002262 0.000000 0.000000 0.000000
# 3 -0.002261 -0.002262 0.012373 0.000000 0.000000 0.000000
# 4 0.000000 0.000000 0.000000 0.029105 0.000000 0.000000
# 5 0.000000 0.000000 0.000000 0.000000 0.029102 0.000000
# 6 0.000000 0.000000 0.000000 0.000000 0.000000 0.026639
#
#
# Mechanical properties :
#
#
# Convention : Reuss Voigt Hill
#
# Bulk Modulus (GPa) = 61.82544 64.52256 63.17400
# Shear Modulus (GPa) = 36.13197 36.52061 36.32629
#
# Velocity S-wave (km/s) = 4.24448 4.26725 4.25588
# Velocity P-wave (km/s) = 7.40590 7.51336 7.45983
#
# Compressibility (1/GPa) = 0.01617457
#
# Stress axis : x y z
#
# Youngs Moduli (GPa) = 101.07674 101.07498 80.82345
#
# Poissons Ratio (x) = 0.35069 0.18278
# Poissons Ratio (y) = 0.35069 0.18279
# Poissons Ratio (z) = 0.22858 0.22859
#
# Static dielectric constant tensor:
#      x y z
#    x 1.236410 0.000000 0.000000 
#    y 0.000000 1.236260 0.000000 
#    z 0.000000 0.000000 1.792060 
# 
# From -- ./inp_files/5249.got.cif
#   From: 2010.05.17/outbox.cif.g08.bks.cpg/sg121_3_cif.got.tgz:5249.got - 2010.05.20 11:32:06.
