data_PCOD9560935
_publ_section_title
;
Structure prediction by ZEFSAII (Michael W. Deem and Ramdas Pophale) SiO2 
 PCOD9560935
Probable space group: I -4 2 D
;
_chemical_formula_sum "Si O2"
_cell_formula_units_Z 108
_cell_length_a 30.915217
_cell_length_b 30.915217
_cell_length_c 5.039686
_cell_angle_alpha 90.000000
_cell_angle_beta 90.000000
_cell_angle_gamma 90.000000
_cell_volume 4816.683131
_symmetry_space_group_name_H-M "I -4 2 D"
_symmetry_group_IT_number 122
_symmetry_cell_setting 'tetragonal'
loop_
_space_group_symop_operation_xyz
x,y,z
y,-x,-z
-x,-y,z
-y,x,-z
x,1/2-y,1/4-z
-x,1/2+y,1/4-z
-y,1/2-x,1/4+z
y,1/2+x,1/4+z
1/2+x,1/2+y,1/2+z
1/2+y,1/2-x,1/2-z
1/2-x,1/2-y,1/2+z
1/2-y,1/2+x,1/2-z
1/2+x,-y,3/4-z
1/2-x,y,3/4-z
1/2-y,-x,3/4+z
1/2+y,x,3/4+z
loop_
_atom_site_type_symbol
_atom_site_label
_atom_site_fract_x
_atom_site_fract_y
_atom_site_fract_z
Si Si1 0.187359 0.643003 0.297867
Si Si2 0.844738 0.906127 0.800190
Si Si3 0.592875 0.986158 0.979399
Si Si4 0.200016 0.063081 0.303229
Si Si5 0.219143 0.250000 0.125000
Si Si6 0.360382 0.518913 0.782145
Si Si7 0.590004 0.794445 0.181004
Si Si8 0.500000 0.000000 0.750000
O O1 0.138335 0.645587 0.198903
O O2 0.208262 0.687800 0.391440
O O3 0.211281 0.628678 0.029394
O O4 0.196496 0.607662 0.525861
O O5 0.824688 0.903992 0.505241
O O6 0.886141 0.938078 0.785135
O O7 0.809084 0.927047 0.995742
O O8 0.620432 0.012828 0.759876
O O9 0.542760 0.987709 0.913171
O O10 0.601985 0.007823 0.261160
O O11 0.250000 0.062191 0.375000
O O12 0.175653 0.017666 0.345314
O O13 0.250000 0.253680 0.375000
O O14 0.336188 0.563272 0.838458
O O15 0.563846 0.750000 0.125000
#
# Coordination Sequence:
#
# PCOD9560935 Si02
#       8
#    16  16  16  16   8  16  16   4
#     4  12  25  44  66  98 131 181 226 280 337 405
#     4  10  23  41  64  93 135 176 223 278 335 398
#     4  10  25  44  64 100 134 182 230 287 334 407
#     4  10  20  40  65  96 132 164 217 269 332 412
#     4  12  26  46  68  96 144 178 230 286 334 422
#     4  10  23  42  67 100 133 171 216 277 356 392
#     4  12  23  41  70  98 133 169 219 279 346 419
#     4  12  28  46  72  94 144 182 256 270 344 410
#
# _framework density 22.422069
#
# number of rings (size 3 to 8) (size 9 to 14) (size 15 to 20)
#    0.000    1.185    1.481    3.556    4.148    3.556 
#    0.000    4.444    0.000    0.000    0.000    0.000 
#    0.000    0.000    0.000    0.000    0.000    0.000 
#
# Total GULP energy -302003.511204 kJ/mol
# GULP energy per Si atom -5592.657615 kJ/mol
# Density = 2.237104 g / cm^3
# Si number density = 22.422069 Si / 1000 Ang^3
#
#
#
# Elastic Constant Matrix: (Units=GPa)
#
#
# Indices 1 2 3 4 5 6 
#
# 1 87.1276 20.8658 0.0334 0.0000 0.0000 0.0000
# 2 20.8658 87.1276 0.0334 0.0000 0.0000 0.0000
# 3 0.0334 0.0334 88.4399 0.0000 0.0000 0.0000
# 4 0.0000 0.0000 0.0000 23.9440 0.0000 0.0000
# 5 0.0000 0.0000 0.0000 0.0000 23.9440 0.0000
# 6 0.0000 0.0000 0.0000 0.0000 0.0000 14.7352
#
#
#
# Elastic Compliance Matrix: (Units=1/GPa)
#
#
# Indices 1 2 3 4 5 6 
#
# 1 0.012176 -0.002916 -0.000003 0.000000 0.000000 0.000000
# 2 -0.002916 0.012176 -0.000003 0.000000 0.000000 0.000000
# 3 -0.000003 -0.000003 0.011307 0.000000 0.000000 0.000000
# 4 0.000000 0.000000 0.000000 0.041764 0.000000 0.000000
# 5 0.000000 0.000000 0.000000 0.000000 0.041764 0.000000
# 6 0.000000 0.000000 0.000000 0.000000 0.000000 0.067865
#
#
# Mechanical properties :
#
#
# Convention : Reuss Voigt Hill
#
# Bulk Modulus (GPa) = 33.54265 33.84003 33.69134
# Shear Modulus (GPa) = 24.65056 28.64213 26.64634
#
# Velocity S-wave (km/s) = 3.31930 3.57796 3.45105
# Velocity P-wave (km/s) = 5.44816 5.67399 5.56222
#
# Compressibility (1/GPa) = 0.02981279
#
# Stress axis : x y z
#
# Youngs Moduli (GPa) = 82.13056 82.13056 88.43988
#
# Poissons Ratio (x) = 0.23949 0.00031
# Poissons Ratio (y) = 0.23949 0.00031
# Poissons Ratio (z) = 0.00029 0.00029
#
# Static dielectric constant tensor:
#      x y z
#    x 1.884550 0.000000 0.000000 
#    y 0.000000 1.884550 0.000000 
#    z 0.000000 0.000000 1.785620 
# 
# From -- ./inp_files/1560.got.cif
#   From: 2010.05.17/outbox.cif.g08.bks.cpg/sg122_1_cif.got.tgz:1560.got - 2010.05.20 11:37:33.
