data_PCOD9560903
_publ_section_title
;
Structure prediction by ZEFSAII (Michael W. Deem and Ramdas Pophale) SiO2 
 PCOD9560903
Probable space group: I -4 2 D
;
_chemical_formula_sum "Si O2"
_cell_formula_units_Z 88
_cell_length_a 17.839402
_cell_length_b 17.839402
_cell_length_c 13.101478
_cell_angle_alpha 90.000000
_cell_angle_beta 90.000000
_cell_angle_gamma 90.000000
_cell_volume 4169.470220
_symmetry_space_group_name_H-M "I -4 2 D"
_symmetry_group_IT_number 122
_symmetry_cell_setting 'tetragonal'
loop_
_space_group_symop_operation_xyz
x,y,z
y,-x,-z
-x,-y,z
-y,x,-z
x,1/2-y,1/4-z
-x,1/2+y,1/4-z
-y,1/2-x,1/4+z
y,1/2+x,1/4+z
1/2+x,1/2+y,1/2+z
1/2+y,1/2-x,1/2-z
1/2-x,1/2-y,1/2+z
1/2-y,1/2+x,1/2-z
1/2+x,-y,3/4-z
1/2-x,y,3/4-z
1/2-y,-x,3/4+z
1/2+y,x,3/4+z
loop_
_atom_site_type_symbol
_atom_site_label
_atom_site_fract_x
_atom_site_fract_y
_atom_site_fract_z
Si Si1 0.779596 0.403925 0.189538
Si Si2 0.500000 0.000000 0.087321
Si Si3 0.750000 0.501691 0.375000
Si Si4 0.530561 0.851350 0.314237
Si Si5 0.335693 0.355146 0.062808
Si Si6 0.775231 0.250000 0.625000
Si Si7 0.394374 0.622032 0.726727
O O1 0.791366 0.446172 0.295154
O O2 0.699193 0.434262 0.152823
O O3 0.772509 0.314488 0.180721
O O4 0.842562 0.419039 0.105623
O O5 0.438421 0.958038 0.156399
O O6 0.555989 0.945695 0.025244
O O7 0.686476 0.553971 0.323562
O O8 0.579416 0.834034 0.216078
O O9 0.444868 0.828823 0.304688
O O10 0.335260 0.344555 0.185553
O O11 0.285675 0.320965 0.971424
#
# Coordination Sequence:
#
# PCOD9560903 Si02
#       7
#    16   8   8  16  16   8  16
#     4  11  25  44  66  98 139 183 235 297 360 429
#     4  10  20  43  67 102 136 180 231 290 357 422
#     4  12  25  50  64  95 144 188 250 302 361 442
#     4  10  20  38  64 102 138 173 224 290 351 415
#     4  10  20  39  65 101 138 179 230 282 354 421
#     4  10  25  40  66 103 136 186 232 282 365 430
#     4  11  25  43  71 100 140 186 241 301 365 431
#
# _framework density 21.105798
#
# number of rings (size 3 to 8) (size 9 to 14) (size 15 to 20)
#    0.000    1.455    3.636    2.727    0.000   12.364 
#    0.000    0.000    0.000    0.000    0.000    0.000 
#    0.000    0.000    0.000    0.000    0.000    0.000 
#
# Total GULP energy -245216.766689 kJ/mol
# GULP energy per Si atom -5573.108334 kJ/mol
# Density = 2.105776 g / cm^3
# Si number density = 21.105798 Si / 1000 Ang^3
#
#
#
# Elastic Constant Matrix: (Units=GPa)
#
#
# Indices 1 2 3 4 5 6 
#
# 1 67.3552 15.6798 34.9274 0.0000 0.0000 0.0000
# 2 15.6798 67.3552 34.9274 0.0000 0.0000 0.0000
# 3 34.9274 34.9274 143.1948 0.0000 0.0000 0.0000
# 4 0.0000 0.0000 0.0000 29.3086 0.0000 0.0000
# 5 0.0000 0.0000 0.0000 0.0000 29.3086 0.0000
# 6 0.0000 0.0000 0.0000 0.0000 0.0000 34.9231
#
#
#
# Elastic Compliance Matrix: (Units=1/GPa)
#
#
# Indices 1 2 3 4 5 6 
#
# 1 0.017252 -0.002100 -0.003696 0.000000 0.000000 0.000000
# 2 -0.002100 0.017252 -0.003696 0.000000 0.000000 0.000000
# 3 -0.003696 -0.003696 0.008786 0.000000 0.000000 0.000000
# 4 0.000000 0.000000 0.000000 0.034120 0.000000 0.000000
# 5 0.000000 0.000000 0.000000 0.000000 0.034120 0.000000
# 6 0.000000 0.000000 0.000000 0.000000 0.000000 0.028634
#
#
# Mechanical properties :
#
#
# Convention : Reuss Voigt Hill
#
# Bulk Modulus (GPa) = 41.13939 49.88605 45.51272
# Shear Modulus (GPa) = 29.89548 31.53277 30.71412
#
# Velocity S-wave (km/s) = 3.76767 3.86947 3.81891
# Velocity P-wave (km/s) = 6.20173 6.60690 6.40752
#
# Compressibility (1/GPa) = 0.02430760
#
# Stress axis : x y z
#
# Youngs Moduli (GPa) = 57.96446 57.96446 113.81147
#
# Poissons Ratio (x) = 0.12170 0.42063
# Poissons Ratio (y) = 0.12170 0.42063
# Poissons Ratio (z) = 0.21423 0.21423
#
# Static dielectric constant tensor:
#      x y z
#    x 1.790390 0.000000 0.000000 
#    y 0.000000 1.790390 0.000000 
#    z 0.000000 0.000000 1.856540 
# 
# From -- ./inp_files/5422.got.cif
#   From: 2010.05.17/outbox.cif.g08.bks.cpg/sg122_3_cif.got.tgz:5422.got - 2010.05.20 11:37:33.
