data_PCOD9560209
_publ_section_title
;
Structure prediction by ZEFSAII (Michael W. Deem and Ramdas Pophale) SiO2 
 PCOD9560209
Probable space group: I -4 2 M
;
_chemical_formula_sum "Si O2"
_cell_formula_units_Z 116
_cell_length_a 19.215909
_cell_length_b 19.215909
_cell_length_c 18.834897
_cell_angle_alpha 90.000000
_cell_angle_beta 90.000000
_cell_angle_gamma 90.000000
_cell_volume 6954.807541
_symmetry_space_group_name_H-M "I -4 2 M"
_symmetry_group_IT_number 121
_symmetry_cell_setting 'tetragonal'
loop_
_space_group_symop_operation_xyz
x,y,z
y,-x,-z
-x,-y,z
-y,x,-z
x,-y,-z
-x,y,-z
-y,-x,z
y,x,z
1/2+x,1/2+y,1/2+z
1/2+y,1/2-x,1/2-z
1/2-x,1/2-y,1/2+z
1/2-y,1/2+x,1/2-z
1/2+x,1/2-y,1/2-z
1/2-x,1/2+y,1/2-z
1/2-y,1/2-x,1/2+z
1/2+y,1/2+x,1/2+z
loop_
_atom_site_type_symbol
_atom_site_label
_atom_site_fract_x
_atom_site_fract_y
_atom_site_fract_z
Si Si1 0.920186 0.801668 0.205393
Si Si2 0.154492 0.725471 0.077979
Si Si3 0.224163 0.656171 0.416196
Si Si4 0.500000 0.500000 0.865727
Si Si5 0.656345 0.495103 0.082041
Si Si6 0.697855 0.580199 0.299516
Si Si7 0.260706 0.379023 0.146712
Si Si8 0.757831 0.872820 0.353253
O O1 0.867786 0.867786 0.208777
O O2 0.900007 0.756187 0.137092
O O3 0.907999 0.755513 0.276094
O O4 0.000098 0.823926 0.203098
O O5 0.216221 0.783780 0.075956
O O6 0.097772 0.757014 0.131069
O O7 0.188121 0.655619 0.110945
O O8 0.131886 0.714693 0.996934
O O9 0.281923 0.718078 0.417420
O O10 0.154520 0.690920 0.384454
O O11 0.499606 0.413646 0.871656
O O12 0.708262 0.557391 0.101927
O O13 0.698371 0.424546 0.096994
O O14 0.634007 0.500000 0.000000
O O15 0.631269 0.631269 0.299151
O O16 0.741976 0.598285 0.228853
O O17 0.318495 0.318495 0.143307
O O18 0.804572 0.804572 0.341308
#
# Coordination Sequence:
#
# PCOD9560209 Si02
#       8
#    16  16  16   4  16  16  16  16
#     4  10  20  34  51  76 107 141 175 211 257 312
#     4   9  18  33  53  73  96 130 177 228 268 302
#     4   9  18  33  53  73  96 130 177 228 268 302
#     4  12  25  32  40  72 116 160 189 206 237 312
#     4  12  21  30  44  68 108 149 181 205 242 300
#     4  10  20  34  51  76 107 141 175 211 257 312
#     4  10  19  32  48  71 100 139 177 214 255 298
#     4  10  19  32  48  71 100 139 177 214 255 298
#
# _framework density 16.679110000000001
#
# number of rings (size 3 to 8) (size 9 to 14) (size 15 to 20)
#    0.000    1.931    2.759    2.276    0.000    5.241 
#    0.000    0.000    0.000    0.000    0.000    4.828 
#    0.000    3.310    0.000    0.000    0.000    0.000 
#
# Total GULP energy -322877.390056 kJ/mol
# GULP energy per Si atom -5566.851553 kJ/mol
# Density = 1.664115 g / cm^3
# Si number density = 16.679110 Si / 1000 Ang^3
#
#
#
# Elastic Constant Matrix: (Units=GPa)
#
#
# Indices 1 2 3 4 5 6 
#
# 1 26.6988 20.8185 28.7830 0.0000 0.0000 0.0000
# 2 20.8185 26.6995 28.7833 0.0000 0.0000 0.0000
# 3 28.7830 28.7833 96.6229 0.0000 0.0000 0.0000
# 4 0.0000 0.0000 0.0000 17.3154 0.0000 0.0000
# 5 0.0000 0.0000 0.0000 0.0000 17.3154 0.0000
# 6 0.0000 0.0000 0.0000 0.0000 0.0000 15.3632
#
#
#
# Elastic Compliance Matrix: (Units=1/GPa)
#
#
# Indices 1 2 3 4 5 6 
#
# 1 0.101489 -0.068560 -0.009809 0.000000 0.000000 0.000000
# 2 -0.068560 0.101487 -0.009809 0.000000 0.000000 0.000000
# 3 -0.009809 -0.009809 0.016194 0.000000 0.000000 0.000000
# 4 0.000000 0.000000 0.000000 0.057752 0.000000 0.000000
# 5 0.000000 0.000000 0.000000 0.000000 0.057752 0.000000
# 6 0.000000 0.000000 0.000000 0.000000 0.000000 0.065090
#
#
# Mechanical properties :
#
#
# Convention : Reuss Voigt Hill
#
# Bulk Modulus (GPa) = 23.35696 34.08788 28.72242
# Shear Modulus (GPa) = 8.46896 14.77458 11.62177
#
# Velocity S-wave (km/s) = 2.25579 2.97949 2.64253
# Velocity P-wave (km/s) = 4.56278 5.68492 5.15448
#
# Compressibility (1/GPa) = 0.04281380
#
# Stress axis : x y z
#
# Youngs Moduli (GPa) = 9.85325 9.85352 61.75289
#
# Poissons Ratio (x) = 0.67556 0.60575
# Poissons Ratio (y) = 0.67554 0.60573
# Poissons Ratio (z) = 0.09665 0.09665
#
# Static dielectric constant tensor:
#      x y z
#    x 1.553140 0.000000 0.000000 
#    y 0.000000 1.553140 0.000000 
#    z 0.000000 0.000000 1.600320 
# 
# From -- ./inp_files/5511.got.cif
#   From: 2010.05.17/outbox.cif.g08.bks.cpg/sg121_3_cif.got.tgz:5511.got - 2010.05.20 11:32:06.
