data_PCOD9560671
_publ_section_title
;
Structure prediction by ZEFSAII (Michael W. Deem and Ramdas Pophale) SiO2 
 PCOD9560671
Probable space group: I -4 2 M
;
_chemical_formula_sum "Si O2"
_cell_formula_units_Z 32
_cell_length_a 8.727136
_cell_length_b 8.727136
_cell_length_c 18.175759
_cell_angle_alpha 90.000000
_cell_angle_beta 90.000000
_cell_angle_gamma 90.000000
_cell_volume 1384.318565
_symmetry_space_group_name_H-M "I -4 2 M"
_symmetry_group_IT_number 121
_symmetry_cell_setting 'tetragonal'
loop_
_space_group_symop_operation_xyz
x,y,z
y,-x,-z
-x,-y,z
-y,x,-z
x,-y,-z
-x,y,-z
-y,-x,z
y,x,z
1/2+x,1/2+y,1/2+z
1/2+y,1/2-x,1/2-z
1/2-x,1/2-y,1/2+z
1/2-y,1/2+x,1/2-z
1/2+x,1/2-y,1/2-z
1/2-x,1/2+y,1/2-z
1/2-y,1/2-x,1/2+z
1/2+y,1/2+x,1/2+z
loop_
_atom_site_type_symbol
_atom_site_label
_atom_site_fract_x
_atom_site_fract_y
_atom_site_fract_z
Si Si1 0.631265 0.368736 0.312541
Si Si2 0.370147 0.370147 0.857432
Si Si3 0.808669 0.437152 0.578945
O O1 0.500000 0.500000 0.307114
O O2 0.666330 0.333671 0.227862
O O3 0.560365 0.226928 0.357786
O O4 0.500000 0.500000 0.865179
O O5 0.206318 0.411536 0.894485
O O6 0.849675 0.500000 0.500000
O O7 0.645099 0.354902 0.567152
#
# Coordination Sequence:
#
# PCOD9560671 Si02
#       3
#     8   8  16
#     4   9  15  28  51  91 139 176 231 284 361 435
#     4   9  19  29  49 101 151 179 236 296 369 423
#     4   9  16  28  57  96 139 181 233 284 357 459
#
# _framework density 23.116066
#
# number of rings (size 3 to 8) (size 9 to 14) (size 15 to 20)
#    1.500    1.500    2.500    0.000    0.000    0.000 
#    0.000    0.000    0.000    1.500   26.000   21.000 
#    0.000    0.000    0.000    0.000    0.000    0.000 
#
# Total GULP energy -89157.170873 kJ/mol
# GULP energy per Si atom -5572.323180 kJ/mol
# Density = 2.306345 g / cm^3
# Si number density = 23.116066 Si / 1000 Ang^3
#
#
#
# Elastic Constant Matrix: (Units=GPa)
#
#
# Indices 1 2 3 4 5 6 
#
# 1 83.5988 59.8922 67.0831 0.0000 0.0000 0.0000
# 2 59.8922 83.5973 67.0833 0.0000 0.0000 0.0000
# 3 67.0831 67.0833 220.6544 0.0000 0.0000 0.0000
# 4 0.0000 0.0000 0.0000 14.1086 0.0000 0.0000
# 5 0.0000 0.0000 0.0000 0.0000 14.1090 0.0000
# 6 0.0000 0.0000 0.0000 0.0000 0.0000 43.4437
#
#
#
# Elastic Compliance Matrix: (Units=1/GPa)
#
#
# Indices 1 2 3 4 5 6 
#
# 1 0.025960 -0.016223 -0.002960 0.000000 0.000000 0.000000
# 2 -0.016223 0.025961 -0.002960 0.000000 0.000000 0.000000
# 3 -0.002960 -0.002960 0.006332 0.000000 0.000000 0.000000
# 4 0.000000 0.000000 0.000000 0.070879 0.000000 0.000000
# 5 0.000000 0.000000 0.000000 0.000000 0.070877 0.000000
# 6 0.000000 0.000000 0.000000 0.000000 0.000000 0.023018
#
#
# Mechanical properties :
#
#
# Convention : Reuss Voigt Hill
#
# Bulk Modulus (GPa) = 71.60778 86.21865 78.91321
# Shear Modulus (GPa) = 18.38445 27.25171 22.81808
#
# Velocity S-wave (km/s) = 2.82318 3.43725 3.14524
# Velocity P-wave (km/s) = 6.45538 7.28917 6.88491
#
# Compressibility (1/GPa) = 0.01396496
#
# Stress axis : x y z
#
# Youngs Moduli (GPa) = 38.52084 38.51981 157.93022
#
# Poissons Ratio (x) = 0.62492 0.46749
# Poissons Ratio (y) = 0.62494 0.46753
# Poissons Ratio (z) = 0.11403 0.11403
#
# Static dielectric constant tensor:
#      x y z
#    x 1.953860 0.000000 0.000000 
#    y 0.000000 1.953860 0.000000 
#    z 0.000000 0.000000 1.814240 
# 
# From -- ./inp_files/5718.got.cif
#   From: 2010.05.17/outbox.cif.g08.bks.cpg/sg121_3_cif.got.tgz:5718.got - 2010.05.20 11:32:06.
