data_PCOD9560489
_publ_section_title
;
Structure prediction by ZEFSAII (Michael W. Deem and Ramdas Pophale) SiO2 
 PCOD9560489
Probable space group: I -4 2 M
;
_chemical_formula_sum "Si O2"
_cell_formula_units_Z 96
_cell_length_a 20.366423
_cell_length_b 20.366423
_cell_length_c 12.359498
_cell_angle_alpha 90.000000
_cell_angle_beta 90.000000
_cell_angle_gamma 90.000000
_cell_volume 5126.610831
_symmetry_space_group_name_H-M "I -4 2 M"
_symmetry_group_IT_number 121
_symmetry_cell_setting 'tetragonal'
loop_
_space_group_symop_operation_xyz
x,y,z
y,-x,-z
-x,-y,z
-y,x,-z
x,-y,-z
-x,y,-z
-y,-x,z
y,x,z
1/2+x,1/2+y,1/2+z
1/2+y,1/2-x,1/2-z
1/2-x,1/2-y,1/2+z
1/2-y,1/2+x,1/2-z
1/2+x,1/2-y,1/2-z
1/2-x,1/2+y,1/2-z
1/2-y,1/2-x,1/2+z
1/2+y,1/2+x,1/2+z
loop_
_atom_site_type_symbol
_atom_site_label
_atom_site_fract_x
_atom_site_fract_y
_atom_site_fract_z
Si Si1 0.113675 0.781888 0.204918
Si Si2 0.278151 0.822535 0.399165
Si Si3 0.216765 0.113972 0.052622
Si Si4 0.931598 0.673689 0.433878
Si Si5 0.577417 0.977207 0.878505
Si Si6 0.520209 0.218937 0.281714
O O1 0.146790 0.853211 0.223330
O O2 0.157887 0.732070 0.274401
O O3 0.042899 0.762404 0.247973
O O4 0.111043 0.772456 0.076296
O O5 0.209473 0.790528 0.436729
O O6 0.331805 0.766762 0.404963
O O7 0.302002 0.879054 0.479089
O O8 0.143373 0.143373 0.070857
O O9 0.242223 0.051088 0.116993
O O10 0.918915 0.600966 0.387370
O O11 0.936061 0.717129 0.325994
O O12 0.000000 0.671165 0.500000
O O13 0.500000 0.000000 0.856434
O O14 0.641708 0.002497 0.810913
O O15 0.589929 0.000000 0.000000
#
# Coordination Sequence:
#
# PCOD9560489 Si02
#       6
#    16  16  16  16  16  16
#     4  10  21  40  62  84 116 155 200 251 304 361
#     4  10  22  40  59  83 116 160 205 249 298 348
#     4  10  23  40  62  89 114 153 206 254 305 358
#     4  12  24  38  56  85 124 159 209 245 288 357
#     4  11  24  39  54  82 122 164 203 243 293 353
#     4  12  25  37  63  88 124 156 202 250 307 358
#
# _framework density 18.725819999999999
#
# number of rings (size 3 to 8) (size 9 to 14) (size 15 to 20)
#    0.000    1.167    3.333    3.500    7.000    0.667 
#    0.000    0.000    0.000    0.500    0.000    2.333 
#    0.000    0.333    0.000    0.000    0.000    0.000 
#
# Total GULP energy -267339.320640 kJ/mol
# GULP energy per Si atom -5569.569180 kJ/mol
# Density = 1.868320 g / cm^3
# Si number density = 18.725820 Si / 1000 Ang^3
#
#
#
# Elastic Constant Matrix: (Units=GPa)
#
#
# Indices 1 2 3 4 5 6 
#
# 1 49.7472 25.7302 3.2958 0.0000 0.0000 0.0000
# 2 25.7302 49.7464 3.2961 0.0000 0.0000 0.0000
# 3 3.2958 3.2961 55.6547 0.0000 0.0000 0.0000
# 4 0.0000 0.0000 0.0000 45.5958 0.0000 0.0000
# 5 0.0000 0.0000 0.0000 0.0000 45.5917 0.0000
# 6 0.0000 0.0000 0.0000 0.0000 0.0000 -64.7360
#
#
#
# Elastic Compliance Matrix: (Units=1/GPa)
#
#
# Indices 1 2 3 4 5 6 
#
# 1 0.027478 -0.014160 -0.000789 0.000000 0.000000 0.000000
# 2 -0.014160 0.027478 -0.000789 0.000000 0.000000 0.000000
# 3 -0.000789 -0.000789 0.018061 0.000000 0.000000 0.000000
# 4 0.000000 0.000000 0.000000 0.021932 0.000000 0.000000
# 5 0.000000 0.000000 0.000000 0.000000 0.021934 0.000000
# 6 0.000000 0.000000 0.000000 0.000000 0.000000 -0.015447
#
#
# Mechanical properties :
#
#
# Convention : Reuss Voigt Hill
#
# Bulk Modulus (GPa) = 24.07178 24.42139 24.24659
# Shear Modulus (GPa) = 34.06974 13.47870 23.77422
#
# Velocity S-wave (km/s) = 4.27007 2.68581 3.56700
# Velocity P-wave (km/s) = 6.09870 4.76319 5.47184
#
# Compressibility (1/GPa) = 0.04154241
#
# Stress axis : x y z
#
# Youngs Moduli (GPa) = 36.39314 36.39253 55.36689
#
# Poissons Ratio (x) = 0.51532 0.04366
# Poissons Ratio (y) = 0.51533 0.04368
# Poissons Ratio (z) = 0.02870 0.02871
#
# Static dielectric constant tensor:
#      x y z
#    x 1.710310 0.000000 0.000000 
#    y 0.000000 1.710310 0.000000 
#    z 0.000000 0.000000 1.698000 
# 
# From -- ./inp_files/3292.got.cif
#   From: 2010.05.17/outbox.cif.g08.bks.cpg/sg121_2_cif.got.tgz:3292.got - 2010.05.20 11:32:06.
