data_PCOD9560190
_publ_section_title
;
Structure prediction by ZEFSAII (Michael W. Deem and Ramdas Pophale) SiO2 
 PCOD9560190
Probable space group: I -4 2 M
;
_chemical_formula_sum "Si O2"
_cell_formula_units_Z 96
_cell_length_a 18.002504
_cell_length_b 18.002504
_cell_length_c 11.957964
_cell_angle_alpha 90.000000
_cell_angle_beta 90.000000
_cell_angle_gamma 90.000000
_cell_volume 3875.458350
_symmetry_space_group_name_H-M "I -4 2 M"
_symmetry_group_IT_number 121
_symmetry_cell_setting 'tetragonal'
loop_
_space_group_symop_operation_xyz
x,y,z
y,-x,-z
-x,-y,z
-y,x,-z
x,-y,-z
-x,y,-z
-y,-x,z
y,x,z
1/2+x,1/2+y,1/2+z
1/2+y,1/2-x,1/2-z
1/2-x,1/2-y,1/2+z
1/2-y,1/2+x,1/2-z
1/2+x,1/2-y,1/2-z
1/2-x,1/2+y,1/2-z
1/2-y,1/2-x,1/2+z
1/2+y,1/2+x,1/2+z
loop_
_atom_site_type_symbol
_atom_site_label
_atom_site_fract_x
_atom_site_fract_y
_atom_site_fract_z
Si Si1 0.410823 0.816141 0.987307
Si Si2 0.178862 0.066257 0.658089
Si Si3 0.762301 0.644098 0.336534
Si Si4 0.706061 0.582635 0.552225
Si Si5 0.095095 0.573946 0.783543
Si Si6 0.778865 0.902278 0.310019
O O1 0.381670 0.789079 0.107951
O O2 0.500000 0.817380 0.000000
O O3 0.393447 0.743776 0.912165
O O4 0.401412 0.890299 0.912230
O O5 0.100495 0.100495 0.626456
O O6 0.198572 0.088820 0.784599
O O7 0.187559 0.979260 0.645721
O O8 0.725487 0.725487 0.308336
O O9 0.757815 0.630937 0.469229
O O10 0.833699 0.605787 0.280120
O O11 0.701520 0.500000 0.500000
O O12 0.626988 0.626988 0.555757
O O13 0.737957 0.585773 0.678782
O O14 0.097334 0.484288 0.766830
O O15 0.840419 0.840419 0.318524
#
# Coordination Sequence:
#
# PCOD9560190 Si02
#       6
#    16  16  16  16  16  16
#     4   9  19  37  62  87 135 174 233 290 373 455
#     4   9  16  29  53  88 131 182 237 297 368 445
#     4   9  18  36  65 102 143 190 244 302 378 458
#     4  10  19  32  54  94 143 192 256 318 382 451
#     4  10  22  44  77 110 143 186 251 321 386 462
#     4  10  19  30  53  94 142 194 248 309 378 454
#
# _framework density 24.771263000000001
#
# number of rings (size 3 to 8) (size 9 to 14) (size 15 to 20)
#    0.000    2.500    1.667    0.500    0.000    1.167 
#    0.000    5.000    0.000   17.000    0.000   11.667 
#    0.000    0.000    0.000    0.000    0.000    0.000 
#
# Total GULP energy -267930.073929 kJ/mol
# GULP energy per Si atom -5581.876540 kJ/mol
# Density = 2.471488 g / cm^3
# Si number density = 24.771263 Si / 1000 Ang^3
#
#
#
# Elastic Constant Matrix: (Units=GPa)
#
#
# Indices 1 2 3 4 5 6 
#
# 1 121.4992 70.4665 45.5601 0.0000 0.0000 0.0000
# 2 70.4665 121.4992 45.5601 0.0000 0.0000 0.0000
# 3 45.5601 45.5601 150.5277 0.0000 0.0000 0.0000
# 4 0.0000 0.0000 0.0000 35.1889 0.0000 0.0000
# 5 0.0000 0.0000 0.0000 0.0000 35.1889 0.0000
# 6 0.0000 0.0000 0.0000 0.0000 0.0000 21.1029
#
#
#
# Elastic Compliance Matrix: (Units=1/GPa)
#
#
# Indices 1 2 3 4 5 6 
#
# 1 0.012839 -0.006756 -0.001841 0.000000 0.000000 0.000000
# 2 -0.006756 0.012839 -0.001841 0.000000 0.000000 0.000000
# 3 -0.001841 -0.001841 0.007758 0.000000 0.000000 0.000000
# 4 0.000000 0.000000 0.000000 0.028418 0.000000 0.000000
# 5 0.000000 0.000000 0.000000 0.000000 0.028418 0.000000
# 6 0.000000 0.000000 0.000000 0.000000 0.000000 0.047387
#
#
# Mechanical properties :
#
#
# Convention : Reuss Voigt Hill
#
# Bulk Modulus (GPa) = 79.62115 79.63330 79.62722
# Shear Modulus (GPa) = 30.72713 33.75876 32.24294
#
# Velocity S-wave (km/s) = 3.52580 3.69564 3.61172
# Velocity P-wave (km/s) = 6.98479 7.10124 7.04326
#
# Compressibility (1/GPa) = 0.01255948
#
# Stress axis : x y z
#
# Youngs Moduli (GPa) = 77.88618 77.88618 128.90172
#
# Poissons Ratio (x) = 0.52620 0.23733
# Poissons Ratio (y) = 0.52620 0.23733
# Poissons Ratio (z) = 0.14340 0.14340
#
# Static dielectric constant tensor:
#      x y z
#    x 2.030550 0.000000 0.000000 
#    y 0.000000 2.030550 0.000000 
#    z 0.000000 0.000000 2.121370 
# 
# From -- ./inp_files/3300.got.cif
#   From: 2010.05.17/outbox.cif.g08.bks.cpg/sg121_2_cif.got.tgz:3300.got - 2010.05.20 11:32:06.
