data_PCOD9560659
_publ_section_title
;
Structure prediction by ZEFSAII (Michael W. Deem and Ramdas Pophale) SiO2 
 PCOD9560659
Probable space group: I -4 2 M
;
_chemical_formula_sum "Si O2"
_cell_formula_units_Z 60
_cell_length_a 17.424132
_cell_length_b 17.424132
_cell_length_c 9.158933
_cell_angle_alpha 90.000000
_cell_angle_beta 90.000000
_cell_angle_gamma 90.000000
_cell_volume 2780.655502
_symmetry_space_group_name_H-M "I -4 2 M"
_symmetry_group_IT_number 121
_symmetry_cell_setting 'tetragonal'
loop_
_space_group_symop_operation_xyz
x,y,z
y,-x,-z
-x,-y,z
-y,x,-z
x,-y,-z
-x,y,-z
-y,-x,z
y,x,z
1/2+x,1/2+y,1/2+z
1/2+y,1/2-x,1/2-z
1/2-x,1/2-y,1/2+z
1/2-y,1/2+x,1/2-z
1/2+x,1/2-y,1/2-z
1/2-x,1/2+y,1/2-z
1/2-y,1/2-x,1/2+z
1/2+y,1/2+x,1/2+z
loop_
_atom_site_type_symbol
_atom_site_label
_atom_site_fract_x
_atom_site_fract_y
_atom_site_fract_z
Si Si1 0.500000 0.000000 0.250000
Si Si2 0.587599 0.796787 0.472932
Si Si3 0.786328 0.786328 0.802319
Si Si4 0.329543 0.670458 0.032972
Si Si5 0.636738 0.086490 0.319099
Si Si6 0.736386 0.500000 0.000000
O O1 0.557040 0.047422 0.351133
O O2 0.500000 0.775796 0.500000
O O3 0.635155 0.735610 0.382939
O O4 0.632512 0.829081 0.612194
O O5 0.591366 0.864738 0.354872
O O6 0.802882 0.802882 0.631322
O O7 0.722310 0.722310 0.854339
O O8 0.421766 0.689753 0.045818
O O9 0.706314 0.034228 0.375935
#
# Coordination Sequence:
#
# PCOD9560659 Si02
#       6
#     4  16   8   8  16   8
#     4  12  24  38  60 106 152 186 212 294 384 454
#     4  12  25  42  69 104 143 194 240 303 367 450
#     4  12  24  50  72 107 147 201 245 307 373 448
#     4  12  28  47  82 103 155 194 259 307 379 446
#     4  12  25  40  67 103 148 185 237 293 377 445
#     4  12  26  46  70 108 138 198 250 310 359 445
#
# _framework density 21.577645
#
# number of rings (size 3 to 8) (size 9 to 14) (size 15 to 20)
#    0.000    0.000    8.000    1.600    0.000    3.467 
#    0.000    0.000    0.000    0.400    0.000    0.000 
#    0.000    0.000    0.000    0.000    0.000    0.000 
#
# Total GULP energy -167386.642552 kJ/mol
# GULP energy per Si atom -5579.554752 kJ/mol
# Density = 2.152853 g / cm^3
# Si number density = 21.577645 Si / 1000 Ang^3
#
#
#
# Elastic Constant Matrix: (Units=GPa)
#
#
# Indices 1 2 3 4 5 6 
#
# 1 112.1948 45.5207 22.9773 0.0000 0.0000 0.0000
# 2 45.5207 112.1932 22.9773 0.0000 0.0000 0.0000
# 3 22.9773 22.9773 72.4124 0.0000 0.0000 0.0000
# 4 0.0000 0.0000 0.0000 31.8330 0.0000 0.0000
# 5 0.0000 0.0000 0.0000 0.0000 31.8330 0.0000
# 6 0.0000 0.0000 0.0000 0.0000 0.0000 34.4806
#
#
#
# Elastic Compliance Matrix: (Units=1/GPa)
#
#
# Indices 1 2 3 4 5 6 
#
# 1 0.010992 -0.004006 -0.002217 0.000000 0.000000 0.000000
# 2 -0.004006 0.010993 -0.002217 0.000000 0.000000 0.000000
# 3 -0.002217 -0.002217 0.015217 0.000000 0.000000 0.000000
# 4 0.000000 0.000000 0.000000 0.031414 0.000000 0.000000
# 5 0.000000 0.000000 0.000000 0.000000 0.031414 0.000000
# 6 0.000000 0.000000 0.000000 0.000000 0.000000 0.029002
#
#
# Mechanical properties :
#
#
# Convention : Reuss Voigt Hill
#
# Bulk Modulus (GPa) = 49.20750 53.30568 51.25659
# Shear Modulus (GPa) = 32.74714 33.31765 33.03240
#
# Velocity S-wave (km/s) = 3.89992 3.93374 3.91687
# Velocity P-wave (km/s) = 6.56761 6.73723 6.65296
#
# Compressibility (1/GPa) = 0.02032210
#
# Stress axis : x y z
#
# Youngs Moduli (GPa) = 90.97166 90.97032 65.71735
#
# Poissons Ratio (x) = 0.36443 0.14569
# Poissons Ratio (y) = 0.36443 0.14569
# Poissons Ratio (z) = 0.20167 0.20167
#
# Static dielectric constant tensor:
#      x y z
#    x 1.902860 0.000000 0.000000 
#    y 0.000000 1.902860 0.000000 
#    z 0.000000 0.000000 1.785240 
# 
# From -- ./inp_files/1421.got.cif
#   From: 2010.05.17/outbox.cif.g08.bks.cpg/sg121_1_cif.got.tgz:1421.got - 2010.05.20 11:32:06.
