data_PCOD9560634
_publ_section_title
;
Structure prediction by ZEFSAII (Michael W. Deem and Ramdas Pophale) SiO2 
 PCOD9560634
Probable space group: I -4 2 M
;
_chemical_formula_sum "Si O2"
_cell_formula_units_Z 80
_cell_length_a 11.583890
_cell_length_b 11.583890
_cell_length_c 30.041274
_cell_angle_alpha 90.000000
_cell_angle_beta 90.000000
_cell_angle_gamma 90.000000
_cell_volume 4031.133640
_symmetry_space_group_name_H-M "I -4 2 M"
_symmetry_group_IT_number 121
_symmetry_cell_setting 'tetragonal'
loop_
_space_group_symop_operation_xyz
x,y,z
y,-x,-z
-x,-y,z
-y,x,-z
x,-y,-z
-x,y,-z
-y,-x,z
y,x,z
1/2+x,1/2+y,1/2+z
1/2+y,1/2-x,1/2-z
1/2-x,1/2-y,1/2+z
1/2-y,1/2+x,1/2-z
1/2+x,1/2-y,1/2-z
1/2-x,1/2+y,1/2-z
1/2-y,1/2-x,1/2+z
1/2+y,1/2+x,1/2+z
loop_
_atom_site_type_symbol
_atom_site_label
_atom_site_fract_x
_atom_site_fract_y
_atom_site_fract_z
Si Si1 0.974541 0.635611 0.869304
Si Si2 0.220751 0.587883 0.535535
Si Si3 0.714094 0.714094 0.852410
Si Si4 0.271259 0.000000 0.500000
Si Si5 0.173751 0.473277 0.728308
Si Si6 0.411947 0.588054 0.069256
Si Si7 0.407054 0.407054 0.769983
O O1 0.979834 0.687831 0.919109
O O2 0.847713 0.678654 0.853968
O O3 0.000000 0.500000 0.875372
O O4 0.047358 0.664643 0.824790
O O5 0.272281 0.500000 0.500000
O O6 0.310812 0.689189 0.546066
O O7 0.109660 0.646633 0.510664
O O8 0.659437 0.659437 0.896106
O O9 0.654127 0.654127 0.811032
O O10 0.179555 0.986898 0.540472
O O11 0.118943 0.594650 0.744888
O O12 0.305710 0.465840 0.741900
O O13 0.500000 0.500000 0.091232
O O14 0.500000 0.500000 0.784427
#
# Coordination Sequence:
#
# PCOD9560634 Si02
#       7
#    16  16   8   8  16   8   8
#     4  12  22  43  73  99 129 186 231 280 349 415
#     4  12  26  44  69  96 132 178 228 283 336 402
#     4  12  23  42  66  95 143 172 228 288 342 424
#     4  12  18  40  62  96 126 165 219 270 336 398
#     4  11  23  46  73  98 136 179 225 279 346 414
#     4  12  21  34  62  93 137 174 207 276 349 408
#     4  12  27  40  68 104 137 179 224 291 347 408
#
# _framework density 19.845533
#
# number of rings (size 3 to 8) (size 9 to 14) (size 15 to 20)
#    0.000    0.200    9.000    1.800    2.800    0.200 
#    1.800    0.000    0.000    0.000    0.000    0.000 
#    0.000    0.000    0.000    0.000    0.000    0.000 
#
# Total GULP energy -222972.627095 kJ/mol
# GULP energy per Si atom -5574.315677 kJ/mol
# Density = 1.980036 g / cm^3
# Si number density = 19.845533 Si / 1000 Ang^3
#
#
#
# Elastic Constant Matrix: (Units=GPa)
#
#
# Indices 1 2 3 4 5 6 
#
# 1 43.9244 5.9607 5.1387 0.0000 0.0000 0.0000
# 2 5.9607 43.9230 5.1383 0.0000 0.0000 0.0000
# 3 5.1387 5.1383 139.1736 0.0000 0.0000 0.0000
# 4 0.0000 0.0000 0.0000 20.7294 0.0000 0.0000
# 5 0.0000 0.0000 0.0000 0.0000 20.7298 0.0000
# 6 0.0000 0.0000 0.0000 0.0000 0.0000 23.6856
#
#
#
# Elastic Compliance Matrix: (Units=1/GPa)
#
#
# Indices 1 2 3 4 5 6 
#
# 1 0.023270 -0.003071 -0.000746 0.000000 0.000000 0.000000
# 2 -0.003071 0.023271 -0.000746 0.000000 0.000000 0.000000
# 3 -0.000746 -0.000746 0.007240 0.000000 0.000000 0.000000
# 4 0.000000 0.000000 0.000000 0.048241 0.000000 0.000000
# 5 0.000000 0.000000 0.000000 0.000000 0.048240 0.000000
# 6 0.000000 0.000000 0.000000 0.000000 0.000000 0.042220
#
#
# Mechanical properties :
#
#
# Convention : Reuss Voigt Hill
#
# Bulk Modulus (GPa) = 22.39285 28.83292 25.61288
# Shear Modulus (GPa) = 23.09552 27.08119 25.08836
#
# Velocity S-wave (km/s) = 3.41510 3.69806 3.55939
# Velocity P-wave (km/s) = 5.18253 5.72664 5.46136
#
# Compressibility (1/GPa) = 0.04465712
#
# Stress axis : x y z
#
# Youngs Moduli (GPa) = 42.97312 42.97175 138.11500
#
# Poissons Ratio (x) = 0.13195 0.10301
# Poissons Ratio (y) = 0.13196 0.10300
# Poissons Ratio (z) = 0.03205 0.03205
#
# Static dielectric constant tensor:
#      x y z
#    x 1.684370 0.000000 0.000000 
#    y 0.000000 1.684370 0.000000 
#    z 0.000000 0.000000 1.715560 
# 
# From -- ./inp_files/8131.got.cif
#   From: 2010.05.17/outbox.cif.g08.bks.cpg/sg121_5_cif.got.tgz:8131.got - 2010.05.20 11:32:06.
