data_PCOD9560998
_publ_section_title
;
Structure prediction by ZEFSAII (Michael W. Deem and Ramdas Pophale) SiO2 
 PCOD9560998
Probable space group: I -4 2 D
;
_chemical_formula_sum "Si O2"
_cell_formula_units_Z 36
_cell_length_a 9.762022
_cell_length_b 9.762022
_cell_length_c 13.421807
_cell_angle_alpha 90.000000
_cell_angle_beta 90.000000
_cell_angle_gamma 90.000000
_cell_volume 1279.058929
_symmetry_space_group_name_H-M "I -4 2 D"
_symmetry_group_IT_number 122
_symmetry_cell_setting 'tetragonal'
loop_
_space_group_symop_operation_xyz
x,y,z
y,-x,-z
-x,-y,z
-y,x,-z
x,1/2-y,1/4-z
-x,1/2+y,1/4-z
-y,1/2-x,1/4+z
y,1/2+x,1/4+z
1/2+x,1/2+y,1/2+z
1/2+y,1/2-x,1/2-z
1/2-x,1/2-y,1/2+z
1/2-y,1/2+x,1/2-z
1/2+x,-y,3/4-z
1/2-x,y,3/4-z
1/2-y,-x,3/4+z
1/2+y,x,3/4+z
loop_
_atom_site_type_symbol
_atom_site_label
_atom_site_fract_x
_atom_site_fract_y
_atom_site_fract_z
Si Si1 0.454891 0.796095 0.443271
Si Si2 0.253362 0.146427 0.490630
Si Si3 0.500000 0.000000 0.750000
O O1 0.304404 0.795522 0.492584
O O2 0.580109 0.861178 0.503915
O O3 0.435666 0.827495 0.326046
O O4 0.501678 0.638750 0.439808
O O5 0.250000 0.107351 0.375000
#
# Coordination Sequence:
#
# PCOD9560998 Si02
#       3
#    16  16   4
#     4   9  20  35  60  85 110 152 194 241 294 348
#     4  10  21  38  59  86 116 151 195 245 296 363
#     4   8  16  32  60  80 106 140 196 240 272 356
#
# _framework density 28.145693999999999
#
# number of rings (size 3 to 8) (size 9 to 14) (size 15 to 20)
#    0.000    2.667    0.000    0.000   18.667    0.000 
#    8.000    0.000    0.000    0.000    0.000    0.000 
#    0.000    0.000    0.000    0.000    0.000    0.000 
#
# Total GULP energy -100621.146084 kJ/mol
# GULP energy per Si atom -5590.063671 kJ/mol
# Density = 2.808163 g / cm^3
# Si number density = 28.145694 Si / 1000 Ang^3
#
#
#
# Elastic Constant Matrix: (Units=GPa)
#
#
# Indices 1 2 3 4 5 6 
#
# 1 76.2057 10.8770 22.9999 0.0000 0.0000 0.0000
# 2 10.8770 76.2057 22.9999 0.0000 0.0000 0.0000
# 3 22.9999 22.9999 173.7144 0.0000 0.0000 0.0000
# 4 0.0000 0.0000 0.0000 39.7698 0.0000 0.0000
# 5 0.0000 0.0000 0.0000 0.0000 39.7698 0.0000
# 6 0.0000 0.0000 0.0000 0.0000 0.0000 30.8853
#
#
#
# Elastic Compliance Matrix: (Units=1/GPa)
#
#
# Indices 1 2 3 4 5 6 
#
# 1 0.013827 -0.001480 -0.001635 0.000000 0.000000 0.000000
# 2 -0.001480 0.013827 -0.001635 0.000000 0.000000 0.000000
# 3 -0.001635 -0.001635 0.006189 0.000000 0.000000 0.000000
# 4 0.000000 0.000000 0.000000 0.025145 0.000000 0.000000
# 5 0.000000 0.000000 0.000000 0.000000 0.025145 0.000000
# 6 0.000000 0.000000 0.000000 0.000000 0.000000 0.032378
#
#
# Mechanical properties :
#
#
# Convention : Reuss Voigt Hill
#
# Bulk Modulus (GPa) = 41.07749 48.87549 44.97649
# Shear Modulus (GPa) = 37.27871 40.03492 38.65681
#
# Velocity S-wave (km/s) = 3.64330 3.77559 3.71003
# Velocity P-wave (km/s) = 5.68546 6.03404 5.86234
#
# Compressibility (1/GPa) = 0.02434423
#
# Stress axis : x y z
#
# Youngs Moduli (GPa) = 72.32215 72.32216 161.56510
#
# Poissons Ratio (x) = 0.10705 0.26412
# Poissons Ratio (y) = 0.10705 0.26412
# Poissons Ratio (z) = 0.11823 0.11823
#
# Static dielectric constant tensor:
#      x y z
#    x 2.245000 0.000000 0.000000 
#    y 0.000000 2.245000 0.000000 
#    z 0.000000 0.000000 2.117640 
# 
# From -- ./inp_files/1779.got.cif
#   From: 2010.05.17/outbox.cif.g08.bks.cpg/sg122_1_cif.got.tgz:1779.got - 2010.05.20 11:37:33.
