data_PCOD9560987
_publ_section_title
;
Structure prediction by ZEFSAII (Michael W. Deem and Ramdas Pophale) SiO2 
 PCOD9560987
Probable space group: I -4 2 D
;
_chemical_formula_sum "Si O2"
_cell_formula_units_Z 120
_cell_length_a 20.316048
_cell_length_b 20.316048
_cell_length_c 14.161584
_cell_angle_alpha 90.000000
_cell_angle_beta 90.000000
_cell_angle_gamma 90.000000
_cell_volume 5845.077761
_symmetry_space_group_name_H-M "I -4 2 D"
_symmetry_group_IT_number 122
_symmetry_cell_setting 'tetragonal'
loop_
_space_group_symop_operation_xyz
x,y,z
y,-x,-z
-x,-y,z
-y,x,-z
x,1/2-y,1/4-z
-x,1/2+y,1/4-z
-y,1/2-x,1/4+z
y,1/2+x,1/4+z
1/2+x,1/2+y,1/2+z
1/2+y,1/2-x,1/2-z
1/2-x,1/2-y,1/2+z
1/2-y,1/2+x,1/2-z
1/2+x,-y,3/4-z
1/2-x,y,3/4-z
1/2-y,-x,3/4+z
1/2+y,x,3/4+z
loop_
_atom_site_type_symbol
_atom_site_label
_atom_site_fract_x
_atom_site_fract_y
_atom_site_fract_z
Si Si1 0.620612 0.659001 0.322306
Si Si2 0.238628 0.766269 0.519109
Si Si3 0.669514 0.350921 0.463915
Si Si4 0.250000 0.966337 0.875000
Si Si5 0.606859 0.250755 0.921221
Si Si6 0.902289 0.025142 0.544438
Si Si7 0.523144 0.744267 0.016936
Si Si8 0.152805 0.032818 0.721988
O O1 0.680428 0.703148 0.279112
O O2 0.638711 0.642821 0.430380
O O3 0.558704 0.705740 0.304466
O O4 0.611288 0.590536 0.269686
O O5 0.215782 0.750000 0.625000
O O6 0.270864 0.700294 0.478645
O O7 0.175269 0.781686 0.456936
O O8 0.699475 0.419052 0.429761
O O9 0.622699 0.315529 0.387838
O O10 0.203537 0.004069 0.799824
O O11 0.569540 0.300493 0.852722
O O12 0.554691 0.242065 0.005288
O O13 0.893440 0.014097 0.657502
O O14 0.923832 0.957003 0.492133
O O15 0.829389 0.042526 0.511906
O O16 0.543996 0.750000 0.125000
#
# Coordination Sequence:
#
# PCOD9560987 Si02
#       8
#    16  16  16   8  16  16  16  16
#     4  11  24  39  63  96 131 173 222 274 352 411
#     4  10  21  36  63  95 129 167 209 281 341 401
#     4  11  21  39  63  95 129 168 217 276 335 408
#     4  12  24  42  62 100 132 174 224 270 350 420
#     4  11  21  39  59  95 128 168 210 271 342 395
#     4  10  23  44  65  89 128 180 229 277 338 415
#     4  11  25  38  61  96 130 169 219 283 339 412
#     4  11  24  40  66  91 132 178 216 274 344 421
#
# _framework density 20.530093999999998
#
# number of rings (size 3 to 8) (size 9 to 14) (size 15 to 20)
#    0.000    1.200    2.667    3.600    6.533    1.067 
#    0.000    0.000    0.000    0.000    0.000    1.867 
#    0.000    0.000    0.000    0.000    0.000    0.000 
#
# Total GULP energy -334972.552378 kJ/mol
# GULP energy per Si atom -5582.875873 kJ/mol
# Density = 2.048337 g / cm^3
# Si number density = 20.530094 Si / 1000 Ang^3
#
#
#
# Elastic Constant Matrix: (Units=GPa)
#
#
# Indices 1 2 3 4 5 6 
#
# 1 46.4336 -3.0347 12.4867 0.0000 0.0000 0.0000
# 2 -3.0347 46.4336 12.4867 0.0000 0.0000 0.0000
# 3 12.4867 12.4867 92.5961 0.0000 0.0000 0.0000
# 4 0.0000 0.0000 0.0000 34.3515 0.0000 0.0000
# 5 0.0000 0.0000 0.0000 0.0000 34.3515 0.0000
# 6 0.0000 0.0000 0.0000 0.0000 0.0000 25.8390
#
#
#
# Elastic Compliance Matrix: (Units=1/GPa)
#
#
# Indices 1 2 3 4 5 6 
#
# 1 0.022598 0.002383 -0.003369 0.000000 0.000000 0.000000
# 2 0.002383 0.022598 -0.003369 0.000000 0.000000 0.000000
# 3 -0.003369 -0.003369 0.011708 0.000000 0.000000 0.000000
# 4 0.000000 0.000000 0.000000 0.029111 0.000000 0.000000
# 5 0.000000 0.000000 0.000000 0.000000 0.029111 0.000000
# 6 0.000000 0.000000 0.000000 0.000000 0.000000 0.038701
#
#
# Mechanical properties :
#
#
# Convention : Reuss Voigt Hill
#
# Bulk Modulus (GPa) = 20.74920 25.48226 23.11573
# Shear Modulus (GPa) = 27.99546 29.81003 28.90275
#
# Velocity S-wave (km/s) = 3.69674 3.81467 3.75617
# Velocity P-wave (km/s) = 5.32446 5.64281 5.48595
#
# Compressibility (1/GPa) = 0.04819464
#
# Stress axis : x y z
#
# Youngs Moduli (GPa) = 44.25217 44.25217 85.41080
#
# Poissons Ratio (x) = -0.10544 0.28772
# Poissons Ratio (y) = -0.10544 0.28772
# Poissons Ratio (z) = 0.14907 0.14907
#
# Static dielectric constant tensor:
#      x y z
#    x 1.742900 0.000000 0.000000 
#    y 0.000000 1.742900 0.000000 
#    z 0.000000 0.000000 1.835540 
# 
# From -- ./inp_files/5590.got.cif
#   From: 2010.05.17/outbox.cif.g08.bks.cpg/sg122_3_cif.got.tgz:5590.got - 2010.05.20 11:37:33.
