data_PCOD9560221
_publ_section_title
;
Structure prediction by ZEFSAII (Michael W. Deem and Ramdas Pophale) SiO2 
 PCOD9560221
Probable space group: I -4 2 M
;
_chemical_formula_sum "Si O2"
_cell_formula_units_Z 120
_cell_length_a 27.543312
_cell_length_b 27.543312
_cell_length_c 7.615358
_cell_angle_alpha 90.000000
_cell_angle_beta 90.000000
_cell_angle_gamma 90.000000
_cell_volume 5777.269775
_symmetry_space_group_name_H-M "I -4 2 M"
_symmetry_group_IT_number 121
_symmetry_cell_setting 'tetragonal'
loop_
_space_group_symop_operation_xyz
x,y,z
y,-x,-z
-x,-y,z
-y,x,-z
x,-y,-z
-x,y,-z
-y,-x,z
y,x,z
1/2+x,1/2+y,1/2+z
1/2+y,1/2-x,1/2-z
1/2-x,1/2-y,1/2+z
1/2-y,1/2+x,1/2-z
1/2+x,1/2-y,1/2-z
1/2-x,1/2+y,1/2-z
1/2-y,1/2-x,1/2+z
1/2+y,1/2+x,1/2+z
loop_
_atom_site_type_symbol
_atom_site_label
_atom_site_fract_x
_atom_site_fract_y
_atom_site_fract_z
Si Si1 0.125305 0.277398 0.258413
Si Si2 0.199604 0.000000 0.000000
Si Si3 0.245981 0.461592 0.154097
Si Si4 0.868275 0.563613 0.681335
Si Si5 0.178135 0.100806 0.097187
Si Si6 0.281168 0.200707 0.949835
Si Si7 0.953820 0.636906 0.768295
Si Si8 0.860143 0.214913 0.283716
O O1 0.103017 0.225132 0.221098
O O2 0.156791 0.288315 0.083227
O O3 0.086989 0.320968 0.274461
O O4 0.167388 0.276158 0.403071
O O5 0.233382 0.017688 0.838710
O O6 0.167433 0.044778 0.064618
O O7 0.189183 0.450976 0.179063
O O8 0.270712 0.409540 0.121821
O O9 0.254145 0.500000 0.000000
O O10 0.913932 0.599320 0.699479
O O11 0.879743 0.509758 0.752117
O O12 0.856345 0.556964 0.475612
O O13 0.134607 0.134607 0.160564
O O14 0.195121 0.122093 0.908165
O O15 0.239976 0.239976 0.004264
O O16 0.258934 0.175006 0.775154
O O17 0.827017 0.172984 0.366877
#
# Coordination Sequence:
#
# PCOD9560221 Si02
#       8
#    16   8  16  16  16  16  16  16
#     4  11  19  33  55  80 113 149 191 234 298 363
#     4  10  20  40  60  85 126 159 200 254 300 368
#     4  11  22  38  63  91 120 160 204 254 309 376
#     4  11  24  42  64  86 113 152 196 264 319 382
#     4   9  17  32  57  82 112 158 198 238 297 362
#     4  10  19  32  51  79 117 154 187 232 292 368
#     4  11  25  43  62  87 114 147 205 256 324 378
#     4   8  16  33  54  78 114 156 194 235 295 365
#
# _framework density 20.771056000000002
#
# number of rings (size 3 to 8) (size 9 to 14) (size 15 to 20)
#    0.000    1.867    0.000    7.600    1.867    0.267 
#    7.200    2.000    0.000    0.200    0.000    0.000 
#    0.000    1.333    0.000    0.133    0.000    0.000 
#
# Total GULP energy -335731.256395 kJ/mol
# GULP energy per Si atom -5595.520940 kJ/mol
# Density = 2.072378 g / cm^3
# Si number density = 20.771056 Si / 1000 Ang^3
#
#
#
# Elastic Constant Matrix: (Units=GPa)
#
#
# Indices 1 2 3 4 5 6 
#
# 1 125.7068 71.5139 24.9432 0.0000 0.0000 0.0000
# 2 71.5139 125.7055 24.9436 0.0000 0.0000 0.0000
# 3 24.9432 24.9436 70.2769 0.0000 0.0000 0.0000
# 4 0.0000 0.0000 0.0000 27.4035 0.0000 0.0000
# 5 0.0000 0.0000 0.0000 0.0000 27.4032 0.0000
# 6 0.0000 0.0000 0.0000 0.0000 0.0000 27.3997
#
#
#
# Elastic Compliance Matrix: (Units=1/GPa)
#
#
# Indices 1 2 3 4 5 6 
#
# 1 0.012012 -0.006441 -0.001977 0.000000 0.000000 0.000000
# 2 -0.006441 0.012012 -0.001977 0.000000 0.000000 0.000000
# 3 -0.001977 -0.001977 0.015633 0.000000 0.000000 0.000000
# 4 0.000000 0.000000 0.000000 0.036492 0.000000 0.000000
# 5 0.000000 0.000000 0.000000 0.000000 0.036492 0.000000
# 6 0.000000 0.000000 0.000000 0.000000 0.000000 0.036497
#
#
# Mechanical properties :
#
#
# Convention : Reuss Voigt Hill
#
# Bulk Modulus (GPa) = 53.00696 62.72118 57.86407
# Shear Modulus (GPa) = 28.37421 29.79384 29.08403
#
# Velocity S-wave (km/s) = 3.70002 3.79145 3.74601
# Velocity P-wave (km/s) = 6.62031 7.03056 6.82852
#
# Compressibility (1/GPa) = 0.01886545
#
# Stress axis : x y z
#
# Youngs Moduli (GPa) = 83.25255 83.25144 63.96750
#
# Poissons Ratio (x) = 0.53623 0.12647
# Poissons Ratio (y) = 0.53624 0.12648
# Poissons Ratio (z) = 0.16460 0.16461
#
# Static dielectric constant tensor:
#      x y z
#    x 1.723760 0.000000 0.000000 
#    y 0.000000 1.723760 0.000000 
#    z 0.000000 0.000000 1.860280 
# 
# From -- ./inp_files/2160.got.cif
#   From: 2010.05.17/outbox.cif.g08.bks.cpg/sg121_2_cif.got.tgz:2160.got - 2010.05.20 11:32:06.
