data_PCOD9560948
_publ_section_title
;
Structure prediction by ZEFSAII (Michael W. Deem and Ramdas Pophale) SiO2 
 PCOD9560948
Probable space group: I -4 2 D
;
_chemical_formula_sum "Si O2"
_cell_formula_units_Z 56
_cell_length_a 10.734849
_cell_length_b 10.734849
_cell_length_c 24.533573
_cell_angle_alpha 90.000000
_cell_angle_beta 90.000000
_cell_angle_gamma 90.000000
_cell_volume 2827.174936
_symmetry_space_group_name_H-M "I -4 2 D"
_symmetry_group_IT_number 122
_symmetry_cell_setting 'tetragonal'
loop_
_space_group_symop_operation_xyz
x,y,z
y,-x,-z
-x,-y,z
-y,x,-z
x,1/2-y,1/4-z
-x,1/2+y,1/4-z
-y,1/2-x,1/4+z
y,1/2+x,1/4+z
1/2+x,1/2+y,1/2+z
1/2+y,1/2-x,1/2-z
1/2-x,1/2-y,1/2+z
1/2-y,1/2+x,1/2-z
1/2+x,-y,3/4-z
1/2-x,y,3/4-z
1/2-y,-x,3/4+z
1/2+y,x,3/4+z
loop_
_atom_site_type_symbol
_atom_site_label
_atom_site_fract_x
_atom_site_fract_y
_atom_site_fract_z
Si Si1 0.842193 0.634651 0.158926
Si Si2 0.500000 0.000000 0.750000
Si Si3 0.500000 0.500000 0.000000
Si Si4 0.172781 0.209871 0.523309
Si Si5 0.353354 0.498257 0.699802
O O1 0.902382 0.750000 0.125000
O O2 0.921854 0.589108 0.209926
O O3 0.712901 0.690215 0.181633
O O4 0.828146 0.527556 0.113965
O O5 0.608611 0.435598 0.964770
O O6 0.293150 0.120549 0.518696
O O7 0.120708 0.284758 0.471830
O O8 0.500000 0.500000 0.708611
#
# Coordination Sequence:
#
# PCOD9560948 Si02
#       5
#    16   4   4  16  16
#     4  10  23  39  62  95 128 169 214 263 323 392
#     4  12  24  36  64  92 134 168 208 264 328 390
#     4   8  16  40  68  92 122 172 216 272 316 372
#     4   9  20  37  70  91 129 176 212 266 329 379
#     4  10  20  41  67  92 132 171 213 272 322 387
#
# _framework density 19.807759000000001
#
# number of rings (size 3 to 8) (size 9 to 14) (size 15 to 20)
#    0.000    2.286    1.429    0.000    8.000    0.000 
#    0.000    0.000   69.143    0.000    0.000    0.000 
#    0.000    0.000    0.000    0.000    0.000    0.000 
#
# Total GULP energy -155874.454342 kJ/mol
# GULP energy per Si atom -5566.944798 kJ/mol
# Density = 1.976268 g / cm^3
# Si number density = 19.807759 Si / 1000 Ang^3
#
#
#
# Elastic Constant Matrix: (Units=GPa)
#
#
# Indices 1 2 3 4 5 6 
#
# 1 87.4371 62.6622 70.6618 0.0000 0.0000 0.0000
# 2 62.6622 87.4371 70.6618 0.0000 0.0000 0.0000
# 3 70.6618 70.6618 139.8775 0.0000 0.0000 0.0000
# 4 0.0000 0.0000 0.0000 25.7115 0.0000 0.0000
# 5 0.0000 0.0000 0.0000 0.0000 25.7115 0.0000
# 6 0.0000 0.0000 0.0000 0.0000 0.0000 23.5358
#
#
#
# Elastic Compliance Matrix: (Units=1/GPa)
#
#
# Indices 1 2 3 4 5 6 
#
# 1 0.026534 -0.013829 -0.006418 0.000000 0.000000 0.000000
# 2 -0.013829 0.026534 -0.006418 0.000000 0.000000 0.000000
# 3 -0.006418 -0.006418 0.013634 0.000000 0.000000 0.000000
# 4 0.000000 0.000000 0.000000 0.038893 0.000000 0.000000
# 5 0.000000 0.000000 0.000000 0.000000 0.038893 0.000000
# 6 0.000000 0.000000 0.000000 0.000000 0.000000 0.042488
#
#
# Mechanical properties :
#
#
# Convention : Reuss Voigt Hill
#
# Bulk Modulus (GPa) = 74.78805 80.30257 77.54531
# Shear Modulus (GPa) = 20.42769 22.37616 21.40192
#
# Velocity S-wave (km/s) = 3.21487 3.36470 3.29063
# Velocity P-wave (km/s) = 7.18466 7.46484 7.32609
#
# Compressibility (1/GPa) = 0.01337112
#
# Stress axis : x y z
#
# Youngs Moduli (GPa) = 37.68691 37.68691 73.34703
#
# Poissons Ratio (x) = 0.52117 0.47077
# Poissons Ratio (y) = 0.52117 0.47077
# Poissons Ratio (z) = 0.24189 0.24189
#
# Static dielectric constant tensor:
#      x y z
#    x 1.748250 0.000000 0.000000 
#    y 0.000000 1.748250 0.000000 
#    z 0.000000 0.000000 1.696600 
# 
# From -- ./inp_files/7784.got.cif
#   From: 2010.05.17/outbox.cif.g08.bks.cpg/sg122_4_cif.got.tgz:7784.got - 2010.05.20 11:37:33.
