data_PCOD9560629
_publ_section_title
;
Structure prediction by ZEFSAII (Michael W. Deem and Ramdas Pophale) SiO2 
 PCOD9560629
Probable space group: I -4 2 M
;
_chemical_formula_sum "Si O2"
_cell_formula_units_Z 64
_cell_length_a 11.798604
_cell_length_b 11.798604
_cell_length_c 18.620607
_cell_angle_alpha 90.000000
_cell_angle_beta 90.000000
_cell_angle_gamma 90.000000
_cell_volume 2592.119888
_symmetry_space_group_name_H-M "I -4 2 M"
_symmetry_group_IT_number 121
_symmetry_cell_setting 'tetragonal'
loop_
_space_group_symop_operation_xyz
x,y,z
y,-x,-z
-x,-y,z
-y,x,-z
x,-y,-z
-x,y,-z
-y,-x,z
y,x,z
1/2+x,1/2+y,1/2+z
1/2+y,1/2-x,1/2-z
1/2-x,1/2-y,1/2+z
1/2-y,1/2+x,1/2-z
1/2+x,1/2-y,1/2-z
1/2-x,1/2+y,1/2-z
1/2-y,1/2-x,1/2+z
1/2+y,1/2+x,1/2+z
loop_
_atom_site_type_symbol
_atom_site_label
_atom_site_fract_x
_atom_site_fract_y
_atom_site_fract_z
Si Si1 0.375872 0.856719 0.020575
Si Si2 0.824577 0.999911 0.617689
Si Si3 0.231859 0.054701 0.095747
Si Si4 0.004362 0.317137 0.751578
O O1 0.419688 0.750696 0.066619
O O2 0.285103 0.936498 0.063399
O O3 0.500000 0.900012 0.000000
O O4 0.315304 0.854451 0.942917
O O5 0.901272 0.901272 0.581855
O O6 0.752841 0.953491 0.683860
O O7 0.913999 0.086002 0.652355
O O8 0.106166 0.106166 0.080614
O O9 0.247748 0.039976 0.180438
O O10 0.902100 0.396686 0.723974
#
# Coordination Sequence:
#
# PCOD9560629 Si02
#       4
#    16  16  16  16
#     4  11  24  45  71 105 149 197 249 311 375 449
#     4  11  25  46  74 110 150 196 252 312 380 455
#     4  11  23  42  72 105 144 194 247 304 374 452
#     4  11  23  41  69 104 146 194 244 300 367 451
#
# _framework density 24.690218000000002
#
# number of rings (size 3 to 8) (size 9 to 14) (size 15 to 20)
#    0.000    1.000    2.500    4.500    3.500    6.000 
#    0.000    2.500    0.000   18.750    0.000    0.000 
#    0.000    0.000    0.000    0.000    0.000    0.000 
#
# Total GULP energy -178144.341117 kJ/mol
# GULP energy per Si atom -5567.010660 kJ/mol
# Density = 2.463402 g / cm^3
# Si number density = 24.690218 Si / 1000 Ang^3
#
#
#
# Elastic Constant Matrix: (Units=GPa)
#
#
# Indices 1 2 3 4 5 6 
#
# 1 109.4653 69.3745 39.6905 0.0000 0.0000 0.0000
# 2 69.3745 109.4650 39.6907 0.0000 0.0000 0.0000
# 3 39.6905 39.6907 132.6849 0.0000 0.0000 0.0000
# 4 0.0000 0.0000 0.0000 7.9486 0.0000 0.0000
# 5 0.0000 0.0000 0.0000 0.0000 7.9484 0.0000
# 6 0.0000 0.0000 0.0000 0.0000 0.0000 56.0438
#
#
#
# Elastic Compliance Matrix: (Units=1/GPa)
#
#
# Indices 1 2 3 4 5 6 
#
# 1 0.015696 -0.009248 -0.001929 0.000000 0.000000 0.000000
# 2 -0.009248 0.015696 -0.001929 0.000000 0.000000 0.000000
# 3 -0.001929 -0.001929 0.008691 0.000000 0.000000 0.000000
# 4 0.000000 0.000000 0.000000 0.125808 0.000000 0.000000
# 5 0.000000 0.000000 0.000000 0.000000 0.125812 0.000000
# 6 0.000000 0.000000 0.000000 0.000000 0.000000 0.017843
#
#
# Mechanical properties :
#
#
# Convention : Reuss Voigt Hill
#
# Bulk Modulus (GPa) = 72.09265 72.12518 72.10891
# Shear Modulus (GPa) = 14.68949 27.91212 21.30081
#
# Velocity S-wave (km/s) = 2.44181 3.36593 2.94040
# Velocity P-wave (km/s) = 6.10018 6.66194 6.38724
#
# Compressibility (1/GPa) = 0.01387104
#
# Stress axis : x y z
#
# Youngs Moduli (GPa) = 63.71223 63.71200 115.06756
#
# Poissons Ratio (x) = 0.58920 0.22193
# Poissons Ratio (y) = 0.58920 0.22194
# Poissons Ratio (z) = 0.12288 0.12288
#
# Static dielectric constant tensor:
#      x y z
#    x 2.011090 0.000000 0.000000 
#    y 0.000000 2.011100 0.000000 
#    z 0.000000 0.000000 1.926880 
# 
# From -- ./inp_files/6035.got.cif
#   From: 2010.05.17/outbox.cif.g08.bks.cpg/sg121_4_cif.got.tgz:6035.got - 2010.05.20 11:32:06.
