data_PCOD9560206
_publ_section_title
;
Structure prediction by ZEFSAII (Michael W. Deem and Ramdas Pophale) SiO2 
 PCOD9560206
Probable space group: I -4 2 M
;
_chemical_formula_sum "Si O2"
_cell_formula_units_Z 96
_cell_length_a 16.833939
_cell_length_b 16.833939
_cell_length_c 18.015120
_cell_angle_alpha 90.000000
_cell_angle_beta 90.000000
_cell_angle_gamma 90.000000
_cell_volume 5105.151769
_symmetry_space_group_name_H-M "I -4 2 M"
_symmetry_group_IT_number 121
_symmetry_cell_setting 'tetragonal'
loop_
_space_group_symop_operation_xyz
x,y,z
y,-x,-z
-x,-y,z
-y,x,-z
x,-y,-z
-x,y,-z
-y,-x,z
y,x,z
1/2+x,1/2+y,1/2+z
1/2+y,1/2-x,1/2-z
1/2-x,1/2-y,1/2+z
1/2-y,1/2+x,1/2-z
1/2+x,1/2-y,1/2-z
1/2-x,1/2+y,1/2-z
1/2-y,1/2-x,1/2+z
1/2+y,1/2+x,1/2+z
loop_
_atom_site_type_symbol
_atom_site_label
_atom_site_fract_x
_atom_site_fract_y
_atom_site_fract_z
Si Si1 0.435945 0.236022 0.179728
Si Si2 0.415626 0.161143 0.647424
Si Si3 0.592249 0.285174 0.981248
Si Si4 0.347930 0.781949 0.504727
Si Si5 0.800522 0.592617 0.338077
Si Si6 0.116382 0.248098 0.291013
O O1 0.413182 0.142261 0.166687
O O2 0.397888 0.275532 0.107748
O O3 0.408264 0.253896 0.263904
O O4 0.527678 0.260486 0.179286
O O5 0.401456 0.189372 0.563598
O O6 0.509330 0.151733 0.662277
O O7 0.388373 0.231348 0.703274
O O8 0.632363 0.367638 0.004972
O O9 0.645281 0.214599 0.015549
O O10 0.500000 0.278155 0.000000
O O11 0.293454 0.706547 0.484699
O O12 0.395175 0.764387 0.580400
O O13 0.852476 0.670325 0.325625
O O14 0.176089 0.176089 0.305606
#
# Coordination Sequence:
#
# PCOD9560206 Si02
#       6
#    16  16  16  16  16  16
#     4   9  20  35  52  76 106 141 173 213 267 318
#     4   9  19  34  50  75 110 140 172 214 269 321
#     4  10  21  36  52  72 101 137 178 223 268 314
#     4  10  19  32  52  76 104 138 177 219 265 323
#     4  10  19  31  52  79 105 135 174 214 258 316
#     4  10  19  33  53  76 105 140 179 219 262 315
#
# _framework density 18.804535000000001
#
# number of rings (size 3 to 8) (size 9 to 14) (size 15 to 20)
#    0.000    2.333    0.000    2.500    0.000    7.500 
#    0.000    3.333    0.000    3.000    0.000    0.000 
#    0.000   40.667    0.000    0.000    0.000    0.000 
#
# Total GULP energy -267290.853604 kJ/mol
# GULP energy per Si atom -5568.559450 kJ/mol
# Density = 1.876173 g / cm^3
# Si number density = 18.804535 Si / 1000 Ang^3
#
#
#
# Elastic Constant Matrix: (Units=GPa)
#
#
# Indices 1 2 3 4 5 6 
#
# 1 60.4105 57.5805 22.3256 0.0000 0.0000 0.0000
# 2 57.5805 60.4087 22.3239 0.0000 0.0000 0.0000
# 3 22.3256 22.3239 132.7135 0.0000 0.0000 0.0000
# 4 0.0000 0.0000 0.0000 13.9628 0.0000 0.0000
# 5 0.0000 0.0000 0.0000 0.0000 13.9620 0.0000
# 6 0.0000 0.0000 0.0000 0.0000 0.0000 7.6166
#
#
#
# Elastic Compliance Matrix: (Units=1/GPa)
#
#
# Indices 1 2 3 4 5 6 
#
# 1 0.181256 -0.172206 -0.001525 0.000000 0.000000 0.000000
# 2 -0.172206 0.181260 -0.001521 0.000000 0.000000 0.000000
# 3 -0.001525 -0.001521 0.008047 0.000000 0.000000 0.000000
# 4 0.000000 0.000000 0.000000 0.071619 0.000000 0.000000
# 5 0.000000 0.000000 0.000000 0.000000 0.071623 0.000000
# 6 0.000000 0.000000 0.000000 0.000000 0.000000 0.131292
#
#
# Mechanical properties :
#
#
# Convention : Reuss Voigt Hill
#
# Bulk Modulus (GPa) = 49.85104 50.88809 50.36956
# Shear Modulus (GPa) = 4.98859 17.19513 11.09186
#
# Velocity S-wave (km/s) = 1.63053 3.02721 2.43132
# Velocity P-wave (km/s) = 5.48749 6.27208 5.89286
#
# Compressibility (1/GPa) = 0.02005976
#
# Stress axis : x y z
#
# Youngs Moduli (GPa) = 5.51706 5.51694 124.26542
#
# Poissons Ratio (x) = 0.95005 0.18946
# Poissons Ratio (y) = 0.95007 0.18896
# Poissons Ratio (z) = 0.00841 0.00839
#
# Static dielectric constant tensor:
#      x y z
#    x 1.637470 0.000000 0.000000 
#    y 0.000000 1.637470 0.000000 
#    z 0.000000 0.000000 1.743350 
# 
# From -- ./inp_files/5371.got.cif
#   From: 2010.05.17/outbox.cif.g08.bks.cpg/sg121_3_cif.got.tgz:5371.got - 2010.05.20 11:32:06.
