data_PCOD9560313
_publ_section_title
;
Structure prediction by ZEFSAII (Michael W. Deem and Ramdas Pophale) SiO2 
 PCOD9560313
Probable space group: I -4 2 M
;
_chemical_formula_sum "Si O2"
_cell_formula_units_Z 84
_cell_length_a 24.883950
_cell_length_b 24.883950
_cell_length_c 8.615987
_cell_angle_alpha 90.000000
_cell_angle_beta 90.000000
_cell_angle_gamma 90.000000
_cell_volume 5335.113647
_symmetry_space_group_name_H-M "I -4 2 M"
_symmetry_group_IT_number 121
_symmetry_cell_setting 'tetragonal'
loop_
_space_group_symop_operation_xyz
x,y,z
y,-x,-z
-x,-y,z
-y,x,-z
x,-y,-z
-x,y,-z
-y,-x,z
y,x,z
1/2+x,1/2+y,1/2+z
1/2+y,1/2-x,1/2-z
1/2-x,1/2-y,1/2+z
1/2-y,1/2+x,1/2-z
1/2+x,1/2-y,1/2-z
1/2-x,1/2+y,1/2-z
1/2-y,1/2-x,1/2+z
1/2+y,1/2+x,1/2+z
loop_
_atom_site_type_symbol
_atom_site_label
_atom_site_fract_x
_atom_site_fract_y
_atom_site_fract_z
Si Si1 0.943861 0.797406 0.578929
Si Si2 0.751599 0.337189 0.052071
Si Si3 0.000000 0.000000 0.000000
Si Si4 0.255351 0.833769 0.923344
Si Si5 0.292233 0.559206 0.548510
Si Si6 0.086998 0.086998 0.996271
Si Si7 0.917265 0.917265 0.622198
Si Si8 0.500000 0.500000 0.000000
O O1 0.895619 0.762007 0.511666
O O2 0.942298 0.794529 0.765252
O O3 0.933451 0.860572 0.547693
O O4 0.000000 0.782245 0.500000
O O5 0.701787 0.298214 0.007482
O O6 0.804095 0.308745 0.982149
O O7 0.755624 0.337524 0.237726
O O8 0.955969 0.044032 0.935524
O O9 0.205479 0.794522 0.969691
O O10 0.245007 0.891871 0.995368
O O11 0.274501 0.500000 0.500000
O O12 0.351229 0.570925 0.470514
O O13 0.086167 0.086167 0.808413
O O14 0.961803 0.961803 0.596703
#
# Coordination Sequence:
#
# PCOD9560313 Si02
#       8
#    16  16   2  16  16   8   8   2
#     4  11  21  35  50  71  99 132 171 216 261 308
#     4  10  20  34  53  76  99 130 167 212 263 316
#     4  12  18  36  44  62  88 136 182 224 258 288
#     4  10  20  34  53  76  99 130 167 212 263 316
#     4  11  21  35  50  71  99 132 171 216 261 308
#     4  10  21  31  44  63  91 128 172 217 258 295
#     4  10  21  31  44  63  91 128 172 217 258 295
#     4  12  18  36  44  62  88 136 182 224 258 288
#
# _framework density 15.744744000000001
#
# number of rings (size 3 to 8) (size 9 to 14) (size 15 to 20)
#    0.000    1.524    3.810    2.571    0.000    1.524 
#    0.000    0.000    0.000    0.000    0.000    0.000 
#    0.000    0.762    0.000    7.619    0.000    4.571 
#
# Total GULP energy -234379.218502 kJ/mol
# GULP energy per Si atom -5580.457583 kJ/mol
# Density = 1.570891 g / cm^3
# Si number density = 15.744744 Si / 1000 Ang^3
#
#
#
# Elastic Constant Matrix: (Units=GPa)
#
#
# Indices 1 2 3 4 5 6 
#
# 1 115.1663 78.1524 35.9180 0.0000 0.0000 0.0000
# 2 78.1524 115.1657 35.9182 0.0000 0.0000 0.0000
# 3 35.9180 35.9182 44.4421 0.0000 0.0000 0.0000
# 4 0.0000 0.0000 0.0000 21.8357 0.0000 0.0000
# 5 0.0000 0.0000 0.0000 0.0000 21.8360 0.0000
# 6 0.0000 0.0000 0.0000 0.0000 0.0000 27.4823
#
#
#
# Elastic Compliance Matrix: (Units=1/GPa)
#
#
# Indices 1 2 3 4 5 6 
#
# 1 0.017205 -0.009812 -0.005975 0.000000 0.000000 0.000000
# 2 -0.009812 0.017205 -0.005975 0.000000 0.000000 0.000000
# 3 -0.005975 -0.005975 0.032159 0.000000 0.000000 0.000000
# 4 0.000000 0.000000 0.000000 0.045796 0.000000 0.000000
# 5 0.000000 0.000000 0.000000 0.000000 0.045796 0.000000
# 6 0.000000 0.000000 0.000000 0.000000 0.000000 0.036387
#
#
# Mechanical properties :
#
#
# Convention : Reuss Voigt Hill
#
# Bulk Modulus (GPa) = 43.39310 63.86126 53.62718
# Shear Modulus (GPa) = 20.34543 22.54983 21.44763
#
# Velocity S-wave (km/s) = 3.59862 3.78857 3.69482
# Velocity P-wave (km/s) = 6.69978 7.73214 7.23440
#
# Compressibility (1/GPa) = 0.02304514
#
# Stress axis : x y z
#
# Youngs Moduli (GPa) = 58.12251 58.12196 31.09508
#
# Poissons Ratio (x) = 0.57029 0.18579
# Poissons Ratio (y) = 0.57030 0.18580
# Poissons Ratio (z) = 0.34728 0.34729
#
# Static dielectric constant tensor:
#      x y z
#    x 1.515980 0.000000 0.000000 
#    y 0.000000 1.515980 0.000000 
#    z 0.000000 0.000000 1.539510 
# 
# From -- ./inp_files/1913.got.cif
#   From: 2010.05.17/outbox.cif.g08.bks.cpg/sg121_1_cif.got.tgz:1913.got - 2010.05.20 11:32:06.
