data_PCOD9560430
_publ_section_title
;
Structure prediction by ZEFSAII (Michael W. Deem and Ramdas Pophale) SiO2 
 PCOD9560430
Probable space group: I -4 2 M
;
_chemical_formula_sum "Si O2"
_cell_formula_units_Z 80
_cell_length_a 12.278773
_cell_length_b 12.278773
_cell_length_c 23.545649
_cell_angle_alpha 90.000000
_cell_angle_beta 90.000000
_cell_angle_gamma 90.000000
_cell_volume 3549.936681
_symmetry_space_group_name_H-M "I -4 2 M"
_symmetry_group_IT_number 121
_symmetry_cell_setting 'tetragonal'
loop_
_space_group_symop_operation_xyz
x,y,z
y,-x,-z
-x,-y,z
-y,x,-z
x,-y,-z
-x,y,-z
-y,-x,z
y,x,z
1/2+x,1/2+y,1/2+z
1/2+y,1/2-x,1/2-z
1/2-x,1/2-y,1/2+z
1/2-y,1/2+x,1/2-z
1/2+x,1/2-y,1/2-z
1/2-x,1/2+y,1/2-z
1/2-y,1/2-x,1/2+z
1/2+y,1/2+x,1/2+z
loop_
_atom_site_type_symbol
_atom_site_label
_atom_site_fract_x
_atom_site_fract_y
_atom_site_fract_z
Si Si1 0.340942 0.023113 0.371050
Si Si2 0.661497 0.166716 0.524734
Si Si3 0.721342 0.447717 0.431236
Si Si4 0.173938 0.510156 0.323077
Si Si5 0.320947 0.497534 0.218028
O O1 0.348329 0.057688 0.437622
O O2 0.391361 0.130483 0.340593
O O3 0.412226 0.924034 0.345162
O O4 0.221718 0.003173 0.346550
O O5 0.778648 0.221353 0.532996
O O6 0.568160 0.248581 0.548724
O O7 0.627994 0.181672 0.458521
O O8 0.609056 0.390945 0.447867
O O9 0.728535 0.453829 0.363836
O O10 0.217250 0.510409 0.259583
O O11 0.405139 0.594862 0.228202
O O12 0.385178 0.385178 0.228867
#
# Coordination Sequence:
#
# PCOD9560430 Si02
#       5
#    16  16  16  16  16
#     4  10  21  37  57  80 109 149 196 243 293 354
#     4   9  18  33  54  81 115 155 197 243 297 356
#     4   9  18  32  52  82 117 152 195 243 295 355
#     4  10  21  36  56  82 111 147 193 242 294 357
#     4  11  24  39  56  82 115 151 193 244 305 373
#
# _framework density 22.535612
#
# number of rings (size 3 to 8) (size 9 to 14) (size 15 to 20)
#    0.000    2.200    0.000    2.400    0.000   10.000 
#    0.000    6.000    0.000    0.000    0.000    0.000 
#    0.000    4.800    0.000    1.200    0.000    0.000 
#
# Total GULP energy -222712.666757 kJ/mol
# GULP energy per Si atom -5567.816669 kJ/mol
# Density = 2.248432 g / cm^3
# Si number density = 22.535612 Si / 1000 Ang^3
#
#
#
# Elastic Constant Matrix: (Units=GPa)
#
#
# Indices 1 2 3 4 5 6 
#
# 1 62.3963 10.9463 5.0664 0.0000 0.0000 0.0000
# 2 10.9463 62.3964 5.0655 0.0000 0.0000 0.0000
# 3 5.0664 5.0655 94.3962 0.0000 0.0000 0.0000
# 4 0.0000 0.0000 0.0000 13.4504 0.0000 0.0000
# 5 0.0000 0.0000 0.0000 0.0000 13.4516 0.0000
# 6 0.0000 0.0000 0.0000 0.0000 0.0000 15.9537
#
#
#
# Elastic Compliance Matrix: (Units=1/GPa)
#
#
# Indices 1 2 3 4 5 6 
#
# 1 0.016586 -0.002850 -0.000737 0.000000 0.000000 0.000000
# 2 -0.002850 0.016586 -0.000737 0.000000 0.000000 0.000000
# 3 -0.000737 -0.000737 0.010673 0.000000 0.000000 0.000000
# 4 0.000000 0.000000 0.000000 0.074347 0.000000 0.000000
# 5 0.000000 0.000000 0.000000 0.000000 0.074341 0.000000
# 6 0.000000 0.000000 0.000000 0.000000 0.000000 0.062681
#
#
# Mechanical properties :
#
#
# Convention : Reuss Voigt Hill
#
# Bulk Modulus (GPa) = 28.41155 29.03836 28.72495
# Shear Modulus (GPa) = 18.14253 21.77853 19.96053
#
# Velocity S-wave (km/s) = 2.84044 3.11208 2.97935
# Velocity P-wave (km/s) = 4.83655 5.08202 4.96080
#
# Compressibility (1/GPa) = 0.03519695
#
# Stress axis : x y z
#
# Youngs Moduli (GPa) = 60.29028 60.29045 93.69637
#
# Poissons Ratio (x) = 0.17182 0.06908
# Poissons Ratio (y) = 0.17182 0.06906
# Poissons Ratio (z) = 0.04445 0.04444
#
# Static dielectric constant tensor:
#      x y z
#    x 1.850610 0.000000 0.000000 
#    y 0.000000 1.850610 0.000000 
#    z 0.000000 0.000000 1.894490 
# 
# From -- ./inp_files/8024.got.cif
#   From: 2010.05.17/outbox.cif.g08.bks.cpg/sg121_5_cif.got.tgz:8024.got - 2010.05.20 11:32:06.
