data_PCOD9560785
_publ_section_title
;
Structure prediction by ZEFSAII (Michael W. Deem and Ramdas Pophale) SiO2 
 PCOD9560785
Probable space group: I -4 2 D
;
_chemical_formula_sum "Si O2"
_cell_formula_units_Z 80
_cell_length_a 14.039522
_cell_length_b 14.039522
_cell_length_c 19.733118
_cell_angle_alpha 90.000000
_cell_angle_beta 90.000000
_cell_angle_gamma 90.000000
_cell_volume 3889.558935
_symmetry_space_group_name_H-M "I -4 2 D"
_symmetry_group_IT_number 122
_symmetry_cell_setting 'tetragonal'
loop_
_space_group_symop_operation_xyz
x,y,z
y,-x,-z
-x,-y,z
-y,x,-z
x,1/2-y,1/4-z
-x,1/2+y,1/4-z
-y,1/2-x,1/4+z
y,1/2+x,1/4+z
1/2+x,1/2+y,1/2+z
1/2+y,1/2-x,1/2-z
1/2-x,1/2-y,1/2+z
1/2-y,1/2+x,1/2-z
1/2+x,-y,3/4-z
1/2-x,y,3/4-z
1/2-y,-x,3/4+z
1/2+y,x,3/4+z
loop_
_atom_site_type_symbol
_atom_site_label
_atom_site_fract_x
_atom_site_fract_y
_atom_site_fract_z
Si Si1 0.203284 0.254675 0.446704
Si Si2 0.933873 0.368270 0.747505
Si Si3 0.626640 0.793765 0.549911
Si Si4 0.988158 0.652386 0.271288
Si Si5 0.500779 0.183577 0.930350
O O1 0.250000 0.281631 0.375000
O O2 0.164694 0.145127 0.444132
O O3 0.284223 0.244263 0.504333
O O4 0.107009 0.316104 0.460357
O O5 0.894491 0.463585 0.782804
O O6 0.955546 0.286536 0.801116
O O7 0.638535 0.750000 0.625000
O O8 0.531892 0.748762 0.518353
O O9 0.619237 0.908740 0.548310
O O10 0.901913 0.581735 0.252566
O O11 0.989575 0.669609 0.350711
#
# Coordination Sequence:
#
# PCOD9560785 Si02
#       5
#    16  16  16  16  16
#     4  10  19  35  64  93 128 171 216 270 332 397
#     4   8  16  32  57  86 126 168 205 268 328 393
#     4  11  22  42  67  95 133 172 221 279 327 400
#     4  11  23  42  66  93 128 180 222 279 338 387
#     4  10  20  39  63  94 124 167 228 257 337 397
#
# _framework density 20.567886000000001
#
# number of rings (size 3 to 8) (size 9 to 14) (size 15 to 20)
#    0.000    2.000    4.000    0.000    0.000    0.000 
#    3.600   16.000    4.400    0.000    0.000    0.000 
#    0.000    0.000    0.000    0.000    0.000    0.000 
#
# Total GULP energy -222809.753694 kJ/mol
# GULP energy per Si atom -5570.243842 kJ/mol
# Density = 2.052107 g / cm^3
# Si number density = 20.567886 Si / 1000 Ang^3
#
#
#
# Elastic Constant Matrix: (Units=GPa)
#
#
# Indices 1 2 3 4 5 6 
#
# 1 48.6969 8.5626 -5.5740 0.0000 0.0000 0.0000
# 2 8.5626 48.6969 -5.5740 0.0000 0.0000 0.0000
# 3 -5.5740 -5.5740 56.5258 0.0000 0.0000 0.0000
# 4 0.0000 0.0000 0.0000 15.6206 0.0000 0.0000
# 5 0.0000 0.0000 0.0000 0.0000 15.6206 0.0000
# 6 0.0000 0.0000 0.0000 0.0000 0.0000 32.1909
#
#
#
# Elastic Compliance Matrix: (Units=1/GPa)
#
#
# Indices 1 2 3 4 5 6 
#
# 1 0.021361 -0.003555 0.001756 0.000000 0.000000 0.000000
# 2 -0.003555 0.021361 0.001756 0.000000 0.000000 0.000000
# 3 0.001756 0.001756 0.018037 0.000000 0.000000 0.000000
# 4 0.000000 0.000000 0.000000 0.064018 0.000000 0.000000
# 5 0.000000 0.000000 0.000000 0.000000 0.064018 0.000000
# 6 0.000000 0.000000 0.000000 0.000000 0.000000 0.031065
#
#
# Mechanical properties :
#
#
# Convention : Reuss Voigt Hill
#
# Bulk Modulus (GPa) = 16.48175 16.52766 16.50471
# Shear Modulus (GPa) = 20.81847 23.12010 21.96929
#
# Velocity S-wave (km/s) = 3.18493 3.35638 3.27178
# Velocity P-wave (km/s) = 4.64282 4.80349 4.72384
#
# Compressibility (1/GPa) = 0.06067316
#
# Stress axis : x y z
#
# Youngs Moduli (GPa) = 46.81372 46.81372 55.44058
#
# Poissons Ratio (x) = 0.16643 -0.09735
# Poissons Ratio (y) = 0.16643 -0.09735
# Poissons Ratio (z) = -0.08220 -0.08220
#
# Static dielectric constant tensor:
#      x y z
#    x 1.789770 0.000000 0.000000 
#    y 0.000000 1.789770 0.000000 
#    z 0.000000 0.000000 1.690710 
# 
# From -- ./inp_files/7071.got.cif
#   From: 2010.05.17/outbox.cif.g08.bks.cpg/sg122_4_cif.got.tgz:7071.got - 2010.05.20 11:37:33.
