data_PCOD9560855
_publ_section_title
;
Structure prediction by ZEFSAII (Michael W. Deem and Ramdas Pophale) SiO2 
 PCOD9560855
Probable space group: I -4 2 D
;
_chemical_formula_sum "Si O2"
_cell_formula_units_Z 72
_cell_length_a 19.842874
_cell_length_b 19.842874
_cell_length_c 7.254183
_cell_angle_alpha 90.000000
_cell_angle_beta 90.000000
_cell_angle_gamma 90.000000
_cell_volume 2856.259465
_symmetry_space_group_name_H-M "I -4 2 D"
_symmetry_group_IT_number 122
_symmetry_cell_setting 'tetragonal'
loop_
_space_group_symop_operation_xyz
x,y,z
y,-x,-z
-x,-y,z
-y,x,-z
x,1/2-y,1/4-z
-x,1/2+y,1/4-z
-y,1/2-x,1/4+z
y,1/2+x,1/4+z
1/2+x,1/2+y,1/2+z
1/2+y,1/2-x,1/2-z
1/2-x,1/2-y,1/2+z
1/2-y,1/2+x,1/2-z
1/2+x,-y,3/4-z
1/2-x,y,3/4-z
1/2-y,-x,3/4+z
1/2+y,x,3/4+z
loop_
_atom_site_type_symbol
_atom_site_label
_atom_site_fract_x
_atom_site_fract_y
_atom_site_fract_z
Si Si1 0.172061 0.845678 0.830263
Si Si2 0.650821 0.999674 0.240436
Si Si3 0.750000 0.097859 0.375000
Si Si4 0.549804 0.063172 0.968656
Si Si5 0.694386 0.644142 0.104943
O O1 0.250000 0.862194 0.875000
O O2 0.114788 0.902078 0.884695
O O3 0.162845 0.825072 0.610217
O O4 0.154771 0.771353 0.908929
O O5 0.627963 0.989655 0.452381
O O6 0.671284 0.932276 0.137067
O O7 0.713723 0.048487 0.234575
O O8 0.588155 0.033698 0.144875
O O9 0.694205 0.145989 0.463471
O O10 0.500000 0.000000 0.919624
#
# Coordination Sequence:
#
# PCOD9560855 Si02
#       5
#    16  16   8  16  16
#     4  10  20  36  55  85 127 157 199 245 308 383
#     4  11  18  31  54  91 120 150 194 252 314 351
#     4  12  18  32  56  88 124 152 194 250 310 368
#     4  11  18  33  55  90 124 151 198 263 312 350
#     4  10  21  34  56  91 119 159 194 247 311 366
#
# _framework density 25.207792999999999
#
# number of rings (size 3 to 8) (size 9 to 14) (size 15 to 20)
#    0.000    1.333    7.778    2.667    0.000    0.000 
#    0.000    0.000    0.000    5.333    0.000    1.556 
#    0.000    0.000    0.000    0.000    0.000    0.000 
#
# Total GULP energy -200719.739855 kJ/mol
# GULP energy per Si atom -5575.548329 kJ/mol
# Density = 2.515042 g / cm^3
# Si number density = 25.207793 Si / 1000 Ang^3
#
#
#
# Elastic Constant Matrix: (Units=GPa)
#
#
# Indices 1 2 3 4 5 6 
#
# 1 185.9968 82.9175 7.6054 0.0000 0.0000 0.0000
# 2 82.9175 185.9968 7.6054 0.0000 0.0000 0.0000
# 3 7.6054 7.6054 38.4728 0.0000 0.0000 0.0000
# 4 0.0000 0.0000 0.0000 15.6240 0.0000 0.0000
# 5 0.0000 0.0000 0.0000 0.0000 15.6240 0.0000
# 6 0.0000 0.0000 0.0000 0.0000 0.0000 64.3870
#
#
#
# Elastic Compliance Matrix: (Units=1/GPa)
#
#
# Indices 1 2 3 4 5 6 
#
# 1 0.006731 -0.002970 -0.000743 0.000000 0.000000 0.000000
# 2 -0.002970 0.006731 -0.000743 0.000000 0.000000 0.000000
# 3 -0.000743 -0.000743 0.026286 0.000000 0.000000 0.000000
# 4 0.000000 0.000000 0.000000 0.064004 0.000000 0.000000
# 5 0.000000 0.000000 0.000000 0.000000 0.064004 0.000000
# 6 0.000000 0.000000 0.000000 0.000000 0.000000 0.015531
#
#
# Mechanical properties :
#
#
# Convention : Reuss Voigt Hill
#
# Bulk Modulus (GPa) = 32.43173 67.41367 49.92270
# Shear Modulus (GPa) = 24.69381 39.94955 32.32168
#
# Velocity S-wave (km/s) = 3.13327 3.98529 3.58468
# Velocity P-wave (km/s) = 5.09740 6.92661 6.08118
#
# Compressibility (1/GPa) = 0.03083400
#
# Stress axis : x y z
#
# Youngs Moduli (GPa) = 148.56662 148.56662 38.04266
#
# Poissons Ratio (x) = 0.44128 0.02828
# Poissons Ratio (y) = 0.44128 0.02828
# Poissons Ratio (z) = 0.11045 0.11045
#
# Static dielectric constant tensor:
#      x y z
#    x 2.006480 0.000000 0.000000 
#    y 0.000000 2.006480 0.000000 
#    z 0.000000 0.000000 2.218690 
# 
# From -- ./inp_files/2669.got.cif
#   From: 2010.05.17/outbox.cif.g08.bks.cpg/sg122_2_cif.got.tgz:2669.got - 2010.05.20 11:37:33.
