data_PCOD9560046
_publ_section_title
;
Structure prediction by ZEFSAII (Michael W. Deem and Ramdas Pophale) SiO2 
 PCOD9560046
Probable space group: I -4 C 2
;
_chemical_formula_sum "Si O2"
_cell_formula_units_Z 64
_cell_length_a 11.105100
_cell_length_b 11.105100
_cell_length_c 22.360083
_cell_angle_alpha 90.000000
_cell_angle_beta 90.000000
_cell_angle_gamma 90.000000
_cell_volume 2757.518017
_symmetry_space_group_name_H-M "I -4 C 2"
_symmetry_group_IT_number 120
_symmetry_cell_setting 'tetragonal'
loop_
_space_group_symop_operation_xyz
x,y,z
y,-x,-z
-x,-y,z
-y,x,-z
y,x,1/2-z
-y,-x,1/2-z
-x,y,1/2+z
x,-y,1/2+z
1/2+x,1/2+y,1/2+z
1/2+y,1/2-x,1/2-z
1/2-x,1/2-y,1/2+z
1/2-y,1/2+x,1/2-z
1/2+y,1/2+x,-z
1/2-y,1/2-x,-z
1/2-x,1/2+y,z
1/2+x,1/2-y,z
loop_
_atom_site_type_symbol
_atom_site_label
_atom_site_fract_x
_atom_site_fract_y
_atom_site_fract_z
Si Si1 0.084572 0.118952 0.183007
Si Si2 0.040827 0.376373 0.135575
Si Si3 0.248216 0.590336 0.964886
Si Si4 0.208009 0.036819 0.587398
O O1 0.134552 0.134552 0.250000
O O2 0.031282 0.250527 0.169666
O O3 0.174450 0.075904 0.129835
O O4 0.000000 0.000000 0.185822
O O5 0.178347 0.395587 0.115637
O O6 0.000000 0.500000 0.166636
O O7 0.957154 0.359164 0.076793
O O8 0.364398 0.603799 0.923011
O O9 0.211664 0.711664 0.000000
O O10 0.269365 0.501566 0.019458
#
# Coordination Sequence:
#
# PCOD9560046 Si02
#       4
#    16  16  16  16
#     4  11  26  53  79 105 150 206 270 331 387 470
#     4  12  26  48  76 112 155 202 256 327 399 482
#     4  12  23  41  71 112 155 200 244 319 400 488
#     4  12  25  43  72 109 152 197 256 314 400 471
#
# _framework density 23.209278000000001
#
# number of rings (size 3 to 8) (size 9 to 14) (size 15 to 20)
#    0.000    0.250    5.000    5.250    0.000    0.000 
#    9.000    0.000    0.000    0.000    0.000    0.000 
#    0.000    0.000    0.000    0.000    0.000    0.000 
#
# Total GULP energy -178738.284655 kJ/mol
# GULP energy per Si atom -5585.571395 kJ/mol
# Density = 2.315645 g / cm^3
# Si number density = 23.209278 Si / 1000 Ang^3
#
#
#
# Elastic Constant Matrix: (Units=GPa)
#
#
# Indices 1 2 3 4 5 6 
#
# 1 104.7561 16.9865 38.4522 0.0000 0.0000 0.0000
# 2 16.9865 104.7561 38.4522 0.0000 0.0000 0.0000
# 3 38.4522 38.4522 103.0877 0.0000 0.0000 0.0000
# 4 0.0000 0.0000 0.0000 10.0712 0.0000 0.0000
# 5 0.0000 0.0000 0.0000 0.0000 10.0712 0.0000
# 6 0.0000 0.0000 0.0000 0.0000 0.0000 46.0323
#
#
#
# Elastic Compliance Matrix: (Units=1/GPa)
#
#
# Indices 1 2 3 4 5 6 
#
# 1 0.011070 -0.000324 -0.004008 0.000000 0.000000 0.000000
# 2 -0.000324 0.011070 -0.004008 0.000000 0.000000 0.000000
# 3 -0.004008 -0.004008 0.012691 0.000000 0.000000 0.000000
# 4 0.000000 0.000000 0.000000 0.099293 0.000000 0.000000
# 5 0.000000 0.000000 0.000000 0.000000 0.099293 0.000000
# 6 0.000000 0.000000 0.000000 0.000000 0.000000 0.021724
#
#
# Mechanical properties :
#
#
# Convention : Reuss Voigt Hill
#
# Bulk Modulus (GPa) = 55.09770 55.59794 55.34782
# Shear Modulus (GPa) = 17.99399 27.81554 22.90477
#
# Velocity S-wave (km/s) = 2.78743 3.46564 3.14487
# Velocity P-wave (km/s) = 5.84386 6.32624 6.08983
#
# Compressibility (1/GPa) = 0.01814958
#
# Stress axis : x y z
#
# Youngs Moduli (GPa) = 90.33596 90.33596 78.79762
#
# Poissons Ratio (x) = 0.02924 0.31585
# Poissons Ratio (y) = 0.02924 0.31585
# Poissons Ratio (z) = 0.36210 0.36210
#
# Static dielectric constant tensor:
#      x y z
#    x 1.938130 0.000000 0.000000 
#    y 0.000000 1.938130 0.000000 
#    z 0.000000 0.000000 1.841020 
# 
# From -- ./inp_files/5006.got.cif
#   From: 2010.05.17/outbox.cif.g08.bks.cpg/sg120_3_cif.got.tgz:5006.got - 2010.05.20 11:28:13.
