data_PCOD9560973
_publ_section_title
;
Structure prediction by ZEFSAII (Michael W. Deem and Ramdas Pophale) SiO2 
 PCOD9560973
Probable space group: I -4 2 D
;
_chemical_formula_sum "Si O2"
_cell_formula_units_Z 88
_cell_length_a 15.527564
_cell_length_b 15.527564
_cell_length_c 18.009846
_cell_angle_alpha 90.000000
_cell_angle_beta 90.000000
_cell_angle_gamma 90.000000
_cell_volume 4342.268310
_symmetry_space_group_name_H-M "I -4 2 D"
_symmetry_group_IT_number 122
_symmetry_cell_setting 'tetragonal'
loop_
_space_group_symop_operation_xyz
x,y,z
y,-x,-z
-x,-y,z
-y,x,-z
x,1/2-y,1/4-z
-x,1/2+y,1/4-z
-y,1/2-x,1/4+z
y,1/2+x,1/4+z
1/2+x,1/2+y,1/2+z
1/2+y,1/2-x,1/2-z
1/2-x,1/2-y,1/2+z
1/2-y,1/2+x,1/2-z
1/2+x,-y,3/4-z
1/2-x,y,3/4-z
1/2-y,-x,3/4+z
1/2+y,x,3/4+z
loop_
_atom_site_type_symbol
_atom_site_label
_atom_site_fract_x
_atom_site_fract_y
_atom_site_fract_z
Si Si1 0.373805 0.188338 0.555034
Si Si2 0.056932 0.178494 0.960714
Si Si3 0.640685 0.022720 0.245161
Si Si4 0.514717 0.399972 0.612306
Si Si5 0.250000 0.886388 0.375000
Si Si6 0.084280 0.732189 0.871645
O O1 0.353772 0.250000 0.625000
O O2 0.380654 0.244004 0.482131
O O3 0.469166 0.152220 0.572614
O O4 0.300432 0.117857 0.560241
O O5 0.104080 0.115497 0.903599
O O6 0.964420 0.212829 0.933705
O O7 0.034886 0.127976 0.037097
O O8 0.592701 0.934293 0.269806
O O9 0.680714 0.992399 0.167664
O O10 0.709699 0.058568 0.305824
O O11 0.500000 0.500000 0.625652
O O12 0.166163 0.826452 0.354748
#
# Coordination Sequence:
#
# PCOD9560973 Si02
#       6
#    16  16  16  16   8  16
#     4  10  21  34  53  84 119 147 191 236 281 347
#     4  11  20  33  56  81 115 155 194 227 286 348
#     4   9  21  42  64  82 109 152 195 233 289 354
#     4  11  18  34  56  75 111 166 188 219 283 356
#     4  10  22  40  62  82 114 150 190 244 292 332
#     4  11  21  36  60  87 114 147 189 242 294 336
#
# _framework density 20.265903999999999
#
# number of rings (size 3 to 8) (size 9 to 14) (size 15 to 20)
#    0.000    1.636    4.545    1.091    0.000    2.909 
#    0.000    0.000    0.000    0.000    0.000    0.000 
#    0.000    0.000    0.000    0.000    0.000    0.000 
#
# Total GULP energy -245143.093758 kJ/mol
# GULP energy per Si atom -5571.433949 kJ/mol
# Density = 2.021978 g / cm^3
# Si number density = 20.265904 Si / 1000 Ang^3
#
#
#
# Elastic Constant Matrix: (Units=GPa)
#
#
# Indices 1 2 3 4 5 6 
#
# 1 71.8728 24.6368 25.0128 0.0000 0.0000 0.0000
# 2 24.6368 71.8728 25.0128 0.0000 0.0000 0.0000
# 3 25.0128 25.0128 22.9870 0.0000 0.0000 0.0000
# 4 0.0000 0.0000 0.0000 18.0859 0.0000 0.0000
# 5 0.0000 0.0000 0.0000 0.0000 18.0859 0.0000
# 6 0.0000 0.0000 0.0000 0.0000 0.0000 37.1690
#
#
#
# Elastic Compliance Matrix: (Units=1/GPa)
#
#
# Indices 1 2 3 4 5 6 
#
# 1 0.022469 0.001298 -0.025861 0.000000 0.000000 0.000000
# 2 0.001298 0.022469 -0.025861 0.000000 0.000000 0.000000
# 3 -0.025861 -0.025861 0.099783 0.000000 0.000000 0.000000
# 4 0.000000 0.000000 0.000000 0.055292 0.000000 0.000000
# 5 0.000000 0.000000 0.000000 0.000000 0.055292 0.000000
# 6 0.000000 0.000000 0.000000 0.000000 0.000000 0.026904
#
#
# Mechanical properties :
#
#
# Convention : Reuss Voigt Hill
#
# Bulk Modulus (GPa) = 22.79362 35.11751 28.95556
# Shear Modulus (GPa) = 12.57291 20.80618 16.68955
#
# Velocity S-wave (km/s) = 2.49348 3.20763 2.87283
# Velocity P-wave (km/s) = 4.42285 5.57535 5.03220
#
# Compressibility (1/GPa) = 0.04387192
#
# Stress axis : x y z
#
# Youngs Moduli (GPa) = 44.50668 44.50668 10.02171
#
# Poissons Ratio (x) = -0.05778 0.25917
# Poissons Ratio (y) = -0.05778 0.25917
# Poissons Ratio (z) = 1.15100 1.15100
#
# Static dielectric constant tensor:
#      x y z
#    x 1.782340 0.000000 0.000000 
#    y 0.000000 1.782340 0.000000 
#    z 0.000000 0.000000 1.717360 
# 
# From -- ./inp_files/7210.got.cif
#   From: 2010.05.17/outbox.cif.g08.bks.cpg/sg122_4_cif.got.tgz:7210.got - 2010.05.20 11:37:33.
