data_PCOD9560035
_publ_section_title
;
Structure prediction by ZEFSAII (Michael W. Deem and Ramdas Pophale) SiO2 
 PCOD9560035
Probable space group: I -4 C 2
;
_chemical_formula_sum "Si O2"
_cell_formula_units_Z 52
_cell_length_a 16.153621
_cell_length_b 16.153621
_cell_length_c 8.626222
_cell_angle_alpha 90.000000
_cell_angle_beta 90.000000
_cell_angle_gamma 90.000000
_cell_volume 2250.921809
_symmetry_space_group_name_H-M "I -4 C 2"
_symmetry_group_IT_number 120
_symmetry_cell_setting 'tetragonal'
loop_
_space_group_symop_operation_xyz
x,y,z
y,-x,-z
-x,-y,z
-y,x,-z
y,x,1/2-z
-y,-x,1/2-z
-x,y,1/2+z
x,-y,1/2+z
1/2+x,1/2+y,1/2+z
1/2+y,1/2-x,1/2-z
1/2-x,1/2-y,1/2+z
1/2-y,1/2+x,1/2-z
1/2+y,1/2+x,-z
1/2-y,1/2-x,-z
1/2-x,1/2+y,z
1/2+x,1/2-y,z
loop_
_atom_site_type_symbol
_atom_site_label
_atom_site_fract_x
_atom_site_fract_y
_atom_site_fract_z
Si Si1 0.899904 0.420442 0.184294
Si Si2 0.067374 0.169558 0.851156
Si Si3 0.729069 0.402257 0.313832
Si Si4 0.000000 0.000000 0.000000
O O1 0.892442 0.517388 0.227856
O O2 0.818494 0.377360 0.250317
O O3 0.909085 0.409085 0.000000
O O4 0.147164 0.147164 0.750000
O O5 0.993559 0.208744 0.752838
O O6 0.090346 0.221875 0.001870
O O7 0.032127 0.080252 0.908521
O O8 0.659760 0.340241 0.250000
#
# Coordination Sequence:
#
# PCOD9560035 Si02
#       4
#    16  16  16   4
#     4  11  25  49  75  97 130 186 249 298 360 443
#     4  12  21  35  62 102 151 199 237 281 349 442
#     4  12  23  41  68 105 142 181 235 301 365 416
#     4  12  18  32  58  92 150 212 234 260 338 452
#
# _framework density 23.101645999999999
#
# number of rings (size 3 to 8) (size 9 to 14) (size 15 to 20)
#    0.000    0.308    6.154    4.154    0.000    0.000 
#    0.000    7.692    0.000    0.000    0.000    0.000 
#    0.000    0.000    0.000    0.000    0.000    0.000 
#
# Total GULP energy -145747.534104 kJ/mol
# GULP energy per Si atom -5605.674389 kJ/mol
# Density = 2.304907 g / cm^3
# Si number density = 23.101646 Si / 1000 Ang^3
#
#
#
# Elastic Constant Matrix: (Units=GPa)
#
#
# Indices 1 2 3 4 5 6 
#
# 1 93.1080 37.7144 60.0604 0.0000 0.0000 0.0000
# 2 37.7144 93.1031 60.0601 0.0000 0.0000 0.0000
# 3 60.0604 60.0601 213.1696 0.0000 0.0000 0.0000
# 4 0.0000 0.0000 0.0000 16.3943 0.0000 0.0000
# 5 0.0000 0.0000 0.0000 0.0000 16.3964 0.0000
# 6 0.0000 0.0000 0.0000 0.0000 0.0000 -8.3092
#
#
#
# Elastic Compliance Matrix: (Units=1/GPa)
#
#
# Indices 1 2 3 4 5 6 
#
# 1 0.014182 -0.003871 -0.002905 0.000000 0.000000 0.000000
# 2 -0.003871 0.014183 -0.002905 0.000000 0.000000 0.000000
# 3 -0.002905 -0.002905 0.006328 0.000000 0.000000 0.000000
# 4 0.000000 0.000000 0.000000 0.060997 0.000000 0.000000
# 5 0.000000 0.000000 0.000000 0.000000 0.060989 0.000000
# 6 0.000000 0.000000 0.000000 0.000000 0.000000 -0.120349
#
#
# Mechanical properties :
#
#
# Convention : Reuss Voigt Hill
#
# Bulk Modulus (GPa) = 65.22937 79.45006 72.33971
# Shear Modulus (GPa) = 82.23146 20.99934 51.61540
#
# Velocity S-wave (km/s) = 5.97267 3.01823 4.73194
# Velocity P-wave (km/s) = 8.70981 6.82733 7.82538
#
# Compressibility (1/GPa) = 0.01533052
#
# Stress axis : x y z
#
# Youngs Moduli (GPa) = 70.51098 70.50668 158.02156
#
# Poissons Ratio (x) = 0.27292 0.45909
# Poissons Ratio (y) = 0.27293 0.45912
# Poissons Ratio (z) = 0.20485 0.20485
#
# Static dielectric constant tensor:
#      x y z
#    x 2.018320 0.000000 0.000000 
#    y 0.000000 2.018270 0.000000 
#    z 0.000000 0.000000 1.834550 
# 
# From -- ./inp_files/1002.got.cif
#   From: 2010.05.17/outbox.cif.g08.bks.cpg/sg120_1_cif.got.tgz:1002.got - 2010.05.20 11:28:13.
