data_PCOD9560955
_publ_section_title
;
Structure prediction by ZEFSAII (Michael W. Deem and Ramdas Pophale) SiO2 
 PCOD9560955
Probable space group: I -4 2 D
;
_chemical_formula_sum "Si O2"
_cell_formula_units_Z 96
_cell_length_a 15.812901
_cell_length_b 15.812901
_cell_length_c 13.594862
_cell_angle_alpha 90.000000
_cell_angle_beta 90.000000
_cell_angle_gamma 90.000000
_cell_volume 3399.365851
_symmetry_space_group_name_H-M "I -4 2 D"
_symmetry_group_IT_number 122
_symmetry_cell_setting 'tetragonal'
loop_
_space_group_symop_operation_xyz
x,y,z
y,-x,-z
-x,-y,z
-y,x,-z
x,1/2-y,1/4-z
-x,1/2+y,1/4-z
-y,1/2-x,1/4+z
y,1/2+x,1/4+z
1/2+x,1/2+y,1/2+z
1/2+y,1/2-x,1/2-z
1/2-x,1/2-y,1/2+z
1/2-y,1/2+x,1/2-z
1/2+x,-y,3/4-z
1/2-x,y,3/4-z
1/2-y,-x,3/4+z
1/2+y,x,3/4+z
loop_
_atom_site_type_symbol
_atom_site_label
_atom_site_fract_x
_atom_site_fract_y
_atom_site_fract_z
Si Si1 0.209110 0.414530 0.502917
Si Si2 0.452708 0.178444 0.205236
Si Si3 0.603117 0.911599 0.740970
Si Si4 0.608228 0.837694 0.528641
Si Si5 0.475116 0.092149 0.019442
Si Si6 0.139870 0.718370 0.773193
O O1 0.303989 0.403776 0.459684
O O2 0.193888 0.517938 0.510980
O O3 0.114542 0.384127 0.472167
O O4 0.218606 0.368167 0.608403
O O5 0.435062 0.250000 0.125000
O O6 0.460047 0.095024 0.137386
O O7 0.369193 0.176997 0.269943
O O8 0.541616 0.202541 0.247537
O O9 0.511529 0.898414 0.791549
O O10 0.598318 0.849272 0.646530
O O11 0.700259 0.802005 0.499186
O O12 0.633291 0.934064 0.496411
O O13 0.500000 0.000000 0.984357
#
# Coordination Sequence:
#
# PCOD9560955 Si02
#       6
#    16  16  16  16  16  16
#     4   9  21  40  60  88 120 162 200 248 315 366
#     4  11  22  37  58  91 126 162 206 255 302 356
#     4  10  23  40  61  94 116 150 209 260 302 373
#     4  10  20  42  61  86 123 158 197 256 311 370
#     4   9  19  35  61  86 115 161 202 242 305 359
#     4  10  23  37  60  91 126 158 213 248 298 380
#
# _framework density 28.240562000000001
#
# number of rings (size 3 to 8) (size 9 to 14) (size 15 to 20)
#    0.000    2.167    1.667    0.000   14.000    0.667 
#    9.000    0.000    0.000    4.000    0.000    0.000 
#    0.000    0.000    0.000    0.000    0.000    0.000 
#
# Total GULP energy -267473.661328 kJ/mol
# GULP energy per Si atom -5572.367944 kJ/mol
# Density = 2.817628 g / cm^3
# Si number density = 28.240562 Si / 1000 Ang^3
#
#
#
# Elastic Constant Matrix: (Units=GPa)
#
#
# Indices 1 2 3 4 5 6 
#
# 1 110.2463 30.4543 2.6212 0.0000 0.0000 0.0000
# 2 30.4543 110.2463 2.6212 0.0000 0.0000 0.0000
# 3 2.6212 2.6212 34.5198 0.0000 0.0000 0.0000
# 4 0.0000 0.0000 0.0000 28.7246 0.0000 0.0000
# 5 0.0000 0.0000 0.0000 0.0000 28.7246 0.0000
# 6 0.0000 0.0000 0.0000 0.0000 0.0000 7.5507
#
#
#
# Elastic Compliance Matrix: (Units=1/GPa)
#
#
# Indices 1 2 3 4 5 6 
#
# 1 0.009830 -0.002703 -0.000541 0.000000 0.000000 0.000000
# 2 -0.002703 0.009830 -0.000541 0.000000 0.000000 0.000000
# 3 -0.000541 -0.000541 0.029051 0.000000 0.000000 0.000000
# 4 0.000000 0.000000 0.000000 0.034813 0.000000 0.000000
# 5 0.000000 0.000000 0.000000 0.000000 0.034813 0.000000
# 6 0.000000 0.000000 0.000000 0.000000 0.000000 0.132437
#
#
# Mechanical properties :
#
#
# Convention : Reuss Voigt Hill
#
# Bulk Modulus (GPa) = 24.30658 36.26730 30.28694
# Shear Modulus (GPa) = 18.37837 27.62103 22.99970
#
# Velocity S-wave (km/s) = 2.55381 3.13079 2.85690
# Velocity P-wave (km/s) = 4.16192 5.09306 4.65085
#
# Compressibility (1/GPa) = 0.04114113
#
# Stress axis : x y z
#
# Youngs Moduli (GPa) = 101.72914 101.72914 34.42219
#
# Poissons Ratio (x) = 0.27493 0.01863
# Poissons Ratio (y) = 0.27493 0.01863
# Poissons Ratio (z) = 0.05506 0.05506
#
# Static dielectric constant tensor:
#      x y z
#    x 2.707240 0.000000 0.000000 
#    y 0.000000 2.707240 0.000000 
#    z 0.000000 0.000000 2.253980 
# 
# From -- ./inp_files/6290.got.cif
#   From: 2010.05.17/outbox.cif.g08.bks.cpg/sg122_4_cif.got.tgz:6290.got - 2010.05.20 11:37:33.
