data_PCOD9560258
_publ_section_title
;
Structure prediction by ZEFSAII (Michael W. Deem and Ramdas Pophale) SiO2 
 PCOD9560258
Probable space group: I -4 2 M
;
_chemical_formula_sum "Si O2"
_cell_formula_units_Z 88
_cell_length_a 18.776118
_cell_length_b 18.776118
_cell_length_c 13.691434
_cell_angle_alpha 90.000000
_cell_angle_beta 90.000000
_cell_angle_gamma 90.000000
_cell_volume 4826.813838
_symmetry_space_group_name_H-M "I -4 2 M"
_symmetry_group_IT_number 121
_symmetry_cell_setting 'tetragonal'
loop_
_space_group_symop_operation_xyz
x,y,z
y,-x,-z
-x,-y,z
-y,x,-z
x,-y,-z
-x,y,-z
-y,-x,z
y,x,z
1/2+x,1/2+y,1/2+z
1/2+y,1/2-x,1/2-z
1/2-x,1/2-y,1/2+z
1/2-y,1/2+x,1/2-z
1/2+x,1/2-y,1/2-z
1/2-x,1/2+y,1/2-z
1/2-y,1/2-x,1/2+z
1/2+y,1/2+x,1/2+z
loop_
_atom_site_type_symbol
_atom_site_label
_atom_site_fract_x
_atom_site_fract_y
_atom_site_fract_z
Si Si1 0.784423 0.663070 0.507018
Si Si2 0.000000 0.118133 0.500000
Si Si3 0.714584 0.516612 0.806503
Si Si4 0.666806 0.216914 0.180652
Si Si5 0.744335 0.860343 0.650357
Si Si6 0.676980 0.555800 0.587134
O O1 0.721743 0.721743 0.516961
O O2 0.803014 0.657738 0.393575
O O3 0.853960 0.702996 0.548716
O O4 0.752035 0.593633 0.557353
O O5 0.015744 0.162990 0.401625
O O6 0.932572 0.067429 0.480792
O O7 0.766949 0.583786 0.819384
O O8 0.750180 0.439272 0.810795
O O9 0.680717 0.526142 0.697986
O O10 0.709285 0.290715 0.158851
O O11 0.694759 0.190051 0.283943
O O12 0.821080 0.821080 0.645511
O O13 0.662228 0.500000 0.500000
O O14 0.615862 0.615862 0.585959
#
# Coordination Sequence:
#
# PCOD9560258 Si02
#       6
#    16   8  16  16  16  16
#     4   9  18  35  56  80 110 146 197 251 293 343
#     4  11  24  38  54  84 128 169 198 238 298 367
#     4  12  22  37  61  89 120 159 204 254 305 361
#     4  10  19  34  57  83 113 150 195 251 302 351
#     4  10  20  35  56  84 114 150 199 249 297 349
#     4  11  23  39  59  87 124 165 204 247 298 363
#
# _framework density 18.231489
#
# number of rings (size 3 to 8) (size 9 to 14) (size 15 to 20)
#    0.000    1.545    1.818    4.364    0.000    4.545 
#    0.000    0.000    0.000    0.545    0.000    1.273 
#    0.000    0.000    0.000    0.000    0.000    0.000 
#
# Total GULP energy -245146.550388 kJ/mol
# GULP energy per Si atom -5571.512509 kJ/mol
# Density = 1.818999 g / cm^3
# Si number density = 18.231489 Si / 1000 Ang^3
#
#
#
# Elastic Constant Matrix: (Units=GPa)
#
#
# Indices 1 2 3 4 5 6 
#
# 1 51.2620 34.6322 10.9490 0.0000 0.0000 0.0000
# 2 34.6322 51.2649 10.9503 0.0000 0.0000 0.0000
# 3 10.9490 10.9503 92.8476 0.0000 0.0000 0.0000
# 4 0.0000 0.0000 0.0000 29.1225 0.0000 0.0000
# 5 0.0000 0.0000 0.0000 0.0000 29.1225 0.0000
# 6 0.0000 0.0000 0.0000 0.0000 0.0000 25.0955
#
#
#
# Elastic Compliance Matrix: (Units=1/GPa)
#
#
# Indices 1 2 3 4 5 6 
#
# 1 0.036066 -0.024062 -0.001415 0.000000 0.000000 0.000000
# 2 -0.024062 0.036064 -0.001416 0.000000 0.000000 0.000000
# 3 -0.001415 -0.001416 0.011104 0.000000 0.000000 0.000000
# 4 0.000000 0.000000 0.000000 0.034338 0.000000 0.000000
# 5 0.000000 0.000000 0.000000 0.000000 0.034338 0.000000
# 6 0.000000 0.000000 0.000000 0.000000 0.000000 0.039848
#
#
# Mechanical properties :
#
#
# Convention : Reuss Voigt Hill
#
# Bulk Modulus (GPa) = 33.95821 34.27084 34.11452
# Shear Modulus (GPa) = 19.58012 25.92431 22.75222
#
# Velocity S-wave (km/s) = 3.28071 3.77497 3.53648
# Velocity P-wave (km/s) = 5.74607 6.15134 5.95215
#
# Compressibility (1/GPa) = 0.02944796
#
# Stress axis : x y z
#
# Youngs Moduli (GPa) = 27.72673 27.72813 90.05591
#
# Poissons Ratio (x) = 0.66721 0.12745
# Poissons Ratio (y) = 0.66717 0.12750
# Poissons Ratio (z) = 0.03924 0.03926
#
# Static dielectric constant tensor:
#      x y z
#    x 1.619770 0.000000 0.000000 
#    y 0.000000 1.619780 0.000000 
#    z 0.000000 0.000000 1.671320 
# 
# From -- ./inp_files/4394.got.cif
#   From: 2010.05.17/outbox.cif.g08.bks.cpg/sg121_3_cif.got.tgz:4394.got - 2010.05.20 11:32:06.
