data_PCOD9560283
_publ_section_title
;
Structure prediction by ZEFSAII (Michael W. Deem and Ramdas Pophale) SiO2 
 PCOD9560283
Probable space group: I -4 2 M
;
_chemical_formula_sum "Si O2"
_cell_formula_units_Z 112
_cell_length_a 17.624369
_cell_length_b 17.624369
_cell_length_c 21.691832
_cell_angle_alpha 90.000000
_cell_angle_beta 90.000000
_cell_angle_gamma 90.000000
_cell_volume 6737.881773
_symmetry_space_group_name_H-M "I -4 2 M"
_symmetry_group_IT_number 121
_symmetry_cell_setting 'tetragonal'
loop_
_space_group_symop_operation_xyz
x,y,z
y,-x,-z
-x,-y,z
-y,x,-z
x,-y,-z
-x,y,-z
-y,-x,z
y,x,z
1/2+x,1/2+y,1/2+z
1/2+y,1/2-x,1/2-z
1/2-x,1/2-y,1/2+z
1/2-y,1/2+x,1/2-z
1/2+x,1/2-y,1/2-z
1/2-x,1/2+y,1/2-z
1/2-y,1/2-x,1/2+z
1/2+y,1/2+x,1/2+z
loop_
_atom_site_type_symbol
_atom_site_label
_atom_site_fract_x
_atom_site_fract_y
_atom_site_fract_z
Si Si1 0.416446 0.913539 0.075381
Si Si2 0.584971 0.909086 0.572473
Si Si3 0.281533 0.405010 0.251787
Si Si4 0.345920 0.772600 0.615366
Si Si5 0.811936 0.063791 0.808879
Si Si6 0.814106 0.311201 0.843349
Si Si7 0.465977 0.340663 0.431576
O O1 0.503848 0.902200 0.092273
O O2 0.360837 0.852999 0.104352
O O3 0.390728 0.998890 0.093251
O O4 0.409635 0.911859 0.001407
O O5 0.645005 0.852140 0.600328
O O6 0.360797 0.360797 0.241379
O O7 0.248916 0.373202 0.316348
O O8 0.295662 0.493789 0.263115
O O9 0.223431 0.375127 0.200236
O O10 0.264471 0.735530 0.605037
O O11 0.406057 0.728686 0.571601
O O12 0.885348 0.114652 0.793169
O O13 0.740510 0.121038 0.811383
O O14 0.826446 0.026940 0.877202
O O15 0.747457 0.252543 0.860871
O O16 0.500000 0.346106 0.500000
O O17 0.416211 0.416211 0.417788
#
# Coordination Sequence:
#
# PCOD9560283 Si02
#       7
#    16  16  16  16  16  16  16
#     4   9  18  31  49  72  98 126 165 204 243 304
#     4   9  18  32  49  70  96 130 162 204 253 291
#     4   9  19  35  49  68 100 134 168 210 255 292
#     4   9  18  30  47  69  97 134 167 203 249 296
#     4  10  20  33  52  76  99 135 178 212 254 310
#     4  10  21  35  52  74 101 132 171 215 258 309
#     4  10  20  30  44  73 111 146 175 207 250 305
#
# _framework density 16.622433999999998
#
# number of rings (size 3 to 8) (size 9 to 14) (size 15 to 20)
#    0.000    2.571    0.000    4.286    4.000    3.571 
#    0.000    0.000    0.000    1.714    0.000    0.000 
#    0.000    0.000    0.000    3.143    0.000    0.000 
#
# Total GULP energy -312150.458440 kJ/mol
# GULP energy per Si atom -5574.115329 kJ/mol
# Density = 1.658460 g / cm^3
# Si number density = 16.622434 Si / 1000 Ang^3
#
#
#
# Elastic Constant Matrix: (Units=GPa)
#
#
# Indices 1 2 3 4 5 6 
#
# 1 94.6148 51.7130 29.8816 0.0000 0.0000 0.0000
# 2 51.7130 94.6142 29.8816 0.0000 0.0000 0.0000
# 3 29.8816 29.8816 26.9908 0.0000 0.0000 0.0000
# 4 0.0000 0.0000 0.0000 23.0141 0.0000 0.0000
# 5 0.0000 0.0000 0.0000 0.0000 23.0146 0.0000
# 6 0.0000 0.0000 0.0000 0.0000 0.0000 21.0647
#
#
#
# Elastic Compliance Matrix: (Units=1/GPa)
#
#
# Indices 1 2 3 4 5 6 
#
# 1 0.017892 -0.005417 -0.013810 0.000000 0.000000 0.000000
# 2 -0.005417 0.017892 -0.013811 0.000000 0.000000 0.000000
# 3 -0.013810 -0.013811 0.067629 0.000000 0.000000 0.000000
# 4 0.000000 0.000000 0.000000 0.043452 0.000000 0.000000
# 5 0.000000 0.000000 0.000000 0.000000 0.043451 0.000000
# 6 0.000000 0.000000 0.000000 0.000000 0.000000 0.047473
#
#
# Mechanical properties :
#
#
# Convention : Reuss Voigt Hill
#
# Bulk Modulus (GPa) = 26.78390 48.79692 37.79041
# Shear Modulus (GPa) = 15.80727 20.40158 18.10443
#
# Velocity S-wave (km/s) = 3.08711 3.50716 3.30382
# Velocity P-wave (km/s) = 5.37169 6.76905 6.11045
#
# Compressibility (1/GPa) = 0.03733586
#
# Stress axis : x y z
#
# Youngs Moduli (GPa) = 55.89163 55.89102 14.78654
#
# Poissons Ratio (x) = 0.30278 0.20421
# Poissons Ratio (y) = 0.30279 0.20421
# Poissons Ratio (z) = 0.77189 0.77189
#
# Static dielectric constant tensor:
#      x y z
#    x 1.572980 0.000000 0.000000 
#    y 0.000000 1.572980 0.000000 
#    z 0.000000 0.000000 1.550060 
# 
# From -- ./inp_files/6642.got.cif
#   From: 2010.05.17/outbox.cif.g08.bks.cpg/sg121_4_cif.got.tgz:6642.got - 2010.05.20 11:32:06.
