data_PCOD9560308
_publ_section_title
;
Structure prediction by ZEFSAII (Michael W. Deem and Ramdas Pophale) SiO2 
 PCOD9560308
Probable space group: I -4 2 M
;
_chemical_formula_sum "Si O2"
_cell_formula_units_Z 84
_cell_length_a 20.791001
_cell_length_b 20.791001
_cell_length_c 10.031069
_cell_angle_alpha 90.000000
_cell_angle_beta 90.000000
_cell_angle_gamma 90.000000
_cell_volume 4336.087290
_symmetry_space_group_name_H-M "I -4 2 M"
_symmetry_group_IT_number 121
_symmetry_cell_setting 'tetragonal'
loop_
_space_group_symop_operation_xyz
x,y,z
y,-x,-z
-x,-y,z
-y,x,-z
x,-y,-z
-x,y,-z
-y,-x,z
y,x,z
1/2+x,1/2+y,1/2+z
1/2+y,1/2-x,1/2-z
1/2-x,1/2-y,1/2+z
1/2-y,1/2+x,1/2-z
1/2+x,1/2-y,1/2-z
1/2-x,1/2+y,1/2-z
1/2-y,1/2-x,1/2+z
1/2+y,1/2+x,1/2+z
loop_
_atom_site_type_symbol
_atom_site_label
_atom_site_fract_x
_atom_site_fract_y
_atom_site_fract_z
Si Si1 0.310068 0.102217 0.530629
Si Si2 0.009200 0.640447 0.691887
Si Si3 0.303999 0.408232 0.223729
Si Si4 0.972119 0.244038 0.856090
Si Si5 0.500000 0.000000 0.250000
Si Si6 0.253413 0.849205 0.001793
O O1 0.318586 0.056529 0.403092
O O2 0.239110 0.106740 0.593902
O O3 0.338992 0.170919 0.499703
O O4 0.350310 0.063606 0.642271
O O5 0.015662 0.679959 0.828075
O O6 0.023941 0.565101 0.679034
O O7 0.373209 0.373209 0.215038
O O8 0.296690 0.484952 0.251766
O O9 0.269559 0.377395 0.355246
O O10 0.896690 0.234418 0.880239
O O11 0.000000 0.227138 0.000000
O O12 0.217790 0.782211 0.982972
#
# Coordination Sequence:
#
# PCOD9560308 Si02
#       6
#    16  16  16  16   4  16
#     4  10  21  36  51  73 108 146 189 240 276 331
#     4  10  23  37  51  73 108 152 196 235 283 324
#     4   9  19  36  56  79 104 142 185 228 285 339
#     4   9  19  35  57  77 109 145 177 230 284 340
#     4  12  24  34  48  72 102 148 202 240 260 330
#     4  10  20  33  55  81 108 140 182 233 283 335
#
# _framework density 19.372304
#
# number of rings (size 3 to 8) (size 9 to 14) (size 15 to 20)
#    0.000    2.286    0.000    1.714   10.667    1.524 
#    0.000    0.952    0.000    0.571    0.000    4.000 
#    0.000    0.000    0.000    0.000    0.000    0.000 
#
# Total GULP energy -233847.464078 kJ/mol
# GULP energy per Si atom -5567.796764 kJ/mol
# Density = 1.932821 g / cm^3
# Si number density = 19.372304 Si / 1000 Ang^3
#
#
#
# Elastic Constant Matrix: (Units=GPa)
#
#
# Indices 1 2 3 4 5 6 
#
# 1 80.0479 41.8063 13.0492 0.0000 0.0000 0.0000
# 2 41.8063 80.0542 13.0491 0.0000 0.0000 0.0000
# 3 13.0492 13.0491 24.7300 0.0000 0.0000 0.0000
# 4 0.0000 0.0000 0.0000 16.5496 0.0000 0.0000
# 5 0.0000 0.0000 0.0000 0.0000 16.5490 0.0000
# 6 0.0000 0.0000 0.0000 0.0000 0.0000 24.2696
#
#
#
# Elastic Compliance Matrix: (Units=1/GPa)
#
#
# Indices 1 2 3 4 5 6 
#
# 1 0.017700 -0.008448 -0.004882 0.000000 0.000000 0.000000
# 2 -0.008448 0.017699 -0.004881 0.000000 0.000000 0.000000
# 3 -0.004882 -0.004881 0.045589 0.000000 0.000000 0.000000
# 4 0.000000 0.000000 0.000000 0.060424 0.000000 0.000000
# 5 0.000000 0.000000 0.000000 0.000000 0.060427 0.000000
# 6 0.000000 0.000000 0.000000 0.000000 0.000000 0.041204
#
#
# Mechanical properties :
#
#
# Convention : Reuss Voigt Hill
#
# Bulk Modulus (GPa) = 22.43919 35.62681 29.03300
# Shear Modulus (GPa) = 16.98827 19.26881 18.12854
#
# Velocity S-wave (km/s) = 2.96452 3.15724 3.06240
# Velocity P-wave (km/s) = 4.82971 5.63218 5.24631
#
# Compressibility (1/GPa) = 0.04456489
#
# Stress axis : x y z
#
# Youngs Moduli (GPa) = 56.49583 56.50077 21.93527
#
# Poissons Ratio (x) = 0.47731 0.10710
# Poissons Ratio (y) = 0.47726 0.10708
# Poissons Ratio (z) = 0.27583 0.27580
#
# Static dielectric constant tensor:
#      x y z
#    x 1.695090 0.000000 0.000000 
#    y 0.000000 1.695090 0.000000 
#    z 0.000000 0.000000 1.763570 
# 
# From -- ./inp_files/3247.got.cif
#   From: 2010.05.17/outbox.cif.g08.bks.cpg/sg121_2_cif.got.tgz:3247.got - 2010.05.20 11:32:06.
