data_PCOD9560881
_publ_section_title
;
Structure prediction by ZEFSAII (Michael W. Deem and Ramdas Pophale) SiO2 
 PCOD9560881
Probable space group: I -4 2 D
;
_chemical_formula_sum "Si O2"
_cell_formula_units_Z 112
_cell_length_a 15.891149
_cell_length_b 15.891149
_cell_length_c 21.796736
_cell_angle_alpha 90.000000
_cell_angle_beta 90.000000
_cell_angle_gamma 90.000000
_cell_volume 5504.299587
_symmetry_space_group_name_H-M "I -4 2 D"
_symmetry_group_IT_number 122
_symmetry_cell_setting 'tetragonal'
loop_
_space_group_symop_operation_xyz
x,y,z
y,-x,-z
-x,-y,z
-y,x,-z
x,1/2-y,1/4-z
-x,1/2+y,1/4-z
-y,1/2-x,1/4+z
y,1/2+x,1/4+z
1/2+x,1/2+y,1/2+z
1/2+y,1/2-x,1/2-z
1/2-x,1/2-y,1/2+z
1/2-y,1/2+x,1/2-z
1/2+x,-y,3/4-z
1/2-x,y,3/4-z
1/2-y,-x,3/4+z
1/2+y,x,3/4+z
loop_
_atom_site_type_symbol
_atom_site_label
_atom_site_fract_x
_atom_site_fract_y
_atom_site_fract_z
Si Si1 0.438206 0.072317 0.493260
Si Si2 0.713033 0.300714 0.806654
Si Si3 0.786116 0.978599 0.657259
Si Si4 0.026184 0.362878 0.264718
Si Si5 0.987286 0.778846 0.694563
Si Si6 0.473017 0.866483 0.270385
Si Si7 0.129358 0.224844 0.195028
O O1 0.478797 0.142902 0.449757
O O2 0.395366 0.128189 0.545894
O O3 0.500000 0.000000 0.516952
O O4 0.370983 0.023307 0.452223
O O5 0.750000 0.310338 0.875000
O O6 0.616132 0.279900 0.817965
O O7 0.722127 0.392779 0.777572
O O8 0.756933 0.220949 0.775334
O O9 0.691780 0.015465 0.671564
O O10 0.828446 0.979342 0.589246
O O11 0.094516 0.438958 0.259154
O O12 0.060230 0.288564 0.221336
O O13 0.984327 0.750000 0.625000
O O14 0.046261 0.714234 0.729764
O O15 0.405900 0.940428 0.257873
O O16 0.138475 0.250000 0.125000
#
# Coordination Sequence:
#
# PCOD9560881 Si02
#       7
#    16  16  16  16  16  16  16
#     4  11  24  41  65  93 132 172 219 273 338 396
#     4  10  20  37  63  87 126 168 213 264 334 403
#     4  11  22  42  65  94 134 174 219 284 343 407
#     4  10  21  41  67  95 127 174 227 284 344 401
#     4  11  23  39  62  94 131 168 213 265 329 407
#     4  11  25  40  66  98 132 173 225 271 341 423
#     4  10  23  42  65  91 126 170 220 273 335 408
#
# _framework density 20.347729999999999
#
# number of rings (size 3 to 8) (size 9 to 14) (size 15 to 20)
#    0.000    1.429    2.857    2.571    8.000    0.000 
#    5.143    0.000    0.000    0.000    0.000    0.000 
#    0.000    0.000    0.000    0.000    0.000    0.000 
#
# Total GULP energy -312054.624068 kJ/mol
# GULP energy per Si atom -5572.404001 kJ/mol
# Density = 2.030142 g / cm^3
# Si number density = 20.347730 Si / 1000 Ang^3
#
#
#
# Elastic Constant Matrix: (Units=GPa)
#
#
# Indices 1 2 3 4 5 6 
#
# 1 129.4213 59.4111 23.1983 0.0000 0.0000 0.0000
# 2 59.4111 129.4213 23.1983 0.0000 0.0000 0.0000
# 3 23.1983 23.1983 60.9691 0.0000 0.0000 0.0000
# 4 0.0000 0.0000 0.0000 23.5905 0.0000 0.0000
# 5 0.0000 0.0000 0.0000 0.0000 23.5905 0.0000
# 6 0.0000 0.0000 0.0000 0.0000 0.0000 28.5564
#
#
#
# Elastic Compliance Matrix: (Units=1/GPa)
#
#
# Indices 1 2 3 4 5 6 
#
# 1 0.010063 -0.004221 -0.002223 0.000000 0.000000 0.000000
# 2 -0.004221 0.010063 -0.002223 0.000000 0.000000 0.000000
# 3 -0.002223 -0.002223 0.018093 0.000000 0.000000 0.000000
# 4 0.000000 0.000000 0.000000 0.042390 0.000000 0.000000
# 5 0.000000 0.000000 0.000000 0.000000 0.042390 0.000000
# 6 0.000000 0.000000 0.000000 0.000000 0.000000 0.035018
#
#
# Mechanical properties :
#
#
# Convention : Reuss Voigt Hill
#
# Bulk Modulus (GPa) = 47.87935 59.04746 53.46341
# Shear Modulus (GPa) = 27.42552 29.41441 28.41996
#
# Velocity S-wave (km/s) = 3.67528 3.80621 3.74132
# Velocity P-wave (km/s) = 6.44918 6.95690 6.70785
#
# Compressibility (1/GPa) = 0.02088583
#
# Stress axis : x y z
#
# Youngs Moduli (GPa) = 99.37654 99.37654 55.26923
#
# Poissons Ratio (x) = 0.41946 0.12285
# Poissons Ratio (y) = 0.41946 0.12285
# Poissons Ratio (z) = 0.22089 0.22089
#
# Static dielectric constant tensor:
#      x y z
#    x 1.809260 0.000000 0.000000 
#    y 0.000000 1.809260 0.000000 
#    z 0.000000 0.000000 1.743840 
# 
# From -- ./inp_files/8144.got.cif
#   From: 2010.05.17/outbox.cif.g08.bks.cpg/sg122_5_cif.got.tgz:8144.got - 2010.05.20 11:37:33.
