data_PCOD9560756
_publ_section_title
;
Structure prediction by ZEFSAII (Michael W. Deem and Ramdas Pophale) SiO2 
 PCOD9560756
Probable space group: I -4 2 D
;
_chemical_formula_sum "Si O2"
_cell_formula_units_Z 96
_cell_length_a 22.792620
_cell_length_b 22.792620
_cell_length_c 9.252499
_cell_angle_alpha 90.000000
_cell_angle_beta 90.000000
_cell_angle_gamma 90.000000
_cell_volume 4806.705859
_symmetry_space_group_name_H-M "I -4 2 D"
_symmetry_group_IT_number 122
_symmetry_cell_setting 'tetragonal'
loop_
_space_group_symop_operation_xyz
x,y,z
y,-x,-z
-x,-y,z
-y,x,-z
x,1/2-y,1/4-z
-x,1/2+y,1/4-z
-y,1/2-x,1/4+z
y,1/2+x,1/4+z
1/2+x,1/2+y,1/2+z
1/2+y,1/2-x,1/2-z
1/2-x,1/2-y,1/2+z
1/2-y,1/2+x,1/2-z
1/2+x,-y,3/4-z
1/2-x,y,3/4-z
1/2-y,-x,3/4+z
1/2+y,x,3/4+z
loop_
_atom_site_type_symbol
_atom_site_label
_atom_site_fract_x
_atom_site_fract_y
_atom_site_fract_z
Si Si1 0.906577 0.694152 0.776137
Si Si2 0.191626 0.984645 0.775608
Si Si3 0.476943 0.090087 0.749996
Si Si4 0.065107 0.756636 0.800615
Si Si5 0.455007 0.173601 0.984362
Si Si6 0.191731 0.771036 0.463538
O O1 0.947404 0.663580 0.654670
O O2 0.919505 0.764708 0.780122
O O3 0.840818 0.681480 0.727991
O O4 0.925721 0.676576 0.935832
O O5 0.250000 0.978374 0.875000
O O6 0.137227 0.995134 0.879657
O O7 0.207849 0.032929 0.651753
O O8 0.439278 0.036109 0.688259
O O9 0.439066 0.122731 0.874324
O O10 0.065812 0.750000 0.625000
O O11 0.132631 0.758925 0.845818
O O12 0.021380 0.811247 0.813136
O O13 0.201842 0.750000 0.625000
O O14 0.250000 0.759473 0.375000
#
# Coordination Sequence:
#
# PCOD9560756 Si02
#       6
#    16  16  16  16  16  16
#     4  10  20  40  68  91 123 176 222 252 320 393
#     4  11  21  40  69  95 116 171 229 255 327 389
#     4  11  26  43  62  97 133 163 211 280 332 376
#     4  10  20  39  65  92 125 164 222 266 306 392
#     4  10  18  43  70  81 127 173 215 266 311 389
#     4  11  25  41  59 100 142 168 207 270 340 396
#
# _framework density 19.972096000000001
#
# number of rings (size 3 to 8) (size 9 to 14) (size 15 to 20)
#    0.000    1.500    8.333    0.000    2.333    4.000 
#    3.000    0.000    0.000    2.000    0.000    0.000 
#    0.000    0.000    0.000    0.000    0.000    0.000 
#
# Total GULP energy -267222.644120 kJ/mol
# GULP energy per Si atom -5567.138419 kJ/mol
# Density = 1.992664 g / cm^3
# Si number density = 19.972096 Si / 1000 Ang^3
#
#
#
# Elastic Constant Matrix: (Units=GPa)
#
#
# Indices 1 2 3 4 5 6 
#
# 1 53.0690 22.7259 19.5523 0.0000 0.0000 0.0000
# 2 22.7259 53.0690 19.5523 0.0000 0.0000 0.0000
# 3 19.5523 19.5523 91.7505 0.0000 0.0000 0.0000
# 4 0.0000 0.0000 0.0000 29.1712 0.0000 0.0000
# 5 0.0000 0.0000 0.0000 0.0000 29.1712 0.0000
# 6 0.0000 0.0000 0.0000 0.0000 0.0000 8.7014
#
#
#
# Elastic Compliance Matrix: (Units=1/GPa)
#
#
# Indices 1 2 3 4 5 6 
#
# 1 0.023890 -0.009067 -0.003159 0.000000 0.000000 0.000000
# 2 -0.009067 0.023890 -0.003159 0.000000 0.000000 0.000000
# 3 -0.003159 -0.003159 0.012245 0.000000 0.000000 0.000000
# 4 0.000000 0.000000 0.000000 0.034280 0.000000 0.000000
# 5 0.000000 0.000000 0.000000 0.000000 0.034280 0.000000
# 6 0.000000 0.000000 0.000000 0.000000 0.000000 0.114924
#
#
# Mechanical properties :
#
#
# Convention : Reuss Voigt Hill
#
# Bulk Modulus (GPa) = 34.18053 35.72774 34.95414
# Shear Modulus (GPa) = 17.60373 22.47929 20.04151
#
# Velocity S-wave (km/s) = 2.97209 3.35854 3.17121
# Velocity P-wave (km/s) = 5.37857 5.74172 5.56311
#
# Compressibility (1/GPa) = 0.02925642
#
# Stress axis : x y z
#
# Youngs Moduli (GPa) = 41.85881 41.85881 81.66296
#
# Poissons Ratio (x) = 0.37952 0.25796
# Poissons Ratio (y) = 0.37952 0.25796
# Poissons Ratio (z) = 0.13223 0.13223
#
# Static dielectric constant tensor:
#      x y z
#    x 1.733030 0.000000 0.000000 
#    y 0.000000 1.733030 0.000000 
#    z 0.000000 0.000000 1.742430 
# 
# From -- ./inp_files/2918.got.cif
#   From: 2010.05.17/outbox.cif.g08.bks.cpg/sg122_2_cif.got.tgz:2918.got - 2010.05.20 11:37:33.
