data_PCOD9560055
_publ_section_title
;
Structure prediction by ZEFSAII (Michael W. Deem and Ramdas Pophale) SiO2 
 PCOD9560055
Probable space group: I -4 C 2
;
_chemical_formula_sum "Si O2"
_cell_formula_units_Z 64
_cell_length_a 12.026372
_cell_length_b 12.026372
_cell_length_c 19.478425
_cell_angle_alpha 90.000000
_cell_angle_beta 90.000000
_cell_angle_gamma 90.000000
_cell_volume 2817.235187
_symmetry_space_group_name_H-M "I -4 C 2"
_symmetry_group_IT_number 120
_symmetry_cell_setting 'tetragonal'
loop_
_space_group_symop_operation_xyz
x,y,z
y,-x,-z
-x,-y,z
-y,x,-z
y,x,1/2-z
-y,-x,1/2-z
-x,y,1/2+z
x,-y,1/2+z
1/2+x,1/2+y,1/2+z
1/2+y,1/2-x,1/2-z
1/2-x,1/2-y,1/2+z
1/2-y,1/2+x,1/2-z
1/2+y,1/2+x,-z
1/2-y,1/2-x,-z
1/2-x,1/2+y,z
1/2+x,1/2-y,z
loop_
_atom_site_type_symbol
_atom_site_label
_atom_site_fract_x
_atom_site_fract_y
_atom_site_fract_z
Si Si1 0.235901 0.436436 0.341815
Si Si2 0.502150 0.183029 0.511058
Si Si3 0.124725 0.029283 0.600939
Si Si4 0.401561 0.251052 0.787032
O O1 0.217270 0.508075 0.409842
O O2 0.349511 0.372310 0.362452
O O3 0.241668 0.507508 0.272511
O O4 0.129601 0.357305 0.329993
O O5 0.621834 0.121834 0.500000
O O6 0.483475 0.286506 0.460170
O O7 0.408740 0.091260 0.500000
O O8 0.156542 0.942281 0.660177
O O9 0.000000 0.000000 0.578985
O O10 0.289132 0.289132 0.750000
#
# Coordination Sequence:
#
# PCOD9560055 Si02
#       4
#    16  16  16  16
#     4  12  29  45  80 113 152 204 251 323 388 463
#     4  11  28  52  77 111 152 202 261 317 383 463
#     4  12  27  50  78 111 156 202 258 321 386 464
#     4  12  26  49  75 114 152 200 258 315 385 467
#
# _framework density 22.717307000000002
#
# number of rings (size 3 to 8) (size 9 to 14) (size 15 to 20)
#    0.000    0.250    5.000    2.250   10.500    1.500 
#    0.000    0.000    0.000    0.000    0.000    0.000 
#    0.000    0.000    0.000    0.000    0.000    0.000 
#
# Total GULP energy -179103.613345 kJ/mol
# GULP energy per Si atom -5596.987917 kJ/mol
# Density = 2.266560 g / cm^3
# Si number density = 22.717307 Si / 1000 Ang^3
#
#
#
# Elastic Constant Matrix: (Units=GPa)
#
#
# Indices 1 2 3 4 5 6 
#
# 1 98.6860 52.1911 56.9255 0.0000 0.0000 0.0000
# 2 52.1911 98.6887 56.9275 0.0000 0.0000 0.0000
# 3 56.9255 56.9275 161.2713 0.0000 0.0000 0.0000
# 4 0.0000 0.0000 0.0000 32.9732 0.0000 0.0000
# 5 0.0000 0.0000 0.0000 0.0000 32.9732 0.0000
# 6 0.0000 0.0000 0.0000 0.0000 0.0000 33.5911
#
#
#
# Elastic Compliance Matrix: (Units=1/GPa)
#
#
# Indices 1 2 3 4 5 6 
#
# 1 0.015271 -0.006236 -0.003189 0.000000 0.000000 0.000000
# 2 -0.006236 0.015271 -0.003189 0.000000 0.000000 0.000000
# 3 -0.003189 -0.003189 0.008452 0.000000 0.000000 0.000000
# 4 0.000000 0.000000 0.000000 0.030328 0.000000 0.000000
# 5 0.000000 0.000000 0.000000 0.000000 0.030328 0.000000
# 6 0.000000 0.000000 0.000000 0.000000 0.000000 0.029770
#
#
# Mechanical properties :
#
#
# Convention : Reuss Voigt Hill
#
# Bulk Modulus (GPa) = 72.64967 76.74826 74.69896
# Shear Modulus (GPa) = 31.40003 32.74762 32.07383
#
# Velocity S-wave (km/s) = 3.72184 3.80086 3.76156
# Velocity P-wave (km/s) = 7.10765 7.28831 7.19855
#
# Compressibility (1/GPa) = 0.01376469
#
# Stress axis : x y z
#
# Youngs Moduli (GPa) = 65.48436 65.48555 118.31452
#
# Poissons Ratio (x) = 0.40840 0.37729
# Poissons Ratio (y) = 0.40839 0.37731
# Poissons Ratio (z) = 0.20882 0.20884
#
# Static dielectric constant tensor:
#      x y z
#    x 1.871460 0.000000 0.000000 
#    y 0.000000 1.871460 0.000000 
#    z 0.000000 0.000000 1.822450 
# 
# From -- ./inp_files/5007.got.cif
#   From: 2010.05.17/outbox.cif.g08.bks.cpg/sg120_3_cif.got.tgz:5007.got - 2010.05.20 11:28:13.
