data_PCOD9560513
_publ_section_title
;
Structure prediction by ZEFSAII (Michael W. Deem and Ramdas Pophale) SiO2 
 PCOD9560513
Probable space group: I -4 2 M
;
_chemical_formula_sum "Si O2"
_cell_formula_units_Z 52
_cell_length_a 14.415971
_cell_length_b 14.415971
_cell_length_c 9.522892
_cell_angle_alpha 90.000000
_cell_angle_beta 90.000000
_cell_angle_gamma 90.000000
_cell_volume 1979.049509
_symmetry_space_group_name_H-M "I -4 2 M"
_symmetry_group_IT_number 121
_symmetry_cell_setting 'tetragonal'
loop_
_space_group_symop_operation_xyz
x,y,z
y,-x,-z
-x,-y,z
-y,x,-z
x,-y,-z
-x,y,-z
-y,-x,z
y,x,z
1/2+x,1/2+y,1/2+z
1/2+y,1/2-x,1/2-z
1/2-x,1/2-y,1/2+z
1/2-y,1/2+x,1/2-z
1/2+x,1/2-y,1/2-z
1/2-x,1/2+y,1/2-z
1/2-y,1/2-x,1/2+z
1/2+y,1/2+x,1/2+z
loop_
_atom_site_type_symbol
_atom_site_label
_atom_site_fract_x
_atom_site_fract_y
_atom_site_fract_z
Si Si1 0.019339 0.684885 0.190913
Si Si2 0.647040 0.647040 0.982836
Si Si3 0.500000 0.500000 0.000000
Si Si4 0.127453 0.872548 0.185572
Si Si5 0.000000 0.000000 0.000000
Si Si6 0.358213 0.885493 0.472284
O O1 0.086032 0.771475 0.152200
O O2 0.038251 0.667529 0.354306
O O3 0.914323 0.688380 0.131635
O O4 0.067522 0.605576 0.097370
O O5 0.572454 0.572454 0.919463
O O6 0.626816 0.626816 0.146375
O O7 0.634924 0.756975 0.962822
O O8 0.060949 0.939052 0.102349
#
# Coordination Sequence:
#
# PCOD9560513 Si02
#       6
#    16   8   2   8   2  16
#     4  10  22  41  64  97 135 181 229 274 329 397
#     4  10  24  46  68  97 133 178 225 282 347 406
#     4  12  26  48  72  94 124 164 230 292 344 414
#     4  10  22  38  62  96 130 169 223 275 332 393
#     4  12  18  32  64  90 120 156 198 280 340 394
#     4  10  22  41  66  96 136 177 226 277 336 399
#
# _framework density 26.275237000000001
#
# number of rings (size 3 to 8) (size 9 to 14) (size 15 to 20)
#    0.000    1.846    0.000    3.231    0.000    8.000 
#    0.000   10.769    0.000    0.000    0.000    0.000 
#    0.000    0.000    0.000    0.000    0.000    0.000 
#
# Total GULP energy -144768.687708 kJ/mol
# GULP energy per Si atom -5568.026450 kJ/mol
# Density = 2.621543 g / cm^3
# Si number density = 26.275237 Si / 1000 Ang^3
#
#
#
# Elastic Constant Matrix: (Units=GPa)
#
#
# Indices 1 2 3 4 5 6 
#
# 1 156.7708 82.3029 -11.1667 0.0000 0.0000 0.0000
# 2 82.3029 156.7694 -11.1663 0.0000 0.0000 0.0000
# 3 -11.1667 -11.1663 72.1205 0.0000 0.0000 0.0000
# 4 0.0000 0.0000 0.0000 66.4181 0.0000 0.0000
# 5 0.0000 0.0000 0.0000 0.0000 66.4417 0.0000
# 6 0.0000 0.0000 0.0000 0.0000 0.0000 55.9109
#
#
#
# Elastic Compliance Matrix: (Units=1/GPa)
#
#
# Indices 1 2 3 4 5 6 
#
# 1 0.008836 -0.004592 0.000657 0.000000 0.000000 0.000000
# 2 -0.004592 0.008837 0.000657 0.000000 0.000000 0.000000
# 3 0.000657 0.000657 0.014069 0.000000 0.000000 0.000000
# 4 0.000000 0.000000 0.000000 0.015056 0.000000 0.000000
# 5 0.000000 0.000000 0.000000 0.000000 0.015051 0.000000
# 6 0.000000 0.000000 0.000000 0.000000 0.000000 0.017886
#
#
# Mechanical properties :
#
#
# Convention : Reuss Voigt Hill
#
# Bulk Modulus (GPa) = 39.70437 56.17782 47.94109
# Shear Modulus (GPa) = 52.80612 59.46686 56.13649
#
# Velocity S-wave (km/s) = 4.48786 4.76250 4.62722
# Velocity P-wave (km/s) = 6.48061 7.18810 6.84351
#
# Compressibility (1/GPa) = 0.02518614
#
# Stress axis : x y z
#
# Youngs Moduli (GPa) = 113.16783 113.16696 71.07735
#
# Poissons Ratio (x) = 0.51969 -0.04671
# Poissons Ratio (y) = 0.51970 -0.04670
# Poissons Ratio (z) = -0.07437 -0.07436
#
# Static dielectric constant tensor:
#      x y z
#    x 1.885750 0.000000 0.000000 
#    y 0.000000 1.885530 0.000000 
#    z 0.000000 0.000000 2.120690 
# 
# From -- ./inp_files/2802.got.cif
#   From: 2010.05.17/outbox.cif.g08.bks.cpg/sg121_2_cif.got.tgz:2802.got - 2010.05.20 11:32:06.
