data_PCOD9560523
_publ_section_title
;
Structure prediction by ZEFSAII (Michael W. Deem and Ramdas Pophale) SiO2 
 PCOD9560523
Probable space group: I -4 2 M
;
_chemical_formula_sum "Si O2"
_cell_formula_units_Z 52
_cell_length_a 15.020412
_cell_length_b 15.020412
_cell_length_c 11.693613
_cell_angle_alpha 90.000000
_cell_angle_beta 90.000000
_cell_angle_gamma 90.000000
_cell_volume 2638.228498
_symmetry_space_group_name_H-M "I -4 2 M"
_symmetry_group_IT_number 121
_symmetry_cell_setting 'tetragonal'
loop_
_space_group_symop_operation_xyz
x,y,z
y,-x,-z
-x,-y,z
-y,x,-z
x,-y,-z
-x,y,-z
-y,-x,z
y,x,z
1/2+x,1/2+y,1/2+z
1/2+y,1/2-x,1/2-z
1/2-x,1/2-y,1/2+z
1/2-y,1/2+x,1/2-z
1/2+x,1/2-y,1/2-z
1/2-x,1/2+y,1/2-z
1/2-y,1/2-x,1/2+z
1/2+y,1/2+x,1/2+z
loop_
_atom_site_type_symbol
_atom_site_label
_atom_site_fract_x
_atom_site_fract_y
_atom_site_fract_z
Si Si1 0.052556 0.197813 0.825056
Si Si2 0.000000 0.500000 0.250000
Si Si3 0.760262 0.622725 0.562102
Si Si4 0.042275 0.666377 0.380589
O O1 0.103023 0.103023 0.814814
O O2 0.054021 0.253661 0.708618
O O3 0.951615 0.202065 0.871888
O O4 0.103715 0.249438 0.927405
O O5 0.983614 0.587201 0.326196
O O6 0.718191 0.718191 0.588185
O O7 0.862204 0.621193 0.596711
O O8 0.000000 0.696129 0.500000
#
# Coordination Sequence:
#
# PCOD9560523 Si02
#       4
#    16   4  16  16
#     4  10  22  41  62  90 124 162 214 262 310 374
#     4  12  22  36  60  90 128 162 212 260 314 384
#     4  10  22  40  63  89 122 167 216 258 309 373
#     4  12  23  37  60  95 131 165 204 261 328 384
#
# _framework density 19.710194999999999
#
# number of rings (size 3 to 8) (size 9 to 14) (size 15 to 20)
#    0.000    1.231    3.077    3.231    4.308    0.615 
#    0.000    4.615    0.000    0.000    0.000    0.000 
#    0.000    0.000    0.000    0.000    0.000    0.000 
#
# Total GULP energy -145135.896587 kJ/mol
# GULP energy per Si atom -5582.149869 kJ/mol
# Density = 1.966533 g / cm^3
# Si number density = 19.710195 Si / 1000 Ang^3
#
#
#
# Elastic Constant Matrix: (Units=GPa)
#
#
# Indices 1 2 3 4 5 6 
#
# 1 52.6859 32.0581 43.0884 0.0000 0.0000 0.0000
# 2 32.0581 52.6859 43.0884 0.0000 0.0000 0.0000
# 3 43.0884 43.0884 141.7438 0.0000 0.0000 0.0000
# 4 0.0000 0.0000 0.0000 15.0207 0.0000 0.0000
# 5 0.0000 0.0000 0.0000 0.0000 15.0207 0.0000
# 6 0.0000 0.0000 0.0000 0.0000 0.0000 28.6584
#
#
#
# Elastic Compliance Matrix: (Units=1/GPa)
#
#
# Indices 1 2 3 4 5 6 
#
# 1 0.032779 -0.015699 -0.005192 0.000000 0.000000 0.000000
# 2 -0.015699 0.032779 -0.005192 0.000000 0.000000 0.000000
# 3 -0.005192 -0.005192 0.010212 0.000000 0.000000 0.000000
# 4 0.000000 0.000000 0.000000 0.066575 0.000000 0.000000
# 5 0.000000 0.000000 0.000000 0.000000 0.066575 0.000000
# 6 0.000000 0.000000 0.000000 0.000000 0.000000 0.034894
#
#
# Mechanical properties :
#
#
# Convention : Reuss Voigt Hill
#
# Bulk Modulus (GPa) = 42.36674 53.73172 48.04923
# Shear Modulus (GPa) = 16.45560 20.33202 18.39381
#
# Velocity S-wave (km/s) = 2.89256 3.21526 3.05817
# Velocity P-wave (km/s) = 5.71816 6.41123 6.07459
#
# Compressibility (1/GPa) = 0.02360342
#
# Stress axis : x y z
#
# Youngs Moduli (GPa) = 30.50708 30.50708 97.92684
#
# Poissons Ratio (x) = 0.47893 0.50845
# Poissons Ratio (y) = 0.47893 0.50845
# Poissons Ratio (z) = 0.15840 0.15840
#
# Static dielectric constant tensor:
#      x y z
#    x 1.677520 0.000000 0.000000 
#    y 0.000000 1.677520 0.000000 
#    z 0.000000 0.000000 1.684870 
# 
# From -- ./inp_files/1260.got.cif
#   From: 2010.05.17/outbox.cif.g08.bks.cpg/sg121_1_cif.got.tgz:1260.got - 2010.05.20 11:32:06.
