data_PCOD9560366
_publ_section_title
;
Structure prediction by ZEFSAII (Michael W. Deem and Ramdas Pophale) SiO2 
 PCOD9560366
Probable space group: I -4 2 M
;
_chemical_formula_sum "Si O2"
_cell_formula_units_Z 60
_cell_length_a 17.076534
_cell_length_b 17.076534
_cell_length_c 8.793654
_cell_angle_alpha 90.000000
_cell_angle_beta 90.000000
_cell_angle_gamma 90.000000
_cell_volume 2564.299974
_symmetry_space_group_name_H-M "I -4 2 M"
_symmetry_group_IT_number 121
_symmetry_cell_setting 'tetragonal'
loop_
_space_group_symop_operation_xyz
x,y,z
y,-x,-z
-x,-y,z
-y,x,-z
x,-y,-z
-x,y,-z
-y,-x,z
y,x,z
1/2+x,1/2+y,1/2+z
1/2+y,1/2-x,1/2-z
1/2-x,1/2-y,1/2+z
1/2-y,1/2+x,1/2-z
1/2+x,1/2-y,1/2-z
1/2-x,1/2+y,1/2-z
1/2-y,1/2-x,1/2+z
1/2+y,1/2+x,1/2+z
loop_
_atom_site_type_symbol
_atom_site_label
_atom_site_fract_x
_atom_site_fract_y
_atom_site_fract_z
Si Si1 0.000000 0.765596 0.000000
Si Si2 0.263675 0.926764 0.301071
Si Si3 0.832751 0.832751 0.096332
Si Si4 0.382263 0.000000 0.500000
Si Si5 0.373488 0.500000 0.000000
Si Si6 0.000000 0.500000 0.750000
Si Si7 0.754897 0.754897 0.824265
O O1 0.020820 0.718766 0.152621
O O2 0.921611 0.813870 0.045661
O O3 0.326823 0.934377 0.432726
O O4 0.264771 0.839182 0.244372
O O5 0.182686 0.960260 0.373095
O O6 0.808904 0.808904 0.269328
O O7 0.775046 0.775046 0.999081
O O8 0.434297 0.030878 0.362903
O O9 0.431622 0.568379 0.059746
#
# Coordination Sequence:
#
# PCOD9560366 Si02
#       7
#     8  16   8   8   8   4   8
#     4  10  24  43  66 103 134 180 234 286 348 415
#     4  10  22  41  64  98 132 176 223 279 343 408
#     4  10  24  43  68  94 139 177 231 287 343 416
#     4  10  24  42  70  94 134 168 224 290 336 420
#     4  10  20  36  62  94 134 174 218 270 326 406
#     4  10  24  46  64  98 124 178 228 278 360 390
#     4  10  22  42  63  93 132 175 223 271 339 412
#
# _framework density 23.398199999999999
#
# number of rings (size 3 to 8) (size 9 to 14) (size 15 to 20)
#    0.000    2.000    1.333    0.000    1.867   13.067 
#    0.000    0.000    0.000    0.000    0.000    0.000 
#    0.000    0.000    0.000    0.000    0.000    0.000 
#
# Total GULP energy -167619.404720 kJ/mol
# GULP energy per Si atom -5587.313491 kJ/mol
# Density = 2.334494 g / cm^3
# Si number density = 23.398200 Si / 1000 Ang^3
#
#
#
# Elastic Constant Matrix: (Units=GPa)
#
#
# Indices 1 2 3 4 5 6 
#
# 1 91.2457 32.3477 41.0967 0.0000 0.0000 0.0000
# 2 32.3477 91.2454 41.0975 0.0000 0.0000 0.0000
# 3 41.0967 41.0975 95.0878 0.0000 0.0000 0.0000
# 4 0.0000 0.0000 0.0000 26.7661 0.0000 0.0000
# 5 0.0000 0.0000 0.0000 0.0000 26.7663 0.0000
# 6 0.0000 0.0000 0.0000 0.0000 0.0000 10.2357
#
#
#
# Elastic Compliance Matrix: (Units=1/GPa)
#
#
# Indices 1 2 3 4 5 6 
#
# 1 0.014167 -0.002812 -0.004907 0.000000 0.000000 0.000000
# 2 -0.002812 0.014167 -0.004908 0.000000 0.000000 0.000000
# 3 -0.004907 -0.004908 0.014759 0.000000 0.000000 0.000000
# 4 0.000000 0.000000 0.000000 0.037361 0.000000 0.000000
# 5 0.000000 0.000000 0.000000 0.000000 0.037360 0.000000
# 6 0.000000 0.000000 0.000000 0.000000 0.000000 0.097697
#
#
# Mechanical properties :
#
#
# Convention : Reuss Voigt Hill
#
# Bulk Modulus (GPa) = 56.05999 56.29585 56.17792
# Shear Modulus (GPa) = 20.26667 23.62275 21.94471
#
# Velocity S-wave (km/s) = 2.94626 3.18086 3.06581
# Velocity P-wave (km/s) = 5.96532 6.13210 6.04928
#
# Compressibility (1/GPa) = 0.01783803
#
# Stress axis : x y z
#
# Youngs Moduli (GPa) = 70.58876 70.58783 67.75666
#
# Poissons Ratio (x) = 0.19849 0.33251
# Poissons Ratio (y) = 0.19849 0.33253
# Poissons Ratio (z) = 0.34641 0.34642
#
# Static dielectric constant tensor:
#      x y z
#    x 1.886510 0.000000 0.000000 
#    y 0.000000 1.886510 0.000000 
#    z 0.000000 0.000000 1.937610 
# 
# From -- ./inp_files/1429.got.cif
#   From: 2010.05.17/outbox.cif.g08.bks.cpg/sg121_1_cif.got.tgz:1429.got - 2010.05.20 11:32:06.
