data_PCOD9560578
_publ_section_title
;
Structure prediction by ZEFSAII (Michael W. Deem and Ramdas Pophale) SiO2 
 PCOD9560578
Probable space group: I -4 2 M
;
_chemical_formula_sum "Si O2"
_cell_formula_units_Z 80
_cell_length_a 14.237610
_cell_length_b 14.237610
_cell_length_c 22.424413
_cell_angle_alpha 90.000000
_cell_angle_beta 90.000000
_cell_angle_gamma 90.000000
_cell_volume 4545.642411
_symmetry_space_group_name_H-M "I -4 2 M"
_symmetry_group_IT_number 121
_symmetry_cell_setting 'tetragonal'
loop_
_space_group_symop_operation_xyz
x,y,z
y,-x,-z
-x,-y,z
-y,x,-z
x,-y,-z
-x,y,-z
-y,-x,z
y,x,z
1/2+x,1/2+y,1/2+z
1/2+y,1/2-x,1/2-z
1/2-x,1/2-y,1/2+z
1/2-y,1/2+x,1/2-z
1/2+x,1/2-y,1/2-z
1/2-x,1/2+y,1/2-z
1/2-y,1/2-x,1/2+z
1/2+y,1/2+x,1/2+z
loop_
_atom_site_type_symbol
_atom_site_label
_atom_site_fract_x
_atom_site_fract_y
_atom_site_fract_z
Si Si1 0.130797 0.281746 0.373094
Si Si2 0.841070 0.310915 0.878796
Si Si3 0.880781 0.602171 0.748351
Si Si4 0.957337 0.197039 0.433653
Si Si5 0.519925 0.894385 0.429959
O O1 0.224538 0.224538 0.384062
O O2 0.125662 0.318806 0.305754
O O3 0.125456 0.372795 0.415016
O O4 0.043083 0.214827 0.388845
O O5 0.788978 0.211023 0.882333
O O6 0.843980 0.346890 0.810612
O O7 0.779650 0.383115 0.918708
O O8 0.947436 0.321151 0.901315
O O9 0.875378 0.489781 0.738679
O O10 0.899907 0.100094 0.427212
O O11 0.000000 0.203793 0.500000
O O12 0.500000 0.896080 0.500000
O O13 0.500000 0.000000 0.405396
#
# Coordination Sequence:
#
# PCOD9560578 Si02
#       5
#    16  16  16  16  16
#     4  12  24  38  61  93 121 156 206 251 298 362
#     4  11  22  38  62  90 118 154 203 249 299 360
#     4  11  20  38  64  87 118 156 195 252 311 352
#     4  11  23  39  59  88 129 169 200 240 303 374
#     4  11  21  38  60  85 122 157 193 242 294 346
#
# _framework density 17.599271999999999
#
# number of rings (size 3 to 8) (size 9 to 14) (size 15 to 20)
#    0.000    0.800    6.000    2.400    0.000    3.800 
#    0.000    0.000    0.000    0.600    0.000    1.400 
#    0.000    0.000    0.000    0.000    0.000    0.000 
#
# Total GULP energy -223484.535242 kJ/mol
# GULP energy per Si atom -5587.113381 kJ/mol
# Density = 1.755922 g / cm^3
# Si number density = 17.599272 Si / 1000 Ang^3
#
#
#
# Elastic Constant Matrix: (Units=GPa)
#
#
# Indices 1 2 3 4 5 6 
#
# 1 98.6652 65.0251 35.8938 0.0000 0.0000 0.0000
# 2 65.0251 98.6667 35.8939 0.0000 0.0000 0.0000
# 3 35.8938 35.8939 86.0259 0.0000 0.0000 0.0000
# 4 0.0000 0.0000 0.0000 12.8670 0.0000 0.0000
# 5 0.0000 0.0000 0.0000 0.0000 12.8670 0.0000
# 6 0.0000 0.0000 0.0000 0.0000 0.0000 31.1603
#
#
#
# Elastic Compliance Matrix: (Units=1/GPa)
#
#
# Indices 1 2 3 4 5 6 
#
# 1 0.018602 -0.011124 -0.003120 0.000000 0.000000 0.000000
# 2 -0.011124 0.018601 -0.003120 0.000000 0.000000 0.000000
# 3 -0.003120 -0.003120 0.014228 0.000000 0.000000 0.000000
# 4 0.000000 0.000000 0.000000 0.077718 0.000000 0.000000
# 5 0.000000 0.000000 0.000000 0.000000 0.077718 0.000000
# 6 0.000000 0.000000 0.000000 0.000000 0.000000 0.032092
#
#
# Mechanical properties :
#
#
# Convention : Reuss Voigt Hill
#
# Bulk Modulus (GPa) = 59.86931 61.88704 60.87818
# Shear Modulus (GPa) = 17.90481 21.14855 19.52668
#
# Velocity S-wave (km/s) = 3.19307 3.47027 3.33455
# Velocity P-wave (km/s) = 6.90552 7.16226 7.03506
#
# Compressibility (1/GPa) = 0.01670305
#
# Stress axis : x y z
#
# Youngs Moduli (GPa) = 53.75856 53.75944 70.28446
#
# Poissons Ratio (x) = 0.59803 0.21928
# Poissons Ratio (y) = 0.59802 0.21928
# Poissons Ratio (z) = 0.16772 0.16772
#
# Static dielectric constant tensor:
#      x y z
#    x 1.589170 0.000000 0.000000 
#    y 0.000000 1.589170 0.000000 
#    z 0.000000 0.000000 1.612290 
# 
# From -- ./inp_files/6220.got.cif
#   From: 2010.05.17/outbox.cif.g08.bks.cpg/sg121_4_cif.got.tgz:6220.got - 2010.05.20 11:32:06.
