data_PCOD9560401
_publ_section_title
;
Structure prediction by ZEFSAII (Michael W. Deem and Ramdas Pophale) SiO2 
 PCOD9560401
Probable space group: I -4 2 M
;
_chemical_formula_sum "Si O2"
_cell_formula_units_Z 88
_cell_length_a 19.742789
_cell_length_b 19.742789
_cell_length_c 12.582496
_cell_angle_alpha 90.000000
_cell_angle_beta 90.000000
_cell_angle_gamma 90.000000
_cell_volume 4904.376571
_symmetry_space_group_name_H-M "I -4 2 M"
_symmetry_group_IT_number 121
_symmetry_cell_setting 'tetragonal'
loop_
_space_group_symop_operation_xyz
x,y,z
y,-x,-z
-x,-y,z
-y,x,-z
x,-y,-z
-x,y,-z
-y,-x,z
y,x,z
1/2+x,1/2+y,1/2+z
1/2+y,1/2-x,1/2-z
1/2-x,1/2-y,1/2+z
1/2-y,1/2+x,1/2-z
1/2+x,1/2-y,1/2-z
1/2-x,1/2+y,1/2-z
1/2-y,1/2-x,1/2+z
1/2+y,1/2+x,1/2+z
loop_
_atom_site_type_symbol
_atom_site_label
_atom_site_fract_x
_atom_site_fract_y
_atom_site_fract_z
Si Si1 0.677031 0.322970 0.692524
Si Si2 0.860660 0.500000 0.500000
Si Si3 0.000000 0.793295 0.500000
Si Si4 0.434513 0.762692 0.208366
Si Si5 0.853942 0.853942 0.560286
Si Si6 0.709258 0.709258 0.856437
Si Si7 0.550769 0.907645 0.709213
Si Si8 0.035159 0.771091 0.104538
O O1 0.665344 0.334657 0.818846
O O2 0.733801 0.266200 0.664966
O O3 0.605433 0.301234 0.641819
O O4 0.902873 0.456172 0.417692
O O5 0.807572 0.544764 0.431901
O O6 0.975380 0.747866 0.400984
O O7 0.933259 0.836571 0.535397
O O8 0.361895 0.729597 0.194723
O O9 0.420270 0.839557 0.242477
O O10 0.480707 0.730731 0.300951
O O11 0.808363 0.808363 0.479686
O O12 0.474700 0.912391 0.754469
O O13 0.000000 0.803316 0.000000
#
# Coordination Sequence:
#
# PCOD9560401 Si02
#       8
#     8   8   8  16   8   8  16  16
#     4  12  22  42  69  97 124 173 224 261 328 397
#     4   8  20  41  52  84 127 158 202 258 318 362
#     4  10  20  39  62  91 124 162 206 268 326 380
#     4  10  21  39  58  90 128 167 203 265 317 384
#     4  10  22  41  64  93 130 161 219 269 322 392
#     4  10  26  38  63 100 130 164 221 267 328 377
#     4  10  22  37  59  85 120 167 215 255 309 379
#     4   9  21  39  62  88 127 172 199 263 319 375
#
# _framework density 17.943155999999998
#
# number of rings (size 3 to 8) (size 9 to 14) (size 15 to 20)
#    0.545    1.636    1.818    0.000    5.091    5.273 
#    3.273    0.000    0.000    1.909    0.000    0.000 
#    0.000    0.000    0.000    0.000    0.000    0.000 
#
# Total GULP energy -245176.543932 kJ/mol
# GULP energy per Si atom -5572.194180 kJ/mol
# Density = 1.790232 g / cm^3
# Si number density = 17.943156 Si / 1000 Ang^3
#
#
#
# Elastic Constant Matrix: (Units=GPa)
#
#
# Indices 1 2 3 4 5 6 
#
# 1 78.8895 31.0060 46.5572 0.0000 0.0000 0.0000
# 2 31.0060 78.8906 46.5572 0.0000 0.0000 0.0000
# 3 46.5572 46.5572 140.9457 0.0000 0.0000 0.0000
# 4 0.0000 0.0000 0.0000 7.0117 0.0000 0.0000
# 5 0.0000 0.0000 0.0000 0.0000 7.0096 0.0000
# 6 0.0000 0.0000 0.0000 0.0000 0.0000 37.0961
#
#
#
# Elastic Compliance Matrix: (Units=1/GPa)
#
#
# Indices 1 2 3 4 5 6 
#
# 1 0.016760 -0.004124 -0.004174 0.000000 0.000000 0.000000
# 2 -0.004124 0.016760 -0.004174 0.000000 0.000000 0.000000
# 3 -0.004174 -0.004174 0.009852 0.000000 0.000000 0.000000
# 4 0.000000 0.000000 0.000000 0.142618 0.000000 0.000000
# 5 0.000000 0.000000 0.000000 0.000000 0.142662 0.000000
# 6 0.000000 0.000000 0.000000 0.000000 0.000000 0.026957
#
#
# Mechanical properties :
#
#
# Convention : Reuss Voigt Hill
#
# Bulk Modulus (GPa) = 54.26301 60.77406 57.51853
# Shear Modulus (GPa) = 12.93007 21.86385 17.39696
#
# Velocity S-wave (km/s) = 2.68734 3.49450 3.11715
# Velocity P-wave (km/s) = 6.31952 7.08702 6.71425
#
# Compressibility (1/GPa) = 0.01842876
#
# Stress axis : x y z
#
# Youngs Moduli (GPa) = 59.66563 59.66660 101.49810
#
# Poissons Ratio (x) = 0.24606 0.42365
# Poissons Ratio (y) = 0.24605 0.42364
# Poissons Ratio (z) = 0.24904 0.24904
#
# Static dielectric constant tensor:
#      x y z
#    x 1.597310 0.000000 0.000000 
#    y 0.000000 1.597300 0.000000 
#    z 0.000000 0.000000 1.633120 
# 
# From -- ./inp_files/4442.got.cif
#   From: 2010.05.17/outbox.cif.g08.bks.cpg/sg121_3_cif.got.tgz:4442.got - 2010.05.20 11:32:06.
