data_PCOD9560089
_publ_section_title
;
Structure prediction by ZEFSAII (Michael W. Deem and Ramdas Pophale) SiO2 
 PCOD9560089
Probable space group: I -4 2 M
;
_chemical_formula_sum "Si O2"
_cell_formula_units_Z 50
_cell_length_a 11.814202
_cell_length_b 11.814202
_cell_length_c 17.558204
_cell_angle_alpha 90.000000
_cell_angle_beta 90.000000
_cell_angle_gamma 90.000000
_cell_volume 2450.692800
_symmetry_space_group_name_H-M "I -4 2 M"
_symmetry_group_IT_number 121
_symmetry_cell_setting 'tetragonal'
loop_
_space_group_symop_operation_xyz
x,y,z
y,-x,-z
-x,-y,z
-y,x,-z
x,-y,-z
-x,y,-z
-y,-x,z
y,x,z
1/2+x,1/2+y,1/2+z
1/2+y,1/2-x,1/2-z
1/2-x,1/2-y,1/2+z
1/2-y,1/2+x,1/2-z
1/2+x,1/2-y,1/2-z
1/2-x,1/2+y,1/2-z
1/2-y,1/2-x,1/2+z
1/2+y,1/2+x,1/2+z
loop_
_atom_site_type_symbol
_atom_site_label
_atom_site_fract_x
_atom_site_fract_y
_atom_site_fract_z
Si Si1 0.000000 0.000000 0.000000
Si Si2 0.618549 0.950898 0.120658
Si Si3 0.918180 0.729996 0.752032
Si Si4 0.671438 0.328563 0.421393
Si Si5 0.092660 0.092660 0.238961
O O1 0.915666 0.915666 0.042580
O O2 0.589826 0.872346 0.193721
O O3 0.700348 0.874622 0.066711
O O4 0.500000 0.000000 0.090459
O O5 0.691054 0.049970 0.162325
O O6 0.806361 0.806361 0.753665
O O7 0.019203 0.811366 0.721472
O O8 0.652140 0.347861 0.331620
O O9 0.000000 0.000000 0.211495
#
# Coordination Sequence:
#
# PCOD9560089 Si02
#       5
#     2  16  16   8   8
#     4  12  24  48  60  76  96 144 200 256 300 290
#     4  11  19  31  49  83 116 149 176 228 276 343
#     4  10  17  27  44  73 119 154 178 203 267 336
#     4  10  22  36  57  75 103 141 198 236 273 328
#     4   8  16  28  45  73 103 141 176 217 258 340
#
# _framework density 20.402393
#
# number of rings (size 3 to 8) (size 9 to 14) (size 15 to 20)
#    0.000    1.920    5.600    0.000    2.240    0.000 
#    0.000    0.800    0.000    0.000    0.000    0.000 
#    0.000    0.000    0.000    0.000    0.000    0.000 
#
# Total GULP energy -139285.504427 kJ/mol
# GULP energy per Si atom -5571.420177 kJ/mol
# Density = 2.035596 g / cm^3
# Si number density = 20.402393 Si / 1000 Ang^3
#
#
#
# Elastic Constant Matrix: (Units=GPa)
#
#
# Indices 1 2 3 4 5 6 
#
# 1 126.9555 53.7763 17.2063 0.0000 0.0000 0.0000
# 2 53.7763 126.9547 17.2063 0.0000 0.0000 0.0000
# 3 17.2063 17.2063 17.7234 0.0000 0.0000 0.0000
# 4 0.0000 0.0000 0.0000 0.3434 0.0000 0.0000
# 5 0.0000 0.0000 0.0000 0.0000 0.3431 0.0000
# 6 0.0000 0.0000 0.0000 0.0000 0.0000 45.5252
#
#
#
# Elastic Compliance Matrix: (Units=1/GPa)
#
#
# Indices 1 2 3 4 5 6 
#
# 1 0.010226 -0.003439 -0.006590 0.000000 0.000000 0.000000
# 2 -0.003439 0.010227 -0.006590 0.000000 0.000000 0.000000
# 3 -0.006590 -0.006590 0.069218 0.000000 0.000000 0.000000
# 4 0.000000 0.000000 0.000000 2.911693 -0.000002 0.000000
# 5 0.000000 0.000000 0.000000 -0.000002 2.914277 0.000000
# 6 0.000000 0.000000 0.000000 0.000000 0.000000 0.021966
#
#
# Mechanical properties :
#
#
# Convention : Reuss Voigt Hill
#
# Bulk Modulus (GPa) = 17.71974 49.77905 33.74939
# Shear Modulus (GPa) = 0.83477 21.47200 11.15338
#
# Velocity S-wave (km/s) = 0.64035 3.24763 2.34063
# Velocity P-wave (km/s) = 3.04150 6.20600 4.88698
#
# Compressibility (1/GPa) = 0.05643423
#
# Stress axis : x y z
#
# Youngs Moduli (GPa) = 97.78566 97.78495 14.44716
#
# Poissons Ratio (x) = 0.33625 0.09520
# Poissons Ratio (y) = 0.33625 0.09520
# Poissons Ratio (z) = 0.64438 0.64439
#
# Static dielectric constant tensor:
#      x y z
#    x 1.845960 0.000000 0.000000 
#    y 0.000000 1.845960 0.000000 
#    z 0.000000 0.000000 1.692700 
# 
# From -- ./inp_files/5864.got.cif
#   From: 2010.05.17/outbox.cif.g08.bks.cpg/sg121_3_cif.got.tgz:5864.got - 2010.05.20 11:32:06.
