data_PCOD9560618
_publ_section_title
;
Structure prediction by ZEFSAII (Michael W. Deem and Ramdas Pophale) SiO2 
 PCOD9560618
Probable space group: I -4 2 M
;
_chemical_formula_sum "Si O2"
_cell_formula_units_Z 52
_cell_length_a 13.764769
_cell_length_b 13.764769
_cell_length_c 12.653369
_cell_angle_alpha 90.000000
_cell_angle_beta 90.000000
_cell_angle_gamma 90.000000
_cell_volume 2397.419471
_symmetry_space_group_name_H-M "I -4 2 M"
_symmetry_group_IT_number 121
_symmetry_cell_setting 'tetragonal'
loop_
_space_group_symop_operation_xyz
x,y,z
y,-x,-z
-x,-y,z
-y,x,-z
x,-y,-z
-x,y,-z
-y,-x,z
y,x,z
1/2+x,1/2+y,1/2+z
1/2+y,1/2-x,1/2-z
1/2-x,1/2-y,1/2+z
1/2-y,1/2+x,1/2-z
1/2+x,1/2-y,1/2-z
1/2-x,1/2+y,1/2-z
1/2-y,1/2-x,1/2+z
1/2+y,1/2+x,1/2+z
loop_
_atom_site_type_symbol
_atom_site_label
_atom_site_fract_x
_atom_site_fract_y
_atom_site_fract_z
Si Si1 0.342609 0.342609 0.635221
Si Si2 0.500000 0.733954 0.000000
Si Si3 0.500000 0.500000 0.340866
Si Si4 0.733109 0.266892 0.698718
Si Si5 0.889806 0.329805 0.019316
Si Si6 0.609573 0.390428 0.838168
O O1 0.424151 0.424151 0.610563
O O2 0.311621 0.311621 0.755400
O O3 0.247145 0.378178 0.574701
O O4 0.410389 0.806538 0.012117
O O5 0.473738 0.662751 0.904260
O O6 0.433590 0.433590 0.267147
O O7 0.644482 0.222406 0.628795
O O8 0.688504 0.311497 0.804545
O O9 0.000000 0.366988 0.000000
#
# Coordination Sequence:
#
# PCOD9560618 Si02
#       6
#     8   8   4   8  16   8
#     4  11  23  47  64 106 139 187 236 298 372 428
#     4  12  23  45  66 100 142 186 236 299 357 432
#     4  12  24  37  73  98 130 174 250 291 355 434
#     4  11  22  45  72  95 145 193 227 307 370 421
#     4  11  24  42  69 100 145 187 241 299 364 435
#     4  12  23  42  68 102 130 185 240 292 357 426
#
# _framework density 21.689989000000001
#
# number of rings (size 3 to 8) (size 9 to 14) (size 15 to 20)
#    0.000    0.615    3.077    6.000    0.000    1.231 
#    0.000    3.077    6.769    0.000    0.000    0.000 
#    0.000    0.000    0.000    0.000    0.000    0.000 
#
# Total GULP energy -145102.879808 kJ/mol
# GULP energy per Si atom -5580.879993 kJ/mol
# Density = 2.164062 g / cm^3
# Si number density = 21.689989 Si / 1000 Ang^3
#
#
#
# Elastic Constant Matrix: (Units=GPa)
#
#
# Indices 1 2 3 4 5 6 
#
# 1 113.5072 41.3590 29.5361 0.0000 0.0000 0.0000
# 2 41.3590 113.5087 29.5364 0.0000 0.0000 0.0000
# 3 29.5361 29.5364 74.8118 0.0000 0.0000 0.0000
# 4 0.0000 0.0000 0.0000 32.9131 0.0000 0.0000
# 5 0.0000 0.0000 0.0000 0.0000 32.9131 0.0000
# 6 0.0000 0.0000 0.0000 0.0000 0.0000 60.8040
#
#
#
# Elastic Compliance Matrix: (Units=1/GPa)
#
#
# Indices 1 2 3 4 5 6 
#
# 1 0.010731 -0.003129 -0.003001 0.000000 0.000000 0.000000
# 2 -0.003129 0.010731 -0.003001 0.000000 0.000000 0.000000
# 3 -0.003001 -0.003001 0.015737 0.000000 0.000000 0.000000
# 4 0.000000 0.000000 0.000000 0.030383 0.000000 0.000000
# 5 0.000000 0.000000 0.000000 0.000000 0.030383 0.000000
# 6 0.000000 0.000000 0.000000 0.000000 0.000000 0.016446
#
#
# Mechanical properties :
#
#
# Convention : Reuss Voigt Hill
#
# Bulk Modulus (GPa) = 52.81100 55.85452 54.33276
# Shear Modulus (GPa) = 35.97468 38.75245 37.36356
#
# Velocity S-wave (km/s) = 4.07699 4.23147 4.15495
# Velocity P-wave (km/s) = 6.82374 7.04847 6.93701
#
# Compressibility (1/GPa) = 0.01893545
#
# Stress axis : x y z
#
# Youngs Moduli (GPa) = 93.18655 93.18774 63.54548
#
# Poissons Ratio (x) = 0.29160 0.19072
# Poissons Ratio (y) = 0.29159 0.19072
# Poissons Ratio (z) = 0.27968 0.27969
#
# Static dielectric constant tensor:
#      x y z
#    x 1.946300 0.000000 0.000000 
#    y 0.000000 1.946300 0.000000 
#    z 0.000000 0.000000 1.812280 
# 
# From -- ./inp_files/2794.got.cif
#   From: 2010.05.17/outbox.cif.g08.bks.cpg/sg121_2_cif.got.tgz:2794.got - 2010.05.20 11:32:06.
