data_PCOD9560281
_publ_section_title
;
Structure prediction by ZEFSAII (Michael W. Deem and Ramdas Pophale) SiO2 
 PCOD9560281
Probable space group: I -4 2 M
;
_chemical_formula_sum "Si O2"
_cell_formula_units_Z 96
_cell_length_a 20.979901
_cell_length_b 20.979901
_cell_length_c 11.767745
_cell_angle_alpha 90.000000
_cell_angle_beta 90.000000
_cell_angle_gamma 90.000000
_cell_volume 5179.646463
_symmetry_space_group_name_H-M "I -4 2 M"
_symmetry_group_IT_number 121
_symmetry_cell_setting 'tetragonal'
loop_
_space_group_symop_operation_xyz
x,y,z
y,-x,-z
-x,-y,z
-y,x,-z
x,-y,-z
-x,y,-z
-y,-x,z
y,x,z
1/2+x,1/2+y,1/2+z
1/2+y,1/2-x,1/2-z
1/2-x,1/2-y,1/2+z
1/2-y,1/2+x,1/2-z
1/2+x,1/2-y,1/2-z
1/2-x,1/2+y,1/2-z
1/2-y,1/2-x,1/2+z
1/2+y,1/2+x,1/2+z
loop_
_atom_site_type_symbol
_atom_site_label
_atom_site_fract_x
_atom_site_fract_y
_atom_site_fract_z
Si Si1 0.246158 0.141024 0.463077
Si Si2 0.680432 0.067878 0.733720
Si Si3 0.123851 0.712922 0.975336
Si Si4 0.335390 0.563518 0.573676
Si Si5 0.282786 0.611565 0.790674
Si Si6 0.925607 0.341299 0.190175
O O1 0.188470 0.188470 0.426704
O O2 0.275528 0.093910 0.368712
O O3 0.305474 0.185675 0.503822
O O4 0.222809 0.102130 0.574651
O O5 0.608226 0.092637 0.714929
O O6 0.674569 0.992597 0.753038
O O7 0.706483 0.100363 0.847766
O O8 0.112214 0.784198 0.019307
O O9 0.076702 0.671333 0.055997
O O10 0.331634 0.500000 0.500000
O O11 0.404241 0.595760 0.569614
O O12 0.313726 0.558894 0.706194
O O13 0.326406 0.673595 0.774454
O O14 0.212250 0.621636 0.742347
#
# Coordination Sequence:
#
# PCOD9560281 Si02
#       6
#    16  16  16  16  16  16
#     4  10  21  35  57  88 114 145 189 243 303 358
#     4  11  22  36  55  79 113 154 195 245 289 354
#     4  10  19  37  56  80 108 145 188 240 298 345
#     4  10  20  34  57  84 115 154 189 230 285 343
#     4   9  18  37  58  80 112 146 183 232 298 355
#     4  10  21  36  55  79 110 151 197 240 292 346
#
# _framework density 18.534084
#
# number of rings (size 3 to 8) (size 9 to 14) (size 15 to 20)
#    0.000    2.000    1.667    3.000    0.000    6.500 
#    0.000    0.000    0.000    2.000    0.000    0.000 
#    0.000    1.333    0.000    0.333    0.000    0.000 
#
# Total GULP energy -267455.274589 kJ/mol
# GULP energy per Si atom -5571.984887 kJ/mol
# Density = 1.849190 g / cm^3
# Si number density = 18.534084 Si / 1000 Ang^3
#
#
#
# Elastic Constant Matrix: (Units=GPa)
#
#
# Indices 1 2 3 4 5 6 
#
# 1 70.4480 39.5248 51.7625 0.0000 0.0000 0.0000
# 2 39.5248 70.4550 51.7616 0.0000 0.0000 0.0000
# 3 51.7625 51.7616 142.6251 0.0000 0.0000 0.0000
# 4 0.0000 0.0000 0.0000 25.9565 0.0000 0.0000
# 5 0.0000 0.0000 0.0000 0.0000 25.9560 0.0000
# 6 0.0000 0.0000 0.0000 0.0000 0.0000 15.9708
#
#
#
# Elastic Compliance Matrix: (Units=1/GPa)
#
#
# Indices 1 2 3 4 5 6 
#
# 1 0.023075 -0.009262 -0.005013 0.000000 0.000000 0.000000
# 2 -0.009262 0.023071 -0.005012 0.000000 0.000000 0.000000
# 3 -0.005013 -0.005012 0.010650 0.000000 0.000000 0.000000
# 4 0.000000 0.000000 0.000000 0.038526 0.000000 0.000000
# 5 0.000000 0.000000 0.000000 0.000000 0.038527 0.000000
# 6 0.000000 0.000000 0.000000 0.000000 0.000000 0.062614
#
#
# Mechanical properties :
#
#
# Convention : Reuss Voigt Hill
#
# Bulk Modulus (GPa) = 54.87752 63.29176 59.08464
# Shear Modulus (GPa) = 20.73746 22.94194 21.83970
#
# Velocity S-wave (km/s) = 3.34860 3.52209 3.43644
# Velocity P-wave (km/s) = 6.68013 7.12483 6.90606
#
# Compressibility (1/GPa) = 0.01822240
#
# Stress axis : x y z
#
# Youngs Moduli (GPa) = 43.33774 43.34414 93.89990
#
# Poissons Ratio (x) = 0.40144 0.47073
# Poissons Ratio (y) = 0.40138 0.47060
# Poissons Ratio (z) = 0.21726 0.21723
#
# Static dielectric constant tensor:
#      x y z
#    x 1.649750 0.000000 0.000000 
#    y 0.000000 1.649740 0.000000 
#    z 0.000000 0.000000 1.696420 
# 
# From -- ./inp_files/3338.got.cif
#   From: 2010.05.17/outbox.cif.g08.bks.cpg/sg121_2_cif.got.tgz:3338.got - 2010.05.20 11:32:06.
