data_PCOD9560193
_publ_section_title
;
Structure prediction by ZEFSAII (Michael W. Deem and Ramdas Pophale) SiO2 
 PCOD9560193
Probable space group: I -4 2 M
;
_chemical_formula_sum "Si O2"
_cell_formula_units_Z 112
_cell_length_a 14.513482
_cell_length_b 14.513482
_cell_length_c 31.497867
_cell_angle_alpha 90.000000
_cell_angle_beta 90.000000
_cell_angle_gamma 90.000000
_cell_volume 6634.747235
_symmetry_space_group_name_H-M "I -4 2 M"
_symmetry_group_IT_number 121
_symmetry_cell_setting 'tetragonal'
loop_
_space_group_symop_operation_xyz
x,y,z
y,-x,-z
-x,-y,z
-y,x,-z
x,-y,-z
-x,y,-z
-y,-x,z
y,x,z
1/2+x,1/2+y,1/2+z
1/2+y,1/2-x,1/2-z
1/2-x,1/2-y,1/2+z
1/2-y,1/2+x,1/2-z
1/2+x,1/2-y,1/2-z
1/2-x,1/2+y,1/2-z
1/2-y,1/2-x,1/2+z
1/2+y,1/2+x,1/2+z
loop_
_atom_site_type_symbol
_atom_site_label
_atom_site_fract_x
_atom_site_fract_y
_atom_site_fract_z
Si Si1 0.597968 0.743343 0.649316
Si Si2 0.869239 0.275381 0.027429
Si Si3 0.390861 0.979655 0.547706
Si Si4 0.154092 0.999995 0.773918
Si Si5 0.996406 0.646245 0.268039
Si Si6 0.702090 0.556067 0.552442
Si Si7 0.897028 0.540178 0.139330
O O1 0.695991 0.695991 0.659911
O O2 0.524255 0.692615 0.679181
O O3 0.575282 0.721648 0.600866
O O4 0.599603 0.852715 0.651897
O O5 0.770814 0.229187 0.031281
O O6 0.878733 0.370202 0.051538
O O7 0.948491 0.207213 0.044150
O O8 0.897286 0.280549 0.977572
O O9 0.500000 0.000000 0.545359
O O10 0.352353 0.000000 0.500000
O O11 0.356252 0.025904 0.591689
O O12 0.083364 0.916637 0.762365
O O13 0.248108 0.000597 0.746941
O O14 0.093178 0.093178 0.772405
O O15 0.086698 0.588830 0.251559
O O16 0.991541 0.645614 0.319265
O O17 0.607807 0.607807 0.540810
O O18 0.000000 0.500000 0.136599
#
# Coordination Sequence:
#
# PCOD9560193 Si02
#       7
#    16  16  16  16  16  16  16
#     4  10  19  33  52  75 102 135 180 220 261 317
#     4  10  19  31  46  70 105 140 177 219 264 313
#     4  10  19  32  52  76 105 140 178 219 274 324
#     4  10  22  38  55  78 110 144 179 226 283 339
#     4  11  20  36  55  79 107 142 184 226 273 324
#     4   9  17  29  46  68  99 142 181 214 252 307
#     4  11  19  32  55  79 106 139 179 223 272 322
#
# _framework density 16.880822999999999
#
# number of rings (size 3 to 8) (size 9 to 14) (size 15 to 20)
#    0.000    1.857    2.857    4.286    0.000    2.000 
#    0.000    3.571    0.000    0.000    0.000    0.000 
#    0.000    1.429    0.000    0.143    0.000    0.000 
#
# Total GULP energy -311744.589410 kJ/mol
# GULP energy per Si atom -5566.867668 kJ/mol
# Density = 1.684240 g / cm^3
# Si number density = 16.880823 Si / 1000 Ang^3
#
#
#
# Elastic Constant Matrix: (Units=GPa)
#
#
# Indices 1 2 3 4 5 6 
#
# 1 89.8121 35.6947 29.8277 0.0000 0.0000 0.0000
# 2 35.6947 89.8098 29.8286 0.0000 0.0000 0.0000
# 3 29.8277 29.8286 103.3657 0.0000 0.0000 0.0000
# 4 0.0000 0.0000 0.0000 14.7490 0.0000 0.0000
# 5 0.0000 0.0000 0.0000 0.0000 14.7501 0.0000
# 6 0.0000 0.0000 0.0000 0.0000 0.0000 11.8669
#
#
#
# Elastic Compliance Matrix: (Units=1/GPa)
#
#
# Indices 1 2 3 4 5 6 
#
# 1 0.013856 -0.004622 -0.002665 0.000000 0.000000 0.000000
# 2 -0.004622 0.013857 -0.002665 0.000000 0.000000 0.000000
# 3 -0.002665 -0.002665 0.011212 0.000000 0.000000 0.000000
# 4 0.000000 0.000000 0.000000 0.067801 0.000000 0.000000
# 5 0.000000 0.000000 0.000000 0.000000 0.067796 0.000000
# 6 0.000000 0.000000 0.000000 0.000000 0.000000 0.084268
#
#
# Mechanical properties :
#
#
# Convention : Reuss Voigt Hill
#
# Bulk Modulus (GPa) = 52.57046 52.63215 52.60131
# Shear Modulus (GPa) = 17.54174 20.78232 19.16203
#
# Velocity S-wave (km/s) = 3.22708 3.51254 3.37283
# Velocity P-wave (km/s) = 6.71529 6.90630 6.81146
#
# Compressibility (1/GPa) = 0.01902209
#
# Stress axis : x y z
#
# Youngs Moduli (GPa) = 72.16917 72.16665 89.18761
#
# Poissons Ratio (x) = 0.33357 0.23765
# Poissons Ratio (y) = 0.33358 0.23768
# Poissons Ratio (z) = 0.19230 0.19232
#
# Static dielectric constant tensor:
#      x y z
#    x 1.575540 0.000000 0.000000 
#    y 0.000000 1.575540 0.000000 
#    z 0.000000 0.000000 1.634390 
# 
# From -- ./inp_files/8370.got.cif
#   From: 2010.05.17/outbox.cif.g08.bks.cpg/sg121_5_cif.got.tgz:8370.got - 2010.05.20 11:32:06.
