data_PCOD9560083
_publ_section_title
;
Structure prediction by ZEFSAII (Michael W. Deem and Ramdas Pophale) SiO2 
 PCOD9560083
Probable space group: I -4 2 M
;
_chemical_formula_sum "Si O2"
_cell_formula_units_Z 56
_cell_length_a 16.234758
_cell_length_b 16.234758
_cell_length_c 9.942785
_cell_angle_alpha 90.000000
_cell_angle_beta 90.000000
_cell_angle_gamma 90.000000
_cell_volume 2620.593666
_symmetry_space_group_name_H-M "I -4 2 M"
_symmetry_group_IT_number 121
_symmetry_cell_setting 'tetragonal'
loop_
_space_group_symop_operation_xyz
x,y,z
y,-x,-z
-x,-y,z
-y,x,-z
x,-y,-z
-x,y,-z
-y,-x,z
y,x,z
1/2+x,1/2+y,1/2+z
1/2+y,1/2-x,1/2-z
1/2-x,1/2-y,1/2+z
1/2-y,1/2+x,1/2-z
1/2+x,1/2-y,1/2-z
1/2-x,1/2+y,1/2-z
1/2-y,1/2-x,1/2+z
1/2+y,1/2+x,1/2+z
loop_
_atom_site_type_symbol
_atom_site_label
_atom_site_fract_x
_atom_site_fract_y
_atom_site_fract_z
Si Si1 0.387213 0.753505 0.410262
Si Si2 0.301041 0.159603 0.371844
Si Si3 0.000000 0.780126 0.500000
Si Si4 0.992604 0.866781 0.778616
O O1 0.317645 0.682356 0.413963
O O2 0.377518 0.801717 0.549079
O O3 0.361685 0.811882 0.284606
O O4 0.469407 0.706869 0.364495
O O5 0.225390 0.225390 0.378690
O O6 0.271881 0.077781 0.449053
O O7 0.975526 0.835025 0.628630
O O8 0.912126 0.912126 0.836525
O O9 0.064020 0.935981 0.769765
#
# Coordination Sequence:
#
# PCOD9560083 Si02
#       4
#    16  16   8  16
#     4   8  15  26  41  63  91 128 171 214 261 312
#     4   9  16  27  43  65  95 128 167 215 264 317
#     4  10  16  23  40  68  98 129 166 212 262 308
#     4   9  15  23  38  64  97 129 164 212 270 325
#
# _framework density 21.369204
#
# number of rings (size 3 to 8) (size 9 to 14) (size 15 to 20)
#    0.000    3.143    0.000    4.286    0.000    1.143 
#    0.000    0.000    0.000    6.857    0.000   20.000 
#    0.000  132.571    0.000    1.143    0.000    0.000 
#
# Total GULP energy -156368.066952 kJ/mol
# GULP energy per Si atom -5584.573820 kJ/mol
# Density = 2.132057 g / cm^3
# Si number density = 21.369204 Si / 1000 Ang^3
#
#
#
# Elastic Constant Matrix: (Units=GPa)
#
#
# Indices 1 2 3 4 5 6 
#
# 1 52.7254 29.0730 26.2340 0.0000 0.0000 0.0000
# 2 29.0730 52.7260 26.2346 0.0000 0.0000 0.0000
# 3 26.2340 26.2346 98.2469 0.0000 0.0000 0.0000
# 4 0.0000 0.0000 0.0000 24.6834 0.0000 0.0000
# 5 0.0000 0.0000 0.0000 0.0000 24.6821 0.0000
# 6 0.0000 0.0000 0.0000 0.0000 0.0000 43.0941
#
#
#
# Elastic Compliance Matrix: (Units=1/GPa)
#
#
# Indices 1 2 3 4 5 6 
#
# 1 0.028515 -0.013763 -0.003939 0.000000 0.000000 0.000000
# 2 -0.013763 0.028515 -0.003939 0.000000 0.000000 0.000000
# 3 -0.003939 -0.003939 0.012282 0.000000 0.000000 0.000000
# 4 0.000000 0.000000 0.000000 0.040513 0.000000 0.000000
# 5 0.000000 0.000000 0.000000 0.000000 0.040515 0.000000
# 6 0.000000 0.000000 0.000000 0.000000 0.000000 0.023205
#
#
# Mechanical properties :
#
#
# Convention : Reuss Voigt Hill
#
# Bulk Modulus (GPa) = 38.41816 40.75350 39.58583
# Shear Modulus (GPa) = 22.17244 26.63570 24.40407
#
# Velocity S-wave (km/s) = 3.22466 3.53434 3.38305
# Velocity P-wave (km/s) = 5.64640 5.98063 5.81592
#
# Compressibility (1/GPa) = 0.02602936
#
# Stress axis : x y z
#
# Youngs Moduli (GPa) = 35.06900 35.06919 81.41933
#
# Poissons Ratio (x) = 0.48267 0.32071
# Poissons Ratio (y) = 0.48267 0.32073
# Poissons Ratio (z) = 0.13814 0.13814
#
# Static dielectric constant tensor:
#      x y z
#    x 1.776950 0.000000 0.000000 
#    y 0.000000 1.776950 0.000000 
#    z 0.000000 0.000000 1.795290 
# 
# From -- ./inp_files/1345.got.cif
#   From: 2010.05.17/outbox.cif.g08.bks.cpg/sg121_1_cif.got.tgz:1345.got - 2010.05.20 11:32:06.
