data_PCOD9560474
_publ_section_title
;
Structure prediction by ZEFSAII (Michael W. Deem and Ramdas Pophale) SiO2 
 PCOD9560474
Probable space group: I -4 2 M
;
_chemical_formula_sum "Si O2"
_cell_formula_units_Z 56
_cell_length_a 14.549955
_cell_length_b 14.549955
_cell_length_c 10.161720
_cell_angle_alpha 90.000000
_cell_angle_beta 90.000000
_cell_angle_gamma 90.000000
_cell_volume 2151.248222
_symmetry_space_group_name_H-M "I -4 2 M"
_symmetry_group_IT_number 121
_symmetry_cell_setting 'tetragonal'
loop_
_space_group_symop_operation_xyz
x,y,z
y,-x,-z
-x,-y,z
-y,x,-z
x,-y,-z
-x,y,-z
-y,-x,z
y,x,z
1/2+x,1/2+y,1/2+z
1/2+y,1/2-x,1/2-z
1/2-x,1/2-y,1/2+z
1/2-y,1/2+x,1/2-z
1/2+x,1/2-y,1/2-z
1/2-x,1/2+y,1/2-z
1/2-y,1/2-x,1/2+z
1/2+y,1/2+x,1/2+z
loop_
_atom_site_type_symbol
_atom_site_label
_atom_site_fract_x
_atom_site_fract_y
_atom_site_fract_z
Si Si1 0.153175 0.000000 0.500000
Si Si2 0.681878 0.173685 0.344120
Si Si3 0.318989 0.916437 0.086864
Si Si4 0.174483 0.025993 0.204253
O O1 0.194919 0.004080 0.645183
O O2 0.088882 0.911119 0.507184
O O3 0.779045 0.220955 0.312166
O O4 0.651026 0.099963 0.236180
O O5 0.672712 0.155791 0.499935
O O6 0.606622 0.254215 0.327630
O O7 0.210861 0.943329 0.111620
O O8 0.359176 0.000000 0.000000
O O9 0.073537 0.073537 0.193159
#
# Coordination Sequence:
#
# PCOD9560474 Si02
#       4
#     8  16  16  16
#     4   9  18  32  54  90 133 180 226 278 349 418
#     4  10  21  38  63  96 130 176 231 285 339 402
#     4  10  22  40  63  96 134 173 223 286 343 404
#     4   9  20  38  61  92 136 181 230 287 349 418
#
# _framework density 26.031399
#
# number of rings (size 3 to 8) (size 9 to 14) (size 15 to 20)
#    0.000    2.429    0.000    0.857    4.000    3.429 
#    0.000    4.286    0.000   36.000    0.000    2.000 
#    0.000    0.000    0.000    0.000    0.000    0.000 
#
# Total GULP energy -156004.802881 kJ/mol
# GULP energy per Si atom -5571.600103 kJ/mol
# Density = 2.597215 g / cm^3
# Si number density = 26.031399 Si / 1000 Ang^3
#
#
#
# Elastic Constant Matrix: (Units=GPa)
#
#
# Indices 1 2 3 4 5 6 
#
# 1 50.2057 10.2103 27.7382 0.0000 0.0000 0.0000
# 2 10.2103 50.2065 27.7377 0.0000 0.0000 0.0000
# 3 27.7382 27.7377 196.7996 0.0000 0.0000 0.0000
# 4 0.0000 0.0000 0.0000 33.0781 0.0000 0.0000
# 5 0.0000 0.0000 0.0000 0.0000 33.0784 0.0000
# 6 0.0000 0.0000 0.0000 0.0000 0.0000 20.3130
#
#
#
# Elastic Compliance Matrix: (Units=1/GPa)
#
#
# Indices 1 2 3 4 5 6 
#
# 1 0.022008 -0.002995 -0.002680 0.000000 0.000000 0.000000
# 2 -0.002995 0.022007 -0.002680 0.000000 0.000000 0.000000
# 3 -0.002680 -0.002680 0.005837 0.000000 0.000000 0.000000
# 4 0.000000 0.000000 0.000000 0.030232 0.000000 0.000000
# 5 0.000000 0.000000 0.000000 0.000000 0.030231 0.000000
# 6 0.000000 0.000000 0.000000 0.000000 0.000000 0.049230
#
#
# Mechanical properties :
#
#
# Convention : Reuss Voigt Hill
#
# Bulk Modulus (GPa) = 30.17261 47.62047 38.89654
# Shear Modulus (GPa) = 26.69505 32.72893 29.71199
#
# Velocity S-wave (km/s) = 3.20581 3.54967 3.38211
# Velocity P-wave (km/s) = 5.03179 5.92734 5.49783
#
# Compressibility (1/GPa) = 0.03314264
#
# Stress axis : x y z
#
# Youngs Moduli (GPa) = 45.43858 45.43952 171.32984
#
# Poissons Ratio (x) = 0.13610 0.45912
# Poissons Ratio (y) = 0.13609 0.45910
# Poissons Ratio (z) = 0.12177 0.12176
#
# Static dielectric constant tensor:
#      x y z
#    x 2.106010 0.000000 0.000000 
#    y 0.000000 2.106000 0.000000 
#    z 0.000000 0.000000 2.122140 
# 
# From -- ./inp_files/2741.got.cif
#   From: 2010.05.17/outbox.cif.g08.bks.cpg/sg121_2_cif.got.tgz:2741.got - 2010.05.20 11:32:06.
