data_PCOD9560646
_publ_section_title
;
Structure prediction by ZEFSAII (Michael W. Deem and Ramdas Pophale) SiO2 
 PCOD9560646
Probable space group: I -4 2 M
;
_chemical_formula_sum "Si O2"
_cell_formula_units_Z 56
_cell_length_a 13.157060
_cell_length_b 13.157060
_cell_length_c 13.413984
_cell_angle_alpha 90.000000
_cell_angle_beta 90.000000
_cell_angle_gamma 90.000000
_cell_volume 2322.070999
_symmetry_space_group_name_H-M "I -4 2 M"
_symmetry_group_IT_number 121
_symmetry_cell_setting 'tetragonal'
loop_
_space_group_symop_operation_xyz
x,y,z
y,-x,-z
-x,-y,z
-y,x,-z
x,-y,-z
-x,y,-z
-y,-x,z
y,x,z
1/2+x,1/2+y,1/2+z
1/2+y,1/2-x,1/2-z
1/2-x,1/2-y,1/2+z
1/2-y,1/2+x,1/2-z
1/2+x,1/2-y,1/2-z
1/2-x,1/2+y,1/2-z
1/2-y,1/2-x,1/2+z
1/2+y,1/2+x,1/2+z
loop_
_atom_site_type_symbol
_atom_site_label
_atom_site_fract_x
_atom_site_fract_y
_atom_site_fract_z
Si Si1 0.618908 0.381093 0.786863
Si Si2 0.283519 0.560440 0.089717
Si Si3 0.720869 0.720869 0.619122
Si Si4 0.612973 0.387028 0.544991
Si Si5 0.414719 0.852498 0.252116
O O1 0.511926 0.344196 0.833417
O O2 0.698527 0.301474 0.835338
O O3 0.615078 0.384923 0.666195
O O4 0.366600 0.633401 0.042337
O O5 0.200274 0.620598 0.150743
O O6 0.233504 0.500000 0.000000
O O7 0.691339 0.691339 0.507259
O O8 0.772501 0.618791 0.664317
O O9 0.500000 0.364660 0.500000
O O10 0.535758 0.867738 0.239661
#
# Coordination Sequence:
#
# PCOD9560646 Si02
#       5
#     8  16   8   8  16
#     4  12  26  47  74 116 160 208 258 326 392 474
#     4  12  25  45  75 111 153 202 263 325 388 466
#     4  12  25  50  77 110 152 209 256 312 389 483
#     4  11  28  48  78 119 157 203 258 328 400 456
#     4  11  25  48  75 110 156 202 253 322 389 469
#
# _framework density 24.116401
#
# number of rings (size 3 to 8) (size 9 to 14) (size 15 to 20)
#    0.000    0.429    5.714    2.143    4.000    2.286 
#    0.000    2.857    0.000    0.000    0.000    0.000 
#    0.000    0.000    0.000    0.000    0.000    0.000 
#
# Total GULP energy -156456.195671 kJ/mol
# GULP energy per Si atom -5587.721274 kJ/mol
# Density = 2.406151 g / cm^3
# Si number density = 24.116401 Si / 1000 Ang^3
#
#
#
# Elastic Constant Matrix: (Units=GPa)
#
#
# Indices 1 2 3 4 5 6 
#
# 1 67.0547 46.3136 40.0001 0.0000 0.0000 0.0000
# 2 46.3136 67.0573 40.0001 0.0000 0.0000 0.0000
# 3 40.0001 40.0001 176.1519 0.0000 0.0000 0.0000
# 4 0.0000 0.0000 0.0000 28.8609 0.0000 0.0000
# 5 0.0000 0.0000 0.0000 0.0000 28.8606 0.0000
# 6 0.0000 0.0000 0.0000 0.0000 0.0000 25.7359
#
#
#
# Elastic Compliance Matrix: (Units=1/GPa)
#
#
# Indices 1 2 3 4 5 6 
#
# 1 0.029358 -0.018853 -0.002385 0.000000 0.000000 0.000000
# 2 -0.018853 0.029356 -0.002385 0.000000 0.000000 0.000000
# 3 -0.002385 -0.002385 0.006760 0.000000 0.000000 0.000000
# 4 0.000000 0.000000 0.000000 0.034649 0.000000 0.000000
# 5 0.000000 0.000000 0.000000 0.000000 0.034649 0.000000
# 6 0.000000 0.000000 0.000000 0.000000 0.000000 0.038856
#
#
# Mechanical properties :
#
#
# Convention : Reuss Voigt Hill
#
# Bulk Modulus (GPa) = 54.86339 62.54350 58.70344
# Shear Modulus (GPa) = 22.03108 28.95480 25.49294
#
# Velocity S-wave (km/s) = 3.02575 3.46877 3.25480
# Velocity P-wave (km/s) = 5.91656 6.48332 6.20641
#
# Compressibility (1/GPa) = 0.01822709
#
# Stress axis : x y z
#
# Youngs Moduli (GPa) = 34.06246 34.06403 147.92549
#
# Poissons Ratio (x) = 0.64222 0.35285
# Poissons Ratio (y) = 0.64219 0.35281
# Poissons Ratio (z) = 0.08125 0.08124
#
# Static dielectric constant tensor:
#      x y z
#    x 1.982070 0.000000 0.000000 
#    y 0.000000 1.982060 0.000000 
#    z 0.000000 0.000000 1.857560 
# 
# From -- ./inp_files/2764.got.cif
#   From: 2010.05.17/outbox.cif.g08.bks.cpg/sg121_2_cif.got.tgz:2764.got - 2010.05.20 11:32:06.
