data_PCOD9560897
_publ_section_title
;
Structure prediction by ZEFSAII (Michael W. Deem and Ramdas Pophale) SiO2 
 PCOD9560897
Probable space group: I -4 2 D
;
_chemical_formula_sum "Si O2"
_cell_formula_units_Z 76
_cell_length_a 12.803495
_cell_length_b 12.803495
_cell_length_c 26.963053
_cell_angle_alpha 90.000000
_cell_angle_beta 90.000000
_cell_angle_gamma 90.000000
_cell_volume 4420.039371
_symmetry_space_group_name_H-M "I -4 2 D"
_symmetry_group_IT_number 122
_symmetry_cell_setting 'tetragonal'
loop_
_space_group_symop_operation_xyz
x,y,z
y,-x,-z
-x,-y,z
-y,x,-z
x,1/2-y,1/4-z
-x,1/2+y,1/4-z
-y,1/2-x,1/4+z
y,1/2+x,1/4+z
1/2+x,1/2+y,1/2+z
1/2+y,1/2-x,1/2-z
1/2-x,1/2-y,1/2+z
1/2-y,1/2+x,1/2-z
1/2+x,-y,3/4-z
1/2-x,y,3/4-z
1/2-y,-x,3/4+z
1/2+y,x,3/4+z
loop_
_atom_site_type_symbol
_atom_site_label
_atom_site_fract_x
_atom_site_fract_y
_atom_site_fract_z
Si Si1 0.268137 0.725429 0.515217
Si Si2 0.491106 0.729588 0.469192
Si Si3 0.500000 0.500000 0.500000
Si Si4 0.750000 0.808525 0.375000
Si Si5 0.594618 0.120776 0.274584
Si Si6 0.884431 0.019170 0.630166
O O1 0.385396 0.752428 0.498867
O O2 0.244288 0.602685 0.505696
O O3 0.256388 0.741267 0.574248
O O4 0.184258 0.796858 0.487239
O O5 0.494976 0.603469 0.466337
O O6 0.488379 0.793419 0.418235
O O7 0.857096 0.873022 0.379335
O O8 0.495502 0.135649 0.237881
O O9 0.546931 0.125153 0.329600
O O10 0.000000 0.000000 0.651406
#
# Coordination Sequence:
#
# PCOD9560897 Si02
#       6
#    16  16   4   8  16  16
#     4  10  20  38  59  83 114 150 195 240 286 344
#     4   9  21  36  59  85 111 149 195 242 286 336
#     4   8  16  44  60  72 116 160 188 236 296 348
#     4  10  20  38  60  76 116 160 190 226 292 356
#     4  11  20  37  59  79 118 157 188 225 290 352
#     4  11  21  36  56  89 112 152 191 233 295 341
#
# _framework density 17.194417000000001
#
# number of rings (size 3 to 8) (size 9 to 14) (size 15 to 20)
#    0.000    1.895    4.211    0.000    0.000    5.895 
#    0.000    8.421    0.000    0.000    0.000    0.000 
#    0.000    0.000    0.000    0.000    0.000    0.000 
#
# Total GULP energy -211783.650260 kJ/mol
# GULP energy per Si atom -5573.253954 kJ/mol
# Density = 1.715528 g / cm^3
# Si number density = 17.194417 Si / 1000 Ang^3
#
#
#
# Elastic Constant Matrix: (Units=GPa)
#
#
# Indices 1 2 3 4 5 6 
#
# 1 111.5375 89.0256 42.7136 0.0000 0.0000 0.0000
# 2 89.0256 111.5375 42.7136 0.0000 0.0000 0.0000
# 3 42.7136 42.7136 64.6332 0.0000 0.0000 0.0000
# 4 0.0000 0.0000 0.0000 20.9554 0.0000 0.0000
# 5 0.0000 0.0000 0.0000 0.0000 20.9554 0.0000
# 6 0.0000 0.0000 0.0000 0.0000 0.0000 29.5676
#
#
#
# Elastic Compliance Matrix: (Units=1/GPa)
#
#
# Indices 1 2 3 4 5 6 
#
# 1 0.025680 -0.018741 -0.004586 0.000000 0.000000 0.000000
# 2 -0.018741 0.025680 -0.004586 0.000000 0.000000 0.000000
# 3 -0.004586 -0.004586 0.021533 0.000000 0.000000 0.000000
# 4 0.000000 0.000000 0.000000 0.047720 0.000000 0.000000
# 5 0.000000 0.000000 0.000000 0.000000 0.047720 0.000000
# 6 0.000000 0.000000 0.000000 0.000000 0.000000 0.033821
#
#
# Mechanical properties :
#
#
# Convention : Reuss Voigt Hill
#
# Bulk Modulus (GPa) = 58.58861 70.73487 64.66174
# Shear Modulus (GPa) = 18.96312 21.84603 20.40458
#
# Velocity S-wave (km/s) = 3.32454 3.56832 3.44859
# Velocity P-wave (km/s) = 6.99178 7.62920 7.31744
#
# Compressibility (1/GPa) = 0.01706816
#
# Stress axis : x y z
#
# Youngs Moduli (GPa) = 38.94066 38.94066 46.43982
#
# Poissons Ratio (x) = 0.72978 0.21297
# Poissons Ratio (y) = 0.72978 0.21297
# Poissons Ratio (z) = 0.17858 0.17858
#
# Static dielectric constant tensor:
#      x y z
#    x 1.590810 0.000000 0.000000 
#    y 0.000000 1.590810 0.000000 
#    z 0.000000 0.000000 1.571900 
# 
# From -- ./inp_files/9415.got.cif
#   From: 2010.05.17/outbox.cif.g08.bks.cpg/sg122_5_cif.got.tgz:9415.got - 2010.05.20 11:37:33.
