data_PCOD9560360
_publ_section_title
;
Structure prediction by ZEFSAII (Michael W. Deem and Ramdas Pophale) SiO2 
 PCOD9560360
Probable space group: I -4 2 M
;
_chemical_formula_sum "Si O2"
_cell_formula_units_Z 72
_cell_length_a 20.081240
_cell_length_b 20.081240
_cell_length_c 9.802528
_cell_angle_alpha 90.000000
_cell_angle_beta 90.000000
_cell_angle_gamma 90.000000
_cell_volume 3952.930191
_symmetry_space_group_name_H-M "I -4 2 M"
_symmetry_group_IT_number 121
_symmetry_cell_setting 'tetragonal'
loop_
_space_group_symop_operation_xyz
x,y,z
y,-x,-z
-x,-y,z
-y,x,-z
x,-y,-z
-x,y,-z
-y,-x,z
y,x,z
1/2+x,1/2+y,1/2+z
1/2+y,1/2-x,1/2-z
1/2-x,1/2-y,1/2+z
1/2-y,1/2+x,1/2-z
1/2+x,1/2-y,1/2-z
1/2-x,1/2+y,1/2-z
1/2-y,1/2-x,1/2+z
1/2+y,1/2+x,1/2+z
loop_
_atom_site_type_symbol
_atom_site_label
_atom_site_fract_x
_atom_site_fract_y
_atom_site_fract_z
Si Si1 0.474235 0.183814 0.652518
Si Si2 0.580805 0.688334 0.781285
Si Si3 0.114769 0.339706 0.733673
Si Si4 0.218038 0.674978 0.034926
Si Si5 0.110547 0.000000 0.500000
O O1 0.500000 0.172429 0.500000
O O2 0.446695 0.258993 0.672474
O O3 0.415226 0.133934 0.694607
O O4 0.536902 0.172926 0.751746
O O5 0.630060 0.630060 0.728466
O O6 0.624980 0.733051 0.884599
O O7 0.523009 0.654523 0.871604
O O8 0.151125 0.322768 0.876002
O O9 0.147234 0.296040 0.614380
O O10 0.254267 0.745734 0.027663
O O11 0.062333 0.937668 0.466759
#
# Coordination Sequence:
#
# PCOD9560360 Si02
#       5
#    16  16  16  16   8
#     4  11  23  42  58  85 120 153 205 250 301 362
#     4   9  19  35  58  85 117 155 194 245 303 351
#     4  11  22  39  61  85 118 161 194 248 299 357
#     4  10  20  36  59  88 117 150 198 249 299 350
#     4   9  16  30  54  84 116 151 198 244 288 355
#
# _framework density 18.214335999999999
#
# number of rings (size 3 to 8) (size 9 to 14) (size 15 to 20)
#    0.000    1.889    2.222    2.000    0.000    4.000 
#    0.000    3.333    0.000    0.000    0.000    0.000 
#    0.000    0.000    0.000    0.000    0.000    0.000 
#
# Total GULP energy -200945.855260 kJ/mol
# GULP energy per Si atom -5581.829313 kJ/mol
# Density = 1.817288 g / cm^3
# Si number density = 18.214336 Si / 1000 Ang^3
#
#
#
# Elastic Constant Matrix: (Units=GPa)
#
#
# Indices 1 2 3 4 5 6 
#
# 1 79.5303 26.4478 9.6382 0.0000 0.0000 0.0000
# 2 26.4478 79.5286 9.6369 0.0000 0.0000 0.0000
# 3 9.6382 9.6369 43.4702 0.0000 0.0000 0.0000
# 4 0.0000 0.0000 0.0000 15.3432 0.0000 0.0000
# 5 0.0000 0.0000 0.0000 0.0000 15.3461 0.0000
# 6 0.0000 0.0000 0.0000 0.0000 0.0000 14.3049
#
#
#
# Elastic Compliance Matrix: (Units=1/GPa)
#
#
# Indices 1 2 3 4 5 6 
#
# 1 0.014336 -0.004503 -0.002180 0.000000 0.000000 0.000000
# 2 -0.004503 0.014336 -0.002180 0.000000 0.000000 0.000000
# 3 -0.002180 -0.002180 0.023971 0.000000 0.000000 0.000000
# 4 0.000000 0.000000 0.000000 0.065175 0.000000 0.000000
# 5 0.000000 0.000000 0.000000 0.000000 0.065163 0.000000
# 6 0.000000 0.000000 0.000000 0.000000 0.000000 0.069906
#
#
# Mechanical properties :
#
#
# Convention : Reuss Voigt Hill
#
# Bulk Modulus (GPa) = 28.64001 32.66388 30.65195
# Shear Modulus (GPa) = 17.71469 19.45259 18.58364
#
# Velocity S-wave (km/s) = 3.12199 3.27155 3.19764
# Velocity P-wave (km/s) = 5.36225 5.67826 5.52252
#
# Compressibility (1/GPa) = 0.03491618
#
# Stress axis : x y z
#
# Youngs Moduli (GPa) = 69.75646 69.75549 41.71729
#
# Poissons Ratio (x) = 0.31412 0.09095
# Poissons Ratio (y) = 0.31413 0.09093
# Poissons Ratio (z) = 0.15208 0.15204
#
# Static dielectric constant tensor:
#      x y z
#    x 1.627710 0.000000 0.000000 
#    y 0.000000 1.627710 0.000000 
#    z 0.000000 0.000000 1.602370 
# 
# From -- ./inp_files/1680.got.cif
#   From: 2010.05.17/outbox.cif.g08.bks.cpg/sg121_1_cif.got.tgz:1680.got - 2010.05.20 11:32:06.
