data_PCOD9560292
_publ_section_title
;
Structure prediction by ZEFSAII (Michael W. Deem and Ramdas Pophale) SiO2 
 PCOD9560292
Probable space group: I -4 2 M
;
_chemical_formula_sum "Si O2"
_cell_formula_units_Z 96
_cell_length_a 18.506250
_cell_length_b 18.506250
_cell_length_c 15.915929
_cell_angle_alpha 90.000000
_cell_angle_beta 90.000000
_cell_angle_gamma 90.000000
_cell_volume 5450.907881
_symmetry_space_group_name_H-M "I -4 2 M"
_symmetry_group_IT_number 121
_symmetry_cell_setting 'tetragonal'
loop_
_space_group_symop_operation_xyz
x,y,z
y,-x,-z
-x,-y,z
-y,x,-z
x,-y,-z
-x,y,-z
-y,-x,z
y,x,z
1/2+x,1/2+y,1/2+z
1/2+y,1/2-x,1/2-z
1/2-x,1/2-y,1/2+z
1/2-y,1/2+x,1/2-z
1/2+x,1/2-y,1/2-z
1/2-x,1/2+y,1/2-z
1/2-y,1/2-x,1/2+z
1/2+y,1/2+x,1/2+z
loop_
_atom_site_type_symbol
_atom_site_label
_atom_site_fract_x
_atom_site_fract_y
_atom_site_fract_z
Si Si1 0.318427 0.051893 0.654393
Si Si2 0.865082 0.418968 0.466008
Si Si3 0.417377 0.703072 0.510357
Si Si4 0.193517 0.607543 0.115090
Si Si5 0.691738 0.576860 0.018309
Si Si6 0.862354 0.252772 0.192458
O O1 0.389399 0.091209 0.615047
O O2 0.255973 0.064158 0.584449
O O3 0.287417 0.085502 0.739105
O O4 0.325290 0.965843 0.663680
O O5 0.879191 0.500000 0.500000
O O6 0.777941 0.410568 0.457540
O O7 0.887380 0.366401 0.541857
O O8 0.500000 0.677409 0.500000
O O9 0.357361 0.642640 0.488858
O O10 0.402399 0.726424 0.607356
O O11 0.188962 0.680955 0.166089
O O12 0.269371 0.601046 0.067501
O O13 0.636687 0.636687 0.048295
O O14 0.655551 0.500000 0.000000
O O15 0.813825 0.186176 0.224125
#
# Coordination Sequence:
#
# PCOD9560292 Si02
#       6
#    16  16  16  16  16  16
#     4  10  20  32  49  74 101 131 166 207 255 299
#     4   9  18  33  51  72 101 136 173 209 250 309
#     4   9  19  35  55  78 103 135 175 218 261 310
#     4   9  19  32  47  69  97 129 165 204 247 299
#     4   9  17  31  50  70  93 122 158 197 238 290
#     4  10  20  34  52  74 103 136 171 215 262 308
#
# _framework density 17.611744000000002
#
# number of rings (size 3 to 8) (size 9 to 14) (size 15 to 20)
#    0.000    2.667    0.000    2.500    0.000   10.333 
#    0.000    0.000    0.000    4.000    0.000    4.667 
#    0.000    0.000    0.000    0.000    0.000    0.000 
#
# Total GULP energy -267342.406967 kJ/mol
# GULP energy per Si atom -5569.633478 kJ/mol
# Density = 1.757166 g / cm^3
# Si number density = 17.611744 Si / 1000 Ang^3
#
#
#
# Elastic Constant Matrix: (Units=GPa)
#
#
# Indices 1 2 3 4 5 6 
#
# 1 71.2651 45.0070 5.4874 0.0000 0.0000 0.0000
# 2 45.0070 71.2665 5.4890 0.0000 0.0000 0.0000
# 3 5.4874 5.4890 17.3306 0.0000 0.0000 0.0000
# 4 0.0000 0.0000 0.0000 18.7350 0.0000 0.0000
# 5 0.0000 0.0000 0.0000 0.0000 18.7347 0.0000
# 6 0.0000 0.0000 0.0000 0.0000 0.0000 16.1851
#
#
#
# Elastic Compliance Matrix: (Units=1/GPa)
#
#
# Indices 1 2 3 4 5 6 
#
# 1 0.023474 -0.014608 -0.002806 0.000000 0.000000 0.000000
# 2 -0.014608 0.023474 -0.002809 0.000000 0.000000 0.000000
# 3 -0.002806 -0.002809 0.059480 0.000000 0.000000 0.000000
# 4 0.000000 0.000000 0.000000 0.053376 0.000000 0.000000
# 5 0.000000 0.000000 0.000000 0.000000 0.053377 0.000000
# 6 0.000000 0.000000 0.000000 0.000000 0.000000 0.061785
#
#
# Mechanical properties :
#
#
# Convention : Reuss Voigt Hill
#
# Bulk Modulus (GPa) = 15.15598 30.20321 22.67959
# Shear Modulus (GPa) = 14.81894 17.65622 16.23758
#
# Velocity S-wave (km/s) = 2.90388 3.16970 3.03970
# Velocity P-wave (km/s) = 4.45731 5.53016 5.02247
#
# Compressibility (1/GPa) = 0.06598056
#
# Stress axis : x y z
#
# Youngs Moduli (GPa) = 42.60021 42.60046 16.81251
#
# Poissons Ratio (x) = 0.62233 0.04717
# Poissons Ratio (y) = 0.62232 0.04723
# Poissons Ratio (z) = 0.11952 0.11968
#
# Static dielectric constant tensor:
#      x y z
#    x 1.613320 0.000000 0.000000 
#    y 0.000000 1.613320 0.000000 
#    z 0.000000 0.000000 1.610970 
# 
# From -- ./inp_files/5381.got.cif
#   From: 2010.05.17/outbox.cif.g08.bks.cpg/sg121_3_cif.got.tgz:5381.got - 2010.05.20 11:32:06.
