data_PCOD9560343
_publ_section_title
;
Structure prediction by ZEFSAII (Michael W. Deem and Ramdas Pophale) SiO2 
 PCOD9560343
Probable space group: I -4 2 M
;
_chemical_formula_sum "Si O2"
_cell_formula_units_Z 80
_cell_length_a 17.092509
_cell_length_b 17.092509
_cell_length_c 17.322366
_cell_angle_alpha 90.000000
_cell_angle_beta 90.000000
_cell_angle_gamma 90.000000
_cell_volume 5060.796159
_symmetry_space_group_name_H-M "I -4 2 M"
_symmetry_group_IT_number 121
_symmetry_cell_setting 'tetragonal'
loop_
_space_group_symop_operation_xyz
x,y,z
y,-x,-z
-x,-y,z
-y,x,-z
x,-y,-z
-x,y,-z
-y,-x,z
y,x,z
1/2+x,1/2+y,1/2+z
1/2+y,1/2-x,1/2-z
1/2-x,1/2-y,1/2+z
1/2-y,1/2+x,1/2-z
1/2+x,1/2-y,1/2-z
1/2-x,1/2+y,1/2-z
1/2-y,1/2-x,1/2+z
1/2+y,1/2+x,1/2+z
loop_
_atom_site_type_symbol
_atom_site_label
_atom_site_fract_x
_atom_site_fract_y
_atom_site_fract_z
Si Si1 0.952115 0.388577 0.574045
Si Si2 0.178180 0.305569 0.516507
Si Si3 0.975838 0.323424 0.170763
Si Si4 0.855974 0.604111 0.173943
Si Si5 0.428916 0.698515 0.551904
O O1 0.896787 0.319612 0.539116
O O2 0.892879 0.448379 0.613423
O O3 0.000000 0.417345 0.500000
O O4 0.018677 0.369598 0.635937
O O5 0.226498 0.226498 0.502424
O O6 0.151124 0.312054 0.605692
O O7 0.237340 0.377082 0.495719
O O8 0.917553 0.319645 0.243600
O O9 0.966552 0.244082 0.123499
O O10 0.063978 0.348536 0.190592
O O11 0.500000 0.669194 0.500000
O O12 0.369836 0.630165 0.574469
#
# Coordination Sequence:
#
# PCOD9560343 Si02
#       5
#    16  16  16  16  16
#     4   9  19  29  46  71  98 133 171 203 244 300
#     4   9  19  34  50  69 100 137 172 209 251 301
#     4  11  20  30  46  77 106 134 161 205 257 313
#     4  11  19  30  49  75 109 133 162 203 257 317
#     4  10  20  36  53  71  96 132 182 222 251 291
#
# _framework density 15.807789
#
# number of rings (size 3 to 8) (size 9 to 14) (size 15 to 20)
#    0.000    2.000    4.000    0.600    0.000    3.400 
#    0.000    0.000    0.000    1.200    0.000    0.000 
#    0.000   32.400    0.000    0.000    0.000    0.000 
#
# Total GULP energy -222750.645046 kJ/mol
# GULP energy per Si atom -5568.766126 kJ/mol
# Density = 1.577181 g / cm^3
# Si number density = 15.807789 Si / 1000 Ang^3
#
#
#
# Elastic Constant Matrix: (Units=GPa)
#
#
# Indices 1 2 3 4 5 6 
#
# 1 58.5198 26.5530 9.6221 0.0000 0.0000 0.0000
# 2 26.5530 58.5169 9.6208 0.0000 0.0000 0.0000
# 3 9.6221 9.6208 61.8072 0.0000 0.0000 0.0000
# 4 0.0000 0.0000 0.0000 12.8817 0.0000 0.0000
# 5 0.0000 0.0000 0.0000 0.0000 12.8813 0.0000
# 6 0.0000 0.0000 0.0000 0.0000 0.0000 12.1235
#
#
#
# Elastic Compliance Matrix: (Units=1/GPa)
#
#
# Indices 1 2 3 4 5 6 
#
# 1 0.021733 -0.009550 -0.001897 0.000000 0.000000 0.000000
# 2 -0.009550 0.021734 -0.001896 0.000000 0.000000 0.000000
# 3 -0.001897 -0.001896 0.016770 0.000000 0.000000 0.000000
# 4 0.000000 0.000000 0.000000 0.077630 0.000000 0.000000
# 5 0.000000 0.000000 0.000000 0.000000 0.077632 0.000000
# 6 0.000000 0.000000 0.000000 0.000000 0.000000 0.082484
#
#
# Mechanical properties :
#
#
# Convention : Reuss Voigt Hill
#
# Bulk Modulus (GPa) = 29.80541 30.04842 29.92692
# Shear Modulus (GPa) = 14.88742 16.44715 15.66729
#
# Velocity S-wave (km/s) = 3.07217 3.22909 3.15161
# Velocity P-wave (km/s) = 5.61071 5.74044 5.67595
#
# Compressibility (1/GPa) = 0.03355096
#
# Stress axis : x y z
#
# Youngs Moduli (GPa) = 46.01213 46.01009 59.63081
#
# Poissons Ratio (x) = 0.43940 0.11311
# Poissons Ratio (y) = 0.43942 0.11308
# Poissons Ratio (z) = 0.08728 0.08725
#
# Static dielectric constant tensor:
#      x y z
#    x 1.520430 0.000000 0.000000 
#    y 0.000000 1.520430 0.000000 
#    z 0.000000 0.000000 1.559620 
# 
# From -- ./inp_files/4223.got.cif
#   From: 2010.05.17/outbox.cif.g08.bks.cpg/sg121_3_cif.got.tgz:4223.got - 2010.05.20 11:32:06.
