data_PCOD9560186
_publ_section_title
;
Structure prediction by ZEFSAII (Michael W. Deem and Ramdas Pophale) SiO2 
 PCOD9560186
Probable space group: I -4 2 M
;
_chemical_formula_sum "Si O2"
_cell_formula_units_Z 112
_cell_length_a 19.166637
_cell_length_b 19.166637
_cell_length_c 20.415496
_cell_angle_alpha 90.000000
_cell_angle_beta 90.000000
_cell_angle_gamma 90.000000
_cell_volume 7499.836078
_symmetry_space_group_name_H-M "I -4 2 M"
_symmetry_group_IT_number 121
_symmetry_cell_setting 'tetragonal'
loop_
_space_group_symop_operation_xyz
x,y,z
y,-x,-z
-x,-y,z
-y,x,-z
x,-y,-z
-x,y,-z
-y,-x,z
y,x,z
1/2+x,1/2+y,1/2+z
1/2+y,1/2-x,1/2-z
1/2-x,1/2-y,1/2+z
1/2-y,1/2+x,1/2-z
1/2+x,1/2-y,1/2-z
1/2-x,1/2+y,1/2-z
1/2-y,1/2-x,1/2+z
1/2+y,1/2+x,1/2+z
loop_
_atom_site_type_symbol
_atom_site_label
_atom_site_fract_x
_atom_site_fract_y
_atom_site_fract_z
Si Si1 0.249537 0.361283 0.805090
Si Si2 0.935918 0.606303 0.450548
Si Si3 0.509275 0.917295 0.338844
Si Si4 0.007212 0.280146 0.645469
Si Si5 0.825483 0.934680 0.538633
Si Si6 0.114269 0.631921 0.274013
Si Si7 0.665837 0.775144 0.957360
O O1 0.320621 0.320621 0.789935
O O2 0.252794 0.445003 0.811713
O O3 0.188935 0.345146 0.753121
O O4 0.226974 0.336829 0.878346
O O5 0.910182 0.537805 0.412485
O O6 0.869353 0.650675 0.477167
O O7 0.000000 0.593502 0.500000
O O8 0.971971 0.656223 0.395251
O O9 0.436443 0.881621 0.320243
O O10 0.568098 0.890916 0.288735
O O11 0.500000 0.000000 0.328125
O O12 0.036443 0.225624 0.593614
O O13 0.069738 0.310508 0.688248
O O14 0.884291 0.884291 0.565905
O O15 0.779397 0.890085 0.487154
O O16 0.856558 0.000000 0.500000
O O17 0.741385 0.741385 0.976809
#
# Coordination Sequence:
#
# PCOD9560186 Si02
#       7
#    16  16  16  16  16  16  16
#     4  10  19  30  48  68  87 117 160 202 232 279
#     4  11  18  29  44  66  90 115 155 192 235 278
#     4  12  18  28  44  68  89 118 152 191 232 283
#     4  11  19  31  48  66  93 124 154 194 239 282
#     4  11  20  32  48  67  91 122 160 199 240 281
#     4  12  19  31  48  66  92 124 157 190 241 288
#     4   9  16  28  46  63  82 116 157 192 227 270
#
# _framework density 14.93366
#
# number of rings (size 3 to 8) (size 9 to 14) (size 15 to 20)
#    0.000    1.143   11.429    0.000    0.000    1.000 
#    0.000    0.000    0.000    0.000    0.000    0.000 
#    0.000    0.000    0.000    0.000    0.000    0.000 
#
# Total GULP energy -311957.823286 kJ/mol
# GULP energy per Si atom -5570.675416 kJ/mol
# Density = 1.489967 g / cm^3
# Si number density = 14.933660 Si / 1000 Ang^3
#
#
#
# Elastic Constant Matrix: (Units=GPa)
#
#
# Indices 1 2 3 4 5 6 
#
# 1 60.6301 39.5359 32.8864 0.0000 0.0000 0.0000
# 2 39.5359 60.6301 32.8864 0.0000 0.0000 0.0000
# 3 32.8864 32.8864 42.7058 0.0000 0.0000 0.0000
# 4 0.0000 0.0000 0.0000 11.9417 0.0000 0.0000
# 5 0.0000 0.0000 0.0000 0.0000 11.9417 0.0000
# 6 0.0000 0.0000 0.0000 0.0000 0.0000 20.9464
#
#
#
# Elastic Compliance Matrix: (Units=1/GPa)
#
#
# Indices 1 2 3 4 5 6 
#
# 1 0.033801 -0.013606 -0.015552 0.000000 0.000000 0.000000
# 2 -0.013606 0.033801 -0.015552 0.000000 0.000000 0.000000
# 3 -0.015552 -0.015552 0.047368 0.000000 0.000000 0.000000
# 4 0.000000 0.000000 0.000000 0.083740 0.000000 0.000000
# 5 0.000000 0.000000 0.000000 0.000000 0.083740 0.000000
# 6 0.000000 0.000000 0.000000 0.000000 0.000000 0.047741
#
#
# Mechanical properties :
#
#
# Convention : Reuss Voigt Hill
#
# Bulk Modulus (GPa) = 39.13680 41.62039 40.37859
# Shear Modulus (GPa) = 11.67880 12.87645 12.27763
#
# Velocity S-wave (km/s) = 2.79954 2.93958 2.87042
# Velocity P-wave (km/s) = 6.05920 6.28110 6.17115
#
# Compressibility (1/GPa) = 0.02555140
#
# Stress axis : x y z
#
# Youngs Moduli (GPa) = 29.58501 29.58501 21.11135
#
# Poissons Ratio (x) = 0.40252 0.32832
# Poissons Ratio (y) = 0.40252 0.32832
# Poissons Ratio (z) = 0.46010 0.46010
#
# Static dielectric constant tensor:
#      x y z
#    x 1.509240 0.000000 0.000000 
#    y 0.000000 1.509240 0.000000 
#    z 0.000000 0.000000 1.525060 
# 
# From -- ./inp_files/5615.got.cif
#   From: 2010.05.17/outbox.cif.g08.bks.cpg/sg121_3_cif.got.tgz:5615.got - 2010.05.20 11:32:06.
