data_PCOD9560187
_publ_section_title
;
Structure prediction by ZEFSAII (Michael W. Deem and Ramdas Pophale) SiO2 
 PCOD9560187
Probable space group: I -4 2 M
;
_chemical_formula_sum "Si O2"
_cell_formula_units_Z 80
_cell_length_a 11.054684
_cell_length_b 11.054684
_cell_length_c 32.542939
_cell_angle_alpha 90.000000
_cell_angle_beta 90.000000
_cell_angle_gamma 90.000000
_cell_volume 3976.943651
_symmetry_space_group_name_H-M "I -4 2 M"
_symmetry_group_IT_number 121
_symmetry_cell_setting 'tetragonal'
loop_
_space_group_symop_operation_xyz
x,y,z
y,-x,-z
-x,-y,z
-y,x,-z
x,-y,-z
-x,y,-z
-y,-x,z
y,x,z
1/2+x,1/2+y,1/2+z
1/2+y,1/2-x,1/2-z
1/2-x,1/2-y,1/2+z
1/2-y,1/2+x,1/2-z
1/2+x,1/2-y,1/2-z
1/2-x,1/2+y,1/2-z
1/2-y,1/2-x,1/2+z
1/2+y,1/2+x,1/2+z
loop_
_atom_site_type_symbol
_atom_site_label
_atom_site_fract_x
_atom_site_fract_y
_atom_site_fract_z
Si Si1 0.180405 0.611443 0.621767
Si Si2 0.957153 0.761954 0.719464
Si Si3 0.998362 0.190265 0.371867
Si Si4 0.493958 0.297747 0.545841
Si Si5 0.576593 0.776481 0.694721
O O1 0.279963 0.720038 0.623254
O O2 0.209203 0.529160 0.582387
O O3 0.204369 0.530308 0.662152
O O4 0.050045 0.677461 0.617553
O O5 0.838760 0.838760 0.730102
O O6 0.010331 0.813697 0.677624
O O7 0.906503 0.634099 0.704521
O O8 0.033991 0.764390 0.760236
O O9 0.863948 0.136053 0.380890
O O10 0.092855 0.092855 0.389672
O O11 0.500000 0.243936 0.500000
O O12 0.596120 0.403881 0.545867
O O13 0.367100 0.367100 0.552381
O O14 0.678117 0.678117 0.680029
#
# Coordination Sequence:
#
# PCOD9560187 Si02
#       5
#    16  16  16  16  16
#     4  10  19  30  48  75 103 135 176 217 262 317
#     4  10  21  34  46  64  94 134 175 214 267 321
#     4   9  18  33  50  67  93 132 177 221 261 307
#     4   8  14  26  45  71 106 142 168 198 254 328
#     4  11  22  33  47  70  99 132 177 230 273 316
#
# _framework density 20.115950999999999
#
# number of rings (size 3 to 8) (size 9 to 14) (size 15 to 20)
#    0.000    2.400    0.000    3.600    0.000    9.200 
#    0.000    0.000    0.000    0.000    0.000    2.800 
#    0.000    6.400    0.000   36.000    0.000    4.400 
#
# Total GULP energy -222770.655510 kJ/mol
# GULP energy per Si atom -5569.266388 kJ/mol
# Density = 2.007017 g / cm^3
# Si number density = 20.115951 Si / 1000 Ang^3
#
#
#
# Elastic Constant Matrix: (Units=GPa)
#
#
# Indices 1 2 3 4 5 6 
#
# 1 20.9438 91.7479 35.7778 0.0000 0.0000 0.0000
# 2 91.7479 20.9437 35.7772 0.0000 0.0000 0.0000
# 3 35.7778 35.7772 84.0438 0.0000 0.0000 0.0000
# 4 0.0000 0.0000 0.0000 7.2290 0.0000 0.0000
# 5 0.0000 0.0000 0.0000 0.0000 7.2291 0.0000
# 6 0.0000 0.0000 0.0000 0.0000 0.0000 37.6739
#
#
#
# Elastic Compliance Matrix: (Units=1/GPa)
#
#
# Indices 1 2 3 4 5 6 
#
# 1 -0.000981 0.013142 -0.005177 0.000000 0.000000 0.000000
# 2 0.013142 -0.000981 -0.005177 0.000000 0.000000 0.000000
# 3 -0.005177 -0.005177 0.016306 0.000000 0.000000 0.000000
# 4 0.000000 0.000000 0.000000 0.138331 0.000000 0.000000
# 5 0.000000 0.000000 0.000000 0.000000 0.138329 0.000000
# 6 0.000000 0.000000 0.000000 0.000000 0.000000 0.026544
#
#
# Mechanical properties :
#
#
# Convention : Reuss Voigt Hill
#
# Bulk Modulus (GPa) = 50.19982 50.28187 50.24084
# Shear Modulus (GPa) = 15.69311 7.93498 11.81405
#
# Velocity S-wave (km/s) = 2.79612 1.98826 2.42605
# Velocity P-wave (km/s) = 5.95263 5.50647 5.73389
#
# Compressibility (1/GPa) = 0.01992039
#
# Stress axis : x y z
#
# Youngs Moduli (GPa) = -1019.04707 -1019.11346 61.32647
#
# Poissons Ratio (x) = 13.39339 0.31748
# Poissons Ratio (y) = 13.39251 0.31749
# Poissons Ratio (z) = -5.27544 -5.27592
#
# Static dielectric constant tensor:
#      x y z
#    x 1.834380 0.000000 0.000000 
#    y 0.000000 1.834380 0.000000 
#    z 0.000000 0.000000 1.695830 
# 
# From -- ./inp_files/8019.got.cif
#   From: 2010.05.17/outbox.cif.g08.bks.cpg/sg121_5_cif.got.tgz:8019.got - 2010.05.20 11:32:06.
