data_PCOD9560926
_publ_section_title
;
Structure prediction by ZEFSAII (Michael W. Deem and Ramdas Pophale) SiO2 
 PCOD9560926
Probable space group: I -4 2 D
;
_chemical_formula_sum "Si O2"
_cell_formula_units_Z 72
_cell_length_a 14.677627
_cell_length_b 14.677627
_cell_length_c 16.849589
_cell_angle_alpha 90.000000
_cell_angle_beta 90.000000
_cell_angle_gamma 90.000000
_cell_volume 3629.953031
_symmetry_space_group_name_H-M "I -4 2 D"
_symmetry_group_IT_number 122
_symmetry_cell_setting 'tetragonal'
loop_
_space_group_symop_operation_xyz
x,y,z
y,-x,-z
-x,-y,z
-y,x,-z
x,1/2-y,1/4-z
-x,1/2+y,1/4-z
-y,1/2-x,1/4+z
y,1/2+x,1/4+z
1/2+x,1/2+y,1/2+z
1/2+y,1/2-x,1/2-z
1/2-x,1/2-y,1/2+z
1/2-y,1/2+x,1/2-z
1/2+x,-y,3/4-z
1/2-x,y,3/4-z
1/2-y,-x,3/4+z
1/2+y,x,3/4+z
loop_
_atom_site_type_symbol
_atom_site_label
_atom_site_fract_x
_atom_site_fract_y
_atom_site_fract_z
Si Si1 0.897190 0.015438 0.880976
Si Si2 0.250000 0.330267 0.875000
Si Si3 0.663327 0.152000 0.552748
Si Si4 0.445772 0.833717 0.982024
Si Si5 0.797003 0.846118 0.082819
O O1 0.853463 0.918260 0.866442
O O2 0.907367 0.066994 0.795040
O O3 0.850208 0.093676 0.933652
O O4 0.000000 0.000000 0.908965
O O5 0.173918 0.260641 0.841638
O O6 0.291086 0.392100 0.805012
O O7 0.644238 0.267591 0.758874
O O8 0.663741 0.053983 0.509606
O O9 0.422596 0.780555 0.899892
O O10 0.779242 0.750000 0.125000
#
# Coordination Sequence:
#
# PCOD9560926 Si02
#       5
#    16   8  16  16  16
#     4   8  19  38  59  92 120 162 202 255 315 368
#     4  12  24  38  64 100 114 172 222 244 314 388
#     4  11  22  40  67  91 129 166 204 271 311 368
#     4   9  23  38  60  92 130 159 214 254 314 380
#     4  10  20  40  60  88 128 165 201 255 321 365
#
# _framework density 19.834968
#
# number of rings (size 3 to 8) (size 9 to 14) (size 15 to 20)
#    1.333    0.889    2.222    0.000    6.222    0.000 
#    0.000    0.000    0.000    0.000    0.000    0.000 
#    0.000    0.000    0.000    0.000    0.000    0.000 
#
# Total GULP energy -200661.270995 kJ/mol
# GULP energy per Si atom -5573.924194 kJ/mol
# Density = 1.978982 g / cm^3
# Si number density = 19.834968 Si / 1000 Ang^3
#
#
#
# Elastic Constant Matrix: (Units=GPa)
#
#
# Indices 1 2 3 4 5 6 
#
# 1 120.4424 42.7114 49.4578 0.0000 0.0000 0.0000
# 2 42.7114 120.4424 49.4578 0.0000 0.0000 0.0000
# 3 49.4578 49.4578 81.0549 0.0000 0.0000 0.0000
# 4 0.0000 0.0000 0.0000 26.4450 0.0000 0.0000
# 5 0.0000 0.0000 0.0000 0.0000 26.4450 0.0000
# 6 0.0000 0.0000 0.0000 0.0000 0.0000 24.6982
#
#
#
# Elastic Compliance Matrix: (Units=1/GPa)
#
#
# Indices 1 2 3 4 5 6 
#
# 1 0.011296 -0.001569 -0.005936 0.000000 0.000000 0.000000
# 2 -0.001569 0.011296 -0.005936 0.000000 0.000000 0.000000
# 3 -0.005936 -0.005936 0.019581 0.000000 0.000000 0.000000
# 4 0.000000 0.000000 0.000000 0.037814 0.000000 0.000000
# 5 0.000000 0.000000 0.000000 0.000000 0.037814 0.000000
# 6 0.000000 0.000000 0.000000 0.000000 0.000000 0.040489
#
#
# Mechanical properties :
#
#
# Convention : Reuss Voigt Hill
#
# Bulk Modulus (GPa) = 65.38577 67.24374 66.31475
# Shear Modulus (GPa) = 26.27864 27.53852 26.90858
#
# Velocity S-wave (km/s) = 3.64382 3.73014 3.68723
# Velocity P-wave (km/s) = 7.12318 7.24756 7.18564
#
# Compressibility (1/GPa) = 0.01529385
#
# Stress axis : x y z
#
# Youngs Moduli (GPa) = 88.52418 88.52418 51.07011
#
# Poissons Ratio (x) = 0.13885 0.30314
# Poissons Ratio (y) = 0.13885 0.30314
# Poissons Ratio (z) = 0.52545 0.52545
#
# Static dielectric constant tensor:
#      x y z
#    x 1.717850 0.000000 0.000000 
#    y 0.000000 1.717850 0.000000 
#    z 0.000000 0.000000 1.706870 
# 
# From -- ./inp_files/6214.got.cif
#   From: 2010.05.17/outbox.cif.g08.bks.cpg/sg122_4_cif.got.tgz:6214.got - 2010.05.20 11:37:33.
