data_PCOD9560248
_publ_section_title
;
Structure prediction by ZEFSAII (Michael W. Deem and Ramdas Pophale) SiO2 
 PCOD9560248
Probable space group: I -4 2 M
;
_chemical_formula_sum "Si O2"
_cell_formula_units_Z 128
_cell_length_a 21.405256
_cell_length_b 21.405256
_cell_length_c 17.546987
_cell_angle_alpha 90.000000
_cell_angle_beta 90.000000
_cell_angle_gamma 90.000000
_cell_volume 8039.765965
_symmetry_space_group_name_H-M "I -4 2 M"
_symmetry_group_IT_number 121
_symmetry_cell_setting 'tetragonal'
loop_
_space_group_symop_operation_xyz
x,y,z
y,-x,-z
-x,-y,z
-y,x,-z
x,-y,-z
-x,y,-z
-y,-x,z
y,x,z
1/2+x,1/2+y,1/2+z
1/2+y,1/2-x,1/2-z
1/2-x,1/2-y,1/2+z
1/2-y,1/2+x,1/2-z
1/2+x,1/2-y,1/2-z
1/2-x,1/2+y,1/2-z
1/2-y,1/2-x,1/2+z
1/2+y,1/2+x,1/2+z
loop_
_atom_site_type_symbol
_atom_site_label
_atom_site_fract_x
_atom_site_fract_y
_atom_site_fract_z
Si Si1 0.189361 0.289996 0.564356
Si Si2 0.582431 0.951359 0.275656
Si Si3 0.140146 0.756845 0.672895
Si Si4 0.307939 0.025701 0.919497
Si Si5 0.762829 0.662949 0.398810
Si Si6 0.729951 0.070721 0.519350
Si Si7 0.943589 0.586371 0.447356
Si Si8 0.902382 0.307679 0.816609
O O1 0.239603 0.239603 0.592308
O O2 0.215179 0.317991 0.484306
O O3 0.124573 0.255602 0.542218
O O4 0.184209 0.346400 0.623668
O O5 0.514318 0.921616 0.272668
O O6 0.596989 0.968588 0.362042
O O7 0.631922 0.906897 0.237477
O O8 0.180470 0.819531 0.668081
O O9 0.189259 0.700301 0.655916
O O10 0.091689 0.753019 0.602824
O O11 0.110518 0.747155 0.755909
O O12 0.272854 0.088757 0.892370
O O13 0.380059 0.046948 0.937086
O O14 0.303159 0.968082 0.861169
O O15 0.282679 0.000000 0.000000
O O16 0.694756 0.694756 0.387443
O O17 0.654275 0.073244 0.520633
O O18 0.748501 0.000000 0.500000
O O19 0.000000 0.562955 0.500000
#
# Coordination Sequence:
#
# PCOD9560248 Si02
#       8
#    16  16  16  16  16  16  16  16
#     4  10  20  35  52  74 104 143 182 224 274 327
#     4  11  24  34  43  68 102 144 184 228 257 299
#     4  10  20  37  57  78 105 144 183 227 289 333
#     4  12  21  34  49  77 104 140 188 229 265 316
#     4   9  18  36  55  70  99 142 186 221 272 327
#     4  10  19  34  55  78 102 138 188 224 270 320
#     4  11  22  35  48  66 102 150 191 218 265 305
#     4  12  22  33  52  74 109 139 186 237 271 322
#
# _framework density 15.920862
#
# number of rings (size 3 to 8) (size 9 to 14) (size 15 to 20)
#    0.000    1.375    6.250    1.500    5.250    0.250 
#    0.000    0.625    0.000    0.000    0.000    0.000 
#    0.000   10.250    0.000    0.000    0.000    0.000 
#
# Total GULP energy -356880.590516 kJ/mol
# GULP energy per Si atom -5576.259227 kJ/mol
# Density = 1.588463 g / cm^3
# Si number density = 15.920862 Si / 1000 Ang^3
#
#
#
# Elastic Constant Matrix: (Units=GPa)
#
#
# Indices 1 2 3 4 5 6 
#
# 1 77.8931 40.3570 32.9141 0.0000 0.0000 0.0000
# 2 40.3570 77.8914 32.9138 0.0000 0.0000 0.0000
# 3 32.9141 32.9138 78.5067 0.0000 0.0000 0.0000
# 4 0.0000 0.0000 0.0000 56.6525 0.0000 0.0000
# 5 0.0000 0.0000 0.0000 0.0000 56.6563 0.0000
# 6 0.0000 0.0000 0.0000 0.0000 0.0000 0.4136
#
#
#
# Elastic Compliance Matrix: (Units=1/GPa)
#
#
# Indices 1 2 3 4 5 6 
#
# 1 0.018836 -0.007805 -0.004625 0.000000 0.000000 0.000000
# 2 -0.007805 0.018837 -0.004625 0.000000 0.000000 0.000000
# 3 -0.004625 -0.004625 0.016616 0.000000 0.000000 0.000000
# 4 0.000000 0.000000 0.000000 0.017651 0.000000 0.000000
# 5 0.000000 0.000000 0.000000 0.000000 0.017650 0.000000
# 6 0.000000 0.000000 0.000000 0.000000 0.000000 2.417877
#
#
# Mechanical properties :
#
#
# Convention : Reuss Voigt Hill
#
# Bulk Modulus (GPa) = 49.55684 49.62899 49.59291
# Shear Modulus (GPa) = 1.96209 31.28491 16.62350
#
# Velocity S-wave (km/s) = 1.11134 4.43767 3.23481
# Velocity P-wave (km/s) = 5.73074 7.58269 6.72081
#
# Compressibility (1/GPa) = 0.02017885
#
# Stress axis : x y z
#
# Youngs Moduli (GPa) = 53.08903 53.08789 60.18397
#
# Poissons Ratio (x) = 0.41436 0.27834
# Poissons Ratio (y) = 0.41437 0.27835
# Poissons Ratio (z) = 0.24553 0.24553
#
# Static dielectric constant tensor:
#      x y z
#    x 1.554290 0.000000 0.000000 
#    y 0.000000 1.554290 0.000000 
#    z 0.000000 0.000000 1.575800 
# 
# From -- ./inp_files/5679.got.cif
#   From: 2010.05.17/outbox.cif.g08.bks.cpg/sg121_3_cif.got.tgz:5679.got - 2010.05.20 11:32:06.
