data_PCOD9560053
_publ_section_title
;
Structure prediction by ZEFSAII (Michael W. Deem and Ramdas Pophale) SiO2 
 PCOD9560053
Probable space group: I -4 C 2
;
_chemical_formula_sum "Si O2"
_cell_formula_units_Z 40
_cell_length_a 9.649660
_cell_length_b 9.649660
_cell_length_c 20.383363
_cell_angle_alpha 90.000000
_cell_angle_beta 90.000000
_cell_angle_gamma 90.000000
_cell_volume 1898.015968
_symmetry_space_group_name_H-M "I -4 C 2"
_symmetry_group_IT_number 120
_symmetry_cell_setting 'tetragonal'
loop_
_space_group_symop_operation_xyz
x,y,z
y,-x,-z
-x,-y,z
-y,x,-z
y,x,1/2-z
-y,-x,1/2-z
-x,y,1/2+z
x,-y,1/2+z
1/2+x,1/2+y,1/2+z
1/2+y,1/2-x,1/2-z
1/2-x,1/2-y,1/2+z
1/2-y,1/2+x,1/2-z
1/2+y,1/2+x,-z
1/2-y,1/2-x,-z
1/2-x,1/2+y,z
1/2+x,1/2-y,z
loop_
_atom_site_type_symbol
_atom_site_label
_atom_site_fract_x
_atom_site_fract_y
_atom_site_fract_z
Si Si1 0.805662 0.580767 0.771735
Si Si2 0.330332 0.493003 0.907468
Si Si3 0.738763 0.761238 0.000000
O O1 0.691441 0.691441 0.750000
O O2 0.839790 0.453577 0.721987
O O3 0.742256 0.512225 0.836749
O O4 0.500000 0.500000 0.903819
O O5 0.280754 0.361246 0.948325
O O6 0.264236 0.613314 0.950704
#
# Coordination Sequence:
#
# PCOD9560053 Si02
#       3
#    16  16   8
#     4  11  28  49  75 114 148 200 253 311 382 450
#     4  12  27  49  76 109 156 193 253 312 378 454
#     4  12  24  50  76 110 146 204 242 314 378 442
#
# _framework density 21.074639000000001
#
# number of rings (size 3 to 8) (size 9 to 14) (size 15 to 20)
#    0.000    0.400    4.000    2.400   11.200    7.200 
#    0.000    0.000    0.000    0.000    0.000    0.000 
#    0.000    0.000    0.000    0.000    0.000    0.000 
#
# Total GULP energy -111595.341622 kJ/mol
# GULP energy per Si atom -5579.767081 kJ/mol
# Density = 2.102667 g / cm^3
# Si number density = 21.074639 Si / 1000 Ang^3
#
#
#
# Elastic Constant Matrix: (Units=GPa)
#
#
# Indices 1 2 3 4 5 6 
#
# 1 132.7293 122.4890 53.7835 0.0000 0.0000 0.0000
# 2 122.4890 132.7320 53.7841 0.0000 0.0000 0.0000
# 3 53.7835 53.7841 62.2050 0.0000 0.0000 0.0000
# 4 0.0000 0.0000 0.0000 -0.6765 0.0000 0.0000
# 5 0.0000 0.0000 0.0000 0.0000 -0.6779 0.0000
# 6 0.0000 0.0000 0.0000 0.0000 0.0000 34.4912
#
#
#
# Elastic Compliance Matrix: (Units=1/GPa)
#
#
# Indices 1 2 3 4 5 6 
#
# 1 0.051903 -0.045738 -0.005330 0.000000 0.000000 0.000000
# 2 -0.045738 0.051902 -0.005330 0.000000 0.000000 0.000000
# 3 -0.005330 -0.005330 0.025293 0.000000 0.000000 0.000000
# 4 0.000000 0.000000 0.000000 -1.478254 0.000000 0.000000
# 5 0.000000 0.000000 0.000000 0.000000 -1.475221 0.000000
# 6 0.000000 0.000000 0.000000 0.000000 0.000000 0.028993
#
#
# Mechanical properties :
#
#
# Convention : Reuss Voigt Hill
#
# Bulk Modulus (GPa) = 61.34280 87.53106 74.43693
# Shear Modulus (GPa) = -1.86766 13.13468 5.63351
#
# Velocity S-wave (km/s) = -0.94241 2.49920 1.63674
# Velocity P-wave (km/s) = 5.29022 7.06767 6.24253
#
# Compressibility (1/GPa) = 0.01630183
#
# Stress axis : x y z
#
# Youngs Moduli (GPa) = 19.26667 19.26704 39.53673
#
# Poissons Ratio (x) = 0.88123 0.21074
# Poissons Ratio (y) = 0.88122 0.21074
# Poissons Ratio (z) = 0.10269 0.10270
#
# Static dielectric constant tensor:
#      x y z
#    x 2.085290 0.000000 0.000000 
#    y 0.000000 2.085260 0.000000 
#    z 0.000000 0.000000 1.774200 
# 
# From -- ./inp_files/5577.got.cif
#   From: 2010.05.17/outbox.cif.g08.bks.cpg/sg120_3_cif.got.tgz:5577.got - 2010.05.20 11:28:13.
