data_PCOD9560064
_publ_section_title
;
Structure prediction by ZEFSAII (Michael W. Deem and Ramdas Pophale) SiO2 
 PCOD9560064
Probable space group: I -4 C 2
;
_chemical_formula_sum "Si O2"
_cell_formula_units_Z 64
_cell_length_a 11.274380
_cell_length_b 11.274380
_cell_length_c 23.307398
_cell_angle_alpha 90.000000
_cell_angle_beta 90.000000
_cell_angle_gamma 90.000000
_cell_volume 2962.641686
_symmetry_space_group_name_H-M "I -4 C 2"
_symmetry_group_IT_number 120
_symmetry_cell_setting 'tetragonal'
loop_
_space_group_symop_operation_xyz
x,y,z
y,-x,-z
-x,-y,z
-y,x,-z
y,x,1/2-z
-y,-x,1/2-z
-x,y,1/2+z
x,-y,1/2+z
1/2+x,1/2+y,1/2+z
1/2+y,1/2-x,1/2-z
1/2-x,1/2-y,1/2+z
1/2-y,1/2+x,1/2-z
1/2+y,1/2+x,-z
1/2-y,1/2-x,-z
1/2-x,1/2+y,z
1/2+x,1/2-y,z
loop_
_atom_site_type_symbol
_atom_site_label
_atom_site_fract_x
_atom_site_fract_y
_atom_site_fract_z
Si Si1 0.500000 0.500000 0.138629
Si Si2 0.739887 0.760114 0.500000
Si Si3 0.127892 0.555773 0.319283
Si Si4 0.487733 0.738268 0.568348
Si Si5 0.788696 0.960875 0.717081
O O1 0.516739 0.610390 0.097785
O O2 0.387197 0.526766 0.179498
O O3 0.609828 0.752866 0.531282
O O4 0.750303 0.639019 0.462647
O O5 0.174777 0.499838 0.377491
O O6 0.103795 0.695203 0.324030
O O7 0.215529 0.532188 0.265449
O O8 0.000000 0.500000 0.308722
O O9 0.860531 0.860531 0.750000
#
# Coordination Sequence:
#
# PCOD9560064 Si02
#       5
#     8   8  16  16  16
#     4  12  27  47  78 114 152 203 248 311 398 470
#     4  12  30  54  76 110 148 200 274 336 392 450
#     4  12  27  45  72 109 153 199 245 307 387 468
#     4  12  29  49  80 107 150 200 261 332 387 459
#     4  12  25  44  71 114 154 197 239 305 376 486
#
# _framework density 21.602343000000001
#
# number of rings (size 3 to 8) (size 9 to 14) (size 15 to 20)
#    0.000    0.000    5.000    3.375   10.500    0.000 
#    0.000    0.000    0.000    0.000    0.000    0.000 
#    0.000    0.000    0.000    0.000    0.000    0.000 
#
# Total GULP energy -178854.536303 kJ/mol
# GULP energy per Si atom -5589.204259 kJ/mol
# Density = 2.155317 g / cm^3
# Si number density = 21.602343 Si / 1000 Ang^3
#
#
#
# Elastic Constant Matrix: (Units=GPa)
#
#
# Indices 1 2 3 4 5 6 
#
# 1 141.0938 31.1146 62.0918 0.0000 0.0000 0.0000
# 2 31.1146 141.0949 62.0923 0.0000 0.0000 0.0000
# 3 62.0918 62.0923 115.8786 0.0000 0.0000 0.0000
# 4 0.0000 0.0000 0.0000 29.3774 0.0000 0.0000
# 5 0.0000 0.0000 0.0000 0.0000 29.3782 0.0000
# 6 0.0000 0.0000 0.0000 0.0000 0.0000 34.6012
#
#
#
# Elastic Compliance Matrix: (Units=1/GPa)
#
#
# Indices 1 2 3 4 5 6 
#
# 1 0.009278 0.000186 -0.005071 0.000000 0.000000 0.000000
# 2 0.000186 0.009278 -0.005071 0.000000 0.000000 0.000000
# 3 -0.005071 -0.005071 0.014064 0.000000 0.000000 0.000000
# 4 0.000000 0.000000 0.000000 0.034040 0.000000 0.000000
# 5 0.000000 0.000000 0.000000 0.000000 0.034039 0.000000
# 6 0.000000 0.000000 0.000000 0.000000 0.000000 0.028901
#
#
# Mechanical properties :
#
#
# Convention : Reuss Voigt Hill
#
# Bulk Modulus (GPa) = 78.69309 78.74050 78.71680
# Shear Modulus (GPa) = 32.52059 34.85592 33.68826
#
# Velocity S-wave (km/s) = 3.88418 4.02123 3.95330
# Velocity P-wave (km/s) = 7.52482 7.62165 7.57339
#
# Compressibility (1/GPa) = 0.01270760
#
# Stress axis : x y z
#
# Youngs Moduli (GPa) = 107.77974 107.78027 71.10250
#
# Poissons Ratio (x) = -0.02000 0.36056
# Poissons Ratio (y) = -0.02000 0.36056
# Poissons Ratio (z) = 0.54655 0.54656
#
# Static dielectric constant tensor:
#      x y z
#    x 1.855420 0.000000 0.000000 
#    y 0.000000 1.855420 0.000000 
#    z 0.000000 0.000000 1.896810 
# 
# From -- ./inp_files/5693.got.cif
#   From: 2010.05.17/outbox.cif.g08.bks.cpg/sg120_3_cif.got.tgz:5693.got - 2010.05.20 11:28:13.
