data_PCOD9560996
_publ_section_title
;
Structure prediction by ZEFSAII (Michael W. Deem and Ramdas Pophale) SiO2 
 PCOD9560996
Probable space group: I -4 2 D
;
_chemical_formula_sum "Si O2"
_cell_formula_units_Z 112
_cell_length_a 13.910968
_cell_length_b 13.910968
_cell_length_c 26.700613
_cell_angle_alpha 90.000000
_cell_angle_beta 90.000000
_cell_angle_gamma 90.000000
_cell_volume 5166.969944
_symmetry_space_group_name_H-M "I -4 2 D"
_symmetry_group_IT_number 122
_symmetry_cell_setting 'tetragonal'
loop_
_space_group_symop_operation_xyz
x,y,z
y,-x,-z
-x,-y,z
-y,x,-z
x,1/2-y,1/4-z
-x,1/2+y,1/4-z
-y,1/2-x,1/4+z
y,1/2+x,1/4+z
1/2+x,1/2+y,1/2+z
1/2+y,1/2-x,1/2-z
1/2-x,1/2-y,1/2+z
1/2-y,1/2+x,1/2-z
1/2+x,-y,3/4-z
1/2-x,y,3/4-z
1/2-y,-x,3/4+z
1/2+y,x,3/4+z
loop_
_atom_site_type_symbol
_atom_site_label
_atom_site_fract_x
_atom_site_fract_y
_atom_site_fract_z
Si Si1 0.853060 0.948231 0.348974
Si Si2 0.364460 0.583973 0.511517
Si Si3 0.245342 0.563165 0.138104
Si Si4 0.232549 0.607423 0.026685
Si Si5 0.844156 0.619663 0.567218
Si Si6 0.764024 0.317234 0.427709
Si Si7 0.098862 0.742755 0.500974
O O1 0.750000 0.961402 0.375000
O O2 0.899616 0.854453 0.372518
O O3 0.839542 0.912518 0.292076
O O4 0.896680 0.054422 0.345013
O O5 0.470535 0.626346 0.501176
O O6 0.321513 0.604933 0.567046
O O7 0.292533 0.630555 0.471765
O O8 0.201288 0.585821 0.083663
O O9 0.270521 0.459383 0.162208
O O10 0.280721 0.509138 0.005045
O O11 0.139765 0.632584 0.991665
O O12 0.315747 0.687862 0.019906
O O13 0.788503 0.718015 0.577973
O O14 0.750000 0.368077 0.375000
O O15 0.870268 0.300407 0.447737
#
# Coordination Sequence:
#
# PCOD9560996 Si02
#       7
#    16  16  16  16  16  16  16
#     4  11  21  38  63  97 132 169 216 267 331 407
#     4  11  25  46  68  96 130 170 237 300 346 408
#     4  12  22  43  70  94 133 181 220 282 355 401
#     4  10  23  40  64  95 134 175 223 270 335 407
#     4  10  23  41  64  97 134 177 223 278 332 419
#     4  11  21  41  66  90 129 179 220 273 354 405
#     4  10  21  38  57  92 130 166 213 272 313 406
#
# _framework density 21.676148000000001
#
# number of rings (size 3 to 8) (size 9 to 14) (size 15 to 20)
#    0.000    1.286    4.286    1.714    0.000    2.571 
#    5.143    0.000    3.143    0.000    0.000    0.000 
#    0.000    0.000    0.000    0.000    0.000    0.000 
#
# Total GULP energy -311822.203629 kJ/mol
# GULP energy per Si atom -5568.253636 kJ/mol
# Density = 2.162681 g / cm^3
# Si number density = 21.676148 Si / 1000 Ang^3
#
#
#
# Elastic Constant Matrix: (Units=GPa)
#
#
# Indices 1 2 3 4 5 6 
#
# 1 19.7692 13.6663 17.4847 0.0000 0.0000 0.0000
# 2 13.6663 19.7692 17.4847 0.0000 0.0000 0.0000
# 3 17.4847 17.4847 168.9408 0.0000 0.0000 0.0000
# 4 0.0000 0.0000 0.0000 16.7304 0.0000 0.0000
# 5 0.0000 0.0000 0.0000 0.0000 16.7304 0.0000
# 6 0.0000 0.0000 0.0000 0.0000 0.0000 23.0515
#
#
#
# Elastic Compliance Matrix: (Units=1/GPa)
#
#
# Indices 1 2 3 4 5 6 
#
# 1 0.098697 -0.065158 -0.003471 0.000000 0.000000 0.000000
# 2 -0.065158 0.098697 -0.003471 0.000000 0.000000 0.000000
# 3 -0.003471 -0.003471 0.006638 0.000000 0.000000 0.000000
# 4 0.000000 0.000000 0.000000 0.059771 0.000000 0.000000
# 5 0.000000 0.000000 0.000000 0.000000 0.059771 0.000000
# 6 0.000000 0.000000 0.000000 0.000000 0.000000 0.043381
#
#
# Mechanical properties :
#
#
# Convention : Reuss Voigt Hill
#
# Bulk Modulus (GPa) = 16.71384 33.97231 25.34308
# Shear Modulus (GPa) = 9.41440 21.95868 15.68654
#
# Velocity S-wave (km/s) = 2.08630 3.18627 2.69304
# Velocity P-wave (km/s) = 3.67845 5.40769 4.62461
#
# Compressibility (1/GPa) = 0.05983065
#
# Stress axis : x y z
#
# Youngs Moduli (GPa) = 10.13200 10.13200 150.65391
#
# Poissons Ratio (x) = 0.66019 0.52294
# Poissons Ratio (y) = 0.66019 0.52294
# Poissons Ratio (z) = 0.03517 0.03517
#
# Static dielectric constant tensor:
#      x y z
#    x 1.859590 0.000000 0.000000 
#    y 0.000000 1.859590 0.000000 
#    z 0.000000 0.000000 1.921880 
# 
# From -- ./inp_files/8116.got.cif
#   From: 2010.05.17/outbox.cif.g08.bks.cpg/sg122_5_cif.got.tgz:8116.got - 2010.05.20 11:37:33.
