data_PCOD9560228
_publ_section_title
;
Structure prediction by ZEFSAII (Michael W. Deem and Ramdas Pophale) SiO2 
 PCOD9560228
Probable space group: I -4 2 M
;
_chemical_formula_sum "Si O2"
_cell_formula_units_Z 60
_cell_length_a 19.353967
_cell_length_b 19.353967
_cell_length_c 8.405074
_cell_angle_alpha 90.000000
_cell_angle_beta 90.000000
_cell_angle_gamma 90.000000
_cell_volume 3148.339323
_symmetry_space_group_name_H-M "I -4 2 M"
_symmetry_group_IT_number 121
_symmetry_cell_setting 'tetragonal'
loop_
_space_group_symop_operation_xyz
x,y,z
y,-x,-z
-x,-y,z
-y,x,-z
x,-y,-z
-x,y,-z
-y,-x,z
y,x,z
1/2+x,1/2+y,1/2+z
1/2+y,1/2-x,1/2-z
1/2-x,1/2-y,1/2+z
1/2-y,1/2+x,1/2-z
1/2+x,1/2-y,1/2-z
1/2-x,1/2+y,1/2-z
1/2-y,1/2-x,1/2+z
1/2+y,1/2+x,1/2+z
loop_
_atom_site_type_symbol
_atom_site_label
_atom_site_fract_x
_atom_site_fract_y
_atom_site_fract_z
Si Si1 0.085008 0.914993 0.247075
Si Si2 0.278244 0.165859 0.561642
Si Si3 0.500000 0.500000 0.000000
Si Si4 0.621629 0.266497 0.292963
Si Si5 0.500000 0.500000 0.500000
Si Si6 0.768396 0.029497 0.320649
O O1 0.048593 0.951408 0.396956
O O2 0.164448 0.932339 0.256379
O O3 0.048906 0.951095 0.100625
O O4 0.213830 0.213830 0.619526
O O5 0.343976 0.215181 0.580505
O O6 0.260990 0.147524 0.379478
O O7 0.284858 0.092970 0.654640
O O8 0.657176 0.342825 0.311883
O O9 0.539070 0.260330 0.285599
O O10 0.780833 0.000000 0.500000
#
# Coordination Sequence:
#
# PCOD9560228 Si02
#       6
#     8  16   2  16   2  16
#     4  11  20  36  46  74 106 141 175 206 255 306
#     4   9  17  34  50  74 103 132 170 218 258 305
#     4  10  20  26  60  62 100 146 172 202 244 302
#     4   9  19  32  51  77 102 132 172 215 262 305
#     4  10  28  34  36  70 124 142 160 214 256 326
#     4  10  19  32  58  78  95 136 188 217 246 306
#
# _framework density 19.057666999999999
#
# number of rings (size 3 to 8) (size 9 to 14) (size 15 to 20)
#    0.000    2.400    2.667    0.000    5.600    0.000 
#    4.800    0.000    0.000    0.800    0.000    5.600 
#    0.000    0.000    0.000    0.000    0.000    0.000 
#
# Total GULP energy -167221.045325 kJ/mol
# GULP energy per Si atom -5574.034844 kJ/mol
# Density = 1.901429 g / cm^3
# Si number density = 19.057667 Si / 1000 Ang^3
#
#
#
# Elastic Constant Matrix: (Units=GPa)
#
#
# Indices 1 2 3 4 5 6 
#
# 1 64.1563 5.0036 1.7982 0.0000 0.0000 0.0000
# 2 5.0036 64.1530 1.7982 0.0000 0.0000 0.0000
# 3 1.7982 1.7982 9.9847 0.0000 0.0000 0.0000
# 4 0.0000 0.0000 0.0000 18.6860 0.0000 0.0000
# 5 0.0000 0.0000 0.0000 0.0000 18.6868 0.0000
# 6 0.0000 0.0000 0.0000 0.0000 0.0000 23.2689
#
#
#
# Elastic Compliance Matrix: (Units=1/GPa)
#
#
# Indices 1 2 3 4 5 6 
#
# 1 0.015751 -0.001155 -0.002629 0.000000 0.000000 0.000000
# 2 -0.001155 0.015751 -0.002629 0.000000 0.000000 0.000000
# 3 -0.002629 -0.002629 0.101100 0.000000 0.000000 0.000000
# 4 0.000000 0.000000 0.000000 0.053516 0.000000 0.000000
# 5 0.000000 0.000000 0.000000 0.000000 0.053514 0.000000
# 6 0.000000 0.000000 0.000000 0.000000 0.000000 0.042976
#
#
# Mechanical properties :
#
#
# Convention : Reuss Voigt Hill
#
# Bulk Modulus (GPa) = 8.34881 17.27712 12.81297
# Shear Modulus (GPa) = 14.90942 20.77459 17.84201
#
# Velocity S-wave (km/s) = 2.80005 3.30523 3.06308
# Velocity P-wave (km/s) = 3.85280 4.86328 4.38723
#
# Compressibility (1/GPa) = 0.11977751
#
# Stress axis : x y z
#
# Youngs Moduli (GPa) = 63.48930 63.48602 9.89120
#
# Poissons Ratio (x) = 0.07331 0.02600
# Poissons Ratio (y) = 0.07332 0.02600
# Poissons Ratio (z) = 0.16689 0.16690
#
# Static dielectric constant tensor:
#      x y z
#    x 1.670670 0.000000 0.000000 
#    y 0.000000 1.670670 0.000000 
#    z 0.000000 0.000000 1.717830 
# 
# From -- ./inp_files/2976.got.cif
#   From: 2010.05.17/outbox.cif.g08.bks.cpg/sg121_2_cif.got.tgz:2976.got - 2010.05.20 11:32:06.
