data_PCOD9560115
_publ_section_title
;
Structure prediction by ZEFSAII (Michael W. Deem and Ramdas Pophale) SiO2 
 PCOD9560115
Probable space group: I -4 2 M
;
_chemical_formula_sum "Si O2"
_cell_formula_units_Z 96
_cell_length_a 14.455302
_cell_length_b 14.455302
_cell_length_c 21.155785
_cell_angle_alpha 90.000000
_cell_angle_beta 90.000000
_cell_angle_gamma 90.000000
_cell_volume 4420.623047
_symmetry_space_group_name_H-M "I -4 2 M"
_symmetry_group_IT_number 121
_symmetry_cell_setting 'tetragonal'
loop_
_space_group_symop_operation_xyz
x,y,z
y,-x,-z
-x,-y,z
-y,x,-z
x,-y,-z
-x,y,-z
-y,-x,z
y,x,z
1/2+x,1/2+y,1/2+z
1/2+y,1/2-x,1/2-z
1/2-x,1/2-y,1/2+z
1/2-y,1/2+x,1/2-z
1/2+x,1/2-y,1/2-z
1/2-x,1/2+y,1/2-z
1/2-y,1/2-x,1/2+z
1/2+y,1/2+x,1/2+z
loop_
_atom_site_type_symbol
_atom_site_label
_atom_site_fract_x
_atom_site_fract_y
_atom_site_fract_z
Si Si1 0.818418 0.660257 0.496030
Si Si2 0.653600 0.496374 0.806248
Si Si3 0.288425 0.130822 0.243589
Si Si4 0.794153 0.054893 0.441300
Si Si5 0.720618 0.877605 0.858179
Si Si6 0.264875 0.419618 0.616532
O O1 0.745696 0.745696 0.490872
O O2 0.908108 0.697804 0.532169
O O3 0.835771 0.630516 0.424234
O O4 0.770838 0.590814 0.545216
O O5 0.602691 0.397310 0.792233
O O6 0.571156 0.571156 0.804734
O O7 0.733894 0.537132 0.762509
O O8 0.698075 0.498599 0.876124
O O9 0.212684 0.212684 0.248294
O O10 0.364729 0.157430 0.295710
O O11 0.307535 0.121948 0.168695
O O12 0.855343 0.144658 0.428191
O O13 0.837019 0.000000 0.500000
O O14 0.795567 0.795567 0.856947
O O15 0.774564 0.973796 0.865917
O O16 0.357648 0.357648 0.622841
#
# Coordination Sequence:
#
# PCOD9560115 Si02
#       6
#    16  16  16  16  16  16
#     4   9  19  35  53  76 107 146 188 225 271 331
#     4   9  17  29  48  77 111 144 180 226 275 322
#     4   9  19  35  54  80 114 149 182 219 275 342
#     4  10  18  28  48  76 106 140 178 222 270 327
#     4  10  20  36  60  84 110 146 181 220 278 341
#     4  10  21  37  58  83 109 138 181 234 275 320
#
# _framework density 21.716394999999999
#
# number of rings (size 3 to 8) (size 9 to 14) (size 15 to 20)
#    0.000    2.500    0.000    2.000    0.000    5.833 
#    0.000    5.000    0.000   14.500    0.000    0.000 
#    0.000    0.000    0.000    0.000    0.000    0.167 
#
# Total GULP energy -267416.451179 kJ/mol
# GULP energy per Si atom -5571.176066 kJ/mol
# Density = 2.166697 g / cm^3
# Si number density = 21.716395 Si / 1000 Ang^3
#
#
#
# Elastic Constant Matrix: (Units=GPa)
#
#
# Indices 1 2 3 4 5 6 
#
# 1 42.5108 16.9019 18.8116 0.0000 0.0000 0.0000
# 2 16.9019 42.5110 18.8116 0.0000 0.0000 0.0000
# 3 18.8116 18.8116 114.0887 0.0000 0.0000 0.0000
# 4 0.0000 0.0000 0.0000 21.3150 0.0000 0.0000
# 5 0.0000 0.0000 0.0000 0.0000 21.3150 0.0000
# 6 0.0000 0.0000 0.0000 0.0000 0.0000 21.1331
#
#
#
# Elastic Compliance Matrix: (Units=1/GPa)
#
#
# Indices 1 2 3 4 5 6 
#
# 1 0.028921 -0.010127 -0.003099 0.000000 0.000000 0.000000
# 2 -0.010127 0.028921 -0.003099 0.000000 0.000000 0.000000
# 3 -0.003099 -0.003099 0.009787 0.000000 0.000000 0.000000
# 4 0.000000 0.000000 0.000000 0.046915 0.000000 0.000000
# 5 0.000000 0.000000 0.000000 0.000000 0.046915 0.000000
# 6 0.000000 0.000000 0.000000 0.000000 0.000000 0.047319
#
#
# Mechanical properties :
#
#
# Convention : Reuss Voigt Hill
#
# Bulk Modulus (GPa) = 28.58845 34.24009 31.41427
# Shear Modulus (GPa) = 19.75589 22.39166 21.07378
#
# Velocity S-wave (km/s) = 3.01943 3.21455 3.11852
# Velocity P-wave (km/s) = 5.03478 5.43865 5.24061
#
# Compressibility (1/GPa) = 0.03497916
#
# Stress axis : x y z
#
# Youngs Moduli (GPa) = 34.57664 34.57679 102.17629
#
# Poissons Ratio (x) = 0.35018 0.31662
# Poissons Ratio (y) = 0.35017 0.31663
# Poissons Ratio (z) = 0.10715 0.10715
#
# Static dielectric constant tensor:
#      x y z
#    x 1.821640 0.000000 0.000000 
#    y 0.000000 1.821630 0.000000 
#    z 0.000000 0.000000 1.831930 
# 
# From -- ./inp_files/6455.got.cif
#   From: 2010.05.17/outbox.cif.g08.bks.cpg/sg121_4_cif.got.tgz:6455.got - 2010.05.20 11:32:06.
