data_PCOD9560966
_publ_section_title
;
Structure prediction by ZEFSAII (Michael W. Deem and Ramdas Pophale) SiO2 
 PCOD9560966
Probable space group: I -4 2 D
;
_chemical_formula_sum "Si O2"
_cell_formula_units_Z 64
_cell_length_a 12.319059
_cell_length_b 12.319059
_cell_length_c 21.200145
_cell_angle_alpha 90.000000
_cell_angle_beta 90.000000
_cell_angle_gamma 90.000000
_cell_volume 3217.317356
_symmetry_space_group_name_H-M "I -4 2 D"
_symmetry_group_IT_number 122
_symmetry_cell_setting 'tetragonal'
loop_
_space_group_symop_operation_xyz
x,y,z
y,-x,-z
-x,-y,z
-y,x,-z
x,1/2-y,1/4-z
-x,1/2+y,1/4-z
-y,1/2-x,1/4+z
y,1/2+x,1/4+z
1/2+x,1/2+y,1/2+z
1/2+y,1/2-x,1/2-z
1/2-x,1/2-y,1/2+z
1/2-y,1/2+x,1/2-z
1/2+x,-y,3/4-z
1/2-x,y,3/4-z
1/2-y,-x,3/4+z
1/2+y,x,3/4+z
loop_
_atom_site_type_symbol
_atom_site_label
_atom_site_fract_x
_atom_site_fract_y
_atom_site_fract_z
Si Si1 0.930720 0.896403 0.886275
Si Si2 0.117831 0.367349 0.736908
Si Si3 0.227317 0.344972 0.469360
Si Si4 0.133843 0.748679 0.365360
O O1 0.853594 0.912580 0.825438
O O2 0.847537 0.855142 0.939931
O O3 0.025242 0.813941 0.866752
O O4 0.000000 0.000000 0.907517
O O5 0.146647 0.489391 0.756822
O O6 0.183177 0.278651 0.777783
O O7 0.152882 0.354816 0.664145
O O8 0.224922 0.379794 0.541939
O O9 0.250000 0.687149 0.375000
#
# Coordination Sequence:
#
# PCOD9560966 Si02
#       4
#    16  16  16  16
#     4  11  25  43  66  94 135 182 231 291 335 409
#     4  10  20  44  69  99 138 173 220 282 349 415
#     4  10  24  44  65 101 131 178 234 282 347 412
#     4  10  23  42  66  98 131 177 226 281 342 410
#
# _framework density 19.892347999999998
#
# number of rings (size 3 to 8) (size 9 to 14) (size 15 to 20)
#    0.000    1.750    2.500    0.000    7.000    2.000 
#   18.000    0.000    0.000    0.000    0.000    0.000 
#    0.000    0.000    0.000    0.000    0.000    0.000 
#
# Total GULP energy -178435.076342 kJ/mol
# GULP energy per Si atom -5576.096136 kJ/mol
# Density = 1.984707 g / cm^3
# Si number density = 19.892348 Si / 1000 Ang^3
#
#
#
# Elastic Constant Matrix: (Units=GPa)
#
#
# Indices 1 2 3 4 5 6 
#
# 1 111.5137 49.0688 24.4811 0.0000 0.0000 0.0000
# 2 49.0688 111.5137 24.4811 0.0000 0.0000 0.0000
# 3 24.4811 24.4811 98.8361 0.0000 0.0000 0.0000
# 4 0.0000 0.0000 0.0000 19.8463 0.0000 0.0000
# 5 0.0000 0.0000 0.0000 0.0000 19.8463 0.0000
# 6 0.0000 0.0000 0.0000 0.0000 0.0000 34.8399
#
#
#
# Elastic Compliance Matrix: (Units=1/GPa)
#
#
# Indices 1 2 3 4 5 6 
#
# 1 0.011375 -0.004639 -0.001668 0.000000 0.000000 0.000000
# 2 -0.004639 0.011375 -0.001668 0.000000 0.000000 0.000000
# 3 -0.001668 -0.001668 0.010944 0.000000 0.000000 0.000000
# 4 0.000000 0.000000 0.000000 0.050387 0.000000 0.000000
# 5 0.000000 0.000000 0.000000 0.000000 0.050387 0.000000
# 6 0.000000 0.000000 0.000000 0.000000 0.000000 0.028703
#
#
# Mechanical properties :
#
#
# Convention : Reuss Voigt Hill
#
# Bulk Modulus (GPa) = 56.36187 57.54729 56.95458
# Shear Modulus (GPa) = 27.02155 29.82870 28.42512
#
# Velocity S-wave (km/s) = 3.68963 3.87655 3.78424
# Velocity P-wave (km/s) = 6.82247 7.00207 6.91285
#
# Compressibility (1/GPa) = 0.01774249
#
# Stress axis : x y z
#
# Youngs Moduli (GPa) = 87.91148 87.91148 91.37176
#
# Poissons Ratio (x) = 0.40782 0.15245
# Poissons Ratio (y) = 0.40782 0.15245
# Poissons Ratio (z) = 0.14668 0.14668
#
# Static dielectric constant tensor:
#      x y z
#    x 1.724080 0.000000 0.000000 
#    y 0.000000 1.724080 0.000000 
#    z 0.000000 0.000000 1.682960 
# 
# From -- ./inp_files/6902.got.cif
#   From: 2010.05.17/outbox.cif.g08.bks.cpg/sg122_4_cif.got.tgz:6902.got - 2010.05.20 11:37:33.
