data_PCOD9560472
_publ_section_title
;
Structure prediction by ZEFSAII (Michael W. Deem and Ramdas Pophale) SiO2 
 PCOD9560472
Probable space group: I -4 2 M
;
_chemical_formula_sum "Si O2"
_cell_formula_units_Z 112
_cell_length_a 15.144390
_cell_length_b 15.144390
_cell_length_c 27.587246
_cell_angle_alpha 90.000000
_cell_angle_beta 90.000000
_cell_angle_gamma 90.000000
_cell_volume 6327.205175
_symmetry_space_group_name_H-M "I -4 2 M"
_symmetry_group_IT_number 121
_symmetry_cell_setting 'tetragonal'
loop_
_space_group_symop_operation_xyz
x,y,z
y,-x,-z
-x,-y,z
-y,x,-z
x,-y,-z
-x,y,-z
-y,-x,z
y,x,z
1/2+x,1/2+y,1/2+z
1/2+y,1/2-x,1/2-z
1/2-x,1/2-y,1/2+z
1/2-y,1/2+x,1/2-z
1/2+x,1/2-y,1/2-z
1/2-x,1/2+y,1/2-z
1/2-y,1/2-x,1/2+z
1/2+y,1/2+x,1/2+z
loop_
_atom_site_type_symbol
_atom_site_label
_atom_site_fract_x
_atom_site_fract_y
_atom_site_fract_z
Si Si1 0.400708 0.894061 0.504449
Si Si2 0.075701 0.924300 0.810036
Si Si3 0.425988 0.574013 0.199229
Si Si4 0.464723 0.856864 0.759591
Si Si5 0.210771 0.937058 0.177591
Si Si6 0.251092 0.989030 0.648002
Si Si7 0.182553 0.328201 0.396886
Si Si8 0.076718 0.226335 0.542108
O O1 0.500000 0.857701 0.500000
O O2 0.365935 0.864644 0.556315
O O3 0.319656 0.873793 0.468286
O O4 0.408049 0.000000 0.500000
O O5 0.097884 0.902117 0.754339
O O6 0.028914 0.839168 0.832120
O O7 0.000000 0.000000 0.810778
O O8 0.500000 0.500000 0.201556
O O9 0.342111 0.532647 0.172676
O O10 0.562160 0.897302 0.748953
O O11 0.446568 0.779123 0.721401
O O12 0.461608 0.814474 0.813484
O O13 0.136786 0.863215 0.190485
O O14 0.260882 0.901315 0.130751
O O15 0.294919 0.894267 0.638150
O O16 0.234521 0.034749 0.595848
O O17 0.246743 0.246743 0.409236
O O18 0.144639 0.144639 0.539102
O O19 0.000000 0.216676 0.500000
#
# Coordination Sequence:
#
# PCOD9560472 Si02
#       8
#    16   8   8  16  16  16  16  16
#     4  10  21  39  63  86 113 160 204 252 307 367
#     4   9  18  36  60  86 117 154 201 255 308 362
#     4  11  22  34  60  88 125 171 211 253 304 373
#     4  11  24  40  58  88 125 166 204 257 313 365
#     4  10  21  38  63  89 119 158 203 257 308 367
#     4  12  22  37  59  90 127 168 213 249 306 380
#     4  11  21  38  64  91 118 158 205 253 308 377
#     4  11  24  40  60  93 133 168 210 265 316 381
#
# _framework density 17.701339000000001
#
# number of rings (size 3 to 8) (size 9 to 14) (size 15 to 20)
#    0.000    1.286    6.429    0.857    1.000    1.857 
#    1.286    0.000    6.286    0.000    0.000    0.000 
#    0.000    0.000    0.000    0.000    0.000    0.000 
#
# Total GULP energy -312222.368168 kJ/mol
# GULP energy per Si atom -5575.399432 kJ/mol
# Density = 1.766105 g / cm^3
# Si number density = 17.701339 Si / 1000 Ang^3
#
#
#
# Elastic Constant Matrix: (Units=GPa)
#
#
# Indices 1 2 3 4 5 6 
#
# 1 86.0966 37.7781 39.2006 0.0000 0.0000 0.0000
# 2 37.7781 86.0957 39.1997 0.0000 0.0000 0.0000
# 3 39.2006 39.1997 76.7922 0.0000 0.0000 0.0000
# 4 0.0000 0.0000 0.0000 8.1186 0.0000 0.0000
# 5 0.0000 0.0000 0.0000 0.0000 8.1182 0.0000
# 6 0.0000 0.0000 0.0000 0.0000 0.0000 19.6768
#
#
#
# Elastic Compliance Matrix: (Units=1/GPa)
#
#
# Indices 1 2 3 4 5 6 
#
# 1 0.016311 -0.004385 -0.006088 0.000000 0.000000 0.000000
# 2 -0.004385 0.016311 -0.006088 0.000000 0.000000 0.000000
# 3 -0.006088 -0.006088 0.019237 0.000000 0.000000 0.000000
# 4 0.000000 0.000000 0.000000 0.123174 0.000000 0.000000
# 5 0.000000 0.000000 0.000000 0.000000 0.123180 0.000000
# 6 0.000000 0.000000 0.000000 0.000000 0.000000 0.050821
#
#
# Mechanical properties :
#
#
# Convention : Reuss Voigt Hill
#
# Bulk Modulus (GPa) = 53.36796 53.48237 53.42517
# Shear Modulus (GPa) = 12.87328 16.03646 14.45487
#
# Velocity S-wave (km/s) = 2.69968 3.01316 2.86072
# Velocity P-wave (km/s) = 6.31920 6.51036 6.41549
#
# Compressibility (1/GPa) = 0.01873784
#
# Stress axis : x y z
#
# Youngs Moduli (GPa) = 61.30865 61.30869 51.98233
#
# Poissons Ratio (x) = 0.26886 0.31646
# Poissons Ratio (y) = 0.26886 0.31644
# Poissons Ratio (z) = 0.37323 0.37322
#
# Static dielectric constant tensor:
#      x y z
#    x 1.620870 0.000000 0.000000 
#    y 0.000000 1.620880 0.000000 
#    z 0.000000 0.000000 1.598560 
# 
# From -- ./inp_files/7771.got.cif
#   From: 2010.05.17/outbox.cif.g08.bks.cpg/sg121_4_cif.got.tgz:7771.got - 2010.05.20 11:32:06.
