data_PCOD9560572
_publ_section_title
;
Structure prediction by ZEFSAII (Michael W. Deem and Ramdas Pophale) SiO2 
 PCOD9560572
Probable space group: I -4 2 M
;
_chemical_formula_sum "Si O2"
_cell_formula_units_Z 80
_cell_length_a 15.290735
_cell_length_b 15.290735
_cell_length_c 20.166344
_cell_angle_alpha 90.000000
_cell_angle_beta 90.000000
_cell_angle_gamma 90.000000
_cell_volume 4715.023858
_symmetry_space_group_name_H-M "I -4 2 M"
_symmetry_group_IT_number 121
_symmetry_cell_setting 'tetragonal'
loop_
_space_group_symop_operation_xyz
x,y,z
y,-x,-z
-x,-y,z
-y,x,-z
x,-y,-z
-x,y,-z
-y,-x,z
y,x,z
1/2+x,1/2+y,1/2+z
1/2+y,1/2-x,1/2-z
1/2-x,1/2-y,1/2+z
1/2-y,1/2+x,1/2-z
1/2+x,1/2-y,1/2-z
1/2-x,1/2+y,1/2-z
1/2-y,1/2-x,1/2+z
1/2+y,1/2+x,1/2+z
loop_
_atom_site_type_symbol
_atom_site_label
_atom_site_fract_x
_atom_site_fract_y
_atom_site_fract_z
Si Si1 0.773805 0.634077 0.364992
Si Si2 0.832561 0.693293 0.110944
Si Si3 0.521753 0.338624 0.421324
Si Si4 0.103216 0.397983 0.486917
Si Si5 0.916109 0.617761 0.739138
O O1 0.728243 0.728243 0.369128
O O2 0.699001 0.563933 0.385460
O O3 0.854606 0.623682 0.416114
O O4 0.811012 0.613815 0.292606
O O5 0.742470 0.742470 0.126467
O O6 0.905534 0.767637 0.099206
O O7 0.833715 0.645284 0.040660
O O8 0.861985 0.627651 0.168559
O O9 0.500000 0.338971 0.500000
O O10 0.568470 0.431531 0.405794
O O11 0.127474 0.500000 0.500000
O O12 0.000000 0.393099 0.500000
O O13 0.885675 0.521282 0.762537
#
# Coordination Sequence:
#
# PCOD9560572 Si02
#       5
#    16  16  16  16  16
#     4  12  22  36  55  82 111 144 192 233 275 338
#     4  11  20  35  54  77 110 144 180 224 275 331
#     4  11  21  35  55  81 116 148 183 226 280 343
#     4  11  20  34  55  80 109 141 178 223 279 334
#     4  11  22  38  56  78 109 145 186 230 287 338
#
# _framework density 16.967040000000001
#
# number of rings (size 3 to 8) (size 9 to 14) (size 15 to 20)
#    0.000    0.800    6.000    3.000    0.000    4.600 
#    0.000    0.000    0.000    0.000    0.000    0.000 
#    0.000   30.400    0.000    0.000    0.000    0.000 
#
# Total GULP energy -223141.494518 kJ/mol
# GULP energy per Si atom -5578.537363 kJ/mol
# Density = 1.692842 g / cm^3
# Si number density = 16.967040 Si / 1000 Ang^3
#
#
#
# Elastic Constant Matrix: (Units=GPa)
#
#
# Indices 1 2 3 4 5 6 
#
# 1 43.5635 19.3964 -0.8140 0.0000 0.0000 0.0000
# 2 19.3964 43.5630 -0.8139 0.0000 0.0000 0.0000
# 3 -0.8140 -0.8139 61.1099 0.0000 0.0000 0.0000
# 4 0.0000 0.0000 0.0000 14.2163 0.0000 0.0000
# 5 0.0000 0.0000 0.0000 0.0000 14.2182 0.0000
# 6 0.0000 0.0000 0.0000 0.0000 0.0000 18.4975
#
#
#
# Elastic Compliance Matrix: (Units=1/GPa)
#
#
# Indices 1 2 3 4 5 6 
#
# 1 0.028634 -0.012745 0.000212 0.000000 0.000000 0.000000
# 2 -0.012745 0.028634 0.000212 0.000000 0.000000 0.000000
# 3 0.000212 0.000212 0.016370 0.000000 0.000000 0.000000
# 4 0.000000 0.000000 0.000000 0.070342 0.000000 0.000000
# 5 0.000000 0.000000 0.000000 0.000000 0.070333 0.000000
# 6 0.000000 0.000000 0.000000 0.000000 0.000000 0.054061
#
#
# Mechanical properties :
#
#
# Convention : Reuss Voigt Hill
#
# Bulk Modulus (GPa) = 20.41089 20.41926 20.41508
# Shear Modulus (GPa) = 16.16304 18.08426 17.12365
#
# Velocity S-wave (km/s) = 3.08979 3.26827 3.18028
# Velocity P-wave (km/s) = 4.97845 5.12864 5.05410
#
# Compressibility (1/GPa) = 0.04899345
#
# Stress axis : x y z
#
# Youngs Moduli (GPa) = 34.92391 34.92352 61.08887
#
# Poissons Ratio (x) = 0.44511 -0.01293
# Poissons Ratio (y) = 0.44511 -0.01293
# Poissons Ratio (z) = -0.00739 -0.00739
#
# Static dielectric constant tensor:
#      x y z
#    x 1.590610 0.000000 0.000000 
#    y 0.000000 1.590610 0.000000 
#    z 0.000000 0.000000 1.544720 
# 
# From -- ./inp_files/6164.got.cif
#   From: 2010.05.17/outbox.cif.g08.bks.cpg/sg121_4_cif.got.tgz:6164.got - 2010.05.20 11:32:06.
