data_PCOD9560797
_publ_section_title
;
Structure prediction by ZEFSAII (Michael W. Deem and Ramdas Pophale) SiO2 
 PCOD9560797
Probable space group: I -4 2 D
;
_chemical_formula_sum "Si O2"
_cell_formula_units_Z 88
_cell_length_a 18.382675
_cell_length_b 18.382675
_cell_length_c 10.904852
_cell_angle_alpha 90.000000
_cell_angle_beta 90.000000
_cell_angle_gamma 90.000000
_cell_volume 3684.997469
_symmetry_space_group_name_H-M "I -4 2 D"
_symmetry_group_IT_number 122
_symmetry_cell_setting 'tetragonal'
loop_
_space_group_symop_operation_xyz
x,y,z
y,-x,-z
-x,-y,z
-y,x,-z
x,1/2-y,1/4-z
-x,1/2+y,1/4-z
-y,1/2-x,1/4+z
y,1/2+x,1/4+z
1/2+x,1/2+y,1/2+z
1/2+y,1/2-x,1/2-z
1/2-x,1/2-y,1/2+z
1/2-y,1/2+x,1/2-z
1/2+x,-y,3/4-z
1/2-x,y,3/4-z
1/2-y,-x,3/4+z
1/2+y,x,3/4+z
loop_
_atom_site_type_symbol
_atom_site_label
_atom_site_fract_x
_atom_site_fract_y
_atom_site_fract_z
Si Si1 0.500000 0.000000 0.929008
Si Si2 0.673026 0.750000 0.125000
Si Si3 0.860479 0.287431 0.387597
Si Si4 0.520687 0.317188 0.944218
Si Si5 0.750000 0.586398 0.375000
Si Si6 0.069449 0.368562 0.585944
Si Si7 0.452723 0.351509 0.692013
O O1 0.467037 0.069426 0.003352
O O2 0.570893 0.036194 0.874704
O O3 0.729265 0.696308 0.057480
O O4 0.620033 0.801064 0.041790
O O5 0.941606 0.262020 0.430672
O O6 0.866464 0.271362 0.242083
O O7 0.835183 0.369185 0.411890
O O8 0.584184 0.374949 0.917445
O O9 0.461639 0.338348 0.838993
O O10 0.489165 0.333150 0.075771
O O11 0.687680 0.527142 0.348365
#
# Coordination Sequence:
#
# PCOD9560797 Si02
#       7
#     8   8  16  16   8  16  16
#     4  10  22  37  67  98 124 168 217 272 326 397
#     4  10  23  40  58  89 124 164 208 258 318 397
#     4  10  22  42  60  87 126 165 215 264 326 396
#     4   9  19  36  59  89 122 163 203 255 319 381
#     4  10  23  44  62  87 130 170 208 280 332 371
#     4  10  19  37  60  90 132 158 203 263 326 380
#     4  10  21  39  62  89 122 163 217 261 320 384
#
# _framework density 23.880614999999999
#
# number of rings (size 3 to 8) (size 9 to 14) (size 15 to 20)
#    0.000    2.182    0.000    3.818    2.545    2.182 
#    9.818    1.818    0.000    0.000    0.000    0.000 
#    0.000    0.000    0.000    0.000    0.000    0.000 
#
# Total GULP energy -244960.763708 kJ/mol
# GULP energy per Si atom -5567.290084 kJ/mol
# Density = 2.382626 g / cm^3
# Si number density = 23.880615 Si / 1000 Ang^3
#
#
#
# Elastic Constant Matrix: (Units=GPa)
#
#
# Indices 1 2 3 4 5 6 
#
# 1 105.2808 5.5866 15.3368 0.0000 0.0000 0.0000
# 2 5.5866 105.2808 15.3368 0.0000 0.0000 0.0000
# 3 15.3368 15.3368 47.9242 0.0000 0.0000 0.0000
# 4 0.0000 0.0000 0.0000 12.5168 0.0000 0.0000
# 5 0.0000 0.0000 0.0000 0.0000 12.5168 0.0000
# 6 0.0000 0.0000 0.0000 0.0000 0.0000 8.6199
#
#
#
# Elastic Compliance Matrix: (Units=1/GPa)
#
#
# Indices 1 2 3 4 5 6 
#
# 1 0.009963 -0.000067 -0.003167 0.000000 0.000000 0.000000
# 2 -0.000067 0.009963 -0.003167 0.000000 0.000000 0.000000
# 3 -0.003167 -0.003167 0.022893 0.000000 0.000000 0.000000
# 4 0.000000 0.000000 0.000000 0.079892 0.000000 0.000000
# 5 0.000000 0.000000 0.000000 0.000000 0.079892 0.000000
# 6 0.000000 0.000000 0.000000 0.000000 0.000000 0.116011
#
#
# Mechanical properties :
#
#
# Convention : Reuss Voigt Hill
#
# Bulk Modulus (GPa) = 33.31391 36.77846 35.04619
# Shear Modulus (GPa) = 14.64455 21.54574 18.09515
#
# Velocity S-wave (km/s) = 2.47906 3.00697 2.75568
# Velocity P-wave (km/s) = 4.70901 5.24311 4.98322
#
# Compressibility (1/GPa) = 0.03001749
#
# Stress axis : x y z
#
# Youngs Moduli (GPa) = 100.36807 100.36807 43.68094
#
# Poissons Ratio (x) = 0.00676 0.13833
# Poissons Ratio (y) = 0.00676 0.13833
# Poissons Ratio (z) = 0.31786 0.31786
#
# Static dielectric constant tensor:
#      x y z
#    x 2.234460 0.000000 0.000000 
#    y 0.000000 2.234460 0.000000 
#    z 0.000000 0.000000 2.030840 
# 
# From -- ./inp_files/5416.got.cif
#   From: 2010.05.17/outbox.cif.g08.bks.cpg/sg122_3_cif.got.tgz:5416.got - 2010.05.20 11:37:33.
