data_PCOD9560049
_publ_section_title
;
Structure prediction by ZEFSAII (Michael W. Deem and Ramdas Pophale) SiO2 
 PCOD9560049
Probable space group: I -4 C 2
;
_chemical_formula_sum "Si O2"
_cell_formula_units_Z 80
_cell_length_a 10.404102
_cell_length_b 10.404102
_cell_length_c 34.264680
_cell_angle_alpha 90.000000
_cell_angle_beta 90.000000
_cell_angle_gamma 90.000000
_cell_volume 3708.991883
_symmetry_space_group_name_H-M "I -4 C 2"
_symmetry_group_IT_number 120
_symmetry_cell_setting 'tetragonal'
loop_
_space_group_symop_operation_xyz
x,y,z
y,-x,-z
-x,-y,z
-y,x,-z
y,x,1/2-z
-y,-x,1/2-z
-x,y,1/2+z
x,-y,1/2+z
1/2+x,1/2+y,1/2+z
1/2+y,1/2-x,1/2-z
1/2-x,1/2-y,1/2+z
1/2-y,1/2+x,1/2-z
1/2+y,1/2+x,-z
1/2-y,1/2-x,-z
1/2-x,1/2+y,z
1/2+x,1/2-y,z
loop_
_atom_site_type_symbol
_atom_site_label
_atom_site_fract_x
_atom_site_fract_y
_atom_site_fract_z
Si Si1 0.512855 0.288543 0.084914
Si Si2 0.651600 0.857903 0.264531
Si Si3 0.217589 0.004504 0.584781
Si Si4 0.407226 0.892903 0.149934
Si Si5 0.282274 0.494754 0.999806
O O1 0.646872 0.367336 0.088182
O O2 0.397969 0.391397 0.084503
O O3 0.509699 0.199262 0.122212
O O4 0.505349 0.219242 0.042732
O O5 0.755304 0.755304 0.250000
O O6 0.504678 0.825020 0.250883
O O7 0.667651 0.849816 0.311510
O O8 0.307594 0.041209 0.620312
O O9 0.283161 0.010048 0.541938
O O10 0.500000 0.000000 0.166969
O O11 0.373605 0.620309 0.001451
#
# Coordination Sequence:
#
# PCOD9560049 Si02
#       5
#    16  16  16  16  16
#     4   9  20  37  62  90 124 172 219 263 313 380
#     4  11  27  52  76 104 141 180 222 283 355 427
#     4   9  20  37  62  90 124 172 219 263 313 380
#     4  12  26  40  67  94 135 159 209 265 335 380
#     4   7  12  31  56  83 121 167 216 262 311 362
#
# _framework density 21.569203000000002
#
# number of rings (size 3 to 8) (size 9 to 14) (size 15 to 20)
#    0.000    2.400    2.000    2.400    8.400    1.200 
#    0.000    2.000    0.000    0.000    0.000    0.000 
#    0.000    0.000    0.000    0.000    0.000    0.000 
#
# Total GULP energy -223183.759472 kJ/mol
# GULP energy per Si atom -5579.593987 kJ/mol
# Density = 2.152011 g / cm^3
# Si number density = 21.569203 Si / 1000 Ang^3
#
#
#
# Elastic Constant Matrix: (Units=GPa)
#
#
# Indices 1 2 3 4 5 6 
#
# 1 66.8819 31.0671 26.1038 0.0000 0.0000 0.0000
# 2 31.0671 66.8819 26.1038 0.0000 0.0000 0.0000
# 3 26.1038 26.1038 186.7792 0.0000 0.0000 0.0000
# 4 0.0000 0.0000 0.0000 -2.4538 0.0000 0.0000
# 5 0.0000 0.0000 0.0000 0.0000 -2.4538 0.0000
# 6 0.0000 0.0000 0.0000 0.0000 0.0000 33.7234
#
#
#
# Elastic Compliance Matrix: (Units=1/GPa)
#
#
# Indices 1 2 3 4 5 6 
#
# 1 0.019476 -0.008445 -0.001542 0.000000 0.000000 0.000000
# 2 -0.008445 0.019476 -0.001542 0.000000 0.000000 0.000000
# 3 -0.001542 -0.001542 0.005785 0.000000 0.000000 0.000000
# 4 0.000000 0.000000 0.000000 -0.407526 0.000000 0.000000
# 5 0.000000 0.000000 0.000000 0.000000 -0.407525 0.000000
# 6 0.000000 0.000000 0.000000 0.000000 0.000000 0.029653
#
#
# Mechanical properties :
#
#
# Convention : Reuss Voigt Hill
#
# Bulk Modulus (GPa) = 46.12471 54.12139 50.12305
# Shear Modulus (GPa) = -7.03852 21.58104 7.27126
#
# Velocity S-wave (km/s) = -1.80840 3.16658 1.83806
# Velocity P-wave (km/s) = 4.13165 6.20613 5.27193
#
# Compressibility (1/GPa) = 0.02168035
#
# Stress axis : x y z
#
# Youngs Moduli (GPa) = 51.34458 51.34459 172.86565
#
# Poissons Ratio (x) = 0.43361 0.26650
# Poissons Ratio (y) = 0.43361 0.26650
# Poissons Ratio (z) = 0.07916 0.07916
#
# Static dielectric constant tensor:
#      x y z
#    x 1.823250 0.000000 0.000000 
#    y 0.000000 1.823250 0.000000 
#    z 0.000000 0.000000 1.771650 
# 
# From -- ./inp_files/6504.got.cif
#   From: 2010.05.17/outbox.cif.g08.bks.cpg/sg120_4_cif.got.tgz:6504.got - 2010.05.20 11:28:13.
