data_PCOD9560092
_publ_section_title
;
Structure prediction by ZEFSAII (Michael W. Deem and Ramdas Pophale) SiO2 
 PCOD9560092
Probable space group: I -4 2 M
;
_chemical_formula_sum "Si O2"
_cell_formula_units_Z 88
_cell_length_a 13.814785
_cell_length_b 13.814785
_cell_length_c 27.209680
_cell_angle_alpha 90.000000
_cell_angle_beta 90.000000
_cell_angle_gamma 90.000000
_cell_volume 5192.920752
_symmetry_space_group_name_H-M "I -4 2 M"
_symmetry_group_IT_number 121
_symmetry_cell_setting 'tetragonal'
loop_
_space_group_symop_operation_xyz
x,y,z
y,-x,-z
-x,-y,z
-y,x,-z
x,-y,-z
-x,y,-z
-y,-x,z
y,x,z
1/2+x,1/2+y,1/2+z
1/2+y,1/2-x,1/2-z
1/2-x,1/2-y,1/2+z
1/2-y,1/2+x,1/2-z
1/2+x,1/2-y,1/2-z
1/2-x,1/2+y,1/2-z
1/2-y,1/2-x,1/2+z
1/2+y,1/2+x,1/2+z
loop_
_atom_site_type_symbol
_atom_site_label
_atom_site_fract_x
_atom_site_fract_y
_atom_site_fract_z
Si Si1 0.250049 0.915051 0.184949
Si Si2 0.055638 0.397370 0.452515
Si Si3 0.843051 0.003324 0.905123
Si Si4 0.502064 0.338848 0.222696
Si Si5 0.500000 0.767669 0.500000
Si Si6 0.892288 0.270109 0.640192
O O1 0.159053 0.840948 0.185103
O O2 0.235064 0.979341 0.136315
O O3 0.343534 0.849506 0.176386
O O4 0.237008 0.975673 0.234505
O O5 0.161699 0.424641 0.472885
O O6 0.065817 0.326310 0.406716
O O7 0.000000 0.500000 0.440866
O O8 0.000000 0.355628 0.500000
O O9 0.906894 0.906894 0.915694
O O10 0.797325 0.038664 0.955820
O O11 0.917618 0.082383 0.885189
O O12 0.594624 0.405377 0.237123
O O13 0.412739 0.412739 0.216701
O O14 0.529085 0.287332 0.171929
O O15 0.806269 0.193732 0.626671
#
# Coordination Sequence:
#
# PCOD9560092 Si02
#       6
#    16  16  16  16   8  16
#     4   9  17  31  50  74 105 137 169 207 255 308
#     4   9  20  37  54  71 101 141 176 213 266 316
#     4  10  18  26  43  74 109 139 169 206 248 304
#     4   9  18  34  55  77 106 141 173 213 266 312
#     4  10  17  29  46  66  98 140 174 207 247 302
#     4  10  19  35  58  80 103 136 178 219 260 309
#
# _framework density 16.946148000000001
#
# number of rings (size 3 to 8) (size 9 to 14) (size 15 to 20)
#    0.000    2.727    1.818    1.091    0.000    3.636 
#    3.273    0.909    0.000    2.182    0.000    0.000 
#    0.000    0.000    0.000    0.000    0.000    0.000 
#
# Total GULP energy -245003.471586 kJ/mol
# GULP energy per Si atom -5568.260718 kJ/mol
# Density = 1.690758 g / cm^3
# Si number density = 16.946148 Si / 1000 Ang^3
#
#
#
# Elastic Constant Matrix: (Units=GPa)
#
#
# Indices 1 2 3 4 5 6 
#
# 1 51.9402 19.0536 41.5245 0.0000 0.0000 0.0000
# 2 19.0536 51.9405 41.5241 0.0000 0.0000 0.0000
# 3 41.5245 41.5241 112.8174 0.0000 0.0000 0.0000
# 4 0.0000 0.0000 0.0000 30.7464 0.0000 0.0000
# 5 0.0000 0.0000 0.0000 0.0000 30.7469 0.0000
# 6 0.0000 0.0000 0.0000 0.0000 0.0000 8.6403
#
#
#
# Elastic Compliance Matrix: (Units=1/GPa)
#
#
# Indices 1 2 3 4 5 6 
#
# 1 0.027572 -0.002836 -0.009105 0.000000 0.000000 0.000000
# 2 -0.002836 0.027572 -0.009104 0.000000 0.000000 0.000000
# 3 -0.009105 -0.009104 0.015566 0.000000 0.000000 0.000000
# 4 0.000000 0.000000 0.000000 0.032524 0.000000 0.000000
# 5 0.000000 0.000000 0.000000 0.000000 0.032524 0.000000
# 6 0.000000 0.000000 0.000000 0.000000 0.000000 0.115736
#
#
# Mechanical properties :
#
#
# Convention : Reuss Voigt Hill
#
# Bulk Modulus (GPa) = 34.94034 46.76694 40.85364
# Shear Modulus (GPa) = 16.49495 21.66647 19.08071
#
# Velocity S-wave (km/s) = 3.12328 3.57956 3.35918
# Velocity P-wave (km/s) = 5.80256 6.68892 6.26144
#
# Compressibility (1/GPa) = 0.02862021
#
# Stress axis : x y z
#
# Youngs Moduli (GPa) = 36.26862 36.26928 64.24239
#
# Poissons Ratio (x) = 0.10284 0.58491
# Poissons Ratio (y) = 0.10284 0.58489
# Poissons Ratio (z) = 0.33022 0.33021
#
# Static dielectric constant tensor:
#      x y z
#    x 1.593690 0.000000 0.000000 
#    y 0.000000 1.593690 0.000000 
#    z 0.000000 0.000000 1.568940 
# 
# From -- ./inp_files/7072.got.cif
#   From: 2010.05.17/outbox.cif.g08.bks.cpg/sg121_4_cif.got.tgz:7072.got - 2010.05.20 11:32:06.
