data_PCOD9560886
_publ_section_title
;
Structure prediction by ZEFSAII (Michael W. Deem and Ramdas Pophale) SiO2 
 PCOD9560886
Probable space group: I -4 2 D
;
_chemical_formula_sum "Si O2"
_cell_formula_units_Z 116
_cell_length_a 17.487049
_cell_length_b 17.487049
_cell_length_c 18.412746
_cell_angle_alpha 90.000000
_cell_angle_beta 90.000000
_cell_angle_gamma 90.000000
_cell_volume 5630.560329
_symmetry_space_group_name_H-M "I -4 2 D"
_symmetry_group_IT_number 122
_symmetry_cell_setting 'tetragonal'
loop_
_space_group_symop_operation_xyz
x,y,z
y,-x,-z
-x,-y,z
-y,x,-z
x,1/2-y,1/4-z
-x,1/2+y,1/4-z
-y,1/2-x,1/4+z
y,1/2+x,1/4+z
1/2+x,1/2+y,1/2+z
1/2+y,1/2-x,1/2-z
1/2-x,1/2-y,1/2+z
1/2-y,1/2+x,1/2-z
1/2+x,-y,3/4-z
1/2-x,y,3/4-z
1/2-y,-x,3/4+z
1/2+y,x,3/4+z
loop_
_atom_site_type_symbol
_atom_site_label
_atom_site_fract_x
_atom_site_fract_y
_atom_site_fract_z
Si Si1 0.662967 0.879070 0.109803
Si Si2 0.163990 0.333674 0.155399
Si Si3 0.083798 0.582955 0.469080
Si Si4 0.101098 0.910870 0.215737
Si Si5 0.685590 0.059963 0.100611
Si Si6 0.109504 0.930051 0.499699
Si Si7 0.500000 0.000000 0.750000
Si Si8 0.142032 0.593918 0.189506
O O1 0.749259 0.851643 0.115923
O O2 0.610097 0.858095 0.177619
O O3 0.662214 0.971277 0.106009
O O4 0.630884 0.857214 0.031342
O O5 0.146160 0.250000 0.125000
O O6 0.108148 0.385739 0.108493
O O7 0.147763 0.347810 0.240349
O O8 0.085299 0.490984 0.470919
O O9 0.137243 0.602911 0.537874
O O10 0.000472 0.620438 0.473085
O O11 0.119748 0.872588 0.138767
O O12 0.661643 0.089130 0.180379
O O13 0.773909 0.060043 0.076609
O O14 0.021981 0.899595 0.511173
O O15 0.534467 0.926798 0.793025
#
# Coordination Sequence:
#
# PCOD9560886 Si02
#       8
#    16  16  16  16  16  16   4  16
#     4  10  22  38  59  92 123 162 206 263 316 369
#     4  12  25  42  59  83 128 170 205 259 327 382
#     4  10  20  40  63  92 123 158 203 257 322 373
#     4  10  21  37  65  93 119 154 209 266 304 375
#     4  10  20  37  64  92 123 162 211 254 311 388
#     4   9  18  37  65  95 126 162 208 262 318 378
#     4  12  24  40  68  96 128 160 214 272 312 364
#     4  12  23  40  61  92 120 167 209 258 315 382
#
# _framework density 20.601858
#
# number of rings (size 3 to 8) (size 9 to 14) (size 15 to 20)
#    0.000    1.517    1.379    4.966    0.000    4.966 
#    0.000    0.690    0.000    4.966    0.000    0.000 
#    0.000    0.000    0.000    0.000    0.000    0.000 
#
# Total GULP energy -323535.473925 kJ/mol
# GULP energy per Si atom -5578.197826 kJ/mol
# Density = 2.055497 g / cm^3
# Si number density = 20.601858 Si / 1000 Ang^3
#
#
#
# Elastic Constant Matrix: (Units=GPa)
#
#
# Indices 1 2 3 4 5 6 
#
# 1 67.3978 -8.2472 33.2244 0.0000 0.0000 0.0000
# 2 -8.2472 67.3978 33.2244 0.0000 0.0000 0.0000
# 3 33.2244 33.2244 155.2006 0.0000 0.0000 0.0000
# 4 0.0000 0.0000 0.0000 43.5381 0.0000 0.0000
# 5 0.0000 0.0000 0.0000 0.0000 43.5381 0.0000
# 6 0.0000 0.0000 0.0000 0.0000 0.0000 10.3448
#
#
#
# Elastic Compliance Matrix: (Units=1/GPa)
#
#
# Indices 1 2 3 4 5 6 
#
# 1 0.017739 0.004520 -0.004765 0.000000 0.000000 0.000000
# 2 0.004520 0.017739 -0.004765 0.000000 0.000000 0.000000
# 3 -0.004765 -0.004765 0.008483 0.000000 0.000000 0.000000
# 4 0.000000 0.000000 0.000000 0.022968 0.000000 0.000000
# 5 0.000000 0.000000 0.000000 0.000000 0.022968 0.000000
# 6 0.000000 0.000000 0.000000 0.000000 0.000000 0.096667
#
#
# Mechanical properties :
#
#
# Convention : Reuss Voigt Hill
#
# Bulk Modulus (GPa) = 29.46276 45.15549 37.30913
# Shear Modulus (GPa) = 24.04996 34.93718 29.49357
#
# Velocity S-wave (km/s) = 3.42038 4.12251 3.78775
# Velocity P-wave (km/s) = 5.47090 6.68026 6.10560
#
# Compressibility (1/GPa) = 0.03394115
#
# Stress axis : x y z
#
# Youngs Moduli (GPa) = 56.37194 56.37194 117.87688
#
# Poissons Ratio (x) = -0.25478 0.56169
# Poissons Ratio (y) = -0.25478 0.56169
# Poissons Ratio (z) = 0.26862 0.26862
#
# Static dielectric constant tensor:
#      x y z
#    x 1.720820 0.000000 0.000000 
#    y 0.000000 1.720820 0.000000 
#    z 0.000000 0.000000 1.767430 
# 
# From -- ./inp_files/6465.got.cif
#   From: 2010.05.17/outbox.cif.g08.bks.cpg/sg122_4_cif.got.tgz:6465.got - 2010.05.20 11:37:33.
