data_PCOD9560490
_publ_section_title
;
Structure prediction by ZEFSAII (Michael W. Deem and Ramdas Pophale) SiO2 
 PCOD9560490
Probable space group: I -4 2 M
;
_chemical_formula_sum "Si O2"
_cell_formula_units_Z 96
_cell_length_a 14.596932
_cell_length_b 14.596932
_cell_length_c 22.003686
_cell_angle_alpha 90.000000
_cell_angle_beta 90.000000
_cell_angle_gamma 90.000000
_cell_volume 4688.334701
_symmetry_space_group_name_H-M "I -4 2 M"
_symmetry_group_IT_number 121
_symmetry_cell_setting 'tetragonal'
loop_
_space_group_symop_operation_xyz
x,y,z
y,-x,-z
-x,-y,z
-y,x,-z
x,-y,-z
-x,y,-z
-y,-x,z
y,x,z
1/2+x,1/2+y,1/2+z
1/2+y,1/2-x,1/2-z
1/2-x,1/2-y,1/2+z
1/2-y,1/2+x,1/2-z
1/2+x,1/2-y,1/2-z
1/2-x,1/2+y,1/2-z
1/2-y,1/2-x,1/2+z
1/2+y,1/2+x,1/2+z
loop_
_atom_site_type_symbol
_atom_site_label
_atom_site_fract_x
_atom_site_fract_y
_atom_site_fract_z
Si Si1 0.397083 0.889752 0.496239
Si Si2 0.864861 0.710119 0.128329
Si Si3 0.948561 0.206701 0.689453
Si Si4 0.650794 0.493513 0.681723
Si Si5 0.569570 0.723273 0.943936
Si Si6 0.591250 0.116607 0.253763
O O1 0.500000 0.852001 0.500000
O O2 0.363945 0.849409 0.432346
O O3 0.318831 0.874921 0.546795
O O4 0.405657 0.000000 0.500000
O O5 0.784166 0.784166 0.127231
O O6 0.855089 0.643102 0.185839
O O7 0.959078 0.768472 0.141986
O O8 0.873984 0.126017 0.688898
O O9 0.982320 0.217271 0.620658
O O10 0.898859 0.301793 0.706389
O O11 0.011914 0.183725 0.747668
O O12 0.601472 0.398529 0.663116
O O13 0.570666 0.570666 0.680795
O O14 0.641046 0.641046 0.946685
O O15 0.500000 0.715794 0.000000
O O16 0.483263 0.113485 0.270244
#
# Coordination Sequence:
#
# PCOD9560490 Si02
#       6
#    16  16  16  16  16  16
#     4  10  23  39  63  85 114 160 212 261 315 373
#     4  10  21  40  62  88 124 162 207 264 322 384
#     4   9  19  37  57  83 122 157 196 252 310 370
#     4   8  15  32  58  85 116 157 199 246 313 384
#     4  10  22  38  59  88 124 165 210 257 305 376
#     4  10  22  34  59  89 118 152 199 253 311 375
#
# _framework density 20.476355000000002
#
# number of rings (size 3 to 8) (size 9 to 14) (size 15 to 20)
#    0.000    2.500    0.000    2.000    7.000    2.167 
#    0.000   10.000    0.000    0.000    0.000    0.000 
#    0.000    0.000    0.000    0.000    0.000    0.000 
#
# Total GULP energy -267318.934697 kJ/mol
# GULP energy per Si atom -5569.144473 kJ/mol
# Density = 2.042975 g / cm^3
# Si number density = 20.476355 Si / 1000 Ang^3
#
#
#
# Elastic Constant Matrix: (Units=GPa)
#
#
# Indices 1 2 3 4 5 6 
#
# 1 62.8354 12.4777 12.8631 0.0000 0.0000 0.0000
# 2 12.4777 62.8386 12.8630 0.0000 0.0000 0.0000
# 3 12.8631 12.8630 61.5431 0.0000 0.0000 0.0000
# 4 0.0000 0.0000 0.0000 24.3619 0.0000 0.0000
# 5 0.0000 0.0000 0.0000 0.0000 24.3615 0.0000
# 6 0.0000 0.0000 0.0000 0.0000 0.0000 29.9885
#
#
#
# Elastic Compliance Matrix: (Units=1/GPa)
#
#
# Indices 1 2 3 4 5 6 
#
# 1 0.017078 -0.002779 -0.002989 0.000000 0.000000 0.000000
# 2 -0.002779 0.017077 -0.002988 0.000000 0.000000 0.000000
# 3 -0.002989 -0.002988 0.017498 0.000000 0.000000 0.000000
# 4 0.000000 0.000000 0.000000 0.041048 0.000000 0.000000
# 5 0.000000 0.000000 0.000000 0.000000 0.041048 0.000000
# 6 0.000000 0.000000 0.000000 0.000000 0.000000 0.033346
#
#
# Mechanical properties :
#
#
# Convention : Reuss Voigt Hill
#
# Bulk Modulus (GPa) = 29.29039 29.29164 29.29101
# Shear Modulus (GPa) = 25.51164 25.67662 25.59413
#
# Velocity S-wave (km/s) = 3.53357 3.54498 3.53928
# Velocity P-wave (km/s) = 5.56630 5.57602 5.57116
#
# Compressibility (1/GPa) = 0.03414089
#
# Stress axis : x y z
#
# Youngs Moduli (GPa) = 58.55376 58.55690 57.14933
#
# Poissons Ratio (x) = 0.16275 0.17080
# Poissons Ratio (y) = 0.16275 0.17078
# Poissons Ratio (z) = 0.17499 0.17499
#
# Static dielectric constant tensor:
#      x y z
#    x 1.742640 0.000000 0.000000 
#    y 0.000000 1.742640 0.000000 
#    z 0.000000 0.000000 1.706770 
# 
# From -- ./inp_files/6428.got.cif
#   From: 2010.05.17/outbox.cif.g08.bks.cpg/sg121_4_cif.got.tgz:6428.got - 2010.05.20 11:32:06.
