data_PCOD9560865
_publ_section_title
;
Structure prediction by ZEFSAII (Michael W. Deem and Ramdas Pophale) SiO2 
 PCOD9560865
Probable space group: I -4 2 D
;
_chemical_formula_sum "Si O2"
_cell_formula_units_Z 104
_cell_length_a 16.468200
_cell_length_b 16.468200
_cell_length_c 19.897005
_cell_angle_alpha 90.000000
_cell_angle_beta 90.000000
_cell_angle_gamma 90.000000
_cell_volume 5396.099815
_symmetry_space_group_name_H-M "I -4 2 D"
_symmetry_group_IT_number 122
_symmetry_cell_setting 'tetragonal'
loop_
_space_group_symop_operation_xyz
x,y,z
y,-x,-z
-x,-y,z
-y,x,-z
x,1/2-y,1/4-z
-x,1/2+y,1/4-z
-y,1/2-x,1/4+z
y,1/2+x,1/4+z
1/2+x,1/2+y,1/2+z
1/2+y,1/2-x,1/2-z
1/2-x,1/2-y,1/2+z
1/2-y,1/2+x,1/2-z
1/2+x,-y,3/4-z
1/2-x,y,3/4-z
1/2-y,-x,3/4+z
1/2+y,x,3/4+z
loop_
_atom_site_type_symbol
_atom_site_label
_atom_site_fract_x
_atom_site_fract_y
_atom_site_fract_z
Si Si1 0.168008 0.640778 0.061040
Si Si2 0.589979 0.282901 0.002743
Si Si3 0.155507 0.469781 0.106114
Si Si4 0.704439 0.583658 0.504595
Si Si5 0.750000 0.709043 0.875000
Si Si6 0.930500 0.668998 0.169151
Si Si7 0.792752 0.414426 0.803399
O O1 0.127436 0.560376 0.090191
O O2 0.114722 0.713441 0.030280
O O3 0.229124 0.675235 0.117422
O O4 0.225547 0.611268 0.000884
O O5 0.564911 0.209374 0.954429
O O6 0.632924 0.353427 0.959472
O O7 0.652477 0.252351 0.059581
O O8 0.508045 0.314300 0.038673
O O9 0.211696 0.462351 0.173364
O O10 0.082734 0.408648 0.121829
O O11 0.667610 0.517076 0.454770
O O12 0.641843 0.655581 0.525667
O O13 0.920049 0.750000 0.125000
O O14 0.750000 0.406020 0.875000
#
# Coordination Sequence:
#
# PCOD9560865 Si02
#       7
#    16  16  16  16   8  16  16
#     4  10  22  37  65  95 126 171 219 278 327 401
#     4  10  20  38  61  99 128 172 217 271 335 401
#     4   9  23  41  63  96 135 168 226 274 337 402
#     4  10  24  43  65  94 131 176 228 273 342 403
#     4  10  22  34  66  92 128 164 226 270 324 402
#     4  10  25  43  66  97 132 181 227 279 343 412
#     4  10  20  36  62  94 129 168 215 271 331 393
#
# _framework density 19.27318
#
# number of rings (size 3 to 8) (size 9 to 14) (size 15 to 20)
#    0.923    1.231    0.769    0.923    7.538    0.615 
#    2.769    0.000    0.000    0.000    0.000    0.000 
#    0.000    0.000    0.000    0.000    0.000    0.000 
#
# Total GULP energy -289842.147549 kJ/mol
# GULP energy per Si atom -5573.887453 kJ/mol
# Density = 1.922931 g / cm^3
# Si number density = 19.273180 Si / 1000 Ang^3
#
#
#
# Elastic Constant Matrix: (Units=GPa)
#
#
# Indices 1 2 3 4 5 6 
#
# 1 94.6255 51.5537 48.2802 0.0000 0.0000 0.0000
# 2 51.5537 94.6255 48.2802 0.0000 0.0000 0.0000
# 3 48.2802 48.2802 92.4607 0.0000 0.0000 0.0000
# 4 0.0000 0.0000 0.0000 34.2611 0.0000 0.0000
# 5 0.0000 0.0000 0.0000 0.0000 34.2611 0.0000
# 6 0.0000 0.0000 0.0000 0.0000 0.0000 240.2646
#
#
#
# Elastic Compliance Matrix: (Units=1/GPa)
#
#
# Indices 1 2 3 4 5 6 
#
# 1 0.016830 -0.006387 -0.005453 0.000000 0.000000 0.000000
# 2 -0.006387 0.016830 -0.005453 0.000000 0.000000 0.000000
# 3 -0.005453 -0.005453 0.016510 0.000000 0.000000 0.000000
# 4 0.000000 0.000000 0.000000 0.029188 0.000000 0.000000
# 5 0.000000 0.000000 0.000000 0.000000 0.029188 0.000000
# 6 0.000000 0.000000 0.000000 0.000000 0.000000 0.004162
#
#
# Mechanical properties :
#
#
# Convention : Reuss Voigt Hill
#
# Bulk Modulus (GPa) = 64.16790 64.21554 64.19172
# Shear Modulus (GPa) = 32.78937 70.66384 51.72660
#
# Velocity S-wave (km/s) = 4.12915 6.06168 5.18622
# Velocity P-wave (km/s) = 7.48995 9.07650 8.32112
#
# Compressibility (1/GPa) = 0.01558412
#
# Stress axis : x y z
#
# Youngs Moduli (GPa) = 59.41765 59.41765 60.56860
#
# Poissons Ratio (x) = 0.37950 0.33028
# Poissons Ratio (y) = 0.37950 0.33028
# Poissons Ratio (z) = 0.32400 0.32400
#
# Static dielectric constant tensor:
#      x y z
#    x 1.673650 0.000000 0.000000 
#    y 0.000000 1.673650 0.000000 
#    z 0.000000 0.000000 1.692960 
# 
# From -- ./inp_files/6386.got.cif
#   From: 2010.05.17/outbox.cif.g08.bks.cpg/sg122_4_cif.got.tgz:6386.got - 2010.05.20 11:37:33.
