data_PCOD9560170
_publ_section_title
;
Structure prediction by ZEFSAII (Michael W. Deem and Ramdas Pophale) SiO2 
 PCOD9560170
Probable space group: I -4 2 M
;
_chemical_formula_sum "Si O2"
_cell_formula_units_Z 96
_cell_length_a 16.092373
_cell_length_b 16.092373
_cell_length_c 19.470172
_cell_angle_alpha 90.000000
_cell_angle_beta 90.000000
_cell_angle_gamma 90.000000
_cell_volume 5042.082749
_symmetry_space_group_name_H-M "I -4 2 M"
_symmetry_group_IT_number 121
_symmetry_cell_setting 'tetragonal'
loop_
_space_group_symop_operation_xyz
x,y,z
y,-x,-z
-x,-y,z
-y,x,-z
x,-y,-z
-x,y,-z
-y,-x,z
y,x,z
1/2+x,1/2+y,1/2+z
1/2+y,1/2-x,1/2-z
1/2-x,1/2-y,1/2+z
1/2-y,1/2+x,1/2-z
1/2+x,1/2-y,1/2-z
1/2-x,1/2+y,1/2-z
1/2-y,1/2-x,1/2+z
1/2+y,1/2+x,1/2+z
loop_
_atom_site_type_symbol
_atom_site_label
_atom_site_fract_x
_atom_site_fract_y
_atom_site_fract_z
Si Si1 0.500000 0.000000 0.848899
Si Si2 0.160386 0.699695 0.575864
Si Si3 0.272920 0.410147 0.510206
Si Si4 0.500000 0.735343 0.000000
Si Si5 0.214632 0.921534 0.360208
Si Si6 0.677479 0.060951 0.709019
Si Si7 0.153143 0.396884 0.632790
O O1 0.471353 0.083856 0.808717
O O2 0.578904 0.039418 0.887524
O O3 0.221056 0.778945 0.564977
O O4 0.206150 0.618837 0.546863
O O5 0.135479 0.692316 0.655404
O O6 0.075331 0.712306 0.533227
O O7 0.308559 0.500000 0.500000
O O8 0.342374 0.342374 0.508112
O O9 0.228562 0.410305 0.582984
O O10 0.463371 0.688753 0.933122
O O11 0.142168 0.857833 0.337447
O O12 0.300671 0.872904 0.374977
O O13 0.250924 0.992685 0.308846
O O14 0.675416 0.085720 0.788069
#
# Coordination Sequence:
#
# PCOD9560170 Si02
#       7
#     8  16  16   8  16  16  16
#     4  10  19  34  55  88 129 152 185 238 313 374
#     4  10  21  38  57  87 123 156 197 248 304 369
#     4  11  24  41  60  83 116 156 209 257 296 355
#     4  10  18  34  59  87 116 156 190 254 320 375
#     4  10  20  35  59  88 122 160 200 244 308 382
#     4  10  21  35  59  88 124 162 194 249 302 371
#     4  11  20  36  58  89 124 157 197 245 306 374
#
# _framework density 19.039750999999999
#
# number of rings (size 3 to 8) (size 9 to 14) (size 15 to 20)
#    0.000    1.667    1.667    4.500    0.000    1.500 
#    0.000    2.500    0.000   20.500    0.000    0.000 
#    0.000    0.000    0.000    0.000    0.000    0.000 
#
# Total GULP energy -267669.858853 kJ/mol
# GULP energy per Si atom -5576.455393 kJ/mol
# Density = 1.899642 g / cm^3
# Si number density = 19.039751 Si / 1000 Ang^3
#
#
#
# Elastic Constant Matrix: (Units=GPa)
#
#
# Indices 1 2 3 4 5 6 
#
# 1 83.4150 44.6065 26.9290 0.0000 0.0000 0.0000
# 2 44.6065 83.4162 26.9306 0.0000 0.0000 0.0000
# 3 26.9290 26.9306 54.1608 0.0000 0.0000 0.0000
# 4 0.0000 0.0000 0.0000 19.9613 0.0000 0.0000
# 5 0.0000 0.0000 0.0000 0.0000 19.9616 0.0000
# 6 0.0000 0.0000 0.0000 0.0000 0.0000 25.0098
#
#
#
# Elastic Compliance Matrix: (Units=1/GPa)
#
#
# Indices 1 2 3 4 5 6 
#
# 1 0.017822 -0.007945 -0.004911 0.000000 0.000000 0.000000
# 2 -0.007945 0.017822 -0.004912 0.000000 0.000000 0.000000
# 3 -0.004911 -0.004912 0.023347 0.000000 0.000000 0.000000
# 4 0.000000 0.000000 0.000000 0.050097 0.000000 0.000000
# 5 0.000000 0.000000 0.000000 0.000000 0.050096 0.000000
# 6 0.000000 0.000000 0.000000 0.000000 0.000000 0.039984
#
#
# Mechanical properties :
#
#
# Convention : Reuss Voigt Hill
#
# Bulk Modulus (GPa) = 42.63070 46.43604 44.53337
# Shear Modulus (GPa) = 20.61660 21.15494 20.88577
#
# Velocity S-wave (km/s) = 3.29419 3.33692 3.31563
# Velocity P-wave (km/s) = 6.07519 6.26807 6.17238
#
# Compressibility (1/GPa) = 0.02345727
#
# Stress axis : x y z
#
# Youngs Moduli (GPa) = 56.10984 56.10953 42.83129
#
# Poissons Ratio (x) = 0.44579 0.21034
# Poissons Ratio (y) = 0.44579 0.21037
# Poissons Ratio (z) = 0.27554 0.27559
#
# Static dielectric constant tensor:
#      x y z
#    x 1.664970 0.000000 0.000000 
#    y 0.000000 1.664970 0.000000 
#    z 0.000000 0.000000 1.713010 
# 
# From -- ./inp_files/6486.got.cif
#   From: 2010.05.17/outbox.cif.g08.bks.cpg/sg121_4_cif.got.tgz:6486.got - 2010.05.20 11:32:06.
