data_PCOD9560021
_publ_section_title
;
Structure prediction by ZEFSAII (Michael W. Deem and Ramdas Pophale) SiO2 
 PCOD9560021
Probable space group: I -4 C 2
;
_chemical_formula_sum "Si O2"
_cell_formula_units_Z 112
_cell_length_a 14.678291
_cell_length_b 14.678291
_cell_length_c 23.560892
_cell_angle_alpha 90.000000
_cell_angle_beta 90.000000
_cell_angle_gamma 90.000000
_cell_volume 5076.246644
_symmetry_space_group_name_H-M "I -4 C 2"
_symmetry_group_IT_number 120
_symmetry_cell_setting 'tetragonal'
loop_
_space_group_symop_operation_xyz
x,y,z
y,-x,-z
-x,-y,z
-y,x,-z
y,x,1/2-z
-y,-x,1/2-z
-x,y,1/2+z
x,-y,1/2+z
1/2+x,1/2+y,1/2+z
1/2+y,1/2-x,1/2-z
1/2-x,1/2-y,1/2+z
1/2-y,1/2+x,1/2-z
1/2+y,1/2+x,-z
1/2-y,1/2-x,-z
1/2-x,1/2+y,z
1/2+x,1/2-y,z
loop_
_atom_site_type_symbol
_atom_site_label
_atom_site_fract_x
_atom_site_fract_y
_atom_site_fract_z
Si Si1 0.400890 0.453510 0.311663
Si Si2 0.367176 0.294756 0.401389
Si Si3 0.075793 0.655621 0.304754
Si Si4 0.303610 0.686348 0.395608
Si Si5 0.285621 0.983655 0.844920
Si Si6 0.387886 0.584922 0.492011
Si Si7 0.663807 0.859049 0.188141
O O1 0.500000 0.500000 0.321889
O O2 0.408992 0.408992 0.250000
O O3 0.380171 0.383741 0.362267
O O4 0.309432 0.514687 0.309344
O O5 0.403760 0.218804 0.358482
O O6 0.265793 0.262434 0.417004
O O7 0.411602 0.308246 0.462213
O O8 0.124402 0.559949 0.317337
O O9 0.130893 0.686242 0.247840
O O10 0.967015 0.653324 0.301858
O O11 0.246058 0.592168 0.390013
O O12 0.378856 0.655340 0.440529
O O13 0.338887 0.735615 0.337542
O O14 0.318920 0.086761 0.854704
O O15 0.480563 0.604995 0.526641
#
# Coordination Sequence:
#
# PCOD9560021 Si02
#       7
#    16  16  16  16  16  16  16
#     4  11  25  40  67 102 150 190 237 303 373 440
#     4  11  24  44  68 104 145 188 250 298 373 445
#     4  11  25  40  70 101 148 195 241 291 358 449
#     4  11  26  44  72 104 144 195 247 313 371 434
#     4  11  24  43  63 102 141 189 243 292 360 443
#     4  11  25  45  74 105 141 195 255 318 379 444
#     4  12  23  44  69 105 150 196 245 294 365 446
#
# _framework density 22.063544
#
# number of rings (size 3 to 8) (size 9 to 14) (size 15 to 20)
#    0.000    0.857    2.857    3.429    6.000    2.857 
#    0.000    0.000    0.000    0.000    0.000    4.000 
#    0.000    0.000    0.000    0.000    0.000    0.000 
#
# Total GULP energy -311850.492088 kJ/mol
# GULP energy per Si atom -5568.758787 kJ/mol
# Density = 2.201333 g / cm^3
# Si number density = 22.063544 Si / 1000 Ang^3
#
#
#
# Elastic Constant Matrix: (Units=GPa)
#
#
# Indices 1 2 3 4 5 6 
#
# 1 85.7581 13.5050 26.1552 0.0000 0.0000 0.0000
# 2 13.5050 85.7581 26.1552 0.0000 0.0000 0.0000
# 3 26.1552 26.1552 58.9766 0.0000 0.0000 0.0000
# 4 0.0000 0.0000 0.0000 30.0301 0.0000 0.0000
# 5 0.0000 0.0000 0.0000 0.0000 30.0301 0.0000
# 6 0.0000 0.0000 0.0000 0.0000 0.0000 34.6557
#
#
#
# Elastic Compliance Matrix: (Units=1/GPa)
#
#
# Indices 1 2 3 4 5 6 
#
# 1 0.013494 -0.000347 -0.005830 0.000000 0.000000 0.000000
# 2 -0.000347 0.013494 -0.005830 0.000000 0.000000 0.000000
# 3 -0.005830 -0.005830 0.022127 0.000000 0.000000 0.000000
# 4 0.000000 0.000000 0.000000 0.033300 0.000000 0.000000
# 5 0.000000 0.000000 0.000000 0.000000 0.033300 0.000000
# 6 0.000000 0.000000 0.000000 0.000000 0.000000 0.028855
#
#
# Mechanical properties :
#
#
# Convention : Reuss Voigt Hill
#
# Bulk Modulus (GPa) = 39.84181 40.23593 40.03887
# Shear Modulus (GPa) = 28.25642 29.92166 29.08904
#
# Velocity S-wave (km/s) = 3.58255 3.68660 3.63495
# Velocity P-wave (km/s) = 5.93379 6.03302 5.98361
#
# Compressibility (1/GPa) = 0.02509926
#
# Stress axis : x y z
#
# Youngs Moduli (GPa) = 74.10969 74.10969 45.19312
#
# Poissons Ratio (x) = 0.02570 0.26349
# Poissons Ratio (y) = 0.02570 0.26349
# Poissons Ratio (z) = 0.43209 0.43209
#
# Static dielectric constant tensor:
#      x y z
#    x 1.855690 0.000000 0.000000 
#    y 0.000000 1.855690 0.000000 
#    z 0.000000 0.000000 1.847890 
# 
# From -- ./inp_files/5922.got.cif
#   From: 2010.05.17/outbox.cif.g08.bks.cpg/sg120_3_cif.got.tgz:5922.got - 2010.05.20 11:28:13.
