data_PCOD9560275
_publ_section_title
;
Structure prediction by ZEFSAII (Michael W. Deem and Ramdas Pophale) SiO2 
 PCOD9560275
Probable space group: I -4 2 M
;
_chemical_formula_sum "Si O2"
_cell_formula_units_Z 80
_cell_length_a 12.305183
_cell_length_b 12.305183
_cell_length_c 29.662196
_cell_angle_alpha 90.000000
_cell_angle_beta 90.000000
_cell_angle_gamma 90.000000
_cell_volume 4491.376413
_symmetry_space_group_name_H-M "I -4 2 M"
_symmetry_group_IT_number 121
_symmetry_cell_setting 'tetragonal'
loop_
_space_group_symop_operation_xyz
x,y,z
y,-x,-z
-x,-y,z
-y,x,-z
x,-y,-z
-x,y,-z
-y,-x,z
y,x,z
1/2+x,1/2+y,1/2+z
1/2+y,1/2-x,1/2-z
1/2-x,1/2-y,1/2+z
1/2-y,1/2+x,1/2-z
1/2+x,1/2-y,1/2-z
1/2-x,1/2+y,1/2-z
1/2-y,1/2-x,1/2+z
1/2+y,1/2+x,1/2+z
loop_
_atom_site_type_symbol
_atom_site_label
_atom_site_fract_x
_atom_site_fract_y
_atom_site_fract_z
Si Si1 0.747833 0.077399 0.958687
Si Si2 0.599553 0.773488 0.871899
Si Si3 0.563871 0.739720 0.047252
Si Si4 0.733422 0.452705 0.635393
Si Si5 0.593285 0.406716 0.301452
Si Si6 0.407811 0.407811 0.803112
O O1 0.861134 0.138867 0.966599
O O2 0.655485 0.168428 0.956301
O O3 0.756074 0.011217 0.912492
O O4 0.722683 0.000000 0.000000
O O5 0.699562 0.699562 0.890278
O O6 0.513477 0.775170 0.911775
O O7 0.655027 0.885963 0.856942
O O8 0.557763 0.701930 0.829678
O O9 0.625892 0.625892 0.056550
O O10 0.500000 0.731683 0.000000
O O11 0.636395 0.363606 0.634210
O O12 0.695541 0.541706 0.672081
O O13 0.500000 0.500000 0.302082
O O14 0.615315 0.384686 0.249101
O O15 0.500000 0.500000 0.807102
#
# Coordination Sequence:
#
# PCOD9560275 Si02
#       6
#    16  16  16  16   8   8
#     4  11  23  36  54  81 117 154 198 242 293 361
#     4   9  20  35  58  84 114 145 193 243 287 343
#     4  11  23  37  54  82 115 160 200 239 291 358
#     4  10  19  36  58  85 112 147 191 240 296 352
#     4   9  18  34  62  83 111 151 193 240 303 360
#     4   9  18  36  60  86 113 151 195 243 291 352
#
# _framework density 17.811912
#
# number of rings (size 3 to 8) (size 9 to 14) (size 15 to 20)
#    0.600    1.400    1.000    3.000    0.000    8.000 
#    0.000    2.000    0.000    0.000    0.000    0.000 
#    0.000    0.000    0.000    0.000    0.000    0.000 
#
# Total GULP energy -222936.510792 kJ/mol
# GULP energy per Si atom -5573.412770 kJ/mol
# Density = 1.777137 g / cm^3
# Si number density = 17.811912 Si / 1000 Ang^3
#
#
#
# Elastic Constant Matrix: (Units=GPa)
#
#
# Indices 1 2 3 4 5 6 
#
# 1 78.5725 37.6256 49.1309 0.0000 0.0000 0.0000
# 2 37.6256 78.5729 49.1309 0.0000 0.0000 0.0000
# 3 49.1309 49.1309 138.9563 0.0000 0.0000 0.0000
# 4 0.0000 0.0000 0.0000 -9.3920 0.0000 0.0000
# 5 0.0000 0.0000 0.0000 0.0000 -9.3979 0.0000
# 6 0.0000 0.0000 0.0000 0.0000 0.0000 20.0832
#
#
#
# Elastic Compliance Matrix: (Units=1/GPa)
#
#
# Indices 1 2 3 4 5 6 
#
# 1 0.018349 -0.006073 -0.004341 0.000000 0.000000 0.000000
# 2 -0.006073 0.018349 -0.004341 0.000000 0.000000 0.000000
# 3 -0.004341 -0.004341 0.010266 0.000000 0.000000 0.000000
# 4 0.000000 0.000000 0.000000 -0.106474 0.000000 0.000000
# 5 0.000000 0.000000 0.000000 0.000000 -0.106406 0.000000
# 6 0.000000 0.000000 0.000000 0.000000 0.000000 0.049793
#
#
# Mechanical properties :
#
#
# Convention : Reuss Voigt Hill
#
# Bulk Modulus (GPa) = 57.28503 63.09738 60.19120
# Shear Modulus (GPa) = -61.88385 10.93961 -25.47212
#
# Velocity S-wave (km/s) = -5.90071 2.48094 -3.78572
# Velocity P-wave (km/s) = 3.76744 6.61120 3.84150
#
# Compressibility (1/GPa) = 0.01745657
#
# Stress axis : x y z
#
# Youngs Moduli (GPa) = 54.49814 54.49858 97.40933
#
# Poissons Ratio (x) = 0.33095 0.42282
# Poissons Ratio (y) = 0.33094 0.42282
# Poissons Ratio (z) = 0.23656 0.23656
#
# Static dielectric constant tensor:
#      x y z
#    x 1.627100 0.000000 0.000000 
#    y 0.000000 1.627100 0.000000 
#    z 0.000000 0.000000 1.570080 
# 
# From -- ./inp_files/8102.got.cif
#   From: 2010.05.17/outbox.cif.g08.bks.cpg/sg121_5_cif.got.tgz:8102.got - 2010.05.20 11:32:06.
