data_PCOD9560838
_publ_section_title
;
Structure prediction by ZEFSAII (Michael W. Deem and Ramdas Pophale) SiO2 
 PCOD9560838
Probable space group: I -4 2 D
;
_chemical_formula_sum "Si O2"
_cell_formula_units_Z 80
_cell_length_a 29.153607
_cell_length_b 29.153607
_cell_length_c 5.052967
_cell_angle_alpha 90.000000
_cell_angle_beta 90.000000
_cell_angle_gamma 90.000000
_cell_volume 4294.682396
_symmetry_space_group_name_H-M "I -4 2 D"
_symmetry_group_IT_number 122
_symmetry_cell_setting 'tetragonal'
loop_
_space_group_symop_operation_xyz
x,y,z
y,-x,-z
-x,-y,z
-y,x,-z
x,1/2-y,1/4-z
-x,1/2+y,1/4-z
-y,1/2-x,1/4+z
y,1/2+x,1/4+z
1/2+x,1/2+y,1/2+z
1/2+y,1/2-x,1/2-z
1/2-x,1/2-y,1/2+z
1/2-y,1/2+x,1/2-z
1/2+x,-y,3/4-z
1/2-x,y,3/4-z
1/2-y,-x,3/4+z
1/2+y,x,3/4+z
loop_
_atom_site_type_symbol
_atom_site_label
_atom_site_fract_x
_atom_site_fract_y
_atom_site_fract_z
Si Si1 0.716775 0.299705 0.121553
Si Si2 0.661660 0.391556 0.092792
Si Si3 0.011000 0.859216 0.989021
Si Si4 0.200823 0.510943 0.741955
Si Si5 0.412649 0.104340 0.837920
O O1 0.692177 0.250000 0.125000
O O2 0.750000 0.307184 0.375000
O O3 0.684301 0.342343 0.065309
O O4 0.750000 0.295751 0.875000
O O5 0.696430 0.433753 0.039798
O O6 0.642472 0.392712 0.389270
O O7 0.621041 0.402133 0.885054
O O8 0.008173 0.835474 0.703802
O O9 0.966408 0.892381 0.987292
O O10 0.056222 0.888632 0.035834
O O11 0.006690 0.818346 0.208361
O O12 0.250000 0.500230 0.875000
#
# Coordination Sequence:
#
# PCOD9560838 Si02
#       5
#    16  16  16  16  16
#     4  10  20  34  53  78 108 141 180 221 262 317
#     4  10  20  35  56  79 107 141 178 224 271 315
#     4  10  21  37  57  81 109 141 179 224 271 321
#     4  10  20  35  56  81 107 139 181 222 265 318
#     4  10  21  37  56  79 108 140 179 225 272 325
#
# _framework density 18.627687999999999
#
# number of rings (size 3 to 8) (size 9 to 14) (size 15 to 20)
#    0.000    2.000    0.000    3.600    0.000    3.600 
#    0.000    6.000    0.000    7.200    0.000    0.000 
#    0.000    0.000    0.000    0.000    0.000    0.000 
#
# Total GULP energy -222889.320973 kJ/mol
# GULP energy per Si atom -5572.233024 kJ/mol
# Density = 1.858529 g / cm^3
# Si number density = 18.627688 Si / 1000 Ang^3
#
#
#
# Elastic Constant Matrix: (Units=GPa)
#
#
# Indices 1 2 3 4 5 6 
#
# 1 50.0104 10.8243 -20.6305 0.0000 0.0000 0.0000
# 2 10.8243 50.0104 -20.6305 0.0000 0.0000 0.0000
# 3 -20.6305 -20.6305 71.1028 0.0000 0.0000 0.0000
# 4 0.0000 0.0000 0.0000 17.2810 0.0000 0.0000
# 5 0.0000 0.0000 0.0000 0.0000 17.2810 0.0000
# 6 0.0000 0.0000 0.0000 0.0000 0.0000 6.5767
#
#
#
# Elastic Compliance Matrix: (Units=1/GPa)
#
#
# Indices 1 2 3 4 5 6 
#
# 1 0.022992 -0.002527 0.005938 0.000000 0.000000 0.000000
# 2 -0.002527 0.022992 0.005938 0.000000 0.000000 0.000000
# 3 0.005938 0.005938 0.017510 0.000000 0.000000 0.000000
# 4 0.000000 0.000000 0.000000 0.057867 0.000000 0.000000
# 5 0.000000 0.000000 0.000000 0.000000 0.057867 0.000000
# 6 0.000000 0.000000 0.000000 0.000000 0.000000 0.152052
#
#
# Mechanical properties :
#
#
# Convention : Reuss Voigt Hill
#
# Bulk Modulus (GPa) = 12.16646 12.25002 12.20824
# Shear Modulus (GPa) = 14.70674 21.66510 18.18592
#
# Velocity S-wave (km/s) = 2.81287 3.41406 3.12794
# Velocity P-wave (km/s) = 4.13464 4.70443 4.42870
#
# Compressibility (1/GPa) = 0.08219319
#
# Stress axis : x y z
#
# Youngs Moduli (GPa) = 43.49271 43.49271 57.11020
#
# Poissons Ratio (x) = 0.10990 -0.33912
# Poissons Ratio (y) = 0.10990 -0.33912
# Poissons Ratio (z) = -0.25826 -0.25826
#
# Static dielectric constant tensor:
#      x y z
#    x 1.654440 0.000000 0.000000 
#    y 0.000000 1.654440 0.000000 
#    z 0.000000 0.000000 1.641830 
# 
# From -- ./inp_files/1304.got.cif
#   From: 2010.05.17/outbox.cif.g08.bks.cpg/sg122_1_cif.got.tgz:1304.got - 2010.05.20 11:37:33.
