data_PCOD9560245
_publ_section_title
;
Structure prediction by ZEFSAII (Michael W. Deem and Ramdas Pophale) SiO2 
 PCOD9560245
Probable space group: I -4 2 M
;
_chemical_formula_sum "Si O2"
_cell_formula_units_Z 96
_cell_length_a 25.688155
_cell_length_b 25.688155
_cell_length_c 9.178538
_cell_angle_alpha 90.000000
_cell_angle_beta 90.000000
_cell_angle_gamma 90.000000
_cell_volume 6056.745655
_symmetry_space_group_name_H-M "I -4 2 M"
_symmetry_group_IT_number 121
_symmetry_cell_setting 'tetragonal'
loop_
_space_group_symop_operation_xyz
x,y,z
y,-x,-z
-x,-y,z
-y,x,-z
x,-y,-z
-x,y,-z
-y,-x,z
y,x,z
1/2+x,1/2+y,1/2+z
1/2+y,1/2-x,1/2-z
1/2-x,1/2-y,1/2+z
1/2-y,1/2+x,1/2-z
1/2+x,1/2-y,1/2-z
1/2-x,1/2+y,1/2-z
1/2-y,1/2-x,1/2+z
1/2+y,1/2+x,1/2+z
loop_
_atom_site_type_symbol
_atom_site_label
_atom_site_fract_x
_atom_site_fract_y
_atom_site_fract_z
Si Si1 0.165347 0.750538 0.061467
Si Si2 0.392279 0.526530 0.644362
Si Si3 0.221103 0.948280 0.093506
Si Si4 0.454940 0.629286 0.094130
Si Si5 0.553097 0.258835 0.938001
Si Si6 0.671835 0.756981 0.088953
O O1 0.195563 0.804438 0.028585
O O2 0.104174 0.754140 0.029631
O O3 0.170898 0.741366 0.235268
O O4 0.196493 0.706128 0.976109
O O5 0.414078 0.500000 0.500000
O O6 0.435322 0.564679 0.710760
O O7 0.341359 0.558872 0.598716
O O8 0.370362 0.481233 0.747982
O O9 0.236830 0.953596 0.263392
O O10 0.232208 0.000000 0.000000
O O11 0.402639 0.597362 0.095962
O O12 0.500000 0.601709 0.000000
O O13 0.446535 0.684530 0.016589
O O14 0.611943 0.239007 0.962835
O O15 0.500000 0.232795 0.000000
O O16 0.703159 0.703159 0.049758
#
# Coordination Sequence:
#
# PCOD9560245 Si02
#       6
#    16  16  16  16  16  16
#     4   9  18  33  52  74  98 127 161 203 252 297
#     4  11  22  35  47  62  86 121 163 209 256 296
#     4  10  20  34  51  69  95 129 162 198 245 298
#     4  11  21  32  46  64  86 119 164 209 254 293
#     4  10  19  34  49  71  96 125 162 203 246 293
#     4   9  18  32  51  73  99 128 161 205 253 299
#
# _framework density 15.850097
#
# number of rings (size 3 to 8) (size 9 to 14) (size 15 to 20)
#    0.000    2.000    3.333    2.000    0.000    4.667 
#    0.000    0.000    0.000    0.000    0.000    0.000 
#    0.000    0.667    0.000    7.333    0.000    5.333 
#
# Total GULP energy -267292.264022 kJ/mol
# GULP energy per Si atom -5568.588834 kJ/mol
# Density = 1.581402 g / cm^3
# Si number density = 15.850097 Si / 1000 Ang^3
#
#
#
# Elastic Constant Matrix: (Units=GPa)
#
#
# Indices 1 2 3 4 5 6 
#
# 1 77.3069 26.7702 29.3196 0.0000 0.0000 0.0000
# 2 26.7702 77.3092 29.3196 0.0000 0.0000 0.0000
# 3 29.3196 29.3196 48.2022 0.0000 0.0000 0.0000
# 4 0.0000 0.0000 0.0000 23.2259 0.0000 0.0000
# 5 0.0000 0.0000 0.0000 0.0000 23.2272 0.0000
# 6 0.0000 0.0000 0.0000 0.0000 0.0000 24.2585
#
#
#
# Elastic Compliance Matrix: (Units=1/GPa)
#
#
# Indices 1 2 3 4 5 6 
#
# 1 0.017203 -0.002585 -0.008892 0.000000 0.000000 0.000000
# 2 -0.002585 0.017202 -0.008891 0.000000 0.000000 0.000000
# 3 -0.008892 -0.008891 0.031562 0.000000 0.000000 0.000000
# 4 0.000000 0.000000 0.000000 0.043055 0.000000 0.000000
# 5 0.000000 0.000000 0.000000 0.000000 0.043053 0.000000
# 6 0.000000 0.000000 0.000000 0.000000 0.000000 0.041223
#
#
# Mechanical properties :
#
#
# Convention : Reuss Voigt Hill
#
# Bulk Modulus (GPa) = 39.63166 41.51523 40.57344
# Shear Modulus (GPa) = 20.62332 21.96959 21.29645
#
# Velocity S-wave (km/s) = 3.61106 3.72706 3.66951
# Velocity P-wave (km/s) = 6.51495 6.69108 6.60360
#
# Compressibility (1/GPa) = 0.02523235
#
# Stress axis : x y z
#
# Youngs Moduli (GPa) = 58.13024 58.13252 31.68321
#
# Poissons Ratio (x) = 0.15026 0.28171
# Poissons Ratio (y) = 0.15025 0.28170
# Poissons Ratio (z) = 0.51687 0.51687
#
# Static dielectric constant tensor:
#      x y z
#    x 1.539240 0.000000 0.000000 
#    y 0.000000 1.539240 0.000000 
#    z 0.000000 0.000000 1.574870 
# 
# From -- ./inp_files/1942.got.cif
#   From: 2010.05.17/outbox.cif.g08.bks.cpg/sg121_1_cif.got.tgz:1942.got - 2010.05.20 11:32:06.
