data_PCOD9560717
_publ_section_title
;
Structure prediction by ZEFSAII (Michael W. Deem and Ramdas Pophale) SiO2 
 PCOD9560717
Probable space group: I -4 2 D
;
_chemical_formula_sum "Si O2"
_cell_formula_units_Z 92
_cell_length_a 13.491098
_cell_length_b 13.491098
_cell_length_c 21.458838
_cell_angle_alpha 90.000000
_cell_angle_beta 90.000000
_cell_angle_gamma 90.000000
_cell_volume 3905.717208
_symmetry_space_group_name_H-M "I -4 2 D"
_symmetry_group_IT_number 122
_symmetry_cell_setting 'tetragonal'
loop_
_space_group_symop_operation_xyz
x,y,z
y,-x,-z
-x,-y,z
-y,x,-z
x,1/2-y,1/4-z
-x,1/2+y,1/4-z
-y,1/2-x,1/4+z
y,1/2+x,1/4+z
1/2+x,1/2+y,1/2+z
1/2+y,1/2-x,1/2-z
1/2-x,1/2-y,1/2+z
1/2-y,1/2+x,1/2-z
1/2+x,-y,3/4-z
1/2-x,y,3/4-z
1/2-y,-x,3/4+z
1/2+y,x,3/4+z
loop_
_atom_site_type_symbol
_atom_site_label
_atom_site_fract_x
_atom_site_fract_y
_atom_site_fract_z
Si Si1 0.182957 0.434463 0.527487
Si Si2 0.066173 0.410638 0.643808
Si Si3 0.324920 0.243448 0.953538
Si Si4 0.500000 0.500000 0.500000
Si Si5 0.500000 0.500000 0.305644
Si Si6 0.539750 0.293049 0.009690
Si Si7 0.347039 0.936787 0.655623
O O1 0.135519 0.380404 0.587922
O O2 0.228119 0.350178 0.483967
O O3 0.262831 0.506008 0.557043
O O4 0.097981 0.490001 0.487051
O O5 0.127526 0.448083 0.703662
O O6 0.000000 0.500000 0.618836
O O7 0.992002 0.333666 0.673260
O O8 0.269238 0.344431 0.974630
O O9 0.352726 0.213069 0.882739
O O10 0.436878 0.242873 0.986015
O O11 0.436791 0.572526 0.544834
O O12 0.500386 0.595937 0.350973
#
# Coordination Sequence:
#
# PCOD9560717 Si02
#       7
#    16  16  16   4   8  16  16
#     4  11  21  36  65  90 127 168 215 269 327 388
#     4  11  15  28  53  82 114 169 209 237 310 388
#     4  10  21  36  58  92 130 166 215 257 321 401
#     4  10  24  48  80  84 116 174 232 290 360 354
#     4   9  22  39  66 101 128 165 218 272 332 389
#     4  10  18  31  54  84 129 172 197 252 310 391
#     4  10  21  45  67  94 122 168 225 279 324 401
#
# _framework density 23.555212999999998
#
# number of rings (size 3 to 8) (size 9 to 14) (size 15 to 20)
#    0.000    1.739    6.087    0.000    0.000    2.783 
#    0.000   13.043    3.826    0.000    0.000    0.000 
#    0.000    0.000    0.000    0.000    0.000    0.000 
#
# Total GULP energy -256173.803145 kJ/mol
# GULP energy per Si atom -5568.995721 kJ/mol
# Density = 2.350160 g / cm^3
# Si number density = 23.555213 Si / 1000 Ang^3
#
#
#
# Elastic Constant Matrix: (Units=GPa)
#
#
# Indices 1 2 3 4 5 6 
#
# 1 79.5962 24.8400 29.6049 0.0000 0.0000 0.0000
# 2 24.8400 79.5962 29.6049 0.0000 0.0000 0.0000
# 3 29.6049 29.6049 120.8879 0.0000 0.0000 0.0000
# 4 0.0000 0.0000 0.0000 24.4866 0.0000 0.0000
# 5 0.0000 0.0000 0.0000 0.0000 24.4866 0.0000
# 6 0.0000 0.0000 0.0000 0.0000 0.0000 26.5419
#
#
#
# Elastic Compliance Matrix: (Units=1/GPa)
#
#
# Indices 1 2 3 4 5 6 
#
# 1 0.014691 -0.003572 -0.002723 0.000000 0.000000 0.000000
# 2 -0.003572 0.014691 -0.002723 0.000000 0.000000 0.000000
# 3 -0.002723 -0.002723 0.009606 0.000000 0.000000 0.000000
# 4 0.000000 0.000000 0.000000 0.040839 0.000000 0.000000
# 5 0.000000 0.000000 0.000000 0.000000 0.040839 0.000000
# 6 0.000000 0.000000 0.000000 0.000000 0.000000 0.037676
#
#
# Mechanical properties :
#
#
# Convention : Reuss Voigt Hill
#
# Bulk Modulus (GPa) = 47.72842 49.79776 48.76309
# Shear Modulus (GPa) = 27.26862 28.17171 27.72016
#
# Velocity S-wave (km/s) = 3.40611 3.46206 3.43420
# Velocity P-wave (km/s) = 5.98123 6.09655 6.03916
#
# Compressibility (1/GPa) = 0.02095188
#
# Stress axis : x y z
#
# Youngs Moduli (GPa) = 68.06931 68.06931 104.10344
#
# Poissons Ratio (x) = 0.24314 0.28347
# Poissons Ratio (y) = 0.24314 0.28347
# Poissons Ratio (z) = 0.18535 0.18535
#
# Static dielectric constant tensor:
#      x y z
#    x 1.883900 0.000000 0.000000 
#    y 0.000000 1.883900 0.000000 
#    z 0.000000 0.000000 1.865280 
# 
# From -- ./inp_files/7332.got.cif
#   From: 2010.05.17/outbox.cif.g08.bks.cpg/sg122_4_cif.got.tgz:7332.got - 2010.05.20 11:37:33.
