data_PCOD9560873
_publ_section_title
;
Structure prediction by ZEFSAII (Michael W. Deem and Ramdas Pophale) SiO2 
 PCOD9560873
Probable space group: I -4 2 D
;
_chemical_formula_sum "Si O2"
_cell_formula_units_Z 84
_cell_length_a 22.271267
_cell_length_b 22.271267
_cell_length_c 8.536903
_cell_angle_alpha 90.000000
_cell_angle_beta 90.000000
_cell_angle_gamma 90.000000
_cell_volume 4234.383570
_symmetry_space_group_name_H-M "I -4 2 D"
_symmetry_group_IT_number 122
_symmetry_cell_setting 'tetragonal'
loop_
_space_group_symop_operation_xyz
x,y,z
y,-x,-z
-x,-y,z
-y,x,-z
x,1/2-y,1/4-z
-x,1/2+y,1/4-z
-y,1/2-x,1/4+z
y,1/2+x,1/4+z
1/2+x,1/2+y,1/2+z
1/2+y,1/2-x,1/2-z
1/2-x,1/2-y,1/2+z
1/2-y,1/2+x,1/2-z
1/2+x,-y,3/4-z
1/2-x,y,3/4-z
1/2-y,-x,3/4+z
1/2+y,x,3/4+z
loop_
_atom_site_type_symbol
_atom_site_label
_atom_site_fract_x
_atom_site_fract_y
_atom_site_fract_z
Si Si1 0.500000 0.500000 0.500000
Si Si2 0.239537 0.682189 0.186817
Si Si3 0.874292 0.495975 0.414129
Si Si4 0.109293 0.812309 0.031410
Si Si5 0.140672 0.867195 0.721760
Si Si6 0.912397 0.959186 0.511661
O O1 0.512143 0.557639 0.606822
O O2 0.241561 0.750000 0.125000
O O3 0.250000 0.681444 0.375000
O O4 0.172043 0.659123 0.152480
O O5 0.298538 0.647925 0.128442
O O6 0.844506 0.545836 0.305146
O O7 0.848100 0.429189 0.431344
O O8 0.874430 0.525965 0.585356
O O9 0.104539 0.750000 0.125000
O O10 0.122522 0.815011 0.845004
O O11 0.085521 0.880927 0.607631
O O12 0.976033 0.929348 0.560273
#
# Coordination Sequence:
#
# PCOD9560873 Si02
#       6
#     4  16  16  16  16  16
#     4  12  20  36  66  88 116 168 206 256 312 384
#     4   9  20  38  60  82 111 155 203 249 305 365
#     4  11  21  36  59  88 116 155 203 246 309 373
#     4  10  22  38  57  85 117 155 205 251 304 367
#     4  10  20  37  59  85 119 160 200 258 312 367
#     4   9  19  34  54  83 118 152 194 246 305 368
#
# _framework density 19.837596999999999
#
# number of rings (size 3 to 8) (size 9 to 14) (size 15 to 20)
#    0.000    2.095    1.905    2.286    0.000    6.857 
#    0.000    0.000    0.000    4.571    0.000    0.000 
#    0.000    0.000    0.000    0.000    0.000    0.000 
#
# Total GULP energy -233907.236496 kJ/mol
# GULP energy per Si atom -5569.219917 kJ/mol
# Density = 1.979245 g / cm^3
# Si number density = 19.837597 Si / 1000 Ang^3
#
#
#
# Elastic Constant Matrix: (Units=GPa)
#
#
# Indices 1 2 3 4 5 6 
#
# 1 60.6377 20.0714 3.1601 0.0000 0.0000 0.0000
# 2 20.0714 60.6377 3.1601 0.0000 0.0000 0.0000
# 3 3.1601 3.1601 29.4253 0.0000 0.0000 0.0000
# 4 0.0000 0.0000 0.0000 29.1393 0.0000 0.0000
# 5 0.0000 0.0000 0.0000 0.0000 29.1393 0.0000
# 6 0.0000 0.0000 0.0000 0.0000 0.0000 26.6345
#
#
#
# Elastic Compliance Matrix: (Units=1/GPa)
#
#
# Indices 1 2 3 4 5 6 
#
# 1 0.018573 -0.006078 -0.001342 0.000000 0.000000 0.000000
# 2 -0.006078 0.018573 -0.001342 0.000000 0.000000 0.000000
# 3 -0.001342 -0.001342 0.034273 0.000000 0.000000 0.000000
# 4 0.000000 0.000000 0.000000 0.034318 0.000000 0.000000
# 5 0.000000 0.000000 0.000000 0.000000 0.034318 0.000000
# 6 0.000000 0.000000 0.000000 0.000000 0.000000 0.037545
#
#
# Mechanical properties :
#
#
# Convention : Reuss Voigt Hill
#
# Bulk Modulus (GPa) = 18.55442 22.60930 20.58186
# Shear Modulus (GPa) = 23.46441 25.26989 24.36715
#
# Velocity S-wave (km/s) = 3.44295 3.57296 3.50856
# Velocity P-wave (km/s) = 5.01784 5.33323 5.17794
#
# Compressibility (1/GPa) = 0.05389552
#
# Stress axis : x y z
#
# Youngs Moduli (GPa) = 53.84118 53.84118 29.17779
#
# Poissons Ratio (x) = 0.32724 0.03915
# Poissons Ratio (y) = 0.32724 0.03915
# Poissons Ratio (z) = 0.07225 0.07225
#
# Static dielectric constant tensor:
#      x y z
#    x 1.735210 0.000000 0.000000 
#    y 0.000000 1.735210 0.000000 
#    z 0.000000 0.000000 1.723850 
# 
# From -- ./inp_files/2839.got.cif
#   From: 2010.05.17/outbox.cif.g08.bks.cpg/sg122_2_cif.got.tgz:2839.got - 2010.05.20 11:37:33.
