data_PCOD9560359
_publ_section_title
;
Structure prediction by ZEFSAII (Michael W. Deem and Ramdas Pophale) SiO2 
 PCOD9560359
Probable space group: I -4 2 M
;
_chemical_formula_sum "Si O2"
_cell_formula_units_Z 112
_cell_length_a 13.420870
_cell_length_b 13.420870
_cell_length_c 29.699043
_cell_angle_alpha 90.000000
_cell_angle_beta 90.000000
_cell_angle_gamma 90.000000
_cell_volume 5349.384247
_symmetry_space_group_name_H-M "I -4 2 M"
_symmetry_group_IT_number 121
_symmetry_cell_setting 'tetragonal'
loop_
_space_group_symop_operation_xyz
x,y,z
y,-x,-z
-x,-y,z
-y,x,-z
x,-y,-z
-x,y,-z
-y,-x,z
y,x,z
1/2+x,1/2+y,1/2+z
1/2+y,1/2-x,1/2-z
1/2-x,1/2-y,1/2+z
1/2-y,1/2+x,1/2-z
1/2+x,1/2-y,1/2-z
1/2-x,1/2+y,1/2-z
1/2-y,1/2-x,1/2+z
1/2+y,1/2+x,1/2+z
loop_
_atom_site_type_symbol
_atom_site_label
_atom_site_fract_x
_atom_site_fract_y
_atom_site_fract_z
Si Si1 0.455448 0.292116 0.629771
Si Si2 0.751883 0.078615 0.040775
Si Si3 0.856140 0.411900 0.203075
Si Si4 0.753694 0.583267 0.961779
Si Si5 0.586045 0.586045 0.199376
Si Si6 0.585419 0.856736 0.699005
Si Si7 0.793091 0.045354 0.635578
Si Si8 0.415853 0.584148 0.698248
O O1 0.383575 0.383575 0.616330
O O2 0.516553 0.253166 0.587249
O O3 0.390866 0.208566 0.655687
O O4 0.531731 0.333020 0.667683
O O5 0.847929 0.152072 0.040020
O O6 0.655139 0.149836 0.037332
O O7 0.755324 0.000000 0.000000
O O8 0.811886 0.387552 0.252184
O O9 0.965640 0.367781 0.199361
O O10 0.784367 0.385593 0.162522
O O11 0.874818 0.530901 0.199001
O O12 0.658564 0.658564 0.965954
O O13 0.749019 0.526456 0.913695
O O14 0.753977 0.500000 0.000000
O O15 0.500000 0.500000 0.202150
O O16 0.675310 0.541260 0.169837
O O17 0.613820 0.613820 0.250806
O O18 0.893745 0.106256 0.627927
O O19 0.500000 0.500000 0.704112
#
# Coordination Sequence:
#
# PCOD9560359 Si02
#       8
#    16  16  16  16   8  16  16   8
#     4  11  21  36  60  91 125 161 206 261 315 376
#     4  11  24  43  65  92 125 163 214 267 325 393
#     4   9  18  36  55  77 117 163 207 255 303 374
#     4  10  24  43  66  96 125 159 208 265 321 386
#     4   9  18  32  54  87 124 162 198 239 298 370
#     4   9  19  34  55  81 114 162 210 251 311 366
#     4  10  20  36  59  86 119 153 195 243 304 368
#     4   9  18  32  54  85 126 164 199 244 299 361
#
# _framework density 20.936990000000002
#
# number of rings (size 3 to 8) (size 9 to 14) (size 15 to 20)
#    0.000    2.143    0.714    3.000    1.000    4.000 
#    2.571    0.000    0.000    0.000    0.000    0.000 
#    0.000    0.000    0.000    0.000    0.000    0.000 
#
# Total GULP energy -312494.687714 kJ/mol
# GULP energy per Si atom -5580.262281 kJ/mol
# Density = 2.088934 g / cm^3
# Si number density = 20.936990 Si / 1000 Ang^3
#
#
#
# Elastic Constant Matrix: (Units=GPa)
#
#
# Indices 1 2 3 4 5 6 
#
# 1 71.2914 17.7358 43.7228 0.0000 0.0000 0.0000
# 2 17.7358 71.2929 43.7235 0.0000 0.0000 0.0000
# 3 43.7228 43.7235 175.3621 0.0000 0.0000 0.0000
# 4 0.0000 0.0000 0.0000 17.4679 0.0000 0.0000
# 5 0.0000 0.0000 0.0000 0.0000 17.4680 0.0000
# 6 0.0000 0.0000 0.0000 0.0000 0.0000 9.3701
#
#
#
# Elastic Compliance Matrix: (Units=1/GPa)
#
#
# Indices 1 2 3 4 5 6 
#
# 1 0.016774 -0.001898 -0.003709 0.000000 0.000000 0.000000
# 2 -0.001898 0.016774 -0.003709 0.000000 0.000000 0.000000
# 3 -0.003709 -0.003709 0.007552 0.000000 0.000000 0.000000
# 4 0.000000 0.000000 0.000000 0.057248 0.000000 0.000000
# 5 0.000000 0.000000 0.000000 0.000000 0.057247 0.000000
# 6 0.000000 0.000000 0.000000 0.000000 0.000000 0.106723
#
#
# Mechanical properties :
#
#
# Convention : Reuss Voigt Hill
#
# Bulk Modulus (GPa) = 44.50925 58.70118 51.60522
# Shear Modulus (GPa) = 17.33473 23.04550 20.19012
#
# Velocity S-wave (km/s) = 2.88053 3.32129 3.10873
# Velocity P-wave (km/s) = 5.68930 6.54262 6.13082
#
# Compressibility (1/GPa) = 0.02246724
#
# Stress axis : x y z
#
# Youngs Moduli (GPa) = 59.61669 59.61780 132.41569
#
# Poissons Ratio (x) = 0.11317 0.49112
# Poissons Ratio (y) = 0.11317 0.49112
# Poissons Ratio (z) = 0.22111 0.22112
#
# Static dielectric constant tensor:
#      x y z
#    x 1.793450 0.000000 0.000000 
#    y 0.000000 1.793450 0.000000 
#    z 0.000000 0.000000 1.753330 
# 
# From -- ./inp_files/7774.got.cif
#   From: 2010.05.17/outbox.cif.g08.bks.cpg/sg121_4_cif.got.tgz:7774.got - 2010.05.20 11:32:06.
