data_PCOD9560821
_publ_section_title
;
Structure prediction by ZEFSAII (Michael W. Deem and Ramdas Pophale) SiO2 
 PCOD9560821
Probable space group: I -4 2 D
;
_chemical_formula_sum "Si O2"
_cell_formula_units_Z 120
_cell_length_a 13.310619
_cell_length_b 13.310619
_cell_length_c 29.753099
_cell_angle_alpha 90.000000
_cell_angle_beta 90.000000
_cell_angle_gamma 90.000000
_cell_volume 5271.433258
_symmetry_space_group_name_H-M "I -4 2 D"
_symmetry_group_IT_number 122
_symmetry_cell_setting 'tetragonal'
loop_
_space_group_symop_operation_xyz
x,y,z
y,-x,-z
-x,-y,z
-y,x,-z
x,1/2-y,1/4-z
-x,1/2+y,1/4-z
-y,1/2-x,1/4+z
y,1/2+x,1/4+z
1/2+x,1/2+y,1/2+z
1/2+y,1/2-x,1/2-z
1/2-x,1/2-y,1/2+z
1/2-y,1/2+x,1/2-z
1/2+x,-y,3/4-z
1/2-x,y,3/4-z
1/2-y,-x,3/4+z
1/2+y,x,3/4+z
loop_
_atom_site_type_symbol
_atom_site_label
_atom_site_fract_x
_atom_site_fract_y
_atom_site_fract_z
Si Si1 0.083761 0.880283 0.524182
Si Si2 0.170910 0.434508 0.979228
Si Si3 0.383568 0.467335 0.675841
Si Si4 0.837300 0.390978 0.910413
Si Si5 0.500000 0.500000 0.103718
Si Si6 0.477580 0.708428 0.769344
Si Si7 0.752099 0.039997 0.825461
Si Si8 0.968503 0.115237 0.922962
O O1 0.132466 0.771636 0.519164
O O2 0.066803 0.925773 0.573110
O O3 0.969047 0.870078 0.505461
O O4 0.189545 0.506993 0.937133
O O5 0.065592 0.375230 0.975287
O O6 0.163342 0.494954 0.026557
O O7 0.500000 0.500000 0.676939
O O8 0.384850 0.346359 0.675146
O O9 0.344552 0.497230 0.626849
O O10 0.750000 0.359504 0.875000
O O11 0.881798 0.320894 0.950182
O O12 0.933646 0.422738 0.881439
O O13 0.466009 0.727683 0.716186
O O14 0.514852 0.813264 0.790083
O O15 0.750000 0.990725 0.875000
O O16 0.651099 0.103549 0.821028
O O17 0.000000 0.000000 0.926218
#
# Coordination Sequence:
#
# PCOD9560821 Si02
#       8
#    16  16  16  16   8  16  16  16
#     4   9  21  39  61  92 131 185 233 286 350 430
#     4  11  20  40  64  97 137 178 228 293 352 418
#     4   9  19  39  64  89 126 172 220 280 347 408
#     4  12  23  39  69 102 138 189 237 293 361 426
#     4  10  19  40  64  92 138 184 228 279 360 420
#     4  11  24  39  66 104 136 179 240 297 351 436
#     4   9  20  40  64  92 134 178 223 287 354 420
#     4  10  23  41  65  94 130 179 221 282 358 417
#
# _framework density 22.764209000000001
#
# number of rings (size 3 to 8) (size 9 to 14) (size 15 to 20)
#    0.000    2.000    2.667    1.600    1.867    3.733 
#    4.800    1.333    0.000    7.200    0.000    0.000 
#    0.000    0.000    0.000    0.000    0.000    0.000 
#
# Total GULP energy -334699.510676 kJ/mol
# GULP energy per Si atom -5578.325178 kJ/mol
# Density = 2.271240 g / cm^3
# Si number density = 22.764209 Si / 1000 Ang^3
#
#
#
# Elastic Constant Matrix: (Units=GPa)
#
#
# Indices 1 2 3 4 5 6 
#
# 1 72.0197 13.3025 33.7055 0.0000 0.0000 0.0000
# 2 13.3025 72.0197 33.7055 0.0000 0.0000 0.0000
# 3 33.7055 33.7055 183.6911 0.0000 0.0000 0.0000
# 4 0.0000 0.0000 0.0000 -43.4006 0.0000 0.0000
# 5 0.0000 0.0000 0.0000 0.0000 -43.4006 0.0000
# 6 0.0000 0.0000 0.0000 0.0000 0.0000 6.0038
#
#
#
# Elastic Compliance Matrix: (Units=1/GPa)
#
#
# Indices 1 2 3 4 5 6 
#
# 1 0.015369 -0.001662 -0.002515 0.000000 0.000000 0.000000
# 2 -0.001662 0.015369 -0.002515 0.000000 0.000000 0.000000
# 3 -0.002515 -0.002515 0.006367 0.000000 0.000000 0.000000
# 4 0.000000 0.000000 0.000000 -0.023041 0.000000 0.000000
# 5 0.000000 0.000000 0.000000 0.000000 -0.023041 0.000000
# 6 0.000000 0.000000 0.000000 0.000000 0.000000 0.166561
#
#
# Mechanical properties :
#
#
# Convention : Reuss Voigt Hill
#
# Bulk Modulus (GPa) = 42.15647 54.35084 48.25365
# Shear Modulus (GPa) = 27.95255 0.30832 14.13043
#
# Velocity S-wave (km/s) = 3.50797 0.36842 2.49415
# Velocity P-wave (km/s) = 5.91327 4.91003 5.43485
#
# Compressibility (1/GPa) = 0.02372115
#
# Stress axis : x y z
#
# Youngs Moduli (GPa) = 65.06548 65.06548 157.06109
#
# Poissons Ratio (x) = 0.10812 0.39504
# Poissons Ratio (y) = 0.10812 0.39504
# Poissons Ratio (z) = 0.16365 0.16365
#
# Static dielectric constant tensor:
#      x y z
#    x 1.955240 0.000000 0.000000 
#    y 0.000000 1.955240 0.000000 
#    z 0.000000 0.000000 1.899580 
# 
# From -- ./inp_files/9741.got.cif
#   From: 2010.05.17/outbox.cif.g08.bks.cpg/sg122_5_cif.got.tgz:9741.got - 2010.05.20 11:37:33.
