data_PCOD9560236
_publ_section_title
;
Structure prediction by ZEFSAII (Michael W. Deem and Ramdas Pophale) SiO2 
 PCOD9560236
Probable space group: I -4 2 M
;
_chemical_formula_sum "Si O2"
_cell_formula_units_Z 112
_cell_length_a 31.423249
_cell_length_b 31.423249
_cell_length_c 5.614376
_cell_angle_alpha 90.000000
_cell_angle_beta 90.000000
_cell_angle_gamma 90.000000
_cell_volume 5543.750393
_symmetry_space_group_name_H-M "I -4 2 M"
_symmetry_group_IT_number 121
_symmetry_cell_setting 'tetragonal'
loop_
_space_group_symop_operation_xyz
x,y,z
y,-x,-z
-x,-y,z
-y,x,-z
x,-y,-z
-x,y,-z
-y,-x,z
y,x,z
1/2+x,1/2+y,1/2+z
1/2+y,1/2-x,1/2-z
1/2-x,1/2-y,1/2+z
1/2-y,1/2+x,1/2-z
1/2+x,1/2-y,1/2-z
1/2-x,1/2+y,1/2-z
1/2-y,1/2-x,1/2+z
1/2+y,1/2+x,1/2+z
loop_
_atom_site_type_symbol
_atom_site_label
_atom_site_fract_x
_atom_site_fract_y
_atom_site_fract_z
Si Si1 0.912750 0.157102 0.986311
Si Si2 0.795162 0.455101 0.566501
Si Si3 0.118302 0.351706 0.756397
Si Si4 0.290699 0.806541 0.716327
Si Si5 0.457884 0.709558 0.852959
Si Si6 0.525610 0.596711 0.752471
Si Si7 0.242957 0.105152 0.262222
O O1 0.877015 0.122986 0.054147
O O2 0.941296 0.136016 0.779683
O O3 0.892654 0.202209 0.911555
O O4 0.944805 0.169630 0.195399
O O5 0.816082 0.500000 0.500000
O O6 0.824651 0.424771 0.725050
O O7 0.751172 0.467428 0.695262
O O8 0.779305 0.425488 0.348263
O O9 0.122140 0.376361 0.504839
O O10 0.159124 0.319887 0.765398
O O11 0.285984 0.781421 0.471325
O O12 0.263317 0.849382 0.696753
O O13 0.500000 0.701205 0.000000
O O14 0.417777 0.724151 0.008030
O O15 0.500000 0.594944 0.500000
O O16 0.554468 0.554468 0.763437
O O17 0.500000 0.599325 0.000000
#
# Coordination Sequence:
#
# PCOD9560236 Si02
#       7
#    16  16  16  16  16  16  16
#     4  10  27  45  62  92 129 171 215 263 325 398
#     4  11  21  34  53  93 134 165 205 269 331 393
#     4  10  19  33  55  80 125 172 212 254 315 390
#     4  10  19  34  59  87 119 163 213 257 321 383
#     4  11  23  37  63  93 128 167 210 264 331 395
#     4  11  26  47  73 101 131 167 213 268 327 391
#     4  11  22  37  62  88 123 168 207 266 323 397
#
# _framework density 20.202929000000001
#
# number of rings (size 3 to 8) (size 9 to 14) (size 15 to 20)
#    0.000    1.429    4.286    2.143    6.000    1.429 
#    0.000    0.000    0.000    0.857    0.000    0.000 
#    0.000    1.714    0.000    0.000    0.000    0.000 
#
# Total GULP energy -312918.652676 kJ/mol
# GULP energy per Si atom -5587.833084 kJ/mol
# Density = 2.015695 g / cm^3
# Si number density = 20.202929 Si / 1000 Ang^3
#
#
#
# Elastic Constant Matrix: (Units=GPa)
#
#
# Indices 1 2 3 4 5 6 
#
# 1 85.1231 71.6507 43.2073 0.0000 0.0000 0.0000
# 2 71.6507 85.1214 43.2063 0.0000 0.0000 0.0000
# 3 43.2073 43.2063 143.1242 0.0000 0.0000 0.0000
# 4 0.0000 0.0000 0.0000 1.6086 0.0000 0.0000
# 5 0.0000 0.0000 0.0000 0.0000 1.6160 0.0000
# 6 0.0000 0.0000 0.0000 0.0000 0.0000 27.6046
#
#
#
# Elastic Compliance Matrix: (Units=1/GPa)
#
#
# Indices 1 2 3 4 5 6 
#
# 1 0.040941 -0.033289 -0.002310 0.000000 0.000000 0.000000
# 2 -0.033289 0.040942 -0.002310 0.000000 0.000000 0.000000
# 3 -0.002310 -0.002310 0.008382 0.000000 0.000000 0.000000
# 4 0.000000 0.000000 0.000000 0.621670 0.000000 0.000000
# 5 0.000000 0.000000 0.000000 0.000000 0.618798 0.000000
# 6 0.000000 0.000000 0.000000 0.000000 0.000000 0.036226
#
#
# Mechanical properties :
#
#
# Convention : Reuss Voigt Hill
#
# Bulk Modulus (GPa) = 69.22558 69.94414 69.58486
# Shear Modulus (GPa) = 3.45401 16.51947 9.98674
#
# Velocity S-wave (km/s) = 1.30896 2.86261 2.22575
# Velocity P-wave (km/s) = 6.05178 6.75440 6.41272
#
# Compressibility (1/GPa) = 0.01444553
#
# Stress axis : x y z
#
# Youngs Moduli (GPa) = 24.42535 24.42502 119.30855
#
# Poissons Ratio (x) = 0.81310 0.27562
# Poissons Ratio (y) = 0.81311 0.27558
# Poissons Ratio (z) = 0.05643 0.05642
#
# Static dielectric constant tensor:
#      x y z
#    x 1.700230 0.000000 0.000000 
#    y 0.000000 1.700230 0.000000 
#    z 0.000000 0.000000 1.807370 
# 
# From -- ./inp_files/729.got.cif
#   From: 2010.05.17/outbox.cif.g08.bks.cpg/sg121_1_cif.got.tgz:729.got - 2010.05.20 11:32:06.
