data_PCOD9560511
_publ_section_title
;
Structure prediction by ZEFSAII (Michael W. Deem and Ramdas Pophale) SiO2 
 PCOD9560511
Probable space group: I -4 2 M
;
_chemical_formula_sum "Si O2"
_cell_formula_units_Z 48
_cell_length_a 20.096211
_cell_length_b 20.096211
_cell_length_c 5.016598
_cell_angle_alpha 90.000000
_cell_angle_beta 90.000000
_cell_angle_gamma 90.000000
_cell_volume 2025.991713
_symmetry_space_group_name_H-M "I -4 2 M"
_symmetry_group_IT_number 121
_symmetry_cell_setting 'tetragonal'
loop_
_space_group_symop_operation_xyz
x,y,z
y,-x,-z
-x,-y,z
-y,x,-z
x,-y,-z
-x,y,-z
-y,-x,z
y,x,z
1/2+x,1/2+y,1/2+z
1/2+y,1/2-x,1/2-z
1/2-x,1/2-y,1/2+z
1/2-y,1/2+x,1/2-z
1/2+x,1/2-y,1/2-z
1/2-x,1/2+y,1/2-z
1/2-y,1/2-x,1/2+z
1/2+y,1/2+x,1/2+z
loop_
_atom_site_type_symbol
_atom_site_label
_atom_site_fract_x
_atom_site_fract_y
_atom_site_fract_z
Si Si1 0.500000 0.219987 0.000000
Si Si2 0.848557 0.044407 0.261428
Si Si3 0.281590 0.281590 0.758361
Si Si4 0.319904 0.885135 0.839563
O O1 0.451447 0.271231 0.156382
O O2 0.458826 0.180806 0.779196
O O3 0.886650 0.113351 0.238646
O O4 0.878946 0.000000 0.500000
O O5 0.854009 0.000000 0.000000
O O6 0.263953 0.263953 0.061969
O O7 0.354775 0.254919 0.693666
O O8 0.345151 0.867445 0.132287
#
# Coordination Sequence:
#
# PCOD9560511 Si02
#       4
#     8  16   8  16
#     4  10  26  40  65  91 126 160 212 256 314 370
#     4  10  23  39  59  88 125 168 210 248 295 363
#     4   8  16  34  54  84 111 146 191 244 306 358
#     4  10  22  38  62  88 120 158 200 256 313 367
#
# _framework density 23.692098000000001
#
# number of rings (size 3 to 8) (size 9 to 14) (size 15 to 20)
#    1.000    1.333    0.000    1.000    7.000    2.000 
#    0.000    0.000    0.000    3.000    0.000    0.000 
#    0.000    0.000    0.000    0.000    0.000    0.000 
#
# Total GULP energy -134134.133129 kJ/mol
# GULP energy per Si atom -5588.922214 kJ/mol
# Density = 2.363817 g / cm^3
# Si number density = 23.692098 Si / 1000 Ang^3
#
#
#
# Elastic Constant Matrix: (Units=GPa)
#
#
# Indices 1 2 3 4 5 6 
#
# 1 72.4672 23.6204 13.8403 0.0000 0.0000 0.0000
# 2 23.6204 72.4662 13.8398 0.0000 0.0000 0.0000
# 3 13.8403 13.8398 137.7996 0.0000 0.0000 0.0000
# 4 0.0000 0.0000 0.0000 4.9184 0.0000 0.0000
# 5 0.0000 0.0000 0.0000 0.0000 4.9825 0.0000
# 6 0.0000 0.0000 0.0000 0.0000 0.0000 20.9097
#
#
#
# Elastic Compliance Matrix: (Units=1/GPa)
#
#
# Indices 1 2 3 4 5 6 
#
# 1 0.015595 -0.004878 -0.001076 0.000000 0.000000 0.000000
# 2 -0.004878 0.015595 -0.001076 0.000000 0.000000 0.000000
# 3 -0.001076 -0.001076 0.007473 0.000000 0.000000 0.000000
# 4 0.000000 0.000000 0.000000 0.203316 0.000000 0.000000
# 5 0.000000 0.000000 0.000000 0.000000 0.200703 0.000000
# 6 0.000000 0.000000 0.000000 0.000000 0.000000 0.047825
#
#
# Mechanical properties :
#
#
# Convention : Reuss Voigt Hill
#
# Bulk Modulus (GPa) = 40.64689 42.81489 41.73089
# Shear Modulus (GPa) = 9.75100 21.59096 15.67098
#
# Velocity S-wave (km/s) = 2.03092 3.02207 2.57464
# Velocity P-wave (km/s) = 4.76373 5.50344 5.14689
#
# Compressibility (1/GPa) = 0.02460213
#
# Stress axis : x y z
#
# Youngs Moduli (GPa) = 64.12413 64.12331 133.81264
#
# Poissons Ratio (x) = 0.31276 0.14404
# Poissons Ratio (y) = 0.31277 0.14403
# Poissons Ratio (z) = 0.06903 0.06902
#
# Static dielectric constant tensor:
#      x y z
#    x 1.924790 0.000000 0.000000 
#    y 0.000000 1.924750 0.000000 
#    z 0.000000 0.000000 1.913000 
# 
# From -- ./inp_files/319.got.cif
#   From: 2010.05.17/outbox.cif.g08.bks.cpg/sg121_1_cif.got.tgz:319.got - 2010.05.20 11:32:06.
