data_PCOD9560515
_publ_section_title
;
Structure prediction by ZEFSAII (Michael W. Deem and Ramdas Pophale) SiO2 
 PCOD9560515
Probable space group: I -4 2 M
;
_chemical_formula_sum "Si O2"
_cell_formula_units_Z 88
_cell_length_a 17.126382
_cell_length_b 17.126382
_cell_length_c 16.338810
_cell_angle_alpha 90.000000
_cell_angle_beta 90.000000
_cell_angle_gamma 90.000000
_cell_volume 4792.384731
_symmetry_space_group_name_H-M "I -4 2 M"
_symmetry_group_IT_number 121
_symmetry_cell_setting 'tetragonal'
loop_
_space_group_symop_operation_xyz
x,y,z
y,-x,-z
-x,-y,z
-y,x,-z
x,-y,-z
-x,y,-z
-y,-x,z
y,x,z
1/2+x,1/2+y,1/2+z
1/2+y,1/2-x,1/2-z
1/2-x,1/2-y,1/2+z
1/2-y,1/2+x,1/2-z
1/2+x,1/2-y,1/2-z
1/2-x,1/2+y,1/2-z
1/2-y,1/2-x,1/2+z
1/2+y,1/2+x,1/2+z
loop_
_atom_site_type_symbol
_atom_site_label
_atom_site_fract_x
_atom_site_fract_y
_atom_site_fract_z
Si Si1 0.259855 0.389759 0.239390
Si Si2 0.493103 0.785280 0.909278
Si Si3 0.139116 0.266447 0.294092
Si Si4 0.628543 0.500000 0.500000
Si Si5 0.041222 0.424809 0.088583
Si Si6 0.531311 0.255199 0.354890
O O1 0.326601 0.326601 0.235132
O O2 0.257429 0.437727 0.155500
O O3 0.180331 0.343698 0.259089
O O4 0.271579 0.448416 0.313617
O O5 0.577269 0.787953 0.864645
O O6 0.452722 0.869813 0.919735
O O7 0.500000 0.750499 0.000000
O O8 0.205750 0.205750 0.322543
O O9 0.094025 0.230106 0.216463
O O10 0.569871 0.430130 0.528225
O O11 0.686836 0.535590 0.568437
O O12 0.035611 0.337881 0.125385
O O13 0.000000 0.500000 0.131943
O O14 0.000000 0.418465 0.000000
#
# Coordination Sequence:
#
# PCOD9560515 Si02
#       6
#    16  16  16   8  16  16
#     4  10  22  39  58  87 123 159 205 253 304 367
#     4  11  22  38  60  89 118 161 206 251 302 363
#     4  10  22  40  60  86 123 164 206 248 308 372
#     4  11  24  40  61  90 122 164 219 266 312 377
#     4  11  20  34  57  88 126 151 195 242 303 379
#     4  11  21  38  61  89 121 165 203 254 315 370
#
# _framework density 18.362465
#
# number of rings (size 3 to 8) (size 9 to 14) (size 15 to 20)
#    0.000    1.364    4.545    2.182    0.000    0.727 
#    0.000    0.000    0.000    4.909    0.000    5.091 
#    0.000    0.000    0.000    0.000    0.000    0.000 
#
# Total GULP energy -245304.920577 kJ/mol
# GULP energy per Si atom -5575.111831 kJ/mol
# Density = 1.832067 g / cm^3
# Si number density = 18.362465 Si / 1000 Ang^3
#
#
#
# Elastic Constant Matrix: (Units=GPa)
#
#
# Indices 1 2 3 4 5 6 
#
# 1 66.9620 14.1645 25.9990 0.0000 0.0000 0.0000
# 2 14.1645 66.9614 25.9983 0.0000 0.0000 0.0000
# 3 25.9990 25.9983 85.1707 0.0000 0.0000 0.0000
# 4 0.0000 0.0000 0.0000 15.7211 0.0000 0.0000
# 5 0.0000 0.0000 0.0000 0.0000 15.7209 0.0000
# 6 0.0000 0.0000 0.0000 0.0000 0.0000 0.6318
#
#
#
# Elastic Compliance Matrix: (Units=1/GPa)
#
#
# Indices 1 2 3 4 5 6 
#
# 1 0.017133 -0.001808 -0.004678 0.000000 0.000000 0.000000
# 2 -0.001808 0.017133 -0.004678 0.000000 0.000000 0.000000
# 3 -0.004678 -0.004678 0.014597 0.000000 0.000000 0.000000
# 4 0.000000 0.000000 0.000000 0.063609 0.000000 0.000000
# 5 0.000000 0.000000 0.000000 0.000000 0.063609 0.000000
# 6 0.000000 0.000000 0.000000 0.000000 0.000000 1.582872
#
#
# Mechanical properties :
#
#
# Convention : Reuss Voigt Hill
#
# Bulk Modulus (GPa) = 37.68633 39.04641 38.36637
# Shear Modulus (GPa) = 2.79310 16.61025 9.70167
#
# Velocity S-wave (km/s) = 1.23466 3.01088 2.30106
# Velocity P-wave (km/s) = 4.75401 5.77907 5.29142
#
# Compressibility (1/GPa) = 0.02653482
#
# Stress axis : x y z
#
# Youngs Moduli (GPa) = 58.36837 58.36819 68.50699
#
# Poissons Ratio (x) = 0.10552 0.32048
# Poissons Ratio (y) = 0.10552 0.32047
# Poissons Ratio (z) = 0.27305 0.27304
#
# Static dielectric constant tensor:
#      x y z
#    x 1.636740 0.000000 0.000000 
#    y 0.000000 1.636740 0.000000 
#    z 0.000000 0.000000 1.637750 
# 
# From -- ./inp_files/4406.got.cif
#   From: 2010.05.17/outbox.cif.g08.bks.cpg/sg121_3_cif.got.tgz:4406.got - 2010.05.20 11:32:06.
