data_PCOD9560597
_publ_section_title
;
Structure prediction by ZEFSAII (Michael W. Deem and Ramdas Pophale) SiO2 
 PCOD9560597
Probable space group: I -4 2 M
;
_chemical_formula_sum "Si O2"
_cell_formula_units_Z 88
_cell_length_a 17.733532
_cell_length_b 17.733532
_cell_length_c 16.390148
_cell_angle_alpha 90.000000
_cell_angle_beta 90.000000
_cell_angle_gamma 90.000000
_cell_volume 5154.343539
_symmetry_space_group_name_H-M "I -4 2 M"
_symmetry_group_IT_number 121
_symmetry_cell_setting 'tetragonal'
loop_
_space_group_symop_operation_xyz
x,y,z
y,-x,-z
-x,-y,z
-y,x,-z
x,-y,-z
-x,y,-z
-y,-x,z
y,x,z
1/2+x,1/2+y,1/2+z
1/2+y,1/2-x,1/2-z
1/2-x,1/2-y,1/2+z
1/2-y,1/2+x,1/2-z
1/2+x,1/2-y,1/2-z
1/2-x,1/2+y,1/2-z
1/2-y,1/2-x,1/2+z
1/2+y,1/2+x,1/2+z
loop_
_atom_site_type_symbol
_atom_site_label
_atom_site_fract_x
_atom_site_fract_y
_atom_site_fract_z
Si Si1 0.038939 0.757411 0.633269
Si Si2 0.287640 0.584374 0.477425
Si Si3 0.624094 0.751188 0.700224
Si Si4 0.620394 0.500000 0.000000
Si Si5 0.138220 0.261123 0.646672
Si Si6 0.822723 0.700470 0.458570
O O1 0.073986 0.767172 0.722269
O O2 0.097993 0.701186 0.588370
O O3 0.034387 0.828385 0.571471
O O4 0.951526 0.738314 0.646571
O O5 0.308334 0.500000 0.500000
O O6 0.358619 0.641382 0.478037
O O7 0.253590 0.582168 0.386098
O O8 0.225642 0.623839 0.536494
O O9 0.688290 0.688290 0.695113
O O10 0.672108 0.828348 0.702614
O O11 0.566325 0.433676 0.967694
O O12 0.182790 0.182790 0.666956
O O13 0.161333 0.279515 0.553212
O O14 0.767707 0.767707 0.425931
#
# Coordination Sequence:
#
# PCOD9560597 Si02
#       6
#    16  16  16   8  16  16
#     4  12  19  31  57  82 111 145 185 227 286 339
#     4   9  19  37  58  78 104 140 187 238 280 325
#     4   9  20  35  51  74 107 143 184 230 273 324
#     4  11  22  32  48  84 127 156 180 222 291 374
#     4   9  18  34  52  74 104 142 186 227 270 332
#     4   9  17  31  53  78 105 140 179 216 265 344
#
# _framework density 17.072980000000001
#
# number of rings (size 3 to 8) (size 9 to 14) (size 15 to 20)
#    0.000    2.273    1.818    4.364    0.000    1.636 
#    0.000    3.636    0.000   15.818    0.000    0.000 
#    0.000    0.000    0.000    0.000    0.000    0.000 
#
# Total GULP energy -244970.771513 kJ/mol
# GULP energy per Si atom -5567.517534 kJ/mol
# Density = 1.703412 g / cm^3
# Si number density = 17.072980 Si / 1000 Ang^3
#
#
#
# Elastic Constant Matrix: (Units=GPa)
#
#
# Indices 1 2 3 4 5 6 
#
# 1 91.1509 39.2332 28.8516 0.0000 0.0000 0.0000
# 2 39.2332 91.1510 28.8515 0.0000 0.0000 0.0000
# 3 28.8516 28.8515 52.9651 0.0000 0.0000 0.0000
# 4 0.0000 0.0000 0.0000 8.9778 0.0000 0.0000
# 5 0.0000 0.0000 0.0000 0.0000 8.9775 0.0000
# 6 0.0000 0.0000 0.0000 0.0000 0.0000 12.1929
#
#
#
# Elastic Compliance Matrix: (Units=1/GPa)
#
#
# Indices 1 2 3 4 5 6 
#
# 1 0.014684 -0.004578 -0.005505 0.000000 0.000000 0.000000
# 2 -0.004578 0.014684 -0.005505 0.000000 0.000000 0.000000
# 3 -0.005505 -0.005505 0.024878 0.000000 0.000000 0.000000
# 4 0.000000 0.000000 0.000000 0.111386 0.000000 0.000000
# 5 0.000000 0.000000 0.000000 0.000000 0.111389 0.000000
# 6 0.000000 0.000000 0.000000 0.000000 0.000000 0.082015
#
#
# Mechanical properties :
#
#
# Convention : Reuss Voigt Hill
#
# Bulk Modulus (GPa) = 43.34680 47.68216 45.51448
# Shear Modulus (GPa) = 12.56595 15.25168 13.90882
#
# Velocity S-wave (km/s) = 2.71590 2.99209 2.85734
# Velocity P-wave (km/s) = 5.93962 6.31869 6.13209
#
# Compressibility (1/GPa) = 0.02306975
#
# Stress axis : x y z
#
# Youngs Moduli (GPa) = 68.10312 68.10333 40.19648
#
# Poissons Ratio (x) = 0.31175 0.22128
# Poissons Ratio (y) = 0.31175 0.22128
# Poissons Ratio (z) = 0.37491 0.37491
#
# Static dielectric constant tensor:
#      x y z
#    x 1.599470 0.000000 0.000000 
#    y 0.000000 1.599470 0.000000 
#    z 0.000000 0.000000 1.595200 
# 
# From -- ./inp_files/4390.got.cif
#   From: 2010.05.17/outbox.cif.g08.bks.cpg/sg121_3_cif.got.tgz:4390.got - 2010.05.20 11:32:06.
