data_PCOD9560860
_publ_section_title
;
Structure prediction by ZEFSAII (Michael W. Deem and Ramdas Pophale) SiO2 
 PCOD9560860
Probable space group: I -4 2 D
;
_chemical_formula_sum "Si O2"
_cell_formula_units_Z 88
_cell_length_a 12.060735
_cell_length_b 12.060735
_cell_length_c 33.310171
_cell_angle_alpha 90.000000
_cell_angle_beta 90.000000
_cell_angle_gamma 90.000000
_cell_volume 4845.341734
_symmetry_space_group_name_H-M "I -4 2 D"
_symmetry_group_IT_number 122
_symmetry_cell_setting 'tetragonal'
loop_
_space_group_symop_operation_xyz
x,y,z
y,-x,-z
-x,-y,z
-y,x,-z
x,1/2-y,1/4-z
-x,1/2+y,1/4-z
-y,1/2-x,1/4+z
y,1/2+x,1/4+z
1/2+x,1/2+y,1/2+z
1/2+y,1/2-x,1/2-z
1/2-x,1/2-y,1/2+z
1/2-y,1/2+x,1/2-z
1/2+x,-y,3/4-z
1/2-x,y,3/4-z
1/2-y,-x,3/4+z
1/2+y,x,3/4+z
loop_
_atom_site_type_symbol
_atom_site_label
_atom_site_fract_x
_atom_site_fract_y
_atom_site_fract_z
Si Si1 0.651703 0.750000 0.125000
Si Si2 0.200027 0.109859 0.754416
Si Si3 0.597607 0.151005 0.597712
Si Si4 0.844177 0.904644 0.160639
Si Si5 0.129025 0.993201 0.307535
Si Si6 0.640703 0.812775 0.499847
O O1 0.737855 0.840015 0.143552
O O2 0.570510 0.699024 0.158798
O O3 0.184503 0.111098 0.801752
O O4 0.086079 0.129204 0.731262
O O5 0.282566 0.207344 0.743344
O O6 0.231483 0.984189 0.743665
O O7 0.640448 0.250000 0.625000
O O8 0.465132 0.135306 0.605220
O O9 0.658160 0.033338 0.601655
O O10 0.852531 0.884563 0.208881
O O11 0.167751 0.111106 0.289023
O O12 0.000000 0.000000 0.320719
#
# Coordination Sequence:
#
# PCOD9560860 Si02
#       6
#     8  16  16  16  16  16
#     4  12  22  40  68  92 122 174 220 272 314 382
#     4  10  20  37  64  87 122 166 202 253 320 385
#     4  10  20  36  58  95 126 163 205 260 314 383
#     4  10  20  37  64  87 125 167 210 249 324 388
#     4  10  22  41  63  89 126 168 212 264 315 375
#     4  10  20  40  62  89 122 167 212 250 318 393
#
# _framework density 18.161773
#
# number of rings (size 3 to 8) (size 9 to 14) (size 15 to 20)
#    0.000    1.818    4.545    0.000    0.000    3.273 
#    4.909    0.000    0.000    0.000    0.000    0.000 
#    0.000    0.000    0.000    0.000    0.000    0.000 
#
# Total GULP energy -245211.630419 kJ/mol
# GULP energy per Si atom -5572.991600 kJ/mol
# Density = 1.812044 g / cm^3
# Si number density = 18.161773 Si / 1000 Ang^3
#
#
#
# Elastic Constant Matrix: (Units=GPa)
#
#
# Indices 1 2 3 4 5 6 
#
# 1 87.2722 80.5902 35.7622 0.0000 0.0000 0.0000
# 2 80.5902 87.2722 35.7622 0.0000 0.0000 0.0000
# 3 35.7622 35.7622 69.3704 0.0000 0.0000 0.0000
# 4 0.0000 0.0000 0.0000 16.2116 0.0000 0.0000
# 5 0.0000 0.0000 0.0000 0.0000 16.2116 0.0000
# 6 0.0000 0.0000 0.0000 0.0000 0.0000 35.1138
#
#
#
# Elastic Compliance Matrix: (Units=1/GPa)
#
#
# Indices 1 2 3 4 5 6 
#
# 1 0.078645 -0.071010 -0.003936 0.000000 0.000000 0.000000
# 2 -0.071010 0.078645 -0.003936 0.000000 0.000000 0.000000
# 3 -0.003936 -0.003936 0.018473 0.000000 0.000000 0.000000
# 4 0.000000 0.000000 0.000000 0.061684 0.000000 0.000000
# 5 0.000000 0.000000 0.000000 0.000000 0.061684 0.000000
# 6 0.000000 0.000000 0.000000 0.000000 0.000000 0.028479
#
#
# Mechanical properties :
#
#
# Convention : Reuss Voigt Hill
#
# Bulk Modulus (GPa) = 55.55832 60.90487 58.23160
# Shear Modulus (GPa) = 10.17558 19.62741 14.90150
#
# Velocity S-wave (km/s) = 2.36958 3.29097 2.86752
# Velocity P-wave (km/s) = 6.17606 6.93167 6.56475
#
# Compressibility (1/GPa) = 0.01799910
#
# Stress axis : x y z
#
# Youngs Moduli (GPa) = 12.71544 12.71544 54.13252
#
# Poissons Ratio (x) = 0.90293 0.21304
# Poissons Ratio (y) = 0.90293 0.21304
# Poissons Ratio (z) = 0.05004 0.05004
#
# Static dielectric constant tensor:
#      x y z
#    x 1.638690 0.000000 0.000000 
#    y 0.000000 1.638690 0.000000 
#    z 0.000000 0.000000 1.619040 
# 
# From -- ./inp_files/9517.got.cif
#   From: 2010.05.17/outbox.cif.g08.bks.cpg/sg122_5_cif.got.tgz:9517.got - 2010.05.20 11:37:33.
