data_PCOD9560602
_publ_section_title
;
Structure prediction by ZEFSAII (Michael W. Deem and Ramdas Pophale) SiO2 
 PCOD9560602
Probable space group: I -4 2 M
;
_chemical_formula_sum "Si O2"
_cell_formula_units_Z 116
_cell_length_a 17.767728
_cell_length_b 17.767728
_cell_length_c 18.022610
_cell_angle_alpha 90.000000
_cell_angle_beta 90.000000
_cell_angle_gamma 90.000000
_cell_volume 5689.596649
_symmetry_space_group_name_H-M "I -4 2 M"
_symmetry_group_IT_number 121
_symmetry_cell_setting 'tetragonal'
loop_
_space_group_symop_operation_xyz
x,y,z
y,-x,-z
-x,-y,z
-y,x,-z
x,-y,-z
-x,y,-z
-y,-x,z
y,x,z
1/2+x,1/2+y,1/2+z
1/2+y,1/2-x,1/2-z
1/2-x,1/2-y,1/2+z
1/2-y,1/2+x,1/2-z
1/2+x,1/2-y,1/2-z
1/2-x,1/2+y,1/2-z
1/2-y,1/2-x,1/2+z
1/2+y,1/2+x,1/2+z
loop_
_atom_site_type_symbol
_atom_site_label
_atom_site_fract_x
_atom_site_fract_y
_atom_site_fract_z
Si Si1 0.500000 0.500000 0.273692
Si Si2 0.673444 0.492944 0.229854
Si Si3 0.196095 0.381340 0.748157
Si Si4 0.342679 0.078080 0.957132
Si Si5 0.325294 0.553229 0.931825
Si Si6 0.256853 0.620964 0.673364
Si Si7 0.670964 0.870700 0.598792
Si Si8 0.086866 0.520016 0.156805
O O1 0.593225 0.498693 0.269111
O O2 0.722789 0.418040 0.239995
O O3 0.659721 0.505986 0.142615
O O4 0.725017 0.559694 0.263768
O O5 0.175731 0.309520 0.798263
O O6 0.185030 0.353687 0.664254
O O7 0.133787 0.444225 0.774324
O O8 0.273309 0.081902 0.900732
O O9 0.416371 0.086478 0.906505
O O10 0.342577 0.141379 0.019888
O O11 0.345591 0.000000 0.000000
O O12 0.398897 0.601104 0.951796
O O13 0.258199 0.609773 0.910086
O O14 0.302714 0.500000 0.000000
O O15 0.330139 0.669862 0.659371
O O16 0.630066 0.948354 0.623556
O O17 0.000000 0.500000 0.171298
#
# Coordination Sequence:
#
# PCOD9560602 Si02
#       8
#     4  16  16  16  16  16  16  16
#     4  12  28  48  85 100 133 188 264 322 368 424
#     4  12  25  50  73 109 138 190 250 307 368 441
#     4  11  25  41  70 106 144 186 238 297 363 446
#     4  11  23  39  63  97 136 185 231 283 347 428
#     4  12  27  46  71 100 153 197 247 306 373 445
#     4  11  24  47  72  96 140 181 233 302 369 422
#     4  12  24  41  65 105 149 191 236 295 359 444
#     4  11  22  35  62 101 148 194 234 277 344 451
#
# _framework density 20.388089000000001
#
# number of rings (size 3 to 8) (size 9 to 14) (size 15 to 20)
#    0.000    0.552    5.517    2.069    7.724    0.690 
#    0.000    0.000    4.552    0.000    0.000    0.966 
#    0.000    0.000    0.000    0.000    0.000    0.000 
#
# Total GULP energy -323946.781937 kJ/mol
# GULP energy per Si atom -5585.289344 kJ/mol
# Density = 2.034168 g / cm^3
# Si number density = 20.388089 Si / 1000 Ang^3
#
#
#
# Elastic Constant Matrix: (Units=GPa)
#
#
# Indices 1 2 3 4 5 6 
#
# 1 93.6738 0.7555 6.6006 0.0000 0.0000 0.0000
# 2 0.7555 93.6779 6.6023 0.0000 0.0000 0.0000
# 3 6.6006 6.6023 81.8482 0.0000 0.0000 0.0000
# 4 0.0000 0.0000 0.0000 0.9949 0.0000 0.0000
# 5 0.0000 0.0000 0.0000 0.0000 0.9915 0.0000
# 6 0.0000 0.0000 0.0000 0.0000 0.0000 38.8423
#
#
#
# Elastic Compliance Matrix: (Units=1/GPa)
#
#
# Indices 1 2 3 4 5 6 
#
# 1 0.010736 -0.000026 -0.000864 0.000000 0.000000 0.000000
# 2 -0.000026 0.010736 -0.000864 0.000000 0.000000 0.000000
# 3 -0.000864 -0.000864 0.012357 0.000000 0.000000 0.000000
# 4 0.000000 0.000000 0.000000 1.005091 0.000000 0.000000
# 5 0.000000 0.000000 0.000000 0.000000 1.008597 0.000000
# 6 0.000000 0.000000 0.000000 0.000000 0.000000 0.025745
#
#
# Mechanical properties :
#
#
# Convention : Reuss Voigt Hill
#
# Bulk Modulus (GPa) = 32.97863 33.01294 32.99578
# Shear Modulus (GPa) = 2.39592 25.18185 13.78889
#
# Velocity S-wave (km/s) = 1.08522 3.51825 2.60344
# Velocity P-wave (km/s) = 4.21673 5.72115 5.02555
#
# Compressibility (1/GPa) = 0.03032267
#
# Stress axis : x y z
#
# Youngs Moduli (GPa) = 93.14096 93.14476 80.92521
#
# Poissons Ratio (x) = 0.00239 0.06990
# Poissons Ratio (y) = 0.00239 0.06992
# Poissons Ratio (z) = 0.08045 0.08047
#
# Static dielectric constant tensor:
#      x y z
#    x 1.735260 0.000000 0.000000 
#    y 0.000000 1.735250 0.000000 
#    z 0.000000 0.000000 1.721840 
# 
# From -- ./inp_files/5515.got.cif
#   From: 2010.05.17/outbox.cif.g08.bks.cpg/sg121_3_cif.got.tgz:5515.got - 2010.05.20 11:32:06.
