data_PCOD9560101
_publ_section_title
;
Structure prediction by ZEFSAII (Michael W. Deem and Ramdas Pophale) SiO2 
 PCOD9560101
Probable space group: I -4 2 M
;
_chemical_formula_sum "Si O2"
_cell_formula_units_Z 96
_cell_length_a 23.472032
_cell_length_b 23.472032
_cell_length_c 7.654050
_cell_angle_alpha 90.000000
_cell_angle_beta 90.000000
_cell_angle_gamma 90.000000
_cell_volume 4216.893881
_symmetry_space_group_name_H-M "I -4 2 M"
_symmetry_group_IT_number 121
_symmetry_cell_setting 'tetragonal'
loop_
_space_group_symop_operation_xyz
x,y,z
y,-x,-z
-x,-y,z
-y,x,-z
x,-y,-z
-x,y,-z
-y,-x,z
y,x,z
1/2+x,1/2+y,1/2+z
1/2+y,1/2-x,1/2-z
1/2-x,1/2-y,1/2+z
1/2-y,1/2+x,1/2-z
1/2+x,1/2-y,1/2-z
1/2-x,1/2+y,1/2-z
1/2-y,1/2-x,1/2+z
1/2+y,1/2+x,1/2+z
loop_
_atom_site_type_symbol
_atom_site_label
_atom_site_fract_x
_atom_site_fract_y
_atom_site_fract_z
Si Si1 0.660996 0.783493 0.938749
Si Si2 0.026035 0.222740 0.735053
Si Si3 0.890099 0.589459 0.919119
Si Si4 0.736391 0.353955 0.671093
Si Si5 0.087004 0.819630 0.627103
Si Si6 0.644876 0.981956 0.751584
O O1 0.624637 0.835270 0.863644
O O2 0.723597 0.811350 0.937998
O O3 0.636561 0.727755 0.840256
O O4 0.649718 0.766713 0.139290
O O5 0.079172 0.228773 0.869488
O O6 0.057848 0.198148 0.560236
O O7 0.005197 0.288654 0.722598
O O8 0.968019 0.186542 0.753738
O O9 0.945277 0.629203 0.920975
O O10 0.894857 0.534748 0.795171
O O11 0.871383 0.563971 0.103160
O O12 0.674980 0.325021 0.683498
O O13 0.120161 0.879840 0.623204
#
# Coordination Sequence:
#
# PCOD9560101 Si02
#       6
#    16  16  16  16  16  16
#     4  11  18  33  52  77 105 137 177 224 272 321
#     4  10  17  32  51  72 107 141 169 219 273 329
#     4  11  20  36  54  76 100 145 183 227 260 316
#     4  11  21  32  52  80 109 141 175 219 276 333
#     4  10  18  30  52  78 102 137 183 222 270 333
#     4  11  21  36  56  73 108 142 185 222 269 313
#
# _framework density 22.765574000000001
#
# number of rings (size 3 to 8) (size 9 to 14) (size 15 to 20)
#    0.000    1.333    6.667    4.000    0.000    1.000 
#    0.000    1.667    0.000    9.500    0.000    0.000 
#    0.000    0.000    0.000    0.000    0.000   73.333 
#
# Total GULP energy -267492.000489 kJ/mol
# GULP energy per Si atom -5572.750010 kJ/mol
# Density = 2.271376 g / cm^3
# Si number density = 22.765574 Si / 1000 Ang^3
#
#
#
# Elastic Constant Matrix: (Units=GPa)
#
#
# Indices 1 2 3 4 5 6 
#
# 1 113.5776 83.8759 0.3864 0.0000 0.0000 0.0000
# 2 83.8759 113.5645 0.3855 0.0000 0.0000 0.0000
# 3 0.3864 0.3855 25.7806 0.0000 0.0000 0.0000
# 4 0.0000 0.0000 0.0000 10.1393 0.0000 0.0000
# 5 0.0000 0.0000 0.0000 0.0000 10.1308 0.0000
# 6 0.0000 0.0000 0.0000 0.0000 0.0000 38.1162
#
#
#
# Elastic Compliance Matrix: (Units=1/GPa)
#
#
# Indices 1 2 3 4 5 6 
#
# 1 0.019369 -0.014305 -0.000076 0.000000 0.000000 0.000000
# 2 -0.014305 0.019371 -0.000075 0.000000 0.000000 0.000000
# 3 -0.000076 -0.000075 0.038791 0.000000 0.000000 0.000000
# 4 0.000000 0.000000 0.000000 0.098626 0.000000 0.000000
# 5 0.000000 0.000000 0.000000 0.000000 0.098709 0.000000
# 6 0.000000 0.000000 0.000000 0.000000 0.000000 0.026236
#
#
# Mechanical properties :
#
#
# Convention : Reuss Voigt Hill
#
# Bulk Modulus (GPa) = 20.56867 46.91315 33.74091
# Shear Modulus (GPa) = 14.44163 22.89560 18.66862
#
# Velocity S-wave (km/s) = 2.52139 3.17474 2.86674
# Velocity P-wave (km/s) = 4.18702 5.83870 5.08043
#
# Compressibility (1/GPa) = 0.04861764
#
# Stress axis : x y z
#
# Youngs Moduli (GPa) = 51.62863 51.62270 25.77914
#
# Poissons Ratio (x) = 0.73848 0.00197
# Poissons Ratio (y) = 0.73856 0.00194
# Poissons Ratio (z) = 0.00395 0.00388
#
# Static dielectric constant tensor:
#      x y z
#    x 1.871150 0.000000 0.000000 
#    y 0.000000 1.871160 0.000000 
#    z 0.000000 0.000000 2.084150 
# 
# From -- ./inp_files/1948.got.cif
#   From: 2010.05.17/outbox.cif.g08.bks.cpg/sg121_1_cif.got.tgz:1948.got - 2010.05.20 11:32:06.
