data_PCOD9560056
_publ_section_title
;
Structure prediction by ZEFSAII (Michael W. Deem and Ramdas Pophale) SiO2 
 PCOD9560056
Probable space group: I -4 C 2
;
_chemical_formula_sum "Si O2"
_cell_formula_units_Z 72
_cell_length_a 14.359966
_cell_length_b 14.359966
_cell_length_c 17.541346
_cell_angle_alpha 90.000000
_cell_angle_beta 90.000000
_cell_angle_gamma 90.000000
_cell_volume 3617.176813
_symmetry_space_group_name_H-M "I -4 C 2"
_symmetry_group_IT_number 120
_symmetry_cell_setting 'tetragonal'
loop_
_space_group_symop_operation_xyz
x,y,z
y,-x,-z
-x,-y,z
-y,x,-z
y,x,1/2-z
-y,-x,1/2-z
-x,y,1/2+z
x,-y,1/2+z
1/2+x,1/2+y,1/2+z
1/2+y,1/2-x,1/2-z
1/2-x,1/2-y,1/2+z
1/2-y,1/2+x,1/2-z
1/2+y,1/2+x,-z
1/2-y,1/2-x,-z
1/2-x,1/2+y,z
1/2+x,1/2-y,z
loop_
_atom_site_type_symbol
_atom_site_label
_atom_site_fract_x
_atom_site_fract_y
_atom_site_fract_z
Si Si1 0.781709 0.768534 0.586912
Si Si2 0.669969 0.533297 0.077745
Si Si3 0.841933 0.874968 0.337183
Si Si4 0.000000 0.000000 0.000000
Si Si5 0.500000 0.000000 0.000000
Si Si6 0.294216 0.989752 0.432580
O O1 0.738686 0.761315 0.500000
O O2 0.790170 0.874541 0.616176
O O3 0.718867 0.711952 0.643900
O O4 0.881734 0.721300 0.583687
O O5 0.635735 0.439741 0.118239
O O6 0.570928 0.566677 0.043423
O O7 0.744991 0.510804 0.013340
O O8 0.874355 0.874355 0.250000
O O9 0.768128 0.951610 0.370521
O O10 0.405289 0.995660 0.947824
#
# Coordination Sequence:
#
# PCOD9560056 Si02
#       6
#    16  16  16   4   4  16
#     4  12  21  40  69  97 129 184 236 292 347 428
#     4  12  20  39  71  99 128 176 237 290 345 428
#     4  12  27  43  64 103 146 182 229 304 371 425
#     4  12  16  36  70 100 120 160 222 292 340 396
#     4  12  24  36  72 106 128 188 252 294 332 448
#     4  12  21  41  67  99 133 179 245 287 352 428
#
# _framework density 19.905027
#
# number of rings (size 3 to 8) (size 9 to 14) (size 15 to 20)
#    0.000    0.000   10.000    1.333    0.000    1.778 
#    0.000    3.889    0.000    1.333    0.000    0.000 
#    0.000    0.000    0.000    0.000    0.000    0.000 
#
# Total GULP energy -200514.503090 kJ/mol
# GULP energy per Si atom -5569.847308 kJ/mol
# Density = 1.985972 g / cm^3
# Si number density = 19.905027 Si / 1000 Ang^3
#
#
#
# Elastic Constant Matrix: (Units=GPa)
#
#
# Indices 1 2 3 4 5 6 
#
# 1 137.4924 26.1413 25.8614 0.0000 0.0000 0.0000
# 2 26.1413 137.4913 25.8613 0.0000 0.0000 0.0000
# 3 25.8614 25.8613 80.9224 0.0000 0.0000 0.0000
# 4 0.0000 0.0000 0.0000 13.6863 0.0000 0.0000
# 5 0.0000 0.0000 0.0000 0.0000 13.6864 0.0000
# 6 0.0000 0.0000 0.0000 0.0000 0.0000 -34.2258
#
#
#
# Elastic Compliance Matrix: (Units=1/GPa)
#
#
# Indices 1 2 3 4 5 6 
#
# 1 0.007889 -0.001091 -0.002172 0.000000 0.000000 0.000000
# 2 -0.001091 0.007889 -0.002172 0.000000 0.000000 0.000000
# 3 -0.002172 -0.002172 0.013746 0.000000 0.000000 0.000000
# 4 0.000000 0.000000 0.000000 0.073066 0.000000 0.000000
# 5 0.000000 0.000000 0.000000 0.000000 0.073065 0.000000
# 6 0.000000 0.000000 0.000000 0.000000 0.000000 -0.029218
#
#
# Mechanical properties :
#
#
# Convention : Reuss Voigt Hill
#
# Bulk Modulus (GPa) = 53.61361 56.84822 55.23092
# Shear Modulus (GPa) = 30.57586 17.16554 23.87070
#
# Velocity S-wave (km/s) = 3.92355 2.93980 3.46675
# Velocity P-wave (km/s) = 6.89339 6.33601 6.62057
#
# Compressibility (1/GPa) = 0.01865198
#
# Stress axis : x y z
#
# Youngs Moduli (GPa) = 126.75464 126.75364 72.74793
#
# Poissons Ratio (x) = 0.13833 0.15804
# Poissons Ratio (y) = 0.13833 0.15804
# Poissons Ratio (z) = 0.27537 0.27537
#
# Static dielectric constant tensor:
#      x y z
#    x 1.707080 0.000000 0.000000 
#    y 0.000000 1.707090 0.000000 
#    z 0.000000 0.000000 2.300670 
# 
# From -- ./inp_files/4296.got.cif
#   From: 2010.05.17/outbox.cif.g08.bks.cpg/sg120_3_cif.got.tgz:4296.got - 2010.05.20 11:28:13.
