data_PCOD9560960
_publ_section_title
;
Structure prediction by ZEFSAII (Michael W. Deem and Ramdas Pophale) SiO2 
 PCOD9560960
Probable space group: I -4 2 D
;
_chemical_formula_sum "Si O2"
_cell_formula_units_Z 108
_cell_length_a 15.092128
_cell_length_b 15.092128
_cell_length_c 21.531610
_cell_angle_alpha 90.000000
_cell_angle_beta 90.000000
_cell_angle_gamma 90.000000
_cell_volume 4904.304926
_symmetry_space_group_name_H-M "I -4 2 D"
_symmetry_group_IT_number 122
_symmetry_cell_setting 'tetragonal'
loop_
_space_group_symop_operation_xyz
x,y,z
y,-x,-z
-x,-y,z
-y,x,-z
x,1/2-y,1/4-z
-x,1/2+y,1/4-z
-y,1/2-x,1/4+z
y,1/2+x,1/4+z
1/2+x,1/2+y,1/2+z
1/2+y,1/2-x,1/2-z
1/2-x,1/2-y,1/2+z
1/2-y,1/2+x,1/2-z
1/2+x,-y,3/4-z
1/2-x,y,3/4-z
1/2-y,-x,3/4+z
1/2+y,x,3/4+z
loop_
_atom_site_type_symbol
_atom_site_label
_atom_site_fract_x
_atom_site_fract_y
_atom_site_fract_z
Si Si1 0.833647 0.561162 0.978048
Si Si2 0.937534 0.314040 0.066288
Si Si3 0.000000 0.500000 0.053860
Si Si4 0.000000 0.000000 0.000000
Si Si5 0.740348 0.381169 0.752351
Si Si6 0.647164 0.805592 0.371606
Si Si7 0.694087 0.054014 0.721917
Si Si8 0.798805 0.762235 0.194365
O O1 0.854467 0.606425 0.912849
O O2 0.766158 0.480391 0.973706
O O3 0.810119 0.641204 0.024883
O O4 0.918515 0.516735 0.008490
O O5 0.928391 0.250000 0.125000
O O6 0.845528 0.347916 0.037384
O O7 0.986040 0.405623 0.087294
O O8 0.992042 0.260462 0.012828
O O9 0.094945 0.983315 0.033672
O O10 0.816181 0.375162 0.700141
O O11 0.746389 0.305649 0.803424
O O12 0.750000 0.775605 0.375000
O O13 0.580302 0.737983 0.406279
O O14 0.696618 0.146205 0.760858
O O15 0.833698 0.750000 0.125000
#
# Coordination Sequence:
#
# PCOD9560960 Si02
#       8
#    16  16   8   4  16  16  16  16
#     4  10  23  41  70 103 132 186 237 294 358 429
#     4  11  23  39  67 101 140 184 232 283 347 433
#     4  10  20  43  62 100 141 181 245 286 348 424
#     4  12  28  38  60 112 152 180 242 276 356 434
#     4  11  24  41  73 101 132 185 246 287 363 426
#     4  11  21  45  74  93 139 189 240 295 361 437
#     4  11  24  42  63  99 146 190 230 285 351 433
#     4  11  23  46  66  97 145 186 232 300 357 426
#
# _framework density 22.021469
#
# number of rings (size 3 to 8) (size 9 to 14) (size 15 to 20)
#    0.000    1.185    5.926    1.778    2.074    3.556 
#    0.000    0.000    0.000    0.444    0.000    0.000 
#    0.000    0.000    0.000    0.000    0.000    0.000 
#
# Total GULP energy -301585.221258 kJ/mol
# GULP energy per Si atom -5584.911505 kJ/mol
# Density = 2.197135 g / cm^3
# Si number density = 22.021469 Si / 1000 Ang^3
#
#
#
# Elastic Constant Matrix: (Units=GPa)
#
#
# Indices 1 2 3 4 5 6 
#
# 1 122.4064 12.1403 16.6364 0.0000 0.0000 0.0000
# 2 12.1403 122.4064 16.6364 0.0000 0.0000 0.0000
# 3 16.6364 16.6364 73.9232 0.0000 0.0000 0.0000
# 4 0.0000 0.0000 0.0000 23.2844 0.0000 0.0000
# 5 0.0000 0.0000 0.0000 0.0000 23.2844 0.0000
# 6 0.0000 0.0000 0.0000 0.0000 0.0000 25.4440
#
#
#
# Elastic Compliance Matrix: (Units=1/GPa)
#
#
# Indices 1 2 3 4 5 6 
#
# 1 0.008470 -0.000599 -0.001771 0.000000 0.000000 0.000000
# 2 -0.000599 0.008470 -0.001771 0.000000 0.000000 0.000000
# 3 -0.001771 -0.001771 0.014325 0.000000 0.000000 0.000000
# 4 0.000000 0.000000 0.000000 0.042947 0.000000 0.000000
# 5 0.000000 0.000000 0.000000 0.000000 0.042947 0.000000
# 6 0.000000 0.000000 0.000000 0.000000 0.000000 0.039302
#
#
# Mechanical properties :
#
#
# Convention : Reuss Voigt Hill
#
# Bulk Modulus (GPa) = 43.51493 45.50693 44.51093
# Shear Modulus (GPa) = 29.00159 32.62408 30.81283
#
# Velocity S-wave (km/s) = 3.63294 3.85316 3.74467
# Velocity P-wave (km/s) = 6.11562 6.36439 6.24124
#
# Compressibility (1/GPa) = 0.02298062
#
# Stress axis : x y z
#
# Youngs Moduli (GPa) = 118.06830 118.06830 69.80914
#
# Poissons Ratio (x) = 0.07076 0.12365
# Poissons Ratio (y) = 0.07076 0.12365
# Poissons Ratio (z) = 0.20913 0.20913
#
# Static dielectric constant tensor:
#      x y z
#    x 1.853130 0.000000 0.000000 
#    y 0.000000 1.853130 0.000000 
#    z 0.000000 0.000000 1.787540 
# 
# From -- ./inp_files/8171.got.cif
#   From: 2010.05.17/outbox.cif.g08.bks.cpg/sg122_5_cif.got.tgz:8171.got - 2010.05.20 11:37:33.
