data_PCOD9560096
_publ_section_title
;
Structure prediction by ZEFSAII (Michael W. Deem and Ramdas Pophale) SiO2 
 PCOD9560096
Probable space group: I -4 2 M
;
_chemical_formula_sum "Si O2"
_cell_formula_units_Z 112
_cell_length_a 18.448171
_cell_length_b 18.448171
_cell_length_c 21.952448
_cell_angle_alpha 90.000000
_cell_angle_beta 90.000000
_cell_angle_gamma 90.000000
_cell_volume 7471.186681
_symmetry_space_group_name_H-M "I -4 2 M"
_symmetry_group_IT_number 121
_symmetry_cell_setting 'tetragonal'
loop_
_space_group_symop_operation_xyz
x,y,z
y,-x,-z
-x,-y,z
-y,x,-z
x,-y,-z
-x,y,-z
-y,-x,z
y,x,z
1/2+x,1/2+y,1/2+z
1/2+y,1/2-x,1/2-z
1/2-x,1/2-y,1/2+z
1/2-y,1/2+x,1/2-z
1/2+x,1/2-y,1/2-z
1/2-x,1/2+y,1/2-z
1/2-y,1/2-x,1/2+z
1/2+y,1/2+x,1/2+z
loop_
_atom_site_type_symbol
_atom_site_label
_atom_site_fract_x
_atom_site_fract_y
_atom_site_fract_z
Si Si1 0.963380 0.281501 0.728567
Si Si2 0.418816 0.993035 0.341696
Si Si3 0.254914 0.373650 0.238941
Si Si4 0.925641 0.645457 0.076228
Si Si5 0.295970 0.825308 0.651379
Si Si6 0.270928 0.152145 0.164716
Si Si7 0.876094 0.409772 0.563079
O O1 0.902718 0.266890 0.676374
O O2 0.917075 0.274094 0.790121
O O3 0.988872 0.362680 0.711244
O O4 0.040000 0.239596 0.730416
O O5 0.410204 0.915242 0.372805
O O6 0.500000 0.000000 0.319459
O O7 0.410768 0.050100 0.397574
O O8 0.331125 0.331125 0.243921
O O9 0.207016 0.352280 0.298440
O O10 0.209236 0.332973 0.185986
O O11 0.877839 0.712909 0.097655
O O12 0.011877 0.659997 0.076255
O O13 0.906401 0.615825 0.009428
O O14 0.230598 0.769403 0.647308
O O15 0.341451 0.833851 0.590005
O O16 0.196246 0.196246 0.171101
#
# Coordination Sequence:
#
# PCOD9560096 Si02
#       7
#    16  16  16  16  16  16  16
#     4  10  17  30  46  64  89 121 152 191 230 273
#     4   9  17  29  42  67  94 124 150 181 216 270
#     4   9  17  30  46  65  89 117 151 191 233 276
#     4  10  17  30  44  66  95 124 151 186 223 266
#     4   9  18  31  45  64  90 122 156 189 227 272
#     4  10  20  31  44  65  94 123 151 188 234 274
#     4   9  18  28  46  66  92 123 156 184 221 263
#
# _framework density 14.990925000000001
#
# number of rings (size 3 to 8) (size 9 to 14) (size 15 to 20)
#    0.000    2.571    1.429    2.571    0.000    3.429 
#    0.000    0.000    0.000    1.714    0.000    0.000 
#    0.000    0.000    0.000    7.714    0.000    0.000 
#
# Total GULP energy -311760.901479 kJ/mol
# GULP energy per Si atom -5567.158955 kJ/mol
# Density = 1.495681 g / cm^3
# Si number density = 14.990925 Si / 1000 Ang^3
#
#
#
# Elastic Constant Matrix: (Units=GPa)
#
#
# Indices 1 2 3 4 5 6 
#
# 1 80.5316 39.3758 25.0356 0.0000 0.0000 0.0000
# 2 39.3758 80.5332 25.0354 0.0000 0.0000 0.0000
# 3 25.0356 25.0354 42.6457 0.0000 0.0000 0.0000
# 4 0.0000 0.0000 0.0000 14.1850 0.0000 0.0000
# 5 0.0000 0.0000 0.0000 0.0000 14.1862 0.0000
# 6 0.0000 0.0000 0.0000 0.0000 0.0000 18.8504
#
#
#
# Elastic Compliance Matrix: (Units=1/GPa)
#
#
# Indices 1 2 3 4 5 6 
#
# 1 0.017673 -0.006625 -0.006486 0.000000 0.000000 0.000000
# 2 -0.006625 0.017672 -0.006486 0.000000 0.000000 0.000000
# 3 -0.006486 -0.006486 0.031064 0.000000 0.000000 0.000000
# 4 0.000000 0.000000 0.000000 0.070497 0.000000 0.000000
# 5 0.000000 0.000000 0.000000 0.000000 0.070491 0.000000
# 6 0.000000 0.000000 0.000000 0.000000 0.000000 0.053049
#
#
# Mechanical properties :
#
#
# Convention : Reuss Voigt Hill
#
# Bulk Modulus (GPa) = 36.74188 42.51155 39.62671
# Shear Modulus (GPa) = 16.19633 17.06190 16.62911
#
# Velocity S-wave (km/s) = 3.29052 3.37731 3.33420
# Velocity P-wave (km/s) = 6.24495 6.60515 6.42757
#
# Compressibility (1/GPa) = 0.02721690
#
# Stress axis : x y z
#
# Youngs Moduli (GPa) = 56.58352 56.58513 32.19141
#
# Poissons Ratio (x) = 0.37486 0.20880
# Poissons Ratio (y) = 0.37485 0.20878
# Poissons Ratio (z) = 0.36700 0.36699
#
# Static dielectric constant tensor:
#      x y z
#    x 1.509180 0.000000 0.000000 
#    y 0.000000 1.509180 0.000000 
#    z 0.000000 0.000000 1.512620 
# 
# From -- ./inp_files/6599.got.cif
#   From: 2010.05.17/outbox.cif.g08.bks.cpg/sg121_4_cif.got.tgz:6599.got - 2010.05.20 11:32:06.
