data_PCOD9560440
_publ_section_title
;
Structure prediction by ZEFSAII (Michael W. Deem and Ramdas Pophale) SiO2 
 PCOD9560440
Probable space group: I -4 2 M
;
_chemical_formula_sum "Si O2"
_cell_formula_units_Z 64
_cell_length_a 23.396355
_cell_length_b 23.396355
_cell_length_c 5.444899
_cell_angle_alpha 90.000000
_cell_angle_beta 90.000000
_cell_angle_gamma 90.000000
_cell_volume 2980.480145
_symmetry_space_group_name_H-M "I -4 2 M"
_symmetry_group_IT_number 121
_symmetry_cell_setting 'tetragonal'
loop_
_space_group_symop_operation_xyz
x,y,z
y,-x,-z
-x,-y,z
-y,x,-z
x,-y,-z
-x,y,-z
-y,-x,z
y,x,z
1/2+x,1/2+y,1/2+z
1/2+y,1/2-x,1/2-z
1/2-x,1/2-y,1/2+z
1/2-y,1/2+x,1/2-z
1/2+x,1/2-y,1/2-z
1/2-x,1/2+y,1/2-z
1/2-y,1/2-x,1/2+z
1/2+y,1/2+x,1/2+z
loop_
_atom_site_type_symbol
_atom_site_label
_atom_site_fract_x
_atom_site_fract_y
_atom_site_fract_z
Si Si1 0.813251 0.329947 0.000022
Si Si2 0.889283 0.435084 0.496961
Si Si3 0.841744 0.063771 0.076118
Si Si4 0.108585 0.205292 0.425419
O O1 0.801230 0.296607 0.247443
O O2 0.880859 0.345277 0.997431
O O3 0.772133 0.383951 0.021956
O O4 0.865960 0.500000 0.500000
O O5 0.924885 0.425442 0.246143
O O6 0.897949 0.102052 0.069431
O O7 0.817374 0.069553 0.351296
O O8 0.802552 0.087743 0.853679
O O9 0.854659 0.000000 0.000000
O O10 0.167269 0.167269 0.446863
#
# Coordination Sequence:
#
# PCOD9560440 Si02
#       4
#    16  16  16  16
#     4  10  21  38  58  84 113 149 200 245 294 355
#     4  10  21  37  55  75 104 140 179 229 287 346
#     4  10  21  39  63  91 125 162 200 246 300 360
#     4  10  21  38  59  86 121 158 198 248 302 354
#
# _framework density 21.473050000000001
#
# number of rings (size 3 to 8) (size 9 to 14) (size 15 to 20)
#    0.000    2.000    0.000    3.000    0.000    2.750 
#    0.000   30.000    0.000    4.500    0.000    0.000 
#    0.000    0.000    0.000    0.000    0.000    0.000 
#
# Total GULP energy -178326.873360 kJ/mol
# GULP energy per Si atom -5572.714792 kJ/mol
# Density = 2.142418 g / cm^3
# Si number density = 21.473050 Si / 1000 Ang^3
#
#
#
# Elastic Constant Matrix: (Units=GPa)
#
#
# Indices 1 2 3 4 5 6 
#
# 1 207.3468 -130.5051 8.5055 0.0000 0.0000 0.0000
# 2 -130.5051 207.4801 8.4668 0.0000 0.0000 0.0000
# 3 8.5055 8.4668 160.7296 0.0000 0.0000 0.0000
# 4 0.0000 0.0000 0.0000 13.9139 0.0000 0.0000
# 5 0.0000 0.0000 0.0000 0.0000 13.9121 0.0000
# 6 0.0000 0.0000 0.0000 0.0000 0.0000 3.4771
#
#
#
# Elastic Compliance Matrix: (Units=1/GPa)
#
#
# Indices 1 2 3 4 5 6 
#
# 1 0.008060 0.005098 -0.000695 0.000000 0.000000 0.000000
# 2 0.005098 0.008055 -0.000694 0.000000 0.000000 0.000000
# 3 -0.000695 -0.000694 0.006295 0.000000 0.000000 0.000000
# 4 0.000000 0.000000 0.000000 0.071870 0.000000 0.000000
# 5 0.000000 0.000000 0.000000 0.000000 0.071880 0.000000
# 6 0.000000 0.000000 0.000000 0.000000 0.000000 0.287597
#
#
# Mechanical properties :
#
#
# Convention : Reuss Voigt Hill
#
# Bulk Modulus (GPa) = 33.52538 38.72120 36.12329
# Shear Modulus (GPa) = 10.95814 52.19992 31.57903
#
# Velocity S-wave (km/s) = 2.26148 4.93582 3.83905
# Velocity P-wave (km/s) = 4.73980 7.11018 6.04237
#
# Compressibility (1/GPa) = 0.02982815
#
# Stress axis : x y z
#
# Youngs Moduli (GPa) = 124.06627 124.14867 158.85685
#
# Poissons Ratio (x) = -0.63294 0.11042
# Poissons Ratio (y) = -0.63252 0.11026
# Poissons Ratio (z) = 0.08624 0.08617
#
# Static dielectric constant tensor:
#      x y z
#    x 1.786110 0.000000 0.000000 
#    y 0.000000 1.786110 0.000000 
#    z 0.000000 0.000000 1.893860 
# 
# From -- ./inp_files/444.got.cif
#   From: 2010.05.17/outbox.cif.g08.bks.cpg/sg121_1_cif.got.tgz:444.got - 2010.05.20 11:32:06.
