data_PCOD9560303
_publ_section_title
;
Structure prediction by ZEFSAII (Michael W. Deem and Ramdas Pophale) SiO2 
 PCOD9560303
Probable space group: I -4 2 M
;
_chemical_formula_sum "Si O2"
_cell_formula_units_Z 96
_cell_length_a 26.283476
_cell_length_b 26.283476
_cell_length_c 7.557356
_cell_angle_alpha 90.000000
_cell_angle_beta 90.000000
_cell_angle_gamma 90.000000
_cell_volume 5220.781065
_symmetry_space_group_name_H-M "I -4 2 M"
_symmetry_group_IT_number 121
_symmetry_cell_setting 'tetragonal'
loop_
_space_group_symop_operation_xyz
x,y,z
y,-x,-z
-x,-y,z
-y,x,-z
x,-y,-z
-x,y,-z
-y,-x,z
y,x,z
1/2+x,1/2+y,1/2+z
1/2+y,1/2-x,1/2-z
1/2-x,1/2-y,1/2+z
1/2-y,1/2+x,1/2-z
1/2+x,1/2-y,1/2-z
1/2-x,1/2+y,1/2-z
1/2-y,1/2-x,1/2+z
1/2+y,1/2+x,1/2+z
loop_
_atom_site_type_symbol
_atom_site_label
_atom_site_fract_x
_atom_site_fract_y
_atom_site_fract_z
Si Si1 0.365836 0.966911 0.669933
Si Si2 0.448616 0.220255 0.608716
Si Si3 0.221269 0.628148 0.841481
Si Si4 0.929560 0.637194 0.833744
Si Si5 0.626846 0.707972 0.487280
Si Si6 0.183520 0.734835 0.702812
O O1 0.305837 0.956136 0.702750
O O2 0.397229 0.914489 0.672458
O O3 0.378327 0.000000 0.500000
O O4 0.376733 0.010927 0.816576
O O5 0.500000 0.223873 0.500000
O O6 0.419096 0.174127 0.503198
O O7 0.424019 0.275586 0.591292
O O8 0.177139 0.585911 0.822143
O O9 0.269060 0.618921 0.709626
O O10 0.196035 0.677587 0.751086
O O11 0.236645 0.644338 0.039175
O O12 0.652445 0.652445 0.481195
O O13 0.664161 0.740997 0.613614
O O14 0.233432 0.766569 0.648115
#
# Coordination Sequence:
#
# PCOD9560303 Si02
#       6
#    16  16  16  16  16  16
#     4  11  22  35  55  70  88 124 172 218 279 315
#     4   9  20  38  52  73 102 131 170 208 254 319
#     4  11  21  32  49  69 101 128 163 200 258 312
#     4  10  23  37  51  69  91 126 165 227 268 314
#     4  10  20  33  52  76 105 132 162 205 246 297
#     4  11  20  29  47  73  99 128 161 198 251 315
#
# _framework density 18.388052999999999
#
# number of rings (size 3 to 8) (size 9 to 14) (size 15 to 20)
#    0.000    1.667    1.667    3.500    7.000    0.333 
#    0.000    0.833    0.000    0.000    0.000    0.000 
#    0.000    0.333    0.000    0.000    0.000    0.000 
#
# Total GULP energy -267273.103293 kJ/mol
# GULP energy per Si atom -5568.189652 kJ/mol
# Density = 1.834620 g / cm^3
# Si number density = 18.388053 Si / 1000 Ang^3
#
#
#
# Elastic Constant Matrix: (Units=GPa)
#
#
# Indices 1 2 3 4 5 6 
#
# 1 64.7859 51.6356 7.6029 0.0000 0.0000 0.0000
# 2 51.6356 64.7867 7.6018 0.0000 0.0000 0.0000
# 3 7.6029 7.6018 68.0558 0.0000 0.0000 0.0000
# 4 0.0000 0.0000 0.0000 18.2047 0.0000 0.0000
# 5 0.0000 0.0000 0.0000 0.0000 18.2043 0.0000
# 6 0.0000 0.0000 0.0000 0.0000 0.0000 31.3579
#
#
#
# Elastic Compliance Matrix: (Units=1/GPa)
#
#
# Indices 1 2 3 4 5 6 
#
# 1 0.042379 -0.033662 -0.000974 0.000000 0.000000 0.000000
# 2 -0.033662 0.042379 -0.000973 0.000000 0.000000 0.000000
# 3 -0.000974 -0.000973 0.014911 0.000000 0.000000 0.000000
# 4 0.000000 0.000000 0.000000 0.054931 0.000000 0.000000
# 5 0.000000 0.000000 0.000000 0.000000 0.054932 0.000000
# 6 0.000000 0.000000 0.000000 0.000000 0.000000 0.031890
#
#
# Mechanical properties :
#
#
# Convention : Reuss Voigt Hill
#
# Bulk Modulus (GPa) = 35.14971 36.81213 35.98092
# Shear Modulus (GPa) = 15.52191 22.27258 18.89725
#
# Velocity S-wave (km/s) = 2.90854 3.48408 3.20924
# Velocity P-wave (km/s) = 5.51693 6.02064 5.77428
#
# Compressibility (1/GPa) = 0.02844974
#
# Stress axis : x y z
#
# Youngs Moduli (GPa) = 23.59637 23.59676 67.06291
#
# Poissons Ratio (x) = 0.79432 0.06535
# Poissons Ratio (y) = 0.79431 0.06526
# Poissons Ratio (z) = 0.02299 0.02296
#
# Static dielectric constant tensor:
#      x y z
#    x 1.695380 0.000000 0.000000 
#    y 0.000000 1.695370 0.000000 
#    z 0.000000 0.000000 1.811290 
# 
# From -- ./inp_files/2082.got.cif
#   From: 2010.05.17/outbox.cif.g08.bks.cpg/sg121_2_cif.got.tgz:2082.got - 2010.05.20 11:32:06.
