data_PCOD9560650
_publ_section_title
;
Structure prediction by ZEFSAII (Michael W. Deem and Ramdas Pophale) SiO2 
 PCOD9560650
Probable space group: I -4 2 M
;
_chemical_formula_sum "Si O2"
_cell_formula_units_Z 52
_cell_length_a 16.116017
_cell_length_b 16.116017
_cell_length_c 8.180969
_cell_angle_alpha 90.000000
_cell_angle_beta 90.000000
_cell_angle_gamma 90.000000
_cell_volume 2124.810387
_symmetry_space_group_name_H-M "I -4 2 M"
_symmetry_group_IT_number 121
_symmetry_cell_setting 'tetragonal'
loop_
_space_group_symop_operation_xyz
x,y,z
y,-x,-z
-x,-y,z
-y,x,-z
x,-y,-z
-x,y,-z
-y,-x,z
y,x,z
1/2+x,1/2+y,1/2+z
1/2+y,1/2-x,1/2-z
1/2-x,1/2-y,1/2+z
1/2-y,1/2+x,1/2-z
1/2+x,1/2-y,1/2-z
1/2-x,1/2+y,1/2-z
1/2-y,1/2-x,1/2+z
1/2+y,1/2+x,1/2+z
loop_
_atom_site_type_symbol
_atom_site_label
_atom_site_fract_x
_atom_site_fract_y
_atom_site_fract_z
Si Si1 0.500000 0.000000 0.750000
Si Si2 0.352434 0.352434 0.586216
Si Si3 0.248677 0.000000 0.000000
Si Si4 0.905999 0.905999 0.439373
Si Si5 0.213442 0.786559 0.361577
Si Si6 0.320423 0.046124 0.666891
O O1 0.420748 0.042082 0.660832
O O2 0.422294 0.309961 0.482352
O O3 0.283028 0.283028 0.613508
O O4 0.393386 0.393386 0.746298
O O5 0.296249 0.004970 0.170531
O O6 0.840543 0.840543 0.511403
O O7 0.000000 0.889258 0.500000
O O8 0.136228 0.723308 0.308613
O O9 0.293111 0.000000 0.500000
#
# Coordination Sequence:
#
# PCOD9560650 Si02
#       6
#     4   8   8   8   8  16
#     4  12  30  52  82 118 168 230 286 360 438 530
#     4  12  28  46  78 119 163 211 283 344 422 509
#     4  12  28  50  78 124 158 214 276 348 421 505
#     4  11  26  51  83 120 164 223 279 349 440 517
#     4  12  26  49  81 113 165 217 276 351 416 501
#     4  12  29  51  81 119 168 219 282 352 435 515
#
# _framework density 24.472771000000002
#
# number of rings (size 3 to 8) (size 9 to 14) (size 15 to 20)
#    0.000    0.154    0.000    7.846   12.923    2.769 
#    0.000    0.000    0.000    0.000    0.000    0.000 
#    0.000    0.000    0.000    0.000    0.000    0.000 
#
# Total GULP energy -144927.242305 kJ/mol
# GULP energy per Si atom -5574.124704 kJ/mol
# Density = 2.441707 g / cm^3
# Si number density = 24.472771 Si / 1000 Ang^3
#
#
#
# Elastic Constant Matrix: (Units=GPa)
#
#
# Indices 1 2 3 4 5 6 
#
# 1 183.4929 55.8436 49.6000 0.0000 0.0000 0.0000
# 2 55.8436 183.4936 49.5997 0.0000 0.0000 0.0000
# 3 49.6000 49.5997 128.7252 0.0000 0.0000 0.0000
# 4 0.0000 0.0000 0.0000 3.9448 0.0000 0.0000
# 5 0.0000 0.0000 0.0000 0.0000 3.9439 0.0000
# 6 0.0000 0.0000 0.0000 0.0000 0.0000 38.8147
#
#
#
# Elastic Compliance Matrix: (Units=1/GPa)
#
#
# Indices 1 2 3 4 5 6 
#
# 1 0.006403 -0.001431 -0.001916 0.000000 0.000000 0.000000
# 2 -0.001431 0.006403 -0.001916 0.000000 0.000000 0.000000
# 3 -0.001916 -0.001916 0.009245 0.000000 0.000000 0.000000
# 4 0.000000 0.000000 0.000000 0.253499 0.000000 0.000000
# 5 0.000000 0.000000 0.000000 0.000000 0.253558 0.000000
# 6 0.000000 0.000000 0.000000 0.000000 0.000000 0.025763
#
#
# Mechanical properties :
#
#
# Convention : Reuss Voigt Hill
#
# Bulk Modulus (GPa) = 86.76087 89.53313 88.14700
# Shear Modulus (GPa) = 8.78366 32.05191 20.41779
#
# Velocity S-wave (km/s) = 1.89656 3.62290 2.89157
# Velocity P-wave (km/s) = 6.35019 7.35967 6.87349
#
# Compressibility (1/GPa) = 0.01152593
#
# Stress axis : x y z
#
# Youngs Moduli (GPa) = 156.17330 156.17419 108.16722
#
# Poissons Ratio (x) = 0.22346 0.20724
# Poissons Ratio (y) = 0.22345 0.20724
# Poissons Ratio (z) = 0.29922 0.29921
#
# Static dielectric constant tensor:
#      x y z
#    x 1.948820 0.000000 0.000000 
#    y 0.000000 1.948820 0.000000 
#    z 0.000000 0.000000 2.208100 
# 
# From -- ./inp_files/1308.got.cif
#   From: 2010.05.17/outbox.cif.g08.bks.cpg/sg121_1_cif.got.tgz:1308.got - 2010.05.20 11:32:06.
