data_PCOD9560040
_publ_section_title
;
Structure prediction by ZEFSAII (Michael W. Deem and Ramdas Pophale) SiO2 
 PCOD9560040
Probable space group: I -4 C 2
;
_chemical_formula_sum "Si O2"
_cell_formula_units_Z 36
_cell_length_a 12.384357
_cell_length_b 12.384357
_cell_length_c 9.584965
_cell_angle_alpha 90.000000
_cell_angle_beta 90.000000
_cell_angle_gamma 90.000000
_cell_volume 1470.068111
_symmetry_space_group_name_H-M "I -4 C 2"
_symmetry_group_IT_number 120
_symmetry_cell_setting 'tetragonal'
loop_
_space_group_symop_operation_xyz
x,y,z
y,-x,-z
-x,-y,z
-y,x,-z
y,x,1/2-z
-y,-x,1/2-z
-x,y,1/2+z
x,-y,1/2+z
1/2+x,1/2+y,1/2+z
1/2+y,1/2-x,1/2-z
1/2-x,1/2-y,1/2+z
1/2-y,1/2+x,1/2-z
1/2+y,1/2+x,-z
1/2-y,1/2-x,-z
1/2-x,1/2+y,z
1/2+x,1/2-y,z
loop_
_atom_site_type_symbol
_atom_site_label
_atom_site_fract_x
_atom_site_fract_y
_atom_site_fract_z
Si Si1 0.118568 0.718790 0.804995
Si Si2 0.467787 0.731058 0.594529
Si Si3 0.000000 0.000000 0.250000
O O1 0.176039 0.823962 0.750000
O O2 0.214793 0.643882 0.856667
O O3 0.051778 0.686897 0.668727
O O4 0.036919 0.753176 0.928537
O O5 0.484778 0.608207 0.650059
#
# Coordination Sequence:
#
# PCOD9560040 Si02
#       3
#    16  16   4
#     4  11  26  47  70 111 152 202 259 333 390 473
#     4  11  27  44  75 109 153 199 264 321 401 472
#     4  12  24  46  74 112 146 208 250 316 394 464
#
# _framework density 24.488662000000001
#
# number of rings (size 3 to 8) (size 9 to 14) (size 15 to 20)
#    0.000    0.889    4.444    0.000    6.222    4.444 
#    0.000    4.444    0.000    0.000    0.000    0.000 
#    0.000    0.000    0.000    0.000    0.000    0.000 
#
# Total GULP energy -100261.845455 kJ/mol
# GULP energy per Si atom -5570.102525 kJ/mol
# Density = 2.443292 g / cm^3
# Si number density = 24.488662 Si / 1000 Ang^3
#
#
#
# Elastic Constant Matrix: (Units=GPa)
#
#
# Indices 1 2 3 4 5 6 
#
# 1 354.3915 -232.8233 41.0299 0.0000 0.0000 0.0000
# 2 -232.8233 354.4056 41.0624 0.0000 0.0000 0.0000
# 3 41.0299 41.0624 134.6051 0.0000 0.0000 0.0000
# 4 0.0000 0.0000 0.0000 45.1867 0.0000 0.0000
# 5 0.0000 0.0000 0.0000 0.0000 45.1864 0.0000
# 6 0.0000 0.0000 0.0000 0.0000 0.0000 41.2418
#
#
#
# Elastic Compliance Matrix: (Units=1/GPa)
#
#
# Indices 1 2 3 4 5 6 
#
# 1 0.006030 0.004328 -0.003158 0.000000 0.000000 0.000000
# 2 0.004328 0.006031 -0.003159 0.000000 0.000000 0.000000
# 3 -0.003158 -0.003159 0.009355 0.000000 0.000000 0.000000
# 4 0.000000 0.000000 0.000000 0.022130 0.000000 0.000000
# 5 0.000000 0.000000 0.000000 0.000000 0.022131 0.000000
# 6 0.000000 0.000000 0.000000 0.000000 0.000000 0.024247
#
#
# Mechanical properties :
#
#
# Convention : Reuss Voigt Hill
#
# Bulk Modulus (GPa) = 57.34785 60.21556 58.78171
# Shear Modulus (GPa) = 50.14224 92.59856 71.37040
#
# Velocity S-wave (km/s) = 4.52992 6.15588 5.40440
# Velocity P-wave (km/s) = 7.12946 8.67001 7.93720
#
# Compressibility (1/GPa) = 0.01743744
#
# Stress axis : x y z
#
# Youngs Moduli (GPa) = 165.82384 165.82104 106.88920
#
# Poissons Ratio (x) = -0.71761 0.33760
# Poissons Ratio (y) = -0.71762 0.33764
# Poissons Ratio (z) = 0.52373 0.52380
#
# Static dielectric constant tensor:
#      x y z
#    x 1.767810 0.000000 0.000000 
#    y 0.000000 1.767850 0.000000 
#    z 0.000000 0.000000 0.404050 
# 
# From -- ./inp_files/702.got.cif
#   From: 2010.05.17/outbox.cif.g08.bks.cpg/sg120_1_cif.got.tgz:702.got - 2010.05.20 11:28:13.
