data_PCOD9560596
_publ_section_title
;
Structure prediction by ZEFSAII (Michael W. Deem and Ramdas Pophale) SiO2 
 PCOD9560596
Probable space group: I -4 2 M
;
_chemical_formula_sum "Si O2"
_cell_formula_units_Z 112
_cell_length_a 15.500909
_cell_length_b 15.500909
_cell_length_c 22.449964
_cell_angle_alpha 90.000000
_cell_angle_beta 90.000000
_cell_angle_gamma 90.000000
_cell_volume 5394.236487
_symmetry_space_group_name_H-M "I -4 2 M"
_symmetry_group_IT_number 121
_symmetry_cell_setting 'tetragonal'
loop_
_space_group_symop_operation_xyz
x,y,z
y,-x,-z
-x,-y,z
-y,x,-z
x,-y,-z
-x,y,-z
-y,-x,z
y,x,z
1/2+x,1/2+y,1/2+z
1/2+y,1/2-x,1/2-z
1/2-x,1/2-y,1/2+z
1/2-y,1/2+x,1/2-z
1/2+x,1/2-y,1/2-z
1/2-x,1/2+y,1/2-z
1/2-y,1/2-x,1/2+z
1/2+y,1/2+x,1/2+z
loop_
_atom_site_type_symbol
_atom_site_label
_atom_site_fract_x
_atom_site_fract_y
_atom_site_fract_z
Si Si1 0.024272 0.359993 0.254921
Si Si2 0.889538 0.248378 0.848325
Si Si3 0.997770 0.134881 0.571769
Si Si4 0.024953 0.402132 0.379273
Si Si5 0.808576 0.326104 0.560604
Si Si6 0.194733 0.391549 0.066790
Si Si7 0.031052 0.163262 0.934962
O O1 0.096485 0.434455 0.263787
O O2 0.059128 0.294773 0.205497
O O3 0.006172 0.338239 0.323561
O O4 0.823613 0.176388 0.824998
O O5 0.833267 0.317776 0.886298
O O6 0.956634 0.202313 0.893446
O O7 0.064103 0.064103 0.595897
O O8 0.046180 0.225106 0.582965
O O9 0.000000 0.130935 0.500000
O O10 0.902015 0.097986 0.588870
O O11 0.118403 0.373578 0.401117
O O12 0.000000 0.500000 0.361197
O O13 0.957694 0.384490 0.432031
O O14 0.755124 0.244877 0.586976
O O15 0.849919 0.295233 0.498172
O O16 0.738096 0.400006 0.550826
O O17 0.083920 0.083920 0.906371
O O18 0.000000 0.136023 0.000000
#
# Coordination Sequence:
#
# PCOD9560596 Si02
#       7
#    16  16  16  16  16  16  16
#     4  11  21  44  68  89 120 164 218 276 335 382
#     4  12  25  42  68  98 130 173 224 277 336 405
#     4   9  18  33  53  79 118 170 215 250 306 384
#     4  12  24  39  66  96 125 173 226 274 331 398
#     4  11  24  39  61 100 146 174 212 278 335 398
#     4  12  22  38  61  95 134 171 218 270 333 401
#     4  11  23  41  66  98 137 179 219 267 339 416
#
# _framework density 20.762899999999998
#
# number of rings (size 3 to 8) (size 9 to 14) (size 15 to 20)
#    0.000    0.857    4.286    5.143    0.000    3.857 
#    0.000    0.714    0.000    0.000    0.000    0.000 
#    0.000    0.000    0.000    0.000    0.000    0.000 
#
# Total GULP energy -312027.908767 kJ/mol
# GULP energy per Si atom -5571.926942 kJ/mol
# Density = 2.071564 g / cm^3
# Si number density = 20.762900 Si / 1000 Ang^3
#
#
#
# Elastic Constant Matrix: (Units=GPa)
#
#
# Indices 1 2 3 4 5 6 
#
# 1 106.1581 62.4664 42.0484 0.0000 0.0000 0.0000
# 2 62.4664 106.1556 42.0471 0.0000 0.0000 0.0000
# 3 42.0484 42.0471 82.6039 0.0000 0.0000 0.0000
# 4 0.0000 0.0000 0.0000 -0.7209 0.0000 0.0000
# 5 0.0000 0.0000 0.0000 0.0000 -0.7229 0.0000
# 6 0.0000 0.0000 0.0000 0.0000 0.0000 50.4174
#
#
#
# Elastic Compliance Matrix: (Units=1/GPa)
#
#
# Indices 1 2 3 4 5 6 
#
# 1 0.015418 -0.007470 -0.004046 0.000000 0.000000 0.000000
# 2 -0.007470 0.015418 -0.004046 0.000000 0.000000 0.000000
# 3 -0.004046 -0.004046 0.016225 0.000000 0.000000 0.000000
# 4 0.000000 0.000000 0.000000 -1.387144 0.000000 0.000000
# 5 0.000000 0.000000 0.000000 0.000000 -1.383290 0.000000
# 6 0.000000 0.000000 0.000000 0.000000 0.000000 0.019834
#
#
# Mechanical properties :
#
#
# Convention : Reuss Voigt Hill
#
# Bulk Modulus (GPa) = 62.74395 65.33792 64.04094
# Shear Modulus (GPa) = -1.87469 19.68509 8.90520
#
# Velocity S-wave (km/s) = -0.95124 3.08245 2.07324
# Velocity P-wave (km/s) = 5.39244 6.64873 6.05326
#
# Compressibility (1/GPa) = 0.01593779
#
# Stress axis : x y z
#
# Youngs Moduli (GPa) = 64.85890 64.85795 61.63392
#
# Poissons Ratio (x) = 0.48449 0.24937
# Poissons Ratio (y) = 0.48450 0.24935
# Poissons Ratio (z) = 0.26241 0.26240
#
# Static dielectric constant tensor:
#      x y z
#    x 1.829810 0.000000 0.000000 
#    y 0.000000 1.829810 0.000000 
#    z 0.000000 0.000000 1.767150 
# 
# From -- ./inp_files/7174.got.cif
#   From: 2010.05.17/outbox.cif.g08.bks.cpg/sg121_4_cif.got.tgz:7174.got - 2010.05.20 11:32:06.
