data_PCOD9560719
_publ_section_title
;
Structure prediction by ZEFSAII (Michael W. Deem and Ramdas Pophale) SiO2 
 PCOD9560719
Probable space group: I -4 2 D
;
_chemical_formula_sum "Si O2"
_cell_formula_units_Z 120
_cell_length_a 14.506380
_cell_length_b 14.506380
_cell_length_c 31.071239
_cell_angle_alpha 90.000000
_cell_angle_beta 90.000000
_cell_angle_gamma 90.000000
_cell_volume 6538.478065
_symmetry_space_group_name_H-M "I -4 2 D"
_symmetry_group_IT_number 122
_symmetry_cell_setting 'tetragonal'
loop_
_space_group_symop_operation_xyz
x,y,z
y,-x,-z
-x,-y,z
-y,x,-z
x,1/2-y,1/4-z
-x,1/2+y,1/4-z
-y,1/2-x,1/4+z
y,1/2+x,1/4+z
1/2+x,1/2+y,1/2+z
1/2+y,1/2-x,1/2-z
1/2-x,1/2-y,1/2+z
1/2-y,1/2+x,1/2-z
1/2+x,-y,3/4-z
1/2-x,y,3/4-z
1/2-y,-x,3/4+z
1/2+y,x,3/4+z
loop_
_atom_site_type_symbol
_atom_site_label
_atom_site_fract_x
_atom_site_fract_y
_atom_site_fract_z
Si Si1 0.451334 0.100089 0.049274
Si Si2 0.892639 0.750000 0.125000
Si Si3 0.769513 0.087404 0.968526
Si Si4 0.101735 0.545221 0.855738
Si Si5 0.870784 0.952208 0.482719
Si Si6 0.927310 0.263868 0.387053
Si Si7 0.564891 0.233980 0.790742
Si Si8 0.575789 0.311342 0.271461
O O1 0.470362 0.142603 0.096613
O O2 0.342229 0.092121 0.040633
O O3 0.500000 0.000000 0.049539
O O4 0.500191 0.153980 0.011517
O O5 0.948014 0.767071 0.081052
O O6 0.822932 0.665874 0.117028
O O7 0.846684 0.168259 0.967391
O O8 0.667264 0.127046 0.977445
O O9 0.787627 0.010950 0.004611
O O10 0.145832 0.498403 0.813701
O O11 0.093143 0.656131 0.854134
O O12 0.000000 0.500000 0.856490
O O13 0.787762 0.895650 0.502563
O O14 0.963623 0.892446 0.484415
O O15 0.972374 0.277301 0.340103
O O16 0.968776 0.302105 0.431244
#
# Coordination Sequence:
#
# PCOD9560719 Si02
#       8
#    16   8  16  16  16  16  16  16
#     4  10  21  36  57  82 110 151 185 230 284 347
#     4   8  18  34  58  82 102 140 190 244 272 338
#     4  10  21  39  60  86 113 144 196 245 292 344
#     4  10  18  32  50  74 112 149 188 221 270 339
#     4  11  20  32  49  80 112 155 187 226 267 327
#     4   9  18  34  57  78 107 147 189 231 281 334
#     4  10  21  39  63  84 112 149 192 240 294 345
#     4  11  21  34  57  84 116 146 193 236 279 334
#
# _framework density 18.352896000000001
#
# number of rings (size 3 to 8) (size 9 to 14) (size 15 to 20)
#    0.000    2.000    4.000    0.000    1.867    2.933 
#    0.000    1.333    0.000    1.600    0.000    0.000 
#    0.000    0.000    0.000    0.000    0.000    0.000 
#
# Total GULP energy -334135.447000 kJ/mol
# GULP energy per Si atom -5568.924117 kJ/mol
# Density = 1.831112 g / cm^3
# Si number density = 18.352896 Si / 1000 Ang^3
#
#
#
# Elastic Constant Matrix: (Units=GPa)
#
#
# Indices 1 2 3 4 5 6 
#
# 1 36.8478 6.9833 44.7106 0.0000 0.0000 0.0000
# 2 6.9833 36.8478 44.7106 0.0000 0.0000 0.0000
# 3 44.7106 44.7106 197.5511 0.0000 0.0000 0.0000
# 4 0.0000 0.0000 0.0000 27.9881 0.0000 0.0000
# 5 0.0000 0.0000 0.0000 0.0000 27.9881 0.0000
# 6 0.0000 0.0000 0.0000 0.0000 0.0000 13.6039
#
#
#
# Elastic Compliance Matrix: (Units=1/GPa)
#
#
# Indices 1 2 3 4 5 6 
#
# 1 0.037935 0.004451 -0.009593 0.000000 0.000000 0.000000
# 2 0.004451 0.037935 -0.009593 0.000000 0.000000 0.000000
# 3 -0.009593 -0.009593 0.009404 0.000000 0.000000 0.000000
# 4 0.000000 0.000000 0.000000 0.035729 0.000000 0.000000
# 5 0.000000 0.000000 0.000000 0.000000 0.035729 0.000000
# 6 0.000000 0.000000 0.000000 0.000000 0.000000 0.073509
#
#
# Mechanical properties :
#
#
# Convention : Reuss Voigt Hill
#
# Bulk Modulus (GPa) = 17.91993 51.56176 34.74084
# Shear Modulus (GPa) = 17.96535 25.57217 21.76876
#
# Velocity S-wave (km/s) = 3.13211 3.73682 3.44775
# Velocity P-wave (km/s) = 4.78178 6.83916 5.90082
#
# Compressibility (1/GPa) = 0.05580378
#
# Stress axis : x y z
#
# Youngs Moduli (GPa) = 26.36086 26.36086 106.33565
#
# Poissons Ratio (x) = -0.11732 1.02007
# Poissons Ratio (y) = -0.11732 1.02007
# Poissons Ratio (z) = 0.25288 0.25288
#
# Static dielectric constant tensor:
#      x y z
#    x 1.648060 0.000000 0.000000 
#    y 0.000000 1.648060 0.000000 
#    z 0.000000 0.000000 1.696290 
# 
# From -- ./inp_files/9731.got.cif
#   From: 2010.05.17/outbox.cif.g08.bks.cpg/sg122_5_cif.got.tgz:9731.got - 2010.05.20 11:37:33.
