data_PCOD9560267
_publ_section_title
;
Structure prediction by ZEFSAII (Michael W. Deem and Ramdas Pophale) SiO2 
 PCOD9560267
Probable space group: I -4 2 M
;
_chemical_formula_sum "Si O2"
_cell_formula_units_Z 64
_cell_length_a 13.429239
_cell_length_b 13.429239
_cell_length_c 20.568141
_cell_angle_alpha 90.000000
_cell_angle_beta 90.000000
_cell_angle_gamma 90.000000
_cell_volume 3709.350284
_symmetry_space_group_name_H-M "I -4 2 M"
_symmetry_group_IT_number 121
_symmetry_cell_setting 'tetragonal'
loop_
_space_group_symop_operation_xyz
x,y,z
y,-x,-z
-x,-y,z
-y,x,-z
x,-y,-z
-x,y,-z
-y,-x,z
y,x,z
1/2+x,1/2+y,1/2+z
1/2+y,1/2-x,1/2-z
1/2-x,1/2-y,1/2+z
1/2-y,1/2+x,1/2-z
1/2+x,1/2-y,1/2-z
1/2-x,1/2+y,1/2-z
1/2-y,1/2-x,1/2+z
1/2+y,1/2+x,1/2+z
loop_
_atom_site_type_symbol
_atom_site_label
_atom_site_fract_x
_atom_site_fract_y
_atom_site_fract_z
Si Si1 0.056082 0.221430 0.291799
Si Si2 0.220953 0.059756 0.437553
Si Si3 0.724342 0.889534 0.812665
Si Si4 0.450711 0.105623 0.432654
O O1 0.124365 0.124365 0.276498
O O2 0.014300 0.209016 0.365498
O O3 0.132552 0.315821 0.293131
O O4 0.966866 0.243391 0.242762
O O5 0.162788 0.162788 0.433574
O O6 0.336266 0.081869 0.447141
O O7 0.183539 0.000000 0.500000
O O8 0.815955 0.815955 0.828381
O O9 0.684706 0.950748 0.874806
O O10 0.500000 0.139084 0.500000
O O11 0.500000 0.000000 0.413067
#
# Coordination Sequence:
#
# PCOD9560267 Si02
#       4
#    16  16  16  16
#     4   9  21  37  56  83 115 151 189 234 284 337
#     4  10  20  36  55  83 117 146 183 233 283 334
#     4  10  22  37  56  85 117 148 186 235 283 333
#     4  10  19  35  59  84 108 144 189 234 277 324
#
# _framework density 17.253696000000001
#
# number of rings (size 3 to 8) (size 9 to 14) (size 15 to 20)
#    0.000    2.250    2.500    2.250    7.000    1.750 
#    0.000    7.500    0.000    0.000    0.000    0.000 
#    0.000    0.000    0.000    0.000    0.000    0.000 
#
# Total GULP energy -178327.463139 kJ/mol
# GULP energy per Si atom -5572.733223 kJ/mol
# Density = 1.721443 g / cm^3
# Si number density = 17.253696 Si / 1000 Ang^3
#
#
#
# Elastic Constant Matrix: (Units=GPa)
#
#
# Indices 1 2 3 4 5 6 
#
# 1 68.6228 34.2825 65.4739 0.0000 0.0000 0.0000
# 2 34.2825 68.6228 65.4739 0.0000 0.0000 0.0000
# 3 65.4739 65.4739 151.9481 0.0000 0.0000 0.0000
# 4 0.0000 0.0000 0.0000 -88.2401 0.0000 0.0000
# 5 0.0000 0.0000 0.0000 0.0000 -88.2401 0.0000
# 6 0.0000 0.0000 0.0000 0.0000 0.0000 18.7484
#
#
#
# Elastic Compliance Matrix: (Units=1/GPa)
#
#
# Indices 1 2 3 4 5 6 
#
# 1 0.025317 -0.003803 -0.009271 0.000000 0.000000 0.000000
# 2 -0.003803 0.025317 -0.009271 0.000000 0.000000 0.000000
# 3 -0.009271 -0.009271 0.014570 0.000000 0.000000 0.000000
# 4 0.000000 0.000000 0.000000 -0.011333 0.000000 0.000000
# 5 0.000000 0.000000 0.000000 0.000000 -0.011333 0.000000
# 6 0.000000 0.000000 0.000000 0.000000 0.000000 0.053338
#
#
# Mechanical properties :
#
#
# Convention : Reuss Voigt Hill
#
# Bulk Modulus (GPa) = 48.73919 68.85046 58.79483
# Shear Modulus (GPa) = 33.92019 -23.28214 5.31903
#
# Velocity S-wave (km/s) = 4.43873 -3.67740 1.75770
# Velocity P-wave (km/s) = 7.38781 4.68619 6.18628
#
# Compressibility (1/GPa) = 0.02051737
#
# Stress axis : x y z
#
# Youngs Moduli (GPa) = 39.49852 39.49852 68.63199
#
# Poissons Ratio (x) = 0.15021 0.63625
# Poissons Ratio (y) = 0.15021 0.63625
# Poissons Ratio (z) = 0.36617 0.36617
#
# Static dielectric constant tensor:
#      x y z
#    x 1.710300 0.000000 0.000000 
#    y 0.000000 1.710300 0.000000 
#    z 0.000000 0.000000 1.634260 
# 
# From -- ./inp_files/6006.got.cif
#   From: 2010.05.17/outbox.cif.g08.bks.cpg/sg121_4_cif.got.tgz:6006.got - 2010.05.20 11:32:06.
