data_PCOD9560427
_publ_section_title
;
Structure prediction by ZEFSAII (Michael W. Deem and Ramdas Pophale) SiO2 
 PCOD9560427
Probable space group: I -4 2 M
;
_chemical_formula_sum "Si O2"
_cell_formula_units_Z 88
_cell_length_a 10.977337
_cell_length_b 10.977337
_cell_length_c 32.672837
_cell_angle_alpha 90.000000
_cell_angle_beta 90.000000
_cell_angle_gamma 90.000000
_cell_volume 3937.139839
_symmetry_space_group_name_H-M "I -4 2 M"
_symmetry_group_IT_number 121
_symmetry_cell_setting 'tetragonal'
loop_
_space_group_symop_operation_xyz
x,y,z
y,-x,-z
-x,-y,z
-y,x,-z
x,-y,-z
-x,y,-z
-y,-x,z
y,x,z
1/2+x,1/2+y,1/2+z
1/2+y,1/2-x,1/2-z
1/2-x,1/2-y,1/2+z
1/2-y,1/2+x,1/2-z
1/2+x,1/2-y,1/2-z
1/2-x,1/2+y,1/2-z
1/2-y,1/2-x,1/2+z
1/2+y,1/2+x,1/2+z
loop_
_atom_site_type_symbol
_atom_site_label
_atom_site_fract_x
_atom_site_fract_y
_atom_site_fract_z
Si Si1 0.582501 0.218181 0.806580
Si Si2 0.386729 0.178970 0.877388
Si Si3 0.812350 0.387973 0.030651
Si Si4 0.189806 0.997333 0.868372
Si Si5 0.957466 0.762878 0.222837
Si Si6 0.804459 0.000000 0.000000
O O1 0.690775 0.309226 0.820974
O O2 0.482448 0.201451 0.841513
O O3 0.632132 0.087224 0.792337
O O4 0.533321 0.269068 0.763637
O O5 0.276568 0.276568 0.871183
O O6 0.435754 0.198472 0.923040
O O7 0.323939 0.045231 0.877885
O O8 0.690953 0.309048 0.020879
O O9 0.830981 0.500000 0.000000
O O10 0.922242 0.288413 0.028022
O O11 0.136571 0.863430 0.878391
O O12 0.183048 0.008156 0.819036
O O13 0.093743 0.093743 0.886780
O O14 0.834680 0.834680 0.233334
O O15 0.897121 0.102880 0.981849
#
# Coordination Sequence:
#
# PCOD9560427 Si02
#       6
#    16  16  16  16  16   8
#     4  11  23  38  57  85 123 164 213 269 316 370
#     4  10  22  39  61  90 122 159 206 258 318 387
#     4  10  22  42  66  96 132 171 219 270 328 400
#     4   9  18  35  58  85 120 158 197 248 308 370
#     4  10  21  36  54  81 115 156 206 251 307 372
#     4   9  19  40  70 100 129 165 214 272 332 395
#
# _framework density 22.35125
#
# number of rings (size 3 to 8) (size 9 to 14) (size 15 to 20)
#    0.000    2.091    0.000    2.455    0.000    9.273 
#    6.545    5.455    0.000    0.000    0.000    0.000 
#    0.000    0.000    0.000    0.000    0.000    0.000 
#
# Total GULP energy -245284.327182 kJ/mol
# GULP energy per Si atom -5574.643800 kJ/mol
# Density = 2.230038 g / cm^3
# Si number density = 22.351250 Si / 1000 Ang^3
#
#
#
# Elastic Constant Matrix: (Units=GPa)
#
#
# Indices 1 2 3 4 5 6 
#
# 1 80.8094 49.3591 43.3710 0.0000 0.0000 0.0000
# 2 49.3591 80.8127 43.3728 0.0000 0.0000 0.0000
# 3 43.3710 43.3728 99.3708 0.0000 0.0000 0.0000
# 4 0.0000 0.0000 0.0000 13.0492 0.0000 0.0000
# 5 0.0000 0.0000 0.0000 0.0000 13.0520 0.0000
# 6 0.0000 0.0000 0.0000 0.0000 0.0000 33.6884
#
#
#
# Elastic Compliance Matrix: (Units=1/GPa)
#
#
# Indices 1 2 3 4 5 6 
#
# 1 0.021314 -0.010481 -0.004728 0.000000 0.000000 0.000000
# 2 -0.010481 0.021314 -0.004728 0.000000 0.000000 0.000000
# 3 -0.004728 -0.004728 0.014191 0.000000 0.000000 0.000000
# 4 0.000000 0.000000 0.000000 0.076633 0.000000 0.000000
# 5 0.000000 0.000000 0.000000 0.000000 0.076617 0.000000
# 6 0.000000 0.000000 0.000000 0.000000 0.000000 0.029684
#
#
# Mechanical properties :
#
#
# Convention : Reuss Voigt Hill
#
# Bulk Modulus (GPa) = 59.01831 59.24431 59.13131
# Shear Modulus (GPa) = 17.52699 20.28392 18.90545
#
# Velocity S-wave (km/s) = 2.80333 3.01575 2.91148
# Velocity P-wave (km/s) = 6.07786 6.22012 6.14941
#
# Compressibility (1/GPa) = 0.01694390
#
# Stress axis : x y z
#
# Youngs Moduli (GPa) = 46.91724 46.91856 70.46827
#
# Poissons Ratio (x) = 0.49174 0.33318
# Poissons Ratio (y) = 0.49173 0.33321
# Poissons Ratio (z) = 0.22183 0.22185
#
# Static dielectric constant tensor:
#      x y z
#    x 1.902680 0.000000 0.000000 
#    y 0.000000 1.902680 0.000000 
#    z 0.000000 0.000000 1.819730 
# 
# From -- ./inp_files/8144.got.cif
#   From: 2010.05.17/outbox.cif.g08.bks.cpg/sg121_5_cif.got.tgz:8144.got - 2010.05.20 11:32:06.
