data_PCOD9560896
_publ_section_title
;
Structure prediction by ZEFSAII (Michael W. Deem and Ramdas Pophale) SiO2 
 PCOD9560896
Probable space group: I -4 2 D
;
_chemical_formula_sum "Si O2"
_cell_formula_units_Z 88
_cell_length_a 15.193248
_cell_length_b 15.193248
_cell_length_c 21.656399
_cell_angle_alpha 90.000000
_cell_angle_beta 90.000000
_cell_angle_gamma 90.000000
_cell_volume 4999.050202
_symmetry_space_group_name_H-M "I -4 2 D"
_symmetry_group_IT_number 122
_symmetry_cell_setting 'tetragonal'
loop_
_space_group_symop_operation_xyz
x,y,z
y,-x,-z
-x,-y,z
-y,x,-z
x,1/2-y,1/4-z
-x,1/2+y,1/4-z
-y,1/2-x,1/4+z
y,1/2+x,1/4+z
1/2+x,1/2+y,1/2+z
1/2+y,1/2-x,1/2-z
1/2-x,1/2-y,1/2+z
1/2-y,1/2+x,1/2-z
1/2+x,-y,3/4-z
1/2-x,y,3/4-z
1/2-y,-x,3/4+z
1/2+y,x,3/4+z
loop_
_atom_site_type_symbol
_atom_site_label
_atom_site_fract_x
_atom_site_fract_y
_atom_site_fract_z
Si Si1 0.187050 0.967230 0.957383
Si Si2 0.377497 0.244138 0.421582
Si Si3 0.000000 0.500000 0.250000
Si Si4 0.849484 0.266598 0.758522
Si Si5 0.541084 0.683429 0.952595
Si Si6 0.500000 0.000000 0.250000
Si Si7 0.750000 0.185838 0.875000
Si Si8 0.109877 0.750000 0.125000
O O1 0.188860 0.881542 0.913720
O O2 0.088748 0.003667 0.960572
O O3 0.251892 0.042463 0.932002
O O4 0.218931 0.937207 0.023859
O O5 0.302870 0.183537 0.455698
O O6 0.435952 0.202226 0.368151
O O7 0.329826 0.325220 0.387630
O O8 0.815944 0.364476 0.738581
O O9 0.803490 0.239789 0.823402
O O10 0.956054 0.265269 0.768922
O O11 0.509060 0.583980 0.957697
#
# Coordination Sequence:
#
# PCOD9560896 Si02
#       8
#    16  16   4  16  16   4   8   8
#     4  10  23  36  57  86 116 153 198 238 298 355
#     4  11  21  39  61  83 121 156 196 249 296 358
#     4  12  20  32  56  82 112 152 192 236 296 346
#     4  10  21  38  59  87 115 154 197 242 302 353
#     4  10  20  38  59  83 113 153 194 242 293 356
#     4   8  20  40  52  78 116 140 192 236 290 332
#     4   9  22  40  55  84 120 150 195 248 280 363
#     4  11  20  38  59  84 116 156 195 240 300 357
#
# _framework density 17.603344
#
# number of rings (size 3 to 8) (size 9 to 14) (size 15 to 20)
#    0.000    1.818    3.636    0.000    2.545    0.000 
#    9.818    0.000    0.000    2.182    0.000    0.000 
#    0.000    0.000    0.000    0.000    0.000    0.000 
#
# Total GULP energy -244949.920102 kJ/mol
# GULP energy per Si atom -5567.043639 kJ/mol
# Density = 1.756328 g / cm^3
# Si number density = 17.603344 Si / 1000 Ang^3
#
#
#
# Elastic Constant Matrix: (Units=GPa)
#
#
# Indices 1 2 3 4 5 6 
#
# 1 84.5925 48.8524 52.3548 0.0000 0.0000 0.0000
# 2 48.8524 84.5925 52.3548 0.0000 0.0000 0.0000
# 3 52.3548 52.3548 109.5309 0.0000 0.0000 0.0000
# 4 0.0000 0.0000 0.0000 14.2632 0.0000 0.0000
# 5 0.0000 0.0000 0.0000 0.0000 14.2632 0.0000
# 6 0.0000 0.0000 0.0000 0.0000 0.0000 15.3553
#
#
#
# Elastic Compliance Matrix: (Units=1/GPa)
#
#
# Indices 1 2 3 4 5 6 
#
# 1 0.019985 -0.007994 -0.005732 0.000000 0.000000 0.000000
# 2 -0.007994 0.019985 -0.005732 0.000000 0.000000 0.000000
# 3 -0.005732 -0.005732 0.014609 0.000000 0.000000 0.000000
# 4 0.000000 0.000000 0.000000 0.070110 0.000000 0.000000
# 5 0.000000 0.000000 0.000000 0.000000 0.070110 0.000000
# 6 0.000000 0.000000 0.000000 0.000000 0.000000 0.065124
#
#
# Mechanical properties :
#
#
# Convention : Reuss Voigt Hill
#
# Bulk Modulus (GPa) = 63.83708 65.09330 64.46519
# Shear Modulus (GPa) = 16.44402 17.11995 16.78198
#
# Velocity S-wave (km/s) = 3.05969 3.12194 3.09097
# Velocity P-wave (km/s) = 6.98750 7.07484 7.03131
#
# Compressibility (1/GPa) = 0.01566488
#
# Stress axis : x y z
#
# Youngs Moduli (GPa) = 50.03641 50.03641 68.44993
#
# Poissons Ratio (x) = 0.40000 0.39233
# Poissons Ratio (y) = 0.40000 0.39233
# Poissons Ratio (z) = 0.28679 0.28679
#
# Static dielectric constant tensor:
#      x y z
#    x 1.618670 0.000000 0.000000 
#    y 0.000000 1.618670 0.000000 
#    z 0.000000 0.000000 1.598490 
# 
# From -- ./inp_files/8030.got.cif
#   From: 2010.05.17/outbox.cif.g08.bks.cpg/sg122_5_cif.got.tgz:8030.got - 2010.05.20 11:37:33.
