data_PCOD9560139
_publ_section_title
;
Structure prediction by ZEFSAII (Michael W. Deem and Ramdas Pophale) SiO2 
 PCOD9560139
Probable space group: I -4 2 M
;
_chemical_formula_sum "Si O2"
_cell_formula_units_Z 72
_cell_length_a 15.117816
_cell_length_b 15.117816
_cell_length_c 14.192226
_cell_angle_alpha 90.000000
_cell_angle_beta 90.000000
_cell_angle_gamma 90.000000
_cell_volume 3243.609986
_symmetry_space_group_name_H-M "I -4 2 M"
_symmetry_group_IT_number 121
_symmetry_cell_setting 'tetragonal'
loop_
_space_group_symop_operation_xyz
x,y,z
y,-x,-z
-x,-y,z
-y,x,-z
x,-y,-z
-x,y,-z
-y,-x,z
y,x,z
1/2+x,1/2+y,1/2+z
1/2+y,1/2-x,1/2-z
1/2-x,1/2-y,1/2+z
1/2-y,1/2+x,1/2-z
1/2+x,1/2-y,1/2-z
1/2-x,1/2+y,1/2-z
1/2-y,1/2-x,1/2+z
1/2+y,1/2+x,1/2+z
loop_
_atom_site_type_symbol
_atom_site_label
_atom_site_fract_x
_atom_site_fract_y
_atom_site_fract_z
Si Si1 0.646825 0.213466 0.637397
Si Si2 0.714112 0.431237 0.155060
Si Si3 0.127114 0.269196 0.635087
Si Si4 0.500000 0.369861 0.500000
Si Si5 0.445518 0.778552 0.372349
O O1 0.697278 0.302723 0.605289
O O2 0.712685 0.134340 0.611984
O O3 0.638378 0.224507 0.750951
O O4 0.546618 0.192054 0.609368
O O5 0.619600 0.380401 0.147209
O O6 0.728506 0.530269 0.116640
O O7 0.743800 0.435871 0.265163
O O8 0.202367 0.202367 0.599861
O O9 0.151187 0.369188 0.604907
O O10 0.434881 0.434881 0.443602
O O11 0.558295 0.308362 0.435063
#
# Coordination Sequence:
#
# PCOD9560139 Si02
#       5
#    16  16  16   8  16
#     4   8  15  28  46  68  93 125 165 208 255 296
#     4   9  17  30  49  72  97 126 165 213 257 296
#     4   9  17  28  44  67  95 129 164 202 253 297
#     4  11  22  32  46  71 104 146 180 195 230 297
#     4  10  18  31  48  69 102 133 166 206 242 294
#
# _framework density 22.197490999999999
#
# number of rings (size 3 to 8) (size 9 to 14) (size 15 to 20)
#    0.000    2.778    0.000    4.000    0.000    2.222 
#    0.000    4.444    0.000    2.667    0.000    0.000 
#    0.000    0.000    0.000    7.111    0.000   23.778 
#
# Total GULP energy -200668.332999 kJ/mol
# GULP energy per Si atom -5574.120361 kJ/mol
# Density = 2.214697 g / cm^3
# Si number density = 22.197491 Si / 1000 Ang^3
#
#
#
# Elastic Constant Matrix: (Units=GPa)
#
#
# Indices 1 2 3 4 5 6 
#
# 1 155.5777 103.8413 15.1516 0.0000 0.0000 0.0000
# 2 103.8413 155.5721 15.1521 0.0000 0.0000 0.0000
# 3 15.1516 15.1521 40.8160 0.0000 0.0000 0.0000
# 4 0.0000 0.0000 0.0000 14.2655 0.0000 0.0000
# 5 0.0000 0.0000 0.0000 0.0000 14.2664 0.0000
# 6 0.0000 0.0000 0.0000 0.0000 0.0000 41.0115
#
#
#
# Elastic Compliance Matrix: (Units=1/GPa)
#
#
# Indices 1 2 3 4 5 6 
#
# 1 0.011679 -0.007650 -0.001496 0.000000 0.000000 0.000000
# 2 -0.007650 0.011680 -0.001496 0.000000 0.000000 0.000000
# 3 -0.001496 -0.001496 0.025611 0.000000 0.000000 0.000000
# 4 0.000000 0.000000 0.000000 0.070099 0.000000 0.000000
# 5 0.000000 0.000000 0.000000 0.000000 0.070095 0.000000
# 6 0.000000 0.000000 0.000000 0.000000 0.000000 0.024383
#
#
# Mechanical properties :
#
#
# Convention : Reuss Voigt Hill
#
# Bulk Modulus (GPa) = 36.11879 68.91731 52.51805
# Shear Modulus (GPa) = 20.48676 28.43006 24.45841
#
# Velocity S-wave (km/s) = 3.04127 3.58268 3.32302
# Velocity P-wave (km/s) = 5.35158 6.94470 6.19952
#
# Compressibility (1/GPa) = 0.02768642
#
# Stress axis : x y z
#
# Youngs Moduli (GPa) = 85.62056 85.61717 39.04607
#
# Poissons Ratio (x) = 0.65498 0.05840
# Poissons Ratio (y) = 0.65501 0.05842
# Poissons Ratio (z) = 0.12806 0.12809
#
# Static dielectric constant tensor:
#      x y z
#    x 1.813570 0.000000 0.000000 
#    y 0.000000 1.813570 0.000000 
#    z 0.000000 0.000000 1.886980 
# 
# From -- ./inp_files/5169.got.cif
#   From: 2010.05.17/outbox.cif.g08.bks.cpg/sg121_3_cif.got.tgz:5169.got - 2010.05.20 11:32:06.
