data_PCOD9560591
_publ_section_title
;
Structure prediction by ZEFSAII (Michael W. Deem and Ramdas Pophale) SiO2 
 PCOD9560591
Probable space group: I -4 2 M
;
_chemical_formula_sum "Si O2"
_cell_formula_units_Z 64
_cell_length_a 12.096717
_cell_length_b 12.096717
_cell_length_c 21.528560
_cell_angle_alpha 90.000000
_cell_angle_beta 90.000000
_cell_angle_gamma 90.000000
_cell_volume 3150.286288
_symmetry_space_group_name_H-M "I -4 2 M"
_symmetry_group_IT_number 121
_symmetry_cell_setting 'tetragonal'
loop_
_space_group_symop_operation_xyz
x,y,z
y,-x,-z
-x,-y,z
-y,x,-z
x,-y,-z
-x,y,-z
-y,-x,z
y,x,z
1/2+x,1/2+y,1/2+z
1/2+y,1/2-x,1/2-z
1/2-x,1/2-y,1/2+z
1/2-y,1/2+x,1/2-z
1/2+x,1/2-y,1/2-z
1/2-x,1/2+y,1/2-z
1/2-y,1/2-x,1/2+z
1/2+y,1/2+x,1/2+z
loop_
_atom_site_type_symbol
_atom_site_label
_atom_site_fract_x
_atom_site_fract_y
_atom_site_fract_z
Si Si1 0.030134 0.629586 0.428645
Si Si2 0.498275 0.687277 0.830491
Si Si3 0.182456 0.003846 0.194723
Si Si4 0.737055 0.558425 0.565500
O O1 0.982419 0.718526 0.381202
O O2 0.162092 0.640467 0.423843
O O3 0.000000 0.500000 0.416173
O O4 0.000000 0.651938 0.500000
O O5 0.387109 0.612892 0.840595
O O6 0.598021 0.598021 0.830526
O O7 0.494152 0.740691 0.761181
O O8 0.125090 0.125090 0.191497
O O9 0.237481 0.985187 0.127965
O O10 0.083945 0.916056 0.199162
O O11 0.758258 0.500000 0.500000
O O12 0.620706 0.620706 0.560050
#
# Coordination Sequence:
#
# PCOD9560591 Si02
#       4
#    16  16  16  16
#     4  11  23  43  56  80 125 162 194 242 298 354
#     4   9  19  39  67  93 116 150 199 253 301 348
#     4   8  16  34  59  89 120 145 187 248 296 343
#     4  11  21  37  61  88 118 157 198 239 293 353
#
# _framework density 20.315612000000002
#
# number of rings (size 3 to 8) (size 9 to 14) (size 15 to 20)
#    0.000    2.250    2.500    3.000    0.000    3.250 
#    4.500    1.250    0.000    0.000    0.000    0.000 
#    0.000    0.000    0.000    0.000    0.000    0.000 
#
# Total GULP energy -178216.638651 kJ/mol
# GULP energy per Si atom -5569.269958 kJ/mol
# Density = 2.026937 g / cm^3
# Si number density = 20.315612 Si / 1000 Ang^3
#
#
#
# Elastic Constant Matrix: (Units=GPa)
#
#
# Indices 1 2 3 4 5 6 
#
# 1 56.4133 -8.0379 46.3790 0.0000 0.0000 0.0000
# 2 -8.0379 56.4124 46.3784 0.0000 0.0000 0.0000
# 3 46.3790 46.3784 175.3361 0.0000 0.0000 0.0000
# 4 0.0000 0.0000 0.0000 3.1950 0.0000 0.0000
# 5 0.0000 0.0000 0.0000 0.0000 3.1942 0.0000
# 6 0.0000 0.0000 0.0000 0.0000 0.0000 12.7967
#
#
#
# Elastic Compliance Matrix: (Units=1/GPa)
#
#
# Indices 1 2 3 4 5 6 
#
# 1 0.028731 0.013216 -0.011096 0.000000 0.000000 0.000000
# 2 0.013216 0.028732 -0.011096 0.000000 0.000000 0.000000
# 3 -0.011096 -0.011096 0.011573 0.000000 0.000000 0.000000
# 4 0.000000 0.000000 0.000000 0.312991 0.000000 0.000000
# 5 0.000000 0.000000 0.000000 0.000000 0.313064 0.000000
# 6 0.000000 0.000000 0.000000 0.000000 0.000000 0.078145
#
#
# Mechanical properties :
#
#
# Convention : Reuss Voigt Hill
#
# Bulk Modulus (GPa) = 19.57508 50.84454 35.20981
# Shear Modulus (GPa) = 6.18646 17.39999 11.79322
#
# Velocity S-wave (km/s) = 1.74694 2.92975 2.41197
# Velocity P-wave (km/s) = 3.70479 6.04369 5.01257
#
# Compressibility (1/GPa) = 0.05108537
#
# Stress axis : x y z
#
# Youngs Moduli (GPa) = 34.80517 34.80477 86.40643
#
# Poissons Ratio (x) = -0.45997 0.95873
# Poissons Ratio (y) = -0.45998 0.95873
# Poissons Ratio (z) = 0.38618 0.38618
#
# Static dielectric constant tensor:
#      x y z
#    x 1.750630 0.000000 0.000000 
#    y 0.000000 1.750630 0.000000 
#    z 0.000000 0.000000 1.776410 
# 
# From -- ./inp_files/6015.got.cif
#   From: 2010.05.17/outbox.cif.g08.bks.cpg/sg121_4_cif.got.tgz:6015.got - 2010.05.20 11:32:06.
