data_PCOD9560352
_publ_section_title
;
Structure prediction by ZEFSAII (Michael W. Deem and Ramdas Pophale) SiO2 
 PCOD9560352
Probable space group: I -4 2 M
;
_chemical_formula_sum "Si O2"
_cell_formula_units_Z 120
_cell_length_a 21.728611
_cell_length_b 21.728611
_cell_length_c 14.771029
_cell_angle_alpha 90.000000
_cell_angle_beta 90.000000
_cell_angle_gamma 90.000000
_cell_volume 6973.883381
_symmetry_space_group_name_H-M "I -4 2 M"
_symmetry_group_IT_number 121
_symmetry_cell_setting 'tetragonal'
loop_
_space_group_symop_operation_xyz
x,y,z
y,-x,-z
-x,-y,z
-y,x,-z
x,-y,-z
-x,y,-z
-y,-x,z
y,x,z
1/2+x,1/2+y,1/2+z
1/2+y,1/2-x,1/2-z
1/2-x,1/2-y,1/2+z
1/2-y,1/2+x,1/2-z
1/2+x,1/2-y,1/2-z
1/2-x,1/2+y,1/2-z
1/2-y,1/2-x,1/2+z
1/2+y,1/2+x,1/2+z
loop_
_atom_site_type_symbol
_atom_site_label
_atom_site_fract_x
_atom_site_fract_y
_atom_site_fract_z
Si Si1 0.009256 0.803738 0.324979
Si Si2 0.500000 0.394694 0.000000
Si Si3 0.928972 0.175196 0.999022
Si Si4 0.330423 0.024341 0.399992
Si Si5 0.360267 0.836928 0.208950
Si Si6 0.452577 0.071459 0.214881
Si Si7 0.708550 0.394819 0.301712
Si Si8 0.118145 0.221179 0.813335
O O1 0.007960 0.850668 0.410756
O O2 0.998061 0.733507 0.356357
O O3 0.071467 0.800557 0.265728
O O4 0.952311 0.816144 0.257202
O O5 0.440429 0.440429 0.991597
O O6 0.883562 0.116439 0.999552
O O7 0.914885 0.212127 0.906625
O O8 0.915076 0.213558 0.089685
O O9 0.000000 0.156199 0.000000
O O10 0.389354 0.992304 0.354561
O O11 0.328844 0.000000 0.500000
O O12 0.333487 0.097606 0.381776
O O13 0.391396 0.891537 0.265527
O O14 0.371465 0.773038 0.261058
O O15 0.290057 0.856166 0.196541
O O16 0.500492 0.066376 0.300042
O O17 0.660019 0.339982 0.295344
O O18 0.175389 0.175389 0.812879
#
# Coordination Sequence:
#
# PCOD9560352 Si02
#       8
#    16   8  16  16  16  16  16  16
#     4  11  20  38  63  83 115 159 199 248 304 363
#     4  11  24  40  58  88 124 157 204 258 310 373
#     4  10  21  38  60  87 119 153 199 250 298 359
#     4  10  20  36  58  84 112 149 199 242 289 353
#     4  10  21  36  59  83 118 157 190 242 296 352
#     4   9  18  34  54  78 110 147 188 234 287 339
#     4  10  21  38  61  87 118 156 199 246 300 361
#     4  11  22  38  59  87 121 157 199 247 303 359
#
# _framework density 17.207056999999999
#
# number of rings (size 3 to 8) (size 9 to 14) (size 15 to 20)
#    0.000    1.800    3.333    1.200    0.000    1.200 
#    0.000    5.333    0.000    0.000    0.000    0.000 
#    0.000    0.000    0.000    0.000    0.000    0.000 
#
# Total GULP energy -334164.738397 kJ/mol
# GULP energy per Si atom -5569.412307 kJ/mol
# Density = 1.716789 g / cm^3
# Si number density = 17.207057 Si / 1000 Ang^3
#
#
#
# Elastic Constant Matrix: (Units=GPa)
#
#
# Indices 1 2 3 4 5 6 
#
# 1 136.2949 -26.2943 34.7524 0.0000 0.0000 0.0000
# 2 -26.2943 136.2881 34.7523 0.0000 0.0000 0.0000
# 3 34.7524 34.7523 104.7099 0.0000 0.0000 0.0000
# 4 0.0000 0.0000 0.0000 23.5949 0.0000 0.0000
# 5 0.0000 0.0000 0.0000 0.0000 23.5948 0.0000
# 6 0.0000 0.0000 0.0000 0.0000 0.0000 22.9303
#
#
#
# Elastic Compliance Matrix: (Units=1/GPa)
#
#
# Indices 1 2 3 4 5 6 
#
# 1 0.008827 0.002677 -0.003818 0.000000 0.000000 0.000000
# 2 0.002677 0.008827 -0.003818 0.000000 0.000000 0.000000
# 3 -0.003818 -0.003818 0.012084 0.000000 0.000000 0.000000
# 4 0.000000 0.000000 0.000000 0.042382 0.000000 0.000000
# 5 0.000000 0.000000 0.000000 0.000000 0.042382 0.000000
# 6 0.000000 0.000000 0.000000 0.000000 0.000000 0.043610
#
#
# Mechanical properties :
#
#
# Convention : Reuss Voigt Hill
#
# Bulk Modulus (GPa) = 50.45430 51.52372 50.98901
# Shear Modulus (GPa) = 28.63051 36.29617 32.46334
#
# Velocity S-wave (km/s) = 4.08350 4.59778 4.34825
# Velocity P-wave (km/s) = 7.18462 7.62853 7.40990
#
# Compressibility (1/GPa) = 0.01981992
#
# Stress axis : x y z
#
# Youngs Moduli (GPa) = 113.29041 113.28436 82.75077
#
# Poissons Ratio (x) = -0.30321 0.31593
# Poissons Ratio (y) = -0.30322 0.31594
# Poissons Ratio (z) = 0.43253 0.43252
#
# Static dielectric constant tensor:
#      x y z
#    x 1.603370 0.000000 0.000000 
#    y 0.000000 1.603370 0.000000 
#    z 0.000000 0.000000 1.594930 
# 
# From -- ./inp_files/4614.got.cif
#   From: 2010.05.17/outbox.cif.g08.bks.cpg/sg121_3_cif.got.tgz:4614.got - 2010.05.20 11:32:06.
