data_PCOD9560911
_publ_section_title
;
Structure prediction by ZEFSAII (Michael W. Deem and Ramdas Pophale) SiO2 
 PCOD9560911
Probable space group: I -4 2 D
;
_chemical_formula_sum "Si O2"
_cell_formula_units_Z 112
_cell_length_a 14.714679
_cell_length_b 14.714679
_cell_length_c 20.724904
_cell_angle_alpha 90.000000
_cell_angle_beta 90.000000
_cell_angle_gamma 90.000000
_cell_volume 4487.393064
_symmetry_space_group_name_H-M "I -4 2 D"
_symmetry_group_IT_number 122
_symmetry_cell_setting 'tetragonal'
loop_
_space_group_symop_operation_xyz
x,y,z
y,-x,-z
-x,-y,z
-y,x,-z
x,1/2-y,1/4-z
-x,1/2+y,1/4-z
-y,1/2-x,1/4+z
y,1/2+x,1/4+z
1/2+x,1/2+y,1/2+z
1/2+y,1/2-x,1/2-z
1/2-x,1/2-y,1/2+z
1/2-y,1/2+x,1/2-z
1/2+x,-y,3/4-z
1/2-x,y,3/4-z
1/2-y,-x,3/4+z
1/2+y,x,3/4+z
loop_
_atom_site_type_symbol
_atom_site_label
_atom_site_fract_x
_atom_site_fract_y
_atom_site_fract_z
Si Si1 0.462419 0.789751 0.189778
Si Si2 0.016463 0.127922 0.842240
Si Si3 0.823688 0.266752 0.978619
Si Si4 0.615066 0.560264 0.466362
Si Si5 0.906993 0.697674 0.802264
Si Si6 0.905128 0.535701 0.538756
Si Si7 0.144535 0.345326 0.025293
O O1 0.505208 0.750000 0.125000
O O2 0.389794 0.863625 0.166827
O O3 0.534070 0.828725 0.240006
O O4 0.405437 0.715225 0.231387
O O5 0.071246 0.078980 0.897629
O O6 0.037407 0.235069 0.847263
O O7 0.053014 0.085763 0.775037
O O8 0.908169 0.122109 0.837093
O O9 0.748169 0.193728 0.955422
O O10 0.895254 0.211523 0.021996
O O11 0.762030 0.328135 0.025139
O O12 0.885239 0.336234 0.935474
O O13 0.609380 0.455651 0.485045
O O14 0.846394 0.448523 0.515985
O O15 0.000000 0.500000 0.571929
#
# Coordination Sequence:
#
# PCOD9560911 Si02
#       7
#    16  16  16  16  16  16  16
#     4  10  21  40  69 102 133 180 231 295 367 430
#     4   9  20  39  65  94 131 186 236 284 363 425
#     4  10  20  39  60  96 134 173 231 289 349 424
#     4  11  25  38  60  95 142 179 232 302 349 420
#     4   9  21  39  69  99 135 175 235 299 346 452
#     4   9  18  34  66  91 126 180 228 283 348 433
#     4   9  19  36  65  94 128 176 229 293 345 430
#
# _framework density 24.958812999999999
#
# number of rings (size 3 to 8) (size 9 to 14) (size 15 to 20)
#    0.000    2.429    0.000    1.714   10.000    2.000 
#    0.000    5.000   18.857    0.000    0.000    0.000 
#    0.000    0.000    0.000    0.000    0.000    0.000 
#
# Total GULP energy -312718.226341 kJ/mol
# GULP energy per Si atom -5584.254042 kJ/mol
# Density = 2.490201 g / cm^3
# Si number density = 24.958813 Si / 1000 Ang^3
#
#
#
# Elastic Constant Matrix: (Units=GPa)
#
#
# Indices 1 2 3 4 5 6 
#
# 1 109.6011 59.0394 7.8143 0.0000 0.0000 0.0000
# 2 59.0394 109.6011 7.8143 0.0000 0.0000 0.0000
# 3 7.8143 7.8143 43.2644 0.0000 0.0000 0.0000
# 4 0.0000 0.0000 0.0000 11.6303 0.0000 0.0000
# 5 0.0000 0.0000 0.0000 0.0000 11.6303 0.0000
# 6 0.0000 0.0000 0.0000 0.0000 0.0000 56.6885
#
#
#
# Elastic Compliance Matrix: (Units=1/GPa)
#
#
# Indices 1 2 3 4 5 6 
#
# 1 0.012904 -0.006874 -0.001089 0.000000 0.000000 0.000000
# 2 -0.006874 0.012904 -0.001089 0.000000 0.000000 0.000000
# 3 -0.001089 -0.001089 0.023507 0.000000 0.000000 0.000000
# 4 0.000000 0.000000 0.000000 0.085983 0.000000 0.000000
# 5 0.000000 0.000000 0.000000 0.000000 0.085983 0.000000
# 6 0.000000 0.000000 0.000000 0.000000 0.000000 0.017640
#
#
# Mechanical properties :
#
#
# Convention : Reuss Voigt Hill
#
# Bulk Modulus (GPa) = 32.03934 45.75583 38.89758
# Shear Modulus (GPa) = 18.69654 28.50972 23.60313
#
# Velocity S-wave (km/s) = 2.73993 3.38342 3.07853
# Velocity P-wave (km/s) = 4.78272 5.79963 5.31555
#
# Compressibility (1/GPa) = 0.03121163
#
# Stress axis : x y z
#
# Youngs Moduli (GPa) = 77.49383 77.49383 42.54019
#
# Poissons Ratio (x) = 0.53266 0.04634
# Poissons Ratio (y) = 0.53266 0.04634
# Poissons Ratio (z) = 0.08441 0.08441
#
# Static dielectric constant tensor:
#      x y z
#    x 2.030380 0.000000 0.000000 
#    y 0.000000 2.030380 0.000000 
#    z 0.000000 0.000000 1.963620 
# 
# From -- ./inp_files/8130.got.cif
#   From: 2010.05.17/outbox.cif.g08.bks.cpg/sg122_5_cif.got.tgz:8130.got - 2010.05.20 11:37:33.
