data_PCOD9560324
_publ_section_title
;
Structure prediction by ZEFSAII (Michael W. Deem and Ramdas Pophale) SiO2 
 PCOD9560324
Probable space group: I -4 2 M
;
_chemical_formula_sum "Si O2"
_cell_formula_units_Z 96
_cell_length_a 19.575565
_cell_length_b 19.575565
_cell_length_c 15.278155
_cell_angle_alpha 90.000000
_cell_angle_beta 90.000000
_cell_angle_gamma 90.000000
_cell_volume 5854.630936
_symmetry_space_group_name_H-M "I -4 2 M"
_symmetry_group_IT_number 121
_symmetry_cell_setting 'tetragonal'
loop_
_space_group_symop_operation_xyz
x,y,z
y,-x,-z
-x,-y,z
-y,x,-z
x,-y,-z
-x,y,-z
-y,-x,z
y,x,z
1/2+x,1/2+y,1/2+z
1/2+y,1/2-x,1/2-z
1/2-x,1/2-y,1/2+z
1/2-y,1/2+x,1/2-z
1/2+x,1/2-y,1/2-z
1/2-x,1/2+y,1/2-z
1/2-y,1/2-x,1/2+z
1/2+y,1/2+x,1/2+z
loop_
_atom_site_type_symbol
_atom_site_label
_atom_site_fract_x
_atom_site_fract_y
_atom_site_fract_z
Si Si1 0.190239 0.926111 0.258492
Si Si2 0.646954 0.236326 0.096101
Si Si3 0.178739 0.937284 0.058650
Si Si4 0.815629 0.697643 0.725752
Si Si5 0.658603 0.223749 0.457466
Si Si6 0.965086 0.149617 0.594111
O O1 0.133271 0.866730 0.256801
O O2 0.194383 0.955149 0.159572
O O3 0.261074 0.886824 0.279950
O O4 0.164586 0.980184 0.329936
O O5 0.708517 0.291484 0.097587
O O6 0.655891 0.193569 0.184912
O O7 0.579949 0.281643 0.088319
O O8 0.661745 0.189097 0.013407
O O9 0.120879 0.879122 0.060413
O O10 0.243726 0.904683 0.008784
O O11 0.154778 0.000000 0.000000
O O12 0.757006 0.757006 0.726671
O O13 0.799901 0.651026 0.641983
O O14 0.716294 0.283707 0.456732
O O15 0.913512 0.086489 0.614144
O O16 0.000000 0.136686 0.500000
#
# Coordination Sequence:
#
# PCOD9560324 Si02
#       6
#    16  16  16  16  16  16
#     4  10  20  35  51  71 103 141 174 209 250 299
#     4   9  17  31  49  72  96 125 165 212 262 302
#     4  10  21  34  48  68  99 136 173 210 250 299
#     4   9  16  29  51  72  92 122 163 213 268 306
#     4   9  16  29  50  71  92 121 158 207 264 306
#     4  11  23  35  50  74 107 144 180 212 247 303
#
# _framework density 16.397276000000002
#
# number of rings (size 3 to 8) (size 9 to 14) (size 15 to 20)
#    0.000    2.333    1.667    1.500    2.333    4.667 
#    0.000    1.667    0.000    0.000    0.000    0.000 
#    0.000   12.000    0.000    0.000    0.000    0.000 
#
# Total GULP energy -267388.914498 kJ/mol
# GULP energy per Si atom -5570.602385 kJ/mol
# Density = 1.635996 g / cm^3
# Si number density = 16.397276 Si / 1000 Ang^3
#
#
#
# Elastic Constant Matrix: (Units=GPa)
#
#
# Indices 1 2 3 4 5 6 
#
# 1 18.1181 26.3820 7.7227 0.0000 0.0000 0.0000
# 2 26.3820 18.1177 7.7261 0.0000 0.0000 0.0000
# 3 7.7227 7.7261 72.2094 0.0000 0.0000 0.0000
# 4 0.0000 0.0000 0.0000 22.8617 0.0000 0.0000
# 5 0.0000 0.0000 0.0000 0.0000 22.8617 0.0000
# 6 0.0000 0.0000 0.0000 0.0000 0.0000 14.9425
#
#
#
# Elastic Compliance Matrix: (Units=1/GPa)
#
#
# Indices 1 2 3 4 5 6 
#
# 1 -0.048831 0.072172 -0.002500 0.000000 0.000000 0.000000
# 2 0.072172 -0.048835 -0.002494 0.000000 0.000000 0.000000
# 3 -0.002500 -0.002494 0.014383 0.000000 0.000000 0.000000
# 4 0.000000 0.000000 0.000000 0.043741 0.000000 0.000000
# 5 0.000000 0.000000 0.000000 0.000000 0.043741 0.000000
# 6 0.000000 0.000000 0.000000 0.000000 0.000000 0.066923
#
#
# Mechanical properties :
#
#
# Convention : Reuss Voigt Hill
#
# Bulk Modulus (GPa) = 19.57953 21.34519 20.46236
# Shear Modulus (GPa) = -108.20178 16.57416 -45.81381
#
# Velocity S-wave (km/s) = -8.13209 3.18274 -5.29155
# Velocity P-wave (km/s) = 8.72971 5.15288 4.98275
#
# Compressibility (1/GPa) = 0.05107375
#
# Stress axis : x y z
#
# Youngs Moduli (GPa) = -20.47870 -20.47727 69.52772
#
# Poissons Ratio (x) = 1.47788 0.17379
# Poissons Ratio (y) = 1.47798 0.17337
# Poissons Ratio (z) = -0.05119 -0.05106
#
# Static dielectric constant tensor:
#      x y z
#    x 1.548390 0.000000 0.000000 
#    y 0.000000 1.548390 0.000000 
#    z 0.000000 0.000000 1.568100 
# 
# From -- ./inp_files/4515.got.cif
#   From: 2010.05.17/outbox.cif.g08.bks.cpg/sg121_3_cif.got.tgz:4515.got - 2010.05.20 11:32:06.
