data_PCOD9560239
_publ_section_title
;
Structure prediction by ZEFSAII (Michael W. Deem and Ramdas Pophale) SiO2 
 PCOD9560239
Probable space group: I -4 2 M
;
_chemical_formula_sum "Si O2"
_cell_formula_units_Z 128
_cell_length_a 23.231158
_cell_length_b 23.231158
_cell_length_c 12.329789
_cell_angle_alpha 90.000000
_cell_angle_beta 90.000000
_cell_angle_gamma 90.000000
_cell_volume 6654.223162
_symmetry_space_group_name_H-M "I -4 2 M"
_symmetry_group_IT_number 121
_symmetry_cell_setting 'tetragonal'
loop_
_space_group_symop_operation_xyz
x,y,z
y,-x,-z
-x,-y,z
-y,x,-z
x,-y,-z
-x,y,-z
-y,-x,z
y,x,z
1/2+x,1/2+y,1/2+z
1/2+y,1/2-x,1/2-z
1/2-x,1/2-y,1/2+z
1/2-y,1/2+x,1/2-z
1/2+x,1/2-y,1/2-z
1/2-x,1/2+y,1/2-z
1/2-y,1/2-x,1/2+z
1/2+y,1/2+x,1/2+z
loop_
_atom_site_type_symbol
_atom_site_label
_atom_site_fract_x
_atom_site_fract_y
_atom_site_fract_z
Si Si1 0.560764 0.349624 0.009383
Si Si2 0.820391 0.452778 0.819599
Si Si3 0.662638 0.860061 0.515795
Si Si4 0.075118 0.260735 0.351171
Si Si5 0.301183 0.392174 0.217299
Si Si6 0.258579 0.355116 0.628579
Si Si7 0.206970 0.054379 0.942060
Si Si8 0.160596 0.457860 0.408972
O O1 0.609755 0.390246 0.052729
O O2 0.554847 0.297743 0.092790
O O3 0.500000 0.380335 0.000000
O O4 0.579540 0.327685 0.890579
O O5 0.850026 0.416961 0.913880
O O6 0.797838 0.516406 0.847863
O O7 0.766468 0.408631 0.793369
O O8 0.859117 0.462009 0.713844
O O9 0.713077 0.877649 0.433648
O O10 0.670834 0.802713 0.588146
O O11 0.606830 0.846859 0.445828
O O12 0.104542 0.252445 0.233833
O O13 0.326800 0.326800 0.219261
O O14 0.319611 0.421126 0.331375
O O15 0.304887 0.304887 0.650941
O O16 0.282302 0.395510 0.530495
O O17 0.270297 0.030853 0.905717
O O18 0.177300 0.000000 0.000000
O O19 0.136203 0.500000 0.500000
#
# Coordination Sequence:
#
# PCOD9560239 Si02
#       8
#    16  16  16  16  16  16  16  16
#     4  11  22  37  58  87 118 157 202 253 301 349
#     4  11  20  37  62  84 115 160 209 246 293 361
#     4  11  22  37  57  88 120 157 194 245 304 362
#     4  12  22  41  62  88 119 159 212 247 291 363
#     4  10  19  33  56  84 114 148 198 252 297 342
#     4  11  24  38  57  88 128 163 193 246 316 369
#     4   9  18  35  57  81 113 159 205 244 283 357
#     4   9  19  35  56  84 115 152 194 246 294 352
#
# _framework density 19.235904000000001
#
# number of rings (size 3 to 8) (size 9 to 14) (size 15 to 20)
#    0.000    1.500    2.500    4.875    0.000    1.625 
#    0.000    0.000    0.000    1.500    0.000    3.500 
#    0.000    3.250    0.000    0.000    0.000    0.000 
#
# Total GULP energy -356620.815075 kJ/mol
# GULP energy per Si atom -5572.200236 kJ/mol
# Density = 1.919212 g / cm^3
# Si number density = 19.235904 Si / 1000 Ang^3
#
#
#
# Elastic Constant Matrix: (Units=GPa)
#
#
# Indices 1 2 3 4 5 6 
#
# 1 42.2476 18.1557 8.1240 0.0000 0.0000 0.0000
# 2 18.1557 42.2537 8.1230 0.0000 0.0000 0.0000
# 3 8.1240 8.1230 84.0030 0.0000 0.0000 0.0000
# 4 0.0000 0.0000 0.0000 18.5499 0.0000 0.0000
# 5 0.0000 0.0000 0.0000 0.0000 18.5557 0.0000
# 6 0.0000 0.0000 0.0000 0.0000 0.0000 15.3740
#
#
#
# Elastic Compliance Matrix: (Units=1/GPa)
#
#
# Indices 1 2 3 4 5 6 
#
# 1 0.029252 -0.012253 -0.001644 0.000000 0.000000 0.000000
# 2 -0.012253 0.029247 -0.001643 0.000000 0.000000 0.000000
# 3 -0.001644 -0.001643 0.012222 0.000000 0.000000 0.000000
# 4 0.000000 0.000000 0.000000 0.053909 0.000000 0.000000
# 5 0.000000 0.000000 0.000000 0.000000 0.053892 0.000000
# 6 0.000000 0.000000 0.000000 0.000000 0.000000 0.065045
#
#
# Mechanical properties :
#
#
# Convention : Reuss Voigt Hill
#
# Bulk Modulus (GPa) = 25.22647 26.36772 25.79710
# Shear Modulus (GPa) = 17.36952 19.43604 18.40278
#
# Velocity S-wave (km/s) = 3.00821 3.18213 3.09639
# Velocity P-wave (km/s) = 5.02081 5.21906 5.12090
#
# Compressibility (1/GPa) = 0.03964090
#
# Stress axis : x y z
#
# Youngs Moduli (GPa) = 34.18597 34.19116 81.81806
#
# Poissons Ratio (x) = 0.41894 0.13452
# Poissons Ratio (y) = 0.41888 0.13444
# Poissons Ratio (z) = 0.05621 0.05618
#
# Static dielectric constant tensor:
#      x y z
#    x 1.688920 0.000000 0.000000 
#    y 0.000000 1.688900 0.000000 
#    z 0.000000 0.000000 1.723190 
# 
# From -- ./inp_files/3558.got.cif
#   From: 2010.05.17/outbox.cif.g08.bks.cpg/sg121_2_cif.got.tgz:3558.got - 2010.05.20 11:32:06.
