data_PCOD9560137
_publ_section_title
;
Structure prediction by ZEFSAII (Michael W. Deem and Ramdas Pophale) SiO2 
 PCOD9560137
Probable space group: I -4 2 M
;
_chemical_formula_sum "Si O2"
_cell_formula_units_Z 112
_cell_length_a 21.849650
_cell_length_b 21.849650
_cell_length_c 12.882808
_cell_angle_alpha 90.000000
_cell_angle_beta 90.000000
_cell_angle_gamma 90.000000
_cell_volume 6150.345361
_symmetry_space_group_name_H-M "I -4 2 M"
_symmetry_group_IT_number 121
_symmetry_cell_setting 'tetragonal'
loop_
_space_group_symop_operation_xyz
x,y,z
y,-x,-z
-x,-y,z
-y,x,-z
x,-y,-z
-x,y,-z
-y,-x,z
y,x,z
1/2+x,1/2+y,1/2+z
1/2+y,1/2-x,1/2-z
1/2-x,1/2-y,1/2+z
1/2-y,1/2+x,1/2-z
1/2+x,1/2-y,1/2-z
1/2-x,1/2+y,1/2-z
1/2-y,1/2-x,1/2+z
1/2+y,1/2+x,1/2+z
loop_
_atom_site_type_symbol
_atom_site_label
_atom_site_fract_x
_atom_site_fract_y
_atom_site_fract_z
Si Si1 0.197162 0.378000 0.882104
Si Si2 0.405550 0.037480 0.126521
Si Si3 0.964425 0.410679 0.622237
Si Si4 0.238022 0.340373 0.095146
Si Si5 0.217614 0.393447 0.642852
Si Si6 0.358281 0.746451 0.677381
Si Si7 0.928277 0.174458 0.005637
O O1 0.150535 0.431670 0.910453
O O2 0.223601 0.392698 0.768025
O O3 0.161610 0.313070 0.865176
O O4 0.239091 0.371498 0.982994
O O5 0.408725 0.036986 0.252120
O O6 0.338172 0.062738 0.105334
O O7 0.421917 0.968641 0.093960
O O8 0.464762 0.077905 0.094295
O O9 0.291047 0.291047 0.096133
O O10 0.173823 0.304819 0.108867
O O11 0.245231 0.377922 0.202432
O O12 0.280470 0.410674 0.588604
O O13 0.298371 0.701630 0.672789
O O14 0.409235 0.714115 0.607324
O O15 0.885287 0.114714 0.004348
O O16 0.000000 0.160643 0.000000
#
# Coordination Sequence:
#
# PCOD9560137 Si02
#       7
#    16  16  16  16  16  16  16
#     4  10  18  30  53  84 114 154 191 241 274 327
#     4   8  15  29  46  70 106 153 190 231 272 321
#     4   8  15  28  47  70 106 149 197 230 267 315
#     4  10  19  33  53  76 110 153 192 232 285 341
#     4  10  20  32  54  85 113 150 190 242 286 339
#     4   9  19  35  55  80 111 148 192 234 284 349
#     4  11  24  42  65  90 115 143 188 247 308 372
#
# _framework density 18.210359
#
# number of rings (size 3 to 8) (size 9 to 14) (size 15 to 20)
#    0.000    2.571    1.429    1.714    2.000    1.857 
#    2.571    0.714    0.000    1.714    0.000    2.000 
#    0.000    0.000    0.000    3.714    0.000    0.000 
#
# Total GULP energy -312567.928979 kJ/mol
# GULP energy per Si atom -5581.570160 kJ/mol
# Density = 1.816891 g / cm^3
# Si number density = 18.210359 Si / 1000 Ang^3
#
#
#
# Elastic Constant Matrix: (Units=GPa)
#
#
# Indices 1 2 3 4 5 6 
#
# 1 75.7079 32.5033 42.0867 0.0000 0.0000 0.0000
# 2 32.5033 75.7111 42.0863 0.0000 0.0000 0.0000
# 3 42.0867 42.0863 132.5700 0.0000 0.0000 0.0000
# 4 0.0000 0.0000 0.0000 24.4649 0.0000 0.0000
# 5 0.0000 0.0000 0.0000 0.0000 24.4644 0.0000
# 6 0.0000 0.0000 0.0000 0.0000 0.0000 14.5672
#
#
#
# Elastic Compliance Matrix: (Units=1/GPa)
#
#
# Indices 1 2 3 4 5 6 
#
# 1 0.017709 -0.005437 -0.003896 0.000000 0.000000 0.000000
# 2 -0.005437 0.017708 -0.003896 0.000000 0.000000 0.000000
# 3 -0.003896 -0.003896 0.010017 0.000000 0.000000 0.000000
# 4 0.000000 0.000000 0.000000 0.040875 0.000000 0.000000
# 5 0.000000 0.000000 0.000000 0.000000 0.040876 0.000000
# 6 0.000000 0.000000 0.000000 0.000000 0.000000 0.068648
#
#
# Mechanical properties :
#
#
# Convention : Reuss Voigt Hill
#
# Bulk Modulus (GPa) = 52.69690 57.48240 55.08965
# Shear Modulus (GPa) = 21.87104 23.85349 22.86227
#
# Velocity S-wave (km/s) = 3.46934 3.62316 3.54708
# Velocity P-wave (km/s) = 6.71186 7.00980 6.86245
#
# Compressibility (1/GPa) = 0.01897645
#
# Stress axis : x y z
#
# Youngs Moduli (GPa) = 56.46979 56.47294 99.83317
#
# Poissons Ratio (x) = 0.30703 0.38894
# Poissons Ratio (y) = 0.30701 0.38890
# Poissons Ratio (z) = 0.22000 0.21999
#
# Static dielectric constant tensor:
#      x y z
#    x 1.607890 0.000000 0.000000 
#    y 0.000000 1.607890 0.000000 
#    z 0.000000 0.000000 1.747690 
# 
# From -- ./inp_files/3492.got.cif
#   From: 2010.05.17/outbox.cif.g08.bks.cpg/sg121_2_cif.got.tgz:3492.got - 2010.05.20 11:32:06.
