data_PCOD9560537
_publ_section_title
;
Structure prediction by ZEFSAII (Michael W. Deem and Ramdas Pophale) SiO2 
 PCOD9560537
Probable space group: I -4 2 M
;
_chemical_formula_sum "Si O2"
_cell_formula_units_Z 42
_cell_length_a 11.763226
_cell_length_b 11.763226
_cell_length_c 16.970788
_cell_angle_alpha 90.000000
_cell_angle_beta 90.000000
_cell_angle_gamma 90.000000
_cell_volume 2348.307094
_symmetry_space_group_name_H-M "I -4 2 M"
_symmetry_group_IT_number 121
_symmetry_cell_setting 'tetragonal'
loop_
_space_group_symop_operation_xyz
x,y,z
y,-x,-z
-x,-y,z
-y,x,-z
x,-y,-z
-x,y,-z
-y,-x,z
y,x,z
1/2+x,1/2+y,1/2+z
1/2+y,1/2-x,1/2-z
1/2-x,1/2-y,1/2+z
1/2-y,1/2+x,1/2-z
1/2+x,1/2-y,1/2-z
1/2-x,1/2+y,1/2-z
1/2-y,1/2-x,1/2+z
1/2+y,1/2+x,1/2+z
loop_
_atom_site_type_symbol
_atom_site_label
_atom_site_fract_x
_atom_site_fract_y
_atom_site_fract_z
Si Si1 0.091943 0.091943 0.343080
Si Si2 0.186823 0.466229 0.744998
Si Si3 0.000000 0.000000 0.500000
Si Si4 0.505401 0.687225 0.416074
O O1 0.215860 0.060133 0.309478
O O2 0.074476 0.074476 0.437583
O O3 0.000000 0.000000 0.309022
O O4 0.127652 0.588133 0.756608
O O5 0.243312 0.470896 0.659488
O O6 0.500000 0.750431 0.500000
O O7 0.414037 0.585964 0.424881
O O8 0.627375 0.627375 0.403704
#
# Coordination Sequence:
#
# PCOD9560537 Si02
#       4
#     8  16   2  16
#     4  10  22  43  67  84 127 165 203 248 308 374
#     4  11  24  40  60  93 125 164 210 253 307 369
#     4   8  24  44  60 104 110 172 212 232 308 400
#     4   9  18  35  59  88 116 149 201 254 306 359
#
# _framework density 17.885224000000001
#
# number of rings (size 3 to 8) (size 9 to 14) (size 15 to 20)
#    0.571    1.524    1.905    2.286    5.333    0.000 
#    6.857    1.905    0.000    0.000    0.000    0.000 
#    0.000    0.000    0.000    0.000    0.000    0.000 
#
# Total GULP energy -116986.004332 kJ/mol
# GULP energy per Si atom -5570.762111 kJ/mol
# Density = 1.784452 g / cm^3
# Si number density = 17.885224 Si / 1000 Ang^3
#
#
#
# Elastic Constant Matrix: (Units=GPa)
#
#
# Indices 1 2 3 4 5 6 
#
# 1 97.3698 45.0721 53.0393 0.0000 0.0000 0.0000
# 2 45.0721 97.3702 53.0397 0.0000 0.0000 0.0000
# 3 53.0393 53.0397 175.3924 0.0000 0.0000 0.0000
# 4 0.0000 0.0000 0.0000 4.0055 0.0000 0.0000
# 5 0.0000 0.0000 0.0000 0.0000 4.0062 0.0000
# 6 0.0000 0.0000 0.0000 0.0000 0.0000 9.9413
#
#
#
# Elastic Compliance Matrix: (Units=1/GPa)
#
#
# Indices 1 2 3 4 5 6 
#
# 1 0.014091 -0.005030 -0.002740 0.000000 0.000000 0.000000
# 2 -0.005030 0.014091 -0.002740 0.000000 0.000000 0.000000
# 3 -0.002740 -0.002740 0.007359 0.000000 0.000000 0.000000
# 4 0.000000 0.000000 0.000000 0.249659 0.000000 0.000000
# 5 0.000000 0.000000 0.000000 0.000000 0.249613 0.000000
# 6 0.000000 0.000000 0.000000 0.000000 0.000000 0.100590
#
#
# Mechanical properties :
#
#
# Convention : Reuss Voigt Hill
#
# Bulk Modulus (GPa) = 68.86885 74.71497 71.79191
# Shear Modulus (GPa) = 7.56129 18.18936 12.87532
#
# Velocity S-wave (km/s) = 2.05836 3.19251 2.68598
# Velocity P-wave (km/s) = 6.65122 7.44680 7.06023
#
# Compressibility (1/GPa) = 0.01452035
#
# Stress axis : x y z
#
# Youngs Moduli (GPa) = 70.96669 70.96684 135.89310
#
# Poissons Ratio (x) = 0.35697 0.37236
# Poissons Ratio (y) = 0.35697 0.37236
# Poissons Ratio (z) = 0.19445 0.19446
#
# Static dielectric constant tensor:
#      x y z
#    x 1.585390 0.000000 0.000000 
#    y 0.000000 1.585400 0.000000 
#    z 0.000000 0.000000 1.627000 
# 
# From -- ./inp_files/4837.got.cif
#   From: 2010.05.17/outbox.cif.g08.bks.cpg/sg121_3_cif.got.tgz:4837.got - 2010.05.20 11:32:06.
