data_PCOD9560448
_publ_section_title
;
Structure prediction by ZEFSAII (Michael W. Deem and Ramdas Pophale) SiO2 
 PCOD9560448
Probable space group: I -4 2 M
;
_chemical_formula_sum "Si O2"
_cell_formula_units_Z 80
_cell_length_a 16.880125
_cell_length_b 16.880125
_cell_length_c 14.772944
_cell_angle_alpha 90.000000
_cell_angle_beta 90.000000
_cell_angle_gamma 90.000000
_cell_volume 4209.382277
_symmetry_space_group_name_H-M "I -4 2 M"
_symmetry_group_IT_number 121
_symmetry_cell_setting 'tetragonal'
loop_
_space_group_symop_operation_xyz
x,y,z
y,-x,-z
-x,-y,z
-y,x,-z
x,-y,-z
-x,y,-z
-y,-x,z
y,x,z
1/2+x,1/2+y,1/2+z
1/2+y,1/2-x,1/2-z
1/2-x,1/2-y,1/2+z
1/2-y,1/2+x,1/2-z
1/2+x,1/2-y,1/2-z
1/2-x,1/2+y,1/2-z
1/2-y,1/2-x,1/2+z
1/2+y,1/2+x,1/2+z
loop_
_atom_site_type_symbol
_atom_site_label
_atom_site_fract_x
_atom_site_fract_y
_atom_site_fract_z
Si Si1 0.304961 0.988129 0.900763
Si Si2 0.630194 0.502782 0.097369
Si Si3 0.727436 0.978304 0.703828
Si Si4 0.881998 0.430883 0.073553
Si Si5 0.694645 0.829160 0.577044
O O1 0.308175 0.893841 0.887898
O O2 0.271201 0.028454 0.811085
O O3 0.388903 0.034268 0.908725
O O4 0.266330 0.000000 0.000000
O O5 0.561457 0.438544 0.090088
O O6 0.586603 0.586603 0.111113
O O7 0.690868 0.482043 0.174067
O O8 0.672917 0.500000 0.000000
O O9 0.724729 0.896862 0.646371
O O10 0.656429 0.032134 0.663706
O O11 0.890512 0.500000 0.000000
O O12 0.824287 0.367726 0.021989
O O13 0.756803 0.756803 0.572676
#
# Coordination Sequence:
#
# PCOD9560448 Si02
#       5
#    16  16  16  16  16
#     4  10  22  39  53  76 113 150 186 221 270 329
#     4   9  18  33  54  82 115 147 182 230 286 338
#     4  11  20  33  57  85 111 144 185 230 279 335
#     4   9  20  37  59  84 111 144 184 230 282 335
#     4  10  21  37  58  84 113 142 181 234 285 333
#
# _framework density 19.005163
#
# number of rings (size 3 to 8) (size 9 to 14) (size 15 to 20)
#    0.000    2.200    0.000    4.200    0.000   12.400 
#    0.000   18.000    0.000    0.000    0.000    1.400 
#    0.000    1.600    0.000    0.000    0.000    0.000 
#
# Total GULP energy -222908.671220 kJ/mol
# GULP energy per Si atom -5572.716780 kJ/mol
# Density = 1.896191 g / cm^3
# Si number density = 19.005163 Si / 1000 Ang^3
#
#
#
# Elastic Constant Matrix: (Units=GPa)
#
#
# Indices 1 2 3 4 5 6 
#
# 1 86.3979 25.9681 14.7522 0.0000 0.0000 0.0000
# 2 25.9681 86.3974 14.7521 0.0000 0.0000 0.0000
# 3 14.7522 14.7521 96.1670 0.0000 0.0000 0.0000
# 4 0.0000 0.0000 0.0000 9.3263 0.0000 0.0000
# 5 0.0000 0.0000 0.0000 0.0000 9.3273 0.0000
# 6 0.0000 0.0000 0.0000 0.0000 0.0000 31.0870
#
#
#
# Elastic Compliance Matrix: (Units=1/GPa)
#
#
# Indices 1 2 3 4 5 6 
#
# 1 0.012911 -0.003638 -0.001423 0.000000 0.000000 0.000000
# 2 -0.003638 0.012911 -0.001422 0.000000 0.000000 0.000000
# 3 -0.001423 -0.001422 0.010835 0.000000 0.000000 0.000000
# 4 0.000000 0.000000 0.000000 0.107224 0.000000 0.000000
# 5 0.000000 0.000000 0.000000 0.000000 0.107212 0.000000
# 6 0.000000 0.000000 0.000000 0.000000 0.000000 0.032168
#
#
# Mechanical properties :
#
#
# Convention : Reuss Voigt Hill
#
# Bulk Modulus (GPa) = 42.21002 42.21191 42.21097
# Shear Modulus (GPa) = 16.44074 24.18077 20.31075
#
# Velocity S-wave (km/s) = 2.94439 3.57084 3.27264
# Velocity P-wave (km/s) = 5.81526 6.26579 6.04473
#
# Compressibility (1/GPa) = 0.02369106
#
# Stress axis : x y z
#
# Youngs Moduli (GPa) = 77.45590 77.45544 92.29342
#
# Poissons Ratio (x) = 0.28175 0.13129
# Poissons Ratio (y) = 0.28175 0.13129
# Poissons Ratio (z) = 0.11018 0.11018
#
# Static dielectric constant tensor:
#      x y z
#    x 1.693140 0.000000 0.000000 
#    y 0.000000 1.693140 0.000000 
#    z 0.000000 0.000000 1.703590 
# 
# From -- ./inp_files/4241.got.cif
#   From: 2010.05.17/outbox.cif.g08.bks.cpg/sg121_3_cif.got.tgz:4241.got - 2010.05.20 11:32:06.
