data_PCOD9560941
_publ_section_title
;
Structure prediction by ZEFSAII (Michael W. Deem and Ramdas Pophale) SiO2 
 PCOD9560941
Probable space group: I -4 2 D
;
_chemical_formula_sum "Si O2"
_cell_formula_units_Z 80
_cell_length_a 14.655016
_cell_length_b 14.655016
_cell_length_c 17.087576
_cell_angle_alpha 90.000000
_cell_angle_beta 90.000000
_cell_angle_gamma 90.000000
_cell_volume 3669.890051
_symmetry_space_group_name_H-M "I -4 2 D"
_symmetry_group_IT_number 122
_symmetry_cell_setting 'tetragonal'
loop_
_space_group_symop_operation_xyz
x,y,z
y,-x,-z
-x,-y,z
-y,x,-z
x,1/2-y,1/4-z
-x,1/2+y,1/4-z
-y,1/2-x,1/4+z
y,1/2+x,1/4+z
1/2+x,1/2+y,1/2+z
1/2+y,1/2-x,1/2-z
1/2-x,1/2-y,1/2+z
1/2-y,1/2+x,1/2-z
1/2+x,-y,3/4-z
1/2-x,y,3/4-z
1/2-y,-x,3/4+z
1/2+y,x,3/4+z
loop_
_atom_site_type_symbol
_atom_site_label
_atom_site_fract_x
_atom_site_fract_y
_atom_site_fract_z
Si Si1 0.910262 0.183113 0.000565
Si Si2 0.060839 0.376565 0.787953
Si Si3 0.496076 0.866634 0.459502
Si Si4 0.355409 0.958122 0.873192
Si Si5 0.708710 0.343050 0.788111
O O1 0.985623 0.256582 0.970577
O O2 0.906941 0.102327 0.939380
O O3 0.819244 0.244093 0.996537
O O4 0.940458 0.151182 0.086172
O O5 0.116733 0.460439 0.750872
O O6 0.106771 0.281762 0.765249
O O7 0.047505 0.389173 0.880485
O O8 0.540782 0.896576 0.540697
O O9 0.389178 0.894200 0.455118
O O10 0.250000 0.925062 0.875000
O O11 0.750000 0.332907 0.875000
#
# Coordination Sequence:
#
# PCOD9560941 Si02
#       5
#    16  16  16  16  16
#     4   9  21  39  68  93 135 183 213 281 347 414
#     4  11  22  42  70  97 134 178 232 296 347 405
#     4   9  22  41  65 100 130 177 228 288 337 419
#     4  10  20  41  62 100 135 170 227 277 337 413
#     4  10  20  43  68  92 135 181 225 280 347 419
#
# _framework density 21.799016999999999
#
# number of rings (size 3 to 8) (size 9 to 14) (size 15 to 20)
#    1.200    1.000    2.000    0.600    0.000    3.600 
#    3.600    4.000    4.400    0.000    0.000    0.000 
#    0.000    0.000    0.000    0.000    0.000    0.000 
#
# Total GULP energy -223209.319155 kJ/mol
# GULP energy per Si atom -5580.232979 kJ/mol
# Density = 2.174940 g / cm^3
# Si number density = 21.799017 Si / 1000 Ang^3
#
#
#
# Elastic Constant Matrix: (Units=GPa)
#
#
# Indices 1 2 3 4 5 6 
#
# 1 53.6880 17.4189 35.7790 0.0000 0.0000 0.0000
# 2 17.4189 53.6880 35.7790 0.0000 0.0000 0.0000
# 3 35.7790 35.7790 171.6493 0.0000 0.0000 0.0000
# 4 0.0000 0.0000 0.0000 27.5314 0.0000 0.0000
# 5 0.0000 0.0000 0.0000 0.0000 27.5314 0.0000
# 6 0.0000 0.0000 0.0000 0.0000 0.0000 16.7027
#
#
#
# Elastic Compliance Matrix: (Units=1/GPa)
#
#
# Indices 1 2 3 4 5 6 
#
# 1 0.022684 -0.004888 -0.003710 0.000000 0.000000 0.000000
# 2 -0.004888 0.022684 -0.003710 0.000000 0.000000 0.000000
# 3 -0.003710 -0.003710 0.007372 0.000000 0.000000 0.000000
# 4 0.000000 0.000000 0.000000 0.036322 0.000000 0.000000
# 5 0.000000 0.000000 0.000000 0.000000 0.036322 0.000000
# 6 0.000000 0.000000 0.000000 0.000000 0.000000 0.059871
#
#
# Mechanical properties :
#
#
# Convention : Reuss Voigt Hill
#
# Bulk Modulus (GPa) = 35.55310 50.77545 43.16427
# Shear Modulus (GPa) = 22.80560 27.02298 24.91429
#
# Velocity S-wave (km/s) = 3.23797 3.52468 3.38436
# Velocity P-wave (km/s) = 5.50674 6.31724 5.92586
#
# Compressibility (1/GPa) = 0.02812694
#
# Stress axis : x y z
#
# Youngs Moduli (GPa) = 44.08392 44.08392 135.64341
#
# Poissons Ratio (x) = 0.21547 0.50317
# Poissons Ratio (y) = 0.21547 0.50317
# Poissons Ratio (z) = 0.16353 0.16353
#
# Static dielectric constant tensor:
#      x y z
#    x 1.829110 0.000000 0.000000 
#    y 0.000000 1.829110 0.000000 
#    z 0.000000 0.000000 1.768840 
# 
# From -- ./inp_files/5289.got.cif
#   From: 2010.05.17/outbox.cif.g08.bks.cpg/sg122_3_cif.got.tgz:5289.got - 2010.05.20 11:37:33.
