data_PCOD9560088
_publ_section_title
;
Structure prediction by ZEFSAII (Michael W. Deem and Ramdas Pophale) SiO2 
 PCOD9560088
Probable space group: I -4 2 M
;
_chemical_formula_sum "Si O2"
_cell_formula_units_Z 64
_cell_length_a 11.875708
_cell_length_b 11.875708
_cell_length_c 22.443678
_cell_angle_alpha 90.000000
_cell_angle_beta 90.000000
_cell_angle_gamma 90.000000
_cell_volume 3165.286682
_symmetry_space_group_name_H-M "I -4 2 M"
_symmetry_group_IT_number 121
_symmetry_cell_setting 'tetragonal'
loop_
_space_group_symop_operation_xyz
x,y,z
y,-x,-z
-x,-y,z
-y,x,-z
x,-y,-z
-x,y,-z
-y,-x,z
y,x,z
1/2+x,1/2+y,1/2+z
1/2+y,1/2-x,1/2-z
1/2-x,1/2-y,1/2+z
1/2-y,1/2+x,1/2-z
1/2+x,1/2-y,1/2-z
1/2-x,1/2+y,1/2-z
1/2-y,1/2-x,1/2+z
1/2+y,1/2+x,1/2+z
loop_
_atom_site_type_symbol
_atom_site_label
_atom_site_fract_x
_atom_site_fract_y
_atom_site_fract_z
Si Si1 0.095404 0.904597 0.746884
Si Si2 0.500000 0.000000 0.604922
Si Si3 0.000000 0.669842 0.000000
Si Si4 0.736767 0.736767 0.515795
Si Si5 0.222180 0.222180 0.158808
Si Si6 0.094840 0.905161 0.434962
Si Si7 0.520557 0.773559 0.162317
O O1 0.137122 0.862879 0.810709
O O2 0.044901 0.798476 0.710930
O O3 0.000000 0.000000 0.748690
O O4 0.530248 0.901783 0.558681
O O5 0.608292 0.032191 0.643376
O O6 0.882366 0.730274 0.987645
O O7 0.718925 0.718925 0.587110
O O8 0.834629 0.834629 0.514683
O O9 0.350265 0.199189 0.179481
O O10 0.191095 0.964247 0.394768
O O11 0.000000 0.000000 0.444706
#
# Coordination Sequence:
#
# PCOD9560088 Si02
#       7
#     8   8   8   8   8   8  16
#     4  12  22  41  72  92 128 176 221 268 345 399
#     4  11  22  38  67  92 132 167 218 277 344 390
#     4  11  22  41  66  88 128 183 218 277 322 400
#     4  10  22  44  62  93 136 171 226 267 332 392
#     4  10  22  41  58  92 136 161 210 282 318 398
#     4  10  16  38  70  89 126 160 205 277 335 373
#     4  10  20  40  63  93 128 166 206 278 333 395
#
# _framework density 20.219336999999999
#
# number of rings (size 3 to 8) (size 9 to 14) (size 15 to 20)
#    0.000    1.750    8.750    0.000    0.000    3.250 
#    2.250    0.000    5.500    0.000    0.000    0.000 
#    0.000    0.000    0.000    0.000    0.000    0.000 
#
# Total GULP energy -178479.427688 kJ/mol
# GULP energy per Si atom -5577.482115 kJ/mol
# Density = 2.017332 g / cm^3
# Si number density = 20.219337 Si / 1000 Ang^3
#
#
#
# Elastic Constant Matrix: (Units=GPa)
#
#
# Indices 1 2 3 4 5 6 
#
# 1 87.5555 44.1853 16.8052 0.0000 0.0000 0.0000
# 2 44.1853 87.5545 16.8051 0.0000 0.0000 0.0000
# 3 16.8052 16.8051 46.4904 0.0000 0.0000 0.0000
# 4 0.0000 0.0000 0.0000 18.2571 0.0000 0.0000
# 5 0.0000 0.0000 0.0000 0.0000 18.2570 0.0000
# 6 0.0000 0.0000 0.0000 0.0000 0.0000 33.4627
#
#
#
# Elastic Compliance Matrix: (Units=1/GPa)
#
#
# Indices 1 2 3 4 5 6 
#
# 1 0.015710 -0.007348 -0.003023 0.000000 0.000000 0.000000
# 2 -0.007348 0.015710 -0.003023 0.000000 0.000000 0.000000
# 3 -0.003023 -0.003023 0.023695 0.000000 0.000000 0.000000
# 4 0.000000 0.000000 0.000000 0.054773 0.000000 0.000000
# 5 0.000000 0.000000 0.000000 0.000000 0.054773 0.000000
# 6 0.000000 0.000000 0.000000 0.000000 0.000000 0.029884
#
#
# Mechanical properties :
#
#
# Convention : Reuss Voigt Hill
#
# Bulk Modulus (GPa) = 35.30043 41.91018 38.60531
# Shear Modulus (GPa) = 21.66624 23.58237 22.62431
#
# Velocity S-wave (km/s) = 3.27702 3.41886 3.34869
# Velocity P-wave (km/s) = 5.64049 6.02972 5.83835
#
# Compressibility (1/GPa) = 0.02832826
#
# Stress axis : x y z
#
# Youngs Moduli (GPa) = 63.65529 63.65459 42.20302
#
# Poissons Ratio (x) = 0.46773 0.12756
# Poissons Ratio (y) = 0.46773 0.12756
# Poissons Ratio (z) = 0.19240 0.19240
#
# Static dielectric constant tensor:
#      x y z
#    x 1.788770 0.000000 0.000000 
#    y 0.000000 1.788770 0.000000 
#    z 0.000000 0.000000 1.720770 
# 
# From -- ./inp_files/7520.got.cif
#   From: 2010.05.17/outbox.cif.g08.bks.cpg/sg121_4_cif.got.tgz:7520.got - 2010.05.20 11:32:06.
