data_PCOD9560571
_publ_section_title
;
Structure prediction by ZEFSAII (Michael W. Deem and Ramdas Pophale) SiO2 
 PCOD9560571
Probable space group: I -4 2 M
;
_chemical_formula_sum "Si O2"
_cell_formula_units_Z 68
_cell_length_a 12.172685
_cell_length_b 12.172685
_cell_length_c 24.807494
_cell_angle_alpha 90.000000
_cell_angle_beta 90.000000
_cell_angle_gamma 90.000000
_cell_volume 3675.832069
_symmetry_space_group_name_H-M "I -4 2 M"
_symmetry_group_IT_number 121
_symmetry_cell_setting 'tetragonal'
loop_
_space_group_symop_operation_xyz
x,y,z
y,-x,-z
-x,-y,z
-y,x,-z
x,-y,-z
-x,y,-z
-y,-x,z
y,x,z
1/2+x,1/2+y,1/2+z
1/2+y,1/2-x,1/2-z
1/2-x,1/2-y,1/2+z
1/2-y,1/2+x,1/2-z
1/2+x,1/2-y,1/2-z
1/2-x,1/2+y,1/2-z
1/2-y,1/2-x,1/2+z
1/2+y,1/2+x,1/2+z
loop_
_atom_site_type_symbol
_atom_site_label
_atom_site_fract_x
_atom_site_fract_y
_atom_site_fract_z
Si Si1 0.627218 0.971664 0.332957
Si Si2 0.176654 0.999660 0.141976
Si Si3 0.327815 0.853987 0.068930
Si Si4 0.359069 0.181538 0.722415
Si Si5 0.000000 0.500000 0.500000
O O1 0.682199 0.901578 0.379720
O O2 0.630556 0.906605 0.276818
O O3 0.500000 0.000000 0.347034
O O4 0.680512 0.087835 0.318592
O O5 0.097641 0.902360 0.162340
O O6 0.249144 0.947985 0.094636
O O7 0.249379 0.049695 0.189637
O O8 0.097484 0.097484 0.122230
O O9 0.246280 0.753721 0.050649
O O10 0.415219 0.916567 0.030637
O O11 0.262669 0.262669 0.737395
#
# Coordination Sequence:
#
# PCOD9560571 Si02
#       5
#    16  16  16  16   4
#     4  12  19  36  54  83 119 153 195 239 277 347
#     4   9  18  33  54  86 123 154 190 236 286 348
#     4  11  23  40  65  88 114 156 198 250 315 364
#     4  11  20  30  53  84 121 164 196 229 280 341
#     4  12  24  44  64  90 120 144 204 268 308 386
#
# _framework density 18.499212
#
# number of rings (size 3 to 8) (size 9 to 14) (size 15 to 20)
#    0.000    1.176    5.882    0.706    0.000    3.765 
#    0.000    1.176    0.000    3.882    0.000    0.000 
#    0.000    0.000    0.000    0.000    0.000    0.000 
#
# Total GULP energy -189459.673379 kJ/mol
# GULP energy per Si atom -5572.343335 kJ/mol
# Density = 1.845711 g / cm^3
# Si number density = 18.499212 Si / 1000 Ang^3
#
#
#
# Elastic Constant Matrix: (Units=GPa)
#
#
# Indices 1 2 3 4 5 6 
#
# 1 92.9639 37.3778 35.1335 0.0000 0.0000 0.0000
# 2 37.3778 92.9622 35.1330 0.0000 0.0000 0.0000
# 3 35.1335 35.1330 60.7566 0.0000 0.0000 0.0000
# 4 0.0000 0.0000 0.0000 20.5000 0.0000 0.0000
# 5 0.0000 0.0000 0.0000 0.0000 20.5008 0.0000
# 6 0.0000 0.0000 0.0000 0.0000 0.0000 35.7014
#
#
#
# Elastic Compliance Matrix: (Units=1/GPa)
#
#
# Indices 1 2 3 4 5 6 
#
# 1 0.014569 -0.003422 -0.006446 0.000000 0.000000 0.000000
# 2 -0.003422 0.014569 -0.006446 0.000000 0.000000 0.000000
# 3 -0.006446 -0.006446 0.023914 0.000000 0.000000 0.000000
# 4 0.000000 0.000000 0.000000 0.048781 0.000000 0.000000
# 5 0.000000 0.000000 0.000000 0.000000 0.048779 0.000000
# 6 0.000000 0.000000 0.000000 0.000000 0.000000 0.028010
#
#
# Mechanical properties :
#
#
# Convention : Reuss Voigt Hill
#
# Bulk Modulus (GPa) = 48.96085 51.33011 50.14548
# Shear Modulus (GPa) = 22.92986 24.60968 23.76977
#
# Velocity S-wave (km/s) = 3.52448 3.65130 3.58845
# Velocity P-wave (km/s) = 6.56403 6.75155 6.65845
#
# Compressibility (1/GPa) = 0.02042448
#
# Stress axis : x y z
#
# Youngs Moduli (GPa) = 68.64032 68.63927 41.81633
#
# Poissons Ratio (x) = 0.23485 0.26955
# Poissons Ratio (y) = 0.23486 0.26955
# Poissons Ratio (z) = 0.44246 0.44245
#
# Static dielectric constant tensor:
#      x y z
#    x 1.671810 0.000000 0.000000 
#    y 0.000000 1.671810 0.000000 
#    z 0.000000 0.000000 1.630780 
# 
# From -- ./inp_files/7574.got.cif
#   From: 2010.05.17/outbox.cif.g08.bks.cpg/sg121_4_cif.got.tgz:7574.got - 2010.05.20 11:32:06.
