data_PCOD9560733
_publ_section_title
;
Structure prediction by ZEFSAII (Michael W. Deem and Ramdas Pophale) SiO2 
 PCOD9560733
Probable space group: I -4 2 D
;
_chemical_formula_sum "Si O2"
_cell_formula_units_Z 112
_cell_length_a 14.452278
_cell_length_b 14.452278
_cell_length_c 26.525403
_cell_angle_alpha 90.000000
_cell_angle_beta 90.000000
_cell_angle_gamma 90.000000
_cell_volume 5540.316876
_symmetry_space_group_name_H-M "I -4 2 D"
_symmetry_group_IT_number 122
_symmetry_cell_setting 'tetragonal'
loop_
_space_group_symop_operation_xyz
x,y,z
y,-x,-z
-x,-y,z
-y,x,-z
x,1/2-y,1/4-z
-x,1/2+y,1/4-z
-y,1/2-x,1/4+z
y,1/2+x,1/4+z
1/2+x,1/2+y,1/2+z
1/2+y,1/2-x,1/2-z
1/2-x,1/2-y,1/2+z
1/2-y,1/2+x,1/2-z
1/2+x,-y,3/4-z
1/2-x,y,3/4-z
1/2-y,-x,3/4+z
1/2+y,x,3/4+z
loop_
_atom_site_type_symbol
_atom_site_label
_atom_site_fract_x
_atom_site_fract_y
_atom_site_fract_z
Si Si1 0.624681 0.901174 0.562245
Si Si2 0.698570 0.710290 0.074590
Si Si3 0.728370 0.447277 0.491802
Si Si4 0.897418 0.524926 0.348343
Si Si5 0.362548 0.768862 0.754701
Si Si6 0.680501 0.400175 0.680953
Si Si7 0.638557 0.066870 0.240764
O O1 0.726870 0.871247 0.581130
O O2 0.595249 0.828345 0.519710
O O3 0.548781 0.890036 0.605606
O O4 0.632534 0.007556 0.546332
O O5 0.657754 0.750000 0.125000
O O6 0.758188 0.791857 0.050100
O O7 0.618875 0.689229 0.035793
O O8 0.681098 0.492497 0.441505
O O9 0.660311 0.371563 0.514173
O O10 0.739157 0.535678 0.526481
O O11 0.891253 0.626014 0.376778
O O12 0.000000 0.500000 0.326792
O O13 0.344375 0.691101 0.712893
O O14 0.791496 0.418351 0.692578
O O15 0.538251 0.117604 0.241714
#
# Coordination Sequence:
#
# PCOD9560733 Si02
#       7
#    16  16  16  16  16  16  16
#     4  10  18  35  59  85 117 154 210 249 307 374
#     4  10  20  38  64  90 118 159 211 257 305 383
#     4  11  22  37  54  87 125 168 202 253 315 379
#     4  10  21  34  59  85 124 163 208 255 307 377
#     4  10  23  35  58  85 126 158 208 255 311 369
#     4  10  20  38  59  94 116 164 212 266 309 373
#     4  10  20  38  67  94 125 160 210 264 328 385
#
# _framework density 20.215450000000001
#
# number of rings (size 3 to 8) (size 9 to 14) (size 15 to 20)
#    0.000    1.857    2.857    2.143    2.000    0.000 
#    0.000    0.000    6.286    6.857    0.000    0.000 
#    0.000    0.000    0.000    0.000    0.000    0.000 
#
# Total GULP energy -311839.225415 kJ/mol
# GULP energy per Si atom -5568.557597 kJ/mol
# Density = 2.016944 g / cm^3
# Si number density = 20.215450 Si / 1000 Ang^3
#
#
#
# Elastic Constant Matrix: (Units=GPa)
#
#
# Indices 1 2 3 4 5 6 
#
# 1 110.2816 27.0627 20.2583 0.0000 0.0000 0.0000
# 2 27.0627 110.2816 20.2583 0.0000 0.0000 0.0000
# 3 20.2583 20.2583 39.9529 0.0000 0.0000 0.0000
# 4 0.0000 0.0000 0.0000 18.6181 0.0000 0.0000
# 5 0.0000 0.0000 0.0000 0.0000 18.6181 0.0000
# 6 0.0000 0.0000 0.0000 0.0000 0.0000 30.0146
#
#
#
# Elastic Compliance Matrix: (Units=1/GPa)
#
#
# Indices 1 2 3 4 5 6 
#
# 1 0.010289 -0.001727 -0.004341 0.000000 0.000000 0.000000
# 2 -0.001727 0.010289 -0.004341 0.000000 0.000000 0.000000
# 3 -0.004341 -0.004341 0.029432 0.000000 0.000000 0.000000
# 4 0.000000 0.000000 0.000000 0.053711 0.000000 0.000000
# 5 0.000000 0.000000 0.000000 0.000000 0.053711 0.000000
# 6 0.000000 0.000000 0.000000 0.000000 0.000000 0.033317
#
#
# Mechanical properties :
#
#
# Convention : Reuss Voigt Hill
#
# Bulk Modulus (GPa) = 34.25788 43.96385 39.11087
# Shear Modulus (GPa) = 22.59383 26.31262 24.45322
#
# Velocity S-wave (km/s) = 3.34676 3.61170 3.48175
# Velocity P-wave (km/s) = 5.64956 6.25998 5.96259
#
# Compressibility (1/GPa) = 0.02919036
#
# Stress axis : x y z
#
# Youngs Moduli (GPa) = 97.19060 97.19060 33.97665
#
# Poissons Ratio (x) = 0.16789 0.14750
# Poissons Ratio (y) = 0.16789 0.14750
# Poissons Ratio (z) = 0.42193 0.42193
#
# Static dielectric constant tensor:
#      x y z
#    x 1.774150 0.000000 0.000000 
#    y 0.000000 1.774150 0.000000 
#    z 0.000000 0.000000 1.712200 
# 
# From -- ./inp_files/9700.got.cif
#   From: 2010.05.17/outbox.cif.g08.bks.cpg/sg122_5_cif.got.tgz:9700.got - 2010.05.20 11:37:33.
