data_PCOD9560852
_publ_section_title
;
Structure prediction by ZEFSAII (Michael W. Deem and Ramdas Pophale) SiO2 
 PCOD9560852
Probable space group: I -4 2 D
;
_chemical_formula_sum "Si O2"
_cell_formula_units_Z 72
_cell_length_a 14.470400
_cell_length_b 14.470400
_cell_length_c 17.494983
_cell_angle_alpha 90.000000
_cell_angle_beta 90.000000
_cell_angle_gamma 90.000000
_cell_volume 3663.317811
_symmetry_space_group_name_H-M "I -4 2 D"
_symmetry_group_IT_number 122
_symmetry_cell_setting 'tetragonal'
loop_
_space_group_symop_operation_xyz
x,y,z
y,-x,-z
-x,-y,z
-y,x,-z
x,1/2-y,1/4-z
-x,1/2+y,1/4-z
-y,1/2-x,1/4+z
y,1/2+x,1/4+z
1/2+x,1/2+y,1/2+z
1/2+y,1/2-x,1/2-z
1/2-x,1/2-y,1/2+z
1/2-y,1/2+x,1/2-z
1/2+x,-y,3/4-z
1/2-x,y,3/4-z
1/2-y,-x,3/4+z
1/2+y,x,3/4+z
loop_
_atom_site_type_symbol
_atom_site_label
_atom_site_fract_x
_atom_site_fract_y
_atom_site_fract_z
Si Si1 0.528427 0.606215 0.731340
Si Si2 0.805294 0.639034 0.571404
Si Si3 0.145325 0.402427 0.866127
Si Si4 0.363180 0.250000 0.625000
Si Si5 0.096774 0.324572 0.712793
O O1 0.500000 0.500000 0.707760
O O2 0.445361 0.667704 0.767810
O O3 0.597258 0.592743 0.802775
O O4 0.576896 0.672233 0.668744
O O5 0.706064 0.690290 0.569825
O O6 0.825591 0.621844 0.661970
O O7 0.878658 0.718093 0.549107
O O8 0.250000 0.369101 0.875000
O O9 0.096271 0.341818 0.802202
O O10 0.147523 0.501890 0.825952
#
# Coordination Sequence:
#
# PCOD9560852 Si02
#       5
#    16  16  16   8  16
#     4  12  24  44  71  99 129 184 239 282 345 429
#     4  10  21  44  63  95 137 176 217 283 348 406
#     4  12  21  36  62 103 132 168 210 273 351 414
#     4  10  26  50  64  90 146 182 226 304 348 398
#     4  10  20  35  62  95 137 163 202 273 349 412
#
# _framework density 19.654316000000001
#
# number of rings (size 3 to 8) (size 9 to 14) (size 15 to 20)
#    0.000    1.333    4.444    4.000    0.000    1.778 
#   10.000    0.000    0.000    0.000    0.000    0.000 
#    0.000    0.000    0.000    0.000    0.000    0.000 
#
# Total GULP energy -200665.526651 kJ/mol
# GULP energy per Si atom -5574.042407 kJ/mol
# Density = 1.960958 g / cm^3
# Si number density = 19.654316 Si / 1000 Ang^3
#
#
#
# Elastic Constant Matrix: (Units=GPa)
#
#
# Indices 1 2 3 4 5 6 
#
# 1 96.4556 36.8049 31.1884 0.0000 0.0000 0.0000
# 2 36.8049 96.4556 31.1884 0.0000 0.0000 0.0000
# 3 31.1884 31.1884 72.3427 0.0000 0.0000 0.0000
# 4 0.0000 0.0000 0.0000 24.8550 0.0000 0.0000
# 5 0.0000 0.0000 0.0000 0.0000 24.8550 0.0000
# 6 0.0000 0.0000 0.0000 0.0000 0.0000 23.5003
#
#
#
# Elastic Compliance Matrix: (Units=1/GPa)
#
#
# Indices 1 2 3 4 5 6 
#
# 1 0.013083 -0.003681 -0.004053 0.000000 0.000000 0.000000
# 2 -0.003681 0.013083 -0.004053 0.000000 0.000000 0.000000
# 3 -0.004053 -0.004053 0.017318 0.000000 0.000000 0.000000
# 4 0.000000 0.000000 0.000000 0.040233 0.000000 0.000000
# 5 0.000000 0.000000 0.000000 0.000000 0.040233 0.000000
# 6 0.000000 0.000000 0.000000 0.000000 0.000000 0.042553
#
#
# Mechanical properties :
#
#
# Convention : Reuss Voigt Hill
#
# Bulk Modulus (GPa) = 50.23095 51.51305 50.87200
# Shear Modulus (GPa) = 25.41761 25.71355 25.56558
#
# Velocity S-wave (km/s) = 3.60006 3.62095 3.61052
# Velocity P-wave (km/s) = 6.54929 6.61424 6.58185
#
# Compressibility (1/GPa) = 0.01990804
#
# Stress axis : x y z
#
# Youngs Moduli (GPa) = 76.43641 76.43642 57.74398
#
# Poissons Ratio (x) = 0.28140 0.23404
# Poissons Ratio (y) = 0.28140 0.23404
# Poissons Ratio (z) = 0.30980 0.30980
#
# Static dielectric constant tensor:
#      x y z
#    x 1.738850 0.000000 0.000000 
#    y 0.000000 1.738850 0.000000 
#    z 0.000000 0.000000 1.752130 
# 
# From -- ./inp_files/6121.got.cif
#   From: 2010.05.17/outbox.cif.g08.bks.cpg/sg122_4_cif.got.tgz:6121.got - 2010.05.20 11:37:33.
