data_PCOD9560034
_publ_section_title
;
Structure prediction by ZEFSAII (Michael W. Deem and Ramdas Pophale) SiO2 
 PCOD9560034
Probable space group: I -4 C 2
;
_chemical_formula_sum "Si O2"
_cell_formula_units_Z 52
_cell_length_a 16.436109
_cell_length_b 16.436109
_cell_length_c 8.780334
_cell_angle_alpha 90.000000
_cell_angle_beta 90.000000
_cell_angle_gamma 90.000000
_cell_volume 2371.969291
_symmetry_space_group_name_H-M "I -4 C 2"
_symmetry_group_IT_number 120
_symmetry_cell_setting 'tetragonal'
loop_
_space_group_symop_operation_xyz
x,y,z
y,-x,-z
-x,-y,z
-y,x,-z
y,x,1/2-z
-y,-x,1/2-z
-x,y,1/2+z
x,-y,1/2+z
1/2+x,1/2+y,1/2+z
1/2+y,1/2-x,1/2-z
1/2-x,1/2-y,1/2+z
1/2-y,1/2+x,1/2-z
1/2+y,1/2+x,-z
1/2-y,1/2-x,-z
1/2-x,1/2+y,z
1/2+x,1/2-y,z
loop_
_atom_site_type_symbol
_atom_site_label
_atom_site_fract_x
_atom_site_fract_y
_atom_site_fract_z
Si Si1 0.597019 0.774757 0.066587
Si Si2 0.925451 0.902804 0.570524
Si Si3 0.000000 0.500000 0.750000
Si Si4 0.334964 0.063717 0.600664
O O1 0.618497 0.681498 0.033565
O O2 0.587318 0.786697 0.247751
O O3 0.661678 0.838323 0.000000
O O4 0.508939 0.794080 0.993083
O O5 0.920022 0.920022 0.750000
O O6 0.019946 0.893988 0.522903
O O7 0.027616 0.421830 0.844363
O O8 0.358370 0.141631 0.500000
#
# Coordination Sequence:
#
# PCOD9560034 Si02
#       4
#    16  16   4  16
#     4  12  23  41  68 103 139 173 222 283 342 392
#     4  11  25  49  75  95 125 177 235 276 336 413
#     4  12  18  32  58  88 142 196 218 240 318 424
#     4  12  21  35  61  99 145 190 223 263 329 417
#
# _framework density 21.922709999999999
#
# number of rings (size 3 to 8) (size 9 to 14) (size 15 to 20)
#    0.000    0.308    6.154    4.154    0.000    0.000 
#    0.000   15.385    0.000    0.000    0.000    0.000 
#    0.000    0.000    0.000    0.000    0.000    0.000 
#
# Total GULP energy -145596.486667 kJ/mol
# GULP energy per Si atom -5599.864872 kJ/mol
# Density = 2.187281 g / cm^3
# Si number density = 21.922710 Si / 1000 Ang^3
#
#
#
# Elastic Constant Matrix: (Units=GPa)
#
#
# Indices 1 2 3 4 5 6 
#
# 1 102.2697 25.6946 32.8300 0.0000 0.0000 0.0000
# 2 25.6946 102.2646 32.8324 0.0000 0.0000 0.0000
# 3 32.8300 32.8324 115.2367 0.0000 0.0000 0.0000
# 4 0.0000 0.0000 0.0000 26.8533 0.0000 0.0000
# 5 0.0000 0.0000 0.0000 0.0000 26.8574 0.0000
# 6 0.0000 0.0000 0.0000 0.0000 0.0000 -3.7254
#
#
#
# Elastic Compliance Matrix: (Units=1/GPa)
#
#
# Indices 1 2 3 4 5 6 
#
# 1 0.011106 -0.001953 -0.002607 0.000000 0.000000 0.000000
# 2 -0.001953 0.011107 -0.002608 0.000000 0.000000 0.000000
# 3 -0.002607 -0.002608 0.010164 0.000000 0.000000 0.000000
# 4 0.000000 0.000000 0.000000 0.037239 0.000000 0.000000
# 5 0.000000 0.000000 0.000000 0.000000 0.037234 0.000000
# 6 0.000000 0.000000 0.000000 0.000000 0.000000 -0.268425
#
#
# Mechanical properties :
#
#
# Convention : Reuss Voigt Hill
#
# Bulk Modulus (GPa) = 55.43610 55.83166 55.63388
# Shear Modulus (GPa) = -35.40438 25.22466 -5.08986
#
# Velocity S-wave (km/s) = -4.02302 3.39576 -1.52537
# Velocity P-wave (km/s) = 1.93968 6.39513 4.72546
#
# Compressibility (1/GPa) = 0.01803879
#
# Stress axis : x y z
#
# Youngs Moduli (GPa) = 90.04269 90.03640 98.38968
#
# Poissons Ratio (x) = 0.17587 0.25655
# Poissons Ratio (y) = 0.17588 0.25659
# Poissons Ratio (z) = 0.23478 0.23481
#
# Static dielectric constant tensor:
#      x y z
#    x 1.779310 0.000000 0.000000 
#    y 0.000000 1.779310 0.000000 
#    z 0.000000 0.000000 1.791990 
# 
# From -- ./inp_files/990.got.cif
#   From: 2010.05.17/outbox.cif.g08.bks.cpg/sg120_1_cif.got.tgz:990.got - 2010.05.20 11:28:13.
