data_PCOD9560255
_publ_section_title
;
Structure prediction by ZEFSAII (Michael W. Deem and Ramdas Pophale) SiO2 
 PCOD9560255
Probable space group: I -4 2 M
;
_chemical_formula_sum "Si O2"
_cell_formula_units_Z 88
_cell_length_a 13.518303
_cell_length_b 13.518303
_cell_length_c 28.021428
_cell_angle_alpha 90.000000
_cell_angle_beta 90.000000
_cell_angle_gamma 90.000000
_cell_volume 5120.762297
_symmetry_space_group_name_H-M "I -4 2 M"
_symmetry_group_IT_number 121
_symmetry_cell_setting 'tetragonal'
loop_
_space_group_symop_operation_xyz
x,y,z
y,-x,-z
-x,-y,z
-y,x,-z
x,-y,-z
-x,y,-z
-y,-x,z
y,x,z
1/2+x,1/2+y,1/2+z
1/2+y,1/2-x,1/2-z
1/2-x,1/2-y,1/2+z
1/2-y,1/2+x,1/2-z
1/2+x,1/2-y,1/2-z
1/2-x,1/2+y,1/2-z
1/2-y,1/2-x,1/2+z
1/2+y,1/2+x,1/2+z
loop_
_atom_site_type_symbol
_atom_site_label
_atom_site_fract_x
_atom_site_fract_y
_atom_site_fract_z
Si Si1 0.000000 0.167383 0.000000
Si Si2 0.775493 0.393508 0.866396
Si Si3 0.165213 0.995129 0.552895
Si Si4 0.656441 0.976761 0.735423
Si Si5 0.001990 0.835399 0.806074
Si Si6 0.929150 0.239287 0.903165
O O1 0.014514 0.233096 0.047018
O O2 0.094010 0.094010 0.993593
O O3 0.687613 0.312388 0.856678
O O4 0.732841 0.474908 0.902809
O O5 0.817490 0.438867 0.817510
O O6 0.862838 0.334699 0.893134
O O7 0.079123 0.079123 0.551031
O O8 0.212824 0.000000 0.500000
O O9 0.108700 0.891301 0.559439
O O10 0.581765 0.899828 0.761089
O O11 0.757012 0.986699 0.764712
O O12 0.105489 0.894512 0.800387
O O13 0.004254 0.780672 0.856951
O O14 0.916576 0.916576 0.805676
O O15 0.852905 0.147096 0.904905
#
# Coordination Sequence:
#
# PCOD9560255 Si02
#       6
#     8  16  16  16  16  16
#     4   9  16  28  50  78 109 144 180 220 269 329
#     4  10  19  34  57  80 108 145 184 227 277 329
#     4   8  15  30  53  80 109 140 176 222 274 325
#     4  11  23  38  55  76 108 151 187 227 279 335
#     4  10  20  35  57  82 107 138 184 236 279 326
#     4   9  17  31  51  78 109 142 178 219 272 327
#
# _framework density 17.184941999999999
#
# number of rings (size 3 to 8) (size 9 to 14) (size 15 to 20)
#    0.000    2.455    1.818    1.636    0.000    3.636 
#    0.000    3.636    0.000    2.182    0.000    0.000 
#    0.000    0.000    0.000    0.000    0.000    0.000 
#
# Total GULP energy -245231.759762 kJ/mol
# GULP energy per Si atom -5573.449085 kJ/mol
# Density = 1.714583 g / cm^3
# Si number density = 17.184942 Si / 1000 Ang^3
#
#
#
# Elastic Constant Matrix: (Units=GPa)
#
#
# Indices 1 2 3 4 5 6 
#
# 1 63.9203 28.5440 56.4752 0.0000 0.0000 0.0000
# 2 28.5440 63.9218 56.4754 0.0000 0.0000 0.0000
# 3 56.4752 56.4754 154.2719 0.0000 0.0000 0.0000
# 4 0.0000 0.0000 0.0000 2.2484 0.0000 0.0000
# 5 0.0000 0.0000 0.0000 0.0000 2.2441 0.0000
# 6 0.0000 0.0000 0.0000 0.0000 0.0000 8.4856
#
#
#
# Elastic Compliance Matrix: (Units=1/GPa)
#
#
# Indices 1 2 3 4 5 6 
#
# 1 0.023915 -0.004352 -0.007162 0.000000 0.000000 0.000000
# 2 -0.004352 0.023915 -0.007161 0.000000 0.000000 0.000000
# 3 -0.007162 -0.007161 0.011725 0.000000 0.000000 0.000000
# 4 0.000000 0.000000 0.000000 0.444770 0.000000 0.000000
# 5 0.000000 0.000000 0.000000 0.000000 0.445619 0.000000
# 6 0.000000 0.000000 0.000000 0.000000 0.000000 0.117847
#
#
# Mechanical properties :
#
#
# Convention : Reuss Voigt Hill
#
# Bulk Modulus (GPa) = 45.03426 62.78925 53.91175
# Shear Modulus (GPa) = 4.49421 11.97023 8.23222
#
# Velocity S-wave (km/s) = 1.61891 2.64209 2.19107
# Velocity P-wave (km/s) = 5.45500 6.77674 6.15147
#
# Compressibility (1/GPa) = 0.02220532
#
# Stress axis : x y z
#
# Youngs Moduli (GPa) = 41.81404 41.81535 85.28462
#
# Poissons Ratio (x) = 0.18198 0.61078
# Poissons Ratio (y) = 0.18197 0.61076
# Poissons Ratio (z) = 0.29946 0.29946
#
# Static dielectric constant tensor:
#      x y z
#    x 1.584870 0.000000 0.000000 
#    y 0.000000 1.584870 0.000000 
#    z 0.000000 0.000000 1.578930 
# 
# From -- ./inp_files/8240.got.cif
#   From: 2010.05.17/outbox.cif.g08.bks.cpg/sg121_5_cif.got.tgz:8240.got - 2010.05.20 11:32:06.
