data_PCOD9560891
_publ_section_title
;
Structure prediction by ZEFSAII (Michael W. Deem and Ramdas Pophale) SiO2 
 PCOD9560891
Probable space group: I -4 2 D
;
_chemical_formula_sum "Si O2"
_cell_formula_units_Z 112
_cell_length_a 20.192331
_cell_length_b 20.192331
_cell_length_c 12.032592
_cell_angle_alpha 90.000000
_cell_angle_beta 90.000000
_cell_angle_gamma 90.000000
_cell_volume 4906.051518
_symmetry_space_group_name_H-M "I -4 2 D"
_symmetry_group_IT_number 122
_symmetry_cell_setting 'tetragonal'
loop_
_space_group_symop_operation_xyz
x,y,z
y,-x,-z
-x,-y,z
-y,x,-z
x,1/2-y,1/4-z
-x,1/2+y,1/4-z
-y,1/2-x,1/4+z
y,1/2+x,1/4+z
1/2+x,1/2+y,1/2+z
1/2+y,1/2-x,1/2-z
1/2-x,1/2-y,1/2+z
1/2-y,1/2+x,1/2-z
1/2+x,-y,3/4-z
1/2-x,y,3/4-z
1/2-y,-x,3/4+z
1/2+y,x,3/4+z
loop_
_atom_site_type_symbol
_atom_site_label
_atom_site_fract_x
_atom_site_fract_y
_atom_site_fract_z
Si Si1 0.384339 0.828050 0.985179
Si Si2 0.030650 0.908021 0.517399
Si Si3 0.357925 0.675093 0.017535
Si Si4 0.343533 0.809386 0.754862
Si Si5 0.949029 0.416049 0.193891
Si Si6 0.870570 0.030506 0.253117
Si Si7 0.707779 0.164561 0.526591
O O1 0.364508 0.854313 0.106645
O O2 0.380122 0.750086 0.008526
O O3 0.337571 0.837771 0.878917
O O4 0.459563 0.847192 0.953016
O O5 0.991629 0.876616 0.619252
O O6 0.066729 0.973515 0.562958
O O7 0.084025 0.863816 0.456575
O O8 0.282445 0.670015 0.983196
O O9 0.410425 0.846180 0.709648
O O10 0.290162 0.828333 0.661469
O O11 0.336669 0.728816 0.758890
O O12 0.916724 0.473555 0.273687
O O13 0.932479 0.443511 0.070152
O O14 0.820682 0.092270 0.247263
#
# Coordination Sequence:
#
# PCOD9560891 Si02
#       7
#    16  16  16  16  16  16  16
#     4  10  20  39  64  92 134 168 221 274 334 395
#     4  10  24  44  63  90 130 168 227 280 324 394
#     4  10  23  40  64  98 129 179 216 278 331 404
#     4  10  20  39  65  98 130 172 218 281 324 405
#     4  10  20  37  67  97 128 171 218 268 339 405
#     4  10  22  42  66  93 129 178 219 280 333 400
#     4  10  23  40  67  96 139 171 229 267 347 404
#
# _framework density 22.828949000000001
#
# number of rings (size 3 to 8) (size 9 to 14) (size 15 to 20)
#    0.000    2.000    1.429    1.714    4.000    4.571 
#    0.000    0.000    6.286    1.714    0.000    0.000 
#    0.000    0.000    0.000    0.000    0.000    0.000 
#
# Total GULP energy -311958.545933 kJ/mol
# GULP energy per Si atom -5570.688320 kJ/mol
# Density = 2.277699 g / cm^3
# Si number density = 22.828949 Si / 1000 Ang^3
#
#
#
# Elastic Constant Matrix: (Units=GPa)
#
#
# Indices 1 2 3 4 5 6 
#
# 1 101.3711 54.8725 4.7587 0.0000 0.0000 0.0000
# 2 54.8725 101.3711 4.7587 0.0000 0.0000 0.0000
# 3 4.7587 4.7587 61.2632 0.0000 0.0000 0.0000
# 4 0.0000 0.0000 0.0000 26.2237 0.0000 0.0000
# 5 0.0000 0.0000 0.0000 0.0000 26.2237 0.0000
# 6 0.0000 0.0000 0.0000 0.0000 0.0000 17.3717
#
#
#
# Elastic Compliance Matrix: (Units=1/GPa)
#
#
# Indices 1 2 3 4 5 6 
#
# 1 0.013968 -0.007538 -0.000500 0.000000 0.000000 0.000000
# 2 -0.007538 0.013968 -0.000500 0.000000 0.000000 0.000000
# 3 -0.000500 -0.000500 0.016401 0.000000 0.000000 0.000000
# 4 0.000000 0.000000 0.000000 0.038133 0.000000 0.000000
# 5 0.000000 0.000000 0.000000 0.000000 0.038133 0.000000
# 6 0.000000 0.000000 0.000000 0.000000 0.000000 0.057565
#
#
# Mechanical properties :
#
#
# Convention : Reuss Voigt Hill
#
# Bulk Modulus (GPa) = 36.67849 43.64280 40.16064
# Shear Modulus (GPa) = 24.47019 27.27154 25.87086
#
# Velocity S-wave (km/s) = 3.27753 3.46005 3.37003
# Velocity P-wave (km/s) = 5.51584 5.92633 5.72477
#
# Compressibility (1/GPa) = 0.02726394
#
# Stress axis : x y z
#
# Youngs Moduli (GPa) = 71.59035 71.59035 60.97334
#
# Poissons Ratio (x) = 0.53962 0.03046
# Poissons Ratio (y) = 0.53962 0.03046
# Poissons Ratio (z) = 0.03576 0.03576
#
# Static dielectric constant tensor:
#      x y z
#    x 1.894460 0.000000 0.000000 
#    y 0.000000 1.894460 0.000000 
#    z 0.000000 0.000000 2.015290 
# 
# From -- ./inp_files/4598.got.cif
#   From: 2010.05.17/outbox.cif.g08.bks.cpg/sg122_3_cif.got.tgz:4598.got - 2010.05.20 11:37:33.
