data_PCOD9560003
_publ_section_title
;
Structure prediction by ZEFSAII (Michael W. Deem and Ramdas Pophale) SiO2 
 PCOD9560003
Probable space group: I -4 C 2
;
_chemical_formula_sum "Si O2"
_cell_formula_units_Z 32
_cell_length_a 8.845750
_cell_length_b 8.845750
_cell_length_c 14.955385
_cell_angle_alpha 90.000000
_cell_angle_beta 90.000000
_cell_angle_gamma 90.000000
_cell_volume 1170.218393
_symmetry_space_group_name_H-M "I -4 C 2"
_symmetry_group_IT_number 120
_symmetry_cell_setting 'tetragonal'
loop_
_space_group_symop_operation_xyz
x,y,z
y,-x,-z
-x,-y,z
-y,x,-z
y,x,1/2-z
-y,-x,1/2-z
-x,y,1/2+z
x,-y,1/2+z
1/2+x,1/2+y,1/2+z
1/2+y,1/2-x,1/2-z
1/2-x,1/2-y,1/2+z
1/2-y,1/2+x,1/2-z
1/2+y,1/2+x,-z
1/2-y,1/2-x,-z
1/2-x,1/2+y,z
1/2+x,1/2-y,z
loop_
_atom_site_type_symbol
_atom_site_label
_atom_site_fract_x
_atom_site_fract_y
_atom_site_fract_z
Si Si1 0.821277 0.584971 0.903826
Si Si2 0.744460 0.093579 0.666039
O O1 0.838455 0.421752 0.858546
O O2 0.652253 0.645766 0.911792
O O3 0.917889 0.702213 0.840966
O O4 0.895361 0.604640 0.000000
O O5 0.843226 0.156775 0.750000
#
# Coordination Sequence:
#
# PCOD9560003 Si02
#       2
#    16  16
#     4  11  23  43  67  99 137 180 226 280 340 406
#     4  11  23  41  67  99 137 178 224 282 342 404
#
# _framework density 27.345324000000002
#
# number of rings (size 3 to 8) (size 9 to 14) (size 15 to 20)
#    0.000    1.000    0.000    9.000    0.000    6.000 
#    0.000   10.000    0.000    0.000    0.000    0.000 
#    0.000    0.000    0.000    0.000    0.000    0.000 
#
# Total GULP energy -89232.326943 kJ/mol
# GULP energy per Si atom -5577.020434 kJ/mol
# Density = 2.728309 g / cm^3
# Si number density = 27.345324 Si / 1000 Ang^3
#
#
#
# Elastic Constant Matrix: (Units=GPa)
#
#
# Indices 1 2 3 4 5 6 
#
# 1 44.5452 57.8978 11.2506 0.0000 0.0000 0.0000
# 2 57.8978 44.5490 11.2516 0.0000 0.0000 0.0000
# 3 11.2506 11.2516 162.0806 0.0000 0.0000 0.0000
# 4 0.0000 0.0000 0.0000 32.7382 0.0000 0.0000
# 5 0.0000 0.0000 0.0000 0.0000 32.7377 0.0000
# 6 0.0000 0.0000 0.0000 0.0000 0.0000 87.4483
#
#
#
# Elastic Compliance Matrix: (Units=1/GPa)
#
#
# Indices 1 2 3 4 5 6 
#
# 1 -0.032496 0.042407 -0.000688 0.000000 0.000000 0.000000
# 2 0.042407 -0.032494 -0.000688 0.000000 0.000000 0.000000
# 3 -0.000688 -0.000688 0.006265 0.000000 0.000000 0.000000
# 4 0.000000 0.000000 0.000000 0.030545 0.000000 0.000000
# 5 0.000000 0.000000 0.000000 0.000000 0.030546 0.000000
# 6 0.000000 0.000000 0.000000 0.000000 0.000000 0.011435
#
#
# Mechanical properties :
#
#
# Convention : Reuss Voigt Hill
#
# Bulk Modulus (GPa) = 42.84877 45.77499 44.31188
# Shear Modulus (GPa) = -82.67000 41.96985 -20.35008
#
# Velocity S-wave (km/s) = -5.50432 3.92191 -2.73094
# Velocity P-wave (km/s) = 4.96922 6.10610 2.50912
#
# Compressibility (1/GPa) = 0.02333789
#
# Stress axis : x y z
#
# Youngs Moduli (GPa) = -30.77271 -30.77528 159.60926
#
# Poissons Ratio (x) = 1.30510 0.10985
# Poissons Ratio (y) = 1.30499 0.10980
# Poissons Ratio (z) = -0.02118 -0.02117
#
# Static dielectric constant tensor:
#      x y z
#    x 2.117830 0.000000 0.000000 
#    y 0.000000 2.117830 0.000000 
#    z 0.000000 0.000000 2.491510 
# 
# From -- ./inp_files/4719.got.cif
#   From: 2010.05.17/outbox.cif.g08.bks.cpg/sg120_3_cif.got.tgz:4719.got - 2010.05.20 11:28:13.
