data_PCOD9560086
_publ_section_title
;
Structure prediction by ZEFSAII (Michael W. Deem and Ramdas Pophale) SiO2 
 PCOD9560086
Probable space group: I -4 2 M
;
_chemical_formula_sum "Si O2"
_cell_formula_units_Z 72
_cell_length_a 17.986955
_cell_length_b 17.986955
_cell_length_c 10.899762
_cell_angle_alpha 90.000000
_cell_angle_beta 90.000000
_cell_angle_gamma 90.000000
_cell_volume 3526.405997
_symmetry_space_group_name_H-M "I -4 2 M"
_symmetry_group_IT_number 121
_symmetry_cell_setting 'tetragonal'
loop_
_space_group_symop_operation_xyz
x,y,z
y,-x,-z
-x,-y,z
-y,x,-z
x,-y,-z
-x,y,-z
-y,-x,z
y,x,z
1/2+x,1/2+y,1/2+z
1/2+y,1/2-x,1/2-z
1/2-x,1/2-y,1/2+z
1/2-y,1/2+x,1/2-z
1/2+x,1/2-y,1/2-z
1/2-x,1/2+y,1/2-z
1/2-y,1/2-x,1/2+z
1/2+y,1/2+x,1/2+z
loop_
_atom_site_type_symbol
_atom_site_label
_atom_site_fract_x
_atom_site_fract_y
_atom_site_fract_z
Si Si1 0.110467 0.526294 0.221319
Si Si2 0.719091 0.280910 0.726065
Si Si3 0.838079 0.655883 0.447849
Si Si4 0.174382 0.825619 0.479296
Si Si5 0.347176 0.652825 0.241923
Si Si6 0.245053 0.545576 0.381297
O O1 0.068816 0.449470 0.190982
O O2 0.127466 0.586318 0.115238
O O3 0.187491 0.506823 0.288426
O O4 0.662407 0.231053 0.647230
O O5 0.782410 0.217591 0.759260
O O6 0.675310 0.324691 0.832134
O O7 0.846525 0.740076 0.492690
O O8 0.807924 0.608535 0.559851
O O9 0.136467 0.863534 0.598217
O O10 0.312122 0.582238 0.308336
O O11 0.269502 0.500000 0.500000
#
# Coordination Sequence:
#
# PCOD9560086 Si02
#       6
#    16   8  16   8   8  16
#     4  11  22  34  46  73 112 155 194 215 262 335
#     4  10  17  30  55  78  98 134 190 247 284 321
#     4  10  18  31  50  73 101 140 186 223 281 320
#     4  10  16  30  56  74 102 127 185 242 281 320
#     4  10  19  32  55  81  96 133 183 232 289 325
#     4  12  21  36  57  77 110 146 187 237 282 329
#
# _framework density 20.417387999999999
#
# number of rings (size 3 to 8) (size 9 to 14) (size 15 to 20)
#    0.000    1.556    8.889    0.667    0.000    0.889 
#    0.000    0.000    0.000    1.667    0.000    0.000 
#    0.000    0.000    0.000    2.000    0.000    0.000 
#
# Total GULP energy -200471.284434 kJ/mol
# GULP energy per Si atom -5568.646790 kJ/mol
# Density = 2.037092 g / cm^3
# Si number density = 20.417388 Si / 1000 Ang^3
#
#
#
# Elastic Constant Matrix: (Units=GPa)
#
#
# Indices 1 2 3 4 5 6 
#
# 1 35.2950 18.4393 -2.7491 0.0000 0.0000 0.0000
# 2 18.4393 35.2925 -2.7486 0.0000 0.0000 0.0000
# 3 -2.7491 -2.7486 53.3678 0.0000 0.0000 0.0000
# 4 0.0000 0.0000 0.0000 23.1109 0.0000 0.0000
# 5 0.0000 0.0000 0.0000 0.0000 23.1112 0.0000
# 6 0.0000 0.0000 0.0000 0.0000 0.0000 29.2894
#
#
#
# Elastic Compliance Matrix: (Units=1/GPa)
#
#
# Indices 1 2 3 4 5 6 
#
# 1 0.039019 -0.020311 0.000964 0.000000 0.000000 0.000000
# 2 -0.020311 0.039022 0.000963 0.000000 0.000000 0.000000
# 3 0.000964 0.000963 0.018837 0.000000 0.000000 0.000000
# 4 0.000000 0.000000 0.000000 0.043270 0.000000 0.000000
# 5 0.000000 0.000000 0.000000 0.000000 0.043269 0.000000
# 6 0.000000 0.000000 0.000000 0.000000 0.000000 0.034142
#
#
# Mechanical properties :
#
#
# Convention : Reuss Voigt Hill
#
# Bulk Modulus (GPa) = 16.63615 16.64872 16.64244
# Shear Modulus (GPa) = 18.22407 22.50322 20.36365
#
# Velocity S-wave (km/s) = 2.99084 3.32348 3.16154
# Velocity P-wave (km/s) = 4.48247 4.78532 4.63637
#
# Compressibility (1/GPa) = 0.06011005
#
# Stress axis : x y z
#
# Youngs Moduli (GPa) = 25.62865 25.62689 53.08654
#
# Poissons Ratio (x) = 0.52051 -0.05117
# Poissons Ratio (y) = 0.52054 -0.05114
# Poissons Ratio (z) = -0.02470 -0.02469
#
# Static dielectric constant tensor:
#      x y z
#    x 1.733300 0.000000 0.000000 
#    y 0.000000 1.733300 0.000000 
#    z 0.000000 0.000000 1.820410 
# 
# From -- ./inp_files/3069.got.cif
#   From: 2010.05.17/outbox.cif.g08.bks.cpg/sg121_2_cif.got.tgz:3069.got - 2010.05.20 11:32:06.
