data_PCOD9560919
_publ_section_title
;
Structure prediction by ZEFSAII (Michael W. Deem and Ramdas Pophale) SiO2 
 PCOD9560919
Probable space group: I -4 2 D
;
_chemical_formula_sum "Si O2"
_cell_formula_units_Z 112
_cell_length_a 14.317270
_cell_length_b 14.317270
_cell_length_c 27.531992
_cell_angle_alpha 90.000000
_cell_angle_beta 90.000000
_cell_angle_gamma 90.000000
_cell_volume 5643.623912
_symmetry_space_group_name_H-M "I -4 2 D"
_symmetry_group_IT_number 122
_symmetry_cell_setting 'tetragonal'
loop_
_space_group_symop_operation_xyz
x,y,z
y,-x,-z
-x,-y,z
-y,x,-z
x,1/2-y,1/4-z
-x,1/2+y,1/4-z
-y,1/2-x,1/4+z
y,1/2+x,1/4+z
1/2+x,1/2+y,1/2+z
1/2+y,1/2-x,1/2-z
1/2-x,1/2-y,1/2+z
1/2-y,1/2+x,1/2-z
1/2+x,-y,3/4-z
1/2-x,y,3/4-z
1/2-y,-x,3/4+z
1/2+y,x,3/4+z
loop_
_atom_site_type_symbol
_atom_site_label
_atom_site_fract_x
_atom_site_fract_y
_atom_site_fract_z
Si Si1 0.848275 0.067075 0.346131
Si Si2 0.971301 0.731069 0.003523
Si Si3 0.143989 0.194738 0.859402
Si Si4 0.289844 0.672688 0.426296
Si Si5 0.004166 0.108346 0.929556
Si Si6 0.830765 0.820082 0.749518
Si Si7 0.128695 0.553088 0.591109
O O1 0.750000 0.078418 0.375000
O O2 0.828160 0.085980 0.289282
O O3 0.942103 0.130851 0.355550
O O4 0.894039 0.966085 0.353522
O O5 0.942426 0.648956 0.966597
O O6 0.955617 0.827382 0.973325
O O7 0.079697 0.714500 0.011282
O O8 0.918334 0.737816 0.053779
O O9 0.250000 0.172377 0.875000
O O10 0.139919 0.214093 0.802021
O O11 0.109689 0.289160 0.884441
O O12 0.071034 0.120981 0.882600
O O13 0.250000 0.703670 0.375000
O O14 0.399821 0.648898 0.421508
O O15 0.271365 0.749959 0.467816
O O16 0.000000 0.000000 0.942083
#
# Coordination Sequence:
#
# PCOD9560919 Si02
#       7
#    16  16  16  16  16  16  16
#     4  10  20  39  67  89 124 165 210 266 326 368
#     4   9  21  38  57  83 124 164 204 248 308 375
#     4  11  23  41  62  87 125 160 208 256 312 377
#     4  11  24  38  59  88 124 165 203 256 316 376
#     4  10  24  37  57  89 121 164 204 251 302 377
#     4  10  22  38  59  88 120 161 206 260 308 373
#     4   9  20  41  63  94 121 164 215 260 314 386
#
# _framework density 19.845403999999998
#
# number of rings (size 3 to 8) (size 9 to 14) (size 15 to 20)
#    0.000    2.000    0.000    3.429    8.000    1.143 
#    2.571    2.857    0.000    1.714    0.000    0.000 
#    0.000    0.000    0.000    0.000    0.000    0.000 
#
# Total GULP energy -312308.602165 kJ/mol
# GULP energy per Si atom -5576.939324 kJ/mol
# Density = 1.980024 g / cm^3
# Si number density = 19.845404 Si / 1000 Ang^3
#
#
#
# Elastic Constant Matrix: (Units=GPa)
#
#
# Indices 1 2 3 4 5 6 
#
# 1 60.9287 21.7386 9.8871 0.0000 0.0000 0.0000
# 2 21.7386 60.9287 9.8871 0.0000 0.0000 0.0000
# 3 9.8871 9.8871 71.9589 0.0000 0.0000 0.0000
# 4 0.0000 0.0000 0.0000 22.1409 0.0000 0.0000
# 5 0.0000 0.0000 0.0000 0.0000 22.1409 0.0000
# 6 0.0000 0.0000 0.0000 0.0000 0.0000 18.9096
#
#
#
# Elastic Compliance Matrix: (Units=1/GPa)
#
#
# Indices 1 2 3 4 5 6 
#
# 1 0.019012 -0.006504 -0.001719 0.000000 0.000000 0.000000
# 2 -0.006504 0.019012 -0.001719 0.000000 0.000000 0.000000
# 3 -0.001719 -0.001719 0.014369 0.000000 0.000000 0.000000
# 4 0.000000 0.000000 0.000000 0.045165 0.000000 0.000000
# 5 0.000000 0.000000 0.000000 0.000000 0.045165 0.000000
# 6 0.000000 0.000000 0.000000 0.000000 0.000000 0.052883
#
#
# Mechanical properties :
#
#
# Convention : Reuss Voigt Hill
#
# Bulk Modulus (GPa) = 30.75942 30.76022 30.75982
# Shear Modulus (GPa) = 22.09191 22.79184 22.44188
#
# Velocity S-wave (km/s) = 3.34009 3.39258 3.36644
# Velocity P-wave (km/s) = 5.51435 5.55695 5.53569
#
# Compressibility (1/GPa) = 0.03251037
#
# Stress axis : x y z
#
# Youngs Moduli (GPa) = 52.59777 52.59777 69.59387
#
# Poissons Ratio (x) = 0.34212 0.11960
# Poissons Ratio (y) = 0.34212 0.11960
# Poissons Ratio (z) = 0.09039 0.09039
#
# Static dielectric constant tensor:
#      x y z
#    x 1.743370 0.000000 0.000000 
#    y 0.000000 1.743370 0.000000 
#    z 0.000000 0.000000 1.701560 
# 
# From -- ./inp_files/8799.got.cif
#   From: 2010.05.17/outbox.cif.g08.bks.cpg/sg122_5_cif.got.tgz:8799.got - 2010.05.20 11:37:33.
