data_PCOD9560417
_publ_section_title
;
Structure prediction by ZEFSAII (Michael W. Deem and Ramdas Pophale) SiO2 
 PCOD9560417
Probable space group: I -4 2 M
;
_chemical_formula_sum "Si O2"
_cell_formula_units_Z 80
_cell_length_a 10.954253
_cell_length_b 10.954253
_cell_length_c 33.342921
_cell_angle_alpha 90.000000
_cell_angle_beta 90.000000
_cell_angle_gamma 90.000000
_cell_volume 4001.005771
_symmetry_space_group_name_H-M "I -4 2 M"
_symmetry_group_IT_number 121
_symmetry_cell_setting 'tetragonal'
loop_
_space_group_symop_operation_xyz
x,y,z
y,-x,-z
-x,-y,z
-y,x,-z
x,-y,-z
-x,y,-z
-y,-x,z
y,x,z
1/2+x,1/2+y,1/2+z
1/2+y,1/2-x,1/2-z
1/2-x,1/2-y,1/2+z
1/2-y,1/2+x,1/2-z
1/2+x,1/2-y,1/2-z
1/2-x,1/2+y,1/2-z
1/2-y,1/2-x,1/2+z
1/2+y,1/2+x,1/2+z
loop_
_atom_site_type_symbol
_atom_site_label
_atom_site_fract_x
_atom_site_fract_y
_atom_site_fract_z
Si Si1 0.298035 0.504642 0.237866
Si Si2 0.764112 0.566324 0.849300
Si Si3 0.166975 0.637880 0.390800
Si Si4 0.201362 0.006722 0.952905
Si Si5 0.262849 0.540345 0.673728
O O1 0.363831 0.636170 0.241926
O O2 0.403094 0.403094 0.235893
O O3 0.236243 0.503932 0.194756
O O4 0.230495 0.479745 0.279498
O O5 0.631714 0.631714 0.856319
O O6 0.815966 0.467434 0.880029
O O7 0.860010 0.674184 0.845043
O O8 0.242947 0.757054 0.402919
O O9 0.188041 0.536264 0.425099
O O10 0.233733 0.578418 0.352046
O O11 0.093860 0.906141 0.946262
O O12 0.136738 0.136738 0.943486
O O13 0.230980 0.000000 0.000000
O O14 0.398744 0.601257 0.671902
#
# Coordination Sequence:
#
# PCOD9560417 Si02
#       5
#    16  16  16  16  16
#     4   9  18  33  51  71  99 139 187 237 284 327
#     4  10  22  37  51  72 109 154 197 236 280 333
#     4  11  21  33  55  83 112 148 191 229 278 347
#     4   8  15  30  54  86 121 149 176 224 293 359
#     4  10  21  35  52  75 105 140 186 244 298 339
#
# _framework density 19.994973999999999
#
# number of rings (size 3 to 8) (size 9 to 14) (size 15 to 20)
#    0.000    2.400    0.000    3.000    2.800    3.200 
#    0.000    0.000    0.000    2.400    0.000    0.000 
#    0.000    3.200    0.000   34.200    0.000    0.800 
#
# Total GULP energy -222991.413193 kJ/mol
# GULP energy per Si atom -5574.785330 kJ/mol
# Density = 1.994946 g / cm^3
# Si number density = 19.994974 Si / 1000 Ang^3
#
#
#
# Elastic Constant Matrix: (Units=GPa)
#
#
# Indices 1 2 3 4 5 6 
#
# 1 73.7300 37.9307 44.7192 0.0000 0.0000 0.0000
# 2 37.9307 73.7302 44.7198 0.0000 0.0000 0.0000
# 3 44.7192 44.7198 85.8683 0.0000 0.0000 0.0000
# 4 0.0000 0.0000 0.0000 9.9584 0.0000 0.0000
# 5 0.0000 0.0000 0.0000 0.0000 9.9580 0.0000
# 6 0.0000 0.0000 0.0000 0.0000 0.0000 19.1888
#
#
#
# Elastic Compliance Matrix: (Units=1/GPa)
#
#
# Indices 1 2 3 4 5 6 
#
# 1 0.021649 -0.006284 -0.008002 0.000000 0.000000 0.000000
# 2 -0.006284 0.021649 -0.008002 0.000000 0.000000 0.000000
# 3 -0.008002 -0.008002 0.019981 0.000000 0.000000 0.000000
# 4 0.000000 0.000000 0.000000 0.100418 0.000000 0.000000
# 5 0.000000 0.000000 0.000000 0.000000 0.100422 0.000000
# 6 0.000000 0.000000 0.000000 0.000000 0.000000 0.052114
#
#
# Mechanical properties :
#
#
# Convention : Reuss Voigt Hill
#
# Bulk Modulus (GPa) = 53.46811 54.22976 53.84894
# Shear Modulus (GPa) = 13.62237 14.88497 14.25367
#
# Velocity S-wave (km/s) = 2.61298 2.73139 2.67284
# Velocity P-wave (km/s) = 5.99186 6.09327 6.04278
#
# Compressibility (1/GPa) = 0.01870274
#
# Stress axis : x y z
#
# Youngs Moduli (GPa) = 46.19099 46.19055 50.04846
#
# Poissons Ratio (x) = 0.29026 0.40049
# Poissons Ratio (y) = 0.29027 0.40050
# Poissons Ratio (z) = 0.36962 0.36963
#
# Static dielectric constant tensor:
#      x y z
#    x 1.765730 0.000000 0.000000 
#    y 0.000000 1.765730 0.000000 
#    z 0.000000 0.000000 1.721110 
# 
# From -- ./inp_files/8013.got.cif
#   From: 2010.05.17/outbox.cif.g08.bks.cpg/sg121_5_cif.got.tgz:8013.got - 2010.05.20 11:32:06.
