data_PCOD9560599
_publ_section_title
;
Structure prediction by ZEFSAII (Michael W. Deem and Ramdas Pophale) SiO2 
 PCOD9560599
Probable space group: I -4 2 M
;
_chemical_formula_sum "Si O2"
_cell_formula_units_Z 96
_cell_length_a 25.236923
_cell_length_b 25.236923
_cell_length_c 9.439151
_cell_angle_alpha 90.000000
_cell_angle_beta 90.000000
_cell_angle_gamma 90.000000
_cell_volume 6011.816817
_symmetry_space_group_name_H-M "I -4 2 M"
_symmetry_group_IT_number 121
_symmetry_cell_setting 'tetragonal'
loop_
_space_group_symop_operation_xyz
x,y,z
y,-x,-z
-x,-y,z
-y,x,-z
x,-y,-z
-x,y,-z
-y,-x,z
y,x,z
1/2+x,1/2+y,1/2+z
1/2+y,1/2-x,1/2-z
1/2-x,1/2-y,1/2+z
1/2-y,1/2+x,1/2-z
1/2+x,1/2-y,1/2-z
1/2-x,1/2+y,1/2-z
1/2-y,1/2-x,1/2+z
1/2+y,1/2+x,1/2+z
loop_
_atom_site_type_symbol
_atom_site_label
_atom_site_fract_x
_atom_site_fract_y
_atom_site_fract_z
Si Si1 0.246310 0.666451 0.569809
Si Si2 0.433915 0.951533 0.804814
Si Si3 0.392973 0.903830 0.555799
Si Si4 0.711265 0.055761 0.082084
Si Si5 0.755521 0.331192 0.907735
Si Si6 0.445122 0.784540 0.919385
O O1 0.299065 0.700936 0.541018
O O2 0.251059 0.603678 0.539414
O O3 0.234523 0.670573 0.738385
O O4 0.198889 0.696250 0.486502
O O5 0.488130 0.929783 0.739254
O O6 0.388162 0.921370 0.718661
O O7 0.434236 0.938684 0.968428
O O8 0.414309 0.844418 0.554241
O O9 0.341232 0.922608 0.472603
O O10 0.714746 0.045269 0.250613
O O11 0.714773 0.000000 0.000000
O O12 0.703665 0.296336 0.938395
O O13 0.749025 0.392846 0.947471
O O14 0.500000 0.772896 0.000000
#
# Coordination Sequence:
#
# PCOD9560599 Si02
#       6
#    16  16  16  16  16  16
#     4   9  18  34  53  75  99 126 163 205 251 298
#     4  11  22  34  44  54  77 114 162 206 249 282
#     4  12  22  33  43  64  88 120 156 202 246 281
#     4  11  23  35  51  72  96 130 165 204 250 292
#     4   9  18  34  53  75  99 126 163 205 251 298
#     4  11  23  35  51  72  96 130 165 204 250 292
#
# _framework density 15.96855
#
# number of rings (size 3 to 8) (size 9 to 14) (size 15 to 20)
#    0.000    1.500    3.333    3.000    2.333    2.667 
#    0.000    0.000    0.000    0.000    0.000    0.000 
#    0.000    0.667    0.000    8.333    0.000    0.000 
#
# Total GULP energy -267491.336721 kJ/mol
# GULP energy per Si atom -5572.736182 kJ/mol
# Density = 1.593221 g / cm^3
# Si number density = 15.968550 Si / 1000 Ang^3
#
#
#
# Elastic Constant Matrix: (Units=GPa)
#
#
# Indices 1 2 3 4 5 6 
#
# 1 87.7240 43.7472 34.4963 0.0000 0.0000 0.0000
# 2 43.7472 87.7252 34.4966 0.0000 0.0000 0.0000
# 3 34.4963 34.4966 61.6438 0.0000 0.0000 0.0000
# 4 0.0000 0.0000 0.0000 16.8781 0.0000 0.0000
# 5 0.0000 0.0000 0.0000 0.0000 16.8781 0.0000
# 6 0.0000 0.0000 0.0000 0.0000 0.0000 19.0811
#
#
#
# Elastic Compliance Matrix: (Units=1/GPa)
#
#
# Indices 1 2 3 4 5 6 
#
# 1 0.016754 -0.005985 -0.006026 0.000000 0.000000 0.000000
# 2 -0.005985 0.016754 -0.006026 0.000000 0.000000 0.000000
# 3 -0.006026 -0.006026 0.022967 0.000000 0.000000 0.000000
# 4 0.000000 0.000000 0.000000 0.059248 0.000000 0.000000
# 5 0.000000 0.000000 0.000000 0.000000 0.059248 0.000000
# 6 0.000000 0.000000 0.000000 0.000000 0.000000 0.052408
#
#
# Mechanical properties :
#
#
# Convention : Reuss Voigt Hill
#
# Bulk Modulus (GPa) = 49.02145 51.39703 50.20924
# Shear Modulus (GPa) = 18.50113 18.85766 18.67939
#
# Velocity S-wave (km/s) = 3.40751 3.44019 3.42389
# Velocity P-wave (km/s) = 6.80051 6.93081 6.86597
#
# Compressibility (1/GPa) = 0.02039923
#
# Stress axis : x y z
#
# Youngs Moduli (GPa) = 59.68767 59.68844 43.54092
#
# Poissons Ratio (x) = 0.35725 0.26239
# Poissons Ratio (y) = 0.35724 0.26239
# Poissons Ratio (z) = 0.35969 0.35970
#
# Static dielectric constant tensor:
#      x y z
#    x 1.575110 0.000000 0.000000 
#    y 0.000000 1.575110 0.000000 
#    z 0.000000 0.000000 1.537070 
# 
# From -- ./inp_files/1919.got.cif
#   From: 2010.05.17/outbox.cif.g08.bks.cpg/sg121_1_cif.got.tgz:1919.got - 2010.05.20 11:32:06.
