data_PCOD9560178
_publ_section_title
;
Structure prediction by ZEFSAII (Michael W. Deem and Ramdas Pophale) SiO2 
 PCOD9560178
Probable space group: I -4 2 M
;
_chemical_formula_sum "Si O2"
_cell_formula_units_Z 80
_cell_length_a 12.838231
_cell_length_b 12.838231
_cell_length_c 25.906381
_cell_angle_alpha 90.000000
_cell_angle_beta 90.000000
_cell_angle_gamma 90.000000
_cell_volume 4269.894255
_symmetry_space_group_name_H-M "I -4 2 M"
_symmetry_group_IT_number 121
_symmetry_cell_setting 'tetragonal'
loop_
_space_group_symop_operation_xyz
x,y,z
y,-x,-z
-x,-y,z
-y,x,-z
x,-y,-z
-x,y,-z
-y,-x,z
y,x,z
1/2+x,1/2+y,1/2+z
1/2+y,1/2-x,1/2-z
1/2-x,1/2-y,1/2+z
1/2-y,1/2+x,1/2-z
1/2+x,1/2-y,1/2-z
1/2-x,1/2+y,1/2-z
1/2-y,1/2-x,1/2+z
1/2+y,1/2+x,1/2+z
loop_
_atom_site_type_symbol
_atom_site_label
_atom_site_fract_x
_atom_site_fract_y
_atom_site_fract_z
Si Si1 0.622704 0.966395 0.945323
Si Si2 0.503519 0.326843 0.268283
Si Si3 0.942470 0.230424 0.340809
Si Si4 0.878654 0.538607 0.668169
Si Si5 0.762158 0.934024 0.447305
O O1 0.632413 0.842761 0.944326
O O2 0.500000 0.000000 0.947287
O O3 0.655528 0.013178 0.890667
O O4 0.670139 0.000000 0.000000
O O5 0.602150 0.397851 0.285201
O O6 0.400435 0.400435 0.274962
O O7 0.513796 0.303188 0.207188
O O8 0.496385 0.214428 0.295957
O O9 0.857898 0.142103 0.347315
O O10 0.887846 0.338040 0.325824
O O11 0.998631 0.241920 0.395406
O O12 0.000000 0.500000 0.676252
O O13 0.864103 0.864103 0.447834
O O14 0.757380 0.000000 0.500000
#
# Coordination Sequence:
#
# PCOD9560178 Si02
#       5
#    16  16  16  16  16
#     4  10  18  39  63  82 119 156 193 244 295 354
#     4  10  24  44  63  86 123 168 208 255 312 365
#     4  11  23  39  60  89 123 162 200 246 308 365
#     4  11  22  39  64  93 118 155 207 255 297 361
#     4  12  23  37  60  90 121 158 199 243 299 367
#
# _framework density 18.735827
#
# number of rings (size 3 to 8) (size 9 to 14) (size 15 to 20)
#    0.000    1.200    6.000    1.800    2.800    3.000 
#    0.000    1.000    0.000    0.000    0.000    1.400 
#    0.000    0.000    0.000    0.000    0.000    0.000 
#
# Total GULP energy -223027.489501 kJ/mol
# GULP energy per Si atom -5575.687238 kJ/mol
# Density = 1.869318 g / cm^3
# Si number density = 18.735827 Si / 1000 Ang^3
#
#
#
# Elastic Constant Matrix: (Units=GPa)
#
#
# Indices 1 2 3 4 5 6 
#
# 1 25.2289 44.7653 41.2741 0.0000 0.0000 0.0000
# 2 44.7653 25.2420 41.2758 0.0000 0.0000 0.0000
# 3 41.2741 41.2758 124.3668 0.0000 0.0000 0.0000
# 4 0.0000 0.0000 0.0000 38.4257 0.0000 0.0000
# 5 0.0000 0.0000 0.0000 0.0000 38.4252 0.0000
# 6 0.0000 0.0000 0.0000 0.0000 0.0000 -7.1444
#
#
#
# Elastic Compliance Matrix: (Units=1/GPa)
#
#
# Indices 1 2 3 4 5 6 
#
# 1 -0.013873 0.037338 -0.007788 0.000000 0.000000 0.000000
# 2 0.037338 -0.013859 -0.007792 0.000000 0.000000 0.000000
# 3 -0.007788 -0.007792 0.013211 0.000000 0.000000 0.000000
# 4 0.000000 0.000000 0.000000 0.026024 0.000000 0.000000
# 5 0.000000 0.000000 0.000000 0.000000 0.026025 0.000000
# 6 0.000000 0.000000 0.000000 0.000000 0.000000 -0.139969
#
#
# Mechanical properties :
#
#
# Convention : Reuss Voigt Hill
#
# Bulk Modulus (GPa) = 34.48786 47.71869 41.10328
# Shear Modulus (GPa) = -36.68622 17.10946 -9.78838
#
# Velocity S-wave (km/s) = -4.42982 3.02519 -2.28818
# Velocity P-wave (km/s) = 2.77795 6.14222 3.87362
#
# Compressibility (1/GPa) = 0.02899571
#
# Stress axis : x y z
#
# Youngs Moduli (GPa) = -72.08279 -72.15758 75.69233
#
# Poissons Ratio (x) = 2.69420 0.58948
# Poissons Ratio (y) = 2.69141 0.58979
# Poissons Ratio (z) = -0.56137 -0.56225
#
# Static dielectric constant tensor:
#      x y z
#    x 1.648220 0.000000 0.000000 
#    y 0.000000 1.648230 0.000000 
#    z 0.000000 0.000000 1.710690 
# 
# From -- ./inp_files/8063.got.cif
#   From: 2010.05.17/outbox.cif.g08.bks.cpg/sg121_5_cif.got.tgz:8063.got - 2010.05.20 11:32:06.
