data_PCOD9560157
_publ_section_title
;
Structure prediction by ZEFSAII (Michael W. Deem and Ramdas Pophale) SiO2 
 PCOD9560157
Probable space group: I -4 2 M
;
_chemical_formula_sum "Si O2"
_cell_formula_units_Z 96
_cell_length_a 23.854857
_cell_length_b 23.854857
_cell_length_c 10.931603
_cell_angle_alpha 90.000000
_cell_angle_beta 90.000000
_cell_angle_gamma 90.000000
_cell_volume 6220.674627
_symmetry_space_group_name_H-M "I -4 2 M"
_symmetry_group_IT_number 121
_symmetry_cell_setting 'tetragonal'
loop_
_space_group_symop_operation_xyz
x,y,z
y,-x,-z
-x,-y,z
-y,x,-z
x,-y,-z
-x,y,-z
-y,-x,z
y,x,z
1/2+x,1/2+y,1/2+z
1/2+y,1/2-x,1/2-z
1/2-x,1/2-y,1/2+z
1/2-y,1/2+x,1/2-z
1/2+x,1/2-y,1/2-z
1/2-x,1/2+y,1/2-z
1/2-y,1/2-x,1/2+z
1/2+y,1/2+x,1/2+z
loop_
_atom_site_type_symbol
_atom_site_label
_atom_site_fract_x
_atom_site_fract_y
_atom_site_fract_z
Si Si1 0.205742 0.616112 0.064308
Si Si2 0.087589 0.552068 0.088949
Si Si3 0.299074 0.895285 0.301442
Si Si4 0.997009 0.636149 0.819004
Si Si5 0.394532 0.797712 0.334042
Si Si6 0.836290 0.257523 0.067469
O O1 0.145914 0.583434 0.059102
O O2 0.229129 0.600732 0.198311
O O3 0.196610 0.682934 0.065874
O O4 0.231495 0.601199 0.932604
O O5 0.040529 0.599049 0.092246
O O6 0.094684 0.528551 0.225567
O O7 0.077445 0.500000 0.000000
O O8 0.327452 0.953253 0.261147
O O9 0.349404 0.848979 0.317495
O O10 0.261430 0.873745 0.189441
O O11 0.045736 0.675926 0.868993
O O12 0.372019 0.759196 0.442620
O O13 0.793186 0.206815 0.070761
#
# Coordination Sequence:
#
# PCOD9560157 Si02
#       6
#    16  16  16  16  16  16
#     4   9  18  33  49  68  87 112 160 203 244 294
#     4  11  21  35  46  63  95 134 166 206 243 295
#     4  10  18  33  48  66  87 117 157 200 246 300
#     4  11  19  35  46  65  95 128 169 199 252 294
#     4   9  20  33  47  67  93 120 156 202 244 307
#     4  10  20  35  50  65  87 116 156 216 270 299
#
# _framework density 15.432410000000001
#
# number of rings (size 3 to 8) (size 9 to 14) (size 15 to 20)
#    0.000    2.000    6.667    0.000    0.000    7.000 
#    3.000    7.500    0.000    0.000    0.000    0.000 
#    0.000    0.000    0.000    0.000    0.000    6.667 
#
# Total GULP energy -267665.389437 kJ/mol
# GULP energy per Si atom -5576.362280 kJ/mol
# Density = 1.539729 g / cm^3
# Si number density = 15.432410 Si / 1000 Ang^3
#
#
#
# Elastic Constant Matrix: (Units=GPa)
#
#
# Indices 1 2 3 4 5 6 
#
# 1 31.6136 28.1533 33.4663 0.0000 0.0000 0.0000
# 2 28.1533 31.6153 33.4663 0.0000 0.0000 0.0000
# 3 33.4663 33.4663 125.6172 0.0000 0.0000 0.0000
# 4 0.0000 0.0000 0.0000 13.8656 0.0000 0.0000
# 5 0.0000 0.0000 0.0000 0.0000 13.8667 0.0000
# 6 0.0000 0.0000 0.0000 0.0000 0.0000 27.6407
#
#
#
# Elastic Compliance Matrix: (Units=1/GPa)
#
#
# Indices 1 2 3 4 5 6 
#
# 1 0.156389 -0.132538 -0.006354 0.000000 0.000000 0.000000
# 2 -0.132538 0.156378 -0.006351 0.000000 0.000000 0.000000
# 3 -0.006354 -0.006351 0.011346 0.000000 0.000000 0.000000
# 4 0.000000 0.000000 0.000000 0.072121 0.000000 0.000000
# 5 0.000000 0.000000 0.000000 0.000000 0.072115 0.000000
# 6 0.000000 0.000000 0.000000 0.000000 0.000000 0.036179
#
#
# Mechanical properties :
#
#
# Convention : Reuss Voigt Hill
#
# Bulk Modulus (GPa) = 29.73897 42.11308 35.92603
# Shear Modulus (GPa) = 6.20176 17.32528 11.76352
#
# Velocity S-wave (km/s) = 2.00683 3.35424 2.76390
# Velocity P-wave (km/s) = 4.96811 6.50763 5.78927
#
# Compressibility (1/GPa) = 0.03362591
#
# Stress axis : x y z
#
# Youngs Moduli (GPa) = 6.39430 6.39477 88.13906
#
# Poissons Ratio (x) = 0.84755 0.56008
# Poissons Ratio (y) = 0.84749 0.55980
# Poissons Ratio (z) = 0.04063 0.04062
#
# Static dielectric constant tensor:
#      x y z
#    x 1.488920 0.000000 0.000000 
#    y 0.000000 1.488920 0.000000 
#    z 0.000000 0.000000 1.633950 
# 
# From -- ./inp_files/3290.got.cif
#   From: 2010.05.17/outbox.cif.g08.bks.cpg/sg121_2_cif.got.tgz:3290.got - 2010.05.20 11:32:06.
