data_PCOD9560437
_publ_section_title
;
Structure prediction by ZEFSAII (Michael W. Deem and Ramdas Pophale) SiO2 
 PCOD9560437
Probable space group: I -4 2 M
;
_chemical_formula_sum "Si O2"
_cell_formula_units_Z 96
_cell_length_a 20.184364
_cell_length_b 20.184364
_cell_length_c 11.956892
_cell_angle_alpha 90.000000
_cell_angle_beta 90.000000
_cell_angle_gamma 90.000000
_cell_volume 4871.340033
_symmetry_space_group_name_H-M "I -4 2 M"
_symmetry_group_IT_number 121
_symmetry_cell_setting 'tetragonal'
loop_
_space_group_symop_operation_xyz
x,y,z
y,-x,-z
-x,-y,z
-y,x,-z
x,-y,-z
-x,y,-z
-y,-x,z
y,x,z
1/2+x,1/2+y,1/2+z
1/2+y,1/2-x,1/2-z
1/2-x,1/2-y,1/2+z
1/2-y,1/2+x,1/2-z
1/2+x,1/2-y,1/2-z
1/2-x,1/2+y,1/2-z
1/2-y,1/2-x,1/2+z
1/2+y,1/2+x,1/2+z
loop_
_atom_site_type_symbol
_atom_site_label
_atom_site_fract_x
_atom_site_fract_y
_atom_site_fract_z
Si Si1 0.840483 0.051225 0.340321
Si Si2 0.424115 0.934217 0.548330
Si Si3 0.576365 0.793919 0.538293
Si Si4 0.757560 0.865348 0.826658
Si Si5 0.607252 0.167989 0.215445
Si Si6 0.590977 0.697812 0.911178
O O1 0.911884 0.088117 0.329471
O O2 0.794256 0.076138 0.239792
O O3 0.809598 0.078411 0.456434
O O4 0.837887 0.972167 0.352705
O O5 0.500000 0.934344 0.500000
O O6 0.397982 0.866288 0.498600
O O7 0.399961 0.930300 0.677226
O O8 0.392733 0.000000 0.500000
O O9 0.500000 0.787598 0.500000
O O10 0.617256 0.745379 0.458486
O O11 0.583411 0.797667 0.670408
O O12 0.800354 0.800354 0.807306
O O13 0.684025 0.852818 0.780467
O O14 0.595758 0.226209 0.125428
O O15 0.657676 0.657676 0.882707
#
# Coordination Sequence:
#
# PCOD9560437 Si02
#       6
#    16  16  16  16  16  16
#     4   9  20  38  61  86 119 160 202 252 310 383
#     4   9  21  38  56  83 111 151 200 244 296 353
#     4  10  22  39  56  82 111 152 192 240 298 354
#     4  10  22  38  58  83 115 156 201 245 298 361
#     4  11  23  36  60  86 122 154 200 254 305 368
#     4  10  21  36  59  93 122 153 200 253 321 381
#
# _framework density 19.707104000000001
#
# number of rings (size 3 to 8) (size 9 to 14) (size 15 to 20)
#    0.000    2.167    0.000    1.500    7.000    5.667 
#    0.000    5.000    0.000    0.000    0.000    0.000 
#    0.000    4.000    0.000    0.000    0.000    0.000 
#
# Total GULP energy -267310.795540 kJ/mol
# GULP energy per Si atom -5568.974907 kJ/mol
# Density = 1.966225 g / cm^3
# Si number density = 19.707104 Si / 1000 Ang^3
#
#
#
# Elastic Constant Matrix: (Units=GPa)
#
#
# Indices 1 2 3 4 5 6 
#
# 1 65.7849 8.1147 23.1186 0.0000 0.0000 0.0000
# 2 8.1147 65.7855 23.1193 0.0000 0.0000 0.0000
# 3 23.1186 23.1193 89.1498 0.0000 0.0000 0.0000
# 4 0.0000 0.0000 0.0000 21.5303 0.0000 0.0000
# 5 0.0000 0.0000 0.0000 0.0000 21.5293 0.0000
# 6 0.0000 0.0000 0.0000 0.0000 0.0000 11.6133
#
#
#
# Elastic Compliance Matrix: (Units=1/GPa)
#
#
# Indices 1 2 3 4 5 6 
#
# 1 0.016746 -0.000594 -0.004189 0.000000 0.000000 0.000000
# 2 -0.000594 0.016746 -0.004189 0.000000 0.000000 0.000000
# 3 -0.004189 -0.004189 0.013390 0.000000 0.000000 0.000000
# 4 0.000000 0.000000 0.000000 0.046446 0.000000 0.000000
# 5 0.000000 0.000000 0.000000 0.000000 0.046448 0.000000
# 6 0.000000 0.000000 0.000000 0.000000 0.000000 0.086108
#
#
# Mechanical properties :
#
#
# Convention : Reuss Voigt Hill
#
# Bulk Modulus (GPa) = 34.55463 36.60285 35.57874
# Shear Modulus (GPa) = 19.72588 22.02577 20.87582
#
# Velocity S-wave (km/s) = 3.16722 3.34676 3.25823
# Velocity P-wave (km/s) = 5.56302 5.79208 5.67870
#
# Compressibility (1/GPa) = 0.02893968
#
# Stress axis : x y z
#
# Youngs Moduli (GPa) = 59.71462 59.71486 74.68468
#
# Poissons Ratio (x) = 0.03545 0.31284
# Poissons Ratio (y) = 0.03545 0.31285
# Poissons Ratio (z) = 0.25013 0.25014
#
# Static dielectric constant tensor:
#      x y z
#    x 1.711570 0.000000 0.000000 
#    y 0.000000 1.711570 0.000000 
#    z 0.000000 0.000000 1.772700 
# 
# From -- ./inp_files/3315.got.cif
#   From: 2010.05.17/outbox.cif.g08.bks.cpg/sg121_2_cif.got.tgz:3315.got - 2010.05.20 11:32:06.
