data_PCOD9560700
_publ_section_title
;
Structure prediction by ZEFSAII (Michael W. Deem and Ramdas Pophale) SiO2 
 PCOD9560700
Probable space group: I -4 2 D
;
_chemical_formula_sum "Si O2"
_cell_formula_units_Z 108
_cell_length_a 14.539410
_cell_length_b 14.539410
_cell_length_c 29.033434
_cell_angle_alpha 90.000000
_cell_angle_beta 90.000000
_cell_angle_gamma 90.000000
_cell_volume 6137.506613
_symmetry_space_group_name_H-M "I -4 2 D"
_symmetry_group_IT_number 122
_symmetry_cell_setting 'tetragonal'
loop_
_space_group_symop_operation_xyz
x,y,z
y,-x,-z
-x,-y,z
-y,x,-z
x,1/2-y,1/4-z
-x,1/2+y,1/4-z
-y,1/2-x,1/4+z
y,1/2+x,1/4+z
1/2+x,1/2+y,1/2+z
1/2+y,1/2-x,1/2-z
1/2-x,1/2-y,1/2+z
1/2-y,1/2+x,1/2-z
1/2+x,-y,3/4-z
1/2-x,y,3/4-z
1/2-y,-x,3/4+z
1/2+y,x,3/4+z
loop_
_atom_site_type_symbol
_atom_site_label
_atom_site_fract_x
_atom_site_fract_y
_atom_site_fract_z
Si Si1 0.362227 0.841217 0.537678
Si Si2 0.000000 0.000000 0.000000
Si Si3 0.500000 0.000000 0.440224
Si Si4 0.042999 0.653055 0.483488
Si Si5 0.896462 0.477139 0.399404
Si Si6 0.517220 0.196158 0.444556
Si Si7 0.730263 0.317182 0.235602
Si Si8 0.870625 0.627709 0.187088
O O1 0.431898 0.850054 0.580231
O O2 0.427198 0.821113 0.492811
O O3 0.288944 0.760077 0.540203
O O4 0.315123 0.941621 0.531369
O O5 0.938032 0.068231 0.969631
O O6 0.415297 0.022171 0.474066
O O7 0.518896 0.098900 0.417442
O O8 0.084430 0.591068 0.442243
O O9 0.127421 0.714732 0.500648
O O10 0.846849 0.429875 0.357039
O O11 0.000000 0.500000 0.382442
O O12 0.412822 0.223020 0.457472
O O13 0.569920 0.280972 0.421764
O O14 0.786382 0.340411 0.282142
#
# Coordination Sequence:
#
# PCOD9560700 Si02
#       8
#    16   4   8  16  16  16  16  16
#     4   9  17  31  49  67  99 128 169 217 252 301
#     4  12  20  30  36  64 116 152 164 208 232 328
#     4   8  12  27  52  60  82 123 164 220 243 272
#     4   9  15  31  48  69  92 125 171 216 249 296
#     4  10  17  31  47  68 101 143 170 204 247 306
#     4   9  16  30  45  67  93 126 169 213 250 306
#     4  10  18  29  49  69  94 135 173 216 258 307
#     4  11  21  28  42  67 108 143 172 199 252 314
#
# _framework density 17.596723999999998
#
# number of rings (size 3 to 8) (size 9 to 14) (size 15 to 20)
#    0.000    2.370    7.407    0.000    0.000    0.593 
#    0.000    1.481    0.000    0.444    0.000    4.148 
#    0.000   18.963    0.000    0.000    0.000    0.000 
#
# Total GULP energy -300775.384645 kJ/mol
# GULP energy per Si atom -5569.914530 kJ/mol
# Density = 1.755667 g / cm^3
# Si number density = 17.596724 Si / 1000 Ang^3
#
#
#
# Elastic Constant Matrix: (Units=GPa)
#
#
# Indices 1 2 3 4 5 6 
#
# 1 103.0827 59.0110 20.7231 0.0000 0.0000 0.0000
# 2 59.0110 103.0827 20.7231 0.0000 0.0000 0.0000
# 3 20.7231 20.7231 31.6332 0.0000 0.0000 0.0000
# 4 0.0000 0.0000 0.0000 1.9998 0.0000 0.0000
# 5 0.0000 0.0000 0.0000 0.0000 1.9998 0.0000
# 6 0.0000 0.0000 0.0000 0.0000 0.0000 30.8465
#
#
#
# Elastic Compliance Matrix: (Units=1/GPa)
#
#
# Indices 1 2 3 4 5 6 
#
# 1 0.015050 -0.007640 -0.004855 0.000000 0.000000 0.000000
# 2 -0.007640 0.015050 -0.004855 0.000000 0.000000 0.000000
# 3 -0.004855 -0.004855 0.037973 0.000000 0.000000 0.000000
# 4 0.000000 0.000000 0.000000 0.500055 0.000000 0.000000
# 5 0.000000 0.000000 0.000000 0.000000 0.500055 0.000000
# 6 0.000000 0.000000 0.000000 0.000000 0.000000 0.032419
#
#
# Mechanical properties :
#
#
# Convention : Reuss Voigt Hill
#
# Bulk Modulus (GPa) = 29.96220 48.74590 39.35405
# Shear Modulus (GPa) = 4.36138 16.12530 10.24334
#
# Velocity S-wave (km/s) = 1.57604 3.03046 2.41533
# Velocity P-wave (km/s) = 4.51398 6.32509 5.49467
#
# Compressibility (1/GPa) = 0.03337539
#
# Stress axis : x y z
#
# Youngs Moduli (GPa) = 66.44329 66.44329 26.33439
#
# Poissons Ratio (x) = 0.50762 0.12785
# Poissons Ratio (y) = 0.50762 0.12785
# Poissons Ratio (z) = 0.32256 0.32256
#
# Static dielectric constant tensor:
#      x y z
#    x 1.658600 0.000000 0.000000 
#    y 0.000000 1.658600 0.000000 
#    z 0.000000 0.000000 1.595140 
# 
# From -- ./inp_files/9706.got.cif
#   From: 2010.05.17/outbox.cif.g08.bks.cpg/sg122_5_cif.got.tgz:9706.got - 2010.05.20 11:37:33.
