data_PCOD9560614
_publ_section_title
;
Structure prediction by ZEFSAII (Michael W. Deem and Ramdas Pophale) SiO2 
 PCOD9560614
Probable space group: I -4 2 M
;
_chemical_formula_sum "Si O2"
_cell_formula_units_Z 72
_cell_length_a 21.895962
_cell_length_b 21.895962
_cell_length_c 7.983712
_cell_angle_alpha 90.000000
_cell_angle_beta 90.000000
_cell_angle_gamma 90.000000
_cell_volume 3827.656208
_symmetry_space_group_name_H-M "I -4 2 M"
_symmetry_group_IT_number 121
_symmetry_cell_setting 'tetragonal'
loop_
_space_group_symop_operation_xyz
x,y,z
y,-x,-z
-x,-y,z
-y,x,-z
x,-y,-z
-x,y,-z
-y,-x,z
y,x,z
1/2+x,1/2+y,1/2+z
1/2+y,1/2-x,1/2-z
1/2-x,1/2-y,1/2+z
1/2-y,1/2+x,1/2-z
1/2+x,1/2-y,1/2-z
1/2-x,1/2+y,1/2-z
1/2-y,1/2-x,1/2+z
1/2+y,1/2+x,1/2+z
loop_
_atom_site_type_symbol
_atom_site_label
_atom_site_fract_x
_atom_site_fract_y
_atom_site_fract_z
Si Si1 0.000000 0.766638 0.000000
Si Si2 0.694086 0.889481 0.157978
Si Si3 0.817976 0.817976 0.607812
Si Si4 0.434612 0.843644 0.976844
Si Si5 0.228883 0.771118 0.752554
Si Si6 0.714088 0.542815 0.153728
O O1 0.941567 0.725825 0.048649
O O2 0.016413 0.803815 0.166814
O O3 0.686146 0.913063 0.347989
O O4 0.737317 0.829254 0.161644
O O5 0.625532 0.876449 0.092601
O O6 0.792906 0.792906 0.430261
O O7 0.780822 0.780822 0.748497
O O8 0.807101 0.889095 0.624400
O O9 0.500000 0.877842 0.000000
O O10 0.452069 0.787984 0.853943
O O11 0.695309 0.500000 0.000000
#
# Coordination Sequence:
#
# PCOD9560614 Si02
#       6
#     8  16   8  16   8  16
#     4  12  24  40  67  84 128 185 212 266 328 384
#     4  12  23  38  64  90 127 171 216 266 328 388
#     4  12  24  38  64  99 138 166 217 279 334 408
#     4  11  22  41  60  89 128 167 217 263 314 386
#     4  12  22  36  58 102 134 162 205 282 340 386
#     4  11  22  43  60  96 131 173 215 261 333 398
#
# _framework density 18.810466999999999
#
# number of rings (size 3 to 8) (size 9 to 14) (size 15 to 20)
#    0.000    0.444    8.889    1.333    3.111    0.000 
#    0.000    0.556    0.000    0.333    0.000    0.000 
#    0.000    4.000    0.000    0.000    0.000    0.000 
#
# Total GULP energy -200992.399484 kJ/mol
# GULP energy per Si atom -5583.122208 kJ/mol
# Density = 1.876765 g / cm^3
# Si number density = 18.810467 Si / 1000 Ang^3
#
#
#
# Elastic Constant Matrix: (Units=GPa)
#
#
# Indices 1 2 3 4 5 6 
#
# 1 125.1048 55.5560 42.3167 0.0000 0.0000 0.0000
# 2 55.5560 125.1058 42.3165 0.0000 0.0000 0.0000
# 3 42.3167 42.3165 129.0935 0.0000 0.0000 0.0000
# 4 0.0000 0.0000 0.0000 20.6687 0.0000 0.0000
# 5 0.0000 0.0000 0.0000 0.0000 20.6693 0.0000
# 6 0.0000 0.0000 0.0000 0.0000 0.0000 11.8778
#
#
#
# Elastic Compliance Matrix: (Units=1/GPa)
#
#
# Indices 1 2 3 4 5 6 
#
# 1 0.010459 -0.003919 -0.002144 0.000000 0.000000 0.000000
# 2 -0.003919 0.010459 -0.002144 0.000000 0.000000 0.000000
# 3 -0.002144 -0.002144 0.009152 0.000000 0.000000 0.000000
# 4 0.000000 0.000000 0.000000 0.048382 0.000000 0.000000
# 5 0.000000 0.000000 0.000000 0.000000 0.048381 0.000000
# 6 0.000000 0.000000 0.000000 0.000000 0.000000 0.084191
#
#
# Mechanical properties :
#
#
# Convention : Reuss Voigt Hill
#
# Bulk Modulus (GPa) = 73.22752 73.29807 73.26280
# Shear Modulus (GPa) = 21.55277 26.58416 24.06847
#
# Velocity S-wave (km/s) = 3.38862 3.76342 3.58093
# Velocity P-wave (km/s) = 7.37048 7.61155 7.49198
#
# Compressibility (1/GPa) = 0.01365607
#
# Stress axis : x y z
#
# Youngs Moduli (GPa) = 95.61229 95.61326 109.26974
#
# Poissons Ratio (x) = 0.37475 0.23423
# Poissons Ratio (y) = 0.37475 0.23423
# Poissons Ratio (z) = 0.20496 0.20495
#
# Static dielectric constant tensor:
#      x y z
#    x 1.673330 0.000000 0.000000 
#    y 0.000000 1.673330 0.000000 
#    z 0.000000 0.000000 1.708260 
# 
# From -- ./inp_files/1763.got.cif
#   From: 2010.05.17/outbox.cif.g08.bks.cpg/sg121_1_cif.got.tgz:1763.got - 2010.05.20 11:32:06.
