data_PCOD9560690
_publ_section_title
;
Structure prediction by ZEFSAII (Michael W. Deem and Ramdas Pophale) SiO2 
 PCOD9560690
Probable space group: I -4 2 D
;
_chemical_formula_sum "Si O2"
_cell_formula_units_Z 96
_cell_length_a 20.897451
_cell_length_b 20.897451
_cell_length_c 9.875957
_cell_angle_alpha 90.000000
_cell_angle_beta 90.000000
_cell_angle_gamma 90.000000
_cell_volume 4312.864576
_symmetry_space_group_name_H-M "I -4 2 D"
_symmetry_group_IT_number 122
_symmetry_cell_setting 'tetragonal'
loop_
_space_group_symop_operation_xyz
x,y,z
y,-x,-z
-x,-y,z
-y,x,-z
x,1/2-y,1/4-z
-x,1/2+y,1/4-z
-y,1/2-x,1/4+z
y,1/2+x,1/4+z
1/2+x,1/2+y,1/2+z
1/2+y,1/2-x,1/2-z
1/2-x,1/2-y,1/2+z
1/2-y,1/2+x,1/2-z
1/2+x,-y,3/4-z
1/2-x,y,3/4-z
1/2-y,-x,3/4+z
1/2+y,x,3/4+z
loop_
_atom_site_type_symbol
_atom_site_label
_atom_site_fract_x
_atom_site_fract_y
_atom_site_fract_z
Si Si1 0.588122 0.350298 0.081063
Si Si2 0.051387 0.349569 0.169010
Si Si3 0.063425 0.838265 0.894224
Si Si4 0.195194 0.809717 0.970597
Si Si5 0.270041 0.850880 0.220784
Si Si6 0.527188 0.836884 0.366944
O O1 0.566443 0.332421 0.232326
O O2 0.535662 0.333152 0.971574
O O3 0.658689 0.322165 0.050593
O O4 0.602376 0.427004 0.079797
O O5 0.004320 0.329187 0.286756
O O6 0.117426 0.310550 0.164304
O O7 0.087136 0.418274 0.180430
O O8 0.015877 0.341532 0.026559
O O9 0.120365 0.792675 0.953167
O O10 0.219472 0.816541 0.123606
O O11 0.250000 0.779027 0.875000
O O12 0.250000 0.854270 0.375000
O O13 0.280153 0.923458 0.168087
#
# Coordination Sequence:
#
# PCOD9560690 Si02
#       6
#    16  16  16  16  16  16
#     4   9  19  32  44  68  99 126 161 191 234 283
#     4   9  19  30  48  68  93 130 161 194 231 277
#     4   9  19  30  48  68  93 130 161 194 231 277
#     4  10  16  36  49  62  97 125 164 203 226 280
#     4  10  20  32  49  70  89 133 158 197 246 274
#     4   9  19  32  44  68  99 126 161 191 234 283
#
# _framework density 22.258989
#
# number of rings (size 3 to 8) (size 9 to 14) (size 15 to 20)
#    2.000    0.667    3.333    0.000    4.667    2.000 
#    0.000    3.333    0.000    0.000    0.000    0.000 
#    0.000    8.000    0.000    0.000    0.000    0.000 
#
# Total GULP energy -267413.935290 kJ/mol
# GULP energy per Si atom -5571.123652 kJ/mol
# Density = 2.220833 g / cm^3
# Si number density = 22.258989 Si / 1000 Ang^3
#
#
#
# Elastic Constant Matrix: (Units=GPa)
#
#
# Indices 1 2 3 4 5 6 
#
# 1 67.2627 8.4820 4.8358 0.0000 0.0000 0.0000
# 2 8.4820 67.2627 4.8358 0.0000 0.0000 0.0000
# 3 4.8358 4.8358 78.5641 0.0000 0.0000 0.0000
# 4 0.0000 0.0000 0.0000 -42.1039 0.0000 0.0000
# 5 0.0000 0.0000 0.0000 0.0000 -42.1039 0.0000
# 6 0.0000 0.0000 0.0000 0.0000 0.0000 7.3808
#
#
#
# Elastic Compliance Matrix: (Units=1/GPa)
#
#
# Indices 1 2 3 4 5 6 
#
# 1 0.015160 -0.001853 -0.000819 0.000000 0.000000 0.000000
# 2 -0.001853 0.015160 -0.000819 0.000000 0.000000 0.000000
# 3 -0.000819 -0.000819 0.012829 0.000000 0.000000 0.000000
# 4 0.000000 0.000000 0.000000 -0.023751 0.000000 0.000000
# 5 0.000000 0.000000 0.000000 0.000000 -0.023751 0.000000
# 6 0.000000 0.000000 0.000000 0.000000 0.000000 0.135486
#
#
# Mechanical properties :
#
#
# Convention : Reuss Voigt Hill
#
# Bulk Modulus (GPa) = 27.64973 27.71072 27.68022
# Shear Modulus (GPa) = 33.29554 -2.36968 15.46293
#
# Velocity S-wave (km/s) = 3.87178 -1.03291 2.63854
# Velocity P-wave (km/s) = 5.69530 3.32471 4.66316
#
# Compressibility (1/GPa) = 0.03616672
#
# Stress axis : x y z
#
# Youngs Moduli (GPa) = 65.96475 65.96475 77.94662
#
# Poissons Ratio (x) = 0.12222 0.06384
# Poissons Ratio (y) = 0.12222 0.06384
# Poissons Ratio (z) = 0.05403 0.05403
#
# Static dielectric constant tensor:
#      x y z
#    x 1.911050 0.000000 0.000000 
#    y 0.000000 1.911050 0.000000 
#    z 0.000000 0.000000 1.765460 
# 
# From -- ./inp_files/2930.got.cif
#   From: 2010.05.17/outbox.cif.g08.bks.cpg/sg122_2_cif.got.tgz:2930.got - 2010.05.20 11:37:33.
