data_PCOD9560664
_publ_section_title
;
Structure prediction by ZEFSAII (Michael W. Deem and Ramdas Pophale) SiO2 
 PCOD9560664
Probable space group: I -4 2 M
;
_chemical_formula_sum "Si O2"
_cell_formula_units_Z 64
_cell_length_a 9.960741
_cell_length_b 9.960741
_cell_length_c 30.770513
_cell_angle_alpha 90.000000
_cell_angle_beta 90.000000
_cell_angle_gamma 90.000000
_cell_volume 3052.938334
_symmetry_space_group_name_H-M "I -4 2 M"
_symmetry_group_IT_number 121
_symmetry_cell_setting 'tetragonal'
loop_
_space_group_symop_operation_xyz
x,y,z
y,-x,-z
-x,-y,z
-y,x,-z
x,-y,-z
-x,y,-z
-y,-x,z
y,x,z
1/2+x,1/2+y,1/2+z
1/2+y,1/2-x,1/2-z
1/2-x,1/2-y,1/2+z
1/2-y,1/2+x,1/2-z
1/2+x,1/2-y,1/2-z
1/2-x,1/2+y,1/2-z
1/2-y,1/2-x,1/2+z
1/2+y,1/2+x,1/2+z
loop_
_atom_site_type_symbol
_atom_site_label
_atom_site_fract_x
_atom_site_fract_y
_atom_site_fract_z
Si Si1 0.171771 0.403475 0.134661
Si Si2 0.491041 0.276432 0.318843
Si Si3 0.506367 0.725391 0.776879
Si Si4 0.994063 0.774031 0.452225
O O1 0.293156 0.293156 0.134119
O O2 0.036229 0.322530 0.143566
O O3 0.195836 0.487926 0.178567
O O4 0.182948 0.479331 0.089421
O O5 0.607020 0.392981 0.316315
O O6 0.353159 0.353159 0.326374
O O7 0.493346 0.210172 0.270872
O O8 0.388525 0.611476 0.776421
O O9 0.646004 0.646004 0.778446
O O10 0.111144 0.888857 0.453106
O O11 0.000000 0.708960 0.500000
O O12 0.856054 0.856054 0.446806
#
# Coordination Sequence:
#
# PCOD9560664 Si02
#       4
#    16  16  16  16
#     4   9  14  20  34  52  72 112 159 187 223 276
#     4   8  14  23  33  49  76 109 147 191 233 273
#     4   8  13  21  33  50  73 104 148 195 227 260
#     4   8  13  20  30  49  80 115 153 196 232 266
#
# _framework density 20.963411000000001
#
# number of rings (size 3 to 8) (size 9 to 14) (size 15 to 20)
#    0.000    3.750    0.000    3.000    0.000    3.000 
#    0.000    0.000    0.000    0.750    0.000    0.000 
#    0.000    0.000    0.000   11.250    0.000  189.750 
#
# Total GULP energy -178623.823074 kJ/mol
# GULP energy per Si atom -5581.994471 kJ/mol
# Density = 2.091570 g / cm^3
# Si number density = 20.963411 Si / 1000 Ang^3
#
#
#
# Elastic Constant Matrix: (Units=GPa)
#
#
# Indices 1 2 3 4 5 6 
#
# 1 41.6688 37.6716 66.7727 0.0000 0.0000 0.0000
# 2 37.6716 41.6686 66.7726 0.0000 0.0000 0.0000
# 3 66.7727 66.7726 221.8439 0.0000 0.0000 0.0000
# 4 0.0000 0.0000 0.0000 20.6479 0.0000 0.0000
# 5 0.0000 0.0000 0.0000 0.0000 20.6479 0.0000
# 6 0.0000 0.0000 0.0000 0.0000 0.0000 27.8878
#
#
#
# Elastic Compliance Matrix: (Units=1/GPa)
#
#
# Indices 1 2 3 4 5 6 
#
# 1 0.137865 -0.112319 -0.007689 0.000000 0.000000 0.000000
# 2 -0.112319 0.137866 -0.007689 0.000000 0.000000 0.000000
# 3 -0.007689 -0.007689 0.009136 0.000000 0.000000 0.000000
# 4 0.000000 0.000000 0.000000 0.048431 0.000000 0.000000
# 5 0.000000 0.000000 0.000000 0.000000 0.048431 0.000000
# 6 0.000000 0.000000 0.000000 0.000000 0.000000 0.035858
#
#
# Mechanical properties :
#
#
# Convention : Reuss Voigt Hill
#
# Bulk Modulus (GPa) = 33.93014 71.95725 52.94369
# Shear Modulus (GPa) = 7.32273 22.76767 15.04520
#
# Velocity S-wave (km/s) = 1.87101 3.29913 2.68188
# Velocity P-wave (km/s) = 4.57035 6.99371 5.90763
#
# Compressibility (1/GPa) = 0.02947233
#
# Stress axis : x y z
#
# Youngs Moduli (GPa) = 7.25348 7.25344 109.45242
#
# Poissons Ratio (x) = 0.81470 0.84159
# Poissons Ratio (y) = 0.81470 0.84161
# Poissons Ratio (z) = 0.05577 0.05577
#
# Static dielectric constant tensor:
#      x y z
#    x 1.792570 0.000000 0.000000 
#    y 0.000000 1.792570 0.000000 
#    z 0.000000 0.000000 1.719390 
# 
# From -- ./inp_files/6910.got.cif
#   From: 2010.05.17/outbox.cif.g08.bks.cpg/sg121_4_cif.got.tgz:6910.got - 2010.05.20 11:32:06.
