data_PCOD9560720
_publ_section_title
;
Structure prediction by ZEFSAII (Michael W. Deem and Ramdas Pophale) SiO2 
 PCOD9560720
Probable space group: I -4 2 D
;
_chemical_formula_sum "Si O2"
_cell_formula_units_Z 112
_cell_length_a 15.456056
_cell_length_b 15.456056
_cell_length_c 29.401247
_cell_angle_alpha 90.000000
_cell_angle_beta 90.000000
_cell_angle_gamma 90.000000
_cell_volume 7023.654107
_symmetry_space_group_name_H-M "I -4 2 D"
_symmetry_group_IT_number 122
_symmetry_cell_setting 'tetragonal'
loop_
_space_group_symop_operation_xyz
x,y,z
y,-x,-z
-x,-y,z
-y,x,-z
x,1/2-y,1/4-z
-x,1/2+y,1/4-z
-y,1/2-x,1/4+z
y,1/2+x,1/4+z
1/2+x,1/2+y,1/2+z
1/2+y,1/2-x,1/2-z
1/2-x,1/2-y,1/2+z
1/2-y,1/2+x,1/2-z
1/2+x,-y,3/4-z
1/2-x,y,3/4-z
1/2-y,-x,3/4+z
1/2+y,x,3/4+z
loop_
_atom_site_type_symbol
_atom_site_label
_atom_site_fract_x
_atom_site_fract_y
_atom_site_fract_z
Si Si1 0.197656 0.792733 0.330154
Si Si2 0.629181 0.709911 0.715728
Si Si3 0.266810 0.003441 0.649122
Si Si4 0.022334 0.598073 0.429037
Si Si5 0.859049 0.474286 0.245116
Si Si6 0.939970 0.888938 0.721576
Si Si7 0.579334 0.878139 0.444925
O O1 0.250000 0.819364 0.375000
O O2 0.246875 0.714668 0.304859
O O3 0.179757 0.870215 0.294990
O O4 0.103345 0.761846 0.347383
O O5 0.604478 0.625806 0.686473
O O6 0.557091 0.785042 0.720117
O O7 0.635576 0.672603 0.767377
O O8 0.316886 0.983659 0.695798
O O9 0.182234 0.941856 0.652017
O O10 0.331139 0.992949 0.607308
O O11 0.000000 0.500000 0.415276
O O12 0.975997 0.617080 0.477351
O O13 0.903136 0.565230 0.256885
O O14 0.024973 0.885696 0.689329
O O15 0.896000 0.983908 0.717070
#
# Coordination Sequence:
#
# PCOD9560720 Si02
#       7
#    16  16  16  16  16  16  16
#     4  11  20  32  54  83 101 128 179 236 270 308
#     4  10  18  32  50  75 106 134 175 225 259 305
#     4  10  20  31  50  76 110 140 183 219 255 311
#     4  11  20  32  53  80 108 142 184 219 266 322
#     4  10  20  31  46  70 110 157 180 203 258 313
#     4   9  17  34  56  73  94 140 184 216 269 330
#     4   8  16  34  53  72  96 143 178 211 261 323
#
# _framework density 15.946115000000001
#
# number of rings (size 3 to 8) (size 9 to 14) (size 15 to 20)
#    0.000    2.143    5.714    0.000    2.000    0.000 
#    0.000    0.000    6.286    2.571    0.000    0.000 
#    0.000    0.000    0.000    0.000    0.000    0.000 
#
# Total GULP energy -311851.121657 kJ/mol
# GULP energy per Si atom -5568.770030 kJ/mol
# Density = 1.590982 g / cm^3
# Si number density = 15.946115 Si / 1000 Ang^3
#
#
#
# Elastic Constant Matrix: (Units=GPa)
#
#
# Indices 1 2 3 4 5 6 
#
# 1 60.1691 20.7919 21.4071 0.0000 0.0000 0.0000
# 2 20.7919 60.1691 21.4071 0.0000 0.0000 0.0000
# 3 21.4071 21.4071 47.4092 0.0000 0.0000 0.0000
# 4 0.0000 0.0000 0.0000 21.2034 0.0000 0.0000
# 5 0.0000 0.0000 0.0000 0.0000 21.2034 0.0000
# 6 0.0000 0.0000 0.0000 0.0000 0.0000 24.4002
#
#
#
# Elastic Compliance Matrix: (Units=1/GPa)
#
#
# Indices 1 2 3 4 5 6 
#
# 1 0.020811 -0.004585 -0.007327 0.000000 0.000000 0.000000
# 2 -0.004585 0.020811 -0.007327 0.000000 0.000000 0.000000
# 3 -0.007327 -0.007327 0.027710 0.000000 0.000000 0.000000
# 4 0.000000 0.000000 0.000000 0.047162 0.000000 0.000000
# 5 0.000000 0.000000 0.000000 0.000000 0.047162 0.000000
# 6 0.000000 0.000000 0.000000 0.000000 0.000000 0.040983
#
#
# Mechanical properties :
#
#
# Convention : Reuss Voigt Hill
#
# Bulk Modulus (GPa) = 32.40973 32.77330 32.59152
# Shear Modulus (GPa) = 19.73163 20.30415 20.01789
#
# Velocity S-wave (km/s) = 3.52148 3.57220 3.54693
# Velocity P-wave (km/s) = 6.07479 6.13281 6.10387
#
# Compressibility (1/GPa) = 0.03085493
#
# Stress axis : x y z
#
# Youngs Moduli (GPa) = 48.05192 48.05192 36.08850
#
# Poissons Ratio (x) = 0.22030 0.26441
# Poissons Ratio (y) = 0.22030 0.26441
# Poissons Ratio (z) = 0.35207 0.35207
#
# Static dielectric constant tensor:
#      x y z
#    x 1.552430 0.000000 0.000000 
#    y 0.000000 1.552430 0.000000 
#    z 0.000000 0.000000 1.521200 
# 
# From -- ./inp_files/9668.got.cif
#   From: 2010.05.17/outbox.cif.g08.bks.cpg/sg122_5_cif.got.tgz:9668.got - 2010.05.20 11:37:33.
