data_PCOD9560261
_publ_section_title
;
Structure prediction by ZEFSAII (Michael W. Deem and Ramdas Pophale) SiO2 
 PCOD9560261
Probable space group: I -4 2 M
;
_chemical_formula_sum "Si O2"
_cell_formula_units_Z 56
_cell_length_a 13.901131
_cell_length_b 13.901131
_cell_length_c 11.820358
_cell_angle_alpha 90.000000
_cell_angle_beta 90.000000
_cell_angle_gamma 90.000000
_cell_volume 2284.183038
_symmetry_space_group_name_H-M "I -4 2 M"
_symmetry_group_IT_number 121
_symmetry_cell_setting 'tetragonal'
loop_
_space_group_symop_operation_xyz
x,y,z
y,-x,-z
-x,-y,z
-y,x,-z
x,-y,-z
-x,y,-z
-y,-x,z
y,x,z
1/2+x,1/2+y,1/2+z
1/2+y,1/2-x,1/2-z
1/2-x,1/2-y,1/2+z
1/2-y,1/2+x,1/2-z
1/2+x,1/2-y,1/2-z
1/2-x,1/2+y,1/2-z
1/2-y,1/2-x,1/2+z
1/2+y,1/2+x,1/2+z
loop_
_atom_site_type_symbol
_atom_site_label
_atom_site_fract_x
_atom_site_fract_y
_atom_site_fract_z
Si Si1 0.609208 0.889147 0.467420
Si Si2 0.610996 0.610996 0.508453
Si Si3 0.858095 0.858095 0.758373
Si Si4 0.763333 0.236668 0.895833
Si Si5 0.789970 0.047975 0.627032
O O1 0.500000 0.851617 0.500000
O O2 0.680387 0.821227 0.538614
O O3 0.680452 0.909459 0.356970
O O4 0.599097 0.000000 0.500000
O O5 0.628225 0.500000 0.500000
O O6 0.651390 0.651390 0.392001
O O7 0.656232 0.656232 0.618611
O O8 0.783684 0.783684 0.709374
O O9 0.963211 0.825714 0.711797
O O10 0.866273 0.133728 0.626934
O O11 0.794812 0.000000 0.500000
#
# Coordination Sequence:
#
# PCOD9560261 Si02
#       5
#    16   8   8   8  16
#     4  10  19  34  64 105 153 194 237 330 394 439
#     4  11  30  56  71 105 164 208 250 322 396 501
#     4  12  24  43  75 110 145 205 256 320 424 457
#     4  12  21  46  71 104 144 199 272 310 373 477
#     4  11  18  33  64 117 148 180 257 333 387 462
#
# _framework density 24.516425000000002
#
# number of rings (size 3 to 8) (size 9 to 14) (size 15 to 20)
#    0.000    1.000    8.571    1.286    4.000    0.000 
#    5.143    0.000    0.000    0.000    7.429    0.000 
#    0.000    0.000    0.000    0.000    0.000    0.000 
#
# Total GULP energy -155886.068704 kJ/mol
# GULP energy per Si atom -5567.359597 kJ/mol
# Density = 2.446062 g / cm^3
# Si number density = 24.516425 Si / 1000 Ang^3
#
#
#
# Elastic Constant Matrix: (Units=GPa)
#
#
# Indices 1 2 3 4 5 6 
#
# 1 190.3742 69.3171 43.2727 0.0000 0.0000 0.0000
# 2 69.3171 190.3757 43.2711 0.0000 0.0000 0.0000
# 3 43.2727 43.2711 70.6150 0.0000 0.0000 0.0000
# 4 0.0000 0.0000 0.0000 25.5810 0.0000 0.0000
# 5 0.0000 0.0000 0.0000 0.0000 25.5814 0.0000
# 6 0.0000 0.0000 0.0000 0.0000 0.0000 37.0776
#
#
#
# Elastic Compliance Matrix: (Units=1/GPa)
#
#
# Indices 1 2 3 4 5 6 
#
# 1 0.006550 -0.001711 -0.002965 0.000000 0.000000 0.000000
# 2 -0.001711 0.006550 -0.002965 0.000000 0.000000 0.000000
# 3 -0.002965 -0.002965 0.017795 0.000000 0.000000 0.000000
# 4 0.000000 0.000000 0.000000 0.039091 0.000000 0.000000
# 5 0.000000 0.000000 0.000000 0.000000 0.039091 0.000000
# 6 0.000000 0.000000 0.000000 0.000000 0.000000 0.026970
#
#
# Mechanical properties :
#
#
# Convention : Reuss Voigt Hill
#
# Bulk Modulus (GPa) = 64.05195 84.78741 74.41968
# Shear Modulus (GPa) = 31.94191 37.34827 34.64509
#
# Velocity S-wave (km/s) = 3.61346 3.90731 3.76325
# Velocity P-wave (km/s) = 6.60244 7.41721 7.02166
#
# Compressibility (1/GPa) = 0.01561233
#
# Stress axis : x y z
#
# Youngs Moduli (GPa) = 152.67716 152.68035 56.19441
#
# Poissons Ratio (x) = 0.26121 0.16664
# Poissons Ratio (y) = 0.26120 0.16662
# Poissons Ratio (z) = 0.45274 0.45271
#
# Static dielectric constant tensor:
#      x y z
#    x 2.104300 0.000000 0.000000 
#    y 0.000000 2.104290 0.000000 
#    z 0.000000 0.000000 1.988840 
# 
# From -- ./inp_files/3991.got.cif
#   From: 2010.05.17/outbox.cif.g08.bks.cpg/sg121_2_cif.got.tgz:3991.got - 2010.05.20 11:32:06.
