data_PCOD9560298
_publ_section_title
;
Structure prediction by ZEFSAII (Michael W. Deem and Ramdas Pophale) SiO2 
 PCOD9560298
Probable space group: I -4 2 M
;
_chemical_formula_sum "Si O2"
_cell_formula_units_Z 112
_cell_length_a 23.060888
_cell_length_b 23.060888
_cell_length_c 12.392383
_cell_angle_alpha 90.000000
_cell_angle_beta 90.000000
_cell_angle_gamma 90.000000
_cell_volume 6590.325731
_symmetry_space_group_name_H-M "I -4 2 M"
_symmetry_group_IT_number 121
_symmetry_cell_setting 'tetragonal'
loop_
_space_group_symop_operation_xyz
x,y,z
y,-x,-z
-x,-y,z
-y,x,-z
x,-y,-z
-x,y,-z
-y,-x,z
y,x,z
1/2+x,1/2+y,1/2+z
1/2+y,1/2-x,1/2-z
1/2-x,1/2-y,1/2+z
1/2-y,1/2+x,1/2-z
1/2+x,1/2-y,1/2-z
1/2-x,1/2+y,1/2-z
1/2-y,1/2-x,1/2+z
1/2+y,1/2+x,1/2+z
loop_
_atom_site_type_symbol
_atom_site_label
_atom_site_fract_x
_atom_site_fract_y
_atom_site_fract_z
Si Si1 0.497980 0.642310 0.380757
Si Si2 0.211958 0.951150 0.568480
Si Si3 0.226452 0.675211 0.467559
Si Si4 0.496185 0.591846 0.847560
Si Si5 0.886551 0.213718 0.157052
Si Si6 0.889279 0.207096 0.784152
Si Si7 0.236138 0.859579 0.395955
O O1 0.500000 0.616460 0.500000
O O2 0.505363 0.599131 0.281251
O O3 0.551070 0.687606 0.372397
O O4 0.437179 0.674348 0.356977
O O5 0.153125 0.983504 0.606499
O O6 0.232695 0.921339 0.679249
O O7 0.204911 0.900341 0.482113
O O8 0.246412 0.000000 0.500000
O O9 0.272369 0.727632 0.483681
O O10 0.238626 0.634886 0.570818
O O11 0.246612 0.642425 0.359304
O O12 0.164244 0.704243 0.447275
O O13 0.434502 0.565499 0.882423
O O14 0.544946 0.544946 0.875265
O O15 0.840197 0.159804 0.153949
O O16 0.888247 0.239047 0.278188
O O17 0.841562 0.158439 0.749816
O O18 0.196491 0.803510 0.377248
#
# Coordination Sequence:
#
# PCOD9560298 Si02
#       7
#    16  16  16  16  16  16  16
#     4  11  19  30  49  69  96 134 170 217 271 310
#     4  11  22  35  51  71  98 132 176 215 266 311
#     4   9  19  33  50  73  97 126 166 216 271 321
#     4  10  22  35  46  65  95 135 184 230 268 308
#     4  10  20  33  48  72  98 123 166 213 258 314
#     4  10  20  34  50  70  99 134 175 218 268 323
#     4  10  20  33  53  74  97 130 171 220 267 318
#
# _framework density 16.994607999999999
#
# number of rings (size 3 to 8) (size 9 to 14) (size 15 to 20)
#    0.000    1.857    1.429    4.714    2.000    4.571 
#    0.000    1.429    0.000    0.000    0.000    0.000 
#    0.000    0.000    0.000    2.571    5.143    0.000 
#
# Total GULP energy -312267.116625 kJ/mol
# GULP energy per Si atom -5576.198511 kJ/mol
# Density = 1.695593 g / cm^3
# Si number density = 16.994608 Si / 1000 Ang^3
#
#
#
# Elastic Constant Matrix: (Units=GPa)
#
#
# Indices 1 2 3 4 5 6 
#
# 1 32.8015 23.5713 12.1885 0.0000 0.0000 0.0000
# 2 23.5713 32.8012 12.1875 0.0000 0.0000 0.0000
# 3 12.1885 12.1875 122.4746 0.0000 0.0000 0.0000
# 4 0.0000 0.0000 0.0000 5.2914 0.0000 0.0000
# 5 0.0000 0.0000 0.0000 0.0000 5.2915 0.0000
# 6 0.0000 0.0000 0.0000 0.0000 0.0000 23.5976
#
#
#
# Elastic Compliance Matrix: (Units=1/GPa)
#
#
# Indices 1 2 3 4 5 6 
#
# 1 0.063439 -0.044902 -0.001845 0.000000 0.000000 0.000000
# 2 -0.044902 0.063439 -0.001844 0.000000 0.000000 0.000000
# 3 -0.001845 -0.001844 0.008532 0.000000 0.000000 0.000000
# 4 0.000000 0.000000 0.000000 0.188986 0.000000 0.000000
# 5 0.000000 0.000000 0.000000 0.000000 0.188982 0.000000
# 6 0.000000 0.000000 0.000000 0.000000 0.000000 0.042377
#
#
# Mechanical properties :
#
#
# Convention : Reuss Voigt Hill
#
# Bulk Modulus (GPa) = 26.15959 31.55244 28.85602
# Shear Modulus (GPa) = 7.51112 16.17811 11.84462
#
# Velocity S-wave (km/s) = 2.10459 3.08872 2.64287
# Velocity P-wave (km/s) = 4.61866 5.59703 5.13122
#
# Compressibility (1/GPa) = 0.03822690
#
# Stress axis : x y z
#
# Youngs Moduli (GPa) = 15.76324 15.76320 117.20439
#
# Poissons Ratio (x) = 0.70780 0.21626
# Poissons Ratio (y) = 0.70780 0.21615
# Poissons Ratio (z) = 0.02909 0.02907
#
# Static dielectric constant tensor:
#      x y z
#    x 1.587050 0.000000 0.000000 
#    y 0.000000 1.587050 0.000000 
#    z 0.000000 0.000000 1.637490 
# 
# From -- ./inp_files/3475.got.cif
#   From: 2010.05.17/outbox.cif.g08.bks.cpg/sg121_2_cif.got.tgz:3475.got - 2010.05.20 11:32:06.
