data_PCOD9560569
_publ_section_title
;
Structure prediction by ZEFSAII (Michael W. Deem and Ramdas Pophale) SiO2 
 PCOD9560569
Probable space group: I -4 2 M
;
_chemical_formula_sum "Si O2"
_cell_formula_units_Z 80
_cell_length_a 16.131434
_cell_length_b 16.131434
_cell_length_c 14.385574
_cell_angle_alpha 90.000000
_cell_angle_beta 90.000000
_cell_angle_gamma 90.000000
_cell_volume 3743.459566
_symmetry_space_group_name_H-M "I -4 2 M"
_symmetry_group_IT_number 121
_symmetry_cell_setting 'tetragonal'
loop_
_space_group_symop_operation_xyz
x,y,z
y,-x,-z
-x,-y,z
-y,x,-z
x,-y,-z
-x,y,-z
-y,-x,z
y,x,z
1/2+x,1/2+y,1/2+z
1/2+y,1/2-x,1/2-z
1/2-x,1/2-y,1/2+z
1/2-y,1/2+x,1/2-z
1/2+x,1/2-y,1/2-z
1/2-x,1/2+y,1/2-z
1/2-y,1/2-x,1/2+z
1/2+y,1/2+x,1/2+z
loop_
_atom_site_type_symbol
_atom_site_label
_atom_site_fract_x
_atom_site_fract_y
_atom_site_fract_z
Si Si1 0.880975 0.249768 0.908591
Si Si2 0.003553 0.129509 0.388592
Si Si3 0.280984 0.076034 0.882322
Si Si4 0.905076 0.475397 0.101376
Si Si5 0.093817 0.287558 0.681483
O O1 0.833735 0.166266 0.876926
O O2 0.823077 0.327062 0.874896
O O3 0.976301 0.264282 0.876386
O O4 0.890334 0.245822 0.020683
O O5 0.938685 0.061316 0.352575
O O6 0.963756 0.216035 0.361246
O O7 0.000000 0.127190 0.500000
O O8 0.095185 0.095185 0.361435
O O9 0.377965 0.097135 0.889453
O O10 0.256788 0.115588 0.784309
O O11 0.863214 0.528484 0.181999
O O12 0.000000 0.500000 0.098719
O O13 0.868351 0.500000 0.000000
#
# Coordination Sequence:
#
# PCOD9560569 Si02
#       5
#    16  16  16  16  16
#     4  11  24  44  64  91 133 169 210 270 322 375
#     4   9  20  39  59  85 127 171 215 269 321 376
#     4  11  24  42  62  95 129 171 212 263 321 386
#     4  11  19  36  60  85 126 163 200 254 322 393
#     4  12  22  37  66  96 125 167 218 266 324 389
#
# _framework density 21.370605999999999
#
# number of rings (size 3 to 8) (size 9 to 14) (size 15 to 20)
#    0.000    1.200    4.000    4.200    0.000    2.400 
#    0.000    0.000    0.000    4.800    0.000    0.000 
#    0.000    0.000    0.000    0.000    0.000    0.000 
#
# Total GULP energy -222996.266867 kJ/mol
# GULP energy per Si atom -5574.906672 kJ/mol
# Density = 2.132197 g / cm^3
# Si number density = 21.370606 Si / 1000 Ang^3
#
#
#
# Elastic Constant Matrix: (Units=GPa)
#
#
# Indices 1 2 3 4 5 6 
#
# 1 81.8098 56.5091 28.8966 0.0000 0.0000 0.0000
# 2 56.5091 81.8141 28.8947 0.0000 0.0000 0.0000
# 3 28.8966 28.8947 97.7531 0.0000 0.0000 0.0000
# 4 0.0000 0.0000 0.0000 -9.6074 0.0000 0.0000
# 5 0.0000 0.0000 0.0000 0.0000 -9.6068 0.0000
# 6 0.0000 0.0000 0.0000 0.0000 0.0000 30.9029
#
#
#
# Elastic Compliance Matrix: (Units=1/GPa)
#
#
# Indices 1 2 3 4 5 6 
#
# 1 0.023886 -0.015636 -0.002439 0.000000 0.000000 0.000000
# 2 -0.015636 0.023884 -0.002438 0.000000 0.000000 0.000000
# 3 -0.002439 -0.002438 0.011671 0.000000 0.000000 0.000000
# 4 0.000000 0.000000 0.000000 -0.104086 0.000000 0.000000
# 5 0.000000 0.000000 0.000000 0.000000 -0.104093 0.000000
# 6 0.000000 0.000000 0.000000 0.000000 0.000000 0.032359
#
#
# Mechanical properties :
#
#
# Convention : Reuss Voigt Hill
#
# Bulk Modulus (GPa) = 54.30327 54.44200 54.37263
# Shear Modulus (GPa) = -72.23898 12.14284 -30.04807
#
# Velocity S-wave (km/s) = -5.82034 2.38629 -3.75380
# Velocity P-wave (km/s) = 4.43881 5.75526 2.59036
#
# Compressibility (1/GPa) = 0.01841510
#
# Stress axis : x y z
#
# Youngs Moduli (GPa) = 41.86623 41.86930 85.68034
#
# Poissons Ratio (x) = 0.65469 0.20896
# Poissons Ratio (y) = 0.65464 0.20885
# Poissons Ratio (z) = 0.10210 0.10206
#
# Static dielectric constant tensor:
#      x y z
#    x 1.773790 0.000000 0.000000 
#    y 0.000000 1.773790 0.000000 
#    z 0.000000 0.000000 1.871970 
# 
# From -- ./inp_files/4244.got.cif
#   From: 2010.05.17/outbox.cif.g08.bks.cpg/sg121_3_cif.got.tgz:4244.got - 2010.05.20 11:32:06.
