data_PCOD9560730
_publ_section_title
;
Structure prediction by ZEFSAII (Michael W. Deem and Ramdas Pophale) SiO2 
 PCOD9560730
Probable space group: I -4 2 D
;
_chemical_formula_sum "Si O2"
_cell_formula_units_Z 80
_cell_length_a 11.510077
_cell_length_b 11.510077
_cell_length_c 28.844998
_cell_angle_alpha 90.000000
_cell_angle_beta 90.000000
_cell_angle_gamma 90.000000
_cell_volume 3821.439349
_symmetry_space_group_name_H-M "I -4 2 D"
_symmetry_group_IT_number 122
_symmetry_cell_setting 'tetragonal'
loop_
_space_group_symop_operation_xyz
x,y,z
y,-x,-z
-x,-y,z
-y,x,-z
x,1/2-y,1/4-z
-x,1/2+y,1/4-z
-y,1/2-x,1/4+z
y,1/2+x,1/4+z
1/2+x,1/2+y,1/2+z
1/2+y,1/2-x,1/2-z
1/2-x,1/2-y,1/2+z
1/2-y,1/2+x,1/2-z
1/2+x,-y,3/4-z
1/2-x,y,3/4-z
1/2-y,-x,3/4+z
1/2+y,x,3/4+z
loop_
_atom_site_type_symbol
_atom_site_label
_atom_site_fract_x
_atom_site_fract_y
_atom_site_fract_z
Si Si1 0.256518 0.250000 0.125000
Si Si2 0.889722 0.382671 0.433870
Si Si3 0.632979 0.378965 0.731605
Si Si4 0.191221 0.825661 0.077338
Si Si5 0.000000 0.000000 0.903378
Si Si6 0.536749 0.371955 0.834520
O O1 0.183728 0.272409 0.077987
O O2 0.327668 0.367600 0.129801
O O3 0.866009 0.506643 0.456994
O O4 0.994488 0.325247 0.463122
O O5 0.939423 0.411094 0.382496
O O6 0.705865 0.270223 0.712792
O O7 0.603564 0.378599 0.785335
O O8 0.181393 0.750000 0.125000
O O9 0.073909 0.902361 0.070509
O O10 0.292091 0.922009 0.080356
O O11 0.500000 0.500000 0.847639
#
# Coordination Sequence:
#
# PCOD9560730 Si02
#       6
#     8  16  16  16   8  16
#     4  12  24  42  70  90 124 178 220 262 320 394
#     4  10  18  40  66  92 125 158 202 265 340 380
#     4  10  22  39  66  92 133 159 202 276 334 384
#     4  12  22  38  66  96 125 170 211 262 324 393
#     4  10  18  34  61 100 126 146 204 258 334 387
#     4  12  28  43  59  95 130 179 221 265 311 387
#
# _framework density 20.934519000000002
#
# number of rings (size 3 to 8) (size 9 to 14) (size 15 to 20)
#    0.000    1.200    8.000    1.200    4.200    0.000 
#    0.000    0.000    0.000    0.000    0.000    0.000 
#    0.000    0.000    0.000    0.000    0.000    0.000 
#
# Total GULP energy -223229.775560 kJ/mol
# GULP energy per Si atom -5580.744389 kJ/mol
# Density = 2.088687 g / cm^3
# Si number density = 20.934519 Si / 1000 Ang^3
#
#
#
# Elastic Constant Matrix: (Units=GPa)
#
#
# Indices 1 2 3 4 5 6 
#
# 1 85.1029 37.0184 -5.5354 0.0000 0.0000 0.0000
# 2 37.0184 85.1029 -5.5354 0.0000 0.0000 0.0000
# 3 -5.5354 -5.5354 24.8901 0.0000 0.0000 0.0000
# 4 0.0000 0.0000 0.0000 12.3793 0.0000 0.0000
# 5 0.0000 0.0000 0.0000 0.0000 12.3793 0.0000
# 6 0.0000 0.0000 0.0000 0.0000 0.0000 29.4484
#
#
#
# Elastic Compliance Matrix: (Units=1/GPa)
#
#
# Indices 1 2 3 4 5 6 
#
# 1 0.014577 -0.006220 0.001859 0.000000 0.000000 0.000000
# 2 -0.006220 0.014577 0.001859 0.000000 0.000000 0.000000
# 3 0.001859 0.001859 0.041003 0.000000 0.000000 0.000000
# 4 0.000000 0.000000 0.000000 0.080780 0.000000 0.000000
# 5 0.000000 0.000000 0.000000 0.000000 0.080780 0.000000
# 6 0.000000 0.000000 0.000000 0.000000 0.000000 0.033958
#
#
# Mechanical properties :
#
#
# Convention : Reuss Voigt Hill
#
# Bulk Modulus (GPa) = 15.34883 27.44347 21.39615
# Shear Modulus (GPa) = 17.10004 22.11796 19.60900
#
# Velocity S-wave (km/s) = 2.86113 3.25396 3.06385
# Velocity P-wave (km/s) = 4.27347 5.22066 4.77063
#
# Compressibility (1/GPa) = 0.06515153
#
# Stress axis : x y z
#
# Youngs Moduli (GPa) = 68.60166 68.60166 24.38832
#
# Poissons Ratio (x) = 0.42669 -0.04533
# Poissons Ratio (y) = 0.42669 -0.04533
# Poissons Ratio (z) = -0.12750 -0.12750
#
# Static dielectric constant tensor:
#      x y z
#    x 1.820840 0.000000 0.000000 
#    y 0.000000 1.820840 0.000000 
#    z 0.000000 0.000000 1.791810 
# 
# From -- ./inp_files/9455.got.cif
#   From: 2010.05.17/outbox.cif.g08.bks.cpg/sg122_5_cif.got.tgz:9455.got - 2010.05.20 11:37:33.
