data_PCOD9560651
_publ_section_title
;
Structure prediction by ZEFSAII (Michael W. Deem and Ramdas Pophale) SiO2 
 PCOD9560651
Probable space group: I -4 2 M
;
_chemical_formula_sum "Si O2"
_cell_formula_units_Z 54
_cell_length_a 14.307378
_cell_length_b 14.307378
_cell_length_c 10.749403
_cell_angle_alpha 90.000000
_cell_angle_beta 90.000000
_cell_angle_gamma 90.000000
_cell_volume 2200.414245
_symmetry_space_group_name_H-M "I -4 2 M"
_symmetry_group_IT_number 121
_symmetry_cell_setting 'tetragonal'
loop_
_space_group_symop_operation_xyz
x,y,z
y,-x,-z
-x,-y,z
-y,x,-z
x,-y,-z
-x,y,-z
-y,-x,z
y,x,z
1/2+x,1/2+y,1/2+z
1/2+y,1/2-x,1/2-z
1/2-x,1/2-y,1/2+z
1/2-y,1/2+x,1/2-z
1/2+x,1/2-y,1/2-z
1/2-x,1/2+y,1/2-z
1/2-y,1/2-x,1/2+z
1/2+y,1/2+x,1/2+z
loop_
_atom_site_type_symbol
_atom_site_label
_atom_site_fract_x
_atom_site_fract_y
_atom_site_fract_z
Si Si1 0.500000 0.000000 0.750000
Si Si2 0.642893 0.357108 0.383387
Si Si3 0.919639 0.080362 0.343766
Si Si4 0.315597 0.315597 0.341946
Si Si5 0.500000 0.750198 0.000000
Si Si6 0.500000 0.500000 0.500000
Si Si7 0.324216 0.104345 0.267943
O O1 0.592723 0.051047 0.804141
O O2 0.685523 0.314478 0.509626
O O3 0.567495 0.432506 0.421418
O O4 0.598144 0.273646 0.303658
O O5 0.890034 0.109967 0.206320
O O6 0.823986 0.052411 0.412223
O O7 0.000000 0.000000 0.353642
O O8 0.341719 0.213950 0.288550
O O9 0.561426 0.811392 0.905907
#
# Coordination Sequence:
#
# PCOD9560651 Si02
#       7
#     4   8   8   8   8   2  16
#     4  12  28  54  80 116 162 224 282 328 412 490
#     4  11  30  53  77 123 159 210 268 337 422 483
#     4  12  25  45  81 123 153 202 268 329 400 483
#     4  11  28  50  82 111 165 205 260 344 408 491
#     4  12  25  47  78 118 156 204 272 322 398 480
#     4  12  32  48  88 110 168 200 260 340 414 500
#     4  11  29  51  81 112 162 215 273 336 402 490
#
# _framework density 24.540835000000001
#
# number of rings (size 3 to 8) (size 9 to 14) (size 15 to 20)
#    0.000    0.593    1.481    3.556   21.778    0.593 
#    2.667    0.000    0.000    0.000    0.000    0.000 
#    0.000    0.000    0.000    0.000    0.000    0.000 
#
# Total GULP energy -151097.617537 kJ/mol
# GULP energy per Si atom -5596.208057 kJ/mol
# Density = 2.448498 g / cm^3
# Si number density = 24.540835 Si / 1000 Ang^3
#
#
#
# Elastic Constant Matrix: (Units=GPa)
#
#
# Indices 1 2 3 4 5 6 
#
# 1 121.1864 115.4821 45.2798 0.0000 0.0000 0.0000
# 2 115.4821 121.1888 45.2780 0.0000 0.0000 0.0000
# 3 45.2798 45.2780 122.3123 0.0000 0.0000 0.0000
# 4 0.0000 0.0000 0.0000 41.5289 0.0000 0.0000
# 5 0.0000 0.0000 0.0000 0.0000 41.5293 0.0000
# 6 0.0000 0.0000 0.0000 0.0000 0.0000 61.6731
#
#
#
# Elastic Compliance Matrix: (Units=1/GPa)
#
#
# Indices 1 2 3 4 5 6 
#
# 1 0.090097 -0.085173 -0.001824 0.000000 0.000000 0.000000
# 2 -0.085173 0.090094 -0.001820 0.000000 0.000000 0.000000
# 3 -0.001824 -0.001820 0.009525 0.000000 0.000000 0.000000
# 4 0.000000 0.000000 0.000000 0.024080 0.000000 0.000000
# 5 0.000000 0.000000 0.000000 0.000000 0.024079 0.000000
# 6 0.000000 0.000000 0.000000 0.000000 0.000000 0.016215
#
#
# Mechanical properties :
#
#
# Convention : Reuss Voigt Hill
#
# Bulk Modulus (GPa) = 82.77487 86.30745 84.54116
# Shear Modulus (GPa) = 11.47446 39.52277 25.49861
#
# Velocity S-wave (km/s) = 2.16467 4.01744 3.22689
# Velocity P-wave (km/s) = 6.32854 7.53426 6.95757
#
# Compressibility (1/GPa) = 0.01208096
#
# Stress axis : x y z
#
# Youngs Moduli (GPa) = 11.09917 11.09956 104.98713
#
# Poissons Ratio (x) = 0.94538 0.19151
# Poissons Ratio (y) = 0.94535 0.19112
# Poissons Ratio (z) = 0.02025 0.02021
#
# Static dielectric constant tensor:
#      x y z
#    x 1.931100 0.000000 0.000000 
#    y 0.000000 1.931090 0.000000 
#    z 0.000000 0.000000 1.949550 
# 
# From -- ./inp_files/2810.got.cif
#   From: 2010.05.17/outbox.cif.g08.bks.cpg/sg121_2_cif.got.tgz:2810.got - 2010.05.20 11:32:06.
