data_PCOD9560657
_publ_section_title
;
Structure prediction by ZEFSAII (Michael W. Deem and Ramdas Pophale) SiO2 
 PCOD9560657
Probable space group: I -4 2 M
;
_chemical_formula_sum "Si O2"
_cell_formula_units_Z 26
_cell_length_a 7.897964
_cell_length_b 7.897964
_cell_length_c 14.497171
_cell_angle_alpha 90.000000
_cell_angle_beta 90.000000
_cell_angle_gamma 90.000000
_cell_volume 904.302146
_symmetry_space_group_name_H-M "I -4 2 M"
_symmetry_group_IT_number 121
_symmetry_cell_setting 'tetragonal'
loop_
_space_group_symop_operation_xyz
x,y,z
y,-x,-z
-x,-y,z
-y,x,-z
x,-y,-z
-x,y,-z
-y,-x,z
y,x,z
1/2+x,1/2+y,1/2+z
1/2+y,1/2-x,1/2-z
1/2-x,1/2-y,1/2+z
1/2-y,1/2+x,1/2-z
1/2+x,1/2-y,1/2-z
1/2-x,1/2+y,1/2-z
1/2-y,1/2-x,1/2+z
1/2+y,1/2+x,1/2+z
loop_
_atom_site_type_symbol
_atom_site_label
_atom_site_fract_x
_atom_site_fract_y
_atom_site_fract_z
Si Si1 0.324578 0.324578 0.675376
Si Si2 0.142570 0.142570 0.392562
Si Si3 0.000000 0.000000 0.000000
Si Si4 0.500000 0.000000 0.883991
O O1 0.366031 0.366031 0.781077
O O2 0.396236 0.396236 0.578099
O O3 0.386085 0.134160 0.669227
O O4 0.337712 0.105949 0.425062
O O5 0.000000 0.000000 0.415938
#
# Coordination Sequence:
#
# PCOD9560657 Si02
#       4
#     8   8   2   8
#     4  12  24  46  67 108 148 197 241 299 363 439
#     4  12  23  44  73 116 149 184 236 310 379 434
#     4  12  28  44  72  96 156 204 252 294 356 440
#     4  12  27  45  80 113 150 186 245 312 379 434
#
# _framework density 28.751450999999999
#
# number of rings (size 3 to 8) (size 9 to 14) (size 15 to 20)
#    0.000    0.000    4.615    7.385    0.000    1.231 
#    0.000    0.000    0.000    0.000    0.000    0.000 
#    0.000    0.000    0.000    0.000    0.000    0.000 
#
# Total GULP energy -72379.691569 kJ/mol
# GULP energy per Si atom -5567.668582 kJ/mol
# Density = 2.868601 g / cm^3
# Si number density = 28.751451 Si / 1000 Ang^3
#
#
#
# Elastic Constant Matrix: (Units=GPa)
#
#
# Indices 1 2 3 4 5 6 
#
# 1 221.9177 142.4211 34.8574 0.0000 0.0000 0.0000
# 2 142.4211 221.9177 34.8574 0.0000 0.0000 0.0000
# 3 34.8574 34.8574 231.7477 0.0000 0.0000 0.0000
# 4 0.0000 0.0000 0.0000 -133.3670 0.0000 0.0000
# 5 0.0000 0.0000 0.0000 0.0000 -133.3670 0.0000
# 6 0.0000 0.0000 0.0000 0.0000 0.0000 78.1705
#
#
#
# Elastic Compliance Matrix: (Units=1/GPa)
#
#
# Indices 1 2 3 4 5 6 
#
# 1 0.007703 -0.004877 -0.000425 0.000000 0.000000 0.000000
# 2 -0.004877 0.007703 -0.000425 0.000000 0.000000 0.000000
# 3 -0.000425 -0.000425 0.004443 0.000000 0.000000 0.000000
# 4 0.000000 0.000000 0.000000 -0.007498 0.000000 0.000000
# 5 0.000000 0.000000 0.000000 0.000000 -0.007498 0.000000
# 6 0.000000 0.000000 0.000000 0.000000 0.000000 0.012793
#
#
# Mechanical properties :
#
#
# Convention : Reuss Voigt Hill
#
# Bulk Modulus (GPa) = 119.12267 122.20609 120.66438
# Shear Modulus (GPa) = 156.75917 -6.81621 74.97148
#
# Velocity S-wave (km/s) = 7.39192 -1.54139 5.11198
# Velocity P-wave (km/s) = 10.69467 6.27923 8.76940
#
# Compressibility (1/GPa) = 0.00839471
#
# Stress axis : x y z
#
# Youngs Moduli (GPa) = 129.82637 129.82637 225.07791
#
# Poissons Ratio (x) = 0.63311 0.09567
# Poissons Ratio (y) = 0.63311 0.09567
# Poissons Ratio (z) = 0.05518 0.05518
#
# Static dielectric constant tensor:
#      x y z
#    x 2.327970 0.000000 0.000000 
#    y 0.000000 2.327970 0.000000 
#    z 0.000000 0.000000 2.154760 
# 
# From -- ./inp_files/4725.got.cif
#   From: 2010.05.17/outbox.cif.g08.bks.cpg/sg121_3_cif.got.tgz:4725.got - 2010.05.20 11:32:06.
