data_PCOD9560604
_publ_section_title
;
Structure prediction by ZEFSAII (Michael W. Deem and Ramdas Pophale) SiO2 
 PCOD9560604
Probable space group: I -4 2 M
;
_chemical_formula_sum "Si O2"
_cell_formula_units_Z 56
_cell_length_a 10.826158
_cell_length_b 10.826158
_cell_length_c 21.870308
_cell_angle_alpha 90.000000
_cell_angle_beta 90.000000
_cell_angle_gamma 90.000000
_cell_volume 2563.324694
_symmetry_space_group_name_H-M "I -4 2 M"
_symmetry_group_IT_number 121
_symmetry_cell_setting 'tetragonal'
loop_
_space_group_symop_operation_xyz
x,y,z
y,-x,-z
-x,-y,z
-y,x,-z
x,-y,-z
-x,y,-z
-y,-x,z
y,x,z
1/2+x,1/2+y,1/2+z
1/2+y,1/2-x,1/2-z
1/2-x,1/2-y,1/2+z
1/2-y,1/2+x,1/2-z
1/2+x,1/2-y,1/2-z
1/2-x,1/2+y,1/2-z
1/2-y,1/2-x,1/2+z
1/2+y,1/2+x,1/2+z
loop_
_atom_site_type_symbol
_atom_site_label
_atom_site_fract_x
_atom_site_fract_y
_atom_site_fract_z
Si Si1 0.500000 0.706397 0.000000
Si Si2 0.428354 0.766037 0.335990
Si Si3 0.463873 0.272342 0.206401
Si Si4 0.138252 0.665418 0.607810
O O1 0.543727 0.792401 0.944586
O O2 0.614333 0.614333 0.015837
O O3 0.345078 0.654923 0.362073
O O4 0.505883 0.718111 0.277796
O O5 0.334858 0.865313 0.307250
O O6 0.522130 0.834547 0.381200
O O7 0.398875 0.398875 0.185187
O O8 0.581724 0.227426 0.168786
O O9 0.267224 0.732777 0.594274
#
# Coordination Sequence:
#
# PCOD9560604 Si02
#       4
#     8  16  16  16
#     4   9  20  40  65  96 134 176 225 277 328 388
#     4  11  23  38  58  91 136 177 216 266 326 395
#     4  11  22  37  58  88 129 174 219 265 320 386
#     4  11  22  38  63  95 131 170 217 272 330 389
#
# _framework density 21.846627000000002
#
# number of rings (size 3 to 8) (size 9 to 14) (size 15 to 20)
#    0.000    1.286    2.857    3.429    0.000    5.143 
#    0.000    2.857    0.000    0.000    0.000    4.000 
#    0.000   27.429    0.000    0.000    0.000    0.000 
#
# Total GULP energy -156532.906032 kJ/mol
# GULP energy per Si atom -5590.460930 kJ/mol
# Density = 2.179690 g / cm^3
# Si number density = 21.846627 Si / 1000 Ang^3
#
#
#
# Elastic Constant Matrix: (Units=GPa)
#
#
# Indices 1 2 3 4 5 6 
#
# 1 99.0756 93.3462 33.4991 0.0000 0.0000 0.0000
# 2 93.3462 99.0795 33.4992 0.0000 0.0000 0.0000
# 3 33.4991 33.4992 76.6267 0.0000 0.0000 0.0000
# 4 0.0000 0.0000 0.0000 27.3929 0.0000 0.0000
# 5 0.0000 0.0000 0.0000 0.0000 27.3924 0.0000
# 6 0.0000 0.0000 0.0000 0.0000 0.0000 39.8436
#
#
#
# Elastic Compliance Matrix: (Units=1/GPa)
#
#
# Indices 1 2 3 4 5 6 
#
# 1 0.090305 -0.084174 -0.002681 0.000000 0.000000 0.000000
# 2 -0.084174 0.090301 -0.002679 0.000000 0.000000 0.000000
# 3 -0.002681 -0.002679 0.015393 0.000000 0.000000 0.000000
# 4 0.000000 0.000000 0.000000 0.036506 0.000000 0.000000
# 5 0.000000 0.000000 0.000000 0.000000 0.036506 0.000000
# 6 0.000000 0.000000 0.000000 0.000000 0.000000 0.025098
#
#
# Mechanical properties :
#
#
# Convention : Reuss Voigt Hill
#
# Bulk Modulus (GPa) = 59.05318 66.16342 62.60830
# Shear Modulus (GPa) = 10.44230 26.55493 18.49862
#
# Velocity S-wave (km/s) = 2.18865 3.49021 2.91305
# Velocity P-wave (km/s) = 5.78588 6.82592 6.32731
#
# Compressibility (1/GPa) = 0.01693389
#
# Stress axis : x y z
#
# Youngs Moduli (GPa) = 11.07353 11.07402 64.96288
#
# Poissons Ratio (x) = 0.93214 0.17414
# Poissons Ratio (y) = 0.93210 0.17404
# Poissons Ratio (z) = 0.02968 0.02967
#
# Static dielectric constant tensor:
#      x y z
#    x 1.827490 0.000000 0.000000 
#    y 0.000000 1.827480 0.000000 
#    z 0.000000 0.000000 1.781100 
# 
# From -- ./inp_files/6850.got.cif
#   From: 2010.05.17/outbox.cif.g08.bks.cpg/sg121_4_cif.got.tgz:6850.got - 2010.05.20 11:32:06.
