data_PCOD9560198
_publ_section_title
;
Structure prediction by ZEFSAII (Michael W. Deem and Ramdas Pophale) SiO2 
 PCOD9560198
Probable space group: I -4 2 M
;
_chemical_formula_sum "Si O2"
_cell_formula_units_Z 88
_cell_length_a 26.344548
_cell_length_b 26.344548
_cell_length_c 5.712837
_cell_angle_alpha 90.000000
_cell_angle_beta 90.000000
_cell_angle_gamma 90.000000
_cell_volume 3964.910023
_symmetry_space_group_name_H-M "I -4 2 M"
_symmetry_group_IT_number 121
_symmetry_cell_setting 'tetragonal'
loop_
_space_group_symop_operation_xyz
x,y,z
y,-x,-z
-x,-y,z
-y,x,-z
x,-y,-z
-x,y,-z
-y,-x,z
y,x,z
1/2+x,1/2+y,1/2+z
1/2+y,1/2-x,1/2-z
1/2-x,1/2-y,1/2+z
1/2-y,1/2+x,1/2-z
1/2+x,1/2-y,1/2-z
1/2-x,1/2+y,1/2-z
1/2-y,1/2-x,1/2+z
1/2+y,1/2+x,1/2+z
loop_
_atom_site_type_symbol
_atom_site_label
_atom_site_fract_x
_atom_site_fract_y
_atom_site_fract_z
Si Si1 0.876909 0.794583 0.575579
Si Si2 0.784299 0.359018 0.548968
Si Si3 0.227191 0.551746 0.231328
Si Si4 0.816478 0.020609 0.249089
Si Si5 0.599024 0.127839 0.073811
Si Si6 0.768937 0.768937 0.168266
O O1 0.835408 0.835408 0.502688
O O2 0.852490 0.748089 0.716653
O O3 0.913551 0.770643 0.384901
O O4 0.918631 0.819713 0.749003
O O5 0.784665 0.417704 0.469208
O O6 0.847808 0.343853 0.077670
O O7 0.751762 0.325788 0.367114
O O8 0.257149 0.499038 0.247768
O O9 0.174156 0.559022 0.093331
O O10 0.837985 0.000000 0.500000
O O11 0.836710 0.000000 0.000000
O O12 0.596800 0.099224 0.821934
O O13 0.754320 0.754320 0.429283
#
# Coordination Sequence:
#
# PCOD9560198 Si02
#       6
#    16  16  16  16  16   8
#     4  11  22  35  52  79 106 141 182 232 273 324
#     4  11  21  31  49  72 105 142 178 216 265 309
#     4  10  21  36  53  69 107 140 182 225 276 319
#     4  10  21  39  56  74  99 138 184 227 277 328
#     4  10  19  31  47  72  99 136 180 212 256 309
#     4  12  26  34  44  68 108 148 181 208 255 310
#
# _framework density 22.194703000000001
#
# number of rings (size 3 to 8) (size 9 to 14) (size 15 to 20)
#    0.000    1.455    4.545    2.182    3.818    0.000 
#    0.000    0.000    0.000    0.000    0.000    0.000 
#    0.000   42.909    0.000    0.000    0.000    0.909 
#
# Total GULP energy -245179.824016 kJ/mol
# GULP energy per Si atom -5572.268728 kJ/mol
# Density = 2.214419 g / cm^3
# Si number density = 22.194703 Si / 1000 Ang^3
#
#
#
# Elastic Constant Matrix: (Units=GPa)
#
#
# Indices 1 2 3 4 5 6 
#
# 1 60.4354 9.1488 7.9253 0.0000 0.0000 0.0000
# 2 9.1488 60.4354 7.9253 0.0000 0.0000 0.0000
# 3 7.9253 7.9253 131.1115 0.0000 0.0000 0.0000
# 4 0.0000 0.0000 0.0000 31.5673 0.0000 0.0000
# 5 0.0000 0.0000 0.0000 0.0000 31.5673 0.0000
# 6 0.0000 0.0000 0.0000 0.0000 0.0000 17.0034
#
#
#
# Elastic Compliance Matrix: (Units=1/GPa)
#
#
# Indices 1 2 3 4 5 6 
#
# 1 0.017035 -0.002463 -0.000881 0.000000 0.000000 0.000000
# 2 -0.002463 0.017035 -0.000881 0.000000 0.000000 0.000000
# 3 -0.000881 -0.000881 0.007734 0.000000 0.000000 0.000000
# 4 0.000000 0.000000 0.000000 0.031678 0.000000 0.000000
# 5 0.000000 0.000000 0.000000 0.000000 0.031678 0.000000
# 6 0.000000 0.000000 0.000000 0.000000 0.000000 0.058812
#
#
# Mechanical properties :
#
#
# Convention : Reuss Voigt Hill
#
# Bulk Modulus (GPa) = 29.98163 33.55346 31.76755
# Shear Modulus (GPa) = 27.24207 31.15980 29.20094
#
# Velocity S-wave (km/s) = 3.50725 3.75097 3.63115
# Velocity P-wave (km/s) = 5.47164 5.82326 5.65018
#
# Compressibility (1/GPa) = 0.03335376
#
# Stress axis : x y z
#
# Youngs Moduli (GPa) = 58.70264 58.70264 129.30620
#
# Poissons Ratio (x) = 0.14460 0.11390
# Poissons Ratio (y) = 0.14460 0.11390
# Poissons Ratio (z) = 0.05171 0.05171
#
# Static dielectric constant tensor:
#      x y z
#    x 1.881310 0.000000 0.000000 
#    y 0.000000 1.881310 0.000000 
#    z 0.000000 0.000000 2.036500 
# 
# From -- ./inp_files/663.got.cif
#   From: 2010.05.17/outbox.cif.g08.bks.cpg/sg121_1_cif.got.tgz:663.got - 2010.05.20 11:32:06.
