data_PCOD9560004
_publ_section_title
;
Structure prediction by ZEFSAII (Michael W. Deem and Ramdas Pophale) SiO2 
 PCOD9560004
Probable space group: I -4 C 2
;
_chemical_formula_sum "Si O2"
_cell_formula_units_Z 72
_cell_length_a 14.666520
_cell_length_b 14.666520
_cell_length_c 15.974768
_cell_angle_alpha 90.000000
_cell_angle_beta 90.000000
_cell_angle_gamma 90.000000
_cell_volume 3436.281368
_symmetry_space_group_name_H-M "I -4 C 2"
_symmetry_group_IT_number 120
_symmetry_cell_setting 'tetragonal'
loop_
_space_group_symop_operation_xyz
x,y,z
y,-x,-z
-x,-y,z
-y,x,-z
y,x,1/2-z
-y,-x,1/2-z
-x,y,1/2+z
x,-y,1/2+z
1/2+x,1/2+y,1/2+z
1/2+y,1/2-x,1/2-z
1/2-x,1/2-y,1/2+z
1/2-y,1/2+x,1/2-z
1/2+y,1/2+x,-z
1/2-y,1/2-x,-z
1/2-x,1/2+y,z
1/2+x,1/2-y,z
loop_
_atom_site_type_symbol
_atom_site_label
_atom_site_fract_x
_atom_site_fract_y
_atom_site_fract_z
Si Si1 0.413395 0.086606 0.000000
Si Si2 0.506001 0.778031 0.725623
Si Si3 0.708215 0.708215 0.750000
Si Si4 0.701035 0.798966 0.500000
Si Si5 0.742134 0.643226 0.391846
Si Si6 0.111671 0.420294 0.129812
O O1 0.402546 0.173799 0.059336
O O2 0.406638 0.000896 0.063364
O O3 0.602017 0.728645 0.736520
O O4 0.439132 0.716170 0.669387
O O5 0.454000 0.806340 0.810769
O O6 0.531595 0.878580 0.687033
O O7 0.731479 0.775019 0.828055
O O8 0.688215 0.696158 0.465335
O O9 0.667802 0.861653 0.424708
#
# Coordination Sequence:
#
# PCOD9560004 Si02
#       6
#     8  16   8   8  16  16
#     4  11  24  38  60 107 144 174 230 310 364 430
#     4  12  24  42  70  99 143 192 231 299 352 459
#     4  12  22  46  66 100 138 196 240 286 364 436
#     4  11  24  40  66  94 142 189 226 290 356 431
#     4  11  23  42  64  96 140 186 237 290 361 430
#     4  12  24  41  65 105 148 186 233 297 381 428
#
# _framework density 20.952881999999999
#
# number of rings (size 3 to 8) (size 9 to 14) (size 15 to 20)
#    0.000    0.444    6.667    1.333    0.000    8.889 
#    0.000    0.000    0.000    6.000    0.000    3.111 
#    0.000    0.000    0.000    0.000    0.000    0.000 
#
# Total GULP energy -200606.162080 kJ/mol
# GULP energy per Si atom -5572.393391 kJ/mol
# Density = 2.090519 g / cm^3
# Si number density = 20.952882 Si / 1000 Ang^3
#
#
#
# Elastic Constant Matrix: (Units=GPa)
#
#
# Indices 1 2 3 4 5 6 
#
# 1 77.4085 29.2509 45.4932 0.0000 0.0000 0.0000
# 2 29.2509 77.4078 45.4929 0.0000 0.0000 0.0000
# 3 45.4932 45.4929 109.0963 0.0000 0.0000 0.0000
# 4 0.0000 0.0000 0.0000 45.1054 0.0000 0.0000
# 5 0.0000 0.0000 0.0000 0.0000 45.1059 0.0000
# 6 0.0000 0.0000 0.0000 0.0000 0.0000 28.5720
#
#
#
# Elastic Compliance Matrix: (Units=1/GPa)
#
#
# Indices 1 2 3 4 5 6 
#
# 1 0.017659 -0.003107 -0.006068 0.000000 0.000000 0.000000
# 2 -0.003107 0.017659 -0.006068 0.000000 0.000000 0.000000
# 3 -0.006068 -0.006068 0.014227 0.000000 0.000000 0.000000
# 4 0.000000 0.000000 0.000000 0.022170 0.000000 0.000000
# 5 0.000000 0.000000 0.000000 0.000000 0.022170 0.000000
# 6 0.000000 0.000000 0.000000 0.000000 0.000000 0.034999
#
#
# Mechanical properties :
#
#
# Convention : Reuss Voigt Hill
#
# Bulk Modulus (GPa) = 52.46991 56.04295 54.25643
# Shear Modulus (GPa) = 30.17078 33.33503 31.75291
#
# Velocity S-wave (km/s) = 3.79876 3.99300 3.89709
# Velocity P-wave (km/s) = 6.65861 6.93282 6.79709
#
# Compressibility (1/GPa) = 0.01905854
#
# Stress axis : x y z
#
# Youngs Moduli (GPa) = 56.62930 56.62893 70.28828
#
# Poissons Ratio (x) = 0.17592 0.42653
# Poissons Ratio (y) = 0.17592 0.42653
# Poissons Ratio (z) = 0.34364 0.34364
#
# Static dielectric constant tensor:
#      x y z
#    x 1.784380 0.000000 0.000000 
#    y 0.000000 1.784380 0.000000 
#    z 0.000000 0.000000 1.874850 
# 
# From -- ./inp_files/4324.got.cif
#   From: 2010.05.17/outbox.cif.g08.bks.cpg/sg120_3_cif.got.tgz:4324.got - 2010.05.20 11:28:13.
