data_PCOD9560084
_publ_section_title
;
Structure prediction by ZEFSAII (Michael W. Deem and Ramdas Pophale) SiO2 
 PCOD9560084
Probable space group: I -4 2 M
;
_chemical_formula_sum "Si O2"
_cell_formula_units_Z 120
_cell_length_a 17.365589
_cell_length_b 17.365589
_cell_length_c 22.926749
_cell_angle_alpha 90.000000
_cell_angle_beta 90.000000
_cell_angle_gamma 90.000000
_cell_volume 6913.874829
_symmetry_space_group_name_H-M "I -4 2 M"
_symmetry_group_IT_number 121
_symmetry_cell_setting 'tetragonal'
loop_
_space_group_symop_operation_xyz
x,y,z
y,-x,-z
-x,-y,z
-y,x,-z
x,-y,-z
-x,y,-z
-y,-x,z
y,x,z
1/2+x,1/2+y,1/2+z
1/2+y,1/2-x,1/2-z
1/2-x,1/2-y,1/2+z
1/2-y,1/2+x,1/2-z
1/2+x,1/2-y,1/2-z
1/2-x,1/2+y,1/2-z
1/2-y,1/2-x,1/2+z
1/2+y,1/2+x,1/2+z
loop_
_atom_site_type_symbol
_atom_site_label
_atom_site_fract_x
_atom_site_fract_y
_atom_site_fract_z
Si Si1 0.715240 0.163093 0.104677
Si Si2 0.388581 0.935801 0.177849
Si Si3 0.152444 0.965776 0.127888
Si Si4 0.867711 0.609647 0.639466
Si Si5 0.830920 0.000000 0.000000
Si Si6 0.781427 0.091450 0.782734
Si Si7 0.148686 0.272593 0.028001
Si Si8 0.490519 0.819018 0.788385
O O1 0.760050 0.239951 0.125345
O O2 0.639233 0.131559 0.134943
O O3 0.776543 0.093259 0.115882
O O4 0.699092 0.172639 0.036024
O O5 0.462253 0.899396 0.208894
O O6 0.324782 0.943335 0.228214
O O7 0.394323 0.019835 0.147753
O O8 0.083308 0.916693 0.154732
O O9 0.128387 0.990146 0.062249
O O10 0.178994 0.033791 0.170121
O O11 0.796405 0.618182 0.684372
O O12 0.835485 0.625522 0.575318
O O13 0.932710 0.670742 0.658155
O O14 0.778764 0.925964 0.013766
O O15 0.839103 0.160898 0.770678
O O16 0.752114 0.046828 0.724663
O O17 0.215653 0.215653 0.050798
#
# Coordination Sequence:
#
# PCOD9560084 Si02
#       8
#    16  16  16  16   8  16  16  16
#     4   9  18  33  54  80 109 145 183 224 271 328
#     4  11  19  34  53  79 105 140 182 230 277 328
#     4  10  19  31  48  72 105 142 179 219 264 318
#     4  11  20  34  55  77 104 141 181 229 277 332
#     4  10  16  28  48  75 105 140 182 218 260 316
#     4  11  22  36  52  75 105 142 187 231 275 327
#     4  10  19  33  53  77 109 144 184 228 272 323
#     4  11  22  35  53  77 103 140 183 236 283 324
#
# _framework density 17.356404000000001
#
# number of rings (size 3 to 8) (size 9 to 14) (size 15 to 20)
#    0.000    1.600    6.667    2.800    0.000    1.333 
#    0.000    2.000    0.000    3.400    0.000    0.000 
#    0.000    0.000    0.000    0.000    0.000    6.667 
#
# Total GULP energy -334104.846835 kJ/mol
# GULP energy per Si atom -5568.414114 kJ/mol
# Density = 1.731690 g / cm^3
# Si number density = 17.356404 Si / 1000 Ang^3
#
#
#
# Elastic Constant Matrix: (Units=GPa)
#
#
# Indices 1 2 3 4 5 6 
#
# 1 52.1254 44.7414 33.2239 0.0000 0.0000 0.0000
# 2 44.7414 52.1243 33.2227 0.0000 0.0000 0.0000
# 3 33.2239 33.2227 64.5324 0.0000 0.0000 0.0000
# 4 0.0000 0.0000 0.0000 18.6313 0.0000 0.0000
# 5 0.0000 0.0000 0.0000 0.0000 18.6311 0.0000
# 6 0.0000 0.0000 0.0000 0.0000 0.0000 32.7360
#
#
#
# Elastic Compliance Matrix: (Units=1/GPa)
#
#
# Indices 1 2 3 4 5 6 
#
# 1 0.075699 -0.059739 -0.008218 0.000000 0.000000 0.000000
# 2 -0.059739 0.075698 -0.008215 0.000000 0.000000 0.000000
# 3 -0.008218 -0.008215 0.023956 0.000000 0.000000 0.000000
# 4 0.000000 0.000000 0.000000 0.053673 0.000000 0.000000
# 5 0.000000 0.000000 0.000000 0.000000 0.053674 0.000000
# 6 0.000000 0.000000 0.000000 0.000000 0.000000 0.030547
#
#
# Mechanical properties :
#
#
# Convention : Reuss Voigt Hill
#
# Bulk Modulus (GPa) = 43.46010 43.46199 43.46105
# Shear Modulus (GPa) = 10.56500 17.83930 14.20215
#
# Velocity S-wave (km/s) = 2.46988 3.20945 2.86364
# Velocity P-wave (km/s) = 5.76436 6.23132 6.00238
#
# Compressibility (1/GPa) = 0.02300961
#
# Stress axis : x y z
#
# Youngs Moduli (GPa) = 13.21030 13.21033 41.74246
#
# Poissons Ratio (x) = 0.78917 0.34304
# Poissons Ratio (y) = 0.78917 0.34293
# Poissons Ratio (z) = 0.10856 0.10853
#
# Static dielectric constant tensor:
#      x y z
#    x 1.634500 0.000000 0.000000 
#    y 0.000000 1.634500 0.000000 
#    z 0.000000 0.000000 1.611570 
# 
# From -- ./inp_files/6671.got.cif
#   From: 2010.05.17/outbox.cif.g08.bks.cpg/sg121_4_cif.got.tgz:6671.got - 2010.05.20 11:32:06.
