data_PCOD9560794
_publ_section_title
;
Structure prediction by ZEFSAII (Michael W. Deem and Ramdas Pophale) SiO2 
 PCOD9560794
Probable space group: I -4 2 D
;
_chemical_formula_sum "Si O2"
_cell_formula_units_Z 96
_cell_length_a 23.163905
_cell_length_b 23.163905
_cell_length_c 10.032877
_cell_angle_alpha 90.000000
_cell_angle_beta 90.000000
_cell_angle_gamma 90.000000
_cell_volume 5383.305645
_symmetry_space_group_name_H-M "I -4 2 D"
_symmetry_group_IT_number 122
_symmetry_cell_setting 'tetragonal'
loop_
_space_group_symop_operation_xyz
x,y,z
y,-x,-z
-x,-y,z
-y,x,-z
x,1/2-y,1/4-z
-x,1/2+y,1/4-z
-y,1/2-x,1/4+z
y,1/2+x,1/4+z
1/2+x,1/2+y,1/2+z
1/2+y,1/2-x,1/2-z
1/2-x,1/2-y,1/2+z
1/2-y,1/2+x,1/2-z
1/2+x,-y,3/4-z
1/2-x,y,3/4-z
1/2-y,-x,3/4+z
1/2+y,x,3/4+z
loop_
_atom_site_type_symbol
_atom_site_label
_atom_site_fract_x
_atom_site_fract_y
_atom_site_fract_z
Si Si1 0.912755 0.693357 0.532379
Si Si2 0.414964 0.833102 0.394071
Si Si3 0.114465 0.196899 0.024373
Si Si4 0.819220 0.542833 0.894095
Si Si5 0.399467 0.805240 0.843780
Si Si6 0.004175 0.680014 0.134241
O O1 0.905314 0.750000 0.625000
O O2 0.868748 0.642242 0.570412
O O3 0.903013 0.711248 0.377716
O O4 0.977728 0.669261 0.556310
O O5 0.438833 0.845752 0.246484
O O6 0.401532 0.764290 0.403013
O O7 0.465571 0.843187 0.501890
O O8 0.123112 0.250000 0.125000
O O9 0.171366 0.158406 0.028433
O O10 0.060218 0.160545 0.082739
O O11 0.750000 0.542661 0.875000
O O12 0.829456 0.589854 0.008543
O O13 0.452053 0.828588 0.755080
O O14 0.999451 0.750000 0.125000
#
# Coordination Sequence:
#
# PCOD9560794 Si02
#       6
#    16  16  16  16  16  16
#     4  11  23  37  56  86 117 144 187 236 284 333
#     4  10  21  37  60  82 112 154 182 232 285 336
#     4  11  23  35  58  87 115 146 186 235 280 335
#     4   9  20  36  57  80 108 147 195 228 268 335
#     4  10  19  37  57  81 113 147 190 227 276 338
#     4   9  18  34  56  78 105 148 195 222 266 328
#
# _framework density 17.832908
#
# number of rings (size 3 to 8) (size 9 to 14) (size 15 to 20)
#    0.000    2.000    3.333    0.000    9.333    0.667 
#    0.000    0.000    0.000    6.000    0.000    0.000 
#    0.000    0.000    0.000    0.000    0.000    0.000 
#
# Total GULP energy -267473.440596 kJ/mol
# GULP energy per Si atom -5572.363346 kJ/mol
# Density = 1.779232 g / cm^3
# Si number density = 17.832908 Si / 1000 Ang^3
#
#
#
# Elastic Constant Matrix: (Units=GPa)
#
#
# Indices 1 2 3 4 5 6 
#
# 1 41.8676 13.4462 19.9442 0.0000 0.0000 0.0000
# 2 13.4462 41.8676 19.9442 0.0000 0.0000 0.0000
# 3 19.9442 19.9442 125.6499 0.0000 0.0000 0.0000
# 4 0.0000 0.0000 0.0000 23.2631 0.0000 0.0000
# 5 0.0000 0.0000 0.0000 0.0000 23.2631 0.0000
# 6 0.0000 0.0000 0.0000 0.0000 0.0000 -0.8595
#
#
#
# Elastic Compliance Matrix: (Units=1/GPa)
#
#
# Indices 1 2 3 4 5 6 
#
# 1 0.027800 -0.007385 -0.003241 0.000000 0.000000 0.000000
# 2 -0.007385 0.027800 -0.003241 0.000000 0.000000 0.000000
# 3 -0.003241 -0.003241 0.008987 0.000000 0.000000 0.000000
# 4 0.000000 0.000000 0.000000 0.042986 0.000000 0.000000
# 5 0.000000 0.000000 0.000000 0.000000 0.042986 0.000000
# 6 0.000000 0.000000 0.000000 0.000000 0.000000 -1.163486
#
#
# Mechanical properties :
#
#
# Convention : Reuss Voigt Hill
#
# Bulk Modulus (GPa) = 27.13244 35.11717 31.12480
# Shear Modulus (GPa) = -5.13923 19.53672 7.19875
#
# Velocity S-wave (km/s) = -1.69945 3.31349 2.01135
# Velocity P-wave (km/s) = 3.37594 5.86294 4.78388
#
# Compressibility (1/GPa) = 0.03685625
#
# Stress axis : x y z
#
# Youngs Moduli (GPa) = 35.97104 35.97104 111.26757
#
# Poissons Ratio (x) = 0.26563 0.36056
# Poissons Ratio (y) = 0.26563 0.36056
# Poissons Ratio (z) = 0.11656 0.11656
#
# Static dielectric constant tensor:
#      x y z
#    x 1.610650 0.000000 0.000000 
#    y 0.000000 1.610650 0.000000 
#    z 0.000000 0.000000 1.664870 
# 
# From -- ./inp_files/2899.got.cif
#   From: 2010.05.17/outbox.cif.g08.bks.cpg/sg122_2_cif.got.tgz:2899.got - 2010.05.20 11:37:33.
