data_PCOD9560469
_publ_section_title
;
Structure prediction by ZEFSAII (Michael W. Deem and Ramdas Pophale) SiO2 
 PCOD9560469
Probable space group: I -4 2 M
;
_chemical_formula_sum "Si O2"
_cell_formula_units_Z 64
_cell_length_a 23.015583
_cell_length_b 23.015583
_cell_length_c 4.946777
_cell_angle_alpha 90.000000
_cell_angle_beta 90.000000
_cell_angle_gamma 90.000000
_cell_volume 2620.392173
_symmetry_space_group_name_H-M "I -4 2 M"
_symmetry_group_IT_number 121
_symmetry_cell_setting 'tetragonal'
loop_
_space_group_symop_operation_xyz
x,y,z
y,-x,-z
-x,-y,z
-y,x,-z
x,-y,-z
-x,y,-z
-y,-x,z
y,x,z
1/2+x,1/2+y,1/2+z
1/2+y,1/2-x,1/2-z
1/2-x,1/2-y,1/2+z
1/2-y,1/2+x,1/2-z
1/2+x,1/2-y,1/2-z
1/2-x,1/2+y,1/2-z
1/2-y,1/2-x,1/2+z
1/2+y,1/2+x,1/2+z
loop_
_atom_site_type_symbol
_atom_site_label
_atom_site_fract_x
_atom_site_fract_y
_atom_site_fract_z
Si Si1 0.431059 0.750265 0.508088
Si Si2 0.827306 0.730507 0.364706
Si Si3 0.066222 0.617683 0.984186
Si Si4 0.457437 0.637952 0.752253
O O1 0.500000 0.740176 0.500000
O O2 0.391217 0.753343 0.240373
O O3 0.429925 0.817144 0.596389
O O4 0.415467 0.692866 0.677520
O O5 0.787824 0.787824 0.347742
O O6 0.815278 0.701577 0.652967
O O7 0.082168 0.609911 0.671983
O O8 0.000000 0.596883 0.000000
O O9 0.500000 0.623043 0.500000
O O10 0.416479 0.583522 0.817544
O O11 0.500000 0.652816 0.000000
#
# Coordination Sequence:
#
# PCOD9560469 Si02
#       4
#    16  16  16  16
#     4  10  23  41  63  92 128 165 209 261 322 387
#     4  10  21  38  62  89 119 158 203 254 308 367
#     4  11  24  41  64  92 127 172 218 269 324 382
#     4  11  25  44  68  97 130 171 217 270 331 398
#
# _framework density 24.423828
#
# number of rings (size 3 to 8) (size 9 to 14) (size 15 to 20)
#    0.000    1.500    0.000    3.750    0.000   13.000 
#    0.000    7.500    0.000    0.000    0.000    0.000 
#    0.000    0.000    0.000    0.000    0.000    0.000 
#
# Total GULP energy -178795.077067 kJ/mol
# GULP energy per Si atom -5587.346158 kJ/mol
# Density = 2.436824 g / cm^3
# Si number density = 24.423828 Si / 1000 Ang^3
#
#
#
# Elastic Constant Matrix: (Units=GPa)
#
#
# Indices 1 2 3 4 5 6 
#
# 1 107.8928 4.5211 3.1246 0.0000 0.0000 0.0000
# 2 4.5211 107.8975 3.1241 0.0000 0.0000 0.0000
# 3 3.1246 3.1241 83.3062 0.0000 0.0000 0.0000
# 4 0.0000 0.0000 0.0000 28.9743 0.0000 0.0000
# 5 0.0000 0.0000 0.0000 0.0000 28.9743 0.0000
# 6 0.0000 0.0000 0.0000 0.0000 0.0000 16.2795
#
#
#
# Elastic Compliance Matrix: (Units=1/GPa)
#
#
# Indices 1 2 3 4 5 6 
#
# 1 0.009294 -0.000380 -0.000334 0.000000 0.000000 0.000000
# 2 -0.000380 0.009294 -0.000334 0.000000 0.000000 0.000000
# 3 -0.000334 -0.000334 0.012029 0.000000 0.000000 0.000000
# 4 0.000000 0.000000 0.000000 0.034513 0.000000 0.000000
# 5 0.000000 0.000000 0.000000 0.000000 0.034513 0.000000
# 6 0.000000 0.000000 0.000000 0.000000 0.000000 0.061427
#
#
# Mechanical properties :
#
#
# Convention : Reuss Voigt Hill
#
# Bulk Modulus (GPa) = 35.06323 35.62623 35.34473
# Shear Modulus (GPa) = 28.95635 34.06740 31.51188
#
# Velocity S-wave (km/s) = 3.44696 3.73881 3.59585
# Velocity P-wave (km/s) = 5.49812 5.76685 5.63409
#
# Compressibility (1/GPa) = 0.02851990
#
# Stress axis : x y z
#
# Youngs Moduli (GPa) = 107.59564 107.60035 83.13254
#
# Poissons Ratio (x) = 0.04086 0.02780
# Poissons Ratio (y) = 0.04086 0.02779
# Poissons Ratio (z) = 0.03598 0.03597
#
# Static dielectric constant tensor:
#      x y z
#    x 1.986150 0.000000 0.000000 
#    y 0.000000 1.986150 0.000000 
#    z 0.000000 0.000000 1.959650 
# 
# From -- ./inp_files/448.got.cif
#   From: 2010.05.17/outbox.cif.g08.bks.cpg/sg121_1_cif.got.tgz:448.got - 2010.05.20 11:32:06.
