data_PCOD9560095
_publ_section_title
;
Structure prediction by ZEFSAII (Michael W. Deem and Ramdas Pophale) SiO2 
 PCOD9560095
Probable space group: I -4 2 M
;
_chemical_formula_sum "Si O2"
_cell_formula_units_Z 76
_cell_length_a 17.577837
_cell_length_b 17.577837
_cell_length_c 14.005248
_cell_angle_alpha 90.000000
_cell_angle_beta 90.000000
_cell_angle_gamma 90.000000
_cell_volume 4327.346479
_symmetry_space_group_name_H-M "I -4 2 M"
_symmetry_group_IT_number 121
_symmetry_cell_setting 'tetragonal'
loop_
_space_group_symop_operation_xyz
x,y,z
y,-x,-z
-x,-y,z
-y,x,-z
x,-y,-z
-x,y,-z
-y,-x,z
y,x,z
1/2+x,1/2+y,1/2+z
1/2+y,1/2-x,1/2-z
1/2-x,1/2-y,1/2+z
1/2-y,1/2+x,1/2-z
1/2+x,1/2-y,1/2-z
1/2-x,1/2+y,1/2-z
1/2-y,1/2-x,1/2+z
1/2+y,1/2+x,1/2+z
loop_
_atom_site_type_symbol
_atom_site_label
_atom_site_fract_x
_atom_site_fract_y
_atom_site_fract_z
Si Si1 0.686478 0.500000 0.000000
Si Si2 0.622415 0.506183 0.789181
Si Si3 0.609846 0.737195 0.284067
Si Si4 0.226726 0.351583 0.067206
Si Si5 0.000000 0.500000 0.000000
Si Si6 0.924648 0.350558 0.047696
O O1 0.639983 0.509632 0.902205
O O2 0.735892 0.424704 0.983620
O O3 0.557678 0.442323 0.777565
O O4 0.586165 0.586165 0.757722
O O5 0.693979 0.470621 0.734060
O O6 0.674070 0.674070 0.312206
O O7 0.634304 0.768218 0.180368
O O8 0.599927 0.804575 0.359188
O O9 0.278633 0.278633 0.044768
O O10 0.142614 0.344920 0.028180
O O11 0.051779 0.559884 0.059628
O O12 0.000000 0.315418 0.000000
#
# Coordination Sequence:
#
# PCOD9560095 Si02
#       6
#     8  16  16  16   4  16
#     4  10  17  29  53  82 117 154 186 235 302 352
#     4   9  16  28  50  84 120 151 186 228 282 350
#     4   9  19  37  61  86 117 152 187 237 294 343
#     4  10  20  36  59  88 118 151 195 245 296 351
#     4   8  22  40  58  84 110 146 204 238 286 332
#     4  10  21  42  58  81 111 154 193 243 286 343
#
# _framework density 17.562725
#
# number of rings (size 3 to 8) (size 9 to 14) (size 15 to 20)
#    0.632    1.895    0.000    4.421    0.000    0.842 
#   11.368    3.158    0.000    0.000    0.000    0.000 
#    0.000    0.000    0.000    0.000    0.000    0.000 
#
# Total GULP energy -211559.638016 kJ/mol
# GULP energy per Si atom -5567.358895 kJ/mol
# Density = 1.752275 g / cm^3
# Si number density = 17.562725 Si / 1000 Ang^3
#
#
#
# Elastic Constant Matrix: (Units=GPa)
#
#
# Indices 1 2 3 4 5 6 
#
# 1 112.6962 49.6167 40.2545 0.0000 0.0000 0.0000
# 2 49.6167 112.6962 40.2542 0.0000 0.0000 0.0000
# 3 40.2545 40.2542 49.9748 0.0000 0.0000 0.0000
# 4 0.0000 0.0000 0.0000 20.0838 0.0000 0.0000
# 5 0.0000 0.0000 0.0000 0.0000 20.0837 0.0000
# 6 0.0000 0.0000 0.0000 0.0000 0.0000 -160.6308
#
#
#
# Elastic Compliance Matrix: (Units=1/GPa)
#
#
# Indices 1 2 3 4 5 6 
#
# 1 0.013057 -0.002796 -0.008265 0.000000 0.000000 0.000000
# 2 -0.002796 0.013057 -0.008264 0.000000 0.000000 0.000000
# 3 -0.008265 -0.008264 0.033324 0.000000 0.000000 0.000000
# 4 0.000000 0.000000 0.000000 0.049791 0.000000 0.000000
# 5 0.000000 0.000000 0.000000 0.000000 0.049792 0.000000
# 6 0.000000 0.000000 0.000000 0.000000 0.000000 -0.006225
#
#
# Mechanical properties :
#
#
# Convention : Reuss Voigt Hill
#
# Bulk Modulus (GPa) = 48.10829 59.51309 53.81069
# Shear Modulus (GPa) = 25.20481 -14.40989 5.39746
#
# Velocity S-wave (km/s) = 3.79242 -2.86751 1.75497
# Velocity P-wave (km/s) = 6.82850 4.79542 5.90019
#
# Compressibility (1/GPa) = 0.02078644
#
# Stress axis : x y z
#
# Youngs Moduli (GPa) = 76.58928 76.58966 30.00826
#
# Poissons Ratio (x) = 0.21417 0.24801
# Poissons Ratio (y) = 0.21417 0.24800
# Poissons Ratio (z) = 0.63298 0.63297
#
# Static dielectric constant tensor:
#      x y z
#    x 1.619770 0.000000 0.000000 
#    y 0.000000 1.619760 0.000000 
#    z 0.000000 0.000000 1.567700 
# 
# From -- ./inp_files/4310.got.cif
#   From: 2010.05.17/outbox.cif.g08.bks.cpg/sg121_3_cif.got.tgz:4310.got - 2010.05.20 11:32:06.
