data_PCOD9560691
_publ_section_title
;
Structure prediction by ZEFSAII (Michael W. Deem and Ramdas Pophale) SiO2 
 PCOD9560691
Probable space group: I -4 2 D
;
_chemical_formula_sum "Si O2"
_cell_formula_units_Z 44
_cell_length_a 8.574847
_cell_length_b 8.574847
_cell_length_c 31.644207
_cell_angle_alpha 90.000000
_cell_angle_beta 90.000000
_cell_angle_gamma 90.000000
_cell_volume 2326.735286
_symmetry_space_group_name_H-M "I -4 2 D"
_symmetry_group_IT_number 122
_symmetry_cell_setting 'tetragonal'
loop_
_space_group_symop_operation_xyz
x,y,z
y,-x,-z
-x,-y,z
-y,x,-z
x,1/2-y,1/4-z
-x,1/2+y,1/4-z
-y,1/2-x,1/4+z
y,1/2+x,1/4+z
1/2+x,1/2+y,1/2+z
1/2+y,1/2-x,1/2-z
1/2-x,1/2-y,1/2+z
1/2-y,1/2+x,1/2-z
1/2+x,-y,3/4-z
1/2-x,y,3/4-z
1/2-y,-x,3/4+z
1/2+y,x,3/4+z
loop_
_atom_site_type_symbol
_atom_site_label
_atom_site_fract_x
_atom_site_fract_y
_atom_site_fract_z
Si Si1 0.000000 0.500000 0.250000
Si Si2 0.025241 0.181237 0.402035
Si Si3 0.176878 0.834827 0.069984
Si Si4 0.887055 0.750000 0.125000
O O1 0.859185 0.426659 0.222443
O O2 0.084450 0.206783 0.353535
O O3 0.157646 0.259312 0.431496
O O4 0.867144 0.280178 0.401437
O O5 0.000000 0.000000 0.410998
O O6 0.007934 0.829427 0.092921
#
# Coordination Sequence:
#
# PCOD9560691 Si02
#       4
#     4  16  16   8
#     4  12  20  40  60  92 128 160 216 260 320 384
#     4  10  19  35  62  92 116 154 212 263 303 374
#     4  10  20  35  60  90 115 163 205 249 317 372
#     4  10  16  36  60  86 114 156 208 248 292 392
#
# _framework density 18.910616000000001
#
# number of rings (size 3 to 8) (size 9 to 14) (size 15 to 20)
#    0.000    2.182    3.636    5.455    0.000    0.000 
#    0.000    3.636    0.000    0.000    0.000    0.000 
#    0.000    0.000    0.000    0.000    0.000    0.000 
#
# Total GULP energy -122548.733265 kJ/mol
# GULP energy per Si atom -5570.396967 kJ/mol
# Density = 1.886757 g / cm^3
# Si number density = 18.910616 Si / 1000 Ang^3
#
#
#
# Elastic Constant Matrix: (Units=GPa)
#
#
# Indices 1 2 3 4 5 6 
#
# 1 108.4723 43.9127 8.4155 0.0000 0.0000 0.0000
# 2 43.9127 108.4723 8.4155 0.0000 0.0000 0.0000
# 3 8.4155 8.4155 43.9226 0.0000 0.0000 0.0000
# 4 0.0000 0.0000 0.0000 15.4112 0.0000 0.0000
# 5 0.0000 0.0000 0.0000 0.0000 15.4112 0.0000
# 6 0.0000 0.0000 0.0000 0.0000 0.0000 30.2933
#
#
#
# Elastic Compliance Matrix: (Units=1/GPa)
#
#
# Indices 1 2 3 4 5 6 
#
# 1 0.011097 -0.004393 -0.001285 0.000000 0.000000 0.000000
# 2 -0.004393 0.011097 -0.001285 0.000000 0.000000 0.000000
# 3 -0.001285 -0.001285 0.023260 0.000000 0.000000 0.000000
# 4 0.000000 0.000000 0.000000 0.064888 0.000000 0.000000
# 5 0.000000 0.000000 0.000000 0.000000 0.064888 0.000000
# 6 0.000000 0.000000 0.000000 0.000000 0.000000 0.033011
#
#
# Mechanical properties :
#
#
# Convention : Reuss Voigt Hill
#
# Bulk Modulus (GPa) = 31.71592 42.48385 37.09989
# Shear Modulus (GPa) = 21.48937 25.56471 23.52704
#
# Velocity S-wave (km/s) = 3.37466 3.68077 3.53103
# Velocity P-wave (km/s) = 5.65618 6.37012 6.02374
#
# Compressibility (1/GPa) = 0.03152990
#
# Stress axis : x y z
#
# Youngs Moduli (GPa) = 90.11542 90.11543 42.99308
#
# Poissons Ratio (x) = 0.39585 0.05523
# Poissons Ratio (y) = 0.39585 0.05523
# Poissons Ratio (z) = 0.11575 0.11575
#
# Static dielectric constant tensor:
#      x y z
#    x 1.707030 0.000000 0.000000 
#    y 0.000000 1.707030 0.000000 
#    z 0.000000 0.000000 1.717330 
# 
# From -- ./inp_files/9037.got.cif
#   From: 2010.05.17/outbox.cif.g08.bks.cpg/sg122_5_cif.got.tgz:9037.got - 2010.05.20 11:37:33.
