data_PCOD9560938
_publ_section_title
;
Structure prediction by ZEFSAII (Michael W. Deem and Ramdas Pophale) SiO2 
 PCOD9560938
Probable space group: I -4 2 D
;
_chemical_formula_sum "Si O2"
_cell_formula_units_Z 52
_cell_length_a 17.005604
_cell_length_b 17.005604
_cell_length_c 8.072335
_cell_angle_alpha 90.000000
_cell_angle_beta 90.000000
_cell_angle_gamma 90.000000
_cell_volume 2334.443139
_symmetry_space_group_name_H-M "I -4 2 D"
_symmetry_group_IT_number 122
_symmetry_cell_setting 'tetragonal'
loop_
_space_group_symop_operation_xyz
x,y,z
y,-x,-z
-x,-y,z
-y,x,-z
x,1/2-y,1/4-z
-x,1/2+y,1/4-z
-y,1/2-x,1/4+z
y,1/2+x,1/4+z
1/2+x,1/2+y,1/2+z
1/2+y,1/2-x,1/2-z
1/2-x,1/2-y,1/2+z
1/2-y,1/2+x,1/2-z
1/2+x,-y,3/4-z
1/2-x,y,3/4-z
1/2-y,-x,3/4+z
1/2+y,x,3/4+z
loop_
_atom_site_type_symbol
_atom_site_label
_atom_site_fract_x
_atom_site_fract_y
_atom_site_fract_z
Si Si1 0.500000 0.000000 0.250000
Si Si2 0.404968 0.418581 0.241079
Si Si3 0.659885 0.248162 0.425149
Si Si4 0.076190 0.342854 0.159505
O O1 0.428239 0.975423 0.364766
O O2 0.328543 0.390644 0.139259
O O3 0.386307 0.504252 0.320854
O O4 0.425837 0.362406 0.394713
O O5 0.655673 0.250000 0.625000
O O6 0.750000 0.236095 0.375000
O O7 0.634703 0.334010 0.359798
O O8 0.067579 0.250000 0.125000
#
# Coordination Sequence:
#
# PCOD9560938 Si02
#       4
#     4  16  16  16
#     4  12  28  38  56  92 136 178 204 260 344 398
#     4  11  23  41  60  90 128 165 212 263 322 392
#     4   9  20  38  63  90 117 156 207 260 316 380
#     4  10  20  40  68  90 116 164 218 268 320 383
#
# _framework density 22.275117999999999
#
# number of rings (size 3 to 8) (size 9 to 14) (size 15 to 20)
#    0.000    1.846    0.000    4.615    0.000    7.385 
#    0.000    3.077    0.000    0.000    0.000    0.000 
#    0.000    0.000    0.000    0.000    0.000    0.000 
#
# Total GULP energy -145218.998655 kJ/mol
# GULP energy per Si atom -5585.346102 kJ/mol
# Density = 2.222442 g / cm^3
# Si number density = 22.275118 Si / 1000 Ang^3
#
#
#
# Elastic Constant Matrix: (Units=GPa)
#
#
# Indices 1 2 3 4 5 6 
#
# 1 80.7316 38.1961 39.0725 0.0000 0.0000 0.0000
# 2 38.1961 80.7316 39.0725 0.0000 0.0000 0.0000
# 3 39.0725 39.0725 38.3939 0.0000 0.0000 0.0000
# 4 0.0000 0.0000 0.0000 39.3691 0.0000 0.0000
# 5 0.0000 0.0000 0.0000 0.0000 39.3691 0.0000
# 6 0.0000 0.0000 0.0000 0.0000 0.0000 37.2996
#
#
#
# Elastic Compliance Matrix: (Units=1/GPa)
#
#
# Indices 1 2 3 4 5 6 
#
# 1 0.024445 0.000935 -0.025828 0.000000 0.000000 0.000000
# 2 0.000935 0.024445 -0.025828 0.000000 0.000000 0.000000
# 3 -0.025828 -0.025828 0.078616 0.000000 0.000000 0.000000
# 4 0.000000 0.000000 0.000000 0.025401 0.000000 0.000000
# 5 0.000000 0.000000 0.000000 0.000000 0.025401 0.000000
# 6 0.000000 0.000000 0.000000 0.000000 0.000000 0.026810
#
#
# Mechanical properties :
#
#
# Convention : Reuss Voigt Hill
#
# Bulk Modulus (GPa) = 38.37050 48.05990 43.21520
# Shear Modulus (GPa) = 15.86059 28.77530 22.31794
#
# Velocity S-wave (km/s) = 2.67129 3.59808 3.16875
# Velocity P-wave (km/s) = 5.17470 6.23570 5.72981
#
# Compressibility (1/GPa) = 0.02606169
#
# Stress axis : x y z
#
# Youngs Moduli (GPa) = 40.90859 40.90859 12.72013
#
# Poissons Ratio (x) = -0.03825 0.32854
# Poissons Ratio (y) = -0.03825 0.32854
# Poissons Ratio (z) = 1.05660 1.05660
#
# Static dielectric constant tensor:
#      x y z
#    x 1.826980 0.000000 0.000000 
#    y 0.000000 1.826980 0.000000 
#    z 0.000000 0.000000 1.797170 
# 
# From -- ./inp_files/2173.got.cif
#   From: 2010.05.17/outbox.cif.g08.bks.cpg/sg122_2_cif.got.tgz:2173.got - 2010.05.20 11:37:33.
