data_PCOD9560138
_publ_section_title
;
Structure prediction by ZEFSAII (Michael W. Deem and Ramdas Pophale) SiO2 
 PCOD9560138
Probable space group: I -4 2 M
;
_chemical_formula_sum "Si O2"
_cell_formula_units_Z 64
_cell_length_a 22.214490
_cell_length_b 22.214490
_cell_length_c 5.407583
_cell_angle_alpha 90.000000
_cell_angle_beta 90.000000
_cell_angle_gamma 90.000000
_cell_volume 2668.553342
_symmetry_space_group_name_H-M "I -4 2 M"
_symmetry_group_IT_number 121
_symmetry_cell_setting 'tetragonal'
loop_
_space_group_symop_operation_xyz
x,y,z
y,-x,-z
-x,-y,z
-y,x,-z
x,-y,-z
-x,y,-z
-y,-x,z
y,x,z
1/2+x,1/2+y,1/2+z
1/2+y,1/2-x,1/2-z
1/2-x,1/2-y,1/2+z
1/2-y,1/2+x,1/2-z
1/2+x,1/2-y,1/2-z
1/2-x,1/2+y,1/2-z
1/2-y,1/2-x,1/2+z
1/2+y,1/2+x,1/2+z
loop_
_atom_site_type_symbol
_atom_site_label
_atom_site_fract_x
_atom_site_fract_y
_atom_site_fract_z
Si Si1 0.390379 0.936719 0.967973
Si Si2 0.367058 0.728151 0.764748
Si Si3 0.735241 0.080165 0.765509
Si Si4 0.349053 0.486132 0.250188
O O1 0.414125 0.892218 0.751814
O O2 0.326013 0.951802 0.842073
O O3 0.424362 0.000000 0.000000
O O4 0.303601 0.696400 0.803652
O O5 0.373372 0.756136 0.492895
O O6 0.419182 0.676856 0.756177
O O7 0.386186 0.766619 0.003303
O O8 0.790420 0.032053 0.755189
O O9 0.382934 0.500000 0.500000
O O10 0.382678 0.500000 0.000000
#
# Coordination Sequence:
#
# PCOD9560138 Si02
#       4
#    16  16  16  16
#     4  12  26  43  66  90 115 149 188 236 295 356
#     4  10  18  30  54  85 115 146 189 245 286 321
#     4  10  20  37  57  81 113 152 194 234 283 347
#     4   8  15  27  47  73 105 138 178 227 274 319
#
# _framework density 23.983034
#
# number of rings (size 3 to 8) (size 9 to 14) (size 15 to 20)
#    0.000    2.000    0.000    5.250    0.000    5.500 
#    0.000    0.000    0.000   15.000    0.000    0.000 
#    0.000  243.000    0.000    0.000    0.000    0.000 
#
# Total GULP energy -178378.851434 kJ/mol
# GULP energy per Si atom -5574.339107 kJ/mol
# Density = 2.392845 g / cm^3
# Si number density = 23.983034 Si / 1000 Ang^3
#
#
#
# Elastic Constant Matrix: (Units=GPa)
#
#
# Indices 1 2 3 4 5 6 
#
# 1 18.1487 39.2493 28.2725 0.0000 0.0000 0.0000
# 2 39.2493 18.1404 28.2668 0.0000 0.0000 0.0000
# 3 28.2725 28.2668 240.9909 0.0000 0.0000 0.0000
# 4 0.0000 0.0000 0.0000 11.3294 0.0000 0.0000
# 5 0.0000 0.0000 0.0000 0.0000 11.3258 0.0000
# 6 0.0000 0.0000 0.0000 0.0000 0.0000 4.9897
#
#
#
# Elastic Compliance Matrix: (Units=1/GPa)
#
#
# Indices 1 2 3 4 5 6 
#
# 1 -0.013838 0.033541 -0.002311 0.000000 0.000000 0.000000
# 2 0.033541 -0.013845 -0.002311 0.000000 0.000000 0.000000
# 3 -0.002311 -0.002311 0.004692 0.000000 0.000000 0.000000
# 4 0.000000 0.000000 0.000000 0.088266 0.000000 0.000000
# 5 0.000000 0.000000 0.000000 0.000000 0.088294 0.000000
# 6 0.000000 0.000000 0.000000 0.000000 0.000000 0.200414
#
#
# Mechanical properties :
#
#
# Convention : Reuss Voigt Hill
#
# Bulk Modulus (GPa) = 28.69607 52.09524 40.39566
# Shear Modulus (GPa) = 16.24645 17.62840 16.93743
#
# Velocity S-wave (km/s) = 2.60554 2.71410 2.66037
# Velocity P-wave (km/s) = 4.58726 5.62055 5.12999
#
# Compressibility (1/GPa) = 0.03484798
#
# Stress axis : x y z
#
# Youngs Moduli (GPa) = -72.26395 -72.22994 213.14220
#
# Poissons Ratio (x) = 2.42269 0.49252
# Poissons Ratio (y) = 2.42383 0.49259
# Poissons Ratio (z) = -0.16698 -0.16693
#
# Static dielectric constant tensor:
#      x y z
#    x 1.971350 0.000000 0.000000 
#    y 0.000000 1.971360 0.000000 
#    z 0.000000 0.000000 1.929930 
# 
# From -- ./inp_files/449.got.cif
#   From: 2010.05.17/outbox.cif.g08.bks.cpg/sg121_1_cif.got.tgz:449.got - 2010.05.20 11:32:06.
