data_PCOD9560612
_publ_section_title
;
Structure prediction by ZEFSAII (Michael W. Deem and Ramdas Pophale) SiO2 
 PCOD9560612
Probable space group: I -4 2 M
;
_chemical_formula_sum "Si O2"
_cell_formula_units_Z 48
_cell_length_a 14.617871
_cell_length_b 14.617871
_cell_length_c 10.604049
_cell_angle_alpha 90.000000
_cell_angle_beta 90.000000
_cell_angle_gamma 90.000000
_cell_volume 2265.896016
_symmetry_space_group_name_H-M "I -4 2 M"
_symmetry_group_IT_number 121
_symmetry_cell_setting 'tetragonal'
loop_
_space_group_symop_operation_xyz
x,y,z
y,-x,-z
-x,-y,z
-y,x,-z
x,-y,-z
-x,y,-z
-y,-x,z
y,x,z
1/2+x,1/2+y,1/2+z
1/2+y,1/2-x,1/2-z
1/2-x,1/2-y,1/2+z
1/2-y,1/2+x,1/2-z
1/2+x,1/2-y,1/2-z
1/2-x,1/2+y,1/2-z
1/2-y,1/2-x,1/2+z
1/2+y,1/2+x,1/2+z
loop_
_atom_site_type_symbol
_atom_site_label
_atom_site_fract_x
_atom_site_fract_y
_atom_site_fract_z
Si Si1 0.105469 0.390464 0.010838
Si Si2 0.286468 0.866530 0.738267
Si Si3 0.849504 0.005447 0.351237
O O1 0.163650 0.352378 0.894874
O O2 0.108348 0.500000 0.000000
O O3 0.138124 0.355839 0.146136
O O4 0.000000 0.362270 0.000000
O O5 0.209442 0.790559 0.755775
O O6 0.234089 0.964840 0.728279
O O7 0.896010 0.103991 0.323926
O O8 0.824766 0.000000 0.500000
O O9 0.931098 0.931098 0.336617
#
# Coordination Sequence:
#
# PCOD9560612 Si02
#       3
#    16  16  16
#     4  11  24  43  63  85 120 167 212 254 306 363
#     4  11  22  39  65  95 124 157 205 260 311 369
#     4   8  15  30  55  90 129 162 192 235 300 374
#
# _framework density 21.183672999999999
#
# number of rings (size 3 to 8) (size 9 to 14) (size 15 to 20)
#    0.000    2.000    0.000    5.000    0.000    2.667 
#    0.000   11.667    0.000    0.000    0.000    0.000 
#    0.000   13.333    0.000    0.000    0.000    0.000 
#
# Total GULP energy -134143.705976 kJ/mol
# GULP energy per Si atom -5589.321082 kJ/mol
# Density = 2.113546 g / cm^3
# Si number density = 21.183673 Si / 1000 Ang^3
#
#
#
# Elastic Constant Matrix: (Units=GPa)
#
#
# Indices 1 2 3 4 5 6 
#
# 1 96.8649 28.8665 46.5581 0.0000 0.0000 0.0000
# 2 28.8665 96.8632 46.5576 0.0000 0.0000 0.0000
# 3 46.5581 46.5576 137.0978 0.0000 0.0000 0.0000
# 4 0.0000 0.0000 0.0000 23.1543 0.0000 0.0000
# 5 0.0000 0.0000 0.0000 0.0000 23.1647 0.0000
# 6 0.0000 0.0000 0.0000 0.0000 0.0000 7.4013
#
#
#
# Elastic Compliance Matrix: (Units=1/GPa)
#
#
# Indices 1 2 3 4 5 6 
#
# 1 0.012666 -0.002040 -0.003609 0.000000 0.000000 0.000000
# 2 -0.002040 0.012666 -0.003609 0.000000 0.000000 0.000000
# 3 -0.003609 -0.003609 0.009745 0.000000 0.000000 0.000000
# 4 0.000000 0.000000 0.000000 0.043189 0.000000 0.000000
# 5 0.000000 0.000000 0.000000 0.000000 0.043169 0.000000
# 6 0.000000 0.000000 0.000000 0.000000 0.000000 0.135112
#
#
# Mechanical properties :
#
#
# Convention : Reuss Voigt Hill
#
# Bulk Modulus (GPa) = 60.37640 63.86561 62.12101
# Shear Modulus (GPa) = 17.82005 24.66697 21.24351
#
# Velocity S-wave (km/s) = 2.90352 3.41608 3.17018
# Velocity P-wave (km/s) = 6.30903 6.76561 6.54130
#
# Compressibility (1/GPa) = 0.01656276
#
# Stress axis : x y z
#
# Youngs Moduli (GPa) = 78.95094 78.94953 102.61721
#
# Poissons Ratio (x) = 0.16107 0.37030
# Poissons Ratio (y) = 0.16108 0.37030
# Poissons Ratio (z) = 0.28490 0.28489
#
# Static dielectric constant tensor:
#      x y z
#    x 1.795560 0.000000 0.000000 
#    y 0.000000 1.795550 0.000000 
#    z 0.000000 0.000000 1.710760 
# 
# From -- ./inp_files/2548.got.cif
#   From: 2010.05.17/outbox.cif.g08.bks.cpg/sg121_2_cif.got.tgz:2548.got - 2010.05.20 11:32:06.
