data_PCOD9560105
_publ_section_title
;
Structure prediction by ZEFSAII (Michael W. Deem and Ramdas Pophale) SiO2 
 PCOD9560105
Probable space group: I -4 2 M
;
_chemical_formula_sum "Si O2"
_cell_formula_units_Z 54
_cell_length_a 17.012045
_cell_length_b 17.012045
_cell_length_c 9.166399
_cell_angle_alpha 90.000000
_cell_angle_beta 90.000000
_cell_angle_gamma 90.000000
_cell_volume 2652.844556
_symmetry_space_group_name_H-M "I -4 2 M"
_symmetry_group_IT_number 121
_symmetry_cell_setting 'tetragonal'
loop_
_space_group_symop_operation_xyz
x,y,z
y,-x,-z
-x,-y,z
-y,x,-z
x,-y,-z
-x,y,-z
-y,-x,z
y,x,z
1/2+x,1/2+y,1/2+z
1/2+y,1/2-x,1/2-z
1/2-x,1/2-y,1/2+z
1/2-y,1/2+x,1/2-z
1/2+x,1/2-y,1/2-z
1/2-x,1/2+y,1/2-z
1/2-y,1/2-x,1/2+z
1/2+y,1/2+x,1/2+z
loop_
_atom_site_type_symbol
_atom_site_label
_atom_site_fract_x
_atom_site_fract_y
_atom_site_fract_z
Si Si1 0.000000 0.000000 0.000000
Si Si2 0.000000 0.500000 0.750000
Si Si3 0.063053 0.936948 0.282850
Si Si4 0.645373 0.222100 0.136344
Si Si5 0.500000 0.687529 0.000000
Si Si6 0.649165 0.076299 0.922113
O O1 0.946764 0.946764 0.891311
O O2 0.046103 0.565983 0.848316
O O3 0.033767 0.858756 0.359690
O O4 0.000000 0.000000 0.337417
O O5 0.724392 0.275609 0.133816
O O6 0.616589 0.201019 0.297806
O O7 0.575038 0.267756 0.058935
O O8 0.645942 0.140654 0.048715
O O9 0.684529 0.000000 0.000000
#
# Coordination Sequence:
#
# PCOD9560105 Si02
#       6
#     2   4   8  16   8  16
#     4   8  20  34  68 104 128 182 256 324 352 426
#     4  12  22  44  78 116 146 184 266 308 378 472
#     4  10  17  40  65  98 136 183 247 307 361 456
#     4  12  27  47  72 109 152 200 255 316 388 469
#     4  12  21  42  69  98 140 202 246 300 391 459
#     4  12  26  46  75 109 150 195 253 317 384 459
#
# _framework density 20.355506999999999
#
# number of rings (size 3 to 8) (size 9 to 14) (size 15 to 20)
#    0.444    0.000    5.926    3.111    0.000    0.000 
#    2.667    0.000    0.000    0.000    0.000    0.000 
#    0.000    0.000    0.000    0.000    0.000    0.000 
#
# Total GULP energy -150541.636234 kJ/mol
# GULP energy per Si atom -5575.616157 kJ/mol
# Density = 2.030918 g / cm^3
# Si number density = 20.355507 Si / 1000 Ang^3
#
#
#
# Elastic Constant Matrix: (Units=GPa)
#
#
# Indices 1 2 3 4 5 6 
#
# 1 102.8615 32.7934 37.9125 0.0000 0.0000 0.0000
# 2 32.7934 102.8634 37.9141 0.0000 0.0000 0.0000
# 3 37.9125 37.9141 144.4033 0.0000 0.0000 0.0000
# 4 0.0000 0.0000 0.0000 34.1020 0.0000 0.0000
# 5 0.0000 0.0000 0.0000 0.0000 34.1028 0.0000
# 6 0.0000 0.0000 0.0000 0.0000 0.0000 23.2617
#
#
#
# Elastic Compliance Matrix: (Units=1/GPa)
#
#
# Indices 1 2 3 4 5 6 
#
# 1 0.011456 -0.002816 -0.002268 0.000000 0.000000 0.000000
# 2 -0.002816 0.011456 -0.002268 0.000000 0.000000 0.000000
# 3 -0.002268 -0.002268 0.008116 0.000000 0.000000 0.000000
# 4 0.000000 0.000000 0.000000 0.029324 0.000000 0.000000
# 5 0.000000 0.000000 0.000000 0.000000 0.029323 0.000000
# 6 0.000000 0.000000 0.000000 0.000000 0.000000 0.042989
#
#
# Mechanical properties :
#
#
# Convention : Reuss Voigt Hill
#
# Bulk Modulus (GPa) = 61.26742 63.04092 62.15417
# Shear Modulus (GPa) = 32.72051 34.39384 33.55718
#
# Velocity S-wave (km/s) = 4.01365 4.11500 4.06465
# Velocity P-wave (km/s) = 7.18632 7.32222 7.25459
#
# Compressibility (1/GPa) = 0.01632189
#
# Stress axis : x y z
#
# Youngs Moduli (GPa) = 87.29334 87.29425 123.21123
#
# Poissons Ratio (x) = 0.24583 0.27947
# Poissons Ratio (y) = 0.24582 0.27949
# Poissons Ratio (z) = 0.19800 0.19802
#
# Static dielectric constant tensor:
#      x y z
#    x 1.753050 0.000000 0.000000 
#    y 0.000000 1.753050 0.000000 
#    z 0.000000 0.000000 1.792290 
# 
# From -- ./inp_files/1302.got.cif
#   From: 2010.05.17/outbox.cif.g08.bks.cpg/sg121_1_cif.got.tgz:1302.got - 2010.05.20 11:32:06.
