data_PCOD9560151
_publ_section_title
;
Structure prediction by ZEFSAII (Michael W. Deem and Ramdas Pophale) SiO2 
 PCOD9560151
Probable space group: I -4 2 M
;
_chemical_formula_sum "Si O2"
_cell_formula_units_Z 112
_cell_length_a 14.756343
_cell_length_b 14.756343
_cell_length_c 25.395410
_cell_angle_alpha 90.000000
_cell_angle_beta 90.000000
_cell_angle_gamma 90.000000
_cell_volume 5529.841861
_symmetry_space_group_name_H-M "I -4 2 M"
_symmetry_group_IT_number 121
_symmetry_cell_setting 'tetragonal'
loop_
_space_group_symop_operation_xyz
x,y,z
y,-x,-z
-x,-y,z
-y,x,-z
x,-y,-z
-x,y,-z
-y,-x,z
y,x,z
1/2+x,1/2+y,1/2+z
1/2+y,1/2-x,1/2-z
1/2-x,1/2-y,1/2+z
1/2-y,1/2+x,1/2-z
1/2+x,1/2-y,1/2-z
1/2-x,1/2+y,1/2-z
1/2-y,1/2-x,1/2+z
1/2+y,1/2+x,1/2+z
loop_
_atom_site_type_symbol
_atom_site_label
_atom_site_fract_x
_atom_site_fract_y
_atom_site_fract_z
Si Si1 0.592013 0.261382 0.533991
Si Si2 0.909707 0.608799 0.110300
Si Si3 0.900225 0.397968 0.268155
Si Si4 0.954757 0.804983 0.119374
Si Si5 0.243924 0.607583 0.188608
Si Si6 0.850086 0.995139 0.764217
Si Si7 0.378405 0.919636 0.586780
O O1 0.500000 0.254309 0.500000
O O2 0.667369 0.332632 0.514786
O O3 0.548861 0.300768 0.588059
O O4 0.632430 0.161112 0.544559
O O5 0.879063 0.592430 0.170327
O O6 0.897733 0.716008 0.101486
O O7 0.871309 0.527336 0.074116
O O8 0.018219 0.595638 0.106185
O O9 0.883408 0.505394 0.261204
O O10 0.820068 0.353199 0.235147
O O11 0.895260 0.895260 0.110500
O O12 0.979592 0.800473 0.181167
O O13 0.323387 0.676614 0.177231
O O14 0.289090 0.517357 0.213660
O O15 0.186236 0.595462 0.136361
O O16 0.897333 0.897333 0.765585
O O17 0.931253 0.068748 0.761736
#
# Coordination Sequence:
#
# PCOD9560151 Si02
#       7
#    16  16  16  16  16  16  16
#     4  11  24  41  63  88 116 153 201 255 316 382
#     4  10  18  32  54  75 108 147 189 244 295 353
#     4  11  17  29  48  69  99 145 191 237 288 338
#     4  10  20  34  55  82 116 157 200 250 310 375
#     4  11  20  30  49  77 111 151 204 259 304 359
#     4   9  18  31  46  70 110 158 203 247 296 357
#     4  10  20  37  54  79 108 147 194 253 307 363
#
# _framework density 20.253743
#
# number of rings (size 3 to 8) (size 9 to 14) (size 15 to 20)
#    0.000    1.714    4.286    2.143    0.000    1.571 
#    0.000    8.571    0.000    0.000    0.000    0.000 
#    0.000    0.000    0.000    0.000    0.000   22.857 
#
# Total GULP energy -312211.403776 kJ/mol
# GULP energy per Si atom -5575.203639 kJ/mol
# Density = 2.020764 g / cm^3
# Si number density = 20.253743 Si / 1000 Ang^3
#
#
#
# Elastic Constant Matrix: (Units=GPa)
#
#
# Indices 1 2 3 4 5 6 
#
# 1 78.7162 31.0795 18.3314 0.0000 0.0000 0.0000
# 2 31.0795 78.7156 18.3306 0.0000 0.0000 0.0000
# 3 18.3314 18.3306 45.7244 0.0000 0.0000 0.0000
# 4 0.0000 0.0000 0.0000 24.2532 0.0000 0.0000
# 5 0.0000 0.0000 0.0000 0.0000 24.2532 0.0000
# 6 0.0000 0.0000 0.0000 0.0000 0.0000 15.5251
#
#
#
# Elastic Compliance Matrix: (Units=1/GPa)
#
#
# Indices 1 2 3 4 5 6 
#
# 1 0.015754 -0.005238 -0.004216 0.000000 0.000000 0.000000
# 2 -0.005238 0.015754 -0.004216 0.000000 0.000000 0.000000
# 3 -0.004216 -0.004216 0.025250 0.000000 0.000000 0.000000
# 4 0.000000 0.000000 0.000000 0.041232 0.000000 0.000000
# 5 0.000000 0.000000 0.000000 0.000000 0.041232 0.000000
# 6 0.000000 0.000000 0.000000 0.000000 0.000000 0.064412
#
#
# Mechanical properties :
#
#
# Convention : Reuss Voigt Hill
#
# Bulk Modulus (GPa) = 33.99211 37.62659 35.80935
# Shear Modulus (GPa) = 20.76592 21.83395 21.29993
#
# Velocity S-wave (km/s) = 3.20549 3.28688 3.24644
# Velocity P-wave (km/s) = 5.52447 5.74654 5.63660
#
# Compressibility (1/GPa) = 0.02941859
#
# Stress axis : x y z
#
# Youngs Moduli (GPa) = 63.47626 63.47625 39.60342
#
# Poissons Ratio (x) = 0.33251 0.16696
# Poissons Ratio (y) = 0.33251 0.16695
# Poissons Ratio (z) = 0.26761 0.26759
#
# Static dielectric constant tensor:
#      x y z
#    x 1.761900 0.000000 0.000000 
#    y 0.000000 1.761900 0.000000 
#    z 0.000000 0.000000 1.756130 
# 
# From -- ./inp_files/8367.got.cif
#   From: 2010.05.17/outbox.cif.g08.bks.cpg/sg121_5_cif.got.tgz:8367.got - 2010.05.20 11:32:06.
