data_PCOD9560766
_publ_section_title
;
Structure prediction by ZEFSAII (Michael W. Deem and Ramdas Pophale) SiO2 
 PCOD9560766
Probable space group: I -4 2 D
;
_chemical_formula_sum "Si O2"
_cell_formula_units_Z 72
_cell_length_a 19.887605
_cell_length_b 19.887605
_cell_length_c 7.170625
_cell_angle_alpha 90.000000
_cell_angle_beta 90.000000
_cell_angle_gamma 90.000000
_cell_volume 2836.102888
_symmetry_space_group_name_H-M "I -4 2 D"
_symmetry_group_IT_number 122
_symmetry_cell_setting 'tetragonal'
loop_
_space_group_symop_operation_xyz
x,y,z
y,-x,-z
-x,-y,z
-y,x,-z
x,1/2-y,1/4-z
-x,1/2+y,1/4-z
-y,1/2-x,1/4+z
y,1/2+x,1/4+z
1/2+x,1/2+y,1/2+z
1/2+y,1/2-x,1/2-z
1/2-x,1/2-y,1/2+z
1/2-y,1/2+x,1/2-z
1/2+x,-y,3/4-z
1/2-x,y,3/4-z
1/2-y,-x,3/4+z
1/2+y,x,3/4+z
loop_
_atom_site_type_symbol
_atom_site_label
_atom_site_fract_x
_atom_site_fract_y
_atom_site_fract_z
Si Si1 0.001374 0.345888 0.005225
Si Si2 0.750000 0.247017 0.875000
Si Si3 0.361796 0.148607 0.985339
Si Si4 0.152255 0.359891 0.034273
Si Si5 0.302155 0.499564 0.660579
O O1 0.077050 0.366779 0.955599
O O2 0.000625 0.351688 0.231115
O O3 0.928118 0.371517 0.945851
O O4 0.999902 0.269743 0.934671
O O5 0.689586 0.297386 0.811244
O O6 0.708398 0.193590 0.008380
O O7 0.350859 0.144989 0.761008
O O8 0.432284 0.185133 0.020160
O O9 0.187376 0.429713 0.986251
#
# Coordination Sequence:
#
# PCOD9560766 Si02
#       5
#    16   8  16  16  16
#     4   9  17  32  51  81 110 138 178 240 283 331
#     4  12  20  32  56  84 110 150 188 232 286 344
#     4  10  20  33  55  81 115 145 183 234 291 341
#     4  10  19  32  56  82 108 145 188 232 288 340
#     4   9  17  32  51  79 111 140 182 232 282 337
#
# _framework density 25.386949999999999
#
# number of rings (size 3 to 8) (size 9 to 14) (size 15 to 20)
#    0.000    2.222    2.222    3.333    0.000    0.889 
#    0.000    4.444    9.778    0.000    0.000    0.000 
#    0.000    0.000    0.000    0.000    0.000    0.000 
#
# Total GULP energy -200996.344488 kJ/mol
# GULP energy per Si atom -5583.231791 kJ/mol
# Density = 2.532917 g / cm^3
# Si number density = 25.386950 Si / 1000 Ang^3
#
#
#
# Elastic Constant Matrix: (Units=GPa)
#
#
# Indices 1 2 3 4 5 6 
#
# 1 190.1854 68.4402 18.6964 0.0000 0.0000 0.0000
# 2 68.4402 190.1854 18.6964 0.0000 0.0000 0.0000
# 3 18.6964 18.6964 85.9699 0.0000 0.0000 0.0000
# 4 0.0000 0.0000 0.0000 12.6753 0.0000 0.0000
# 5 0.0000 0.0000 0.0000 0.0000 12.6753 0.0000
# 6 0.0000 0.0000 0.0000 0.0000 0.0000 56.4252
#
#
#
# Elastic Compliance Matrix: (Units=1/GPa)
#
#
# Indices 1 2 3 4 5 6 
#
# 1 0.006103 -0.002111 -0.000868 0.000000 0.000000 0.000000
# 2 -0.002111 0.006103 -0.000868 0.000000 0.000000 0.000000
# 3 -0.000868 -0.000868 0.012010 0.000000 0.000000 0.000000
# 4 0.000000 0.000000 0.000000 0.078894 0.000000 0.000000
# 5 0.000000 0.000000 0.000000 0.000000 0.078894 0.000000
# 6 0.000000 0.000000 0.000000 0.000000 0.000000 0.017723
#
#
# Mechanical properties :
#
#
# Convention : Reuss Voigt Hill
#
# Bulk Modulus (GPa) = 60.52875 75.33407 67.93141
# Shear Modulus (GPa) = 23.48219 40.38900 31.93559
#
# Velocity S-wave (km/s) = 3.04463 3.99298 3.55061
# Velocity P-wave (km/s) = 6.02112 7.14124 6.60497
#
# Compressibility (1/GPa) = 0.01652108
#
# Stress axis : x y z
#
# Youngs Moduli (GPa) = 163.85388 163.85388 83.26676
#
# Poissons Ratio (x) = 0.34588 0.07229
# Poissons Ratio (y) = 0.34588 0.07229
# Poissons Ratio (z) = 0.14226 0.14226
#
# Static dielectric constant tensor:
#      x y z
#    x 1.974360 0.000000 0.000000 
#    y 0.000000 1.974360 0.000000 
#    z 0.000000 0.000000 2.248340 
# 
# From -- ./inp_files/4317.got.cif
#   From: 2010.05.17/outbox.cif.g08.bks.cpg/sg122_3_cif.got.tgz:4317.got - 2010.05.20 11:37:33.
