data_PCOD9560485
_publ_section_title
;
Structure prediction by ZEFSAII (Michael W. Deem and Ramdas Pophale) SiO2 
 PCOD9560485
Probable space group: I -4 2 M
;
_chemical_formula_sum "Si O2"
_cell_formula_units_Z 48
_cell_length_a 18.904040
_cell_length_b 18.904040
_cell_length_c 5.409322
_cell_angle_alpha 90.000000
_cell_angle_beta 90.000000
_cell_angle_gamma 90.000000
_cell_volume 1933.090068
_symmetry_space_group_name_H-M "I -4 2 M"
_symmetry_group_IT_number 121
_symmetry_cell_setting 'tetragonal'
loop_
_space_group_symop_operation_xyz
x,y,z
y,-x,-z
-x,-y,z
-y,x,-z
x,-y,-z
-x,y,-z
-y,-x,z
y,x,z
1/2+x,1/2+y,1/2+z
1/2+y,1/2-x,1/2-z
1/2-x,1/2-y,1/2+z
1/2-y,1/2+x,1/2-z
1/2+x,1/2-y,1/2-z
1/2-x,1/2+y,1/2-z
1/2-y,1/2-x,1/2+z
1/2+y,1/2+x,1/2+z
loop_
_atom_site_type_symbol
_atom_site_label
_atom_site_fract_x
_atom_site_fract_y
_atom_site_fract_z
Si Si1 0.760093 0.356009 0.958625
Si Si2 0.074275 0.382426 0.060212
Si Si3 0.303531 0.418932 0.549450
O O1 0.719049 0.280952 0.994458
O O2 0.844659 0.352190 0.932965
O O3 0.731647 0.388795 0.702723
O O4 0.739034 0.404578 0.194018
O O5 0.066428 0.416885 0.326859
O O6 0.000000 0.341981 0.000000
O O7 0.317931 0.500000 0.500000
O O8 0.374807 0.374807 0.584810
#
# Coordination Sequence:
#
# PCOD9560485 Si02
#       3
#    16  16  16
#     4  10  23  44  70  99 135 182 232 283 341 410
#     4  12  28  47  69 100 137 178 230 290 348 408
#     4  10  21  39  66 100 137 181 232 287 351 418
#
# _framework density 24.83071
#
# number of rings (size 3 to 8) (size 9 to 14) (size 15 to 20)
#    0.000    1.333    0.000    4.000    0.000   11.667 
#    0.000    0.000    0.000    6.000    0.000    0.000 
#    0.000    0.667    0.000    0.000    0.000   38.000 
#
# Total GULP energy -134120.739019 kJ/mol
# GULP energy per Si atom -5588.364126 kJ/mol
# Density = 2.477419 g / cm^3
# Si number density = 24.830710 Si / 1000 Ang^3
#
#
#
# Elastic Constant Matrix: (Units=GPa)
#
#
# Indices 1 2 3 4 5 6 
#
# 1 158.2136 41.1366 23.5604 0.0000 0.0000 0.0000
# 2 41.1366 158.2115 23.5597 0.0000 0.0000 0.0000
# 3 23.5604 23.5597 206.7941 0.0000 0.0000 0.0000
# 4 0.0000 0.0000 0.0000 39.8101 0.0000 0.0000
# 5 0.0000 0.0000 0.0000 0.0000 39.8093 0.0000
# 6 0.0000 0.0000 0.0000 0.0000 0.0000 15.5522
#
#
#
# Elastic Compliance Matrix: (Units=1/GPa)
#
#
# Indices 1 2 3 4 5 6 
#
# 1 0.006848 -0.001693 -0.000587 0.000000 0.000000 0.000000
# 2 -0.001693 0.006848 -0.000587 0.000000 0.000000 0.000000
# 3 -0.000587 -0.000587 0.004970 0.000000 0.000000 0.000000
# 4 0.000000 0.000000 0.000000 0.025119 0.000000 0.000000
# 5 0.000000 0.000000 0.000000 0.000000 0.025120 0.000000
# 6 0.000000 0.000000 0.000000 0.000000 0.000000 0.064300
#
#
# Mechanical properties :
#
#
# Convention : Reuss Voigt Hill
#
# Bulk Modulus (GPa) = 77.33624 77.74809 77.54216
# Shear Modulus (GPa) = 34.90384 48.03182 41.46783
#
# Velocity S-wave (km/s) = 3.75330 4.40292 4.09102
# Velocity P-wave (km/s) = 7.07078 7.56484 7.32198
#
# Compressibility (1/GPa) = 0.01293055
#
# Stress axis : x y z
#
# Youngs Moduli (GPa) = 146.02243 146.02060 201.22527
#
# Poissons Ratio (x) = 0.24724 0.11819
# Poissons Ratio (y) = 0.24724 0.11818
# Poissons Ratio (z) = 0.08576 0.08576
#
# Static dielectric constant tensor:
#      x y z
#    x 2.014870 0.000000 0.000000 
#    y 0.000000 2.014870 0.000000 
#    z 0.000000 0.000000 2.012390 
# 
# From -- ./inp_files/297.got.cif
#   From: 2010.05.17/outbox.cif.g08.bks.cpg/sg121_1_cif.got.tgz:297.got - 2010.05.20 11:32:06.
