data_PCOD9560305
_publ_section_title
;
Structure prediction by ZEFSAII (Michael W. Deem and Ramdas Pophale) SiO2 
 PCOD9560305
Probable space group: I -4 2 M
;
_chemical_formula_sum "Si O2"
_cell_formula_units_Z 112
_cell_length_a 17.273423
_cell_length_b 17.273423
_cell_length_c 17.120192
_cell_angle_alpha 90.000000
_cell_angle_beta 90.000000
_cell_angle_gamma 90.000000
_cell_volume 5108.171241
_symmetry_space_group_name_H-M "I -4 2 M"
_symmetry_group_IT_number 121
_symmetry_cell_setting 'tetragonal'
loop_
_space_group_symop_operation_xyz
x,y,z
y,-x,-z
-x,-y,z
-y,x,-z
x,-y,-z
-x,y,-z
-y,-x,z
y,x,z
1/2+x,1/2+y,1/2+z
1/2+y,1/2-x,1/2-z
1/2-x,1/2-y,1/2+z
1/2-y,1/2+x,1/2-z
1/2+x,1/2-y,1/2-z
1/2-x,1/2+y,1/2-z
1/2-y,1/2-x,1/2+z
1/2+y,1/2+x,1/2+z
loop_
_atom_site_type_symbol
_atom_site_label
_atom_site_fract_x
_atom_site_fract_y
_atom_site_fract_z
Si Si1 0.010773 0.229750 0.689063
Si Si2 0.273819 0.152887 0.379917
Si Si3 0.521855 0.119319 0.721301
Si Si4 0.163768 0.961839 0.838380
Si Si5 0.919794 0.278380 0.457033
Si Si6 0.084048 0.683771 0.902869
Si Si7 0.766047 0.104524 0.066787
O O1 0.928371 0.263066 0.661104
O O2 0.046268 0.300343 0.739053
O O3 0.994526 0.161750 0.750267
O O4 0.058388 0.216552 0.609747
O O5 0.210303 0.210303 0.346484
O O6 0.256694 0.135235 0.471470
O O7 0.354164 0.199852 0.380532
O O8 0.584774 0.052483 0.731106
O O9 0.488200 0.137860 0.635048
O O10 0.088660 0.911341 0.858745
O O11 0.241097 0.908011 0.846679
O O12 0.186700 0.965435 0.106648
O O13 0.877462 0.347508 0.411523
O O14 0.000000 0.303114 0.500000
O O15 0.079735 0.722647 0.988004
O O16 0.827652 0.172349 0.048275
#
# Coordination Sequence:
#
# PCOD9560305 Si02
#       7
#    16  16  16  16  16  16  16
#     4  10  20  35  59  82 125 158 200 238 306 362
#     4   9  19  35  60  87 116 155 202 253 306 368
#     4  10  20  33  52  83 119 156 190 226 279 347
#     4  11  24  38  58  88 120 159 206 258 309 358
#     4   9  18  36  57  84 116 156 196 249 298 364
#     4  10  20  36  57  81 117 150 194 241 295 352
#     4  10  22  41  62  85 113 157 212 261 308 356
#
# _framework density 21.925654999999999
#
# number of rings (size 3 to 8) (size 9 to 14) (size 15 to 20)
#    0.000    2.143    1.429    1.286    4.000    0.857 
#    2.571    0.714    0.000    1.714    0.000    0.000 
#    0.000   14.000    0.000    0.000    0.000    0.000 
#
# Total GULP energy -312210.581227 kJ/mol
# GULP energy per Si atom -5575.188950 kJ/mol
# Density = 2.187575 g / cm^3
# Si number density = 21.925655 Si / 1000 Ang^3
#
#
#
# Elastic Constant Matrix: (Units=GPa)
#
#
# Indices 1 2 3 4 5 6 
#
# 1 61.0577 34.4011 29.2348 0.0000 0.0000 0.0000
# 2 34.4011 61.0545 29.2347 0.0000 0.0000 0.0000
# 3 29.2348 29.2347 121.2437 0.0000 0.0000 0.0000
# 4 0.0000 0.0000 0.0000 18.1518 0.0000 0.0000
# 5 0.0000 0.0000 0.0000 0.0000 18.1516 0.0000
# 6 0.0000 0.0000 0.0000 0.0000 0.0000 29.8734
#
#
#
# Elastic Compliance Matrix: (Units=1/GPa)
#
#
# Indices 1 2 3 4 5 6 
#
# 1 0.024903 -0.012613 -0.002964 0.000000 0.000000 0.000000
# 2 -0.012613 0.024905 -0.002964 0.000000 0.000000 0.000000
# 3 -0.002964 -0.002964 0.009677 0.000000 0.000000 0.000000
# 4 0.000000 0.000000 0.000000 0.055091 0.000000 0.000000
# 5 0.000000 0.000000 0.000000 0.000000 0.055092 0.000000
# 6 0.000000 0.000000 0.000000 0.000000 0.000000 0.033475
#
#
# Mechanical properties :
#
#
# Convention : Reuss Voigt Hill
#
# Bulk Modulus (GPa) = 44.63344 47.67744 46.15544
# Shear Modulus (GPa) = 20.18651 23.26770 21.72711
#
# Velocity S-wave (km/s) = 3.03756 3.26115 3.15134
# Velocity P-wave (km/s) = 5.71868 5.99770 5.85985
#
# Compressibility (1/GPa) = 0.02240472
#
# Stress axis : x y z
#
# Youngs Moduli (GPa) = 40.15571 40.15335 103.33683
#
# Poissons Ratio (x) = 0.50644 0.30624
# Poissons Ratio (y) = 0.50647 0.30628
# Poissons Ratio (z) = 0.11900 0.11901
#
# Static dielectric constant tensor:
#      x y z
#    x 1.815880 0.000000 0.000000 
#    y 0.000000 1.815880 0.000000 
#    z 0.000000 0.000000 1.852000 
# 
# From -- ./inp_files/6696.got.cif
#   From: 2010.05.17/outbox.cif.g08.bks.cpg/sg121_4_cif.got.tgz:6696.got - 2010.05.20 11:32:06.
