data_PCOD9560630
_publ_section_title
;
Structure prediction by ZEFSAII (Michael W. Deem and Ramdas Pophale) SiO2 
 PCOD9560630
Probable space group: I -4 2 M
;
_chemical_formula_sum "Si O2"
_cell_formula_units_Z 88
_cell_length_a 13.905033
_cell_length_b 13.905033
_cell_length_c 21.570143
_cell_angle_alpha 90.000000
_cell_angle_beta 90.000000
_cell_angle_gamma 90.000000
_cell_volume 4170.585914
_symmetry_space_group_name_H-M "I -4 2 M"
_symmetry_group_IT_number 121
_symmetry_cell_setting 'tetragonal'
loop_
_space_group_symop_operation_xyz
x,y,z
y,-x,-z
-x,-y,z
-y,x,-z
x,-y,-z
-x,y,-z
-y,-x,z
y,x,z
1/2+x,1/2+y,1/2+z
1/2+y,1/2-x,1/2-z
1/2-x,1/2-y,1/2+z
1/2-y,1/2+x,1/2-z
1/2+x,1/2-y,1/2-z
1/2-x,1/2+y,1/2-z
1/2-y,1/2-x,1/2+z
1/2+y,1/2+x,1/2+z
loop_
_atom_site_type_symbol
_atom_site_label
_atom_site_fract_x
_atom_site_fract_y
_atom_site_fract_z
Si Si1 0.747284 0.001083 0.929437
Si Si2 0.427063 0.140176 0.233877
Si Si3 0.093145 0.450982 0.102474
Si Si4 0.817876 0.182125 0.860491
Si Si5 0.500000 0.218345 0.000000
Si Si6 0.220559 0.220559 0.904854
Si Si7 0.745836 0.254165 0.728080
Si Si8 0.700480 0.700480 0.034320
O O1 0.640969 0.050351 0.932983
O O2 0.797549 0.073393 0.881649
O O3 0.755763 0.893079 0.904936
O O4 0.786115 0.000000 0.000000
O O5 0.537964 0.126707 0.253283
O O6 0.423155 0.157516 0.160300
O O7 0.365428 0.223877 0.264880
O O8 0.000000 0.500000 0.131821
O O9 0.146587 0.523200 0.056635
O O10 0.796296 0.203705 0.788110
O O11 0.751533 0.248468 0.907086
O O12 0.588026 0.277220 0.972293
O O13 0.268900 0.268900 0.844016
O O14 0.256102 0.256102 0.971351
#
# Coordination Sequence:
#
# PCOD9560630 Si02
#       8
#    16  16  16   8   8   8   8   8
#     4  12  22  43  68  98 140 178 233 293 359 428
#     4  11  23  42  65  95 132 176 227 283 342 420
#     4  12  21  37  65  98 129 169 228 293 348 403
#     4  12  24  47  66  95 144 189 224 288 375 434
#     4  12  25  39  70  96 136 180 230 294 350 416
#     4  12  26  41  70 109 138 174 239 304 353 440
#     4  12  26  42  66  96 144 186 221 288 367 429
#     4  12  24  47  64 103 136 181 240 292 349 427
#
# _framework density 21.100154
#
# number of rings (size 3 to 8) (size 9 to 14) (size 15 to 20)
#    0.000    0.182    7.273    3.545    2.545    0.545 
#    0.000    0.909    0.000    0.545    0.000    2.545 
#    0.000    0.000    0.000    0.000    0.000    0.000 
#
# Total GULP energy -245619.239018 kJ/mol
# GULP energy per Si atom -5582.255432 kJ/mol
# Density = 2.105213 g / cm^3
# Si number density = 21.100154 Si / 1000 Ang^3
#
#
#
# Elastic Constant Matrix: (Units=GPa)
#
#
# Indices 1 2 3 4 5 6 
#
# 1 71.7697 20.9049 10.6094 0.0000 0.0000 0.0000
# 2 20.9049 71.7712 10.6096 0.0000 0.0000 0.0000
# 3 10.6094 10.6096 146.0087 0.0000 0.0000 0.0000
# 4 0.0000 0.0000 0.0000 22.4038 0.0000 0.0000
# 5 0.0000 0.0000 0.0000 0.0000 22.4036 0.0000
# 6 0.0000 0.0000 0.0000 0.0000 0.0000 35.8016
#
#
#
# Elastic Compliance Matrix: (Units=1/GPa)
#
#
# Indices 1 2 3 4 5 6 
#
# 1 0.015316 -0.004343 -0.000797 0.000000 0.000000 0.000000
# 2 -0.004343 0.015316 -0.000797 0.000000 0.000000 0.000000
# 3 -0.000797 -0.000797 0.006965 0.000000 0.000000 0.000000
# 4 0.000000 0.000000 0.000000 0.044635 0.000000 0.000000
# 5 0.000000 0.000000 0.000000 0.000000 0.044636 0.000000
# 6 0.000000 0.000000 0.000000 0.000000 0.000000 0.027932
#
#
# Mechanical properties :
#
#
# Convention : Reuss Voigt Hill
#
# Bulk Modulus (GPa) = 38.87832 41.53305 40.20568
# Shear Modulus (GPa) = 28.53068 32.61685 30.57376
#
# Velocity S-wave (km/s) = 3.68116 3.93595 3.81068
# Velocity P-wave (km/s) = 6.04429 6.35469 6.20143
#
# Compressibility (1/GPa) = 0.02572128
#
# Stress axis : x y z
#
# Youngs Moduli (GPa) = 65.28929 65.29059 143.57960
#
# Poissons Ratio (x) = 0.28358 0.11448
# Poissons Ratio (y) = 0.28358 0.11448
# Poissons Ratio (z) = 0.05206 0.05206
#
# Static dielectric constant tensor:
#      x y z
#    x 1.819250 0.000000 0.000000 
#    y 0.000000 1.819250 0.000000 
#    z 0.000000 0.000000 1.773680 
# 
# From -- ./inp_files/6379.got.cif
#   From: 2010.05.17/outbox.cif.g08.bks.cpg/sg121_4_cif.got.tgz:6379.got - 2010.05.20 11:32:06.
