data_PCOD9560459
_publ_section_title
;
Structure prediction by ZEFSAII (Michael W. Deem and Ramdas Pophale) SiO2 
 PCOD9560459
Probable space group: I -4 2 M
;
_chemical_formula_sum "Si O2"
_cell_formula_units_Z 80
_cell_length_a 16.982388
_cell_length_b 16.982388
_cell_length_c 14.681330
_cell_angle_alpha 90.000000
_cell_angle_beta 90.000000
_cell_angle_gamma 90.000000
_cell_volume 4234.117626
_symmetry_space_group_name_H-M "I -4 2 M"
_symmetry_group_IT_number 121
_symmetry_cell_setting 'tetragonal'
loop_
_space_group_symop_operation_xyz
x,y,z
y,-x,-z
-x,-y,z
-y,x,-z
x,-y,-z
-x,y,-z
-y,-x,z
y,x,z
1/2+x,1/2+y,1/2+z
1/2+y,1/2-x,1/2-z
1/2-x,1/2-y,1/2+z
1/2-y,1/2+x,1/2-z
1/2+x,1/2-y,1/2-z
1/2-x,1/2+y,1/2-z
1/2-y,1/2-x,1/2+z
1/2+y,1/2+x,1/2+z
loop_
_atom_site_type_symbol
_atom_site_label
_atom_site_fract_x
_atom_site_fract_y
_atom_site_fract_z
Si Si1 0.490358 0.770260 0.797295
Si Si2 0.042491 0.423184 0.401802
Si Si3 0.792614 0.081531 0.552350
Si Si4 0.799432 0.667885 0.091355
Si Si5 0.514624 0.795103 0.594358
O O1 0.527119 0.853451 0.831760
O O2 0.553202 0.712355 0.844419
O O3 0.402693 0.771227 0.841046
O O4 0.490577 0.758559 0.690314
O O5 0.130234 0.455237 0.415005
O O6 0.000000 0.500000 0.363848
O O7 0.000000 0.405799 0.500000
O O8 0.870402 0.129599 0.532203
O O9 0.722308 0.134513 0.510021
O O10 0.789167 0.000000 0.500000
O O11 0.745551 0.745551 0.105708
O O12 0.892652 0.681814 0.101674
O O13 0.500000 0.749222 0.500000
#
# Coordination Sequence:
#
# PCOD9560459 Si02
#       5
#    16  16  16  16  16
#     4  11  21  34  55  79 109 148 186 224 275 333
#     4  11  19  30  50  77 107 138 180 228 266 320
#     4   9  19  35  57  80 107 138 177 228 283 331
#     4  10  21  38  55  79 113 146 178 227 285 335
#     4  12  22  34  50  78 110 148 188 226 262 321
#
# _framework density 18.894137000000001
#
# number of rings (size 3 to 8) (size 9 to 14) (size 15 to 20)
#    0.000    1.400    4.000    4.200    0.000    1.000 
#    0.000    3.000    0.000    0.000    0.000    0.000 
#    0.000    2.000    0.000    0.400    0.000    0.000 
#
# Total GULP energy -222922.248763 kJ/mol
# GULP energy per Si atom -5573.056219 kJ/mol
# Density = 1.885113 g / cm^3
# Si number density = 18.894137 Si / 1000 Ang^3
#
#
#
# Elastic Constant Matrix: (Units=GPa)
#
#
# Indices 1 2 3 4 5 6 
#
# 1 54.2868 31.2119 1.2596 0.0000 0.0000 0.0000
# 2 31.2119 54.2914 1.2620 0.0000 0.0000 0.0000
# 3 1.2596 1.2620 124.6050 0.0000 0.0000 0.0000
# 4 0.0000 0.0000 0.0000 10.3362 0.0000 0.0000
# 5 0.0000 0.0000 0.0000 0.0000 10.3354 0.0000
# 6 0.0000 0.0000 0.0000 0.0000 0.0000 23.8717
#
#
#
# Elastic Compliance Matrix: (Units=1/GPa)
#
#
# Indices 1 2 3 4 5 6 
#
# 1 0.027517 -0.015817 -0.000118 0.000000 0.000000 0.000000
# 2 -0.015817 0.027515 -0.000119 0.000000 0.000000 0.000000
# 3 -0.000118 -0.000119 0.008028 0.000000 0.000000 0.000000
# 4 0.000000 0.000000 0.000000 0.096747 0.000000 0.000000
# 5 0.000000 0.000000 0.000000 0.000000 0.096755 0.000000
# 6 0.000000 0.000000 0.000000 0.000000 0.000000 0.041891
#
#
# Mechanical properties :
#
#
# Convention : Reuss Voigt Hill
#
# Bulk Modulus (GPa) = 32.30728 33.40556 32.85642
# Shear Modulus (GPa) = 14.66806 22.20532 18.43669
#
# Velocity S-wave (km/s) = 2.78929 3.43191 3.12715
# Velocity P-wave (km/s) = 5.24497 5.78124 5.51962
#
# Compressibility (1/GPa) = 0.03095278
#
# Stress axis : x y z
#
# Youngs Moduli (GPa) = 36.34088 36.34396 124.56777
#
# Poissons Ratio (x) = 0.57484 0.01469
# Poissons Ratio (y) = 0.57480 0.01480
# Poissons Ratio (z) = 0.00429 0.00432
#
# Static dielectric constant tensor:
#      x y z
#    x 1.676740 0.000000 0.000000 
#    y 0.000000 1.676740 0.000000 
#    z 0.000000 0.000000 1.756870 
# 
# From -- ./inp_files/4245.got.cif
#   From: 2010.05.17/outbox.cif.g08.bks.cpg/sg121_3_cif.got.tgz:4245.got - 2010.05.20 11:32:06.
