data_PCOD9560147
_publ_section_title
;
Structure prediction by ZEFSAII (Michael W. Deem and Ramdas Pophale) SiO2 
 PCOD9560147
Probable space group: I -4 2 M
;
_chemical_formula_sum "Si O2"
_cell_formula_units_Z 120
_cell_length_a 27.417374
_cell_length_b 27.417374
_cell_length_c 8.052406
_cell_angle_alpha 90.000000
_cell_angle_beta 90.000000
_cell_angle_gamma 90.000000
_cell_volume 6053.093416
_symmetry_space_group_name_H-M "I -4 2 M"
_symmetry_group_IT_number 121
_symmetry_cell_setting 'tetragonal'
loop_
_space_group_symop_operation_xyz
x,y,z
y,-x,-z
-x,-y,z
-y,x,-z
x,-y,-z
-x,y,-z
-y,-x,z
y,x,z
1/2+x,1/2+y,1/2+z
1/2+y,1/2-x,1/2-z
1/2-x,1/2-y,1/2+z
1/2-y,1/2+x,1/2-z
1/2+x,1/2-y,1/2-z
1/2-x,1/2+y,1/2-z
1/2-y,1/2-x,1/2+z
1/2+y,1/2+x,1/2+z
loop_
_atom_site_type_symbol
_atom_site_label
_atom_site_fract_x
_atom_site_fract_y
_atom_site_fract_z
Si Si1 0.388037 0.211227 0.947054
Si Si2 0.000000 0.851830 0.500000
Si Si3 0.373331 0.952177 0.942714
Si Si4 0.229376 0.467613 0.706322
Si Si5 0.563410 0.285401 0.604419
Si Si6 0.616781 0.140047 0.745621
Si Si7 0.607009 0.472006 0.656562
Si Si8 0.810273 0.891252 0.569919
O O1 0.442206 0.223365 0.881905
O O2 0.364807 0.172822 0.817050
O O3 0.388515 0.181616 0.118150
O O4 0.367875 0.265621 0.967171
O O5 0.998475 0.881415 0.325545
O O6 0.052605 0.823999 0.482811
O O7 0.326008 0.973552 0.851328
O O8 0.397696 0.912398 0.823915
O O9 0.353182 0.918600 0.091295
O O10 0.402297 0.000000 0.000000
O O11 0.258036 0.432807 0.572454
O O12 0.257835 0.517978 0.692506
O O13 0.547865 0.341560 0.584512
O O14 0.605450 0.289416 0.741082
O O15 0.584645 0.500000 0.500000
O O16 0.572688 0.427313 0.704463
O O17 0.857891 0.857891 0.560391
#
# Coordination Sequence:
#
# PCOD9560147 Si02
#       8
#    16   8  16  16  16  16  16  16
#     4  10  20  37  58  86 123 158 204 241 312 365
#     4  10  22  42  62  91 128 152 201 278 326 362
#     4  10  18  35  57  87 122 153 204 238 296 359
#     4  10  18  31  60  91 113 155 185 260 317 353
#     4  10  18  35  54  88 121 145 190 262 322 356
#     4   9  21  37  57  88 124 162 191 255 299 358
#     4  11  23  39  58  80 116 166 206 248 316 387
#     4  11  23  38  61  91 120 160 207 253 318 382
#
# _framework density 19.824573999999998
#
# number of rings (size 3 to 8) (size 9 to 14) (size 15 to 20)
#    0.000    1.867    2.667    4.000    0.000    1.200 
#    2.400    3.333    0.000    3.000    0.000    0.000 
#    0.000    0.000    0.000    0.000    0.000    0.000 
#
# Total GULP energy -334158.755386 kJ/mol
# GULP energy per Si atom -5569.312590 kJ/mol
# Density = 1.977945 g / cm^3
# Si number density = 19.824574 Si / 1000 Ang^3
#
#
#
# Elastic Constant Matrix: (Units=GPa)
#
#
# Indices 1 2 3 4 5 6 
#
# 1 73.4625 35.1293 17.1776 0.0000 0.0000 0.0000
# 2 35.1293 73.4626 17.1801 0.0000 0.0000 0.0000
# 3 17.1776 17.1801 69.8511 0.0000 0.0000 0.0000
# 4 0.0000 0.0000 0.0000 23.6294 0.0000 0.0000
# 5 0.0000 0.0000 0.0000 0.0000 23.6292 0.0000
# 6 0.0000 0.0000 0.0000 0.0000 0.0000 13.7401
#
#
#
# Elastic Compliance Matrix: (Units=1/GPa)
#
#
# Indices 1 2 3 4 5 6 
#
# 1 0.018036 -0.008051 -0.002455 0.000000 0.000000 0.000000
# 2 -0.008051 0.018037 -0.002456 0.000000 0.000000 0.000000
# 3 -0.002455 -0.002456 0.015524 0.000000 0.000000 0.000000
# 4 0.000000 0.000000 0.000000 0.042320 0.000000 0.000000
# 5 0.000000 0.000000 0.000000 0.000000 0.042320 0.000000
# 6 0.000000 0.000000 0.000000 0.000000 0.000000 0.072780
#
#
# Mechanical properties :
#
#
# Convention : Reuss Voigt Hill
#
# Bulk Modulus (GPa) = 38.95249 39.52780 39.24014
# Shear Modulus (GPa) = 20.53392 22.01902 21.27647
#
# Velocity S-wave (km/s) = 3.22185 3.33632 3.27958
# Velocity P-wave (km/s) = 5.79065 5.90114 5.84616
#
# Compressibility (1/GPa) = 0.02567230
#
# Stress axis : x y z
#
# Youngs Moduli (GPa) = 55.44391 55.44301 64.41586
#
# Poissons Ratio (x) = 0.44635 0.15816
# Poissons Ratio (y) = 0.44636 0.15823
# Poissons Ratio (z) = 0.13614 0.13619
#
# Static dielectric constant tensor:
#      x y z
#    x 1.707090 0.000000 0.000000 
#    y 0.000000 1.707090 0.000000 
#    z 0.000000 0.000000 1.790980 
# 
# From -- ./inp_files/2188.got.cif
#   From: 2010.05.17/outbox.cif.g08.bks.cpg/sg121_2_cif.got.tgz:2188.got - 2010.05.20 11:32:06.
