data_PCOD9560769
_publ_section_title
;
Structure prediction by ZEFSAII (Michael W. Deem and Ramdas Pophale) SiO2 
 PCOD9560769
Probable space group: I -4 2 D
;
_chemical_formula_sum "Si O2"
_cell_formula_units_Z 112
_cell_length_a 14.564862
_cell_length_b 14.564862
_cell_length_c 32.111541
_cell_angle_alpha 90.000000
_cell_angle_beta 90.000000
_cell_angle_gamma 90.000000
_cell_volume 6811.988335
_symmetry_space_group_name_H-M "I -4 2 D"
_symmetry_group_IT_number 122
_symmetry_cell_setting 'tetragonal'
loop_
_space_group_symop_operation_xyz
x,y,z
y,-x,-z
-x,-y,z
-y,x,-z
x,1/2-y,1/4-z
-x,1/2+y,1/4-z
-y,1/2-x,1/4+z
y,1/2+x,1/4+z
1/2+x,1/2+y,1/2+z
1/2+y,1/2-x,1/2-z
1/2-x,1/2-y,1/2+z
1/2-y,1/2+x,1/2-z
1/2+x,-y,3/4-z
1/2-x,y,3/4-z
1/2-y,-x,3/4+z
1/2+y,x,3/4+z
loop_
_atom_site_type_symbol
_atom_site_label
_atom_site_fract_x
_atom_site_fract_y
_atom_site_fract_z
Si Si1 0.893555 0.893825 0.616364
Si Si2 0.392184 0.217513 0.216980
Si Si3 0.392184 0.717513 0.033020
Si Si4 0.604840 0.787864 0.451619
Si Si5 0.605079 0.605079 0.500000
Si Si6 0.606175 0.606445 0.883636
Si Si7 0.395160 0.712136 0.798381
O O1 0.874439 0.824134 0.579005
O O2 0.821126 0.885925 0.653807
O O3 0.000000 0.878137 0.631064
O O4 0.890512 1.000000 0.601420
O O5 0.500000 0.228819 0.221127
O O6 0.354190 0.145810 0.250000
O O7 0.342923 0.314438 0.223975
O O8 0.342923 0.814438 0.026025
O O9 0.374439 0.675866 0.079005
O O10 0.617732 0.681362 0.464033
O O11 0.614075 0.821126 0.403807
O O12 0.500000 0.812373 0.463815
O O13 0.615129 0.500000 0.484673
O O14 0.681362 0.617732 0.535967
#
# Coordination Sequence:
#
# PCOD9560769 Si02
#       7
#    16  16  16  16  16  16  16
#     4   9  18  32  51  76 104 135 171 208 248 302
#     4  11  21  33  50  75 107 141 172 207 253 305
#     4  11  21  33  50  75 107 141 172 207 253 305
#     4  10  19  33  53  75  99 129 171 217 258 299
#     4   9  18  34  56  78  99 128 172 220 259 300
#     4   9  18  32  51  76 104 135 171 208 248 302
#     4  10  19  33  53  75  99 129 171 217 258 299
#
# _framework density 16.441602
#
# number of rings (size 3 to 8) (size 9 to 14) (size 15 to 20)
#    0.000    2.143    1.429    2.571    0.000    5.429 
#    0.000    0.000    0.000    5.143    0.000    4.000 
#    0.000    0.000    0.000    0.000    0.000    0.000 
#
# Total GULP energy -311965.188063 kJ/mol
# GULP energy per Si atom -5570.806930 kJ/mol
# Density = 1.640418 g / cm^3
# Si number density = 16.441602 Si / 1000 Ang^3
#
#
#
# Elastic Constant Matrix: (Units=GPa)
#
#
# Indices 1 2 3 4 5 6 
#
# 1 96.5017 66.4571 39.8799 0.0000 0.0000 0.0000
# 2 66.4571 96.5017 39.8799 0.0000 0.0000 0.0000
# 3 39.8799 39.8799 52.8883 0.0000 0.0000 0.0000
# 4 0.0000 0.0000 0.0000 21.3369 0.0000 0.0000
# 5 0.0000 0.0000 0.0000 0.0000 21.3369 0.0000
# 6 0.0000 0.0000 0.0000 0.0000 0.0000 25.9212
#
#
#
# Elastic Compliance Matrix: (Units=1/GPa)
#
#
# Indices 1 2 3 4 5 6 
#
# 1 0.021505 -0.011779 -0.007334 0.000000 0.000000 0.000000
# 2 -0.011779 0.021505 -0.007334 0.000000 0.000000 0.000000
# 3 -0.007334 -0.007334 0.029968 0.000000 0.000000 0.000000
# 4 0.000000 0.000000 0.000000 0.046867 0.000000 0.000000
# 5 0.000000 0.000000 0.000000 0.000000 0.046867 0.000000
# 6 0.000000 0.000000 0.000000 0.000000 0.000000 0.038578
#
#
# Mechanical properties :
#
#
# Convention : Reuss Voigt Hill
#
# Bulk Modulus (GPa) = 49.78951 59.81395 54.80173
# Shear Modulus (GPa) = 18.87659 20.36400 19.62029
#
# Velocity S-wave (km/s) = 3.39204 3.52314 3.45821
# Velocity P-wave (km/s) = 6.75941 7.28071 7.02489
#
# Compressibility (1/GPa) = 0.02008455
#
# Stress axis : x y z
#
# Youngs Moduli (GPa) = 46.50092 46.50092 33.36912
#
# Poissons Ratio (x) = 0.54773 0.24472
# Poissons Ratio (y) = 0.54773 0.24472
# Poissons Ratio (z) = 0.34103 0.34103
#
# Static dielectric constant tensor:
#      x y z
#    x 1.569060 0.000000 0.000000 
#    y 0.000000 1.569060 0.000000 
#    z 0.000000 0.000000 1.542740 
# 
# From -- ./inp_files/8807.got.cif
#   From: 2010.05.17/outbox.cif.g08.bks.cpg/sg122_5_cif.got.tgz:8807.got - 2010.05.20 11:37:33.
