data_PCOD9560601
_publ_section_title
;
Structure prediction by ZEFSAII (Michael W. Deem and Ramdas Pophale) SiO2 
 PCOD9560601
Probable space group: I -4 2 M
;
_chemical_formula_sum "Si O2"
_cell_formula_units_Z 48
_cell_length_a 13.109757
_cell_length_b 13.109757
_cell_length_c 14.750907
_cell_angle_alpha 90.000000
_cell_angle_beta 90.000000
_cell_angle_gamma 90.000000
_cell_volume 2535.175379
_symmetry_space_group_name_H-M "I -4 2 M"
_symmetry_group_IT_number 121
_symmetry_cell_setting 'tetragonal'
loop_
_space_group_symop_operation_xyz
x,y,z
y,-x,-z
-x,-y,z
-y,x,-z
x,-y,-z
-x,y,-z
-y,-x,z
y,x,z
1/2+x,1/2+y,1/2+z
1/2+y,1/2-x,1/2-z
1/2-x,1/2-y,1/2+z
1/2-y,1/2+x,1/2-z
1/2+x,1/2-y,1/2-z
1/2-x,1/2+y,1/2-z
1/2-y,1/2-x,1/2+z
1/2+y,1/2+x,1/2+z
loop_
_atom_site_type_symbol
_atom_site_label
_atom_site_fract_x
_atom_site_fract_y
_atom_site_fract_z
Si Si1 0.111653 0.276314 0.479559
Si Si2 0.941522 0.390424 0.870271
Si Si3 0.134502 0.301169 0.804060
O O1 0.199845 0.199845 0.509595
O O2 0.117628 0.381369 0.535912
O O3 0.129398 0.299488 0.373717
O O4 0.000000 0.233690 0.500000
O O5 0.857601 0.381839 0.790991
O O6 0.000000 0.500000 0.864175
O O7 0.023850 0.302236 0.851232
O O8 0.195296 0.195296 0.795416
#
# Coordination Sequence:
#
# PCOD9560601 Si02
#       3
#    16  16  16
#     4  11  23  37  59  90 124 159 200 251 306 370
#     4  12  20  37  63  87 115 155 206 256 293 361
#     4  11  22  35  57  90 119 152 200 253 307 353
#
# _framework density 18.933599999999998
#
# number of rings (size 3 to 8) (size 9 to 14) (size 15 to 20)
#    0.000    0.667    6.667    2.000    0.000    0.333 
#    0.000    0.000    0.000    6.000    0.000    9.333 
#    0.000    0.000    0.000    0.000    0.000    0.000 
#
# Total GULP energy -134003.108350 kJ/mol
# GULP energy per Si atom -5583.462848 kJ/mol
# Density = 1.889051 g / cm^3
# Si number density = 18.933600 Si / 1000 Ang^3
#
#
#
# Elastic Constant Matrix: (Units=GPa)
#
#
# Indices 1 2 3 4 5 6 
#
# 1 93.9027 56.9570 16.3056 0.0000 0.0000 0.0000
# 2 56.9570 93.9027 16.3056 0.0000 0.0000 0.0000
# 3 16.3056 16.3056 85.6593 0.0000 0.0000 0.0000
# 4 0.0000 0.0000 0.0000 29.3977 0.0000 0.0000
# 5 0.0000 0.0000 0.0000 0.0000 29.3977 0.0000
# 6 0.0000 0.0000 0.0000 0.0000 0.0000 51.0208
#
#
#
# Elastic Compliance Matrix: (Units=1/GPa)
#
#
# Indices 1 2 3 4 5 6 
#
# 1 0.016990 -0.010077 -0.001316 0.000000 0.000000 0.000000
# 2 -0.010077 0.016990 -0.001316 0.000000 0.000000 0.000000
# 3 -0.001316 -0.001316 0.012175 0.000000 0.000000 0.000000
# 4 0.000000 0.000000 0.000000 0.034016 0.000000 0.000000
# 5 0.000000 0.000000 0.000000 0.000000 0.034016 0.000000
# 6 0.000000 0.000000 0.000000 0.000000 0.000000 0.019600
#
#
# Mechanical properties :
#
#
# Convention : Reuss Voigt Hill
#
# Bulk Modulus (GPa) = 48.22147 50.28902 49.25524
# Shear Modulus (GPa) = 30.09919 34.22301 32.16110
#
# Velocity S-wave (km/s) = 3.99146 4.25612 4.12591
# Velocity P-wave (km/s) = 6.83859 7.12538 6.98346
#
# Compressibility (1/GPa) = 0.02073765
#
# Stress axis : x y z
#
# Youngs Moduli (GPa) = 58.85824 58.85825 82.13455
#
# Poissons Ratio (x) = 0.59310 0.10808
# Poissons Ratio (y) = 0.59310 0.10808
# Poissons Ratio (z) = 0.07745 0.07745
#
# Static dielectric constant tensor:
#      x y z
#    x 1.673220 0.000000 0.000000 
#    y 0.000000 1.673220 0.000000 
#    z 0.000000 0.000000 1.696370 
# 
# From -- ./inp_files/3846.got.cif
#   From: 2010.05.17/outbox.cif.g08.bks.cpg/sg121_2_cif.got.tgz:3846.got - 2010.05.20 11:32:06.
