data_PCOD9560450
_publ_section_title
;
Structure prediction by ZEFSAII (Michael W. Deem and Ramdas Pophale) SiO2 
 PCOD9560450
Probable space group: I -4 2 M
;
_chemical_formula_sum "Si O2"
_cell_formula_units_Z 56
_cell_length_a 15.924411
_cell_length_b 15.924411
_cell_length_c 11.881560
_cell_angle_alpha 90.000000
_cell_angle_beta 90.000000
_cell_angle_gamma 90.000000
_cell_volume 3013.007560
_symmetry_space_group_name_H-M "I -4 2 M"
_symmetry_group_IT_number 121
_symmetry_cell_setting 'tetragonal'
loop_
_space_group_symop_operation_xyz
x,y,z
y,-x,-z
-x,-y,z
-y,x,-z
x,-y,-z
-x,y,-z
-y,-x,z
y,x,z
1/2+x,1/2+y,1/2+z
1/2+y,1/2-x,1/2-z
1/2-x,1/2-y,1/2+z
1/2-y,1/2+x,1/2-z
1/2+x,1/2-y,1/2-z
1/2-x,1/2+y,1/2-z
1/2-y,1/2-x,1/2+z
1/2+y,1/2+x,1/2+z
loop_
_atom_site_type_symbol
_atom_site_label
_atom_site_fract_x
_atom_site_fract_y
_atom_site_fract_z
Si Si1 0.590231 0.085812 0.200796
Si Si2 0.000000 0.674498 0.500000
Si Si3 0.495617 0.360263 0.623995
Si Si4 0.598232 0.260816 0.802907
O O1 0.514505 0.103190 0.289133
O O2 0.556564 0.117746 0.082246
O O3 0.676394 0.127737 0.239487
O O4 0.942141 0.731021 0.580417
O O5 0.500000 0.318925 0.500000
O O6 0.565215 0.434786 0.617578
O O7 0.406712 0.406712 0.641823
O O8 0.525860 0.301689 0.724487
O O9 0.671773 0.328228 0.816091
#
# Coordination Sequence:
#
# PCOD9560450 Si02
#       4
#    16   8  16  16
#     4   9  20  40  60  79 106 156 195 239 279 351
#     4  10  22  41  62  83 114 156 190 237 296 358
#     4   8  15  32  55  79 114 155 189 220 266 339
#     4  10  21  37  58  90 120 147 190 243 291 342
#
# _framework density 18.586079000000002
#
# number of rings (size 3 to 8) (size 9 to 14) (size 15 to 20)
#    0.000    2.857    0.000    0.857    0.000   11.429 
#   25.714    4.286    0.000    0.000    0.000    0.000 
#    0.000    0.000    0.000    0.000    0.000    0.000 
#
# Total GULP energy -156076.404422 kJ/mol
# GULP energy per Si atom -5574.157301 kJ/mol
# Density = 1.854378 g / cm^3
# Si number density = 18.586079 Si / 1000 Ang^3
#
#
#
# Elastic Constant Matrix: (Units=GPa)
#
#
# Indices 1 2 3 4 5 6 
#
# 1 93.7174 42.6597 74.4670 0.0000 0.0000 0.0000
# 2 42.6597 93.7147 74.4672 0.0000 0.0000 0.0000
# 3 74.4670 74.4672 167.8349 0.0000 0.0000 0.0000
# 4 0.0000 0.0000 0.0000 29.6753 0.0000 0.0000
# 5 0.0000 0.0000 0.0000 0.0000 29.6757 0.0000
# 6 0.0000 0.0000 0.0000 0.0000 0.0000 13.8427
#
#
#
# Elastic Compliance Matrix: (Units=1/GPa)
#
#
# Indices 1 2 3 4 5 6 
#
# 1 0.016906 -0.002680 -0.006312 0.000000 0.000000 0.000000
# 2 -0.002680 0.016906 -0.006312 0.000000 0.000000 0.000000
# 3 -0.006312 -0.006312 0.011559 0.000000 0.000000 0.000000
# 4 0.000000 0.000000 0.000000 0.033698 0.000000 0.000000
# 5 0.000000 0.000000 0.000000 0.000000 0.033698 0.000000
# 6 0.000000 0.000000 0.000000 0.000000 0.000000 0.072240
#
#
# Mechanical properties :
#
#
# Convention : Reuss Voigt Hill
#
# Bulk Modulus (GPa) = 67.73513 82.05053 74.89283
# Shear Modulus (GPa) = 22.67200 25.55027 24.11114
#
# Velocity S-wave (km/s) = 3.49641 3.71172 3.60567
# Velocity P-wave (km/s) = 7.26794 7.91272 7.59717
#
# Compressibility (1/GPa) = 0.01476339
#
# Stress axis : x y z
#
# Youngs Moduli (GPa) = 59.15200 59.14922 86.51039
#
# Poissons Ratio (x) = 0.15853 0.54603
# Poissons Ratio (y) = 0.15854 0.54606
# Poissons Ratio (z) = 0.37335 0.37335
#
# Static dielectric constant tensor:
#      x y z
#    x 1.661690 0.000000 0.000000 
#    y 0.000000 1.661690 0.000000 
#    z 0.000000 0.000000 1.641000 
# 
# From -- ./inp_files/2725.got.cif
#   From: 2010.05.17/outbox.cif.g08.bks.cpg/sg121_2_cif.got.tgz:2725.got - 2010.05.20 11:32:06.
