data_PCOD9560347
_publ_section_title
;
Structure prediction by ZEFSAII (Michael W. Deem and Ramdas Pophale) SiO2 
 PCOD9560347
Probable space group: I -4 2 M
;
_chemical_formula_sum "Si O2"
_cell_formula_units_Z 88
_cell_length_a 11.437642
_cell_length_b 11.437642
_cell_length_c 29.022697
_cell_angle_alpha 90.000000
_cell_angle_beta 90.000000
_cell_angle_gamma 90.000000
_cell_volume 3796.739195
_symmetry_space_group_name_H-M "I -4 2 M"
_symmetry_group_IT_number 121
_symmetry_cell_setting 'tetragonal'
loop_
_space_group_symop_operation_xyz
x,y,z
y,-x,-z
-x,-y,z
-y,x,-z
x,-y,-z
-x,y,-z
-y,-x,z
y,x,z
1/2+x,1/2+y,1/2+z
1/2+y,1/2-x,1/2-z
1/2-x,1/2-y,1/2+z
1/2-y,1/2+x,1/2-z
1/2+x,1/2-y,1/2-z
1/2-x,1/2+y,1/2-z
1/2-y,1/2-x,1/2+z
1/2+y,1/2+x,1/2+z
loop_
_atom_site_type_symbol
_atom_site_label
_atom_site_fract_x
_atom_site_fract_y
_atom_site_fract_z
Si Si1 0.878791 0.698849 0.605353
Si Si2 0.965338 0.785220 0.161783
Si Si3 0.810049 0.632053 0.860080
Si Si4 0.638820 0.819654 0.001038
Si Si5 0.500000 0.313288 0.500000
Si Si6 0.187486 0.460396 0.757685
O O1 0.833655 0.833655 0.609213
O O2 0.809168 0.627598 0.643492
O O3 0.837313 0.657496 0.555262
O O4 0.015025 0.670959 0.611028
O O5 0.909286 0.909286 0.147036
O O6 0.969511 0.781993 0.217404
O O7 0.085767 0.726771 0.144437
O O8 0.698947 0.698947 0.879073
O O9 0.782754 0.585967 0.808150
O O10 0.692343 0.692343 0.990582
O O11 0.719924 0.913873 0.974672
O O12 0.500000 0.827951 0.000000
O O13 0.404750 0.404750 0.521302
O O14 0.126578 0.586522 0.760690
#
# Coordination Sequence:
#
# PCOD9560347 Si02
#       6
#    16  16  16  16   8  16
#     4  10  22  41  62  84 115 157 206 254 302 361
#     4  10  20  36  57  79 112 156 197 244 299 362
#     4  11  22  35  55  85 118 151 195 250 308 369
#     4  10  22  40  64  94 125 164 209 254 311 372
#     4   9  19  38  64  96 129 159 198 250 308 371
#     4   9  16  31  56  82 108 146 197 247 297 361
#
# _framework density 23.177783999999999
#
# number of rings (size 3 to 8) (size 9 to 14) (size 15 to 20)
#    0.000    2.091    1.818    1.364    0.000    4.545 
#    0.000    4.545    0.000    5.455    0.000    0.000 
#    0.000    0.000    0.000    0.000    0.000    0.000 
#
# Total GULP energy -245078.430858 kJ/mol
# GULP energy per Si atom -5569.964338 kJ/mol
# Density = 2.312503 g / cm^3
# Si number density = 23.177784 Si / 1000 Ang^3
#
#
#
# Elastic Constant Matrix: (Units=GPa)
#
#
# Indices 1 2 3 4 5 6 
#
# 1 73.3959 116.7294 7.8836 0.0000 0.0000 0.0000
# 2 116.7294 73.3959 7.8836 0.0000 0.0000 0.0000
# 3 7.8836 7.8836 87.5437 0.0000 0.0000 0.0000
# 4 0.0000 0.0000 0.0000 -3.8418 0.0000 0.0000
# 5 0.0000 0.0000 0.0000 0.0000 -3.8418 0.0000
# 6 0.0000 0.0000 0.0000 0.0000 0.0000 19.3592
#
#
#
# Elastic Compliance Matrix: (Units=1/GPa)
#
#
# Indices 1 2 3 4 5 6 
#
# 1 -0.008889 0.014188 -0.000477 0.000000 0.000000 0.000000
# 2 0.014188 -0.008889 -0.000477 0.000000 0.000000 0.000000
# 3 -0.000477 -0.000477 0.011509 0.000000 0.000000 0.000000
# 4 0.000000 0.000000 0.000000 -0.260294 0.000000 0.000000
# 5 0.000000 0.000000 0.000000 0.000000 -0.260294 0.000000
# 6 0.000000 0.000000 0.000000 0.000000 0.000000 0.051655
#
#
# Mechanical properties :
#
#
# Convention : Reuss Voigt Hill
#
# Bulk Modulus (GPa) = 49.50865 55.48095 52.49480
# Shear Modulus (GPa) = -10.10231 9.12438 -0.48896
#
# Velocity S-wave (km/s) = -2.08999 1.98626 -0.45980
# Velocity P-wave (km/s) = 3.94749 5.40827 4.73456
#
# Compressibility (1/GPa) = 0.02019849
#
# Stress axis : x y z
#
# Youngs Moduli (GPa) = -112.50107 -112.50107 86.88990
#
# Poissons Ratio (x) = 1.59617 0.04147
# Poissons Ratio (y) = 1.59617 0.04147
# Poissons Ratio (z) = -0.05369 -0.05369
#
# Static dielectric constant tensor:
#      x y z
#    x 1.875630 0.000000 0.000000 
#    y 0.000000 1.875630 0.000000 
#    z 0.000000 0.000000 1.873680 
# 
# From -- ./inp_files/8210.got.cif
#   From: 2010.05.17/outbox.cif.g08.bks.cpg/sg121_5_cif.got.tgz:8210.got - 2010.05.20 11:32:06.
