data_PCOD9560916
_publ_section_title
;
Structure prediction by ZEFSAII (Michael W. Deem and Ramdas Pophale) SiO2 
 PCOD9560916
Probable space group: I -4 2 D
;
_chemical_formula_sum "Si O2"
_cell_formula_units_Z 84
_cell_length_a 11.130554
_cell_length_b 11.130554
_cell_length_c 29.169304
_cell_angle_alpha 90.000000
_cell_angle_beta 90.000000
_cell_angle_gamma 90.000000
_cell_volume 3613.762681
_symmetry_space_group_name_H-M "I -4 2 D"
_symmetry_group_IT_number 122
_symmetry_cell_setting 'tetragonal'
loop_
_space_group_symop_operation_xyz
x,y,z
y,-x,-z
-x,-y,z
-y,x,-z
x,1/2-y,1/4-z
-x,1/2+y,1/4-z
-y,1/2-x,1/4+z
y,1/2+x,1/4+z
1/2+x,1/2+y,1/2+z
1/2+y,1/2-x,1/2-z
1/2-x,1/2-y,1/2+z
1/2-y,1/2+x,1/2-z
1/2+x,-y,3/4-z
1/2-x,y,3/4-z
1/2-y,-x,3/4+z
1/2+y,x,3/4+z
loop_
_atom_site_type_symbol
_atom_site_label
_atom_site_fract_x
_atom_site_fract_y
_atom_site_fract_z
Si Si1 0.685181 0.686593 0.523864
Si Si2 0.500000 0.500000 0.264884
Si Si3 0.250000 0.541598 0.875000
Si Si4 0.000000 0.000000 0.000000
Si Si5 0.457394 0.722801 0.849328
Si Si6 0.568890 0.851277 0.593063
Si Si7 0.630706 0.319683 0.196966
O O1 0.556443 0.618309 0.522790
O O2 0.769289 0.586856 0.546073
O O3 0.672776 0.785363 0.563667
O O4 0.718807 0.755061 0.477617
O O5 0.602503 0.520103 0.303769
O O6 0.547309 0.394263 0.232764
O O7 0.367947 0.624500 0.870004
O O8 0.233704 0.458638 0.830066
O O9 0.440986 0.852496 0.874428
O O10 0.592191 0.680072 0.842930
O O11 0.512039 0.750000 0.625000
#
# Coordination Sequence:
#
# PCOD9560916 Si02
#       7
#    16   8   8   4  16  16  16
#     4  10  21  38  64  98 125 167 212 260 332 410
#     4  10  20  39  64  90 125 179 216 260 336 395
#     4  12  22  42  64  88 124 180 222 278 318 384
#     4  12  20  34  68  92 132 156 200 264 340 402
#     4  11  20  42  66  87 133 173 210 275 334 380
#     4   9  20  37  61  91 129 165 212 263 328 399
#     4  11  23  41  66  94 125 175 224 267 333 396
#
# _framework density 23.244471999999998
#
# number of rings (size 3 to 8) (size 9 to 14) (size 15 to 20)
#    0.000    1.524    6.667    0.000    0.000    3.048 
#    3.429    0.000    0.000    0.000    0.000    0.000 
#    0.000    0.000    0.000    0.000    0.000    0.000 
#
# Total GULP energy -233963.614365 kJ/mol
# GULP energy per Si atom -5570.562247 kJ/mol
# Density = 2.319157 g / cm^3
# Si number density = 23.244472 Si / 1000 Ang^3
#
#
#
# Elastic Constant Matrix: (Units=GPa)
#
#
# Indices 1 2 3 4 5 6 
#
# 1 48.4524 16.8896 34.9230 0.0000 0.0000 0.0000
# 2 16.8896 48.4524 34.9230 0.0000 0.0000 0.0000
# 3 34.9230 34.9230 129.2569 0.0000 0.0000 0.0000
# 4 0.0000 0.0000 0.0000 42.0448 0.0000 0.0000
# 5 0.0000 0.0000 0.0000 0.0000 42.0448 0.0000
# 6 0.0000 0.0000 0.0000 0.0000 0.0000 32.2138
#
#
#
# Elastic Compliance Matrix: (Units=1/GPa)
#
#
# Indices 1 2 3 4 5 6 
#
# 1 0.026601 -0.005082 -0.005814 0.000000 0.000000 0.000000
# 2 -0.005082 0.026601 -0.005814 0.000000 0.000000 0.000000
# 3 -0.005814 -0.005814 0.010878 0.000000 0.000000 0.000000
# 4 0.000000 0.000000 0.000000 0.023784 0.000000 0.000000
# 5 0.000000 0.000000 0.000000 0.000000 0.023784 0.000000
# 6 0.000000 0.000000 0.000000 0.000000 0.000000 0.031043
#
#
# Mechanical properties :
#
#
# Convention : Reuss Voigt Hill
#
# Bulk Modulus (GPa) = 32.61593 44.40366 38.50979
# Shear Modulus (GPa) = 26.83399 32.55574 29.69486
#
# Velocity S-wave (km/s) = 3.40137 3.74649 3.57809
# Velocity P-wave (km/s) = 5.43028 6.15299 5.80290
#
# Compressibility (1/GPa) = 0.03065987
#
# Stress axis : x y z
#
# Youngs Moduli (GPa) = 37.59281 37.59281 91.92673
#
# Poissons Ratio (x) = 0.19104 0.53446
# Poissons Ratio (y) = 0.19104 0.53446
# Poissons Ratio (z) = 0.21857 0.21857
#
# Static dielectric constant tensor:
#      x y z
#    x 1.962790 0.000000 0.000000 
#    y 0.000000 1.962790 0.000000 
#    z 0.000000 0.000000 1.893420 
# 
# From -- ./inp_files/9537.got.cif
#   From: 2010.05.17/outbox.cif.g08.bks.cpg/sg122_5_cif.got.tgz:9537.got - 2010.05.20 11:37:33.
