data_PCOD9560675
_publ_section_title
;
Structure prediction by ZEFSAII (Michael W. Deem and Ramdas Pophale) SiO2 
 PCOD9560675
Probable space group: I -4 2 M
;
_chemical_formula_sum "Si O2"
_cell_formula_units_Z 56
_cell_length_a 15.000000
_cell_length_b 15.000000
_cell_length_c 27.000000
_cell_angle_alpha 90.000000
_cell_angle_beta 90.000000
_cell_angle_gamma 90.000000
_cell_volume 6075.000000
_symmetry_space_group_name_H-M "I -4 2 M"
_symmetry_group_IT_number 121
_symmetry_cell_setting 'tetragonal'
loop_
_space_group_symop_operation_xyz
x,y,z
y,-x,-z
-x,-y,z
-y,x,-z
x,-y,-z
-x,y,-z
-y,-x,z
y,x,z
1/2+x,1/2+y,1/2+z
1/2+y,1/2-x,1/2-z
1/2-x,1/2-y,1/2+z
1/2-y,1/2+x,1/2-z
1/2+x,1/2-y,1/2-z
1/2-x,1/2+y,1/2-z
1/2-y,1/2-x,1/2+z
1/2+y,1/2+x,1/2+z
loop_
_atom_site_type_symbol
_atom_site_label
_atom_site_fract_x
_atom_site_fract_y
_atom_site_fract_z
Si Si1 0.323112 0.531492 0.860539
Si Si2 0.171674 0.030322 0.757536
Si Si3 0.180560 0.672316 0.708731
Si Si4 0.236076 0.621224 0.305781
Si Si5 0.393663 0.898368 0.003631
Si Si6 0.717819 0.135552 0.602347
Si Si7 0.181552 0.325890 0.098627
O O1 0.418644 0.581357 0.869864
O O2 0.318014 0.512096 0.801443
O O3 0.291053 0.443876 0.890213
O O4 0.249509 0.604384 0.876093
O O5 0.077556 0.077556 0.763336
O O6 0.246188 0.099841 0.776520
O O7 0.187154 0.947027 0.792300
O O8 0.232079 0.767922 0.706258
O O9 0.117008 0.675354 0.756679
O O10 0.138224 0.663216 0.654465
O O11 0.279627 0.720374 0.308102
O O12 0.190787 0.607839 0.358707
O O13 0.373710 0.845320 0.054517
O O14 0.500000 0.901528 0.000000
O O15 0.360110 0.850071 0.954097
O O16 0.359249 0.000000 0.000000
O O17 0.773311 0.226690 0.597271
O O18 0.234546 0.234546 0.089544
#
# Coordination Sequence:
#
# PCOD9560675 Si02
#       7
#    16  16  16  16  16  16  16
#     4  10  19  33  57  86 117 153 191 230 277 346
#     4  10  19  32  52  81 117 153 187 231 285 344
#     4   9  18  32  50  78 109 142 182 222 272 335
#     4  10  19  32  54  81 108 145 187 230 279 343
#     4  11  24  40  58  82 108 141 189 243 294 338
#     4  11  22  38  58  82 117 154 192 238 291 350
#     4  10  20  38  59  78 107 147 191 234 282 341
#
# _framework density 9.2181069999999998
#
# number of rings (size 3 to 8) (size 9 to 14) (size 15 to 20)
#    0.000    1.857    4.286    0.429    2.000    0.571 
#    0.000    1.429    0.000    2.143    0.000    0.000 
#    0.000    2.571    0.000    0.000    0.000    0.000 
#
# Total GULP energy -311867.940640 kJ/mol
# GULP energy per Si atom -5569.070369 kJ/mol
# Density = 0.919713 g / cm^3
# Si number density = 9.218107 Si / 1000 Ang^3
#
#
#
# Elastic Constant Matrix: (Units=GPa)
#
#
# Indices 1 2 3 4 5 6 
#
# 1 59.2884 18.2262 43.7399 0.0000 0.0000 0.0000
# 2 18.2262 59.2867 43.7397 0.0000 0.0000 0.0000
# 3 43.7399 43.7397 166.7742 0.0000 0.0000 0.0000
# 4 0.0000 0.0000 0.0000 23.6156 0.0000 0.0000
# 5 0.0000 0.0000 0.0000 0.0000 23.6160 0.0000
# 6 0.0000 0.0000 0.0000 0.0000 0.0000 22.6477
#
#
#
# Elastic Compliance Matrix: (Units=1/GPa)
#
#
# Indices 1 2 3 4 5 6 
#
# 1 0.021339 -0.003014 -0.004806 0.000000 0.000000 0.000000
# 2 -0.003014 0.021340 -0.004806 0.000000 0.000000 0.000000
# 3 -0.004806 -0.004806 0.008517 0.000000 0.000000 0.000000
# 4 0.000000 0.000000 0.000000 0.042345 0.000000 0.000000
# 5 0.000000 0.000000 0.000000 0.000000 0.042344 0.000000
# 6 0.000000 0.000000 0.000000 0.000000 0.000000 0.044155
#
#
# Mechanical properties :
#
#
# Convention : Reuss Voigt Hill
#
# Bulk Modulus (GPa) = 38.54655 55.19566 46.87111
# Shear Modulus (GPa) = 23.37100 25.95208 24.66154
#
# Velocity S-wave (km/s) = 3.56430 3.75596 3.66138
# Velocity P-wave (km/s) = 6.15568 6.98666 6.58429
#
# Compressibility (1/GPa) = 0.02594266
#
# Stress axis : x y z
#
# Youngs Moduli (GPa) = 46.86253 46.86097 117.41076
#
# Poissons Ratio (x) = 0.14126 0.56428
# Poissons Ratio (y) = 0.14126 0.56429
# Poissons Ratio (z) = 0.22522 0.22522
#
# Static dielectric constant tensor:
#      x y z
#    x 1.684890 0.000000 0.000000 
#    y 0.000000 1.684900 0.000000 
#    z 0.000000 0.000000 1.641650 
# 
# From -- ./inp_files/7171.got.cif
#   From: 2010.05.17/outbox.ucp.g08.bks.cvg/sg121_4_cif.got.tgz:7171.got - 2010.06.11 11:35:03.
