data_PCOD9560914
_publ_section_title
;
Structure prediction by ZEFSAII (Michael W. Deem and Ramdas Pophale) SiO2 
 PCOD9560914
Probable space group: I -4 2 D
;
_chemical_formula_sum "Si O2"
_cell_formula_units_Z 68
_cell_length_a 19.147768
_cell_length_b 19.147768
_cell_length_c 10.102376
_cell_angle_alpha 90.000000
_cell_angle_beta 90.000000
_cell_angle_gamma 90.000000
_cell_volume 3703.905025
_symmetry_space_group_name_H-M "I -4 2 D"
_symmetry_group_IT_number 122
_symmetry_cell_setting 'tetragonal'
loop_
_space_group_symop_operation_xyz
x,y,z
y,-x,-z
-x,-y,z
-y,x,-z
x,1/2-y,1/4-z
-x,1/2+y,1/4-z
-y,1/2-x,1/4+z
y,1/2+x,1/4+z
1/2+x,1/2+y,1/2+z
1/2+y,1/2-x,1/2-z
1/2-x,1/2-y,1/2+z
1/2-y,1/2+x,1/2-z
1/2+x,-y,3/4-z
1/2-x,y,3/4-z
1/2-y,-x,3/4+z
1/2+y,x,3/4+z
loop_
_atom_site_type_symbol
_atom_site_label
_atom_site_fract_x
_atom_site_fract_y
_atom_site_fract_z
Si Si1 0.536800 0.785912 0.267004
Si Si2 0.308535 0.566425 0.477662
Si Si3 0.910896 0.167397 0.115392
Si Si4 0.500000 0.000000 0.250000
Si Si5 0.407707 0.882216 0.341477
O O1 0.533520 0.750000 0.125000
O O2 0.548432 0.732467 0.386599
O O3 0.463499 0.825493 0.291623
O O4 0.600079 0.842220 0.252605
O O5 0.250000 0.592304 0.375000
O O6 0.366698 0.624093 0.508654
O O7 0.338244 0.493721 0.417119
O O8 0.895925 0.250000 0.125000
O O9 0.890706 0.137088 0.258717
O O10 0.550574 0.044961 0.340668
#
# Coordination Sequence:
#
# PCOD9560914 Si02
#       5
#    16  16  16   4  16
#     4  11  21  40  66  92 127 167 211 264 321 384
#     4  11  24  43  66  96 132 170 221 269 326 385
#     4  11  23  44  65  91 135 167 214 275 321 384
#     4   8  20  32  64  98 120 152 220 262 320 376
#     4  10  20  39  63  93 128 163 209 270 317 377
#
# _framework density 18.359003000000001
#
# number of rings (size 3 to 8) (size 9 to 14) (size 15 to 20)
#    0.000    1.412    7.059    0.000    0.000    4.235 
#    4.235    0.000    0.000    0.000    0.000    0.000 
#    0.000    0.000    0.000    0.000    0.000    0.000 
#
# Total GULP energy -189571.476821 kJ/mol
# GULP energy per Si atom -5575.631671 kJ/mol
# Density = 1.831722 g / cm^3
# Si number density = 18.359003 Si / 1000 Ang^3
#
#
#
# Elastic Constant Matrix: (Units=GPa)
#
#
# Indices 1 2 3 4 5 6 
#
# 1 45.5699 29.3859 -6.9408 0.0000 0.0000 0.0000
# 2 29.3859 45.5699 -6.9408 0.0000 0.0000 0.0000
# 3 -6.9408 -6.9408 51.5749 0.0000 0.0000 0.0000
# 4 0.0000 0.0000 0.0000 36.5636 0.0000 0.0000
# 5 0.0000 0.0000 0.0000 0.0000 36.5636 0.0000
# 6 0.0000 0.0000 0.0000 0.0000 0.0000 43.6222
#
#
#
# Elastic Compliance Matrix: (Units=1/GPa)
#
#
# Indices 1 2 3 4 5 6 
#
# 1 0.037736 -0.024054 0.001841 0.000000 0.000000 0.000000
# 2 -0.024054 0.037736 0.001841 0.000000 0.000000 0.000000
# 3 0.001841 0.001841 0.019885 0.000000 0.000000 0.000000
# 4 0.000000 0.000000 0.000000 0.027350 0.000000 0.000000
# 5 0.000000 0.000000 0.000000 0.000000 0.027350 0.000000
# 6 0.000000 0.000000 0.000000 0.000000 0.000000 0.022924
#
#
# Mechanical properties :
#
#
# Convention : Reuss Voigt Hill
#
# Bulk Modulus (GPa) = 18.31015 19.30259 18.80637
# Shear Modulus (GPa) = 21.55848 31.83057 26.69453
#
# Velocity S-wave (km/s) = 3.43048 4.16839 3.81731
# Velocity P-wave (km/s) = 5.06814 5.80552 5.44932
#
# Compressibility (1/GPa) = 0.05461452
#
# Stress axis : x y z
#
# Youngs Moduli (GPa) = 26.49991 26.49991 50.28949
#
# Poissons Ratio (x) = 0.63742 -0.09260
# Poissons Ratio (y) = 0.63742 -0.09260
# Poissons Ratio (z) = -0.04879 -0.04879
#
# Static dielectric constant tensor:
#      x y z
#    x 1.647770 0.000000 0.000000 
#    y 0.000000 1.647770 0.000000 
#    z 0.000000 0.000000 1.527270 
# 
# From -- ./inp_files/4174.got.cif
#   From: 2010.05.17/outbox.cif.g08.bks.cpg/sg122_3_cif.got.tgz:4174.got - 2010.05.20 11:37:33.
