data_PCOD9560932
_publ_section_title
;
Structure prediction by ZEFSAII (Michael W. Deem and Ramdas Pophale) SiO2 
 PCOD9560932
Probable space group: I -4 2 D
;
_chemical_formula_sum "Si O2"
_cell_formula_units_Z 60
_cell_length_a 14.910319
_cell_length_b 14.910319
_cell_length_c 12.476209
_cell_angle_alpha 90.000000
_cell_angle_beta 90.000000
_cell_angle_gamma 90.000000
_cell_volume 2773.681000
_symmetry_space_group_name_H-M "I -4 2 D"
_symmetry_group_IT_number 122
_symmetry_cell_setting 'tetragonal'
loop_
_space_group_symop_operation_xyz
x,y,z
y,-x,-z
-x,-y,z
-y,x,-z
x,1/2-y,1/4-z
-x,1/2+y,1/4-z
-y,1/2-x,1/4+z
y,1/2+x,1/4+z
1/2+x,1/2+y,1/2+z
1/2+y,1/2-x,1/2-z
1/2-x,1/2-y,1/2+z
1/2-y,1/2+x,1/2-z
1/2+x,-y,3/4-z
1/2-x,y,3/4-z
1/2-y,-x,3/4+z
1/2+y,x,3/4+z
loop_
_atom_site_type_symbol
_atom_site_label
_atom_site_fract_x
_atom_site_fract_y
_atom_site_fract_z
Si Si1 0.000000 0.000000 0.500000
Si Si2 0.000000 0.500000 0.385508
Si Si3 0.289857 0.335704 0.200008
Si Si4 0.137337 0.974947 0.675454
Si Si5 0.169296 0.611033 0.178430
O O1 0.949742 0.929687 0.421234
O O2 0.080308 0.529070 0.465500
O O3 0.038869 0.410872 0.327773
O O4 0.298893 0.250000 0.125000
O O5 0.333456 0.423358 0.148912
O O6 0.341915 0.325670 0.312232
O O7 0.186733 0.350432 0.233427
O O8 0.230889 0.925793 0.694784
#
# Coordination Sequence:
#
# PCOD9560932 Si02
#       5
#     4   8  16  16  16
#     4  10  20  40  64  94 124 162 208 266 312 366
#     4   9  22  41  59  93 124 160 216 251 307 378
#     4  10  22  40  61  92 123 159 211 254 309 375
#     4  10  21  38  63  90 124 162 207 258 314 365
#     4  10  22  40  63  90 125 165 205 257 313 368
#
# _framework density 21.631903000000001
#
# number of rings (size 3 to 8) (size 9 to 14) (size 15 to 20)
#    0.000    2.133    0.000    1.600    3.733    2.133 
#    4.800    0.000    0.000    0.000    0.000    0.000 
#    0.000    0.000    0.000    0.000    0.000    0.000 
#
# Total GULP energy -167619.466694 kJ/mol
# GULP energy per Si atom -5587.315556 kJ/mol
# Density = 2.158267 g / cm^3
# Si number density = 21.631903 Si / 1000 Ang^3
#
#
#
# Elastic Constant Matrix: (Units=GPa)
#
#
# Indices 1 2 3 4 5 6 
#
# 1 121.5701 47.4857 24.0528 0.0000 0.0000 0.0000
# 2 47.4857 121.5701 24.0528 0.0000 0.0000 0.0000
# 3 24.0528 24.0528 47.5511 0.0000 0.0000 0.0000
# 4 0.0000 0.0000 0.0000 20.0728 0.0000 0.0000
# 5 0.0000 0.0000 0.0000 0.0000 20.0728 0.0000
# 6 0.0000 0.0000 0.0000 0.0000 0.0000 43.7958
#
#
#
# Elastic Compliance Matrix: (Units=1/GPa)
#
#
# Indices 1 2 3 4 5 6 
#
# 1 0.010204 -0.003294 -0.003495 0.000000 0.000000 0.000000
# 2 -0.003294 0.010204 -0.003495 0.000000 0.000000 0.000000
# 3 -0.003495 -0.003495 0.024566 0.000000 0.000000 0.000000
# 4 0.000000 0.000000 0.000000 0.049819 0.000000 0.000000
# 5 0.000000 0.000000 0.000000 0.000000 0.049819 0.000000
# 6 0.000000 0.000000 0.000000 0.000000 0.000000 0.022833
#
#
# Mechanical properties :
#
#
# Convention : Reuss Voigt Hill
#
# Bulk Modulus (GPa) = 40.97560 53.54157 47.25858
# Shear Modulus (GPa) = 25.49094 29.79496 27.64295
#
# Velocity S-wave (km/s) = 3.43650 3.71531 3.57862
# Velocity P-wave (km/s) = 5.89316 6.57340 6.24256
#
# Compressibility (1/GPa) = 0.02440477
#
# Stress axis : x y z
#
# Youngs Moduli (GPa) = 98.00132 98.00132 40.70679
#
# Poissons Ratio (x) = 0.32283 0.14228
# Poissons Ratio (y) = 0.32283 0.14228
# Poissons Ratio (z) = 0.34253 0.34253
#
# Static dielectric constant tensor:
#      x y z
#    x 1.790430 0.000000 0.000000 
#    y 0.000000 1.790430 0.000000 
#    z 0.000000 0.000000 1.779120 
# 
# From -- ./inp_files/5173.got.cif
#   From: 2010.05.17/outbox.cif.g08.bks.cpg/sg122_3_cif.got.tgz:5173.got - 2010.05.20 11:37:33.
