data_PCOD9560369
_publ_section_title
;
Structure prediction by ZEFSAII (Michael W. Deem and Ramdas Pophale) SiO2 
 PCOD9560369
Probable space group: I -4 2 M
;
_chemical_formula_sum "Si O2"
_cell_formula_units_Z 96
_cell_length_a 15.281532
_cell_length_b 15.281532
_cell_length_c 22.380397
_cell_angle_alpha 90.000000
_cell_angle_beta 90.000000
_cell_angle_gamma 90.000000
_cell_volume 5226.387139
_symmetry_space_group_name_H-M "I -4 2 M"
_symmetry_group_IT_number 121
_symmetry_cell_setting 'tetragonal'
loop_
_space_group_symop_operation_xyz
x,y,z
y,-x,-z
-x,-y,z
-y,x,-z
x,-y,-z
-x,y,-z
-y,-x,z
y,x,z
1/2+x,1/2+y,1/2+z
1/2+y,1/2-x,1/2-z
1/2-x,1/2-y,1/2+z
1/2-y,1/2+x,1/2-z
1/2+x,1/2-y,1/2-z
1/2-x,1/2+y,1/2-z
1/2-y,1/2-x,1/2+z
1/2+y,1/2+x,1/2+z
loop_
_atom_site_type_symbol
_atom_site_label
_atom_site_fract_x
_atom_site_fract_y
_atom_site_fract_z
Si Si1 0.467757 0.328496 0.931053
Si Si2 0.190075 0.673096 0.036972
Si Si3 0.133459 0.467100 0.268038
Si Si4 0.278434 0.585567 0.818094
Si Si5 0.164314 0.700439 0.903003
Si Si6 0.520887 0.893919 0.401867
O O1 0.419853 0.419853 0.920740
O O2 0.395754 0.251834 0.930197
O O3 0.531366 0.309761 0.875944
O O4 0.500000 0.329273 0.000000
O O5 0.230137 0.769864 0.051287
O O6 0.091830 0.643885 0.052057
O O7 0.201247 0.663495 0.965729
O O8 0.093392 0.564110 0.266539
O O9 0.225273 0.463308 0.233912
O O10 0.125083 0.438450 0.336556
O O11 0.360102 0.639899 0.793305
O O12 0.210893 0.653708 0.847940
O O13 0.198299 0.801702 0.901830
O O14 0.064898 0.667475 0.903940
O O15 0.500000 0.000000 0.408386
#
# Coordination Sequence:
#
# PCOD9560369 Si02
#       6
#    16  16  16  16  16  16
#     4  11  21  35  56  83 117 156 190 226 281 347
#     4  10  22  36  55  87 125 149 180 240 295 343
#     4  11  20  37  56  80 110 144 187 243 286 325
#     4  11  22  37  56  79 113 152 191 229 278 346
#     4  10  20  37  56  83 119 150 185 236 293 349
#     4  12  22  35  62  90 113 148 200 246 289 345
#
# _framework density 18.36833
#
# number of rings (size 3 to 8) (size 9 to 14) (size 15 to 20)
#    0.000    1.167    5.000    3.000    0.000    2.500 
#    0.000    1.667    0.000    0.500    0.000    2.333 
#    0.000    0.000    0.000    0.000    0.000    0.000 
#
# Total GULP energy -267220.280806 kJ/mol
# GULP energy per Si atom -5567.089183 kJ/mol
# Density = 1.832652 g / cm^3
# Si number density = 18.368330 Si / 1000 Ang^3
#
#
#
# Elastic Constant Matrix: (Units=GPa)
#
#
# Indices 1 2 3 4 5 6 
#
# 1 81.0069 52.0914 7.4497 0.0000 0.0000 0.0000
# 2 52.0914 81.0070 7.4498 0.0000 0.0000 0.0000
# 3 7.4497 7.4498 49.6690 0.0000 0.0000 0.0000
# 4 0.0000 0.0000 0.0000 12.7245 0.0000 0.0000
# 5 0.0000 0.0000 0.0000 0.0000 12.7256 0.0000
# 6 0.0000 0.0000 0.0000 0.0000 0.0000 22.1171
#
#
#
# Elastic Compliance Matrix: (Units=1/GPa)
#
#
# Indices 1 2 3 4 5 6 
#
# 1 0.021113 -0.013471 -0.001146 0.000000 0.000000 0.000000
# 2 -0.013471 0.021112 -0.001146 0.000000 0.000000 0.000000
# 3 -0.001146 -0.001146 0.020477 0.000000 0.000000 0.000000
# 4 0.000000 0.000000 0.000000 0.078588 0.000000 0.000000
# 5 0.000000 0.000000 0.000000 0.000000 0.078582 0.000000
# 6 0.000000 0.000000 0.000000 0.000000 0.000000 0.045214
#
#
# Mechanical properties :
#
#
# Convention : Reuss Voigt Hill
#
# Bulk Modulus (GPa) = 32.07631 38.40716 35.24173
# Shear Modulus (GPa) = 16.28642 19.15959 17.72301
#
# Velocity S-wave (km/s) = 2.98091 3.23317 3.10960
# Velocity P-wave (km/s) = 5.41743 5.90701 5.66751
#
# Compressibility (1/GPa) = 0.03117566
#
# Stress axis : x y z
#
# Youngs Moduli (GPa) = 47.36526 47.36531 48.83502
#
# Poissons Ratio (x) = 0.63806 0.05597
# Poissons Ratio (y) = 0.63806 0.05597
# Poissons Ratio (z) = 0.05428 0.05429
#
# Static dielectric constant tensor:
#      x y z
#    x 1.667390 0.000000 0.000000 
#    y 0.000000 1.667390 0.000000 
#    z 0.000000 0.000000 1.658580 
# 
# From -- ./inp_files/6415.got.cif
#   From: 2010.05.17/outbox.cif.g08.bks.cpg/sg121_4_cif.got.tgz:6415.got - 2010.05.20 11:32:06.
