data_PCOD9560674
_publ_section_title
;
Structure prediction by ZEFSAII (Michael W. Deem and Ramdas Pophale) SiO2 
 PCOD9560674
Probable space group: I -4 2 M
;
_chemical_formula_sum "Si O2"
_cell_formula_units_Z 56
_cell_length_a 18.000000
_cell_length_b 18.000000
_cell_length_c 24.000000
_cell_angle_alpha 90.000000
_cell_angle_beta 90.000000
_cell_angle_gamma 90.000000
_cell_volume 7776.000000
_symmetry_space_group_name_H-M "I -4 2 M"
_symmetry_group_IT_number 121
_symmetry_cell_setting 'tetragonal'
loop_
_space_group_symop_operation_xyz
x,y,z
y,-x,-z
-x,-y,z
-y,x,-z
x,-y,-z
-x,y,-z
-y,-x,z
y,x,z
1/2+x,1/2+y,1/2+z
1/2+y,1/2-x,1/2-z
1/2-x,1/2-y,1/2+z
1/2-y,1/2+x,1/2-z
1/2+x,1/2-y,1/2-z
1/2-x,1/2+y,1/2-z
1/2-y,1/2-x,1/2+z
1/2+y,1/2+x,1/2+z
loop_
_atom_site_type_symbol
_atom_site_label
_atom_site_fract_x
_atom_site_fract_y
_atom_site_fract_z
Si Si1 0.394428 0.727248 0.387493
Si Si2 0.414623 0.024405 0.611014
Si Si3 0.356674 0.086815 0.019489
Si Si4 0.649456 0.470754 0.563530
Si Si5 0.438626 0.847849 0.300897
Si Si6 0.114149 0.619639 0.178904
Si Si7 0.776300 0.345626 0.581818
O O1 0.316365 0.683636 0.388284
O O2 0.402890 0.787558 0.437609
O O3 0.459158 0.667416 0.398237
O O4 0.411638 0.773260 0.331630
O O5 0.393203 0.069156 0.554844
O O6 0.409030 0.083904 0.661251
O O7 0.500000 0.000000 0.602327
O O8 0.379588 0.949608 0.635771
O O9 0.337645 0.136729 0.965764
O O10 0.360613 0.000000 0.000000
O O11 0.649541 0.500000 0.500000
O O12 0.573554 0.426447 0.574112
O O13 0.716201 0.411850 0.572805
O O14 0.407911 0.853160 0.238059
O O15 0.528010 0.858835 0.307123
O O16 0.148105 0.687534 0.143227
O O17 0.730683 0.269318 0.574095
#
# Coordination Sequence:
#
# PCOD9560674 Si02
#       7
#    16  16  16  16  16  16  16
#     4  11  20  32  48  67  94 128 163 197 233 277
#     4   9  19  27  47  73  93 121 155 198 237 276
#     4  11  18  32  45  69 100 126 158 193 236 280
#     4  11  20  31  46  68  94 126 164 197 227 266
#     4  10  19  32  49  72  92 120 154 203 240 278
#     4  11  19  34  51  70  95 120 163 198 242 283
#     4  11  21  32  48  67  97 132 157 194 241 284
#
# _framework density 7.2016460000000002
#
# number of rings (size 3 to 8) (size 9 to 14) (size 15 to 20)
#    0.000    1.429    5.714    2.571    0.000    3.571 
#    0.000    0.000    0.000    0.000    0.000    0.000 
#    0.000    0.000    0.000    0.000    0.000   18.000 
#
# Total GULP energy -312141.190417 kJ/mol
# GULP energy per Si atom -5573.949829 kJ/mol
# Density = 0.718525 g / cm^3
# Si number density = 7.201646 Si / 1000 Ang^3
#
#
#
# Elastic Constant Matrix: (Units=GPa)
#
#
# Indices 1 2 3 4 5 6 
#
# 1 57.8574 29.4751 39.8721 0.0000 0.0000 0.0000
# 2 29.4751 57.8564 39.8720 0.0000 0.0000 0.0000
# 3 39.8721 39.8720 110.2258 0.0000 0.0000 0.0000
# 4 0.0000 0.0000 0.0000 20.1145 0.0000 0.0000
# 5 0.0000 0.0000 0.0000 0.0000 20.1153 0.0000
# 6 0.0000 0.0000 0.0000 0.0000 0.0000 15.7942
#
#
#
# Elastic Compliance Matrix: (Units=1/GPa)
#
#
# Indices 1 2 3 4 5 6 
#
# 1 0.026166 -0.009068 -0.006185 0.000000 0.000000 0.000000
# 2 -0.009068 0.026166 -0.006185 0.000000 0.000000 0.000000
# 3 -0.006185 -0.006185 0.013547 0.000000 0.000000 0.000000
# 4 0.000000 0.000000 0.000000 0.049715 0.000000 0.000000
# 5 0.000000 0.000000 0.000000 0.000000 0.049713 0.000000
# 6 0.000000 0.000000 0.000000 0.000000 0.000000 0.063314
#
#
# Mechanical properties :
#
#
# Convention : Reuss Voigt Hill
#
# Bulk Modulus (GPa) = 43.47190 49.37535 46.42362
# Shear Modulus (GPa) = 17.91056 18.98617 18.44837
#
# Velocity S-wave (km/s) = 3.53016 3.63462 3.58277
# Velocity P-wave (km/s) = 6.84569 7.20895 7.02967
#
# Compressibility (1/GPa) = 0.02300337
#
# Stress axis : x y z
#
# Youngs Moduli (GPa) = 38.21799 38.21721 73.81813
#
# Poissons Ratio (x) = 0.34655 0.45655
# Poissons Ratio (y) = 0.34656 0.45656
# Poissons Ratio (z) = 0.23637 0.23637
#
# Static dielectric constant tensor:
#      x y z
#    x 1.482660 0.000000 0.000000 
#    y 0.000000 1.482660 0.000000 
#    z 0.000000 0.000000 1.486040 
# 
# From -- ./inp_files/7292.got.cif
#   From: 2010.05.17/outbox.ucp.g08.bks.cvg/sg121_4_cif.got.tgz:7292.got - 2010.06.11 11:35:03.
