data_PCOD9560870
_publ_section_title
;
Structure prediction by ZEFSAII (Michael W. Deem and Ramdas Pophale) SiO2 
 PCOD9560870
Probable space group: I -4 2 D
;
_chemical_formula_sum "Si O2"
_cell_formula_units_Z 104
_cell_length_a 17.370937
_cell_length_b 17.370937
_cell_length_c 16.439541
_cell_angle_alpha 90.000000
_cell_angle_beta 90.000000
_cell_angle_gamma 90.000000
_cell_volume 4960.622492
_symmetry_space_group_name_H-M "I -4 2 D"
_symmetry_group_IT_number 122
_symmetry_cell_setting 'tetragonal'
loop_
_space_group_symop_operation_xyz
x,y,z
y,-x,-z
-x,-y,z
-y,x,-z
x,1/2-y,1/4-z
-x,1/2+y,1/4-z
-y,1/2-x,1/4+z
y,1/2+x,1/4+z
1/2+x,1/2+y,1/2+z
1/2+y,1/2-x,1/2-z
1/2-x,1/2-y,1/2+z
1/2-y,1/2+x,1/2-z
1/2+x,-y,3/4-z
1/2-x,y,3/4-z
1/2-y,-x,3/4+z
1/2+y,x,3/4+z
loop_
_atom_site_type_symbol
_atom_site_label
_atom_site_fract_x
_atom_site_fract_y
_atom_site_fract_z
Si Si1 0.609781 0.238330 0.367514
Si Si2 0.750000 0.120504 0.375000
Si Si3 0.567895 0.250000 0.625000
Si Si4 0.175976 0.187136 0.997187
Si Si5 0.398936 0.398284 0.881017
Si Si6 0.002549 0.310063 0.737946
Si Si7 0.699694 0.030608 0.011811
Si Si8 0.750000 0.706896 0.875000
O O1 0.672821 0.170899 0.371925
O O2 0.656003 0.308030 0.411655
O O3 0.569661 0.234748 0.278792
O O4 0.536151 0.224234 0.425144
O O5 0.747579 0.066208 0.295708
O O6 0.618050 0.305796 0.566447
O O7 0.512777 0.196212 0.572459
O O8 0.096385 0.233947 0.990362
O O9 0.239670 0.245713 0.959379
O O10 0.363273 0.477102 0.912094
O O11 0.435161 0.380948 0.793574
O O12 0.326558 0.341376 0.883570
O O13 0.460176 0.367594 0.946775
#
# Coordination Sequence:
#
# PCOD9560870 Si02
#       8
#    16   8   8  16  16  16  16   8
#     4  10  22  39  63  95 127 171 222 264 328 397
#     4  12  23  41  61  93 132 178 216 268 321 403
#     4   9  18  37  61  92 123 162 212 266 339 383
#     4   9  18  35  63  90 120 161 210 274 326 371
#     4  10  20  37  57  86 126 165 211 262 321 398
#     4  11  22  39  59  88 131 176 217 266 329 395
#     4   9  20  38  61  97 123 165 214 273 330 392
#     4   9  17  34  58  87 119 154 206 276 312 376
#
# _framework density 20.965112999999999
#
# number of rings (size 3 to 8) (size 9 to 14) (size 15 to 20)
#    0.000    2.154    1.538    1.385    0.000    4.615 
#    5.538    0.000    0.000    7.385   20.000    0.000 
#    0.000    0.000    0.000    0.000    0.000    0.000 
#
# Total GULP energy -289762.722586 kJ/mol
# GULP energy per Si atom -5572.360050 kJ/mol
# Density = 2.091740 g / cm^3
# Si number density = 20.965113 Si / 1000 Ang^3
#
#
#
# Elastic Constant Matrix: (Units=GPa)
#
#
# Indices 1 2 3 4 5 6 
#
# 1 87.0525 32.5151 27.2443 0.0000 0.0000 0.0000
# 2 32.5151 87.0525 27.2443 0.0000 0.0000 0.0000
# 3 27.2443 27.2443 63.5840 0.0000 0.0000 0.0000
# 4 0.0000 0.0000 0.0000 63.9301 0.0000 0.0000
# 5 0.0000 0.0000 0.0000 0.0000 63.9301 0.0000
# 6 0.0000 0.0000 0.0000 0.0000 0.0000 9.3393
#
#
#
# Elastic Compliance Matrix: (Units=1/GPa)
#
#
# Indices 1 2 3 4 5 6 
#
# 1 0.014364 -0.003972 -0.004453 0.000000 0.000000 0.000000
# 2 -0.003972 0.014364 -0.004453 0.000000 0.000000 0.000000
# 3 -0.004453 -0.004453 0.019543 0.000000 0.000000 0.000000
# 4 0.000000 0.000000 0.000000 0.015642 0.000000 0.000000
# 5 0.000000 0.000000 0.000000 0.000000 0.015642 0.000000
# 6 0.000000 0.000000 0.000000 0.000000 0.000000 0.107075
#
#
# Mechanical properties :
#
#
# Convention : Reuss Voigt Hill
#
# Bulk Modulus (GPa) = 44.41168 45.74404 45.07786
# Shear Modulus (GPa) = 22.73841 37.48559 30.11200
#
# Velocity S-wave (km/s) = 3.29687 4.23306 3.79395
# Velocity P-wave (km/s) = 5.97680 6.76448 6.38280
#
# Compressibility (1/GPa) = 0.02251660
#
# Stress axis : x y z
#
# Youngs Moduli (GPa) = 69.61653 69.61653 51.16841
#
# Poissons Ratio (x) = 0.27649 0.22786
# Poissons Ratio (y) = 0.27649 0.22786
# Poissons Ratio (z) = 0.31001 0.31001
#
# Static dielectric constant tensor:
#      x y z
#    x 1.555460 0.000000 0.000000 
#    y 0.000000 1.555460 0.000000 
#    z 0.000000 0.000000 1.867410 
# 
# From -- ./inp_files/6421.got.cif
#   From: 2010.05.17/outbox.cif.g08.bks.cpg/sg122_4_cif.got.tgz:6421.got - 2010.05.20 11:37:33.
