data_PCOD9560975
_publ_section_title
;
Structure prediction by ZEFSAII (Michael W. Deem and Ramdas Pophale) SiO2 
 PCOD9560975
Probable space group: I -4 2 D
;
_chemical_formula_sum "Si O2"
_cell_formula_units_Z 112
_cell_length_a 29.507730
_cell_length_b 29.507730
_cell_length_c 5.562524
_cell_angle_alpha 90.000000
_cell_angle_beta 90.000000
_cell_angle_gamma 90.000000
_cell_volume 4843.323744
_symmetry_space_group_name_H-M "I -4 2 D"
_symmetry_group_IT_number 122
_symmetry_cell_setting 'tetragonal'
loop_
_space_group_symop_operation_xyz
x,y,z
y,-x,-z
-x,-y,z
-y,x,-z
x,1/2-y,1/4-z
-x,1/2+y,1/4-z
-y,1/2-x,1/4+z
y,1/2+x,1/4+z
1/2+x,1/2+y,1/2+z
1/2+y,1/2-x,1/2-z
1/2-x,1/2-y,1/2+z
1/2-y,1/2+x,1/2-z
1/2+x,-y,3/4-z
1/2-x,y,3/4-z
1/2-y,-x,3/4+z
1/2+y,x,3/4+z
loop_
_atom_site_type_symbol
_atom_site_label
_atom_site_fract_x
_atom_site_fract_y
_atom_site_fract_z
Si Si1 0.908418 0.156337 0.553044
Si Si2 0.572860 0.697285 0.574699
Si Si3 0.444389 0.384705 0.940106
Si Si4 0.491497 0.570095 0.570646
Si Si5 0.800888 0.735121 0.374997
Si Si6 0.341139 0.005775 0.563187
Si Si7 0.356390 0.837605 0.690361
O O1 0.911791 0.101883 0.540900
O O2 0.957345 0.175616 0.624155
O O3 0.889390 0.167556 0.289168
O O4 0.877568 0.166569 0.791313
O O5 0.582246 0.750000 0.625000
O O6 0.566568 0.661769 0.794554
O O7 0.522924 0.695838 0.453613
O O8 0.614787 0.672469 0.434035
O O9 0.481217 0.415383 0.805966
O O10 0.465905 0.368015 0.182478
O O11 0.531379 0.546221 0.411559
O O12 0.472629 0.618247 0.473677
O O13 0.823199 0.750000 0.625000
O O14 0.750000 0.755241 0.375000
O O15 0.800258 0.681605 0.355979
O O16 0.822488 0.750000 0.125000
#
# Coordination Sequence:
#
# PCOD9560975 Si02
#       7
#    16  16  16  16  16  16  16
#     4  11  24  41  64  90 129 173 222 262 332 388
#     4  10  23  41  63  90 126 168 223 279 333 396
#     4  10  22  37  58  87 120 165 209 276 325 385
#     4  10  21  34  55  86 121 163 213 264 330 393
#     4  10  21  40  71 106 137 163 201 265 338 402
#     4  11  23  38  60  86 125 172 216 280 327 391
#     4  11  23  43  67  98 129 174 217 269 332 405
#
# _framework density 23.124614000000001
#
# number of rings (size 3 to 8) (size 9 to 14) (size 15 to 20)
#    0.000    1.571    2.857    1.286    6.000    1.714 
#    0.000    2.143    3.143    0.000    0.000    0.000 
#    0.000    0.000    0.000    0.000    0.000    0.000 
#
# Total GULP energy -312306.379962 kJ/mol
# GULP energy per Si atom -5576.899642 kJ/mol
# Density = 2.307198 g / cm^3
# Si number density = 23.124614 Si / 1000 Ang^3
#
#
#
# Elastic Constant Matrix: (Units=GPa)
#
#
# Indices 1 2 3 4 5 6 
#
# 1 52.6028 40.1322 16.1786 0.0000 0.0000 0.0000
# 2 40.1322 52.6028 16.1786 0.0000 0.0000 0.0000
# 3 16.1786 16.1786 99.3187 0.0000 0.0000 0.0000
# 4 0.0000 0.0000 0.0000 -24.7239 0.0000 0.0000
# 5 0.0000 0.0000 0.0000 0.0000 -24.7239 0.0000
# 6 0.0000 0.0000 0.0000 0.0000 0.0000 26.4527
#
#
#
# Elastic Compliance Matrix: (Units=1/GPa)
#
#
# Indices 1 2 3 4 5 6 
#
# 1 0.045811 -0.034378 -0.001862 0.000000 0.000000 0.000000
# 2 -0.034378 0.045811 -0.001862 0.000000 0.000000 0.000000
# 3 -0.001862 -0.001862 0.010675 0.000000 0.000000 0.000000
# 4 0.000000 0.000000 0.000000 -0.040447 0.000000 0.000000
# 5 0.000000 0.000000 0.000000 0.000000 -0.040447 0.000000
# 6 0.000000 0.000000 0.000000 0.000000 0.000000 0.037803
#
#
# Mechanical properties :
#
#
# Convention : Reuss Voigt Hill
#
# Bulk Modulus (GPa) = 38.32570 38.83368 38.57969
# Shear Modulus (GPa) = 34.69600 4.20333 19.44966
#
# Velocity S-wave (km/s) = 3.87769 1.34968 2.90329
# Velocity P-wave (km/s) = 6.05460 4.38845 5.28757
#
# Compressibility (1/GPa) = 0.02609216
#
# Stress axis : x y z
#
# Youngs Moduli (GPa) = 21.82893 21.82893 93.67371
#
# Poissons Ratio (x) = 0.75042 0.17446
# Poissons Ratio (y) = 0.75042 0.17446
# Poissons Ratio (z) = 0.04065 0.04065
#
# Static dielectric constant tensor:
#      x y z
#    x 1.915600 0.000000 0.000000 
#    y 0.000000 1.915600 0.000000 
#    z 0.000000 0.000000 1.946000 
# 
# From -- ./inp_files/1530.got.cif
#   From: 2010.05.17/outbox.cif.g08.bks.cpg/sg122_1_cif.got.tgz:1530.got - 2010.05.20 11:37:33.
