data_PCOD9560744
_publ_section_title
;
Structure prediction by ZEFSAII (Michael W. Deem and Ramdas Pophale) SiO2 
 PCOD9560744
Probable space group: I -4 2 D
;
_chemical_formula_sum "Si O2"
_cell_formula_units_Z 72
_cell_length_a 20.505918
_cell_length_b 20.505918
_cell_length_c 7.169341
_cell_angle_alpha 90.000000
_cell_angle_beta 90.000000
_cell_angle_gamma 90.000000
_cell_volume 3014.655361
_symmetry_space_group_name_H-M "I -4 2 D"
_symmetry_group_IT_number 122
_symmetry_cell_setting 'tetragonal'
loop_
_space_group_symop_operation_xyz
x,y,z
y,-x,-z
-x,-y,z
-y,x,-z
x,1/2-y,1/4-z
-x,1/2+y,1/4-z
-y,1/2-x,1/4+z
y,1/2+x,1/4+z
1/2+x,1/2+y,1/2+z
1/2+y,1/2-x,1/2-z
1/2-x,1/2-y,1/2+z
1/2-y,1/2+x,1/2-z
1/2+x,-y,3/4-z
1/2-x,y,3/4-z
1/2-y,-x,3/4+z
1/2+y,x,3/4+z
loop_
_atom_site_type_symbol
_atom_site_label
_atom_site_fract_x
_atom_site_fract_y
_atom_site_fract_z
Si Si1 0.904028 0.455188 0.778875
Si Si2 0.275188 0.373590 0.585993
Si Si3 0.250000 0.698448 0.875000
Si Si4 0.164946 0.893305 0.112746
Si Si5 0.015635 0.232563 0.413048
O O1 0.922141 0.531655 0.807724
O O2 0.840699 0.458514 0.645549
O O3 0.883283 0.418605 0.971861
O O4 0.250000 0.373243 0.375000
O O5 0.244983 0.309848 0.678522
O O6 0.352613 0.369214 0.551747
O O7 0.242645 0.438533 0.661593
O O8 0.280755 0.654185 0.710862
O O9 0.208920 0.953370 0.044340
O O10 0.034309 0.250000 0.625000
#
# Coordination Sequence:
#
# PCOD9560744 Si02
#       5
#    16  16   8  16  16
#     4  10  19  35  63  92 120 173 220 262 311 402
#     4  10  22  38  63  92 130 164 208 275 332 372
#     4  10  18  38  60  86 120 168 204 262 318 396
#     4  10  20  40  59  90 134 162 213 278 325 385
#     4  10  21  39  64  91 129 174 216 271 319 401
#
# _framework density 23.883327000000001
#
# number of rings (size 3 to 8) (size 9 to 14) (size 15 to 20)
#    0.000    2.000    3.333    2.667    0.000    2.667 
#    6.000    8.889    0.000    0.000    0.000    0.000 
#    0.000    0.000    0.000    0.000    0.000    0.000 
#
# Total GULP energy -200819.171181 kJ/mol
# GULP energy per Si atom -5578.310311 kJ/mol
# Density = 2.382897 g / cm^3
# Si number density = 23.883327 Si / 1000 Ang^3
#
#
#
# Elastic Constant Matrix: (Units=GPa)
#
#
# Indices 1 2 3 4 5 6 
#
# 1 124.7831 27.1176 14.8567 0.0000 0.0000 0.0000
# 2 27.1176 124.7831 14.8567 0.0000 0.0000 0.0000
# 3 14.8567 14.8567 57.3580 0.0000 0.0000 0.0000
# 4 0.0000 0.0000 0.0000 17.0330 0.0000 0.0000
# 5 0.0000 0.0000 0.0000 0.0000 17.0330 0.0000
# 6 0.0000 0.0000 0.0000 0.0000 0.0000 34.6265
#
#
#
# Elastic Compliance Matrix: (Units=1/GPa)
#
#
# Indices 1 2 3 4 5 6 
#
# 1 0.008587 -0.001652 -0.001796 0.000000 0.000000 0.000000
# 2 -0.001652 0.008587 -0.001796 0.000000 0.000000 0.000000
# 3 -0.001796 -0.001796 0.018365 0.000000 0.000000 0.000000
# 4 0.000000 0.000000 0.000000 0.058710 0.000000 0.000000
# 5 0.000000 0.000000 0.000000 0.000000 0.058710 0.000000
# 6 0.000000 0.000000 0.000000 0.000000 0.000000 0.028880
#
#
# Mechanical properties :
#
#
# Convention : Reuss Voigt Hill
#
# Bulk Modulus (GPa) = 39.92124 46.73179 43.32652
# Shear Modulus (GPa) = 24.91576 30.41138 27.66357
#
# Velocity S-wave (km/s) = 3.23341 3.57225 3.40704
# Velocity P-wave (km/s) = 5.53997 6.05176 5.80151
#
# Compressibility (1/GPa) = 0.02504932
#
# Stress axis : x y z
#
# Youngs Moduli (GPa) = 116.45764 116.45764 54.45188
#
# Poissons Ratio (x) = 0.19241 0.09781
# Poissons Ratio (y) = 0.19241 0.09781
# Poissons Ratio (z) = 0.20918 0.20918
#
# Static dielectric constant tensor:
#      x y z
#    x 2.036350 0.000000 0.000000 
#    y 0.000000 2.036350 0.000000 
#    z 0.000000 0.000000 1.959020 
# 
# From -- ./inp_files/2663.got.cif
#   From: 2010.05.17/outbox.cif.g08.bks.cpg/sg122_2_cif.got.tgz:2663.got - 2010.05.20 11:37:33.
