data_PCOD9560643
_publ_section_title
;
Structure prediction by ZEFSAII (Michael W. Deem and Ramdas Pophale) SiO2 
 PCOD9560643
Probable space group: I -4 2 M
;
_chemical_formula_sum "Si O2"
_cell_formula_units_Z 96
_cell_length_a 22.319830
_cell_length_b 22.319830
_cell_length_c 9.681272
_cell_angle_alpha 90.000000
_cell_angle_beta 90.000000
_cell_angle_gamma 90.000000
_cell_volume 4822.965851
_symmetry_space_group_name_H-M "I -4 2 M"
_symmetry_group_IT_number 121
_symmetry_cell_setting 'tetragonal'
loop_
_space_group_symop_operation_xyz
x,y,z
y,-x,-z
-x,-y,z
-y,x,-z
x,-y,-z
-x,y,-z
-y,-x,z
y,x,z
1/2+x,1/2+y,1/2+z
1/2+y,1/2-x,1/2-z
1/2-x,1/2-y,1/2+z
1/2-y,1/2+x,1/2-z
1/2+x,1/2-y,1/2-z
1/2-x,1/2+y,1/2-z
1/2-y,1/2-x,1/2+z
1/2+y,1/2+x,1/2+z
loop_
_atom_site_type_symbol
_atom_site_label
_atom_site_fract_x
_atom_site_fract_y
_atom_site_fract_z
Si Si1 0.253845 0.156047 0.621594
Si Si2 0.057432 0.152984 0.595697
Si Si3 0.828780 0.653508 0.850152
Si Si4 0.740412 0.060725 0.833951
Si Si5 0.954769 0.332023 0.100814
Si Si6 0.024011 0.123397 0.155106
O O1 0.210789 0.210789 0.583681
O O2 0.283317 0.168465 0.770094
O O3 0.305315 0.153047 0.506080
O O4 0.429533 0.217535 0.508692
O O5 0.102330 0.102330 0.535900
O O6 0.000000 0.164517 0.500000
O O7 0.097298 0.212082 0.619024
O O8 0.030458 0.127879 0.738036
O O9 0.784571 0.611221 0.764886
O O10 0.898358 0.633328 0.842171
O O11 0.706020 0.997886 0.798976
O O12 0.811321 0.055018 0.832454
O O13 0.000000 0.368188 0.000000
O O14 0.070316 0.070316 0.187210
O O15 0.000000 0.116034 0.000000
#
# Coordination Sequence:
#
# PCOD9560643 Si02
#       6
#    16  16  16  16  16  16
#     4  11  25  38  57  90 127 158 203 264 323 382
#     4  11  25  44  61  85 125 169 216 267 317 375
#     4  12  20  40  65  93 121 165 209 253 317 400
#     4   9  20  39  63  89 125 163 201 252 318 374
#     4   8  18  39  60  89 125 156 203 246 307 383
#     4  12  24  41  65  94 127 170 224 272 319 372
#
# _framework density 19.904762999999999
#
# number of rings (size 3 to 8) (size 9 to 14) (size 15 to 20)
#    1.000    0.333    3.333    3.500    0.000    4.667 
#    0.000    0.000    0.000    0.500    4.333    0.000 
#    0.000    0.000    0.000    0.000    0.000    0.000 
#
# Total GULP energy -267560.045610 kJ/mol
# GULP energy per Si atom -5574.167617 kJ/mol
# Density = 1.985946 g / cm^3
# Si number density = 19.904763 Si / 1000 Ang^3
#
#
#
# Elastic Constant Matrix: (Units=GPa)
#
#
# Indices 1 2 3 4 5 6 
#
# 1 66.1270 67.4832 19.3492 0.0000 0.0000 0.0000
# 2 67.4832 66.1270 19.3492 0.0000 0.0000 0.0000
# 3 19.3492 19.3492 58.1011 0.0000 0.0000 0.0000
# 4 0.0000 0.0000 0.0000 22.1718 0.0000 0.0000
# 5 0.0000 0.0000 0.0000 0.0000 22.1718 0.0000
# 6 0.0000 0.0000 0.0000 0.0000 0.0000 40.4281
#
#
#
# Elastic Compliance Matrix: (Units=1/GPa)
#
#
# Indices 1 2 3 4 5 6 
#
# 1 -0.364537 0.372820 -0.002759 0.000000 0.000000 0.000000
# 2 0.372820 -0.364537 -0.002759 0.000000 0.000000 0.000000
# 3 -0.002759 -0.002759 0.019049 0.000000 0.000000 0.000000
# 4 0.000000 0.000000 0.000000 0.045102 0.000000 0.000000
# 5 0.000000 0.000000 0.000000 0.000000 0.045102 0.000000
# 6 0.000000 0.000000 0.000000 0.000000 0.000000 0.024735
#
#
# Mechanical properties :
#
#
# Convention : Reuss Voigt Hill
#
# Bulk Modulus (GPa) = 40.68143 44.74646 42.71395
# Shear Modulus (GPa) = -3.78358 22.56592 9.39117
#
# Velocity S-wave (km/s) = -1.38021 3.37069 2.17446
# Velocity P-wave (km/s) = 4.23585 6.13823 5.27353
#
# Compressibility (1/GPa) = 0.02458124
#
# Stress axis : x y z
#
# Youngs Moduli (GPa) = -2.74321 -2.74321 52.49691
#
# Poissons Ratio (x) = 1.02272 0.14482
# Poissons Ratio (y) = 1.02272 0.14482
# Poissons Ratio (z) = -0.00757 -0.00757
#
# Static dielectric constant tensor:
#      x y z
#    x 1.719220 0.000000 0.000000 
#    y 0.000000 1.719220 0.000000 
#    z 0.000000 0.000000 1.740860 
# 
# From -- ./inp_files/3307.got.cif
#   From: 2010.05.17/outbox.cif.g08.bks.cpg/sg121_2_cif.got.tgz:3307.got - 2010.05.20 11:32:06.
