data_PCOD9560527
_publ_section_title
;
Structure prediction by ZEFSAII (Michael W. Deem and Ramdas Pophale) SiO2 
 PCOD9560527
Probable space group: I -4 2 M
;
_chemical_formula_sum "Si O2"
_cell_formula_units_Z 104
_cell_length_a 14.823212
_cell_length_b 14.823212
_cell_length_c 23.236984
_cell_angle_alpha 90.000000
_cell_angle_beta 90.000000
_cell_angle_gamma 90.000000
_cell_volume 5105.807051
_symmetry_space_group_name_H-M "I -4 2 M"
_symmetry_group_IT_number 121
_symmetry_cell_setting 'tetragonal'
loop_
_space_group_symop_operation_xyz
x,y,z
y,-x,-z
-x,-y,z
-y,x,-z
x,-y,-z
-x,y,-z
-y,-x,z
y,x,z
1/2+x,1/2+y,1/2+z
1/2+y,1/2-x,1/2-z
1/2-x,1/2-y,1/2+z
1/2-y,1/2+x,1/2-z
1/2+x,1/2-y,1/2-z
1/2-x,1/2+y,1/2-z
1/2-y,1/2-x,1/2+z
1/2+y,1/2+x,1/2+z
loop_
_atom_site_type_symbol
_atom_site_label
_atom_site_fract_x
_atom_site_fract_y
_atom_site_fract_z
Si Si1 0.995617 0.859500 0.872061
Si Si2 0.188291 0.454573 0.699489
Si Si3 0.402395 0.039460 0.608941
Si Si4 0.674438 0.181586 0.482280
Si Si5 0.303674 0.500000 0.500000
Si Si6 0.630047 0.226011 0.111366
Si Si7 0.292802 0.153533 0.775899
O O1 0.898586 0.898586 0.853560
O O2 0.027710 0.764919 0.847827
O O3 0.996407 0.856696 0.940769
O O4 0.068824 0.931177 0.851679
O O5 0.097525 0.432746 0.664440
O O6 0.205506 0.371576 0.741753
O O7 0.190587 0.548247 0.733999
O O8 0.359075 0.105617 0.561453
O O9 0.500000 0.000000 0.587793
O O10 0.323193 0.966724 0.622548
O O11 0.754263 0.245738 0.458263
O O12 0.589003 0.243458 0.496418
O O13 0.706735 0.144535 0.543941
O O14 0.670768 0.329233 0.120186
O O15 0.691373 0.169841 0.156090
O O16 0.198835 0.198835 0.757992
#
# Coordination Sequence:
#
# PCOD9560527 Si02
#       7
#    16  16  16  16   8  16  16
#     4  11  23  39  60  90 132 179 219 257 319 408
#     4  12  24  41  66  91 130 164 226 280 337 393
#     4  12  23  41  65 100 130 169 213 276 330 390
#     4  11  23  38  62  94 134 172 213 267 321 391
#     4  12  20  35  57  90 134 176 214 242 313 399
#     4  10  22  41  61  91 130 171 213 264 337 399
#     4  11  24  42  64  90 126 172 221 278 341 400
#
# _framework density 20.368962
#
# number of rings (size 3 to 8) (size 9 to 14) (size 15 to 20)
#    0.000    0.769    3.077    5.538    0.000    3.077 
#    0.000    0.000    0.000    0.462    0.000    6.462 
#    0.000    0.000    0.000    0.000    0.000    0.000 
#
# Total GULP energy -289978.830996 kJ/mol
# GULP energy per Si atom -5576.515981 kJ/mol
# Density = 2.032260 g / cm^3
# Si number density = 20.368962 Si / 1000 Ang^3
#
#
#
# Elastic Constant Matrix: (Units=GPa)
#
#
# Indices 1 2 3 4 5 6 
#
# 1 117.9459 72.1097 32.4591 0.0000 0.0000 0.0000
# 2 72.1097 117.9458 32.4589 0.0000 0.0000 0.0000
# 3 32.4591 32.4589 52.7029 0.0000 0.0000 0.0000
# 4 0.0000 0.0000 0.0000 36.4177 0.0000 0.0000
# 5 0.0000 0.0000 0.0000 0.0000 36.4091 0.0000
# 6 0.0000 0.0000 0.0000 0.0000 0.0000 38.7773
#
#
#
# Elastic Compliance Matrix: (Units=1/GPa)
#
#
# Indices 1 2 3 4 5 6 
#
# 1 0.014240 -0.007577 -0.004104 0.000000 0.000000 0.000000
# 2 -0.007577 0.014240 -0.004104 0.000000 0.000000 0.000000
# 3 -0.004104 -0.004104 0.024029 0.000000 0.000000 0.000000
# 4 0.000000 0.000000 0.000000 0.027459 0.000000 0.000000
# 5 0.000000 0.000000 0.000000 0.000000 0.027466 0.000000
# 6 0.000000 0.000000 0.000000 0.000000 0.000000 0.025788
#
#
# Mechanical properties :
#
#
# Convention : Reuss Voigt Hill
#
# Bulk Modulus (GPa) = 47.75419 62.51668 55.13544
# Shear Modulus (GPa) = 29.10836 32.42529 30.76683
#
# Velocity S-wave (km/s) = 3.78439 3.99419 3.89070
# Velocity P-wave (km/s) = 6.52617 7.21319 6.87826
#
# Compressibility (1/GPa) = 0.02094057
#
# Stress axis : x y z
#
# Youngs Moduli (GPa) = 70.22404 70.22415 41.61573
#
# Poissons Ratio (x) = 0.53207 0.17079
# Poissons Ratio (y) = 0.53207 0.17079
# Poissons Ratio (z) = 0.28820 0.28819
#
# Static dielectric constant tensor:
#      x y z
#    x 1.761640 0.000000 0.000000 
#    y 0.000000 1.761640 0.000000 
#    z 0.000000 0.000000 1.730810 
# 
# From -- ./inp_files/7199.got.cif
#   From: 2010.05.17/outbox.cif.g08.bks.cpg/sg121_4_cif.got.tgz:7199.got - 2010.05.20 11:32:06.
