data_PCOD9560801
_publ_section_title
;
Structure prediction by ZEFSAII (Michael W. Deem and Ramdas Pophale) SiO2 
 PCOD9560801
Probable space group: I -4 2 D
;
_chemical_formula_sum "Si O2"
_cell_formula_units_Z 120
_cell_length_a 16.769731
_cell_length_b 16.769731
_cell_length_c 23.511968
_cell_angle_alpha 90.000000
_cell_angle_beta 90.000000
_cell_angle_gamma 90.000000
_cell_volume 6612.126816
_symmetry_space_group_name_H-M "I -4 2 D"
_symmetry_group_IT_number 122
_symmetry_cell_setting 'tetragonal'
loop_
_space_group_symop_operation_xyz
x,y,z
y,-x,-z
-x,-y,z
-y,x,-z
x,1/2-y,1/4-z
-x,1/2+y,1/4-z
-y,1/2-x,1/4+z
y,1/2+x,1/4+z
1/2+x,1/2+y,1/2+z
1/2+y,1/2-x,1/2-z
1/2-x,1/2-y,1/2+z
1/2-y,1/2+x,1/2-z
1/2+x,-y,3/4-z
1/2-x,y,3/4-z
1/2-y,-x,3/4+z
1/2+y,x,3/4+z
loop_
_atom_site_type_symbol
_atom_site_label
_atom_site_fract_x
_atom_site_fract_y
_atom_site_fract_z
Si Si1 0.725903 0.215566 0.706257
Si Si2 0.101038 0.749001 0.559183
Si Si3 0.296439 0.189081 0.071255
Si Si4 0.114614 0.297358 0.392334
Si Si5 0.542402 0.838945 0.005612
Si Si6 0.071554 0.891047 0.493538
Si Si7 0.831454 0.523382 0.625181
Si Si8 0.000000 0.500000 0.569659
O O1 0.819801 0.197294 0.698910
O O2 0.706276 0.231502 0.771996
O O3 0.679060 0.147937 0.670429
O O4 0.717368 0.300988 0.674356
O O5 0.076683 0.750000 0.625000
O O6 0.118841 0.838759 0.538553
O O7 0.031673 0.718323 0.518312
O O8 0.289655 0.250000 0.125000
O O9 0.295522 0.094732 0.086872
O O10 0.383264 0.197438 0.041203
O O11 0.067709 0.348652 0.439964
O O12 0.051670 0.226121 0.382298
O O13 0.516337 0.922506 0.032220
O O14 0.069555 0.847931 0.433707
O O15 0.980014 0.897304 0.513352
O O16 0.918956 0.492758 0.605985
#
# Coordination Sequence:
#
# PCOD9560801 Si02
#       8
#    16  16  16  16  16  16  16   8
#     4  10  21  36  57  80 111 147 198 228 283 342
#     4  12  22  30  51  76 107 149 190 235 258 331
#     4  10  22  36  53  81 112 150 191 240 289 338
#     4  10  19  38  56  80 106 150 188 235 281 341
#     4  10  22  34  53  77 111 145 187 226 285 337
#     4  11  24  33  45  73 117 160 191 215 266 328
#     4  11  21  36  53  77 116 152 190 237 282 333
#     4  10  22  34  53  76 108 147 184 230 280 332
#
# _framework density 18.148472999999999
#
# number of rings (size 3 to 8) (size 9 to 14) (size 15 to 20)
#    0.000    1.467    2.667    3.600    9.333    0.000 
#    0.000    0.000    0.000    1.600    3.467    0.000 
#    0.000    0.000    0.000    0.000    0.000    0.000 
#
# Total GULP energy -334430.778100 kJ/mol
# GULP energy per Si atom -5573.846302 kJ/mol
# Density = 1.810717 g / cm^3
# Si number density = 18.148473 Si / 1000 Ang^3
#
#
#
# Elastic Constant Matrix: (Units=GPa)
#
#
# Indices 1 2 3 4 5 6 
#
# 1 31.7580 4.2475 22.7309 0.0000 0.0000 0.0000
# 2 4.2475 31.7580 22.7309 0.0000 0.0000 0.0000
# 3 22.7309 22.7309 109.4015 0.0000 0.0000 0.0000
# 4 0.0000 0.0000 0.0000 23.0369 0.0000 0.0000
# 5 0.0000 0.0000 0.0000 0.0000 23.0369 0.0000
# 6 0.0000 0.0000 0.0000 0.0000 0.0000 15.0817
#
#
#
# Elastic Compliance Matrix: (Units=1/GPa)
#
#
# Indices 1 2 3 4 5 6 
#
# 1 0.037000 0.000651 -0.007823 0.000000 0.000000 0.000000
# 2 0.000651 0.037000 -0.007823 0.000000 0.000000 0.000000
# 3 -0.007823 -0.007823 0.012391 0.000000 0.000000 0.000000
# 4 0.000000 0.000000 0.000000 0.043409 0.000000 0.000000
# 5 0.000000 0.000000 0.000000 0.000000 0.043409 0.000000
# 6 0.000000 0.000000 0.000000 0.000000 0.000000 0.066306
#
#
# Mechanical properties :
#
#
# Convention : Reuss Voigt Hill
#
# Bulk Modulus (GPa) = 17.72993 30.25956 23.99474
# Shear Modulus (GPa) = 17.34267 20.44498 18.89382
#
# Velocity S-wave (km/s) = 3.09463 3.36004 3.23006
# Velocity P-wave (km/s) = 4.74969 5.63584 5.21163
#
# Compressibility (1/GPa) = 0.05640179
#
# Stress axis : x y z
#
# Youngs Moduli (GPa) = 27.02673 27.02673 80.70066
#
# Poissons Ratio (x) = -0.01758 0.63132
# Poissons Ratio (y) = -0.01758 0.63132
# Poissons Ratio (z) = 0.21143 0.21143
#
# Static dielectric constant tensor:
#      x y z
#    x 1.657810 0.000000 0.000000 
#    y 0.000000 1.657810 0.000000 
#    z 0.000000 0.000000 1.674660 
# 
# From -- ./inp_files/7496.got.cif
#   From: 2010.05.17/outbox.cif.g08.bks.cpg/sg122_4_cif.got.tgz:7496.got - 2010.05.20 11:37:33.
