data_PCOD9560993
_publ_section_title
;
Structure prediction by ZEFSAII (Michael W. Deem and Ramdas Pophale) SiO2 
 PCOD9560993
Probable space group: I -4 2 D
;
_chemical_formula_sum "Si O2"
_cell_formula_units_Z 100
_cell_length_a 14.650388
_cell_length_b 14.650388
_cell_length_c 22.168633
_cell_angle_alpha 90.000000
_cell_angle_beta 90.000000
_cell_angle_gamma 90.000000
_cell_volume 4758.139461
_symmetry_space_group_name_H-M "I -4 2 D"
_symmetry_group_IT_number 122
_symmetry_cell_setting 'tetragonal'
loop_
_space_group_symop_operation_xyz
x,y,z
y,-x,-z
-x,-y,z
-y,x,-z
x,1/2-y,1/4-z
-x,1/2+y,1/4-z
-y,1/2-x,1/4+z
y,1/2+x,1/4+z
1/2+x,1/2+y,1/2+z
1/2+y,1/2-x,1/2-z
1/2-x,1/2-y,1/2+z
1/2-y,1/2+x,1/2-z
1/2+x,-y,3/4-z
1/2-x,y,3/4-z
1/2-y,-x,3/4+z
1/2+y,x,3/4+z
loop_
_atom_site_type_symbol
_atom_site_label
_atom_site_fract_x
_atom_site_fract_y
_atom_site_fract_z
Si Si1 0.865191 0.091691 0.915152
Si Si2 0.250000 0.429524 0.375000
Si Si3 0.246747 0.250000 0.125000
Si Si4 0.593524 0.400833 0.273451
Si Si5 0.275678 0.401619 0.943734
Si Si6 0.500000 0.500000 0.500000
Si Si7 0.791315 0.383536 0.785609
Si Si8 0.099589 0.874839 0.232501
O O1 0.799967 0.178720 0.922759
O O2 0.887411 0.102237 0.844495
O O3 0.809852 0.996904 0.916880
O O4 0.951296 0.075440 0.957660
O O5 0.180565 0.380995 0.420606
O O6 0.314485 0.181810 0.160716
O O7 0.619085 0.313714 0.234102
O O8 0.483905 0.402497 0.273787
O O9 0.640917 0.493842 0.249289
O O10 0.250000 0.379299 0.875000
O O11 0.298173 0.510071 0.948052
O O12 0.357229 0.345762 0.975221
O O13 0.684536 0.360098 0.775809
#
# Coordination Sequence:
#
# PCOD9560993 Si02
#       8
#    16   8   8  16  16   4  16  16
#     4  10  21  37  61  89 136 175 214 274 337 408
#     4   9  18  34  55  90 126 166 207 260 321 408
#     4  11  22  44  63  88 138 182 217 278 361 424
#     4   9  18  42  62  89 134 171 214 272 340 402
#     4  11  24  46  71 103 135 179 239 300 350 429
#     4  12  24  36  60 104 132 176 236 286 324 440
#     4  11  24  44  68  97 135 177 231 290 357 413
#     4   9  19  34  63  91 122 170 213 263 331 408
#
# _framework density 21.016617
#
# number of rings (size 3 to 8) (size 9 to 14) (size 15 to 20)
#    0.000    1.920    2.400    1.920    3.360    0.320 
#    2.880    1.600    0.000    0.000    0.000    0.000 
#    0.000    0.000    0.000    0.000    0.000    0.000 
#
# Total GULP energy -278566.276997 kJ/mol
# GULP energy per Si atom -5571.325540 kJ/mol
# Density = 2.096878 g / cm^3
# Si number density = 21.016617 Si / 1000 Ang^3
#
#
#
# Elastic Constant Matrix: (Units=GPa)
#
#
# Indices 1 2 3 4 5 6 
#
# 1 57.6499 13.4504 31.1126 0.0000 0.0000 0.0000
# 2 13.4504 57.6499 31.1126 0.0000 0.0000 0.0000
# 3 31.1126 31.1126 103.0629 0.0000 0.0000 0.0000
# 4 0.0000 0.0000 0.0000 26.6817 0.0000 0.0000
# 5 0.0000 0.0000 0.0000 0.0000 26.6817 0.0000
# 6 0.0000 0.0000 0.0000 0.0000 0.0000 23.9312
#
#
#
# Elastic Compliance Matrix: (Units=1/GPa)
#
#
# Indices 1 2 3 4 5 6 
#
# 1 0.020870 -0.001755 -0.005770 0.000000 0.000000 0.000000
# 2 -0.001755 0.020870 -0.005770 0.000000 0.000000 0.000000
# 3 -0.005770 -0.005770 0.013187 0.000000 0.000000 0.000000
# 4 0.000000 0.000000 0.000000 0.037479 0.000000 0.000000
# 5 0.000000 0.000000 0.000000 0.000000 0.037479 0.000000
# 6 0.000000 0.000000 0.000000 0.000000 0.000000 0.041786
#
#
# Mechanical properties :
#
#
# Convention : Reuss Voigt Hill
#
# Bulk Modulus (GPa) = 35.29236 41.07932 38.18584
# Shear Modulus (GPa) = 24.07242 24.97140 24.52191
#
# Velocity S-wave (km/s) = 3.38805 3.45073 3.41953
# Velocity P-wave (km/s) = 5.66870 5.95527 5.81375
#
# Compressibility (1/GPa) = 0.02833474
#
# Stress axis : x y z
#
# Youngs Moduli (GPa) = 47.91633 47.91633 75.83391
#
# Poissons Ratio (x) = 0.08409 0.43759
# Poissons Ratio (y) = 0.08409 0.43759
# Poissons Ratio (z) = 0.27649 0.27649
#
# Static dielectric constant tensor:
#      x y z
#    x 1.826920 0.000000 0.000000 
#    y 0.000000 1.826920 0.000000 
#    z 0.000000 0.000000 1.763480 
# 
# From -- ./inp_files/8084.got.cif
#   From: 2010.05.17/outbox.cif.g08.bks.cpg/sg122_5_cif.got.tgz:8084.got - 2010.05.20 11:37:33.
