data_PCOD9560475
_publ_section_title
;
Structure prediction by ZEFSAII (Michael W. Deem and Ramdas Pophale) SiO2 
 PCOD9560475
Probable space group: I -4 2 M
;
_chemical_formula_sum "Si O2"
_cell_formula_units_Z 84
_cell_length_a 22.548305
_cell_length_b 22.548305
_cell_length_c 9.755246
_cell_angle_alpha 90.000000
_cell_angle_beta 90.000000
_cell_angle_gamma 90.000000
_cell_volume 4959.821272
_symmetry_space_group_name_H-M "I -4 2 M"
_symmetry_group_IT_number 121
_symmetry_cell_setting 'tetragonal'
loop_
_space_group_symop_operation_xyz
x,y,z
y,-x,-z
-x,-y,z
-y,x,-z
x,-y,-z
-x,y,-z
-y,-x,z
y,x,z
1/2+x,1/2+y,1/2+z
1/2+y,1/2-x,1/2-z
1/2-x,1/2-y,1/2+z
1/2-y,1/2+x,1/2-z
1/2+x,1/2-y,1/2-z
1/2-x,1/2+y,1/2-z
1/2-y,1/2-x,1/2+z
1/2+y,1/2+x,1/2+z
loop_
_atom_site_type_symbol
_atom_site_label
_atom_site_fract_x
_atom_site_fract_y
_atom_site_fract_z
Si Si1 0.000000 0.500000 0.750000
Si Si2 0.852692 0.245870 0.309196
Si Si3 0.024958 0.293905 0.653041
Si Si4 0.444993 0.804004 0.412131
Si Si5 0.775799 0.678621 0.494627
Si Si6 0.581012 0.064116 0.422102
O O1 0.943845 0.522387 0.668344
O O2 0.816656 0.183345 0.312019
O O3 0.924276 0.246006 0.310504
O O4 0.829570 0.284287 0.438653
O O5 0.832378 0.278500 0.168539
O O6 0.060530 0.356499 0.653704
O O7 0.000000 0.284541 0.500000
O O8 0.970458 0.302527 0.758077
O O9 0.500000 0.781018 0.500000
O O10 0.384354 0.769479 0.431482
O O11 0.427388 0.869336 0.474213
O O12 0.718618 0.718618 0.520982
O O13 0.580073 0.000000 0.500000
#
# Coordination Sequence:
#
# PCOD9560475 Si02
#       6
#     4  16  16  16  16  16
#     4  12  18  32  40  58  92 144 186 204 258 280
#     4  10  21  39  58  79 108 143 187 234 283 330
#     4  11  24  36  53  80 108 143 184 232 268 318
#     4  12  22  36  56  74 108 145 185 230 271 319
#     4  10  22  37  58  80 105 143 187 233 285 334
#     4  11  23  31  44  67 103 142 186 221 252 300
#
# _framework density 16.936093
#
# number of rings (size 3 to 8) (size 9 to 14) (size 15 to 20)
#    0.000    1.143    5.714    1.429    2.667    0.000 
#    0.000    0.000    0.000    0.000    0.000    0.000 
#    0.000    4.571    0.000    0.000    0.000    0.000 
#
# Total GULP energy -233863.272840 kJ/mol
# GULP energy per Si atom -5568.173163 kJ/mol
# Density = 1.689755 g / cm^3
# Si number density = 16.936093 Si / 1000 Ang^3
#
#
#
# Elastic Constant Matrix: (Units=GPa)
#
#
# Indices 1 2 3 4 5 6 
#
# 1 53.5456 21.3693 12.8667 0.0000 0.0000 0.0000
# 2 21.3693 53.5439 12.8677 0.0000 0.0000 0.0000
# 3 12.8667 12.8677 66.3139 0.0000 0.0000 0.0000
# 4 0.0000 0.0000 0.0000 19.9922 0.0000 0.0000
# 5 0.0000 0.0000 0.0000 0.0000 19.9917 0.0000
# 6 0.0000 0.0000 0.0000 0.0000 0.0000 25.0228
#
#
#
# Elastic Compliance Matrix: (Units=1/GPa)
#
#
# Indices 1 2 3 4 5 6 
#
# 1 0.022690 -0.008389 -0.002775 0.000000 0.000000 0.000000
# 2 -0.008389 0.022691 -0.002775 0.000000 0.000000 0.000000
# 3 -0.002775 -0.002775 0.016157 0.000000 0.000000 0.000000
# 4 0.000000 0.000000 0.000000 0.050020 0.000000 0.000000
# 5 0.000000 0.000000 0.000000 0.000000 0.050021 0.000000
# 6 0.000000 0.000000 0.000000 0.000000 0.000000 0.039964
#
#
# Mechanical properties :
#
#
# Convention : Reuss Voigt Hill
#
# Bulk Modulus (GPa) = 29.70863 29.73455 29.72159
# Shear Modulus (GPa) = 20.77790 21.42130 21.09960
#
# Velocity S-wave (km/s) = 3.50643 3.56031 3.53347
# Velocity P-wave (km/s) = 5.82864 5.87333 5.85103
#
# Compressibility (1/GPa) = 0.03366025
#
# Stress axis : x y z
#
# Youngs Moduli (GPa) = 44.07165 44.06991 61.89377
#
# Poissons Ratio (x) = 0.36970 0.17174
# Poissons Ratio (y) = 0.36971 0.17178
# Poissons Ratio (z) = 0.12229 0.12231
#
# Static dielectric constant tensor:
#      x y z
#    x 1.596710 0.000000 0.000000 
#    y 0.000000 1.596710 0.000000 
#    z 0.000000 0.000000 1.708170 
# 
# From -- ./inp_files/1887.got.cif
#   From: 2010.05.17/outbox.cif.g08.bks.cpg/sg121_1_cif.got.tgz:1887.got - 2010.05.20 11:32:06.
