data_PCOD9560922
_publ_section_title
;
Structure prediction by ZEFSAII (Michael W. Deem and Ramdas Pophale) SiO2 
 PCOD9560922
Probable space group: I -4 2 D
;
_chemical_formula_sum "Si O2"
_cell_formula_units_Z 76
_cell_length_a 26.927858
_cell_length_b 26.927858
_cell_length_c 6.263737
_cell_angle_alpha 90.000000
_cell_angle_beta 90.000000
_cell_angle_gamma 90.000000
_cell_volume 4541.895433
_symmetry_space_group_name_H-M "I -4 2 D"
_symmetry_group_IT_number 122
_symmetry_cell_setting 'tetragonal'
loop_
_space_group_symop_operation_xyz
x,y,z
y,-x,-z
-x,-y,z
-y,x,-z
x,1/2-y,1/4-z
-x,1/2+y,1/4-z
-y,1/2-x,1/4+z
y,1/2+x,1/4+z
1/2+x,1/2+y,1/2+z
1/2+y,1/2-x,1/2-z
1/2-x,1/2-y,1/2+z
1/2-y,1/2+x,1/2-z
1/2+x,-y,3/4-z
1/2-x,y,3/4-z
1/2-y,-x,3/4+z
1/2+y,x,3/4+z
loop_
_atom_site_type_symbol
_atom_site_label
_atom_site_fract_x
_atom_site_fract_y
_atom_site_fract_z
Si Si1 0.601376 0.910587 0.665980
Si Si2 0.750000 0.019964 0.375000
Si Si3 0.958416 0.662125 0.899700
Si Si4 0.500000 0.000000 0.250000
Si Si5 0.020774 0.410112 0.519803
Si Si6 0.699961 0.960232 0.758348
O O1 0.587625 0.868854 0.492863
O O2 0.658911 0.918007 0.722347
O O3 0.586947 0.966305 0.586053
O O4 0.565179 0.897049 0.861498
O O5 0.717411 0.985896 0.536696
O O6 0.713525 0.051315 0.223945
O O7 0.981608 0.626594 0.719456
O O8 0.997839 0.675433 0.086537
O O9 0.535209 0.032807 0.394364
O O10 0.750000 0.942811 0.875000
#
# Coordination Sequence:
#
# PCOD9560922 Si02
#       6
#    16   8  16   4  16  16
#     4  12  21  34  49  80 107 153 187 235 274 344
#     4  10  20  40  54  74 104 162 188 246 274 332
#     4  11  21  35  54  75 108 153 196 233 280 333
#     4  12  20  30  44  68 118 152 188 218 264 316
#     4  12  22  32  48  77 114 152 190 221 268 332
#     4  10  22  37  55  73 106 154 188 228 286 342
#
# _framework density 16.733101999999999
#
# number of rings (size 3 to 8) (size 9 to 14) (size 15 to 20)
#    0.000    0.842    6.316    2.526    0.000    0.000 
#    0.000    0.000    0.000    0.000    0.000    0.000 
#    0.000    0.000  325.684    0.000    0.000    0.000 
#
# Total GULP energy -211874.358669 kJ/mol
# GULP energy per Si atom -5575.641018 kJ/mol
# Density = 1.669502 g / cm^3
# Si number density = 16.733102 Si / 1000 Ang^3
#
#
#
# Elastic Constant Matrix: (Units=GPa)
#
#
# Indices 1 2 3 4 5 6 
#
# 1 88.2645 29.9975 36.5385 0.0000 0.0000 0.0000
# 2 29.9975 88.2645 36.5385 0.0000 0.0000 0.0000
# 3 36.5385 36.5385 96.0799 0.0000 0.0000 0.0000
# 4 0.0000 0.0000 0.0000 35.8085 0.0000 0.0000
# 5 0.0000 0.0000 0.0000 0.0000 35.8085 0.0000
# 6 0.0000 0.0000 0.0000 0.0000 0.0000 13.6340
#
#
#
# Elastic Compliance Matrix: (Units=1/GPa)
#
#
# Indices 1 2 3 4 5 6 
#
# 1 0.014108 -0.003055 -0.004203 0.000000 0.000000 0.000000
# 2 -0.003055 0.014108 -0.004203 0.000000 0.000000 0.000000
# 3 -0.004203 -0.004203 0.013605 0.000000 0.000000 0.000000
# 4 0.000000 0.000000 0.000000 0.027926 0.000000 0.000000
# 5 0.000000 0.000000 0.000000 0.000000 0.027926 0.000000
# 6 0.000000 0.000000 0.000000 0.000000 0.000000 0.073346
#
#
# Mechanical properties :
#
#
# Convention : Reuss Voigt Hill
#
# Bulk Modulus (GPa) = 52.91649 53.19531 53.05590
# Shear Modulus (GPa) = 24.96987 28.35251 26.66119
#
# Velocity S-wave (km/s) = 3.86715 4.12077 3.99597
# Velocity P-wave (km/s) = 7.18556 7.38244 7.28467
#
# Compressibility (1/GPa) = 0.01889770
#
# Stress axis : x y z
#
# Youngs Moduli (GPa) = 70.88281 70.88281 73.50191
#
# Poissons Ratio (x) = 0.21652 0.30896
# Poissons Ratio (y) = 0.21652 0.30896
# Poissons Ratio (z) = 0.29795 0.29795
#
# Static dielectric constant tensor:
#      x y z
#    x 1.571020 0.000000 0.000000 
#    y 0.000000 1.571020 0.000000 
#    z 0.000000 0.000000 1.647950 
# 
# From -- ./inp_files/1330.got.cif
#   From: 2010.05.17/outbox.cif.g08.bks.cpg/sg122_1_cif.got.tgz:1330.got - 2010.05.20 11:37:33.
