data_PCOD9560127
_publ_section_title
;
Structure prediction by ZEFSAII (Michael W. Deem and Ramdas Pophale) SiO2 
 PCOD9560127
Probable space group: I -4 2 M
;
_chemical_formula_sum "Si O2"
_cell_formula_units_Z 72
_cell_length_a 22.956063
_cell_length_b 22.956063
_cell_length_c 8.328772
_cell_angle_alpha 90.000000
_cell_angle_beta 90.000000
_cell_angle_gamma 90.000000
_cell_volume 4389.103169
_symmetry_space_group_name_H-M "I -4 2 M"
_symmetry_group_IT_number 121
_symmetry_cell_setting 'tetragonal'
loop_
_space_group_symop_operation_xyz
x,y,z
y,-x,-z
-x,-y,z
-y,x,-z
x,-y,-z
-x,y,-z
-y,-x,z
y,x,z
1/2+x,1/2+y,1/2+z
1/2+y,1/2-x,1/2-z
1/2-x,1/2-y,1/2+z
1/2-y,1/2+x,1/2-z
1/2+x,1/2-y,1/2-z
1/2-x,1/2+y,1/2-z
1/2-y,1/2-x,1/2+z
1/2+y,1/2+x,1/2+z
loop_
_atom_site_type_symbol
_atom_site_label
_atom_site_fract_x
_atom_site_fract_y
_atom_site_fract_z
Si Si1 0.769361 0.670969 0.744088
Si Si2 0.088293 0.183394 0.104445
Si Si3 0.962390 0.819547 0.753224
Si Si4 0.243898 0.143023 0.604593
Si Si5 0.500000 0.589054 0.000000
O O1 0.724916 0.724916 0.745542
O O2 0.742140 0.626648 0.614659
O O3 0.829603 0.701681 0.700813
O O4 0.762928 0.642865 0.918822
O O5 0.130900 0.130900 0.162325
O O6 0.030047 0.193577 0.207594
O O7 0.067822 0.168851 0.924606
O O8 0.920387 0.773216 0.667758
O O9 0.967315 0.872640 0.630444
O O10 0.187388 0.187388 0.619943
O O11 0.547193 0.547193 0.917557
#
# Coordination Sequence:
#
# PCOD9560127 Si02
#       5
#    16  16  16  16   8
#     4   9  18  31  49  70  92 119 152 194 243 295
#     4  10  20  34  49  68  95 127 164 204 247 289
#     4  11  21  32  49  69  93 126 165 207 246 285
#     4  10  18  30  48  69  92 119 154 195 242 292
#     4  11  22  34  46  62  88 126 170 209 244 282
#
# _framework density 16.404261000000002
#
# number of rings (size 3 to 8) (size 9 to 14) (size 15 to 20)
#    0.000    1.889    0.000    5.333    0.000    5.333 
#    0.000    0.000    0.000    8.000    0.000    0.000 
#    0.000    0.889    0.000   10.222    0.000   10.000 
#
# Total GULP energy -200606.883472 kJ/mol
# GULP energy per Si atom -5572.413430 kJ/mol
# Density = 1.636692 g / cm^3
# Si number density = 16.404261 Si / 1000 Ang^3
#
#
#
# Elastic Constant Matrix: (Units=GPa)
#
#
# Indices 1 2 3 4 5 6 
#
# 1 84.8159 65.1266 38.4179 0.0000 0.0000 0.0000
# 2 65.1266 84.8159 38.4179 0.0000 0.0000 0.0000
# 3 38.4179 38.4179 60.7141 0.0000 0.0000 0.0000
# 4 0.0000 0.0000 0.0000 24.5217 0.0000 0.0000
# 5 0.0000 0.0000 0.0000 0.0000 24.5217 0.0000
# 6 0.0000 0.0000 0.0000 0.0000 0.0000 34.1098
#
#
#
# Elastic Compliance Matrix: (Units=1/GPa)
#
#
# Indices 1 2 3 4 5 6 
#
# 1 0.030329 -0.020460 -0.006245 0.000000 0.000000 0.000000
# 2 -0.020460 0.030329 -0.006245 0.000000 0.000000 0.000000
# 3 -0.006245 -0.006245 0.024374 0.000000 0.000000 0.000000
# 4 0.000000 0.000000 0.000000 0.040780 0.000000 0.000000
# 5 0.000000 0.000000 0.000000 0.000000 0.040780 0.000000
# 6 0.000000 0.000000 0.000000 0.000000 0.000000 0.029317
#
#
# Mechanical properties :
#
#
# Convention : Reuss Voigt Hill
#
# Bulk Modulus (GPa) = 52.26679 57.14118 54.70398
# Shear Modulus (GPa) = 18.64371 22.52290 20.58330
#
# Velocity S-wave (km/s) = 3.37488 3.70941 3.54609
# Velocity P-wave (km/s) = 6.86421 7.29760 7.08422
#
# Compressibility (1/GPa) = 0.01913261
#
# Stress axis : x y z
#
# Youngs Moduli (GPa) = 32.97153 32.97153 41.02751
#
# Poissons Ratio (x) = 0.67459 0.25622
# Poissons Ratio (y) = 0.67459 0.25622
# Poissons Ratio (z) = 0.20591 0.20591
#
# Static dielectric constant tensor:
#      x y z
#    x 1.552700 0.000000 0.000000 
#    y 0.000000 1.552700 0.000000 
#    z 0.000000 0.000000 1.604460 
# 
# From -- ./inp_files/1683.got.cif
#   From: 2010.05.17/outbox.cif.g08.bks.cpg/sg121_1_cif.got.tgz:1683.got - 2010.05.20 11:32:06.
