data_PCOD9560010
_publ_section_title
;
Structure prediction by ZEFSAII (Michael W. Deem and Ramdas Pophale) SiO2 
 PCOD9560010
Probable space group: I -4 C 2
;
_chemical_formula_sum "Si O2"
_cell_formula_units_Z 96
_cell_length_a 14.391794
_cell_length_b 14.391794
_cell_length_c 21.116916
_cell_angle_alpha 90.000000
_cell_angle_beta 90.000000
_cell_angle_gamma 90.000000
_cell_volume 4373.814504
_symmetry_space_group_name_H-M "I -4 C 2"
_symmetry_group_IT_number 120
_symmetry_cell_setting 'tetragonal'
loop_
_space_group_symop_operation_xyz
x,y,z
y,-x,-z
-x,-y,z
-y,x,-z
y,x,1/2-z
-y,-x,1/2-z
-x,y,1/2+z
x,-y,1/2+z
1/2+x,1/2+y,1/2+z
1/2+y,1/2-x,1/2-z
1/2-x,1/2-y,1/2+z
1/2-y,1/2+x,1/2-z
1/2+y,1/2+x,-z
1/2-y,1/2-x,-z
1/2-x,1/2+y,z
1/2+x,1/2-y,z
loop_
_atom_site_type_symbol
_atom_site_label
_atom_site_fract_x
_atom_site_fract_y
_atom_site_fract_z
Si Si1 0.232278 0.052801 0.368522
Si Si2 0.351794 0.053563 0.245533
Si Si3 0.424212 0.578628 0.587736
Si Si4 0.658582 0.302168 0.471455
Si Si5 0.009592 0.734461 0.883399
Si Si6 0.939342 0.415952 0.574113
O O1 0.278768 0.075956 0.301403
O O2 0.193397 0.136949 0.411561
O O3 0.319539 0.014809 0.408770
O O4 0.153136 0.975470 0.367983
O O5 0.445695 0.114653 0.247949
O O6 0.300772 0.061831 0.178525
O O7 0.500000 0.500000 0.572203
O O8 0.384725 0.630559 0.525173
O O9 0.337332 0.530605 0.621563
O O10 0.742341 0.242341 0.500000
O O11 0.578403 0.236063 0.443462
O O12 0.926447 0.662638 0.896745
O O13 0.928669 0.428669 0.500000
O O14 0.000000 0.500000 0.601246
#
# Coordination Sequence:
#
# PCOD9560010 Si02
#       6
#    16  16  16  16  16  16
#     4  12  25  46  75 106 147 206 253 308 382 459
#     4  11  26  51  76 105 152 204 259 324 380 454
#     4  12  27  50  77 111 159 207 245 318 398 472
#     4  12  28  44  77 118 153 199 260 326 391 466
#     4  12  26  46  74 111 151 199 255 313 385 466
#     4  11  23  42  69 107 144 185 248 324 381 440
#
# _framework density 21.948803999999999
#
# number of rings (size 3 to 8) (size 9 to 14) (size 15 to 20)
#    0.000    0.333    3.333    5.500    9.333    1.333 
#    0.000    2.500    0.000    0.000    0.000    0.000 
#    0.000    0.000    0.000    0.000    0.000    0.000 
#
# Total GULP energy -268716.541334 kJ/mol
# GULP energy per Si atom -5598.261278 kJ/mol
# Density = 2.189885 g / cm^3
# Si number density = 21.948804 Si / 1000 Ang^3
#
#
#
# Elastic Constant Matrix: (Units=GPa)
#
#
# Indices 1 2 3 4 5 6 
#
# 1 96.4113 29.0803 5.0204 0.0000 0.0000 0.0000
# 2 29.0803 96.4113 5.0204 0.0000 0.0000 0.0000
# 3 5.0204 5.0204 64.5499 0.0000 0.0000 0.0000
# 4 0.0000 0.0000 0.0000 34.4824 0.0000 0.0000
# 5 0.0000 0.0000 0.0000 0.0000 34.4824 0.0000
# 6 0.0000 0.0000 0.0000 0.0000 0.0000 43.7108
#
#
#
# Elastic Compliance Matrix: (Units=1/GPa)
#
#
# Indices 1 2 3 4 5 6 
#
# 1 0.011435 -0.003417 -0.000624 0.000000 0.000000 0.000000
# 2 -0.003417 0.011435 -0.000624 0.000000 0.000000 0.000000
# 3 -0.000624 -0.000624 0.015589 0.000000 0.000000 0.000000
# 4 0.000000 0.000000 0.000000 0.029000 0.000000 0.000000
# 5 0.000000 0.000000 0.000000 0.000000 0.029000 0.000000
# 6 0.000000 0.000000 0.000000 0.000000 0.000000 0.022878
#
#
# Mechanical properties :
#
#
# Convention : Reuss Voigt Hill
#
# Bulk Modulus (GPa) = 34.32719 37.29052 35.80885
# Shear Modulus (GPa) = 36.13339 37.08522 36.60931
#
# Velocity S-wave (km/s) = 4.06181 4.11496 4.08847
# Velocity P-wave (km/s) = 6.13770 6.29316 6.21592
#
# Compressibility (1/GPa) = 0.02913143
#
# Stress axis : x y z
#
# Youngs Moduli (GPa) = 87.44867 87.44866 64.14824
#
# Poissons Ratio (x) = 0.29879 0.04001
# Poissons Ratio (y) = 0.29879 0.04001
# Poissons Ratio (z) = 0.05454 0.05454
#
# Static dielectric constant tensor:
#      x y z
#    x 1.803390 0.000000 0.000000 
#    y 0.000000 1.803390 0.000000 
#    z 0.000000 0.000000 1.803440 
# 
# From -- ./inp_files/5369.got.cif
#   From: 2010.05.17/outbox.cif.g08.bks.cpg/sg120_3_cif.got.tgz:5369.got - 2010.05.20 11:28:13.
