data_PCOD9560672
_publ_section_title
;
Structure prediction by ZEFSAII (Michael W. Deem and Ramdas Pophale) SiO2 
 PCOD9560672
Probable space group: I -4 2 M
;
_chemical_formula_sum "Si O2"
_cell_formula_units_Z 40
_cell_length_a 9.907747
_cell_length_b 9.907747
_cell_length_c 19.447913
_cell_angle_alpha 90.000000
_cell_angle_beta 90.000000
_cell_angle_gamma 90.000000
_cell_volume 1909.074247
_symmetry_space_group_name_H-M "I -4 2 M"
_symmetry_group_IT_number 121
_symmetry_cell_setting 'tetragonal'
loop_
_space_group_symop_operation_xyz
x,y,z
y,-x,-z
-x,-y,z
-y,x,-z
x,-y,-z
-x,y,-z
-y,-x,z
y,x,z
1/2+x,1/2+y,1/2+z
1/2+y,1/2-x,1/2-z
1/2-x,1/2-y,1/2+z
1/2-y,1/2+x,1/2-z
1/2+x,1/2-y,1/2-z
1/2-x,1/2+y,1/2-z
1/2-y,1/2-x,1/2+z
1/2+y,1/2+x,1/2+z
loop_
_atom_site_type_symbol
_atom_site_label
_atom_site_fract_x
_atom_site_fract_y
_atom_site_fract_z
Si Si1 0.722712 0.507256 0.214071
Si Si2 0.271992 0.500000 0.500000
Si Si3 0.823243 0.409305 0.641473
O O1 0.605528 0.394473 0.212809
O O2 0.650283 0.650283 0.201982
O O3 0.785884 0.506711 0.290304
O O4 0.832593 0.461666 0.158729
O O5 0.371470 0.628531 0.492102
O O6 0.186386 0.516864 0.569214
O O7 0.705365 0.294636 0.638508
#
# Coordination Sequence:
#
# PCOD9560672 Si02
#       3
#    16   8  16
#     4   9  17  30  49  76 110 145 181 220 262 316
#     4   9  16  28  50  83 118 144 172 218 272 322
#     4   9  17  29  49  79 111 142 176 217 269 320
#
# _framework density 20.952562
#
# number of rings (size 3 to 8) (size 9 to 14) (size 15 to 20)
#    0.000    3.000    0.000    1.200    0.000    5.600 
#    0.000    0.000    0.000    4.800    0.000   19.600 
#    0.000   48.000    0.000    0.000    0.000    0.000 
#
# Total GULP energy -111717.237721 kJ/mol
# GULP energy per Si atom -5585.861886 kJ/mol
# Density = 2.090487 g / cm^3
# Si number density = 20.952562 Si / 1000 Ang^3
#
#
#
# Elastic Constant Matrix: (Units=GPa)
#
#
# Indices 1 2 3 4 5 6 
#
# 1 74.0501 41.4557 71.0411 0.0000 0.0000 0.0000
# 2 41.4557 74.0488 71.0410 0.0000 0.0000 0.0000
# 3 71.0411 71.0410 200.3928 0.0000 0.0000 0.0000
# 4 0.0000 0.0000 0.0000 31.5784 0.0000 0.0000
# 5 0.0000 0.0000 0.0000 0.0000 31.5784 0.0000
# 6 0.0000 0.0000 0.0000 0.0000 0.0000 23.9084
#
#
#
# Elastic Compliance Matrix: (Units=1/GPa)
#
#
# Indices 1 2 3 4 5 6 
#
# 1 0.023016 -0.007664 -0.005443 0.000000 0.000000 0.000000
# 2 -0.007664 0.023017 -0.005443 0.000000 0.000000 0.000000
# 3 -0.005443 -0.005443 0.008849 0.000000 0.000000 0.000000
# 4 0.000000 0.000000 0.000000 0.031667 0.000000 0.000000
# 5 0.000000 0.000000 0.000000 0.000000 0.031667 0.000000
# 6 0.000000 0.000000 0.000000 0.000000 0.000000 0.041826
#
#
# Mechanical properties :
#
#
# Convention : Reuss Voigt Hill
#
# Bulk Modulus (GPa) = 56.23117 79.50749 67.86933
# Shear Modulus (GPa) = 24.62209 28.40996 26.51602
#
# Velocity S-wave (km/s) = 3.43174 3.68627 3.56128
# Velocity P-wave (km/s) = 6.52672 7.49313 7.02656
#
# Compressibility (1/GPa) = 0.01778373
#
# Stress axis : x y z
#
# Youngs Moduli (GPa) = 43.44735 43.44628 113.00565
#
# Poissons Ratio (x) = 0.33298 0.61504
# Poissons Ratio (y) = 0.33299 0.61506
# Poissons Ratio (z) = 0.23646 0.23647
#
# Static dielectric constant tensor:
#      x y z
#    x 1.789050 0.000000 0.000000 
#    y 0.000000 1.789050 0.000000 
#    z 0.000000 0.000000 1.686080 
# 
# From -- ./inp_files/3775.got.cif
#   From: 2010.05.17/outbox.cif.g08.bks.cpg/sg121_2_cif.got.tgz:3775.got - 2010.05.20 11:32:06.
