data_PCOD9560553
_publ_section_title
;
Structure prediction by ZEFSAII (Michael W. Deem and Ramdas Pophale) SiO2 
 PCOD9560553
Probable space group: I -4 2 M
;
_chemical_formula_sum "Si O2"
_cell_formula_units_Z 64
_cell_length_a 13.342762
_cell_length_b 13.342762
_cell_length_c 16.436011
_cell_angle_alpha 90.000000
_cell_angle_beta 90.000000
_cell_angle_gamma 90.000000
_cell_volume 2926.091497
_symmetry_space_group_name_H-M "I -4 2 M"
_symmetry_group_IT_number 121
_symmetry_cell_setting 'tetragonal'
loop_
_space_group_symop_operation_xyz
x,y,z
y,-x,-z
-x,-y,z
-y,x,-z
x,-y,-z
-x,y,-z
-y,-x,z
y,x,z
1/2+x,1/2+y,1/2+z
1/2+y,1/2-x,1/2-z
1/2-x,1/2-y,1/2+z
1/2-y,1/2+x,1/2-z
1/2+x,1/2-y,1/2-z
1/2-x,1/2+y,1/2-z
1/2-y,1/2-x,1/2+z
1/2+y,1/2+x,1/2+z
loop_
_atom_site_type_symbol
_atom_site_label
_atom_site_fract_x
_atom_site_fract_y
_atom_site_fract_z
Si Si1 0.433778 0.263243 0.418960
Si Si2 0.382045 0.780657 0.012773
Si Si3 0.726226 0.886560 0.670382
Si Si4 0.756213 0.925078 0.239555
O O1 0.500000 0.278792 0.500000
O O2 0.350846 0.350846 0.413358
O O3 0.370790 0.160320 0.432613
O O4 0.502758 0.264528 0.339084
O O5 0.320050 0.679951 0.034240
O O6 0.353105 0.807113 0.919231
O O7 0.500000 0.765786 0.000000
O O8 0.829807 0.829807 0.687504
O O9 0.643393 0.841673 0.729820
O O10 0.744181 0.003007 0.683488
O O11 0.850545 0.850545 0.243712
#
# Coordination Sequence:
#
# PCOD9560553 Si02
#       4
#    16  16  16  16
#     4  11  22  40  66  96 129 166 214 275 335 392
#     4  10  23  43  65  93 130 171 217 270 323 390
#     4  10  23  43  63  91 130 166 210 265 323 393
#     4  11  24  43  65  95 133 172 217 273 333 399
#
# _framework density 21.87218
#
# number of rings (size 3 to 8) (size 9 to 14) (size 15 to 20)
#    0.000    1.500    2.500    1.500    3.500    5.500 
#    0.000    2.500    0.000    0.000    0.000    0.000 
#    0.000    0.000    0.000    0.000    0.000    0.000 
#
# Total GULP energy -178836.002634 kJ/mol
# GULP energy per Si atom -5588.625082 kJ/mol
# Density = 2.182240 g / cm^3
# Si number density = 21.872180 Si / 1000 Ang^3
#
#
#
# Elastic Constant Matrix: (Units=GPa)
#
#
# Indices 1 2 3 4 5 6 
#
# 1 113.3361 40.6801 12.4942 0.0000 0.0000 0.0000
# 2 40.6801 113.3347 12.4945 0.0000 0.0000 0.0000
# 3 12.4942 12.4945 75.9944 0.0000 0.0000 0.0000
# 4 0.0000 0.0000 0.0000 34.4748 0.0000 0.0000
# 5 0.0000 0.0000 0.0000 0.0000 34.4747 0.0000
# 6 0.0000 0.0000 0.0000 0.0000 0.0000 8.0465
#
#
#
# Elastic Compliance Matrix: (Units=1/GPa)
#
#
# Indices 1 2 3 4 5 6 
#
# 1 0.010217 -0.003546 -0.001097 0.000000 0.000000 0.000000
# 2 -0.003546 0.010217 -0.001097 0.000000 0.000000 0.000000
# 3 -0.001097 -0.001097 0.013520 0.000000 0.000000 0.000000
# 4 0.000000 0.000000 0.000000 0.029007 0.000000 0.000000
# 5 0.000000 0.000000 0.000000 0.000000 0.029007 0.000000
# 6 0.000000 0.000000 0.000000 0.000000 0.000000 0.124278
#
#
# Mechanical properties :
#
#
# Convention : Reuss Voigt Hill
#
# Bulk Modulus (GPa) = 44.49571 48.22254 46.35912
# Shear Modulus (GPa) = 21.25699 31.19896 26.22797
#
# Velocity S-wave (km/s) = 3.12087 3.78090 3.46663
# Velocity P-wave (km/s) = 5.77703 6.41526 6.10449
#
# Compressibility (1/GPa) = 0.02247408
#
# Stress axis : x y z
#
# Youngs Moduli (GPa) = 97.87478 97.87349 73.96719
#
# Poissons Ratio (x) = 0.34710 0.08112
# Poissons Ratio (y) = 0.34710 0.08113
# Poissons Ratio (z) = 0.10734 0.10735
#
# Static dielectric constant tensor:
#      x y z
#    x 1.765860 0.000000 0.000000 
#    y 0.000000 1.765860 0.000000 
#    z 0.000000 0.000000 1.881900 
# 
# From -- ./inp_files/6030.got.cif
#   From: 2010.05.17/outbox.cif.g08.bks.cpg/sg121_4_cif.got.tgz:6030.got - 2010.05.20 11:32:06.
