data_PCOD9560869
_publ_section_title
;
Structure prediction by ZEFSAII (Michael W. Deem and Ramdas Pophale) SiO2 
 PCOD9560869
Probable space group: I -4 2 D
;
_chemical_formula_sum "Si O2"
_cell_formula_units_Z 96
_cell_length_a 13.765171
_cell_length_b 13.765171
_cell_length_c 19.850604
_cell_angle_alpha 90.000000
_cell_angle_beta 90.000000
_cell_angle_gamma 90.000000
_cell_volume 3761.291109
_symmetry_space_group_name_H-M "I -4 2 D"
_symmetry_group_IT_number 122
_symmetry_cell_setting 'tetragonal'
loop_
_space_group_symop_operation_xyz
x,y,z
y,-x,-z
-x,-y,z
-y,x,-z
x,1/2-y,1/4-z
-x,1/2+y,1/4-z
-y,1/2-x,1/4+z
y,1/2+x,1/4+z
1/2+x,1/2+y,1/2+z
1/2+y,1/2-x,1/2-z
1/2-x,1/2-y,1/2+z
1/2-y,1/2+x,1/2-z
1/2+x,-y,3/4-z
1/2-x,y,3/4-z
1/2-y,-x,3/4+z
1/2+y,x,3/4+z
loop_
_atom_site_type_symbol
_atom_site_label
_atom_site_fract_x
_atom_site_fract_y
_atom_site_fract_z
Si Si1 0.797220 0.087533 0.041944
Si Si2 0.039123 0.720060 0.725890
Si Si3 0.796483 0.250000 0.625000
Si Si4 0.865800 0.750000 0.625000
Si Si5 0.000000 0.000000 0.083316
Si Si6 0.130072 0.910997 0.800946
Si Si7 0.336856 0.051537 0.133183
Si Si8 0.500000 0.500000 0.199113
O O1 0.773339 0.191259 0.075381
O O2 0.733127 0.020446 0.093150
O O3 0.743866 0.089113 0.968895
O O4 0.909124 0.055779 0.047098
O O5 0.124672 0.694544 0.672804
O O6 0.077755 0.818570 0.763932
O O7 0.025386 0.651807 0.789337
O O8 0.937504 0.738504 0.688916
O O9 0.794707 0.658575 0.624434
O O10 0.943780 0.919488 0.129791
O O11 0.088207 0.992369 0.750305
O O12 0.445506 0.067850 0.104189
#
# Coordination Sequence:
#
# PCOD9560869 Si02
#       8
#    16  16   8   8   8  16  16   8
#     4  10  22  39  63  93 124 170 221 269 324 399
#     4  10  20  37  56  84 129 177 212 255 338 392
#     4   9  22  42  55  86 134 168 207 278 317 394
#     4  11  24  36  51  90 142 164 213 288 307 402
#     4  11  20  38  72  95 121 183 219 260 353 394
#     4   9  18  37  61  89 132 166 209 276 316 383
#     4  11  22  34  57  89 123 176 214 263 330 399
#     4   9  18  34  53  83 126 164 207 260 316 368
#
# _framework density 25.523150000000001
#
# number of rings (size 3 to 8) (size 9 to 14) (size 15 to 20)
#    0.000    2.000    3.333    0.000    4.667    0.000 
#    0.000    0.833    0.000    0.000    0.000    0.000 
#    0.000    0.000    0.000    0.000    0.000    0.000 
#
# Total GULP energy -267322.853901 kJ/mol
# GULP energy per Si atom -5569.226123 kJ/mol
# Density = 2.546506 g / cm^3
# Si number density = 25.523150 Si / 1000 Ang^3
#
#
#
# Elastic Constant Matrix: (Units=GPa)
#
#
# Indices 1 2 3 4 5 6 
#
# 1 50.8483 -14.0943 8.1678 0.0000 0.0000 0.0000
# 2 -14.0943 50.8483 8.1678 0.0000 0.0000 0.0000
# 3 8.1678 8.1678 51.4157 0.0000 0.0000 0.0000
# 4 0.0000 0.0000 0.0000 20.9871 0.0000 0.0000
# 5 0.0000 0.0000 0.0000 0.0000 20.9871 0.0000
# 6 0.0000 0.0000 0.0000 0.0000 0.0000 29.5731
#
#
#
# Elastic Compliance Matrix: (Units=1/GPa)
#
#
# Indices 1 2 3 4 5 6 
#
# 1 0.022337 0.006938 -0.004651 0.000000 0.000000 0.000000
# 2 0.006938 0.022337 -0.004651 0.000000 0.000000 0.000000
# 3 -0.004651 -0.004651 0.020927 0.000000 0.000000 0.000000
# 4 0.000000 0.000000 0.000000 0.047648 0.000000 0.000000
# 5 0.000000 0.000000 0.000000 0.000000 0.047648 0.000000
# 6 0.000000 0.000000 0.000000 0.000000 0.000000 0.033815
#
#
# Mechanical properties :
#
#
# Convention : Reuss Voigt Hill
#
# Bulk Modulus (GPa) = 16.42728 17.51056 16.96892
# Shear Modulus (GPa) = 22.75540 24.36753 23.56146
#
# Velocity S-wave (km/s) = 2.98914 3.09321 3.04162
# Velocity P-wave (km/s) = 4.28526 4.43089 4.35869
#
# Compressibility (1/GPa) = 0.06087436
#
# Stress axis : x y z
#
# Youngs Moduli (GPa) = 44.76970 44.76970 47.78545
#
# Poissons Ratio (x) = -0.31063 0.22223
# Poissons Ratio (y) = -0.31063 0.22223
# Poissons Ratio (z) = 0.20820 0.20820
#
# Static dielectric constant tensor:
#      x y z
#    x 2.211680 0.000000 0.000000 
#    y 0.000000 2.211680 0.000000 
#    z 0.000000 0.000000 2.108650 
# 
# From -- ./inp_files/7380.got.cif
#   From: 2010.05.17/outbox.cif.g08.bks.cpg/sg122_4_cif.got.tgz:7380.got - 2010.05.20 11:37:33.
