data_PCOD9560340
_publ_section_title
;
Structure prediction by ZEFSAII (Michael W. Deem and Ramdas Pophale) SiO2 
 PCOD9560340
Probable space group: I -4 2 M
;
_chemical_formula_sum "Si O2"
_cell_formula_units_Z 84
_cell_length_a 11.171162
_cell_length_b 11.171162
_cell_length_c 31.958547
_cell_angle_alpha 90.000000
_cell_angle_beta 90.000000
_cell_angle_gamma 90.000000
_cell_volume 3988.262412
_symmetry_space_group_name_H-M "I -4 2 M"
_symmetry_group_IT_number 121
_symmetry_cell_setting 'tetragonal'
loop_
_space_group_symop_operation_xyz
x,y,z
y,-x,-z
-x,-y,z
-y,x,-z
x,-y,-z
-x,y,-z
-y,-x,z
y,x,z
1/2+x,1/2+y,1/2+z
1/2+y,1/2-x,1/2-z
1/2-x,1/2-y,1/2+z
1/2-y,1/2+x,1/2-z
1/2+x,1/2-y,1/2-z
1/2-x,1/2+y,1/2-z
1/2-y,1/2-x,1/2+z
1/2+y,1/2+x,1/2+z
loop_
_atom_site_type_symbol
_atom_site_label
_atom_site_fract_x
_atom_site_fract_y
_atom_site_fract_z
Si Si1 0.715213 0.038332 0.937552
Si Si2 0.320228 0.131330 0.482310
Si Si3 0.061563 0.247761 0.793618
Si Si4 0.605567 0.099930 0.853040
Si Si5 0.000000 0.000000 0.928490
Si Si6 0.263727 0.545019 0.201721
O O1 0.700778 0.115451 0.979446
O O2 0.662812 0.109754 0.898430
O O3 0.851893 0.001588 0.930522
O O4 0.637584 0.917638 0.945331
O O5 0.201148 0.201148 0.470276
O O6 0.299261 0.000000 0.500000
O O7 0.130339 0.130339 0.810073
O O8 0.158724 0.355155 0.793080
O O9 0.953612 0.293007 0.822226
O O10 0.017664 0.224961 0.746661
O O11 0.547934 0.217193 0.832654
O O12 0.500000 0.000000 0.854458
O O13 0.383597 0.616404 0.190832
#
# Coordination Sequence:
#
# PCOD9560340 Si02
#       6
#    16  16  16  16   4  16
#     4  11  23  43  64 101 135 177 222 279 345 402
#     4  11  23  41  70  98 138 178 226 266 332 406
#     4  10  20  35  60  89 119 165 222 276 342 404
#     4  10  21  39  66  91 134 174 223 277 338 410
#     4  12  24  41  72 100 140 172 220 284 360 388
#     4  10  20  38  62  90 121 174 229 280 339 403
#
# _framework density 21.061802
#
# number of rings (size 3 to 8) (size 9 to 14) (size 15 to 20)
#    0.000    1.524    3.810    2.286    1.333    2.095 
#    3.429    0.952    0.000    0.000    0.000    0.000 
#    0.000    0.000    0.000    0.000    0.000    0.000 
#
# Total GULP energy -234278.623262 kJ/mol
# GULP energy per Si atom -5578.062459 kJ/mol
# Density = 2.101386 g / cm^3
# Si number density = 21.061802 Si / 1000 Ang^3
#
#
#
# Elastic Constant Matrix: (Units=GPa)
#
#
# Indices 1 2 3 4 5 6 
#
# 1 96.6431 40.0445 27.6501 0.0000 0.0000 0.0000
# 2 40.0445 96.6441 27.6500 0.0000 0.0000 0.0000
# 3 27.6501 27.6500 97.4921 0.0000 0.0000 0.0000
# 4 0.0000 0.0000 0.0000 -1.6376 0.0000 0.0000
# 5 0.0000 0.0000 0.0000 0.0000 -1.6375 0.0000
# 6 0.0000 0.0000 0.0000 0.0000 0.0000 23.5782
#
#
#
# Elastic Compliance Matrix: (Units=1/GPa)
#
#
# Indices 1 2 3 4 5 6 
#
# 1 0.012966 -0.004702 -0.002344 0.000000 0.000000 0.000000
# 2 -0.004702 0.012966 -0.002344 0.000000 0.000000 0.000000
# 3 -0.002344 -0.002344 0.011587 0.000000 0.000000 0.000000
# 4 0.000000 0.000000 0.000000 -0.610663 0.000000 0.000000
# 5 0.000000 0.000000 0.000000 0.000000 -0.610677 0.000000
# 6 0.000000 0.000000 0.000000 0.000000 0.000000 0.042412
#
#
# Mechanical properties :
#
#
# Convention : Reuss Voigt Hill
#
# Bulk Modulus (GPa) = 53.36249 53.49650 53.42950
# Shear Modulus (GPa) = -4.47875 17.08960 6.30543
#
# Velocity S-wave (km/s) = -1.45983 2.85160 1.73213
# Velocity P-wave (km/s) = 4.74865 6.02471 5.42433
#
# Compressibility (1/GPa) = 0.01873975
#
# Stress axis : x y z
#
# Youngs Moduli (GPa) = 77.12345 77.12434 86.30574
#
# Poissons Ratio (x) = 0.36264 0.20229
# Poissons Ratio (y) = 0.36263 0.20228
# Poissons Ratio (z) = 0.18077 0.18076
#
# Static dielectric constant tensor:
#      x y z
#    x 1.763100 0.000000 0.000000 
#    y 0.000000 1.763100 0.000000 
#    z 0.000000 0.000000 1.751600 
# 
# From -- ./inp_files/8191.got.cif
#   From: 2010.05.17/outbox.cif.g08.bks.cpg/sg121_5_cif.got.tgz:8191.got - 2010.05.20 11:32:06.
