data_PCOD9560202
_publ_section_title
;
Structure prediction by ZEFSAII (Michael W. Deem and Ramdas Pophale) SiO2 
 PCOD9560202
Probable space group: I -4 2 M
;
_chemical_formula_sum "Si O2"
_cell_formula_units_Z 80
_cell_length_a 11.577110
_cell_length_b 11.577110
_cell_length_c 33.224473
_cell_angle_alpha 90.000000
_cell_angle_beta 90.000000
_cell_angle_gamma 90.000000
_cell_volume 4453.058705
_symmetry_space_group_name_H-M "I -4 2 M"
_symmetry_group_IT_number 121
_symmetry_cell_setting 'tetragonal'
loop_
_space_group_symop_operation_xyz
x,y,z
y,-x,-z
-x,-y,z
-y,x,-z
x,-y,-z
-x,y,-z
-y,-x,z
y,x,z
1/2+x,1/2+y,1/2+z
1/2+y,1/2-x,1/2-z
1/2-x,1/2-y,1/2+z
1/2-y,1/2+x,1/2-z
1/2+x,1/2-y,1/2-z
1/2-x,1/2+y,1/2-z
1/2-y,1/2-x,1/2+z
1/2+y,1/2+x,1/2+z
loop_
_atom_site_type_symbol
_atom_site_label
_atom_site_fract_x
_atom_site_fract_y
_atom_site_fract_z
Si Si1 0.190430 0.994357 0.452523
Si Si2 0.732227 0.547399 0.171968
Si Si3 0.973082 0.631745 0.164938
Si Si4 0.691709 0.502589 0.736595
Si Si5 0.868138 0.316919 0.610072
O O1 0.128704 0.871297 0.443019
O O2 0.216261 0.000000 0.500000
O O3 0.296413 0.039856 0.425816
O O4 0.089922 0.089922 0.445197
O O5 0.610231 0.610231 0.165336
O O6 0.836012 0.631463 0.158329
O O7 0.743262 0.521580 0.219362
O O8 0.751136 0.431723 0.146948
O O9 0.002780 0.717172 0.200932
O O10 0.000000 0.500000 0.177489
O O11 0.053812 0.651776 0.126073
O O12 0.595311 0.404690 0.729875
O O13 0.624952 0.624952 0.737148
O O14 0.749594 0.250407 0.600729
#
# Coordination Sequence:
#
# PCOD9560202 Si02
#       5
#    16  16  16  16  16
#     4   8  14  26  47  76 107 136 166 203 248 298
#     4  10  21  33  48  67  91 127 170 213 254 294
#     4  10  22  33  47  67  97 130 164 200 251 305
#     4  10  21  36  52  69  90 123 173 224 259 290
#     4  10  19  31  50  74 101 129 160 201 249 302
#
# _framework density 17.965181000000001
#
# number of rings (size 3 to 8) (size 9 to 14) (size 15 to 20)
#    0.000    2.400    0.000    3.000    5.600    2.000 
#    0.000    0.000    0.000    5.400    0.000    0.000 
#    0.000    0.000    0.000    0.000    0.000  182.600 
#
# Total GULP energy -222971.731849 kJ/mol
# GULP energy per Si atom -5574.293296 kJ/mol
# Density = 1.792429 g / cm^3
# Si number density = 17.965181 Si / 1000 Ang^3
#
#
#
# Elastic Constant Matrix: (Units=GPa)
#
#
# Indices 1 2 3 4 5 6 
#
# 1 54.6397 12.8962 22.4587 0.0000 0.0000 0.0000
# 2 12.8962 54.6399 22.4590 0.0000 0.0000 0.0000
# 3 22.4587 22.4590 65.8840 0.0000 0.0000 0.0000
# 4 0.0000 0.0000 0.0000 15.4662 0.0000 0.0000
# 5 0.0000 0.0000 0.0000 0.0000 15.4666 0.0000
# 6 0.0000 0.0000 0.0000 0.0000 0.0000 14.9438
#
#
#
# Elastic Compliance Matrix: (Units=1/GPa)
#
#
# Indices 1 2 3 4 5 6 
#
# 1 0.021552 -0.002404 -0.006527 0.000000 0.000000 0.000000
# 2 -0.002404 0.021552 -0.006527 0.000000 0.000000 0.000000
# 3 -0.006527 -0.006527 0.019628 0.000000 0.000000 0.000000
# 4 0.000000 0.000000 0.000000 0.064657 0.000000 0.000000
# 5 0.000000 0.000000 0.000000 0.000000 0.064655 0.000000
# 6 0.000000 0.000000 0.000000 0.000000 0.000000 0.066917
#
#
# Mechanical properties :
#
#
# Convention : Reuss Voigt Hill
#
# Bulk Modulus (GPa) = 31.43131 32.31015 31.87073
# Shear Modulus (GPa) = 16.63982 16.99865 16.81924
#
# Velocity S-wave (km/s) = 3.04670 3.07937 3.06308
# Velocity P-wave (km/s) = 5.46902 5.53781 5.50352
#
# Compressibility (1/GPa) = 0.03181541
#
# Stress axis : x y z
#
# Youngs Moduli (GPa) = 46.39951 46.39944 50.94679
#
# Poissons Ratio (x) = 0.11153 0.33254
# Poissons Ratio (y) = 0.11153 0.33255
# Poissons Ratio (z) = 0.30286 0.30287
#
# Static dielectric constant tensor:
#      x y z
#    x 1.645830 0.000000 0.000000 
#    y 0.000000 1.645830 0.000000 
#    z 0.000000 0.000000 1.614410 
# 
# From -- ./inp_files/8055.got.cif
#   From: 2010.05.17/outbox.cif.g08.bks.cpg/sg121_5_cif.got.tgz:8055.got - 2010.05.20 11:32:06.
