data_PCOD9560645
_publ_section_title
;
Structure prediction by ZEFSAII (Michael W. Deem and Ramdas Pophale) SiO2 
 PCOD9560645
Probable space group: I -4 2 M
;
_chemical_formula_sum "Si O2"
_cell_formula_units_Z 36
_cell_length_a 9.838497
_cell_length_b 9.838497
_cell_length_c 18.034955
_cell_angle_alpha 90.000000
_cell_angle_beta 90.000000
_cell_angle_gamma 90.000000
_cell_volume 1745.711923
_symmetry_space_group_name_H-M "I -4 2 M"
_symmetry_group_IT_number 121
_symmetry_cell_setting 'tetragonal'
loop_
_space_group_symop_operation_xyz
x,y,z
y,-x,-z
-x,-y,z
-y,x,-z
x,-y,-z
-x,y,-z
-y,-x,z
y,x,z
1/2+x,1/2+y,1/2+z
1/2+y,1/2-x,1/2-z
1/2-x,1/2-y,1/2+z
1/2-y,1/2+x,1/2-z
1/2+x,1/2-y,1/2-z
1/2-x,1/2+y,1/2-z
1/2-y,1/2-x,1/2+z
1/2+y,1/2+x,1/2+z
loop_
_atom_site_type_symbol
_atom_site_label
_atom_site_fract_x
_atom_site_fract_y
_atom_site_fract_z
Si Si1 0.219731 0.780270 0.346084
Si Si2 0.270935 0.270935 0.822281
Si Si3 0.159011 0.506616 0.582362
Si Si4 0.500000 0.500000 0.843585
O O1 0.218535 0.781466 0.257080
O O2 0.371938 0.806964 0.372489
O O3 0.109597 0.890404 0.377150
O O4 0.388109 0.388109 0.811458
O O5 0.142128 0.318798 0.870274
O O6 0.224829 0.500000 0.500000
O O7 0.000000 0.500000 0.571652
#
# Coordination Sequence:
#
# PCOD9560645 Si02
#       4
#     8   8  16   4
#     4  12  25  45  75 104 145 187 249 302 369 445
#     4  12  25  45  75 104 145 187 249 302 369 445
#     4  11  25  45  68 103 146 187 234 302 375 433
#     4  12  24  44  69 108 133 188 248 298 344 440
#
# _framework density 20.621957999999999
#
# number of rings (size 3 to 8) (size 9 to 14) (size 15 to 20)
#    0.000    0.444    4.444    4.000    0.000    0.889 
#    0.000    6.667    0.000    0.000    0.000    0.000 
#    0.000    0.000    0.000    0.000    0.000    0.000 
#
# Total GULP energy -100212.748356 kJ/mol
# GULP energy per Si atom -5567.374909 kJ/mol
# Density = 2.057502 g / cm^3
# Si number density = 20.621958 Si / 1000 Ang^3
#
#
#
# Elastic Constant Matrix: (Units=GPa)
#
#
# Indices 1 2 3 4 5 6 
#
# 1 132.5967 47.2174 37.6819 0.0000 0.0000 0.0000
# 2 47.2174 132.5947 37.6817 0.0000 0.0000 0.0000
# 3 37.6819 37.6817 146.6263 0.0000 0.0000 0.0000
# 4 0.0000 0.0000 0.0000 26.4285 0.0000 0.0000
# 5 0.0000 0.0000 0.0000 0.0000 26.4293 0.0000
# 6 0.0000 0.0000 0.0000 0.0000 0.0000 58.4360
#
#
#
# Elastic Compliance Matrix: (Units=1/GPa)
#
#
# Indices 1 2 3 4 5 6 
#
# 1 0.008973 -0.002740 -0.001602 0.000000 0.000000 0.000000
# 2 -0.002740 0.008973 -0.001602 0.000000 0.000000 0.000000
# 3 -0.001602 -0.001602 0.007643 0.000000 0.000000 0.000000
# 4 0.000000 0.000000 0.000000 0.037838 0.000000 0.000000
# 5 0.000000 0.000000 0.000000 0.000000 0.037837 0.000000
# 6 0.000000 0.000000 0.000000 0.000000 0.000000 0.017113
#
#
# Mechanical properties :
#
#
# Convention : Reuss Voigt Hill
#
# Bulk Modulus (GPa) = 72.98382 72.99775 72.99079
# Shear Modulus (GPa) = 37.08367 41.54120 39.31243
#
# Velocity S-wave (km/s) = 4.24519 4.49309 4.37090
# Velocity P-wave (km/s) = 7.71343 7.89887 7.80670
#
# Compressibility (1/GPa) = 0.01370167
#
# Stress axis : x y z
#
# Youngs Moduli (GPa) = 111.45104 111.44929 130.83303
#
# Poissons Ratio (x) = 0.30537 0.20956
# Poissons Ratio (y) = 0.30537 0.20956
# Poissons Ratio (z) = 0.17851 0.17851
#
# Static dielectric constant tensor:
#      x y z
#    x 1.750500 0.000000 0.000000 
#    y 0.000000 1.750520 0.000000 
#    z 0.000000 0.000000 1.753100 
# 
# From -- ./inp_files/5765.got.cif
#   From: 2010.05.17/outbox.cif.g08.bks.cpg/sg121_3_cif.got.tgz:5765.got - 2010.05.20 11:32:06.
