data_PCOD9560583
_publ_section_title
;
Structure prediction by ZEFSAII (Michael W. Deem and Ramdas Pophale) SiO2 
 PCOD9560583
Probable space group: I -4 2 M
;
_chemical_formula_sum "Si O2"
_cell_formula_units_Z 64
_cell_length_a 25.969633
_cell_length_b 25.969633
_cell_length_c 5.170641
_cell_angle_alpha 90.000000
_cell_angle_beta 90.000000
_cell_angle_gamma 90.000000
_cell_volume 3487.193208
_symmetry_space_group_name_H-M "I -4 2 M"
_symmetry_group_IT_number 121
_symmetry_cell_setting 'tetragonal'
loop_
_space_group_symop_operation_xyz
x,y,z
y,-x,-z
-x,-y,z
-y,x,-z
x,-y,-z
-x,y,-z
-y,-x,z
y,x,z
1/2+x,1/2+y,1/2+z
1/2+y,1/2-x,1/2-z
1/2-x,1/2-y,1/2+z
1/2-y,1/2+x,1/2-z
1/2+x,1/2-y,1/2-z
1/2-x,1/2+y,1/2-z
1/2-y,1/2-x,1/2+z
1/2+y,1/2+x,1/2+z
loop_
_atom_site_type_symbol
_atom_site_label
_atom_site_fract_x
_atom_site_fract_y
_atom_site_fract_z
Si Si1 0.885454 0.649531 0.038823
Si Si2 0.325614 0.753819 0.563408
Si Si3 0.703549 0.376563 0.061892
Si Si4 0.732820 0.032994 0.746413
O O1 0.873681 0.606686 0.254333
O O2 0.928311 0.687931 0.153165
O O3 0.835975 0.686328 0.979195
O O4 0.268749 0.731252 0.614334
O O5 0.346018 0.728366 0.301200
O O6 0.360487 0.732352 0.797940
O O7 0.645352 0.354649 0.038857
O O8 0.718628 0.434510 0.135919
O O9 0.714396 0.000000 0.500000
O O10 0.746681 0.000000 0.000000
#
# Coordination Sequence:
#
# PCOD9560583 Si02
#       4
#    16  16  16  16
#     4  11  21  33  48  70 101 134 169 211 253 301
#     4   9  17  29  45  67  97 135 172 200 234 285
#     4   9  17  31  49  70  99 134 171 211 251 298
#     4  11  21  35  53  75 103 137 176 218 264 312
#
# _framework density 18.352868999999998
#
# number of rings (size 3 to 8) (size 9 to 14) (size 15 to 20)
#    0.000    2.000    0.000    7.500    0.000    1.000 
#    0.000    0.000    0.000    0.000    0.000    0.000 
#    0.000   38.000    0.000    0.000    0.000    0.000 
#
# Total GULP energy -178294.908237 kJ/mol
# GULP energy per Si atom -5571.715882 kJ/mol
# Density = 1.831110 g / cm^3
# Si number density = 18.352869 Si / 1000 Ang^3
#
#
#
# Elastic Constant Matrix: (Units=GPa)
#
#
# Indices 1 2 3 4 5 6 
#
# 1 89.6639 -7.3730 31.1862 0.0000 0.0000 0.0000
# 2 -7.3730 89.6611 31.1826 0.0000 0.0000 0.0000
# 3 31.1862 31.1826 158.0449 0.0000 0.0000 0.0000
# 4 0.0000 0.0000 0.0000 34.9804 0.0000 0.0000
# 5 0.0000 0.0000 0.0000 0.0000 34.9805 0.0000
# 6 0.0000 0.0000 0.0000 0.0000 0.0000 10.8642
#
#
#
# Elastic Compliance Matrix: (Units=1/GPa)
#
#
# Indices 1 2 3 4 5 6 
#
# 1 0.012297 0.001992 -0.002820 0.000000 0.000000 0.000000
# 2 0.001992 0.012297 -0.002819 0.000000 0.000000 0.000000
# 3 -0.002820 -0.002819 0.007440 0.000000 0.000000 0.000000
# 4 0.000000 0.000000 0.000000 0.028587 0.000000 0.000000
# 5 0.000000 0.000000 0.000000 0.000000 0.028587 0.000000
# 6 0.000000 0.000000 0.000000 0.000000 0.000000 0.092045
#
#
# Mechanical properties :
#
#
# Convention : Reuss Voigt Hill
#
# Bulk Modulus (GPa) = 40.41964 49.70683 45.06324
# Shear Modulus (GPa) = 25.40707 34.98996 30.19851
#
# Velocity S-wave (km/s) = 3.72474 4.37110 4.06080
# Velocity P-wave (km/s) = 6.36943 7.25383 6.82597
#
# Compressibility (1/GPa) = 0.02474045
#
# Stress axis : x y z
#
# Youngs Moduli (GPa) = 81.31918 81.31786 134.40955
#
# Poissons Ratio (x) = -0.16197 0.37897
# Poissons Ratio (y) = -0.16197 0.37895
# Poissons Ratio (z) = 0.22928 0.22926
#
# Static dielectric constant tensor:
#      x y z
#    x 1.674790 0.000000 0.000000 
#    y 0.000000 1.674790 0.000000 
#    z 0.000000 0.000000 1.687050 
# 
# From -- ./inp_files/507.got.cif
#   From: 2010.05.17/outbox.cif.g08.bks.cpg/sg121_1_cif.got.tgz:507.got - 2010.05.20 11:32:06.
