data_PCOD9560925
_publ_section_title
;
Structure prediction by ZEFSAII (Michael W. Deem and Ramdas Pophale) SiO2 
 PCOD9560925
Probable space group: I -4 2 D
;
_chemical_formula_sum "Si O2"
_cell_formula_units_Z 88
_cell_length_a 26.989509
_cell_length_b 26.989509
_cell_length_c 5.440880
_cell_angle_alpha 90.000000
_cell_angle_beta 90.000000
_cell_angle_gamma 90.000000
_cell_volume 3963.319784
_symmetry_space_group_name_H-M "I -4 2 D"
_symmetry_group_IT_number 122
_symmetry_cell_setting 'tetragonal'
loop_
_space_group_symop_operation_xyz
x,y,z
y,-x,-z
-x,-y,z
-y,x,-z
x,1/2-y,1/4-z
-x,1/2+y,1/4-z
-y,1/2-x,1/4+z
y,1/2+x,1/4+z
1/2+x,1/2+y,1/2+z
1/2+y,1/2-x,1/2-z
1/2-x,1/2-y,1/2+z
1/2-y,1/2+x,1/2-z
1/2+x,-y,3/4-z
1/2-x,y,3/4-z
1/2-y,-x,3/4+z
1/2+y,x,3/4+z
loop_
_atom_site_type_symbol
_atom_site_label
_atom_site_fract_x
_atom_site_fract_y
_atom_site_fract_z
Si Si1 0.750000 0.778916 0.875000
Si Si2 0.959459 0.138934 0.683594
Si Si3 0.845494 0.995312 0.818211
Si Si4 0.644624 0.693895 0.183430
Si Si5 0.578760 0.250000 0.125000
Si Si6 0.923765 0.250000 0.125000
Si Si7 0.850425 0.106841 0.808376
O O1 0.733639 0.750000 0.625000
O O2 0.799646 0.804141 0.780023
O O3 0.952203 0.198835 0.642722
O O4 0.909258 0.114651 0.784523
O O5 0.973938 0.122570 0.408953
O O6 0.997046 0.131260 0.908761
O O7 0.833059 0.051230 0.745970
O O8 0.797851 0.959349 0.853599
O O9 0.627362 0.750000 0.125000
O O10 0.617468 0.668302 0.415149
O O11 0.640555 0.668196 0.918214
O O12 0.607289 0.251512 0.378286
#
# Coordination Sequence:
#
# PCOD9560925 Si02
#       7
#     8  16  16  16   8   8  16
#     4  10  20  40  60  80 130 182 206 244 298 352
#     4  10  21  39  59  85 122 157 208 250 316 386
#     4  10  21  38  59  85 120 158 197 267 315 372
#     4  11  24  39  59  94 129 166 213 257 302 378
#     4   8  16  32  53  80 108 149 189 242 290 357
#     4   8  16  30  53  78 108 147 185 232 316 361
#     4  12  24  39  64  94 120 166 213 263 323 373
#
# _framework density 22.203610000000001
#
# number of rings (size 3 to 8) (size 9 to 14) (size 15 to 20)
#    0.000    1.818    0.000    4.909    2.545    1.455 
#    3.273    1.818    0.000    3.273    0.000    0.000 
#    0.000    0.000    0.000    0.000    0.000    0.000 
#
# Total GULP energy -245089.376312 kJ/mol
# GULP energy per Si atom -5570.213098 kJ/mol
# Density = 2.215307 g / cm^3
# Si number density = 22.203610 Si / 1000 Ang^3
#
#
#
# Elastic Constant Matrix: (Units=GPa)
#
#
# Indices 1 2 3 4 5 6 
#
# 1 56.6416 -2.3633 23.0144 0.0000 0.0000 0.0000
# 2 -2.3633 56.6416 23.0144 0.0000 0.0000 0.0000
# 3 23.0144 23.0144 226.9523 0.0000 0.0000 0.0000
# 4 0.0000 0.0000 0.0000 31.5562 0.0000 0.0000
# 5 0.0000 0.0000 0.0000 0.0000 31.5562 0.0000
# 6 0.0000 0.0000 0.0000 0.0000 0.0000 -0.2377
#
#
#
# Elastic Compliance Matrix: (Units=1/GPa)
#
#
# Indices 1 2 3 4 5 6 
#
# 1 0.018552 0.001605 -0.002044 0.000000 0.000000 0.000000
# 2 0.001605 0.018552 -0.002044 0.000000 0.000000 0.000000
# 3 -0.002044 -0.002044 0.004821 0.000000 0.000000 0.000000
# 4 0.000000 0.000000 0.000000 0.031690 0.000000 0.000000
# 5 0.000000 0.000000 0.000000 0.000000 0.031690 0.000000
# 6 0.000000 0.000000 0.000000 0.000000 0.000000 -4.207832
#
#
# Mechanical properties :
#
#
# Convention : Reuss Voigt Hill
#
# Bulk Modulus (GPa) = 27.05740 47.50740 37.28240
# Shear Modulus (GPa) = -1.22392 32.34628 15.56118
#
# Velocity S-wave (km/s) = -0.74325 3.82095 2.65021
# Velocity P-wave (km/s) = 3.38761 6.39601 5.11785
#
# Compressibility (1/GPa) = 0.03695846
#
# Stress axis : x y z
#
# Youngs Moduli (GPa) = 53.90159 53.90159 207.43579
#
# Poissons Ratio (x) = -0.08649 0.42401
# Poissons Ratio (y) = -0.08649 0.42401
# Poissons Ratio (z) = 0.11018 0.11018
#
# Static dielectric constant tensor:
#      x y z
#    x 1.871000 0.000000 0.000000 
#    y 0.000000 1.871000 0.000000 
#    z 0.000000 0.000000 1.945890 
# 
# From -- ./inp_files/1457.got.cif
#   From: 2010.05.17/outbox.cif.g08.bks.cpg/sg122_1_cif.got.tgz:1457.got - 2010.05.20 11:37:33.
