data_PCOD9560689
_publ_section_title
;
Structure prediction by ZEFSAII (Michael W. Deem and Ramdas Pophale) SiO2 
 PCOD9560689
Probable space group: I -4 2 D
;
_chemical_formula_sum "Si O2"
_cell_formula_units_Z 100
_cell_length_a 25.920053
_cell_length_b 25.920053
_cell_length_c 6.835135
_cell_angle_alpha 90.000000
_cell_angle_beta 90.000000
_cell_angle_gamma 90.000000
_cell_volume 4592.179623
_symmetry_space_group_name_H-M "I -4 2 D"
_symmetry_group_IT_number 122
_symmetry_cell_setting 'tetragonal'
loop_
_space_group_symop_operation_xyz
x,y,z
y,-x,-z
-x,-y,z
-y,x,-z
x,1/2-y,1/4-z
-x,1/2+y,1/4-z
-y,1/2-x,1/4+z
y,1/2+x,1/4+z
1/2+x,1/2+y,1/2+z
1/2+y,1/2-x,1/2-z
1/2-x,1/2-y,1/2+z
1/2-y,1/2+x,1/2-z
1/2+x,-y,3/4-z
1/2-x,y,3/4-z
1/2-y,-x,3/4+z
1/2+y,x,3/4+z
loop_
_atom_site_type_symbol
_atom_site_label
_atom_site_fract_x
_atom_site_fract_y
_atom_site_fract_z
Si Si1 0.080328 0.832959 0.484797
Si Si2 0.750000 0.335812 0.375000
Si Si3 0.081836 0.919640 0.168131
Si Si4 0.250000 0.001384 0.375000
Si Si5 0.592694 0.696122 0.307513
Si Si6 0.500000 0.000000 0.250000
Si Si7 0.463723 0.918816 0.996692
Si Si8 0.318226 0.198512 0.246156
O O1 0.069201 0.871161 0.304200
O O2 0.037637 0.789376 0.510020
O O3 0.071299 0.873175 0.665510
O O4 0.137270 0.806859 0.468184
O O5 0.725143 0.371917 0.538488
O O6 0.789798 0.307922 0.523245
O O7 0.139924 0.909816 0.101704
O O8 0.088238 0.974782 0.273736
O O9 0.045937 0.923573 0.981794
O O10 0.280485 0.963105 0.519638
O O11 0.622943 0.695430 0.097406
O O12 0.526815 0.957856 0.391150
O O13 0.297886 0.250000 0.125000
#
# Coordination Sequence:
#
# PCOD9560689 Si02
#       8
#    16   8  16   8  16   4  16  16
#     4  11  25  42  64  95 134 172 227 290 339 399
#     4  10  16  32  64  88 114 160 212 264 316 408
#     4  11  24  40  62  91 131 178 219 267 338 422
#     4  12  22  44  64  92 132 172 226 290 346 390
#     4  10  20  37  59  92 121 164 217 267 331 398
#     4  12  24  42  60  92 142 184 224 270 332 408
#     4  12  23  40  60  93 134 180 221 263 331 414
#     4   9  19  38  64  91 121 165 222 265 335 409
#
# _framework density 21.776150999999999
#
# number of rings (size 3 to 8) (size 9 to 14) (size 15 to 20)
#    0.000    1.280    5.600    1.920    0.000    1.280 
#    0.000    0.000    1.760    0.000    0.000    0.000 
#    0.000    0.000    0.000    0.000    0.000    0.000 
#
# Total GULP energy -278402.038197 kJ/mol
# GULP energy per Si atom -5568.040764 kJ/mol
# Density = 2.172659 g / cm^3
# Si number density = 21.776151 Si / 1000 Ang^3
#
#
#
# Elastic Constant Matrix: (Units=GPa)
#
#
# Indices 1 2 3 4 5 6 
#
# 1 72.1018 21.7348 18.5553 0.0000 0.0000 0.0000
# 2 21.7348 72.1018 18.5553 0.0000 0.0000 0.0000
# 3 18.5553 18.5553 115.9503 0.0000 0.0000 0.0000
# 4 0.0000 0.0000 0.0000 25.9212 0.0000 0.0000
# 5 0.0000 0.0000 0.0000 0.0000 25.9212 0.0000
# 6 0.0000 0.0000 0.0000 0.0000 0.0000 32.4839
#
#
#
# Elastic Compliance Matrix: (Units=1/GPa)
#
#
# Indices 1 2 3 4 5 6 
#
# 1 0.015616 -0.004239 -0.001821 0.000000 0.000000 0.000000
# 2 -0.004239 0.015616 -0.001821 0.000000 0.000000 0.000000
# 3 -0.001821 -0.001821 0.009207 0.000000 0.000000 0.000000
# 4 0.000000 0.000000 0.000000 0.038578 0.000000 0.000000
# 5 0.000000 0.000000 0.000000 0.000000 0.038578 0.000000
# 6 0.000000 0.000000 0.000000 0.000000 0.000000 0.030785
#
#
# Mechanical properties :
#
#
# Convention : Reuss Voigt Hill
#
# Bulk Modulus (GPa) = 40.52141 41.98274 41.25207
# Shear Modulus (GPa) = 29.00810 30.28582 29.64696
#
# Velocity S-wave (km/s) = 3.65376 3.73336 3.69377
# Velocity P-wave (km/s) = 6.03726 6.15671 6.09728
#
# Compressibility (1/GPa) = 0.02467831
#
# Stress axis : x y z
#
# Youngs Moduli (GPa) = 64.03867 64.03867 108.61201
#
# Poissons Ratio (x) = 0.27144 0.19774
# Poissons Ratio (y) = 0.27144 0.19774
# Poissons Ratio (z) = 0.11659 0.11659
#
# Static dielectric constant tensor:
#      x y z
#    x 1.938800 0.000000 0.000000 
#    y 0.000000 1.938800 0.000000 
#    z 0.000000 0.000000 1.863420 
# 
# From -- ./inp_files/1512.got.cif
#   From: 2010.05.17/outbox.cif.g08.bks.cpg/sg122_1_cif.got.tgz:1512.got - 2010.05.20 11:37:33.
