data_PCOD9560613
_publ_section_title
;
Structure prediction by ZEFSAII (Michael W. Deem and Ramdas Pophale) SiO2 
 PCOD9560613
Probable space group: I -4 2 M
;
_chemical_formula_sum "Si O2"
_cell_formula_units_Z 40
_cell_length_a 14.289929
_cell_length_b 14.289929
_cell_length_c 9.598870
_cell_angle_alpha 90.000000
_cell_angle_beta 90.000000
_cell_angle_gamma 90.000000
_cell_volume 1960.109132
_symmetry_space_group_name_H-M "I -4 2 M"
_symmetry_group_IT_number 121
_symmetry_cell_setting 'tetragonal'
loop_
_space_group_symop_operation_xyz
x,y,z
y,-x,-z
-x,-y,z
-y,x,-z
x,-y,-z
-x,y,-z
-y,-x,z
y,x,z
1/2+x,1/2+y,1/2+z
1/2+y,1/2-x,1/2-z
1/2-x,1/2-y,1/2+z
1/2-y,1/2+x,1/2-z
1/2+x,1/2-y,1/2-z
1/2-x,1/2+y,1/2-z
1/2-y,1/2-x,1/2+z
1/2+y,1/2+x,1/2+z
loop_
_atom_site_type_symbol
_atom_site_label
_atom_site_fract_x
_atom_site_fract_y
_atom_site_fract_z
Si Si1 0.155173 0.000000 0.500000
Si Si2 0.099780 0.609862 0.950954
Si Si3 0.122817 0.727043 0.685079
O O1 0.217036 0.029791 0.366087
O O2 0.088176 0.088176 0.530104
O O3 0.108440 0.641661 0.791733
O O4 0.101286 0.500000 0.000000
O O5 0.181698 0.655841 0.040202
O O6 0.000000 0.646529 0.000000
O O7 0.197572 0.802429 0.737690
#
# Coordination Sequence:
#
# PCOD9560613 Si02
#       3
#     8  16  16
#     4   9  20  40  65  92 126 162 205 262 314 363
#     4  11  23  40  60  86 126 167 202 253 315 364
#     4  11  22  40  64  93 121 160 211 254 308 370
#
# _framework density 20.407025000000001
#
# number of rings (size 3 to 8) (size 9 to 14) (size 15 to 20)
#    0.000    1.400    2.000    3.600    0.000    3.200 
#    0.000    2.000    0.000    0.000    0.000    0.000 
#    0.000    0.000    0.000    0.000    0.000    0.000 
#
# Total GULP energy -111395.830835 kJ/mol
# GULP energy per Si atom -5569.791542 kJ/mol
# Density = 2.036058 g / cm^3
# Si number density = 20.407025 Si / 1000 Ang^3
#
#
#
# Elastic Constant Matrix: (Units=GPa)
#
#
# Indices 1 2 3 4 5 6 
#
# 1 92.8993 29.4843 40.7693 0.0000 0.0000 0.0000
# 2 29.4843 92.8980 40.7701 0.0000 0.0000 0.0000
# 3 40.7693 40.7701 120.8386 0.0000 0.0000 0.0000
# 4 0.0000 0.0000 0.0000 32.4905 0.0000 0.0000
# 5 0.0000 0.0000 0.0000 0.0000 32.4910 0.0000
# 6 0.0000 0.0000 0.0000 0.0000 0.0000 5.4042
#
#
#
# Elastic Compliance Matrix: (Units=1/GPa)
#
#
# Indices 1 2 3 4 5 6 
#
# 1 0.013155 -0.002614 -0.003556 0.000000 0.000000 0.000000
# 2 -0.002614 0.013155 -0.003556 0.000000 0.000000 0.000000
# 3 -0.003556 -0.003556 0.010675 0.000000 0.000000 0.000000
# 4 0.000000 0.000000 0.000000 0.030778 0.000000 0.000000
# 5 0.000000 0.000000 0.000000 0.000000 0.030778 0.000000
# 6 0.000000 0.000000 0.000000 0.000000 0.000000 0.185042
#
#
# Mechanical properties :
#
#
# Convention : Reuss Voigt Hill
#
# Bulk Modulus (GPa) = 57.04135 58.74260 57.89198
# Shear Modulus (GPa) = 16.18748 27.11794 21.65271
#
# Velocity S-wave (km/s) = 2.81949 3.64930 3.26090
# Velocity P-wave (km/s) = 6.21385 6.82675 6.52749
#
# Compressibility (1/GPa) = 0.01753114
#
# Stress axis : x y z
#
# Youngs Moduli (GPa) = 76.01826 76.01643 93.67521
#
# Poissons Ratio (x) = 0.19874 0.33312
# Poissons Ratio (y) = 0.19874 0.33314
# Poissons Ratio (z) = 0.27033 0.27034
#
# Static dielectric constant tensor:
#      x y z
#    x 1.791910 0.000000 0.000000 
#    y 0.000000 1.791910 0.000000 
#    z 0.000000 0.000000 1.749220 
# 
# From -- ./inp_files/979.got.cif
#   From: 2010.05.17/outbox.cif.g08.bks.cpg/sg121_1_cif.got.tgz:979.got - 2010.05.20 11:32:06.
