data_PCOD9560404
_publ_section_title
;
Structure prediction by ZEFSAII (Michael W. Deem and Ramdas Pophale) SiO2 
 PCOD9560404
Probable space group: I -4 2 M
;
_chemical_formula_sum "Si O2"
_cell_formula_units_Z 58
_cell_length_a 15.256760
_cell_length_b 15.256760
_cell_length_c 13.451176
_cell_angle_alpha 90.000000
_cell_angle_beta 90.000000
_cell_angle_gamma 90.000000
_cell_volume 3131.013097
_symmetry_space_group_name_H-M "I -4 2 M"
_symmetry_group_IT_number 121
_symmetry_cell_setting 'tetragonal'
loop_
_space_group_symop_operation_xyz
x,y,z
y,-x,-z
-x,-y,z
-y,x,-z
x,-y,-z
-x,y,-z
-y,-x,z
y,x,z
1/2+x,1/2+y,1/2+z
1/2+y,1/2-x,1/2-z
1/2-x,1/2-y,1/2+z
1/2-y,1/2+x,1/2-z
1/2+x,1/2-y,1/2-z
1/2-x,1/2+y,1/2-z
1/2-y,1/2-x,1/2+z
1/2+y,1/2+x,1/2+z
loop_
_atom_site_type_symbol
_atom_site_label
_atom_site_fract_x
_atom_site_fract_y
_atom_site_fract_z
Si Si1 0.930848 0.069153 0.802613
Si Si2 0.765172 0.091837 0.538841
Si Si3 0.838967 0.308829 0.334276
Si Si4 0.974461 0.267223 0.745683
Si Si5 0.000000 0.000000 0.000000
O O1 0.958508 0.165118 0.768727
O O2 0.942660 0.057341 0.922607
O O3 0.000000 0.000000 0.759029
O O4 0.840465 0.159536 0.565844
O O5 0.712057 0.132191 0.447033
O O6 0.712478 0.067442 0.637338
O O7 0.804088 0.000000 0.500000
O O8 0.755388 0.244613 0.311784
O O9 0.816899 0.410888 0.321427
O O10 0.922505 0.286043 0.264530
#
# Coordination Sequence:
#
# PCOD9560404 Si02
#       5
#     8  16  16  16   2
#     4  10  20  40  59  85 121 158 198 247 295 353
#     4   9  18  33  53  83 116 147 199 255 297 355
#     4  10  21  37  58  90 117 156 207 250 302 363
#     4  11  20  39  61  83 120 162 195 249 308 352
#     4   8  24  40  52  92 126 144 216 244 276 388
#
# _framework density 18.524356999999998
#
# number of rings (size 3 to 8) (size 9 to 14) (size 15 to 20)
#    0.414    1.655    2.759    0.828    0.000    1.931 
#    4.966    0.000    0.000    4.966    0.000    0.000 
#    0.000    0.000    0.000    0.000    0.000    0.000 
#
# Total GULP energy -161493.429127 kJ/mol
# GULP energy per Si atom -5568.738935 kJ/mol
# Density = 1.848219 g / cm^3
# Si number density = 18.524357 Si / 1000 Ang^3
#
#
#
# Elastic Constant Matrix: (Units=GPa)
#
#
# Indices 1 2 3 4 5 6 
#
# 1 53.9997 12.8158 11.0586 0.0000 0.0000 0.0000
# 2 12.8158 53.9990 11.0573 0.0000 0.0000 0.0000
# 3 11.0586 11.0573 45.7127 0.0000 0.0000 0.0000
# 4 0.0000 0.0000 0.0000 21.2220 0.0000 0.0000
# 5 0.0000 0.0000 0.0000 0.0000 21.2217 0.0000
# 6 0.0000 0.0000 0.0000 0.0000 0.0000 24.7808
#
#
#
# Elastic Compliance Matrix: (Units=1/GPa)
#
#
# Indices 1 2 3 4 5 6 
#
# 1 0.020275 -0.004006 -0.003936 0.000000 0.000000 0.000000
# 2 -0.004006 0.020275 -0.003935 0.000000 0.000000 0.000000
# 3 -0.003936 -0.003935 0.023780 0.000000 0.000000 0.000000
# 4 0.000000 0.000000 0.000000 0.047121 0.000000 0.000000
# 5 0.000000 0.000000 0.000000 0.000000 0.047122 0.000000
# 6 0.000000 0.000000 0.000000 0.000000 0.000000 0.040354
#
#
# Mechanical properties :
#
#
# Convention : Reuss Voigt Hill
#
# Bulk Modulus (GPa) = 24.64500 24.84166 24.74333
# Shear Modulus (GPa) = 21.16790 21.36356 21.26573
#
# Velocity S-wave (km/s) = 3.38406 3.39967 3.39187
# Velocity P-wave (km/s) = 5.34810 5.37119 5.35966
#
# Compressibility (1/GPa) = 0.04057618
#
# Stress axis : x y z
#
# Youngs Moduli (GPa) = 49.32076 49.32070 42.05252
#
# Poissons Ratio (x) = 0.19758 0.16552
# Poissons Ratio (y) = 0.19758 0.16549
# Poissons Ratio (z) = 0.19412 0.19409
#
# Static dielectric constant tensor:
#      x y z
#    x 1.633740 0.000000 0.000000 
#    y 0.000000 1.633740 0.000000 
#    z 0.000000 0.000000 1.687760 
# 
# From -- ./inp_files/4088.got.cif
#   From: 2010.05.17/outbox.cif.g08.bks.cpg/sg121_3_cif.got.tgz:4088.got - 2010.05.20 11:32:06.
