data_PCOD9560282
_publ_section_title
;
Structure prediction by ZEFSAII (Michael W. Deem and Ramdas Pophale) SiO2 
 PCOD9560282
Probable space group: I -4 2 M
;
_chemical_formula_sum "Si O2"
_cell_formula_units_Z 80
_cell_length_a 17.879122
_cell_length_b 17.879122
_cell_length_c 13.594982
_cell_angle_alpha 90.000000
_cell_angle_beta 90.000000
_cell_angle_gamma 90.000000
_cell_volume 4345.812779
_symmetry_space_group_name_H-M "I -4 2 M"
_symmetry_group_IT_number 121
_symmetry_cell_setting 'tetragonal'
loop_
_space_group_symop_operation_xyz
x,y,z
y,-x,-z
-x,-y,z
-y,x,-z
x,-y,-z
-x,y,-z
-y,-x,z
y,x,z
1/2+x,1/2+y,1/2+z
1/2+y,1/2-x,1/2-z
1/2-x,1/2-y,1/2+z
1/2-y,1/2+x,1/2-z
1/2+x,1/2-y,1/2-z
1/2-x,1/2+y,1/2-z
1/2-y,1/2-x,1/2+z
1/2+y,1/2+x,1/2+z
loop_
_atom_site_type_symbol
_atom_site_label
_atom_site_fract_x
_atom_site_fract_y
_atom_site_fract_z
Si Si1 0.187208 0.362103 0.884096
Si Si2 0.525600 0.083128 0.609614
Si Si3 0.205578 0.327991 0.101673
Si Si4 0.396745 0.274136 0.286161
Si Si5 0.054080 0.717506 0.804865
O O1 0.114053 0.412971 0.891779
O O2 0.153601 0.281027 0.854023
O O3 0.232724 0.399828 0.795338
O O4 0.220940 0.355246 0.991628
O O5 0.500000 0.106995 0.500000
O O6 0.490481 0.138765 0.689023
O O7 0.500000 0.000000 0.626449
O O8 0.258239 0.258239 0.124755
O O9 0.230989 0.390081 0.180930
O O10 0.120834 0.298517 0.116975
O O11 0.353393 0.353393 0.281740
O O12 0.483937 0.273931 0.318496
#
# Coordination Sequence:
#
# PCOD9560282 Si02
#       5
#    16  16  16  16  16
#     4  10  20  31  50  73 104 142 182 220 264 321
#     4  10  20  29  45  71 109 143 173 208 257 319
#     4  10  20  36  53  75 106 142 183 226 272 330
#     4   9  20  35  52  75 105 141 184 229 273 325
#     4  10  21  34  51  78 105 144 185 219 272 328
#
# _framework density 18.408524
#
# number of rings (size 3 to 8) (size 9 to 14) (size 15 to 20)
#    0.000    2.200    2.000    0.600    8.400    1.600 
#    0.000    0.000    0.000    0.600    0.000    0.000 
#    0.000    5.200    0.000    0.000    0.000    2.000 
#
# Total GULP energy -222772.471860 kJ/mol
# GULP energy per Si atom -5569.311797 kJ/mol
# Density = 1.836663 g / cm^3
# Si number density = 18.408524 Si / 1000 Ang^3
#
#
#
# Elastic Constant Matrix: (Units=GPa)
#
#
# Indices 1 2 3 4 5 6 
#
# 1 54.6213 21.9867 -7.6996 0.0000 0.0000 0.0000
# 2 21.9867 54.6213 -7.6996 0.0000 0.0000 0.0000
# 3 -7.6996 -7.6996 70.1189 0.0000 0.0000 0.0000
# 4 0.0000 0.0000 0.0000 10.9883 0.0000 0.0000
# 5 0.0000 0.0000 0.0000 0.0000 10.9883 0.0000
# 6 0.0000 0.0000 0.0000 0.0000 0.0000 21.4510
#
#
#
# Elastic Compliance Matrix: (Units=1/GPa)
#
#
# Indices 1 2 3 4 5 6 
#
# 1 0.021995 -0.008647 0.001466 0.000000 0.000000 0.000000
# 2 -0.008647 0.021995 0.001466 0.000000 0.000000 0.000000
# 3 0.001466 0.001466 0.014583 0.000000 0.000000 0.000000
# 4 0.000000 0.000000 0.000000 0.091006 0.000000 0.000000
# 5 0.000000 0.000000 0.000000 0.000000 0.091006 0.000000
# 6 0.000000 0.000000 0.000000 0.000000 0.000000 0.046618
#
#
# Mechanical properties :
#
#
# Convention : Reuss Voigt Hill
#
# Bulk Modulus (GPa) = 21.21231 21.39296 21.30264
# Shear Modulus (GPa) = 15.90593 20.20382 18.05488
#
# Velocity S-wave (km/s) = 2.94267 3.31649 3.13515
# Velocity P-wave (km/s) = 4.80560 5.12951 4.97020
#
# Compressibility (1/GPa) = 0.04714244
#
# Stress axis : x y z
#
# Youngs Moduli (GPa) = 45.46446 45.46446 68.57122
#
# Poissons Ratio (x) = 0.39314 -0.10051
# Poissons Ratio (y) = 0.39314 -0.10051
# Poissons Ratio (z) = -0.06664 -0.06664
#
# Static dielectric constant tensor:
#      x y z
#    x 1.659200 0.000000 0.000000 
#    y 0.000000 1.659200 0.000000 
#    z 0.000000 0.000000 1.743220 
# 
# From -- ./inp_files/4232.got.cif
#   From: 2010.05.17/outbox.cif.g08.bks.cpg/sg121_3_cif.got.tgz:4232.got - 2010.05.20 11:32:06.
