data_PCOD9560849
_publ_section_title
;
Structure prediction by ZEFSAII (Michael W. Deem and Ramdas Pophale) SiO2 
 PCOD9560849
Probable space group: I -4 2 D
;
_chemical_formula_sum "Si O2"
_cell_formula_units_Z 88
_cell_length_a 14.037681
_cell_length_b 14.037681
_cell_length_c 20.164727
_cell_angle_alpha 90.000000
_cell_angle_beta 90.000000
_cell_angle_gamma 90.000000
_cell_volume 3973.590281
_symmetry_space_group_name_H-M "I -4 2 D"
_symmetry_group_IT_number 122
_symmetry_cell_setting 'tetragonal'
loop_
_space_group_symop_operation_xyz
x,y,z
y,-x,-z
-x,-y,z
-y,x,-z
x,1/2-y,1/4-z
-x,1/2+y,1/4-z
-y,1/2-x,1/4+z
y,1/2+x,1/4+z
1/2+x,1/2+y,1/2+z
1/2+y,1/2-x,1/2-z
1/2-x,1/2-y,1/2+z
1/2-y,1/2+x,1/2-z
1/2+x,-y,3/4-z
1/2-x,y,3/4-z
1/2-y,-x,3/4+z
1/2+y,x,3/4+z
loop_
_atom_site_type_symbol
_atom_site_label
_atom_site_fract_x
_atom_site_fract_y
_atom_site_fract_z
Si Si1 0.763310 0.155312 0.531890
Si Si2 0.053398 0.360295 0.233716
Si Si3 0.797151 0.044248 0.660529
Si Si4 0.021352 0.803015 0.554818
Si Si5 0.500000 0.000000 0.368060
Si Si6 0.662699 0.262590 0.419600
O O1 0.871189 0.195757 0.526844
O O2 0.688819 0.223070 0.493556
O O3 0.759639 0.123822 0.609116
O O4 0.757091 0.054754 0.493810
O O5 0.102992 0.446117 0.276107
O O6 0.123515 0.348472 0.172418
O O7 0.054993 0.260954 0.272191
O O8 0.773988 0.935780 0.640446
O O9 0.911350 0.038753 0.661045
O O10 0.022464 0.750000 0.625000
O O11 0.983573 0.909598 0.570616
O O12 0.750000 0.231056 0.375000
#
# Coordination Sequence:
#
# PCOD9560849 Si02
#       6
#    16  16  16  16   8  16
#     4  11  22  36  62  89 130 171 212 268 329 404
#     4   9  21  44  68  85 122 167 217 279 334 395
#     4  10  22  40  60  96 127 171 219 267 340 403
#     4  11  22  36  58  89 128 172 210 255 327 396
#     4  10  20  35  60  86 136 158 212 261 312 408
#     4  11  22  40  63  92 127 169 220 276 332 403
#
# _framework density 22.146218000000001
#
# number of rings (size 3 to 8) (size 9 to 14) (size 15 to 20)
#    0.000    1.636    0.000    6.000    5.091    0.727 
#    9.818    0.000    0.000    0.000    0.000    0.000 
#    0.000    0.000    0.000    0.000    0.000    0.000 
#
# Total GULP energy -245512.435677 kJ/mol
# GULP energy per Si atom -5579.828084 kJ/mol
# Density = 2.209581 g / cm^3
# Si number density = 22.146218 Si / 1000 Ang^3
#
#
#
# Elastic Constant Matrix: (Units=GPa)
#
#
# Indices 1 2 3 4 5 6 
#
# 1 84.9073 -6.2385 5.0302 0.0000 0.0000 0.0000
# 2 -6.2385 84.9073 5.0302 0.0000 0.0000 0.0000
# 3 5.0302 5.0302 19.6198 0.0000 0.0000 0.0000
# 4 0.0000 0.0000 0.0000 19.9571 0.0000 0.0000
# 5 0.0000 0.0000 0.0000 0.0000 19.9571 0.0000
# 6 0.0000 0.0000 0.0000 0.0000 0.0000 23.3351
#
#
#
# Elastic Compliance Matrix: (Units=1/GPa)
#
#
# Indices 1 2 3 4 5 6 
#
# 1 0.012057 0.001085 -0.003369 0.000000 0.000000 0.000000
# 2 0.001085 0.012057 -0.003369 0.000000 0.000000 0.000000
# 3 -0.003369 -0.003369 0.052697 0.000000 0.000000 0.000000
# 4 0.000000 0.000000 0.000000 0.050108 0.000000 0.000000
# 5 0.000000 0.000000 0.000000 0.000000 0.050108 0.000000
# 6 0.000000 0.000000 0.000000 0.000000 0.000000 0.042854
#
#
# Mechanical properties :
#
#
# Convention : Reuss Voigt Hill
#
# Bulk Modulus (GPa) = 15.26637 21.89756 18.58197
# Shear Modulus (GPa) = 19.76121 25.02401 22.39261
#
# Velocity S-wave (km/s) = 2.99039 3.36511 3.18327
# Velocity P-wave (km/s) = 4.33955 5.00078 4.68185
#
# Compressibility (1/GPa) = 0.06550347
#
# Stress axis : x y z
#
# Youngs Moduli (GPa) = 82.93986 82.93986 18.97658
#
# Poissons Ratio (x) = -0.09003 0.06394
# Poissons Ratio (y) = -0.09003 0.06394
# Poissons Ratio (z) = 0.27946 0.27946
#
# Static dielectric constant tensor:
#      x y z
#    x 1.839870 0.000000 0.000000 
#    y 0.000000 1.839870 0.000000 
#    z 0.000000 0.000000 1.803470 
# 
# From -- ./inp_files/7206.got.cif
#   From: 2010.05.17/outbox.cif.g08.bks.cpg/sg122_4_cif.got.tgz:7206.got - 2010.05.20 11:37:33.
