data_PCOD9560457
_publ_section_title
;
Structure prediction by ZEFSAII (Michael W. Deem and Ramdas Pophale) SiO2 
 PCOD9560457
Probable space group: I -4 2 M
;
_chemical_formula_sum "Si O2"
_cell_formula_units_Z 56
_cell_length_a 16.157049
_cell_length_b 16.157049
_cell_length_c 10.016920
_cell_angle_alpha 90.000000
_cell_angle_beta 90.000000
_cell_angle_gamma 90.000000
_cell_volume 2614.919294
_symmetry_space_group_name_H-M "I -4 2 M"
_symmetry_group_IT_number 121
_symmetry_cell_setting 'tetragonal'
loop_
_space_group_symop_operation_xyz
x,y,z
y,-x,-z
-x,-y,z
-y,x,-z
x,-y,-z
-x,y,-z
-y,-x,z
y,x,z
1/2+x,1/2+y,1/2+z
1/2+y,1/2-x,1/2-z
1/2-x,1/2-y,1/2+z
1/2-y,1/2+x,1/2-z
1/2+x,1/2-y,1/2-z
1/2-x,1/2+y,1/2-z
1/2-y,1/2-x,1/2+z
1/2+y,1/2+x,1/2+z
loop_
_atom_site_type_symbol
_atom_site_label
_atom_site_fract_x
_atom_site_fract_y
_atom_site_fract_z
Si Si1 0.596488 0.596488 0.483559
Si Si2 0.702305 0.702305 0.356451
Si Si3 0.426203 0.164399 0.392466
Si Si4 0.290373 0.965236 0.643889
Si Si5 0.819563 0.180438 0.764401
O O1 0.612576 0.500000 0.500000
O O2 0.632000 0.632000 0.344832
O O3 0.643370 0.643370 0.601545
O O4 0.650358 0.775070 0.429464
O O5 0.748228 0.748228 0.234702
O O6 0.500000 0.162256 0.500000
O O7 0.380925 0.077655 0.369014
O O8 0.464763 0.199746 0.256131
O O9 0.224792 0.896107 0.690369
O O10 0.267508 0.000000 0.500000
#
# Coordination Sequence:
#
# PCOD9560457 Si02
#       5
#     8   8  16  16   8
#     4  11  22  40  67  96 125 164 217 272 317 373
#     4  10  21  37  62  88 119 158 203 257 306 365
#     4  11  23  40  63  90 123 165 213 261 313 377
#     4  11  24  40  62  91 126 166 205 259 321 378
#     4  10  23  41  61  90 126 165 210 255 315 383
#
# _framework density 21.415575
#
# number of rings (size 3 to 8) (size 9 to 14) (size 15 to 20)
#    0.000    1.286    0.000    6.000    0.000   11.429 
#    0.000    2.857    0.000    0.000    0.000    0.000 
#    0.000    0.000    0.000    0.000    0.000    0.000 
#
# Total GULP energy -156283.198310 kJ/mol
# GULP energy per Si atom -5581.542797 kJ/mol
# Density = 2.136683 g / cm^3
# Si number density = 21.415575 Si / 1000 Ang^3
#
#
#
# Elastic Constant Matrix: (Units=GPa)
#
#
# Indices 1 2 3 4 5 6 
#
# 1 156.2935 19.0379 55.3009 0.0000 0.0000 0.0000
# 2 19.0379 156.2943 55.3044 0.0000 0.0000 0.0000
# 3 55.3009 55.3044 128.1762 0.0000 0.0000 0.0000
# 4 0.0000 0.0000 0.0000 35.9457 0.0000 0.0000
# 5 0.0000 0.0000 0.0000 0.0000 35.9457 0.0000
# 6 0.0000 0.0000 0.0000 0.0000 0.0000 43.1703
#
#
#
# Elastic Compliance Matrix: (Units=1/GPa)
#
#
# Indices 1 2 3 4 5 6 
#
# 1 0.007561 0.000275 -0.003381 0.000000 0.000000 0.000000
# 2 0.000275 0.007561 -0.003381 0.000000 0.000000 0.000000
# 3 -0.003381 -0.003381 0.010719 0.000000 0.000000 0.000000
# 4 0.000000 0.000000 0.000000 0.027820 0.000000 0.000000
# 5 0.000000 0.000000 0.000000 0.000000 0.027820 0.000000
# 6 0.000000 0.000000 0.000000 0.000000 0.000000 0.023164
#
#
# Mechanical properties :
#
#
# Convention : Reuss Voigt Hill
#
# Bulk Modulus (GPa) = 77.71327 77.78335 77.74831
# Shear Modulus (GPa) = 41.01462 43.75372 42.38417
#
# Velocity S-wave (km/s) = 4.38102 4.52495 4.45357
# Velocity P-wave (km/s) = 7.87135 7.98123 7.92648
#
# Compressibility (1/GPa) = 0.01286782
#
# Stress axis : x y z
#
# Youngs Moduli (GPa) = 132.25863 132.25639 93.28940
#
# Poissons Ratio (x) = -0.03642 0.31541
# Poissons Ratio (y) = -0.03642 0.31543
# Poissons Ratio (z) = 0.44716 0.44718
#
# Static dielectric constant tensor:
#      x y z
#    x 1.803290 0.000000 0.000000 
#    y 0.000000 1.803290 0.000000 
#    z 0.000000 0.000000 1.803190 
# 
# From -- ./inp_files/2756.got.cif
#   From: 2010.05.17/outbox.cif.g08.bks.cpg/sg121_2_cif.got.tgz:2756.got - 2010.05.20 11:32:06.
