data_PCOD9560521
_publ_section_title
;
Structure prediction by ZEFSAII (Michael W. Deem and Ramdas Pophale) SiO2 
 PCOD9560521
Probable space group: I -4 2 M
;
_chemical_formula_sum "Si O2"
_cell_formula_units_Z 88
_cell_length_a 14.444036
_cell_length_b 14.444036
_cell_length_c 23.330678
_cell_angle_alpha 90.000000
_cell_angle_beta 90.000000
_cell_angle_gamma 90.000000
_cell_volume 4867.483457
_symmetry_space_group_name_H-M "I -4 2 M"
_symmetry_group_IT_number 121
_symmetry_cell_setting 'tetragonal'
loop_
_space_group_symop_operation_xyz
x,y,z
y,-x,-z
-x,-y,z
-y,x,-z
x,-y,-z
-x,y,-z
-y,-x,z
y,x,z
1/2+x,1/2+y,1/2+z
1/2+y,1/2-x,1/2-z
1/2-x,1/2-y,1/2+z
1/2-y,1/2+x,1/2-z
1/2+x,1/2-y,1/2-z
1/2-x,1/2+y,1/2-z
1/2-y,1/2-x,1/2+z
1/2+y,1/2+x,1/2+z
loop_
_atom_site_type_symbol
_atom_site_label
_atom_site_fract_x
_atom_site_fract_y
_atom_site_fract_z
Si Si1 0.009981 0.607989 0.068623
Si Si2 0.760216 0.500000 0.000000
Si Si3 0.251324 0.599518 0.228183
Si Si4 0.685133 0.841319 0.588904
Si Si5 0.889107 0.737020 0.716936
Si Si6 0.634095 0.224240 0.094212
O O1 0.926137 0.669477 0.093999
O O2 0.000000 0.500000 0.086482
O O3 0.114786 0.632684 0.084137
O O4 0.000000 0.612234 0.000000
O O5 0.806548 0.417842 0.961814
O O6 0.722574 0.562525 0.948110
O O7 0.341185 0.658816 0.247220
O O8 0.162711 0.649693 0.255335
O O9 0.251634 0.491335 0.240366
O O10 0.244007 0.609046 0.159615
O O11 0.750822 0.750822 0.578482
O O12 0.720901 0.885588 0.648324
O O13 0.825251 0.825251 0.729785
O O14 0.734386 0.265615 0.082264
#
# Coordination Sequence:
#
# PCOD9560521 Si02
#       6
#    16   8  16  16  16  16
#     4  11  18  32  53  81 108 148 191 227 271 337
#     4  12  18  37  58  87 122 154 188 229 296 357
#     4  10  22  40  59  84 115 151 196 245 293 345
#     4  11  22  36  58  87 120 154 193 241 292 350
#     4  10  22  40  59  84 115 151 196 245 293 345
#     4  11  22  36  58  87 120 154 193 241 292 350
#
# _framework density 18.079158
#
# number of rings (size 3 to 8) (size 9 to 14) (size 15 to 20)
#    0.000    1.273    5.455    0.545    2.545    0.727 
#    0.000    0.000    0.000    4.909    0.000    1.273 
#    0.000    0.000    0.000    0.000    0.000    0.000 
#
# Total GULP energy -244964.845944 kJ/mol
# GULP energy per Si atom -5567.382862 kJ/mol
# Density = 1.803801 g / cm^3
# Si number density = 18.079158 Si / 1000 Ang^3
#
#
#
# Elastic Constant Matrix: (Units=GPa)
#
#
# Indices 1 2 3 4 5 6 
#
# 1 128.6605 74.4192 5.6162 0.0000 0.0000 0.0000
# 2 74.4192 128.6571 5.6142 0.0000 0.0000 0.0000
# 3 5.6162 5.6142 47.7768 0.0000 0.0000 0.0000
# 4 0.0000 0.0000 0.0000 24.7290 0.0000 0.0000
# 5 0.0000 0.0000 0.0000 0.0000 24.7281 0.0000
# 6 0.0000 0.0000 0.0000 0.0000 0.0000 17.8818
#
#
#
# Elastic Compliance Matrix: (Units=1/GPa)
#
#
# Indices 1 2 3 4 5 6 
#
# 1 0.011696 -0.006740 -0.000583 0.000000 0.000000 0.000000
# 2 -0.006740 0.011697 -0.000582 0.000000 0.000000 0.000000
# 3 -0.000583 -0.000582 0.021068 0.000000 0.000000 0.000000
# 4 0.000000 0.000000 0.000000 0.040438 0.000000 0.000000
# 5 0.000000 0.000000 0.000000 0.000000 0.040440 0.000000
# 6 0.000000 0.000000 0.000000 0.000000 0.000000 0.055923
#
#
# Mechanical properties :
#
#
# Convention : Reuss Voigt Hill
#
# Bulk Modulus (GPa) = 34.90357 52.93259 43.91808
# Shear Modulus (GPa) = 24.19875 28.09744 26.14809
#
# Velocity S-wave (km/s) = 3.66251 3.94653 3.80717
# Velocity P-wave (km/s) = 6.10190 7.07874 6.60839
#
# Compressibility (1/GPa) = 0.02865036
#
# Stress axis : x y z
#
# Youngs Moduli (GPa) = 85.49607 85.49411 47.46626
#
# Poissons Ratio (x) = 0.57624 0.02767
# Poissons Ratio (y) = 0.57626 0.02763
# Poissons Ratio (z) = 0.04984 0.04977
#
# Static dielectric constant tensor:
#      x y z
#    x 1.636320 0.000000 0.000000 
#    y 0.000000 1.636320 0.000000 
#    z 0.000000 0.000000 1.657110 
# 
# From -- ./inp_files/6318.got.cif
#   From: 2010.05.17/outbox.cif.g08.bks.cpg/sg121_4_cif.got.tgz:6318.got - 2010.05.20 11:32:06.
