data_PCOD9560295
_publ_section_title
;
Structure prediction by ZEFSAII (Michael W. Deem and Ramdas Pophale) SiO2 
 PCOD9560295
Probable space group: I -4 2 M
;
_chemical_formula_sum "Si O2"
_cell_formula_units_Z 96
_cell_length_a 15.071950
_cell_length_b 15.071950
_cell_length_c 22.315728
_cell_angle_alpha 90.000000
_cell_angle_beta 90.000000
_cell_angle_gamma 90.000000
_cell_volume 5069.322823
_symmetry_space_group_name_H-M "I -4 2 M"
_symmetry_group_IT_number 121
_symmetry_cell_setting 'tetragonal'
loop_
_space_group_symop_operation_xyz
x,y,z
y,-x,-z
-x,-y,z
-y,x,-z
x,-y,-z
-x,y,-z
-y,-x,z
y,x,z
1/2+x,1/2+y,1/2+z
1/2+y,1/2-x,1/2-z
1/2-x,1/2-y,1/2+z
1/2-y,1/2+x,1/2-z
1/2+x,1/2-y,1/2-z
1/2-x,1/2+y,1/2-z
1/2-y,1/2-x,1/2+z
1/2+y,1/2+x,1/2+z
loop_
_atom_site_type_symbol
_atom_site_label
_atom_site_fract_x
_atom_site_fract_y
_atom_site_fract_z
Si Si1 0.327786 0.814145 0.633764
Si Si2 0.041495 0.819327 0.666520
Si Si3 0.111834 0.261099 0.738520
Si Si4 0.806602 0.339445 0.379012
Si Si5 0.989305 0.603683 0.928873
Si Si6 0.706609 0.431304 0.950892
O O1 0.277133 0.722868 0.616667
O O2 0.251263 0.884203 0.648264
O O3 0.381817 0.800039 0.695436
O O4 0.393066 0.857703 0.586517
O O5 0.090557 0.909444 0.684367
O O6 0.982829 0.774590 0.717853
O O7 0.981513 0.831067 0.607494
O O8 0.177081 0.177081 0.737221
O O9 0.151698 0.325082 0.687168
O O10 0.709222 0.290779 0.379488
O O11 0.828844 0.438949 0.399478
O O12 0.866672 0.280896 0.424410
O O13 0.000000 0.500000 0.908003
O O14 0.000000 0.603127 0.000000
O O15 0.628886 0.371115 0.978629
O O16 0.740367 0.500000 0.000000
#
# Coordination Sequence:
#
# PCOD9560295 Si02
#       6
#    16  16  16  16  16  16
#     4  10  23  41  59  84 118 155 193 244 308 358
#     4  10  20  34  56  81 112 152 187 228 289 358
#     4   9  19  37  57  82 116 147 185 236 288 353
#     4   9  20  37  58  82 113 155 194 235 293 351
#     4  11  24  39  60  89 119 153 199 253 291 343
#     4  10  20  32  52  83 119 153 185 226 278 350
#
# _framework density 18.937441
#
# number of rings (size 3 to 8) (size 9 to 14) (size 15 to 20)
#    0.000    2.167    0.000    4.000    7.000    2.833 
#    0.000    0.000    0.000    1.500    0.000    1.167 
#    0.000    0.000    0.000    0.000    0.000    0.000 
#
# Total GULP energy -267825.560901 kJ/mol
# GULP energy per Si atom -5579.699185 kJ/mol
# Density = 1.889434 g / cm^3
# Si number density = 18.937441 Si / 1000 Ang^3
#
#
#
# Elastic Constant Matrix: (Units=GPa)
#
#
# Indices 1 2 3 4 5 6 
#
# 1 44.2042 -1.4613 21.3623 0.0000 0.0000 0.0000
# 2 -1.4613 44.2056 21.3613 0.0000 0.0000 0.0000
# 3 21.3623 21.3613 49.7522 0.0000 0.0000 0.0000
# 4 0.0000 0.0000 0.0000 -3.8459 0.0000 0.0000
# 5 0.0000 0.0000 0.0000 0.0000 -3.8500 0.0000
# 6 0.0000 0.0000 0.0000 0.0000 0.0000 14.7589
#
#
#
# Elastic Compliance Matrix: (Units=1/GPa)
#
#
# Indices 1 2 3 4 5 6 
#
# 1 0.031442 0.009543 -0.017598 0.000000 0.000000 0.000000
# 2 0.009543 0.031440 -0.017597 0.000000 0.000000 0.000000
# 3 -0.017598 -0.017597 0.035211 0.000000 0.000000 0.000000
# 4 0.000000 0.000000 0.000000 -0.260019 0.000000 0.000000
# 5 0.000000 0.000000 0.000000 0.000000 -0.259738 0.000000
# 6 0.000000 0.000000 0.000000 0.000000 0.000000 0.067756
#
#
# Mechanical properties :
#
#
# Convention : Reuss Voigt Hill
#
# Bulk Modulus (GPa) = 21.37180 24.52073 22.94627
# Shear Modulus (GPa) = -17.42107 7.87257 -4.77425
#
# Velocity S-wave (km/s) = -3.03632 2.04112 -1.58951
# Velocity P-wave (km/s) = 0.99114 4.30480 2.96217
#
# Compressibility (1/GPa) = 0.04679063
#
# Stress axis : x y z
#
# Youngs Moduli (GPa) = 31.80440 31.80651 28.40035
#
# Poissons Ratio (x) = -0.30353 0.49979
# Poissons Ratio (y) = -0.30351 0.49975
# Poissons Ratio (z) = 0.55969 0.55968
#
# Static dielectric constant tensor:
#      x y z
#    x 1.677710 0.000000 0.000000 
#    y 0.000000 1.677710 0.000000 
#    z 0.000000 0.000000 1.662750 
# 
# From -- ./inp_files/6410.got.cif
#   From: 2010.05.17/outbox.cif.g08.bks.cpg/sg121_4_cif.got.tgz:6410.got - 2010.05.20 11:32:06.
