data_PCOD9560043
_publ_section_title
;
Structure prediction by ZEFSAII (Michael W. Deem and Ramdas Pophale) SiO2 
 PCOD9560043
Probable space group: I -4 C 2
;
_chemical_formula_sum "Si O2"
_cell_formula_units_Z 56
_cell_length_a 15.452331
_cell_length_b 15.452331
_cell_length_c 10.568733
_cell_angle_alpha 90.000000
_cell_angle_beta 90.000000
_cell_angle_gamma 90.000000
_cell_volume 2523.544290
_symmetry_space_group_name_H-M "I -4 C 2"
_symmetry_group_IT_number 120
_symmetry_cell_setting 'tetragonal'
loop_
_space_group_symop_operation_xyz
x,y,z
y,-x,-z
-x,-y,z
-y,x,-z
y,x,1/2-z
-y,-x,1/2-z
-x,y,1/2+z
x,-y,1/2+z
1/2+x,1/2+y,1/2+z
1/2+y,1/2-x,1/2-z
1/2-x,1/2-y,1/2+z
1/2-y,1/2+x,1/2-z
1/2+y,1/2+x,-z
1/2-y,1/2-x,-z
1/2-x,1/2+y,z
1/2+x,1/2-y,z
loop_
_atom_site_type_symbol
_atom_site_label
_atom_site_fract_x
_atom_site_fract_y
_atom_site_fract_z
Si Si1 0.673455 0.624505 0.391029
Si Si2 0.180154 0.924403 0.859767
Si Si3 0.541521 0.862979 0.773409
Si Si4 0.854325 0.645676 0.500000
O O1 0.649817 0.649817 0.250000
O O2 0.653661 0.522203 0.395113
O O3 0.627935 0.671071 0.509565
O O4 0.773826 0.647542 0.407351
O O5 0.121452 0.878548 0.750000
O O6 0.277592 0.933769 0.804553
O O7 0.444438 0.896663 0.756555
O O8 0.558328 0.845471 0.921091
#
# Coordination Sequence:
#
# PCOD9560043 Si02
#       4
#    16  16  16   8
#     4  12  29  47  75 113 151 202 257 316 377 458
#     4  12  26  52  80 108 156 205 259 316 378 458
#     4  11  26  50  80 113 150 197 255 323 393 459
#     4  12  26  51  70 114 148 193 254 308 392 452
#
# _framework density 22.191012000000001
#
# number of rings (size 3 to 8) (size 9 to 14) (size 15 to 20)
#    0.000    0.286    5.714    1.714    4.000    5.714 
#    5.143    0.000    0.000    0.000    0.000    0.000 
#    0.000    0.000    0.000    0.000    0.000    0.000 
#
# Total GULP energy -156626.945752 kJ/mol
# GULP energy per Si atom -5593.819491 kJ/mol
# Density = 2.214050 g / cm^3
# Si number density = 22.191012 Si / 1000 Ang^3
#
#
#
# Elastic Constant Matrix: (Units=GPa)
#
#
# Indices 1 2 3 4 5 6 
#
# 1 125.0350 19.1860 33.9055 0.0000 0.0000 0.0000
# 2 19.1860 125.0363 33.9055 0.0000 0.0000 0.0000
# 3 33.9055 33.9055 131.8901 0.0000 0.0000 0.0000
# 4 0.0000 0.0000 0.0000 23.8492 0.0000 0.0000
# 5 0.0000 0.0000 0.0000 0.0000 23.7122 0.0000
# 6 0.0000 0.0000 0.0000 0.0000 0.0000 35.4507
#
#
#
# Elastic Compliance Matrix: (Units=1/GPa)
#
#
# Indices 1 2 3 4 5 6 
#
# 1 0.008667 -0.000780 -0.002028 0.000000 0.000000 0.000000
# 2 -0.000780 0.008667 -0.002028 0.000000 0.000000 0.000000
# 3 -0.002028 -0.002028 0.008625 0.000000 0.000000 0.000000
# 4 0.000000 0.000000 0.000000 0.041930 0.000000 0.000000
# 5 0.000000 0.000000 0.000000 0.000000 0.042172 0.000000
# 6 0.000000 0.000000 0.000000 0.000000 0.000000 0.028208
#
#
# Mechanical properties :
#
#
# Convention : Reuss Voigt Hill
#
# Bulk Modulus (GPa) = 61.39310 61.77283 61.58296
# Shear Modulus (GPa) = 32.60097 36.26672 34.43385
#
# Velocity S-wave (km/s) = 3.83705 4.04703 3.94344
# Velocity P-wave (km/s) = 6.88160 7.05232 6.96748
#
# Compressibility (1/GPa) = 0.01628848
#
# Stress axis : x y z
#
# Youngs Moduli (GPa) = 115.37640 115.37771 115.94816
#
# Poissons Ratio (x) = 0.09001 0.23509
# Poissons Ratio (y) = 0.09001 0.23509
# Poissons Ratio (z) = 0.23394 0.23394
#
# Static dielectric constant tensor:
#      x y z
#    x 1.848290 0.000000 0.000000 
#    y 0.000000 1.848280 0.000000 
#    z 0.000000 0.000000 1.702930 
# 
# From -- ./inp_files/2191.got.cif
#   From: 2010.05.17/outbox.cif.g08.bks.cpg/sg120_2_cif.got.tgz:2191.got - 2010.05.20 11:28:13.
