data_PCOD9560859
_publ_section_title
;
Structure prediction by ZEFSAII (Michael W. Deem and Ramdas Pophale) SiO2 
 PCOD9560859
Probable space group: I -4 2 D
;
_chemical_formula_sum "Si O2"
_cell_formula_units_Z 64
_cell_length_a 18.913890
_cell_length_b 18.913890
_cell_length_c 8.413370
_cell_angle_alpha 90.000000
_cell_angle_beta 90.000000
_cell_angle_gamma 90.000000
_cell_volume 3009.758894
_symmetry_space_group_name_H-M "I -4 2 D"
_symmetry_group_IT_number 122
_symmetry_cell_setting 'tetragonal'
loop_
_space_group_symop_operation_xyz
x,y,z
y,-x,-z
-x,-y,z
-y,x,-z
x,1/2-y,1/4-z
-x,1/2+y,1/4-z
-y,1/2-x,1/4+z
y,1/2+x,1/4+z
1/2+x,1/2+y,1/2+z
1/2+y,1/2-x,1/2-z
1/2-x,1/2-y,1/2+z
1/2-y,1/2+x,1/2-z
1/2+x,-y,3/4-z
1/2-x,y,3/4-z
1/2-y,-x,3/4+z
1/2+y,x,3/4+z
loop_
_atom_site_type_symbol
_atom_site_label
_atom_site_fract_x
_atom_site_fract_y
_atom_site_fract_z
Si Si1 0.508302 0.901907 0.165210
Si Si2 0.735188 0.250000 0.625000
Si Si3 0.250000 0.476908 0.875000
Si Si4 0.068436 0.574669 0.329925
Si Si5 0.150007 0.794038 0.845185
O O1 0.575313 0.950319 0.202613
O O2 0.521687 0.819072 0.163470
O O3 0.469406 0.920047 0.000606
O O4 0.792135 0.195959 0.704121
O O5 0.683407 0.240665 0.474364
O O6 0.266589 0.422657 0.731127
O O7 0.091725 0.495048 0.292530
O O8 0.130598 0.631605 0.324176
#
# Coordination Sequence:
#
# PCOD9560859 Si02
#       5
#    16   8   8  16  16
#     4  10  20  37  61  86 119 162 205 255 308 363
#     4   9  18  36  56  78 116 153 188 238 288 353
#     4   9  20  38  56  86 118 151 204 250 302 375
#     4  10  20  36  58  87 119 151 197 252 303 354
#     4   9  19  36  57  81 113 154 196 241 300 360
#
# _framework density 21.264161000000001
#
# number of rings (size 3 to 8) (size 9 to 14) (size 15 to 20)
#    0.000    2.500    0.000    3.000    0.000    4.000 
#    0.000   35.000    0.000    3.000    0.000    0.000 
#    0.000    0.000    0.000    0.000    0.000    0.000 
#
# Total GULP energy -178162.788473 kJ/mol
# GULP energy per Si atom -5567.587140 kJ/mol
# Density = 2.121576 g / cm^3
# Si number density = 21.264161 Si / 1000 Ang^3
#
#
#
# Elastic Constant Matrix: (Units=GPa)
#
#
# Indices 1 2 3 4 5 6 
#
# 1 88.2512 18.5328 19.0350 0.0000 0.0000 0.0000
# 2 18.5328 88.2512 19.0350 0.0000 0.0000 0.0000
# 3 19.0350 19.0350 83.7363 0.0000 0.0000 0.0000
# 4 0.0000 0.0000 0.0000 15.1624 0.0000 0.0000
# 5 0.0000 0.0000 0.0000 0.0000 15.1624 0.0000
# 6 0.0000 0.0000 0.0000 0.0000 0.0000 19.5379
#
#
#
# Elastic Compliance Matrix: (Units=1/GPa)
#
#
# Indices 1 2 3 4 5 6 
#
# 1 0.012267 -0.002076 -0.002317 0.000000 0.000000 0.000000
# 2 -0.002076 0.012267 -0.002317 0.000000 0.000000 0.000000
# 3 -0.002317 -0.002317 0.012995 0.000000 0.000000 0.000000
# 4 0.000000 0.000000 0.000000 0.065953 0.000000 0.000000
# 5 0.000000 0.000000 0.000000 0.000000 0.065953 0.000000
# 6 0.000000 0.000000 0.000000 0.000000 0.000000 0.051183
#
#
# Mechanical properties :
#
#
# Convention : Reuss Voigt Hill
#
# Bulk Modulus (GPa) = 41.47575 41.49381 41.48478
# Shear Modulus (GPa) = 20.65493 23.54827 22.10160
#
# Velocity S-wave (km/s) = 3.12003 3.33140 3.22744
# Velocity P-wave (km/s) = 5.70323 5.86118 5.78274
#
# Compressibility (1/GPa) = 0.02411047
#
# Stress axis : x y z
#
# Youngs Moduli (GPa) = 81.51957 81.51957 76.95012
#
# Poissons Ratio (x) = 0.16927 0.17826
# Poissons Ratio (y) = 0.16927 0.17826
# Poissons Ratio (z) = 0.18884 0.18884
#
# Static dielectric constant tensor:
#      x y z
#    x 1.789230 0.000000 0.000000 
#    y 0.000000 1.789230 0.000000 
#    z 0.000000 0.000000 1.835580 
# 
# From -- ./inp_files/2565.got.cif
#   From: 2010.05.17/outbox.cif.g08.bks.cpg/sg122_2_cif.got.tgz:2565.got - 2010.05.20 11:37:33.
