data_PCOD9560554
_publ_section_title
;
Structure prediction by ZEFSAII (Michael W. Deem and Ramdas Pophale) SiO2 
 PCOD9560554
Probable space group: I -4 2 M
;
_chemical_formula_sum "Si O2"
_cell_formula_units_Z 80
_cell_length_a 16.254458
_cell_length_b 16.254458
_cell_length_c 15.455720
_cell_angle_alpha 90.000000
_cell_angle_beta 90.000000
_cell_angle_gamma 90.000000
_cell_volume 4083.515672
_symmetry_space_group_name_H-M "I -4 2 M"
_symmetry_group_IT_number 121
_symmetry_cell_setting 'tetragonal'
loop_
_space_group_symop_operation_xyz
x,y,z
y,-x,-z
-x,-y,z
-y,x,-z
x,-y,-z
-x,y,-z
-y,-x,z
y,x,z
1/2+x,1/2+y,1/2+z
1/2+y,1/2-x,1/2-z
1/2-x,1/2-y,1/2+z
1/2-y,1/2+x,1/2-z
1/2+x,1/2-y,1/2-z
1/2-x,1/2+y,1/2-z
1/2-y,1/2-x,1/2+z
1/2+y,1/2+x,1/2+z
loop_
_atom_site_type_symbol
_atom_site_label
_atom_site_fract_x
_atom_site_fract_y
_atom_site_fract_z
Si Si1 0.633657 0.633657 0.695096
Si Si2 0.189667 0.189667 0.371506
Si Si3 0.517288 0.753599 0.273213
Si Si4 0.296647 0.044814 0.409229
Si Si5 0.319508 0.680493 0.656113
Si Si6 0.902427 0.902427 0.005076
Si Si7 0.903856 0.476623 0.600956
O O1 0.684733 0.684733 0.766418
O O2 0.673179 0.542436 0.714196
O O3 0.636319 0.636319 0.591585
O O4 0.218412 0.103935 0.409637
O O5 0.257281 0.257281 0.388292
O O6 0.510810 0.785510 0.175214
O O7 0.610187 0.727228 0.291263
O O8 0.491916 0.829744 0.337387
O O9 0.378215 0.097925 0.393309
O O10 0.307290 0.000000 0.500000
O O11 0.364896 0.635105 0.579256
O O12 0.000000 0.888184 0.000000
O O13 0.890918 0.500000 0.500000
O O14 0.000000 0.500000 0.623078
#
# Coordination Sequence:
#
# PCOD9560554 Si02
#       7
#     8   8  16  16   8   8  16
#     4  10  23  44  62  99 136 176 211 274 340 401
#     4  10  24  45  64  92 138 174 232 287 321 392
#     4  11  26  41  70  98 138 177 220 276 343 403
#     4  11  24  45  66  96 131 178 228 282 329 392
#     4  12  23  43  65 105 134 179 225 266 342 416
#     4  11  22  38  67 102 134 171 210 268 345 417
#     4  11  24  41  65  98 132 171 226 270 336 408
#
# _framework density 19.590962000000001
#
# number of rings (size 3 to 8) (size 9 to 14) (size 15 to 20)
#    0.000    1.100    6.000    0.000    5.600    1.200 
#    3.600    0.000    0.000    1.500    0.000    0.000 
#    0.000    0.000    0.000    0.000    0.000    0.000 
#
# Total GULP energy -222942.071020 kJ/mol
# GULP energy per Si atom -5573.551776 kJ/mol
# Density = 1.954637 g / cm^3
# Si number density = 19.590962 Si / 1000 Ang^3
#
#
#
# Elastic Constant Matrix: (Units=GPa)
#
#
# Indices 1 2 3 4 5 6 
#
# 1 53.1917 21.7453 23.7722 0.0000 0.0000 0.0000
# 2 21.7453 53.1900 23.7725 0.0000 0.0000 0.0000
# 3 23.7722 23.7725 106.3920 0.0000 0.0000 0.0000
# 4 0.0000 0.0000 0.0000 20.0773 0.0000 0.0000
# 5 0.0000 0.0000 0.0000 0.0000 20.0774 0.0000
# 6 0.0000 0.0000 0.0000 0.0000 0.0000 21.6507
#
#
#
# Elastic Compliance Matrix: (Units=1/GPa)
#
#
# Indices 1 2 3 4 5 6 
#
# 1 0.023675 -0.008126 -0.003474 0.000000 0.000000 0.000000
# 2 -0.008126 0.023675 -0.003474 0.000000 0.000000 0.000000
# 3 -0.003474 -0.003474 0.010952 0.000000 0.000000 0.000000
# 4 0.000000 0.000000 0.000000 0.049807 0.000000 0.000000
# 5 0.000000 0.000000 0.000000 0.000000 0.049807 0.000000
# 6 0.000000 0.000000 0.000000 0.000000 0.000000 0.046188
#
#
# Mechanical properties :
#
#
# Convention : Reuss Voigt Hill
#
# Bulk Modulus (GPa) = 35.52055 39.03926 37.27991
# Shear Modulus (GPa) = 20.52225 21.92665 21.22445
#
# Velocity S-wave (km/s) = 3.24008 3.34911 3.29504
# Velocity P-wave (km/s) = 5.67168 5.90981 5.79197
#
# Compressibility (1/GPa) = 0.02815271
#
# Stress axis : x y z
#
# Youngs Moduli (GPa) = 42.23941 42.23779 91.30921
#
# Poissons Ratio (x) = 0.34322 0.31722
# Poissons Ratio (y) = 0.34324 0.31725
# Poissons Ratio (z) = 0.14675 0.14675
#
# Static dielectric constant tensor:
#      x y z
#    x 1.712780 0.000000 0.000000 
#    y 0.000000 1.712780 0.000000 
#    z 0.000000 0.000000 1.670430 
# 
# From -- ./inp_files/4323.got.cif
#   From: 2010.05.17/outbox.cif.g08.bks.cpg/sg121_3_cif.got.tgz:4323.got - 2010.05.20 11:32:06.
