data_PCOD9560564
_publ_section_title
;
Structure prediction by ZEFSAII (Michael W. Deem and Ramdas Pophale) SiO2 
 PCOD9560564
Probable space group: I -4 2 M
;
_chemical_formula_sum "Si O2"
_cell_formula_units_Z 64
_cell_length_a 19.497747
_cell_length_b 19.497747
_cell_length_c 10.158504
_cell_angle_alpha 90.000000
_cell_angle_beta 90.000000
_cell_angle_gamma 90.000000
_cell_volume 3861.878600
_symmetry_space_group_name_H-M "I -4 2 M"
_symmetry_group_IT_number 121
_symmetry_cell_setting 'tetragonal'
loop_
_space_group_symop_operation_xyz
x,y,z
y,-x,-z
-x,-y,z
-y,x,-z
x,-y,-z
-x,y,-z
-y,-x,z
y,x,z
1/2+x,1/2+y,1/2+z
1/2+y,1/2-x,1/2-z
1/2-x,1/2-y,1/2+z
1/2-y,1/2+x,1/2-z
1/2+x,1/2-y,1/2-z
1/2-x,1/2+y,1/2-z
1/2-y,1/2-x,1/2+z
1/2+y,1/2+x,1/2+z
loop_
_atom_site_type_symbol
_atom_site_label
_atom_site_fract_x
_atom_site_fract_y
_atom_site_fract_z
Si Si1 0.497072 0.182324 0.710347
Si Si2 0.364094 0.193070 0.414359
Si Si3 0.593537 0.066986 0.431444
Si Si4 0.648534 0.244730 0.293802
O O1 0.441454 0.215046 0.375471
O O2 0.461302 0.115901 0.640731
O O3 0.538998 0.150995 0.832118
O O4 0.432337 0.232049 0.734100
O O5 0.373098 0.113946 0.456988
O O6 0.342464 0.229033 0.550299
O O7 0.310609 0.190810 0.294584
O O8 0.566051 0.000000 0.500000
O O9 0.681537 0.318464 0.264876
#
# Coordination Sequence:
#
# PCOD9560564 Si02
#       4
#    16  16  16  16
#     4  11  21  33  51  75 108 145 181 215 256 315
#     4  11  21  36  51  74 105 143 180 213 260 323
#     4  11  19  31  47  73 106 141 177 210 256 314
#     4  11  22  36  52  72 103 147 185 223 259 308
#
# _framework density 16.572244000000001
#
# number of rings (size 3 to 8) (size 9 to 14) (size 15 to 20)
#    0.000    1.000    7.500    3.750    0.000    6.500 
#    0.000    0.000    0.000    0.000    0.000    0.000 
#    0.000   17.000    0.000    2.500    0.000    0.000 
#
# Total GULP energy -178299.073458 kJ/mol
# GULP energy per Si atom -5571.846046 kJ/mol
# Density = 1.653453 g / cm^3
# Si number density = 16.572244 Si / 1000 Ang^3
#
#
#
# Elastic Constant Matrix: (Units=GPa)
#
#
# Indices 1 2 3 4 5 6 
#
# 1 62.1544 43.1341 18.4422 0.0000 0.0000 0.0000
# 2 43.1341 62.1491 18.4419 0.0000 0.0000 0.0000
# 3 18.4422 18.4419 59.4566 0.0000 0.0000 0.0000
# 4 0.0000 0.0000 0.0000 15.2474 0.0000 0.0000
# 5 0.0000 0.0000 0.0000 0.0000 15.2472 0.0000
# 6 0.0000 0.0000 0.0000 0.0000 0.0000 29.9016
#
#
#
# Elastic Compliance Matrix: (Units=1/GPa)
#
#
# Indices 1 2 3 4 5 6 
#
# 1 0.031618 -0.020963 -0.003305 0.000000 0.000000 0.000000
# 2 -0.020963 0.031621 -0.003306 0.000000 0.000000 0.000000
# 3 -0.003305 -0.003306 0.018869 0.000000 0.000000 0.000000
# 4 0.000000 0.000000 0.000000 0.065585 0.000000 0.000000
# 5 0.000000 0.000000 0.000000 0.000000 0.065586 0.000000
# 6 0.000000 0.000000 0.000000 0.000000 0.000000 0.033443
#
#
# Mechanical properties :
#
#
# Convention : Reuss Voigt Hill
#
# Bulk Modulus (GPa) = 37.09160 38.19962 37.64561
# Shear Modulus (GPa) = 16.08460 18.99536 17.53998
#
# Velocity S-wave (km/s) = 3.11878 3.38925 3.25683
# Velocity P-wave (km/s) = 5.94974 6.19810 6.07519
#
# Compressibility (1/GPa) = 0.02696028
#
# Stress axis : x y z
#
# Youngs Moduli (GPa) = 31.62764 31.62481 52.99589
#
# Poissons Ratio (x) = 0.66297 0.17515
# Poissons Ratio (y) = 0.66303 0.17518
# Poissons Ratio (z) = 0.10453 0.10454
#
# Static dielectric constant tensor:
#      x y z
#    x 1.563070 0.000000 0.000000 
#    y 0.000000 1.563070 0.000000 
#    z 0.000000 0.000000 1.666980 
# 
# From -- ./inp_files/3124.got.cif
#   From: 2010.05.17/outbox.cif.g08.bks.cpg/sg121_2_cif.got.tgz:3124.got - 2010.05.20 11:32:06.
