data_PCOD9560681
_publ_section_title
;
Structure prediction by ZEFSAII (Michael W. Deem and Ramdas Pophale) SiO2 
 PCOD9560681
Probable space group: I -4 2 D
;
_chemical_formula_sum "Si O2"
_cell_formula_units_Z 84
_cell_length_a 22.641934
_cell_length_b 22.641934
_cell_length_c 6.784579
_cell_angle_alpha 90.000000
_cell_angle_beta 90.000000
_cell_angle_gamma 90.000000
_cell_volume 3478.163105
_symmetry_space_group_name_H-M "I -4 2 D"
_symmetry_group_IT_number 122
_symmetry_cell_setting 'tetragonal'
loop_
_space_group_symop_operation_xyz
x,y,z
y,-x,-z
-x,-y,z
-y,x,-z
x,1/2-y,1/4-z
-x,1/2+y,1/4-z
-y,1/2-x,1/4+z
y,1/2+x,1/4+z
1/2+x,1/2+y,1/2+z
1/2+y,1/2-x,1/2-z
1/2-x,1/2-y,1/2+z
1/2-y,1/2+x,1/2-z
1/2+x,-y,3/4-z
1/2-x,y,3/4-z
1/2-y,-x,3/4+z
1/2+y,x,3/4+z
loop_
_atom_site_type_symbol
_atom_site_label
_atom_site_fract_x
_atom_site_fract_y
_atom_site_fract_z
Si Si1 0.874885 0.853057 0.807040
Si Si2 0.500000 0.500000 0.500000
Si Si3 0.613869 0.499240 0.737320
Si Si4 0.369541 0.593704 0.220884
Si Si5 0.818635 0.973827 0.839902
Si Si6 0.268256 0.819430 0.101890
O O1 0.937814 0.857443 0.694613
O O2 0.833268 0.908804 0.760449
O O3 0.891965 0.861840 0.041546
O O4 0.841685 0.790815 0.787645
O O5 0.551931 0.478922 0.640644
O O6 0.600026 0.561683 0.841770
O O7 0.654054 0.520313 0.556559
O O8 0.347507 0.526042 0.212236
O O9 0.326054 0.640564 0.119865
O O10 0.750000 0.983968 0.875000
O O11 0.250000 0.827952 0.875000
O O12 0.279787 0.750000 0.125000
#
# Coordination Sequence:
#
# PCOD9560681 Si02
#       6
#    16   4  16  16  16  16
#     4   9  16  26  41  66  95 126 166 206 254 304
#     4  12  12  24  40  64 100 132 158 196 276 316
#     4  10  15  24  39  61  92 128 159 197 253 308
#     4   9  16  26  41  63  93 128 163 199 248 307
#     4  10  15  21  35  60  92 124 153 195 247 302
#     4  10  20  34  50  71 101 137 175 211 259 315
#
# _framework density 24.150680000000001
#
# number of rings (size 3 to 8) (size 9 to 14) (size 15 to 20)
#    0.000    2.286    5.714    3.429    0.000    0.000 
#    0.000    0.000    0.000    1.143    0.000    0.000 
#    0.000    0.000    0.000   11.810    0.000    0.000 
#
# Total GULP energy -234744.277607 kJ/mol
# GULP energy per Si atom -5589.149467 kJ/mol
# Density = 2.409571 g / cm^3
# Si number density = 24.150680 Si / 1000 Ang^3
#
#
#
# Elastic Constant Matrix: (Units=GPa)
#
#
# Indices 1 2 3 4 5 6 
#
# 1 197.7063 104.5138 13.9491 0.0000 0.0000 0.0000
# 2 104.5138 197.7063 13.9491 0.0000 0.0000 0.0000
# 3 13.9491 13.9491 58.1933 0.0000 0.0000 0.0000
# 4 0.0000 0.0000 0.0000 14.4719 0.0000 0.0000
# 5 0.0000 0.0000 0.0000 0.0000 14.4719 0.0000
# 6 0.0000 0.0000 0.0000 0.0000 0.0000 48.6793
#
#
#
# Elastic Compliance Matrix: (Units=1/GPa)
#
#
# Indices 1 2 3 4 5 6 
#
# 1 0.007057 -0.003673 -0.000811 0.000000 0.000000 0.000000
# 2 -0.003673 0.007057 -0.000811 0.000000 0.000000 0.000000
# 3 -0.000811 -0.000811 0.017573 0.000000 0.000000 0.000000
# 4 0.000000 0.000000 0.000000 0.069100 0.000000 0.000000
# 5 0.000000 0.000000 0.000000 0.000000 0.069100 0.000000
# 6 0.000000 0.000000 0.000000 0.000000 0.000000 0.020543
#
#
# Mechanical properties :
#
#
# Convention : Reuss Voigt Hill
#
# Bulk Modulus (GPa) = 47.40225 79.82553 63.61389
# Shear Modulus (GPa) = 24.03244 36.93754 30.48499
#
# Velocity S-wave (km/s) = 3.15795 3.91508 3.55672
# Velocity P-wave (km/s) = 5.74170 7.31860 6.57758
#
# Compressibility (1/GPa) = 0.02109605
#
# Stress axis : x y z
#
# Youngs Moduli (GPa) = 141.70127 141.70127 56.90565
#
# Poissons Ratio (x) = 0.52052 0.04616
# Poissons Ratio (y) = 0.52052 0.04616
# Poissons Ratio (z) = 0.11493 0.11493
#
# Static dielectric constant tensor:
#      x y z
#    x 2.032370 0.000000 0.000000 
#    y 0.000000 2.032370 0.000000 
#    z 0.000000 0.000000 2.091910 
# 
# From -- ./inp_files/4382.got.cif
#   From: 2010.05.17/outbox.cif.g08.bks.cpg/sg122_3_cif.got.tgz:4382.got - 2010.05.20 11:37:33.
