data_PCOD9560254
_publ_section_title
;
Structure prediction by ZEFSAII (Michael W. Deem and Ramdas Pophale) SiO2 
 PCOD9560254
Probable space group: I -4 2 M
;
_chemical_formula_sum "Si O2"
_cell_formula_units_Z 80
_cell_length_a 28.546319
_cell_length_b 28.546319
_cell_length_c 5.047826
_cell_angle_alpha 90.000000
_cell_angle_beta 90.000000
_cell_angle_gamma 90.000000
_cell_volume 4113.434683
_symmetry_space_group_name_H-M "I -4 2 M"
_symmetry_group_IT_number 121
_symmetry_cell_setting 'tetragonal'
loop_
_space_group_symop_operation_xyz
x,y,z
y,-x,-z
-x,-y,z
-y,x,-z
x,-y,-z
-x,y,-z
-y,-x,z
y,x,z
1/2+x,1/2+y,1/2+z
1/2+y,1/2-x,1/2-z
1/2-x,1/2-y,1/2+z
1/2-y,1/2+x,1/2-z
1/2+x,1/2-y,1/2-z
1/2-x,1/2+y,1/2-z
1/2-y,1/2-x,1/2+z
1/2+y,1/2+x,1/2+z
loop_
_atom_site_type_symbol
_atom_site_label
_atom_site_fract_x
_atom_site_fract_y
_atom_site_fract_z
Si Si1 0.173353 0.904068 0.535140
Si Si2 0.631673 0.825136 0.454960
Si Si3 0.893007 0.970048 0.737767
Si Si4 0.444502 0.897230 0.457366
Si Si5 0.284069 0.362292 0.479119
O O1 0.126619 0.873382 0.575797
O O2 0.154402 0.950280 0.395127
O O3 0.197678 0.902253 0.818644
O O4 0.205005 0.877360 0.320598
O O5 0.644573 0.835778 0.151669
O O6 0.580030 0.846215 0.510921
O O7 0.641213 0.771159 0.515515
O O8 0.926909 0.926909 0.810960
O O9 0.915621 0.000000 0.500000
O O10 0.884927 0.000000 0.000000
O O11 0.500000 0.895840 0.500000
O O12 0.419260 0.929987 0.676349
O O13 0.315339 0.315339 0.533195
#
# Coordination Sequence:
#
# PCOD9560254 Si02
#       5
#    16  16  16  16  16
#     4   9  19  35  53  74 101 136 179 226 269 310
#     4  10  21  36  54  81 117 148 175 220 279 325
#     4  11  22  36  54  76 105 138 176 228 287 344
#     4  10  21  37  57  81 110 143 180 224 274 326
#     4  10  19  34  57  80 106 145 188 223 263 324
#
# _framework density 19.448467999999998
#
# number of rings (size 3 to 8) (size 9 to 14) (size 15 to 20)
#    0.000    2.000    0.000    3.600    0.000    6.400 
#    0.000    3.000    0.000    2.400    0.000    0.000 
#    0.000    0.000    0.000    0.000    0.000    0.000 
#
# Total GULP energy -223084.186861 kJ/mol
# GULP energy per Si atom -5577.104672 kJ/mol
# Density = 1.940420 g / cm^3
# Si number density = 19.448468 Si / 1000 Ang^3
#
#
#
# Elastic Constant Matrix: (Units=GPa)
#
#
# Indices 1 2 3 4 5 6 
#
# 1 63.4426 42.0336 -7.9509 0.0000 0.0000 0.0000
# 2 42.0336 63.4392 -7.9499 0.0000 0.0000 0.0000
# 3 -7.9509 -7.9499 71.1724 0.0000 0.0000 0.0000
# 4 0.0000 0.0000 0.0000 19.5560 0.0000 0.0000
# 5 0.0000 0.0000 0.0000 0.0000 19.5570 0.0000
# 6 0.0000 0.0000 0.0000 0.0000 0.0000 8.3874
#
#
#
# Elastic Compliance Matrix: (Units=1/GPa)
#
#
# Indices 1 2 3 4 5 6 
#
# 1 0.028177 -0.018535 0.001077 0.000000 0.000000 0.000000
# 2 -0.018535 0.028179 0.001077 0.000000 0.000000 0.000000
# 3 0.001077 0.001077 0.014291 0.000000 0.000000 0.000000
# 4 0.000000 0.000000 0.000000 0.051135 0.000000 0.000000
# 5 0.000000 0.000000 0.000000 0.000000 0.051133 0.000000
# 6 0.000000 0.000000 0.000000 0.000000 0.000000 0.119226
#
#
# Mechanical properties :
#
#
# Convention : Reuss Voigt Hill
#
# Bulk Modulus (GPa) = 26.39452 27.81333 27.10392
# Shear Modulus (GPa) = 14.81346 20.96151 17.88749
#
# Velocity S-wave (km/s) = 2.76284 3.28654 3.03601
# Velocity P-wave (km/s) = 4.87634 5.36040 5.12409
#
# Compressibility (1/GPa) = 0.03788665
#
# Stress axis : x y z
#
# Youngs Moduli (GPa) = 35.48942 35.48762 69.97383
#
# Poissons Ratio (x) = 0.65775 -0.07539
# Poissons Ratio (y) = 0.65779 -0.07536
# Poissons Ratio (z) = -0.03824 -0.03822
#
# Static dielectric constant tensor:
#      x y z
#    x 1.698060 0.000000 0.000000 
#    y 0.000000 1.698070 0.000000 
#    z 0.000000 0.000000 1.676830 
# 
# From -- ./inp_files/583.got.cif
#   From: 2010.05.17/outbox.cif.g08.bks.cpg/sg121_1_cif.got.tgz:583.got - 2010.05.20 11:32:06.
