data_PCOD9560628
_publ_section_title
;
Structure prediction by ZEFSAII (Michael W. Deem and Ramdas Pophale) SiO2 
 PCOD9560628
Probable space group: I -4 2 M
;
_chemical_formula_sum "Si O2"
_cell_formula_units_Z 40
_cell_length_a 14.714154
_cell_length_b 14.714154
_cell_length_c 7.658731
_cell_angle_alpha 90.000000
_cell_angle_beta 90.000000
_cell_angle_gamma 90.000000
_cell_volume 1658.163725
_symmetry_space_group_name_H-M "I -4 2 M"
_symmetry_group_IT_number 121
_symmetry_cell_setting 'tetragonal'
loop_
_space_group_symop_operation_xyz
x,y,z
y,-x,-z
-x,-y,z
-y,x,-z
x,-y,-z
-x,y,-z
-y,-x,z
y,x,z
1/2+x,1/2+y,1/2+z
1/2+y,1/2-x,1/2-z
1/2-x,1/2-y,1/2+z
1/2-y,1/2+x,1/2-z
1/2+x,1/2-y,1/2-z
1/2-x,1/2+y,1/2-z
1/2-y,1/2-x,1/2+z
1/2+y,1/2+x,1/2+z
loop_
_atom_site_type_symbol
_atom_site_label
_atom_site_fract_x
_atom_site_fract_y
_atom_site_fract_z
Si Si1 0.906846 0.574903 0.646532
Si Si2 0.849230 0.000000 0.000000
Si Si3 0.421523 0.729415 0.855189
O O1 0.886219 0.500000 0.500000
O O2 0.709185 0.467240 0.666052
O O3 0.894620 0.513008 0.820260
O O4 0.865896 0.674407 0.639033
O O5 0.916233 0.083768 0.950772
O O6 0.350901 0.649100 0.887062
O O7 0.500000 0.724753 0.000000
#
# Coordination Sequence:
#
# PCOD9560628 Si02
#       3
#    16   8  16
#     4  11  23  42  68  93 132 182 222 281 344 403
#     4   9  20  38  62  97 140 184 230 285 348 417
#     4  11  23  41  69 101 137 181 230 283 347 415
#
# _framework density 24.123069000000001
#
# number of rings (size 3 to 8) (size 9 to 14) (size 15 to 20)
#    0.000    1.400    0.000    8.400    5.600    2.000 
#    0.000   10.000    0.000    0.000    0.000    0.000 
#    0.000    0.800    0.000    0.000    0.000    0.000 
#
# Total GULP energy -111454.865200 kJ/mol
# GULP energy per Si atom -5572.743260 kJ/mol
# Density = 2.406816 g / cm^3
# Si number density = 24.123069 Si / 1000 Ang^3
#
#
#
# Elastic Constant Matrix: (Units=GPa)
#
#
# Indices 1 2 3 4 5 6 
#
# 1 147.5648 48.7158 90.0917 0.0000 0.0000 0.0000
# 2 48.7158 147.5701 90.0929 0.0000 0.0000 0.0000
# 3 90.0917 90.0929 148.0109 0.0000 0.0000 0.0000
# 4 0.0000 0.0000 0.0000 36.3327 0.0000 0.0000
# 5 0.0000 0.0000 0.0000 0.0000 36.3331 0.0000
# 6 0.0000 0.0000 0.0000 0.0000 0.0000 14.1502
#
#
#
# Elastic Compliance Matrix: (Units=1/GPa)
#
#
# Indices 1 2 3 4 5 6 
#
# 1 0.010832 0.000715 -0.007028 0.000000 0.000000 0.000000
# 2 0.000715 0.010831 -0.007028 0.000000 0.000000 0.000000
# 3 -0.007028 -0.007028 0.015312 0.000000 0.000000 0.000000
# 4 0.000000 0.000000 0.000000 0.027523 0.000000 0.000000
# 5 0.000000 0.000000 0.000000 0.000000 0.027523 0.000000
# 6 0.000000 0.000000 0.000000 0.000000 0.000000 0.070671
#
#
# Mechanical properties :
#
#
# Convention : Reuss Voigt Hill
#
# Bulk Modulus (GPa) = 97.15945 100.10518 98.63231
# Shear Modulus (GPa) = 25.93295 31.64622 28.78959
#
# Velocity S-wave (km/s) = 3.28232 3.62590 3.45838
# Velocity P-wave (km/s) = 7.39789 7.68878 7.54474
#
# Compressibility (1/GPa) = 0.01029236
#
# Stress axis : x y z
#
# Youngs Moduli (GPa) = 92.32322 92.32723 65.30771
#
# Poissons Ratio (x) = -0.06602 0.45900
# Poissons Ratio (y) = -0.06602 0.45898
# Poissons Ratio (z) = 0.64887 0.64888
#
# Static dielectric constant tensor:
#      x y z
#    x 2.044320 0.000000 0.000000 
#    y 0.000000 2.044320 0.000000 
#    z 0.000000 0.000000 2.080590 
# 
# From -- ./inp_files/991.got.cif
#   From: 2010.05.17/outbox.cif.g08.bks.cpg/sg121_1_cif.got.tgz:991.got - 2010.05.20 11:32:06.
