data_PCOD9560403
_publ_section_title
;
Structure prediction by ZEFSAII (Michael W. Deem and Ramdas Pophale) SiO2 
 PCOD9560403
Probable space group: I -4 2 M
;
_chemical_formula_sum "Si O2"
_cell_formula_units_Z 68
_cell_length_a 11.413357
_cell_length_b 11.413357
_cell_length_c 28.735174
_cell_angle_alpha 90.000000
_cell_angle_beta 90.000000
_cell_angle_gamma 90.000000
_cell_volume 3743.179338
_symmetry_space_group_name_H-M "I -4 2 M"
_symmetry_group_IT_number 121
_symmetry_cell_setting 'tetragonal'
loop_
_space_group_symop_operation_xyz
x,y,z
y,-x,-z
-x,-y,z
-y,x,-z
x,-y,-z
-x,y,-z
-y,-x,z
y,x,z
1/2+x,1/2+y,1/2+z
1/2+y,1/2-x,1/2-z
1/2-x,1/2-y,1/2+z
1/2-y,1/2+x,1/2-z
1/2+x,1/2-y,1/2-z
1/2-x,1/2+y,1/2-z
1/2-y,1/2-x,1/2+z
1/2+y,1/2+x,1/2+z
loop_
_atom_site_type_symbol
_atom_site_label
_atom_site_fract_x
_atom_site_fract_y
_atom_site_fract_z
Si Si1 0.024718 0.675186 0.823418
Si Si2 0.500000 0.000000 0.750000
Si Si3 0.500000 0.000000 0.406550
Si Si4 0.907392 0.907392 0.619612
Si Si5 0.712312 0.712312 0.206921
Si Si6 0.402928 0.402928 0.298333
Si Si7 0.248032 0.558847 0.050397
O O1 0.149702 0.690786 0.798809
O O2 0.953027 0.595853 0.786417
O O3 0.036509 0.605157 0.871451
O O4 0.963533 0.799664 0.827373
O O5 0.388940 0.047999 0.435693
O O6 0.844957 0.844957 0.661644
O O7 0.979288 0.817655 0.587534
O O8 0.000000 0.000000 0.639241
O O9 0.654758 0.654758 0.252373
O O10 0.500000 0.500000 0.285713
O O11 0.314124 0.685877 0.050886
O O12 0.264589 0.500000 0.000000
#
# Coordination Sequence:
#
# PCOD9560403 Si02
#       7
#    16   4   8   8   8   8  16
#     4  11  23  38  58  83 120 162 209 258 310 378
#     4  10  20  40  54  80 110 152 198 260 308 354
#     4  11  25  41  61  92 128 168 213 251 321 393
#     4  10  21  38  60  92 119 153 196 251 313 371
#     4  12  21  41  58  82 124 160 210 260 315 373
#     4  12  25  38  60  90 121 167 216 268 325 374
#     4  11  22  40  67  95 127 159 200 261 322 382
#
# _framework density 18.166376
#
# number of rings (size 3 to 8) (size 9 to 14) (size 15 to 20)
#    0.000    0.941    7.059    0.706    1.647    0.000 
#    0.000    0.000    0.000    0.000    0.000    0.000 
#    0.000    0.000    0.000    0.000    0.000    0.000 
#
# Total GULP energy -189632.741070 kJ/mol
# GULP energy per Si atom -5577.433561 kJ/mol
# Density = 1.812503 g / cm^3
# Si number density = 18.166376 Si / 1000 Ang^3
#
#
#
# Elastic Constant Matrix: (Units=GPa)
#
#
# Indices 1 2 3 4 5 6 
#
# 1 110.6139 41.2280 26.3441 0.0000 0.0000 0.0000
# 2 41.2280 110.6132 26.3437 0.0000 0.0000 0.0000
# 3 26.3441 26.3437 62.6003 0.0000 0.0000 0.0000
# 4 0.0000 0.0000 0.0000 21.6513 0.0000 0.0000
# 5 0.0000 0.0000 0.0000 0.0000 21.6522 0.0000
# 6 0.0000 0.0000 0.0000 0.0000 0.0000 32.5727
#
#
#
# Elastic Compliance Matrix: (Units=1/GPa)
#
#
# Indices 1 2 3 4 5 6 
#
# 1 0.011062 -0.003350 -0.003245 0.000000 0.000000 0.000000
# 2 -0.003350 0.011062 -0.003245 0.000000 0.000000 0.000000
# 3 -0.003245 -0.003245 0.018706 0.000000 0.000000 0.000000
# 4 0.000000 0.000000 0.000000 0.046187 0.000000 0.000000
# 5 0.000000 0.000000 0.000000 0.000000 0.046185 0.000000
# 6 0.000000 0.000000 0.000000 0.000000 0.000000 0.030701
#
#
# Mechanical properties :
#
#
# Convention : Reuss Voigt Hill
#
# Bulk Modulus (GPa) = 47.28542 52.40656 49.84599
# Shear Modulus (GPa) = 26.22840 27.83602 27.03221
#
# Velocity S-wave (km/s) = 3.80384 3.91868 3.86169
# Velocity P-wave (km/s) = 6.73631 7.02748 6.88344
#
# Compressibility (1/GPa) = 0.02114817
#
# Stress axis : x y z
#
# Youngs Moduli (GPa) = 90.39911 90.39880 53.45921
#
# Poissons Ratio (x) = 0.30285 0.17350
# Poissons Ratio (y) = 0.30285 0.17349
# Poissons Ratio (z) = 0.29338 0.29338
#
# Static dielectric constant tensor:
#      x y z
#    x 1.662410 0.000000 0.000000 
#    y 0.000000 1.662410 0.000000 
#    z 0.000000 0.000000 1.582220 
# 
# From -- ./inp_files/7629.got.cif
#   From: 2010.05.17/outbox.cif.g08.bks.cpg/sg121_4_cif.got.tgz:7629.got - 2010.05.20 11:32:06.
