data_PCOD9560050
_publ_section_title
;
Structure prediction by ZEFSAII (Michael W. Deem and Ramdas Pophale) SiO2 
 PCOD9560050
Probable space group: I -4 C 2
;
_chemical_formula_sum "Si O2"
_cell_formula_units_Z 36
_cell_length_a 8.131169
_cell_length_b 8.131169
_cell_length_c 20.471646
_cell_angle_alpha 90.000000
_cell_angle_beta 90.000000
_cell_angle_gamma 90.000000
_cell_volume 1353.501490
_symmetry_space_group_name_H-M "I -4 C 2"
_symmetry_group_IT_number 120
_symmetry_cell_setting 'tetragonal'
loop_
_space_group_symop_operation_xyz
x,y,z
y,-x,-z
-x,-y,z
-y,x,-z
y,x,1/2-z
-y,-x,1/2-z
-x,y,1/2+z
x,-y,1/2+z
1/2+x,1/2+y,1/2+z
1/2+y,1/2-x,1/2-z
1/2-x,1/2-y,1/2+z
1/2-y,1/2+x,1/2-z
1/2+y,1/2+x,-z
1/2-y,1/2-x,-z
1/2-x,1/2+y,z
1/2+x,1/2-y,z
loop_
_atom_site_type_symbol
_atom_site_label
_atom_site_fract_x
_atom_site_fract_y
_atom_site_fract_z
Si Si1 0.167203 0.076735 0.663925
Si Si2 0.375765 0.846858 0.427403
Si Si3 0.500000 0.000000 0.750000
O O1 0.133438 0.256540 0.634914
O O2 0.195962 0.982012 0.596132
O O3 0.332221 0.058022 0.709432
O O4 0.000000 0.000000 0.689659
O O5 0.312162 0.812162 0.500000
O O6 0.500000 0.000000 0.430249
#
# Coordination Sequence:
#
# PCOD9560050 Si02
#       3
#    16  16   4
#     4  12  29  56  85 125 176 240 288 369 449 526
#     4  11  27  53  86 129 172 225 303 367 452 535
#     4  12  32  64  82 136 184 228 316 358 440 560
#
# _framework density 26.597678999999999
#
# number of rings (size 3 to 8) (size 9 to 14) (size 15 to 20)
#    0.000    0.444    2.222    2.667   12.444    1.778 
#   16.000    0.000    0.000    0.000    0.000    0.000 
#    0.000    0.000    0.000    0.000    0.000    0.000 
#
# Total GULP energy -100483.593102 kJ/mol
# GULP energy per Si atom -5582.421839 kJ/mol
# Density = 2.653714 g / cm^3
# Si number density = 26.597679 Si / 1000 Ang^3
#
#
#
# Elastic Constant Matrix: (Units=GPa)
#
#
# Indices 1 2 3 4 5 6 
#
# 1 166.3997 50.2968 75.0282 0.0000 0.0000 0.0000
# 2 50.2968 166.3997 75.0282 0.0000 0.0000 0.0000
# 3 75.0282 75.0282 222.6677 0.0000 0.0000 0.0000
# 4 0.0000 0.0000 0.0000 20.9302 0.0000 0.0000
# 5 0.0000 0.0000 0.0000 0.0000 20.9302 0.0000
# 6 0.0000 0.0000 0.0000 0.0000 0.0000 39.1656
#
#
#
# Elastic Compliance Matrix: (Units=1/GPa)
#
#
# Indices 1 2 3 4 5 6 
#
# 1 0.007316 -0.001297 -0.002028 0.000000 0.000000 0.000000
# 2 -0.001297 0.007316 -0.002028 0.000000 0.000000 0.000000
# 3 -0.002028 -0.002028 0.005858 0.000000 0.000000 0.000000
# 4 0.000000 0.000000 0.000000 0.047778 0.000000 0.000000
# 5 0.000000 0.000000 0.000000 0.000000 0.047778 0.000000
# 6 0.000000 0.000000 0.000000 0.000000 0.000000 0.025533
#
#
# Mechanical properties :
#
#
# Convention : Reuss Voigt Hill
#
# Bulk Modulus (GPa) = 102.21303 106.24148 104.22725
# Shear Modulus (GPa) = 32.14485 39.87948 36.01216
#
# Velocity S-wave (km/s) = 3.48020 3.87636 3.68361
# Velocity P-wave (km/s) = 7.39336 7.75019 7.57388
#
# Compressibility (1/GPa) = 0.00978349
#
# Stress axis : x y z
#
# Youngs Moduli (GPa) = 136.68436 136.68436 170.71273
#
# Poissons Ratio (x) = 0.17727 0.34624
# Poissons Ratio (y) = 0.17727 0.34624
# Poissons Ratio (z) = 0.27722 0.27722
#
# Static dielectric constant tensor:
#      x y z
#    x 2.273680 0.000000 0.000000 
#    y 0.000000 2.273680 0.000000 
#    z 0.000000 0.000000 2.112470 
# 
# From -- ./inp_files/4766.got.cif
#   From: 2010.05.17/outbox.cif.g08.bks.cpg/sg120_3_cif.got.tgz:4766.got - 2010.05.20 11:28:13.
