data_PCOD9560482
_publ_section_title
;
Structure prediction by ZEFSAII (Michael W. Deem and Ramdas Pophale) SiO2 
 PCOD9560482
Probable space group: I -4 2 M
;
_chemical_formula_sum "Si O2"
_cell_formula_units_Z 108
_cell_length_a 14.017184
_cell_length_b 14.017184
_cell_length_c 27.762278
_cell_angle_alpha 90.000000
_cell_angle_beta 90.000000
_cell_angle_gamma 90.000000
_cell_volume 5454.772562
_symmetry_space_group_name_H-M "I -4 2 M"
_symmetry_group_IT_number 121
_symmetry_cell_setting 'tetragonal'
loop_
_space_group_symop_operation_xyz
x,y,z
y,-x,-z
-x,-y,z
-y,x,-z
x,-y,-z
-x,y,-z
-y,-x,z
y,x,z
1/2+x,1/2+y,1/2+z
1/2+y,1/2-x,1/2-z
1/2-x,1/2-y,1/2+z
1/2-y,1/2+x,1/2-z
1/2+x,1/2-y,1/2-z
1/2-x,1/2+y,1/2-z
1/2-y,1/2-x,1/2+z
1/2+y,1/2+x,1/2+z
loop_
_atom_site_type_symbol
_atom_site_label
_atom_site_fract_x
_atom_site_fract_y
_atom_site_fract_z
Si Si1 0.153939 0.628252 0.053171
Si Si2 0.215494 0.784507 0.470192
Si Si3 0.500000 0.000000 0.500000
Si Si4 0.228245 0.450148 0.104971
Si Si5 0.636848 0.790317 0.757664
Si Si6 0.507631 0.346727 0.800477
Si Si7 0.942772 0.598247 0.173445
Si Si8 0.613662 0.233295 0.651388
O O1 0.223740 0.549677 0.076682
O O2 0.130595 0.699461 0.096760
O O3 0.064666 0.567787 0.033419
O O4 0.203338 0.679600 0.008910
O O5 0.131014 0.753391 0.432356
O O6 0.300349 0.461372 0.149451
O O7 0.127006 0.425453 0.129405
O O8 0.718248 0.718248 0.738894
O O9 0.540556 0.730892 0.766432
O O10 0.617840 0.874229 0.720485
O O11 0.671098 0.826175 0.809875
O O12 0.597592 0.402409 0.778526
O O13 0.424746 0.424746 0.809461
O O14 0.000000 0.500000 0.182110
O O15 0.007604 0.691898 0.162339
O O16 0.659525 0.340476 0.656283
#
# Coordination Sequence:
#
# PCOD9560482 Si02
#       8
#    16   8   4  16  16  16  16  16
#     4  12  23  42  64  93 130 172 217 276 333 413
#     4  12  26  40  67  96 133 172 224 274 348 408
#     4  12  24  40  64  96 132 170 216 276 348 384
#     4  12  24  43  64  97 133 175 220 286 334 398
#     4  10  24  41  62  96 130 181 219 269 331 405
#     4  10  21  39  63  86 132 182 224 265 330 400
#     4  12  26  42  69 101 137 175 224 280 341 399
#     4  11  24  42  64  91 132 174 219 275 341 397
#
# _framework density 19.799175999999999
#
# number of rings (size 3 to 8) (size 9 to 14) (size 15 to 20)
#    0.000    0.741    5.926    0.889    6.222    0.593 
#    0.000    0.000    0.000    0.000    0.000    0.000 
#    0.000    0.000    0.000    0.000    0.000    0.000 
#
# Total GULP energy -300650.878435 kJ/mol
# GULP energy per Si atom -5567.608860 kJ/mol
# Density = 1.975411 g / cm^3
# Si number density = 19.799176 Si / 1000 Ang^3
#
#
#
# Elastic Constant Matrix: (Units=GPa)
#
#
# Indices 1 2 3 4 5 6 
#
# 1 55.7896 21.5476 10.7779 0.0000 0.0000 0.0000
# 2 21.5476 55.7913 10.7784 0.0000 0.0000 0.0000
# 3 10.7779 10.7784 81.7946 0.0000 0.0000 0.0000
# 4 0.0000 0.0000 0.0000 11.7186 0.0000 0.0000
# 5 0.0000 0.0000 0.0000 0.0000 11.7098 0.0000
# 6 0.0000 0.0000 0.0000 0.0000 0.0000 40.0814
#
#
#
# Elastic Compliance Matrix: (Units=1/GPa)
#
#
# Indices 1 2 3 4 5 6 
#
# 1 0.021314 -0.007890 -0.001769 0.000000 0.000000 0.000000
# 2 -0.007890 0.021313 -0.001769 0.000000 0.000000 0.000000
# 3 -0.001769 -0.001769 0.012692 0.000000 0.000000 0.000000
# 4 0.000000 0.000000 0.000000 0.085334 0.000000 0.000000
# 5 0.000000 0.000000 0.000000 0.000000 0.085398 0.000000
# 6 0.000000 0.000000 0.000000 0.000000 0.000000 0.024949
#
#
# Mechanical properties :
#
#
# Convention : Reuss Voigt Hill
#
# Bulk Modulus (GPa) = 30.80407 31.06480 30.93443
# Shear Modulus (GPa) = 17.56382 22.72010 20.14196
#
# Velocity S-wave (km/s) = 2.98165 3.39119 3.19299
# Velocity P-wave (km/s) = 5.23886 5.57293 5.40848
#
# Compressibility (1/GPa) = 0.03246325
#
# Stress axis : x y z
#
# Youngs Moduli (GPa) = 46.91860 46.91998 78.79044
#
# Poissons Ratio (x) = 0.37020 0.13936
# Poissons Ratio (y) = 0.37018 0.13937
# Poissons Ratio (z) = 0.08299 0.08299
#
# Static dielectric constant tensor:
#      x y z
#    x 1.728010 0.000000 0.000000 
#    y 0.000000 1.728000 0.000000 
#    z 0.000000 0.000000 1.669850 
# 
# From -- ./inp_files/7223.got.cif
#   From: 2010.05.17/outbox.cif.g08.bks.cpg/sg121_4_cif.got.tgz:7223.got - 2010.05.20 11:32:06.
