data_PCOD9560724
_publ_section_title
;
Structure prediction by ZEFSAII (Michael W. Deem and Ramdas Pophale) SiO2 
 PCOD9560724
Probable space group: I -4 2 D
;
_chemical_formula_sum "Si O2"
_cell_formula_units_Z 80
_cell_length_a 11.484184
_cell_length_b 11.484184
_cell_length_c 30.915275
_cell_angle_alpha 90.000000
_cell_angle_beta 90.000000
_cell_angle_gamma 90.000000
_cell_volume 4077.306864
_symmetry_space_group_name_H-M "I -4 2 D"
_symmetry_group_IT_number 122
_symmetry_cell_setting 'tetragonal'
loop_
_space_group_symop_operation_xyz
x,y,z
y,-x,-z
-x,-y,z
-y,x,-z
x,1/2-y,1/4-z
-x,1/2+y,1/4-z
-y,1/2-x,1/4+z
y,1/2+x,1/4+z
1/2+x,1/2+y,1/2+z
1/2+y,1/2-x,1/2-z
1/2-x,1/2-y,1/2+z
1/2-y,1/2+x,1/2-z
1/2+x,-y,3/4-z
1/2-x,y,3/4-z
1/2-y,-x,3/4+z
1/2+y,x,3/4+z
loop_
_atom_site_type_symbol
_atom_site_label
_atom_site_fract_x
_atom_site_fract_y
_atom_site_fract_z
Si Si1 0.804625 0.013566 0.161035
Si Si2 0.018682 0.358645 0.315919
Si Si3 0.645241 0.908547 0.231627
Si Si4 0.832945 0.704958 0.236363
Si Si5 0.681712 0.997446 0.920278
O O1 0.877160 0.118696 0.182331
O O2 0.793938 0.043795 0.110717
O O3 0.693861 0.970831 0.188012
O O4 0.900162 0.910486 0.159745
O O5 0.903836 0.302953 0.294369
O O6 0.000000 0.500000 0.321025
O O7 0.121860 0.338817 0.282305
O O8 0.513740 0.858807 0.233124
O O9 0.735534 0.804207 0.239949
O O10 0.945034 0.755185 0.210744
O O11 0.750000 0.981170 0.875000
#
# Coordination Sequence:
#
# PCOD9560724 Si02
#       5
#    16  16  16  16  16
#     4  10  21  36  64  90 124 168 213 265 316 399
#     4  12  20  36  63 110 145 160 189 273 366 415
#     4  10  25  47  66  79 120 185 243 272 309 371
#     4  11  22  35  65  97 138 172 200 267 340 408
#     4  10  18  33  56  95 132 164 202 242 327 411
#
# _framework density 19.620795999999999
#
# number of rings (size 3 to 8) (size 9 to 14) (size 15 to 20)
#    0.000    1.400    6.000    0.000    2.800    0.000 
#    0.000    0.000   17.600    0.000    0.000    0.000 
#    0.000    0.000    0.000    0.000    0.000    0.000 
#
# Total GULP energy -223011.542403 kJ/mol
# GULP energy per Si atom -5575.288560 kJ/mol
# Density = 1.957614 g / cm^3
# Si number density = 19.620796 Si / 1000 Ang^3
#
#
#
# Elastic Constant Matrix: (Units=GPa)
#
#
# Indices 1 2 3 4 5 6 
#
# 1 101.5032 45.7000 25.4649 0.0000 0.0000 0.0000
# 2 45.7000 101.5032 25.4649 0.0000 0.0000 0.0000
# 3 25.4649 25.4649 73.5011 0.0000 0.0000 0.0000
# 4 0.0000 0.0000 0.0000 29.7161 0.0000 0.0000
# 5 0.0000 0.0000 0.0000 0.0000 29.7161 0.0000
# 6 0.0000 0.0000 0.0000 0.0000 0.0000 48.8785
#
#
#
# Elastic Compliance Matrix: (Units=1/GPa)
#
#
# Indices 1 2 3 4 5 6 
#
# 1 0.012819 -0.005101 -0.002674 0.000000 0.000000 0.000000
# 2 -0.005101 0.012819 -0.002674 0.000000 0.000000 0.000000
# 3 -0.002674 -0.002674 0.015458 0.000000 0.000000 0.000000
# 4 0.000000 0.000000 0.000000 0.033652 0.000000 0.000000
# 5 0.000000 0.000000 0.000000 0.000000 0.033652 0.000000
# 6 0.000000 0.000000 0.000000 0.000000 0.000000 0.020459
#
#
# Mechanical properties :
#
#
# Convention : Reuss Voigt Hill
#
# Bulk Modulus (GPa) = 49.50812 52.19635 50.85223
# Shear Modulus (GPa) = 31.95085 33.65398 32.80242
#
# Velocity S-wave (km/s) = 4.03974 4.14601 4.09322
# Velocity P-wave (km/s) = 6.85905 7.04128 6.95076
#
# Compressibility (1/GPa) = 0.02019871
#
# Stress axis : x y z
#
# Youngs Moduli (GPa) = 78.00721 78.00721 64.69069
#
# Poissons Ratio (x) = 0.39790 0.17299
# Poissons Ratio (y) = 0.39790 0.17299
# Poissons Ratio (z) = 0.20860 0.20860
#
# Static dielectric constant tensor:
#      x y z
#    x 1.732820 0.000000 0.000000 
#    y 0.000000 1.732820 0.000000 
#    z 0.000000 0.000000 1.726400 
# 
# From -- ./inp_files/9351.got.cif
#   From: 2010.05.17/outbox.cif.g08.bks.cpg/sg122_5_cif.got.tgz:9351.got - 2010.05.20 11:37:33.
