data_PCOD9560166
_publ_section_title
;
Structure prediction by ZEFSAII (Michael W. Deem and Ramdas Pophale) SiO2 
 PCOD9560166
Probable space group: I -4 2 M
;
_chemical_formula_sum "Si O2"
_cell_formula_units_Z 96
_cell_length_a 14.330414
_cell_length_b 14.330414
_cell_length_c 27.125270
_cell_angle_alpha 90.000000
_cell_angle_beta 90.000000
_cell_angle_gamma 90.000000
_cell_volume 5570.466209
_symmetry_space_group_name_H-M "I -4 2 M"
_symmetry_group_IT_number 121
_symmetry_cell_setting 'tetragonal'
loop_
_space_group_symop_operation_xyz
x,y,z
y,-x,-z
-x,-y,z
-y,x,-z
x,-y,-z
-x,y,-z
-y,-x,z
y,x,z
1/2+x,1/2+y,1/2+z
1/2+y,1/2-x,1/2-z
1/2-x,1/2-y,1/2+z
1/2-y,1/2+x,1/2-z
1/2+x,1/2-y,1/2-z
1/2-x,1/2+y,1/2-z
1/2-y,1/2-x,1/2+z
1/2+y,1/2+x,1/2+z
loop_
_atom_site_type_symbol
_atom_site_label
_atom_site_fract_x
_atom_site_fract_y
_atom_site_fract_z
Si Si1 0.249527 0.249527 0.478442
Si Si2 0.396161 0.894907 0.480154
Si Si3 0.623826 0.376175 0.643628
Si Si4 0.221660 0.515747 0.700517
Si Si5 0.093213 0.093213 0.969326
Si Si6 0.282959 0.717042 0.129932
Si Si7 0.427733 0.185004 0.802340
Si Si8 0.576011 0.917952 0.133684
O O1 0.167461 0.309725 0.502676
O O2 0.328754 0.328754 0.472806
O O3 0.207463 0.207463 0.428144
O O4 0.500000 0.863112 0.500000
O O5 0.390693 0.898425 0.421303
O O6 0.386727 0.000000 0.500000
O O7 0.681775 0.449360 0.676790
O O8 0.584676 0.415324 0.590965
O O9 0.702949 0.297052 0.633352
O O10 0.230762 0.459492 0.751278
O O11 0.145990 0.600436 0.708964
O O12 0.168139 0.453359 0.660615
O O13 0.000000 0.121558 0.000000
O O14 0.247595 0.627133 0.158714
O O15 0.520710 0.150851 0.830182
O O16 0.500000 0.000000 0.127612
#
# Coordination Sequence:
#
# PCOD9560166 Si02
#       8
#     8  16   8  16   8   8  16  16
#     4  11  23  36  59  85 117 153 195 242 303 353
#     4  11  22  37  57  88 119 152 196 251 301 346
#     4   9  21  34  52  77 115 151 184 236 288 342
#     4  10  19  32  54  83 112 145 188 237 291 341
#     4  10  22  39  56  77 114 165 206 229 272 363
#     4   9  20  33  53  78 112 145 183 233 291 349
#     4  10  18  34  54  83 109 148 189 232 292 347
#     4  10  19  31  55  82 112 146 190 240 289 344
#
# _framework density 17.233746
#
# number of rings (size 3 to 8) (size 9 to 14) (size 15 to 20)
#    0.000    1.917    3.333    1.500    9.333    0.000 
#    0.000    3.333    0.000    0.250    0.000    1.167 
#    0.000    0.000    0.000    0.000    0.000    0.000 
#
# Total GULP energy -267274.273664 kJ/mol
# GULP energy per Si atom -5568.214035 kJ/mol
# Density = 1.719452 g / cm^3
# Si number density = 17.233746 Si / 1000 Ang^3
#
#
#
# Elastic Constant Matrix: (Units=GPa)
#
#
# Indices 1 2 3 4 5 6 
#
# 1 71.3392 48.5816 63.8923 0.0000 0.0000 0.0000
# 2 48.5816 71.3399 63.8919 0.0000 0.0000 0.0000
# 3 63.8923 63.8919 191.1934 0.0000 0.0000 0.0000
# 4 0.0000 0.0000 0.0000 39.5763 0.0000 0.0000
# 5 0.0000 0.0000 0.0000 0.0000 39.5745 0.0000
# 6 0.0000 0.0000 0.0000 0.0000 0.0000 17.7135
#
#
#
# Elastic Compliance Matrix: (Units=1/GPa)
#
#
# Indices 1 2 3 4 5 6 
#
# 1 0.028446 -0.015495 -0.004328 0.000000 0.000000 0.000000
# 2 -0.015495 0.028445 -0.004327 0.000000 0.000000 0.000000
# 3 -0.004328 -0.004327 0.008123 0.000000 0.000000 0.000000
# 4 0.000000 0.000000 0.000000 0.025268 0.000000 0.000000
# 5 0.000000 0.000000 0.000000 0.000000 0.025269 0.000000
# 6 0.000000 0.000000 0.000000 0.000000 0.000000 0.056454
#
#
# Mechanical properties :
#
#
# Convention : Reuss Voigt Hill
#
# Bulk Modulus (GPa) = 59.83530 76.28933 68.06232
# Shear Modulus (GPa) = 22.13601 29.87329 26.00465
#
# Velocity S-wave (km/s) = 3.58782 4.16795 3.88872
# Velocity P-wave (km/s) = 7.20822 8.21742 7.72931
#
# Compressibility (1/GPa) = 0.01671254
#
# Stress axis : x y z
#
# Youngs Moduli (GPa) = 35.15463 35.15530 123.11206
#
# Poissons Ratio (x) = 0.54474 0.53280
# Poissons Ratio (y) = 0.54473 0.53277
# Poissons Ratio (z) = 0.15214 0.15213
#
# Static dielectric constant tensor:
#      x y z
#    x 1.581260 0.000000 0.000000 
#    y 0.000000 1.581260 0.000000 
#    z 0.000000 0.000000 1.590760 
# 
# From -- ./inp_files/7163.got.cif
#   From: 2010.05.17/outbox.cif.g08.bks.cpg/sg121_4_cif.got.tgz:7163.got - 2010.05.20 11:32:06.
