data_PCOD9560390
_publ_section_title
;
Structure prediction by ZEFSAII (Michael W. Deem and Ramdas Pophale) SiO2 
 PCOD9560390
Probable space group: I -4 2 M
;
_chemical_formula_sum "Si O2"
_cell_formula_units_Z 84
_cell_length_a 14.196754
_cell_length_b 14.196754
_cell_length_c 24.609918
_cell_angle_alpha 90.000000
_cell_angle_beta 90.000000
_cell_angle_gamma 90.000000
_cell_volume 4960.075425
_symmetry_space_group_name_H-M "I -4 2 M"
_symmetry_group_IT_number 121
_symmetry_cell_setting 'tetragonal'
loop_
_space_group_symop_operation_xyz
x,y,z
y,-x,-z
-x,-y,z
-y,x,-z
x,-y,-z
-x,y,-z
-y,-x,z
y,x,z
1/2+x,1/2+y,1/2+z
1/2+y,1/2-x,1/2-z
1/2-x,1/2-y,1/2+z
1/2-y,1/2+x,1/2-z
1/2+x,1/2-y,1/2-z
1/2-x,1/2+y,1/2-z
1/2-y,1/2-x,1/2+z
1/2+y,1/2+x,1/2+z
loop_
_atom_site_type_symbol
_atom_site_label
_atom_site_fract_x
_atom_site_fract_y
_atom_site_fract_z
Si Si1 0.105646 0.736137 0.519081
Si Si2 0.815799 0.658116 0.861314
Si Si3 0.248703 0.403415 0.534013
Si Si4 0.047903 0.649549 0.745700
Si Si5 0.000000 0.000000 0.842301
Si Si6 0.011344 0.228544 0.151006
O O1 0.170303 0.829698 0.516946
O O2 0.109396 0.696828 0.580477
O O3 0.158488 0.658115 0.482480
O O4 0.000000 0.752860 0.500000
O O5 0.731117 0.731117 0.854777
O O6 0.814523 0.585457 0.811783
O O7 0.912196 0.718038 0.859362
O O8 0.251061 0.500000 0.500000
O O9 0.339840 0.339840 0.519527
O O10 0.251359 0.426356 0.597705
O O11 0.111558 0.558584 0.759941
O O12 0.051768 0.725381 0.793891
O O13 0.883088 0.999942 0.843415
#
# Coordination Sequence:
#
# PCOD9560390 Si02
#       6
#    16  16  16  16   4  16
#     4  10  23  41  63  88 117 152 198 250 298 358
#     4  10  20  38  61  84 120 154 194 241 302 346
#     4  11  23  36  57  88 124 158 195 238 289 361
#     4   9  21  39  61  86 115 153 200 252 296 346
#     4  12  24  36  61  88 124 172 185 240 288 358
#     4  11  22  38  57  87 122 158 200 233 293 357
#
# _framework density 16.935226
#
# number of rings (size 3 to 8) (size 9 to 14) (size 15 to 20)
#    0.000    1.714    3.810    0.000    5.333    0.762 
#    0.000    0.000    2.095    0.000    0.000    0.000 
#    0.000    0.000    0.000    0.000    0.000    0.000 
#
# Total GULP energy -233872.823495 kJ/mol
# GULP energy per Si atom -5568.400559 kJ/mol
# Density = 1.689668 g / cm^3
# Si number density = 16.935226 Si / 1000 Ang^3
#
#
#
# Elastic Constant Matrix: (Units=GPa)
#
#
# Indices 1 2 3 4 5 6 
#
# 1 114.7091 42.8862 73.9138 0.0000 0.0000 0.0000
# 2 42.8862 114.7103 73.9141 0.0000 0.0000 0.0000
# 3 73.9138 73.9141 128.1845 0.0000 0.0000 0.0000
# 4 0.0000 0.0000 0.0000 22.6736 0.0000 0.0000
# 5 0.0000 0.0000 0.0000 0.0000 22.6741 0.0000
# 6 0.0000 0.0000 0.0000 0.0000 0.0000 9.7815
#
#
#
# Elastic Compliance Matrix: (Units=1/GPa)
#
#
# Indices 1 2 3 4 5 6 
#
# 1 0.013872 -0.000051 -0.007969 0.000000 0.000000 0.000000
# 2 -0.000051 0.013872 -0.007969 0.000000 0.000000 0.000000
# 3 -0.007969 -0.007969 0.016992 0.000000 0.000000 0.000000
# 4 0.000000 0.000000 0.000000 0.044104 0.000000 0.000000
# 5 0.000000 0.000000 0.000000 0.000000 0.044103 0.000000
# 6 0.000000 0.000000 0.000000 0.000000 0.000000 0.102234
#
#
# Mechanical properties :
#
#
# Convention : Reuss Voigt Hill
#
# Bulk Modulus (GPa) = 78.39471 82.11468 80.25470
# Shear Modulus (GPa) = 18.42242 22.15183 20.28713
#
# Velocity S-wave (km/s) = 3.30178 3.62060 3.46486
# Velocity P-wave (km/s) = 7.80558 8.12841 7.96863
#
# Compressibility (1/GPa) = 0.01275596
#
# Stress axis : x y z
#
# Youngs Moduli (GPa) = 72.08790 72.08876 58.85179
#
# Poissons Ratio (x) = 0.00369 0.46901
# Poissons Ratio (y) = 0.00369 0.46901
# Poissons Ratio (z) = 0.57449 0.57450
#
# Static dielectric constant tensor:
#      x y z
#    x 1.554930 0.000000 0.000000 
#    y 0.000000 1.554930 0.000000 
#    z 0.000000 0.000000 1.564300 
# 
# From -- ./inp_files/6331.got.cif
#   From: 2010.05.17/outbox.cif.g08.bks.cpg/sg121_4_cif.got.tgz:6331.got - 2010.05.20 11:32:06.
