data_PCOD9560884
_publ_section_title
;
Structure prediction by ZEFSAII (Michael W. Deem and Ramdas Pophale) SiO2 
 PCOD9560884
Probable space group: I -4 2 D
;
_chemical_formula_sum "Si O2"
_cell_formula_units_Z 80
_cell_length_a 17.635538
_cell_length_b 17.635538
_cell_length_c 12.355063
_cell_angle_alpha 90.000000
_cell_angle_beta 90.000000
_cell_angle_gamma 90.000000
_cell_volume 3842.575332
_symmetry_space_group_name_H-M "I -4 2 D"
_symmetry_group_IT_number 122
_symmetry_cell_setting 'tetragonal'
loop_
_space_group_symop_operation_xyz
x,y,z
y,-x,-z
-x,-y,z
-y,x,-z
x,1/2-y,1/4-z
-x,1/2+y,1/4-z
-y,1/2-x,1/4+z
y,1/2+x,1/4+z
1/2+x,1/2+y,1/2+z
1/2+y,1/2-x,1/2-z
1/2-x,1/2-y,1/2+z
1/2-y,1/2+x,1/2-z
1/2+x,-y,3/4-z
1/2-x,y,3/4-z
1/2-y,-x,3/4+z
1/2+y,x,3/4+z
loop_
_atom_site_type_symbol
_atom_site_label
_atom_site_fract_x
_atom_site_fract_y
_atom_site_fract_z
Si Si1 0.672858 0.895736 0.516407
Si Si2 0.907345 0.075169 0.983517
Si Si3 0.162445 0.960920 0.388246
Si Si4 0.949898 0.327214 0.852651
Si Si5 0.256872 0.922920 0.005115
O O1 0.625068 0.908539 0.625769
O O2 0.760985 0.899560 0.547528
O O3 0.643934 0.816013 0.469769
O O4 0.655675 0.965217 0.437154
O O5 0.828824 0.090431 0.045404
O O6 0.985595 0.091668 0.044724
O O7 0.250000 0.934721 0.375000
O O8 0.102534 0.896089 0.361784
O O9 0.149163 0.989745 0.510478
O O10 0.999790 0.289885 0.946878
O O11 0.250000 0.927891 0.875000
#
# Coordination Sequence:
#
# PCOD9560884 Si02
#       5
#    16  16  16  16  16
#     4  10  22  41  64  92 132 167 216 274 329 391
#     4  10  20  37  63  93 129 170 206 261 335 406
#     4  10  24  42  66  92 124 174 225 266 321 387
#     4  11  22  44  63  94 129 171 227 274 321 396
#     4  10  22  39  62  98 131 169 213 269 338 400
#
# _framework density 20.819368999999998
#
# number of rings (size 3 to 8) (size 9 to 14) (size 15 to 20)
#    0.000    1.800    2.000    1.200    0.000   11.600 
#    0.000    0.000    0.000    0.000    0.000    0.000 
#    0.000    0.000    0.000    0.000    0.000    0.000 
#
# Total GULP energy -223460.980361 kJ/mol
# GULP energy per Si atom -5586.524509 kJ/mol
# Density = 2.077198 g / cm^3
# Si number density = 20.819369 Si / 1000 Ang^3
#
#
#
# Elastic Constant Matrix: (Units=GPa)
#
#
# Indices 1 2 3 4 5 6 
#
# 1 83.1108 42.8404 9.3066 0.0000 0.0000 0.0000
# 2 42.8404 83.1108 9.3066 0.0000 0.0000 0.0000
# 3 9.3066 9.3066 34.9141 0.0000 0.0000 0.0000
# 4 0.0000 0.0000 0.0000 25.9735 0.0000 0.0000
# 5 0.0000 0.0000 0.0000 0.0000 25.9735 0.0000
# 6 0.0000 0.0000 0.0000 0.0000 0.0000 50.4176
#
#
#
# Elastic Compliance Matrix: (Units=1/GPa)
#
#
# Indices 1 2 3 4 5 6 
#
# 1 0.016549 -0.008283 -0.002203 0.000000 0.000000 0.000000
# 2 -0.008283 0.016549 -0.002203 0.000000 0.000000 0.000000
# 3 -0.002203 -0.002203 0.029816 0.000000 0.000000 0.000000
# 4 0.000000 0.000000 0.000000 0.038501 0.000000 0.000000
# 5 0.000000 0.000000 0.000000 0.000000 0.038501 0.000000
# 6 0.000000 0.000000 0.000000 0.000000 0.000000 0.019834
#
#
# Mechanical properties :
#
#
# Convention : Reuss Voigt Hill
#
# Bulk Modulus (GPa) = 26.64248 36.00478 31.32363
# Shear Modulus (GPa) = 25.29849 29.78507 27.54178
#
# Velocity S-wave (km/s) = 3.48967 3.78649 3.64110
# Velocity P-wave (km/s) = 5.39090 6.03722 5.72319
#
# Compressibility (1/GPa) = 0.03753404
#
# Stress axis : x y z
#
# Youngs Moduli (GPa) = 60.42791 60.42791 33.53871
#
# Poissons Ratio (x) = 0.50055 0.07389
# Poissons Ratio (y) = 0.50055 0.07389
# Poissons Ratio (z) = 0.13313 0.13313
#
# Static dielectric constant tensor:
#      x y z
#    x 1.757970 0.000000 0.000000 
#    y 0.000000 1.757970 0.000000 
#    z 0.000000 0.000000 1.731400 
# 
# From -- ./inp_files/5264.got.cif
#   From: 2010.05.17/outbox.cif.g08.bks.cpg/sg122_3_cif.got.tgz:5264.got - 2010.05.20 11:37:33.
