data_PCOD9560738
_publ_section_title
;
Structure prediction by ZEFSAII (Michael W. Deem and Ramdas Pophale) SiO2 
 PCOD9560738
Probable space group: I -4 2 D
;
_chemical_formula_sum "Si O2"
_cell_formula_units_Z 96
_cell_length_a 23.088751
_cell_length_b 23.088751
_cell_length_c 9.149192
_cell_angle_alpha 90.000000
_cell_angle_beta 90.000000
_cell_angle_gamma 90.000000
_cell_volume 4877.346631
_symmetry_space_group_name_H-M "I -4 2 D"
_symmetry_group_IT_number 122
_symmetry_cell_setting 'tetragonal'
loop_
_space_group_symop_operation_xyz
x,y,z
y,-x,-z
-x,-y,z
-y,x,-z
x,1/2-y,1/4-z
-x,1/2+y,1/4-z
-y,1/2-x,1/4+z
y,1/2+x,1/4+z
1/2+x,1/2+y,1/2+z
1/2+y,1/2-x,1/2-z
1/2-x,1/2-y,1/2+z
1/2-y,1/2+x,1/2-z
1/2+x,-y,3/4-z
1/2-x,y,3/4-z
1/2-y,-x,3/4+z
1/2+y,x,3/4+z
loop_
_atom_site_type_symbol
_atom_site_label
_atom_site_fract_x
_atom_site_fract_y
_atom_site_fract_z
Si Si1 0.714193 0.319211 0.595477
Si Si2 0.189260 0.030183 0.913463
Si Si3 0.294043 0.132809 0.600257
Si Si4 0.845640 0.169021 0.548990
Si Si5 0.385768 0.883597 0.476229
Si Si6 0.586071 0.476384 0.551713
O O1 0.707113 0.250000 0.625000
O O2 0.688414 0.321807 0.431371
O O3 0.779081 0.334334 0.646738
O O4 0.670603 0.358194 0.690628
O O5 0.250000 0.003609 0.875000
O O6 0.159444 0.062615 0.776861
O O7 0.201268 0.080617 0.034247
O O8 0.147237 0.982117 0.975415
O O9 0.228609 0.147669 0.546361
O O10 0.325760 0.118828 0.448802
O O11 0.869407 0.119691 0.442752
O O12 0.404978 0.944624 0.545115
O O13 0.541110 0.439452 0.454265
#
# Coordination Sequence:
#
# PCOD9560738 Si02
#       6
#    16  16  16  16  16  16
#     4  11  18  28  48  81 128 172 210 236 291 377
#     4  10  18  36  60  85 119 149 205 258 323 381
#     4  10  19  29  48  85 123 179 205 244 300 387
#     4  11  19  27  51  82 129 173 205 242 311 371
#     4  10  19  33  54  84 115 157 210 266 306 368
#     4   9  20  39  65  86 108 155 218 279 324 379
#
# _framework density 19.682832999999999
#
# number of rings (size 3 to 8) (size 9 to 14) (size 15 to 20)
#    0.000    1.833    5.000    2.000    0.000    0.000 
#    0.000    5.000    7.333   14.000    0.000    4.667 
#    0.000    0.000    0.000    0.000    0.000    0.000 
#
# Total GULP energy -267562.977058 kJ/mol
# GULP energy per Si atom -5574.228689 kJ/mol
# Density = 1.963803 g / cm^3
# Si number density = 19.682833 Si / 1000 Ang^3
#
#
#
# Elastic Constant Matrix: (Units=GPa)
#
#
# Indices 1 2 3 4 5 6 
#
# 1 60.8775 29.2142 29.7137 0.0000 0.0000 0.0000
# 2 29.2142 60.8775 29.7137 0.0000 0.0000 0.0000
# 3 29.7137 29.7137 120.0736 0.0000 0.0000 0.0000
# 4 0.0000 0.0000 0.0000 20.4408 0.0000 0.0000
# 5 0.0000 0.0000 0.0000 0.0000 20.4408 0.0000
# 6 0.0000 0.0000 0.0000 0.0000 0.0000 9.0238
#
#
#
# Elastic Compliance Matrix: (Units=1/GPa)
#
#
# Indices 1 2 3 4 5 6 
#
# 1 0.022424 -0.009159 -0.003283 0.000000 0.000000 0.000000
# 2 -0.009159 0.022424 -0.003283 0.000000 0.000000 0.000000
# 3 -0.003283 -0.003283 0.009953 0.000000 0.000000 0.000000
# 4 0.000000 0.000000 0.000000 0.048922 0.000000 0.000000
# 5 0.000000 0.000000 0.000000 0.000000 0.048922 0.000000
# 6 0.000000 0.000000 0.000000 0.000000 0.000000 0.110818
#
#
# Mechanical properties :
#
#
# Convention : Reuss Voigt Hill
#
# Bulk Modulus (GPa) = 42.82170 46.56796 44.69483
# Shear Modulus (GPa) = 16.51833 20.19354 18.35593
#
# Velocity S-wave (km/s) = 2.90008 3.20652 3.05714
# Velocity P-wave (km/s) = 5.74605 6.11715 5.93450
#
# Compressibility (1/GPa) = 0.02335265
#
# Stress axis : x y z
#
# Youngs Moduli (GPa) = 44.59559 44.59559 100.47351
#
# Poissons Ratio (x) = 0.40843 0.32982
# Poissons Ratio (y) = 0.40843 0.32982
# Poissons Ratio (z) = 0.14639 0.14639
#
# Static dielectric constant tensor:
#      x y z
#    x 1.722390 0.000000 0.000000 
#    y 0.000000 1.722390 0.000000 
#    z 0.000000 0.000000 1.713590 
# 
# From -- ./inp_files/2912.got.cif
#   From: 2010.05.17/outbox.cif.g08.bks.cpg/sg122_2_cif.got.tgz:2912.got - 2010.05.20 11:37:33.
