data_PCOD9560877
_publ_section_title
;
Structure prediction by ZEFSAII (Michael W. Deem and Ramdas Pophale) SiO2 
 PCOD9560877
Probable space group: I -4 2 D
;
_chemical_formula_sum "Si O2"
_cell_formula_units_Z 88
_cell_length_a 10.805868
_cell_length_b 10.805868
_cell_length_c 32.666156
_cell_angle_alpha 90.000000
_cell_angle_beta 90.000000
_cell_angle_gamma 90.000000
_cell_volume 3814.321957
_symmetry_space_group_name_H-M "I -4 2 D"
_symmetry_group_IT_number 122
_symmetry_cell_setting 'tetragonal'
loop_
_space_group_symop_operation_xyz
x,y,z
y,-x,-z
-x,-y,z
-y,x,-z
x,1/2-y,1/4-z
-x,1/2+y,1/4-z
-y,1/2-x,1/4+z
y,1/2+x,1/4+z
1/2+x,1/2+y,1/2+z
1/2+y,1/2-x,1/2-z
1/2-x,1/2-y,1/2+z
1/2-y,1/2+x,1/2-z
1/2+x,-y,3/4-z
1/2-x,y,3/4-z
1/2-y,-x,3/4+z
1/2+y,x,3/4+z
loop_
_atom_site_type_symbol
_atom_site_label
_atom_site_fract_x
_atom_site_fract_y
_atom_site_fract_z
Si Si1 0.250000 0.952668 0.875000
Si Si2 0.192280 0.430976 0.183711
Si Si3 0.500000 0.500000 0.500000
Si Si4 0.500000 0.500000 0.000000
Si Si5 0.250000 0.403684 0.875000
Si Si6 0.069313 0.189760 0.703612
Si Si7 0.934679 0.238470 0.466384
Si Si8 0.585127 0.674796 0.356230
O O1 0.335516 0.051107 0.899892
O O2 0.320176 0.863702 0.843558
O O3 0.108817 0.444435 0.223031
O O4 0.335825 0.421893 0.195635
O O5 0.166956 0.544143 0.153333
O O6 0.521192 0.616500 0.971418
O O7 0.208029 0.492176 0.912066
O O8 0.345202 0.305750 0.894766
O O9 0.170976 0.301533 0.711602
O O10 0.974929 0.188706 0.742216
O O11 0.975197 0.312774 0.426414
#
# Coordination Sequence:
#
# PCOD9560877 Si02
#       8
#     8  16   4   4   8  16  16  16
#     4  11  23  44  68  96 127 179 242 290 354 413
#     4  12  26  46  70  98 138 189 241 294 364 423
#     4  12  28  48  68  96 140 194 252 312 340 436
#     4   8  16  32  56  92 136 174 204 264 340 420
#     4  11  23  40  68 106 141 181 232 292 362 439
#     4  11  24  40  68 102 142 180 224 289 357 436
#     4  10  20  37  61  96 131 175 220 276 348 417
#     4  11  23  41  69  95 136 182 232 290 354 428
#
# _framework density 23.070941999999999
#
# number of rings (size 3 to 8) (size 9 to 14) (size 15 to 20)
#    0.000    1.091    1.818    6.000    2.545    3.636 
#    0.000    0.000    4.000    0.000    0.000    0.000 
#    0.000    0.000    0.000    0.000    0.000    0.000 
#
# Total GULP energy -245554.169706 kJ/mol
# GULP energy per Si atom -5580.776584 kJ/mol
# Density = 2.301843 g / cm^3
# Si number density = 23.070942 Si / 1000 Ang^3
#
#
#
# Elastic Constant Matrix: (Units=GPa)
#
#
# Indices 1 2 3 4 5 6 
#
# 1 62.7935 4.1323 11.8348 0.0000 0.0000 0.0000
# 2 4.1323 62.7935 11.8348 0.0000 0.0000 0.0000
# 3 11.8348 11.8348 104.6675 0.0000 0.0000 0.0000
# 4 0.0000 0.0000 0.0000 42.2930 0.0000 0.0000
# 5 0.0000 0.0000 0.0000 0.0000 42.2930 0.0000
# 6 0.0000 0.0000 0.0000 0.0000 0.0000 32.1637
#
#
#
# Elastic Compliance Matrix: (Units=1/GPa)
#
#
# Indices 1 2 3 4 5 6 
#
# 1 0.016306 -0.000741 -0.001760 0.000000 0.000000 0.000000
# 2 -0.000741 0.016306 -0.001760 0.000000 0.000000 0.000000
# 3 -0.001760 -0.001760 0.009952 0.000000 0.000000 0.000000
# 4 0.000000 0.000000 0.000000 0.023645 0.000000 0.000000
# 5 0.000000 0.000000 0.000000 0.000000 0.023645 0.000000
# 6 0.000000 0.000000 0.000000 0.000000 0.000000 0.031091
#
#
# Mechanical properties :
#
#
# Convention : Reuss Voigt Hill
#
# Bulk Modulus (GPa) = 29.37615 31.76205 30.56910
# Shear Modulus (GPa) = 35.50815 36.84679 36.17747
#
# Velocity S-wave (km/s) = 3.92737 4.00072 3.96422
# Velocity P-wave (km/s) = 5.77289 5.92773 5.85083
#
# Compressibility (1/GPa) = 0.03404122
#
# Stress axis : x y z
#
# Youngs Moduli (GPa) = 61.32831 61.32832 100.48193
#
# Poissons Ratio (x) = 0.04547 0.17683
# Poissons Ratio (y) = 0.04547 0.17683
# Poissons Ratio (z) = 0.10793 0.10793
#
# Static dielectric constant tensor:
#      x y z
#    x 1.917240 0.000000 0.000000 
#    y 0.000000 1.917240 0.000000 
#    z 0.000000 0.000000 1.878650 
# 
# From -- ./inp_files/9584.got.cif
#   From: 2010.05.17/outbox.cif.g08.bks.cpg/sg122_5_cif.got.tgz:9584.got - 2010.05.20 11:37:33.
