data_PCOD9560799
_publ_section_title
;
Structure prediction by ZEFSAII (Michael W. Deem and Ramdas Pophale) SiO2 
 PCOD9560799
Probable space group: I -4 2 D
;
_chemical_formula_sum "Si O2"
_cell_formula_units_Z 64
_cell_length_a 10.773224
_cell_length_b 10.773224
_cell_length_c 24.065470
_cell_angle_alpha 90.000000
_cell_angle_beta 90.000000
_cell_angle_gamma 90.000000
_cell_volume 2793.095131
_symmetry_space_group_name_H-M "I -4 2 D"
_symmetry_group_IT_number 122
_symmetry_cell_setting 'tetragonal'
loop_
_space_group_symop_operation_xyz
x,y,z
y,-x,-z
-x,-y,z
-y,x,-z
x,1/2-y,1/4-z
-x,1/2+y,1/4-z
-y,1/2-x,1/4+z
y,1/2+x,1/4+z
1/2+x,1/2+y,1/2+z
1/2+y,1/2-x,1/2-z
1/2-x,1/2-y,1/2+z
1/2-y,1/2+x,1/2-z
1/2+x,-y,3/4-z
1/2-x,y,3/4-z
1/2-y,-x,3/4+z
1/2+y,x,3/4+z
loop_
_atom_site_type_symbol
_atom_site_label
_atom_site_fract_x
_atom_site_fract_y
_atom_site_fract_z
Si Si1 0.581869 0.385800 0.313436
Si Si2 0.391705 0.087543 0.166819
Si Si3 0.847239 0.082851 0.291908
Si Si4 0.499802 0.305411 0.510025
O O1 0.500000 0.500000 0.337007
O O2 0.553001 0.253243 0.341151
O O3 0.529229 0.367535 0.250494
O O4 0.726226 0.427135 0.307503
O O5 0.382217 0.203373 0.208296
O O6 0.442457 0.124281 0.105887
O O7 0.500000 0.000000 0.188374
O O8 0.929833 0.198116 0.273178
O O9 0.401668 0.389189 0.475842
#
# Coordination Sequence:
#
# PCOD9560799 Si02
#       4
#    16  16  16  16
#     4  10  22  40  63  93 132 173 222 279 335 413
#     4  11  23  40  65  97 129 177 223 286 343 411
#     4  10  23  41  62  93 135 166 226 280 337 411
#     4  10  19  37  64  89 121 176 208 261 336 401
#
# _framework density 22.913647999999998
#
# number of rings (size 3 to 8) (size 9 to 14) (size 15 to 20)
#    0.000    1.750    2.500    2.250    3.500    0.000 
#    4.500    0.000    0.000    0.000    0.000    0.000 
#    0.000    0.000    0.000    0.000    0.000    0.000 
#
# Total GULP energy -178406.618388 kJ/mol
# GULP energy per Si atom -5575.206825 kJ/mol
# Density = 2.286150 g / cm^3
# Si number density = 22.913648 Si / 1000 Ang^3
#
#
#
# Elastic Constant Matrix: (Units=GPa)
#
#
# Indices 1 2 3 4 5 6 
#
# 1 124.9302 50.8063 -0.0156 0.0000 0.0000 0.0000
# 2 50.8063 124.9302 -0.0156 0.0000 0.0000 0.0000
# 3 -0.0156 -0.0156 57.9664 0.0000 0.0000 0.0000
# 4 0.0000 0.0000 0.0000 12.7082 0.0000 0.0000
# 5 0.0000 0.0000 0.0000 0.0000 12.7082 0.0000
# 6 0.0000 0.0000 0.0000 0.0000 0.0000 53.9247
#
#
#
# Elastic Compliance Matrix: (Units=1/GPa)
#
#
# Indices 1 2 3 4 5 6 
#
# 1 0.009591 -0.003900 0.000002 0.000000 0.000000 0.000000
# 2 -0.003900 0.009591 0.000002 0.000000 0.000000 0.000000
# 3 0.000002 0.000002 0.017251 0.000000 0.000000 0.000000
# 4 0.000000 0.000000 0.000000 0.078689 0.000000 0.000000
# 5 0.000000 0.000000 0.000000 0.000000 0.078689 0.000000
# 6 0.000000 0.000000 0.000000 0.000000 0.000000 0.018544
#
#
# Mechanical properties :
#
#
# Convention : Reuss Voigt Hill
#
# Bulk Modulus (GPa) = 34.91845 45.48636 40.20240
# Shear Modulus (GPa) = 21.76793 33.00501 27.38647
#
# Velocity S-wave (km/s) = 3.08555 3.79939 3.46092
# Velocity P-wave (km/s) = 5.28832 6.25631 5.79257
#
# Compressibility (1/GPa) = 0.02863816
#
# Stress axis : x y z
#
# Youngs Moduli (GPa) = 104.26842 104.26842 57.96639
#
# Poissons Ratio (x) = 0.40668 -0.00009
# Poissons Ratio (y) = 0.40668 -0.00009
# Poissons Ratio (z) = -0.00016 -0.00016
#
# Static dielectric constant tensor:
#      x y z
#    x 1.964580 0.000000 0.000000 
#    y 0.000000 1.964580 0.000000 
#    z 0.000000 0.000000 1.878180 
# 
# From -- ./inp_files/7831.got.cif
#   From: 2010.05.17/outbox.cif.g08.bks.cpg/sg122_4_cif.got.tgz:7831.got - 2010.05.20 11:37:33.
