data_PCOD9560411
_publ_section_title
;
Structure prediction by ZEFSAII (Michael W. Deem and Ramdas Pophale) SiO2 
 PCOD9560411
Probable space group: I -4 2 M
;
_chemical_formula_sum "Si O2"
_cell_formula_units_Z 80
_cell_length_a 19.159061
_cell_length_b 19.159061
_cell_length_c 13.284509
_cell_angle_alpha 90.000000
_cell_angle_beta 90.000000
_cell_angle_gamma 90.000000
_cell_volume 4876.339649
_symmetry_space_group_name_H-M "I -4 2 M"
_symmetry_group_IT_number 121
_symmetry_cell_setting 'tetragonal'
loop_
_space_group_symop_operation_xyz
x,y,z
y,-x,-z
-x,-y,z
-y,x,-z
x,-y,-z
-x,y,-z
-y,-x,z
y,x,z
1/2+x,1/2+y,1/2+z
1/2+y,1/2-x,1/2-z
1/2-x,1/2-y,1/2+z
1/2-y,1/2+x,1/2-z
1/2+x,1/2-y,1/2-z
1/2-x,1/2+y,1/2-z
1/2-y,1/2-x,1/2+z
1/2+y,1/2+x,1/2+z
loop_
_atom_site_type_symbol
_atom_site_label
_atom_site_fract_x
_atom_site_fract_y
_atom_site_fract_z
Si Si1 0.887696 0.774374 0.866714
Si Si2 0.244410 0.869102 0.902124
Si Si3 0.517046 0.373030 0.381615
Si Si4 0.007941 0.583795 0.617930
Si Si5 0.878216 0.634975 0.742937
O O1 0.815303 0.815303 0.862436
O O2 0.886806 0.711059 0.790235
O O3 0.947212 0.833037 0.845376
O O4 0.892244 0.743911 0.981172
O O5 0.206464 0.793537 0.901954
O O6 0.185868 0.924222 0.868324
O O7 0.309643 0.871639 0.827093
O O8 0.500000 0.384507 0.500000
O O9 0.555248 0.444753 0.345346
O O10 0.078075 0.614543 0.667458
O O11 0.000000 0.500000 0.633192
O O12 0.000000 0.596689 0.500000
O O13 0.943819 0.619071 0.673379
#
# Coordination Sequence:
#
# PCOD9560411 Si02
#       5
#    16  16  16  16  16
#     4  10  21  33  50  78 106 138 176 215 264 316
#     4   9  19  33  50  75 105 139 176 214 262 313
#     4   9  17  30  49  72 100 132 166 210 262 311
#     4  11  23  36  51  76 101 130 176 216 261 309
#     4  12  19  36  52  74 100 145 170 219 254 315
#
# _framework density 16.405747999999999
#
# number of rings (size 3 to 8) (size 9 to 14) (size 15 to 20)
#    0.000    1.800    2.000    4.800    0.000    1.400 
#    0.000    0.000    0.000    0.000    0.000    0.000 
#    0.000    0.000    0.000    3.000    0.000    1.400 
#
# Total GULP energy -222744.184776 kJ/mol
# GULP energy per Si atom -5568.604619 kJ/mol
# Density = 1.636841 g / cm^3
# Si number density = 16.405748 Si / 1000 Ang^3
#
#
#
# Elastic Constant Matrix: (Units=GPa)
#
#
# Indices 1 2 3 4 5 6 
#
# 1 161.9226 10.2927 54.1753 0.0000 0.0000 0.0000
# 2 10.2927 161.9276 54.1753 0.0000 0.0000 0.0000
# 3 54.1753 54.1753 97.3769 0.0000 0.0000 0.0000
# 4 0.0000 0.0000 0.0000 140.1140 0.0000 0.0000
# 5 0.0000 0.0000 0.0000 0.0000 140.0357 0.0000
# 6 0.0000 0.0000 0.0000 0.0000 0.0000 19.9917
#
#
#
# Elastic Compliance Matrix: (Units=1/GPa)
#
#
# Indices 1 2 3 4 5 6 
#
# 1 0.007764 0.001169 -0.004970 0.000000 0.000000 0.000000
# 2 0.001169 0.007764 -0.004970 0.000000 0.000000 0.000000
# 3 -0.004970 -0.004970 0.015800 0.000000 0.000000 0.000000
# 4 0.000000 0.000000 0.000000 0.007137 0.000000 0.000000
# 5 0.000000 0.000000 0.000000 0.000000 0.007141 0.000000
# 6 0.000000 0.000000 0.000000 0.000000 0.000000 0.050021
#
#
# Mechanical properties :
#
#
# Convention : Reuss Voigt Hill
#
# Bulk Modulus (GPa) = 72.53663 73.16818 72.85240
# Shear Modulus (GPa) = 42.45773 80.20054 61.32913
#
# Velocity S-wave (km/s) = 5.09274 6.99941 6.12077
# Velocity P-wave (km/s) = 8.88208 10.48896 9.71879
#
# Compressibility (1/GPa) = 0.01378614
#
# Stress axis : x y z
#
# Youngs Moduli (GPa) = 128.79326 128.79818 63.29257
#
# Poissons Ratio (x) = -0.15061 0.31458
# Poissons Ratio (y) = -0.15060 0.31457
# Poissons Ratio (z) = 0.64013 0.64014
#
# Static dielectric constant tensor:
#      x y z
#    x 1.568500 0.000000 0.000000 
#    y 0.000000 1.568500 0.000000 
#    z 0.000000 0.000000 1.545710 
# 
# From -- ./inp_files/4222.got.cif
#   From: 2010.05.17/outbox.cif.g08.bks.cpg/sg121_3_cif.got.tgz:4222.got - 2010.05.20 11:32:06.
