data_PCOD9560378
_publ_section_title
;
Structure prediction by ZEFSAII (Michael W. Deem and Ramdas Pophale) SiO2 
 PCOD9560378
Probable space group: I -4 2 M
;
_chemical_formula_sum "Si O2"
_cell_formula_units_Z 88
_cell_length_a 17.521156
_cell_length_b 17.521156
_cell_length_c 14.626624
_cell_angle_alpha 90.000000
_cell_angle_beta 90.000000
_cell_angle_gamma 90.000000
_cell_volume 4490.240577
_symmetry_space_group_name_H-M "I -4 2 M"
_symmetry_group_IT_number 121
_symmetry_cell_setting 'tetragonal'
loop_
_space_group_symop_operation_xyz
x,y,z
y,-x,-z
-x,-y,z
-y,x,-z
x,-y,-z
-x,y,-z
-y,-x,z
y,x,z
1/2+x,1/2+y,1/2+z
1/2+y,1/2-x,1/2-z
1/2-x,1/2-y,1/2+z
1/2-y,1/2+x,1/2-z
1/2+x,1/2-y,1/2-z
1/2-x,1/2+y,1/2-z
1/2-y,1/2-x,1/2+z
1/2+y,1/2+x,1/2+z
loop_
_atom_site_type_symbol
_atom_site_label
_atom_site_fract_x
_atom_site_fract_y
_atom_site_fract_z
Si Si1 0.563855 0.689287 0.811043
Si Si2 0.500000 0.274045 0.000000
Si Si3 0.724639 0.845092 0.571566
Si Si4 0.683045 0.190508 0.715946
Si Si5 0.033747 0.760060 0.148398
Si Si6 0.226717 0.109342 0.031088
O O1 0.620335 0.620335 0.787491
O O2 0.533229 0.680546 0.913750
O O3 0.615632 0.766895 0.806624
O O4 0.494425 0.697084 0.739209
O O5 0.568361 0.224609 0.957910
O O6 0.809072 0.809072 0.561562
O O7 0.698441 0.829129 0.674886
O O8 0.668835 0.793898 0.510606
O O9 0.736455 0.263546 0.689597
O O10 0.597584 0.198356 0.676139
O O11 0.954558 0.739002 0.097879
O O12 0.073789 0.802865 0.063440
O O13 0.158819 0.158819 0.075467
#
# Coordination Sequence:
#
# PCOD9560378 Si02
#       6
#    16   8  16  16  16  16
#     4  11  23  40  62  89 122 161 205 249 294 357
#     4  12  22  36  60  92 120 158 202 248 298 352
#     4  10  20  37  61  88 117 154 201 247 294 355
#     4  10  20  38  63  88 116 155 203 248 291 348
#     4  11  20  35  63  91 115 151 196 250 301 349
#     4  10  21  38  62  91 118 148 195 252 304 356
#
# _framework density 19.59806
#
# number of rings (size 3 to 8) (size 9 to 14) (size 15 to 20)
#    0.000    1.455    3.636    2.727    0.000    2.909 
#    0.000    0.000    0.000   44.727    0.000    0.000 
#    0.000    0.000    0.000    0.000    0.000    0.000 
#
# Total GULP energy -245166.252830 kJ/mol
# GULP energy per Si atom -5571.960292 kJ/mol
# Density = 1.955345 g / cm^3
# Si number density = 19.598060 Si / 1000 Ang^3
#
#
#
# Elastic Constant Matrix: (Units=GPa)
#
#
# Indices 1 2 3 4 5 6 
#
# 1 90.8334 29.3198 26.4633 0.0000 0.0000 0.0000
# 2 29.3198 90.8333 26.4631 0.0000 0.0000 0.0000
# 3 26.4633 26.4631 113.9020 0.0000 0.0000 0.0000
# 4 0.0000 0.0000 0.0000 32.9019 0.0000 0.0000
# 5 0.0000 0.0000 0.0000 0.0000 32.9019 0.0000
# 6 0.0000 0.0000 0.0000 0.0000 0.0000 4.8542
#
#
#
# Elastic Compliance Matrix: (Units=1/GPa)
#
#
# Indices 1 2 3 4 5 6 
#
# 1 0.012764 -0.003493 -0.002154 0.000000 0.000000 0.000000
# 2 -0.003493 0.012764 -0.002154 0.000000 0.000000 0.000000
# 3 -0.002154 -0.002154 0.009780 0.000000 0.000000 0.000000
# 4 0.000000 0.000000 0.000000 0.030393 0.000000 0.000000
# 5 0.000000 0.000000 0.000000 0.000000 0.030393 0.000000
# 6 0.000000 0.000000 0.000000 0.000000 0.000000 0.206009
#
#
# Mechanical properties :
#
#
# Convention : Reuss Voigt Hill
#
# Bulk Modulus (GPa) = 50.74294 51.11791 50.93042
# Shear Modulus (GPa) = 15.41902 28.35311 21.88607
#
# Velocity S-wave (km/s) = 2.80797 3.80772 3.34540
# Velocity P-wave (km/s) = 6.03829 6.74325 6.40048
#
# Compressibility (1/GPa) = 0.01970718
#
# Stress axis : x y z
#
# Youngs Moduli (GPa) = 78.34491 78.34487 102.24523
#
# Poissons Ratio (x) = 0.27362 0.22025
# Poissons Ratio (y) = 0.27362 0.22024
# Poissons Ratio (z) = 0.16876 0.16876
#
# Static dielectric constant tensor:
#      x y z
#    x 1.670880 0.000000 0.000000 
#    y 0.000000 1.670890 0.000000 
#    z 0.000000 0.000000 1.781250 
# 
# From -- ./inp_files/4384.got.cif
#   From: 2010.05.17/outbox.cif.g08.bks.cpg/sg121_3_cif.got.tgz:4384.got - 2010.05.20 11:32:06.
