data_PCOD9560491
_publ_section_title
;
Structure prediction by ZEFSAII (Michael W. Deem and Ramdas Pophale) SiO2 
 PCOD9560491
Probable space group: I -4 2 M
;
_chemical_formula_sum "Si O2"
_cell_formula_units_Z 48
_cell_length_a 21.861970
_cell_length_b 21.861970
_cell_length_c 4.742306
_cell_angle_alpha 90.000000
_cell_angle_beta 90.000000
_cell_angle_gamma 90.000000
_cell_volume 2266.564914
_symmetry_space_group_name_H-M "I -4 2 M"
_symmetry_group_IT_number 121
_symmetry_cell_setting 'tetragonal'
loop_
_space_group_symop_operation_xyz
x,y,z
y,-x,-z
-x,-y,z
-y,x,-z
x,-y,-z
-x,y,-z
-y,-x,z
y,x,z
1/2+x,1/2+y,1/2+z
1/2+y,1/2-x,1/2-z
1/2-x,1/2-y,1/2+z
1/2-y,1/2+x,1/2-z
1/2+x,1/2-y,1/2-z
1/2-x,1/2+y,1/2-z
1/2-y,1/2-x,1/2+z
1/2+y,1/2+x,1/2+z
loop_
_atom_site_type_symbol
_atom_site_label
_atom_site_fract_x
_atom_site_fract_y
_atom_site_fract_z
Si Si1 0.064432 0.935569 0.862455
Si Si2 0.545022 0.265057 0.758720
Si Si3 0.115100 0.115100 0.649821
Si Si4 0.729239 0.170423 0.018386
O O1 0.070716 0.929285 0.532901
O O2 0.110639 0.889362 0.011165
O O3 0.000000 0.919976 0.000000
O O4 0.500000 0.283551 0.500000
O O5 0.583725 0.319925 0.908487
O O6 0.600726 0.227889 0.617803
O O7 0.500000 0.238789 0.000000
O O8 0.794035 0.205966 0.068200
O O9 0.680649 0.210396 0.196739
#
# Coordination Sequence:
#
# PCOD9560491 Si02
#       4
#     8  16   8  16
#     4  11  22  34  48  61  92 142 208 250 280 321
#     4  12  24  38  59  90 125 158 206 258 310 358
#     4  12  22  37  50  75 110 156 194 238 298 342
#     4  10  21  40  64  87 117 158 208 255 312 370
#
# _framework density 21.177422
#
# number of rings (size 3 to 8) (size 9 to 14) (size 15 to 20)
#    0.000    0.833    1.667    8.000    0.000    1.333 
#    0.000    1.667    0.000    0.000    0.000    0.000 
#    0.000   46.667    0.000    0.000    0.000    0.000 
#
# Total GULP energy -133802.522494 kJ/mol
# GULP energy per Si atom -5575.105104 kJ/mol
# Density = 2.112922 g / cm^3
# Si number density = 21.177422 Si / 1000 Ang^3
#
#
#
# Elastic Constant Matrix: (Units=GPa)
#
#
# Indices 1 2 3 4 5 6 
#
# 1 79.3712 21.2597 5.2716 0.0000 0.0000 0.0000
# 2 21.2597 79.3738 5.2715 0.0000 0.0000 0.0000
# 3 5.2716 5.2715 82.1269 0.0000 0.0000 0.0000
# 4 0.0000 0.0000 0.0000 27.1874 0.0000 0.0000
# 5 0.0000 0.0000 0.0000 0.0000 27.1861 0.0000
# 6 0.0000 0.0000 0.0000 0.0000 0.0000 22.6321
#
#
#
# Elastic Compliance Matrix: (Units=1/GPa)
#
#
# Indices 1 2 3 4 5 6 
#
# 1 0.013606 -0.003602 -0.000642 0.000000 0.000000 0.000000
# 2 -0.003602 0.013606 -0.000642 0.000000 0.000000 0.000000
# 3 -0.000642 -0.000642 0.012259 0.000000 0.000000 0.000000
# 4 0.000000 0.000000 0.000000 0.036782 0.000000 0.000000
# 5 0.000000 0.000000 0.000000 0.000000 0.036783 0.000000
# 6 0.000000 0.000000 0.000000 0.000000 0.000000 0.044185
#
#
# Mechanical properties :
#
#
# Convention : Reuss Voigt Hill
#
# Bulk Modulus (GPa) = 33.67120 33.83083 33.75102
# Shear Modulus (GPa) = 28.26567 29.33907 28.80237
#
# Velocity S-wave (km/s) = 3.65733 3.72613 3.69189
# Velocity P-wave (km/s) = 5.81110 5.87551 5.84339
#
# Compressibility (1/GPa) = 0.02969897
#
# Stress axis : x y z
#
# Youngs Moduli (GPa) = 73.49479 73.49718 81.57464
#
# Poissons Ratio (x) = 0.26472 0.05239
# Poissons Ratio (y) = 0.26471 0.05238
# Poissons Ratio (z) = 0.04720 0.04720
#
# Static dielectric constant tensor:
#      x y z
#    x 1.818750 0.000000 0.000000 
#    y 0.000000 1.818740 0.000000 
#    z 0.000000 0.000000 1.760650 
# 
# From -- ./inp_files/312.got.cif
#   From: 2010.05.17/outbox.cif.g08.bks.cpg/sg121_1_cif.got.tgz:312.got - 2010.05.20 11:32:06.
