data_PCOD9560237
_publ_section_title
;
Structure prediction by ZEFSAII (Michael W. Deem and Ramdas Pophale) SiO2 
 PCOD9560237
Probable space group: I -4 2 M
;
_chemical_formula_sum "Si O2"
_cell_formula_units_Z 56
_cell_length_a 19.838330
_cell_length_b 19.838330
_cell_length_c 8.064881
_cell_angle_alpha 90.000000
_cell_angle_beta 90.000000
_cell_angle_gamma 90.000000
_cell_volume 3174.009221
_symmetry_space_group_name_H-M "I -4 2 M"
_symmetry_group_IT_number 121
_symmetry_cell_setting 'tetragonal'
loop_
_space_group_symop_operation_xyz
x,y,z
y,-x,-z
-x,-y,z
-y,x,-z
x,-y,-z
-x,y,-z
-y,-x,z
y,x,z
1/2+x,1/2+y,1/2+z
1/2+y,1/2-x,1/2-z
1/2-x,1/2-y,1/2+z
1/2-y,1/2+x,1/2-z
1/2+x,1/2-y,1/2-z
1/2-x,1/2+y,1/2-z
1/2-y,1/2-x,1/2+z
1/2+y,1/2+x,1/2+z
loop_
_atom_site_type_symbol
_atom_site_label
_atom_site_fract_x
_atom_site_fract_y
_atom_site_fract_z
Si Si1 0.861265 0.745931 0.613436
Si Si2 0.755058 0.359741 0.497252
Si Si3 0.500000 0.703262 0.000000
Si Si4 0.043754 0.843581 0.840467
O O1 0.809258 0.809258 0.586465
O O2 0.821854 0.678395 0.561520
O O3 0.877443 0.742010 0.808870
O O4 0.929878 0.756518 0.513075
O O5 0.697143 0.302858 0.482334
O O6 0.728003 0.421719 0.389071
O O7 0.503040 0.661614 0.829519
O O8 0.102532 0.897469 0.816476
O O9 0.000000 0.863148 0.000000
#
# Coordination Sequence:
#
# PCOD9560237 Si02
#       4
#    16  16   8  16
#     4  10  19  33  55  82 112 145 184 236 292 340
#     4   9  18  35  57  80 108 143 188 243 290 328
#     4  12  22  34  56  85 117 148 188 232 292 346
#     4  11  23  39  57  80 115 155 196 238 278 334
#
# _framework density 17.6433
#
# number of rings (size 3 to 8) (size 9 to 14) (size 15 to 20)
#    0.000    1.714    2.857    2.571    0.000    6.000 
#    0.000    0.000    0.000    3.857    0.000    1.000 
#    0.000    0.000    0.000    0.000    0.000    0.000 
#
# Total GULP energy -156210.112505 kJ/mol
# GULP energy per Si atom -5578.932589 kJ/mol
# Density = 1.760314 g / cm^3
# Si number density = 17.643300 Si / 1000 Ang^3
#
#
#
# Elastic Constant Matrix: (Units=GPa)
#
#
# Indices 1 2 3 4 5 6 
#
# 1 27.7395 15.6827 10.6044 0.0000 0.0000 0.0000
# 2 15.6827 27.7377 10.5990 0.0000 0.0000 0.0000
# 3 10.6044 10.5990 95.3353 0.0000 0.0000 0.0000
# 4 0.0000 0.0000 0.0000 24.1680 0.0000 0.0000
# 5 0.0000 0.0000 0.0000 0.0000 24.1650 0.0000
# 6 0.0000 0.0000 0.0000 0.0000 0.0000 41.0349
#
#
#
# Elastic Compliance Matrix: (Units=1/GPa)
#
#
# Indices 1 2 3 4 5 6 
#
# 1 0.053649 -0.029297 -0.002710 0.000000 0.000000 0.000000
# 2 -0.029297 0.053650 -0.002706 0.000000 0.000000 0.000000
# 3 -0.002710 -0.002706 0.011092 0.000000 0.000000 0.000000
# 4 0.000000 0.000000 0.000000 0.041377 0.000000 0.000000
# 5 0.000000 0.000000 0.000000 0.000000 0.041382 0.000000
# 6 0.000000 0.000000 0.000000 0.000000 0.000000 0.024370
#
#
# Mechanical properties :
#
#
# Convention : Reuss Voigt Hill
#
# Bulk Modulus (GPa) = 20.42301 24.95385 22.68843
# Shear Modulus (GPa) = 16.06334 25.46867 20.76601
#
# Velocity S-wave (km/s) = 3.02064 3.80351 3.43445
# Velocity P-wave (km/s) = 4.87507 5.78473 5.34927
#
# Compressibility (1/GPa) = 0.04896437
#
# Stress axis : x y z
#
# Youngs Moduli (GPa) = 18.63966 18.63923 90.15830
#
# Poissons Ratio (x) = 0.54607 0.24436
# Poissons Ratio (y) = 0.54609 0.24395
# Poissons Ratio (z) = 0.05052 0.05043
#
# Static dielectric constant tensor:
#      x y z
#    x 1.605440 0.000000 0.000000 
#    y 0.000000 1.605440 0.000000 
#    z 0.000000 0.000000 1.631930 
# 
# From -- ./inp_files/1314.got.cif
#   From: 2010.05.17/outbox.cif.g08.bks.cpg/sg121_1_cif.got.tgz:1314.got - 2010.05.20 11:32:06.
