data_PCOD9560357
_publ_section_title
;
Structure prediction by ZEFSAII (Michael W. Deem and Ramdas Pophale) SiO2 
 PCOD9560357
Probable space group: I -4 2 M
;
_chemical_formula_sum "Si O2"
_cell_formula_units_Z 98
_cell_length_a 15.503614
_cell_length_b 15.503614
_cell_length_c 21.129115
_cell_angle_alpha 90.000000
_cell_angle_beta 90.000000
_cell_angle_gamma 90.000000
_cell_volume 5078.637334
_symmetry_space_group_name_H-M "I -4 2 M"
_symmetry_group_IT_number 121
_symmetry_cell_setting 'tetragonal'
loop_
_space_group_symop_operation_xyz
x,y,z
y,-x,-z
-x,-y,z
-y,x,-z
x,-y,-z
-x,y,-z
-y,-x,z
y,x,z
1/2+x,1/2+y,1/2+z
1/2+y,1/2-x,1/2-z
1/2-x,1/2-y,1/2+z
1/2-y,1/2+x,1/2-z
1/2+x,1/2-y,1/2-z
1/2-x,1/2+y,1/2-z
1/2-y,1/2-x,1/2+z
1/2+y,1/2+x,1/2+z
loop_
_atom_site_type_symbol
_atom_site_label
_atom_site_fract_x
_atom_site_fract_y
_atom_site_fract_z
Si Si1 0.883159 0.883159 0.911476
Si Si2 0.573903 0.426098 0.733115
Si Si3 0.904645 0.691981 0.884806
Si Si4 0.562217 0.078554 0.347044
Si Si5 0.024494 0.308994 0.429413
Si Si6 0.000000 0.000000 0.000000
Si Si7 0.686610 0.456436 0.186451
Si Si8 0.683476 0.823168 0.250032
O O1 0.904687 0.904687 0.838548
O O2 0.902766 0.782329 0.919983
O O3 0.940746 0.940746 0.956321
O O4 0.500000 0.500000 0.732245
O O5 0.535541 0.346273 0.771912
O O6 0.848681 0.620284 0.921674
O O7 0.861270 0.703878 0.815710
O O8 0.998770 0.653289 0.870889
O O9 0.631643 0.115275 0.296945
O O10 0.500000 0.000000 0.323179
O O11 0.615427 0.038261 0.404844
O O12 0.017883 0.232820 0.378261
O O13 0.000000 0.283734 0.500000
O O14 0.605721 0.394280 0.172221
O O15 0.752238 0.400047 0.228417
O O16 0.744005 0.744005 0.226322
#
# Coordination Sequence:
#
# PCOD9560357 Si02
#       8
#     8   8  16  16  16   2  16  16
#     4  12  24  46  67  94 125 175 209 264 306 399
#     4  10  20  38  67  92 122 166 211 255 321 374
#     4  10  23  38  66  87 120 173 211 256 324 385
#     4  10  23  36  60  95 126 165 216 273 324 389
#     4  10  23  42  61  90 127 170 211 267 322 391
#     4  12  32  48  64  96 136 160 226 252 324 364
#     4   9  20  38  61  89 125 164 209 261 324 379
#     4  10  20  36  58  93 130 157 202 270 332 388
#
# _framework density 19.296516
#
# number of rings (size 3 to 8) (size 9 to 14) (size 15 to 20)
#    0.000    1.959    1.224    0.980   10.286    4.245 
#    2.939    0.000    0.000    0.000    0.000    0.000 
#    0.000    0.000    0.000    0.000    0.000    0.000 
#
# Total GULP energy -273823.167929 kJ/mol
# GULP energy per Si atom -5588.227917 kJ/mol
# Density = 1.925260 g / cm^3
# Si number density = 19.296516 Si / 1000 Ang^3
#
#
#
# Elastic Constant Matrix: (Units=GPa)
#
#
# Indices 1 2 3 4 5 6 
#
# 1 101.5709 55.9078 47.1434 0.0000 0.0000 0.0000
# 2 55.9078 101.5705 47.1430 0.0000 0.0000 0.0000
# 3 47.1434 47.1430 101.8407 0.0000 0.0000 0.0000
# 4 0.0000 0.0000 0.0000 18.0117 0.0000 0.0000
# 5 0.0000 0.0000 0.0000 0.0000 18.0115 0.0000
# 6 0.0000 0.0000 0.0000 0.0000 0.0000 35.6247
#
#
#
# Elastic Compliance Matrix: (Units=1/GPa)
#
#
# Indices 1 2 3 4 5 6 
#
# 1 0.015342 -0.006557 -0.004067 0.000000 0.000000 0.000000
# 2 -0.006557 0.015342 -0.004067 0.000000 0.000000 0.000000
# 3 -0.004067 -0.004067 0.013584 0.000000 0.000000 0.000000
# 4 0.000000 0.000000 0.000000 0.055520 0.000000 0.000000
# 5 0.000000 0.000000 0.000000 0.000000 0.055520 0.000000
# 6 0.000000 0.000000 0.000000 0.000000 0.000000 0.028070
#
#
# Mechanical properties :
#
#
# Convention : Reuss Voigt Hill
#
# Bulk Modulus (GPa) = 67.17046 67.26337 67.21691
# Shear Modulus (GPa) = 22.96503 24.64878 23.80691
#
# Velocity S-wave (km/s) = 3.45354 3.57791 3.51628
# Velocity P-wave (km/s) = 7.12656 7.21124 7.16902
#
# Compressibility (1/GPa) = 0.01488750
#
# Stress axis : x y z
#
# Youngs Moduli (GPa) = 65.17956 65.17956 73.61494
#
# Poissons Ratio (x) = 0.42741 0.29937
# Poissons Ratio (y) = 0.42741 0.29936
# Poissons Ratio (z) = 0.26506 0.26506
#
# Static dielectric constant tensor:
#      x y z
#    x 1.698750 0.000000 0.000000 
#    y 0.000000 1.698750 0.000000 
#    z 0.000000 0.000000 1.626010 
# 
# From -- ./inp_files/7167.got.cif
#   From: 2010.05.17/outbox.cif.g08.bks.cpg/sg121_4_cif.got.tgz:7167.got - 2010.05.20 11:32:06.
