data_PCOD9560579
_publ_section_title
;
Structure prediction by ZEFSAII (Michael W. Deem and Ramdas Pophale) SiO2 
 PCOD9560579
Probable space group: I -4 2 M
;
_chemical_formula_sum "Si O2"
_cell_formula_units_Z 120
_cell_length_a 14.038341
_cell_length_b 14.038341
_cell_length_c 33.423742
_cell_angle_alpha 90.000000
_cell_angle_beta 90.000000
_cell_angle_gamma 90.000000
_cell_volume 6586.984557
_symmetry_space_group_name_H-M "I -4 2 M"
_symmetry_group_IT_number 121
_symmetry_cell_setting 'tetragonal'
loop_
_space_group_symop_operation_xyz
x,y,z
y,-x,-z
-x,-y,z
-y,x,-z
x,-y,-z
-x,y,-z
-y,-x,z
y,x,z
1/2+x,1/2+y,1/2+z
1/2+y,1/2-x,1/2-z
1/2-x,1/2-y,1/2+z
1/2-y,1/2+x,1/2-z
1/2+x,1/2-y,1/2-z
1/2-x,1/2+y,1/2-z
1/2-y,1/2-x,1/2+z
1/2+y,1/2+x,1/2+z
loop_
_atom_site_type_symbol
_atom_site_label
_atom_site_fract_x
_atom_site_fract_y
_atom_site_fract_z
Si Si1 0.339645 0.915605 0.529773
Si Si2 0.388143 0.027823 0.380921
Si Si3 0.057800 0.783943 0.038468
Si Si4 0.884582 0.115419 0.510117
Si Si5 0.408234 0.129940 0.247308
Si Si6 0.195424 0.041502 0.123021
Si Si7 0.655780 0.191364 0.839829
Si Si8 0.871205 0.721396 0.830953
O O1 0.351091 0.954528 0.574679
O O2 0.403334 0.820711 0.528024
O O3 0.231234 0.887637 0.520270
O O4 0.370473 0.000000 0.500000
O O5 0.380561 0.124181 0.355535
O O6 0.500000 0.000000 0.381066
O O7 0.325282 0.945356 0.360700
O O8 0.145755 0.854246 0.046967
O O9 0.992915 0.782040 0.078122
O O10 0.000000 0.819675 0.000000
O O11 0.000000 0.118943 0.500000
O O12 0.522503 0.124494 0.242145
O O13 0.358592 0.162989 0.206503
O O14 0.386200 0.197541 0.284553
O O15 0.094003 0.094003 0.124183
O O16 0.272960 0.117593 0.138580
O O17 0.208289 0.951873 0.152091
O O18 0.705446 0.294555 0.843126
O O19 0.770018 0.770018 0.837557
#
# Coordination Sequence:
#
# PCOD9560579 Si02
#       8
#    16  16  16   8  16  16  16  16
#     4  11  25  40  67  95 127 168 216 276 332 391
#     4  12  23  43  65  98 133 170 220 280 335 396
#     4  12  26  44  64  91 131 175 223 274 339 404
#     4   9  20  46  66  92 127 168 214 270 329 400
#     4  11  20  38  67  97 131 172 219 273 333 397
#     4  11  24  43  66  95 133 175 220 273 333 405
#     4  11  23  42  65  97 134 168 217 274 336 395
#     4  12  24  39  68 100 131 175 221 273 336 405
#
# _framework density 18.217744
#
# number of rings (size 3 to 8) (size 9 to 14) (size 15 to 20)
#    0.000    0.733    6.000    1.200    4.667    1.733 
#    6.000    0.000    0.000    0.400    0.000    0.000 
#    0.000    0.000    0.000    0.000    0.000    0.000 
#
# Total GULP energy -334212.296994 kJ/mol
# GULP energy per Si atom -5570.204950 kJ/mol
# Density = 1.817628 g / cm^3
# Si number density = 18.217744 Si / 1000 Ang^3
#
#
#
# Elastic Constant Matrix: (Units=GPa)
#
#
# Indices 1 2 3 4 5 6 
#
# 1 85.8320 50.5360 27.7466 0.0000 0.0000 0.0000
# 2 50.5360 85.8315 27.7467 0.0000 0.0000 0.0000
# 3 27.7466 27.7467 100.0201 0.0000 0.0000 0.0000
# 4 0.0000 0.0000 0.0000 -2.8739 0.0000 0.0000
# 5 0.0000 0.0000 0.0000 0.0000 -2.8800 0.0000
# 6 0.0000 0.0000 0.0000 0.0000 0.0000 34.6521
#
#
#
# Elastic Compliance Matrix: (Units=1/GPa)
#
#
# Indices 1 2 3 4 5 6 
#
# 1 0.018299 -0.010033 -0.002293 0.000000 0.000000 0.000000
# 2 -0.010033 0.018299 -0.002293 0.000000 0.000000 0.000000
# 3 -0.002293 -0.002293 0.011270 0.000000 0.000000 0.000000
# 4 0.000000 0.000000 0.000000 -0.347965 0.000000 0.000000
# 5 0.000000 0.000000 0.000000 0.000000 -0.347225 0.000000
# 6 0.000000 0.000000 0.000000 0.000000 0.000000 0.028858
#
#
# Mechanical properties :
#
#
# Convention : Reuss Voigt Hill
#
# Bulk Modulus (GPa) = 53.67623 53.74915 53.71269
# Shear Modulus (GPa) = -8.57612 16.82327 4.12358
#
# Velocity S-wave (km/s) = -2.17205 3.04214 1.50612
# Velocity P-wave (km/s) = 4.82051 6.47358 5.70721
#
# Compressibility (1/GPa) = 0.01863022
#
# Stress axis : x y z
#
# Youngs Moduli (GPa) = 54.64760 54.64721 88.72893
#
# Poissons Ratio (x) = 0.54827 0.20347
# Poissons Ratio (y) = 0.54827 0.20347
# Poissons Ratio (z) = 0.12531 0.12532
#
# Static dielectric constant tensor:
#      x y z
#    x 1.622030 0.000000 0.000000 
#    y 0.000000 1.622030 0.000000 
#    z 0.000000 0.000000 1.626050 
# 
# From -- ./inp_files/8482.got.cif
#   From: 2010.05.17/outbox.cif.g08.bks.cpg/sg121_5_cif.got.tgz:8482.got - 2010.05.20 11:32:06.
