data_PCOD9560381
_publ_section_title
;
Structure prediction by ZEFSAII (Michael W. Deem and Ramdas Pophale) SiO2 
 PCOD9560381
Probable space group: I -4 2 M
;
_chemical_formula_sum "Si O2"
_cell_formula_units_Z 72
_cell_length_a 13.715249
_cell_length_b 13.715249
_cell_length_c 19.268805
_cell_angle_alpha 90.000000
_cell_angle_beta 90.000000
_cell_angle_gamma 90.000000
_cell_volume 3624.617433
_symmetry_space_group_name_H-M "I -4 2 M"
_symmetry_group_IT_number 121
_symmetry_cell_setting 'tetragonal'
loop_
_space_group_symop_operation_xyz
x,y,z
y,-x,-z
-x,-y,z
-y,x,-z
x,-y,-z
-x,y,-z
-y,-x,z
y,x,z
1/2+x,1/2+y,1/2+z
1/2+y,1/2-x,1/2-z
1/2-x,1/2-y,1/2+z
1/2-y,1/2+x,1/2-z
1/2+x,1/2-y,1/2-z
1/2-x,1/2+y,1/2-z
1/2-y,1/2-x,1/2+z
1/2+y,1/2+x,1/2+z
loop_
_atom_site_type_symbol
_atom_site_label
_atom_site_fract_x
_atom_site_fract_y
_atom_site_fract_z
Si Si1 0.128170 0.871831 0.300375
Si Si2 0.805506 0.500000 0.500000
Si Si3 0.197273 0.802728 0.039266
Si Si4 0.249458 0.249458 0.308358
Si Si5 0.273903 0.273903 0.088783
Si Si6 0.580411 0.126591 0.360520
Si Si7 0.475480 0.784982 0.218052
O O1 0.198506 0.801495 0.255698
O O2 0.149520 0.850481 0.381050
O O3 0.024796 0.822681 0.284134
O O4 0.734006 0.409535 0.517259
O O5 0.872301 0.519954 0.568032
O O6 0.209236 0.790765 0.120420
O O7 0.267638 0.732363 0.993793
O O8 0.272587 0.135706 0.303281
O O9 0.302275 0.169503 0.119378
O O10 0.521307 0.171031 0.295846
O O11 0.637473 0.031265 0.331801
#
# Coordination Sequence:
#
# PCOD9560381 Si02
#       7
#     8   8   8   8   8  16  16
#     4  10  20  39  59  88 126 166 209 274 327 392
#     4  10  22  41  65  96 136 170 232 269 345 410
#     4  10  22  39  61  91 129 171 210 281 326 400
#     4  12  22  41  63  95 131 173 223 280 338 411
#     4   8  16  38  57  77 124 164 194 257 335 364
#     4  10  20  37  61  93 127 174 215 277 331 401
#     4  11  21  39  67  90 131 174 221 277 348 400
#
# _framework density 19.864165
#
# number of rings (size 3 to 8) (size 9 to 14) (size 15 to 20)
#    0.000    1.778    4.444    1.333    0.000    1.111 
#    0.000   11.111    0.000    5.333    0.000   14.000 
#    0.000    0.000    0.000    0.000    0.000    0.000 
#
# Total GULP energy -200706.968905 kJ/mol
# GULP energy per Si atom -5575.193581 kJ/mol
# Density = 1.981895 g / cm^3
# Si number density = 19.864165 Si / 1000 Ang^3
#
#
#
# Elastic Constant Matrix: (Units=GPa)
#
#
# Indices 1 2 3 4 5 6 
#
# 1 66.7445 6.6629 19.2385 0.0000 0.0000 0.0000
# 2 6.6629 66.7405 19.2357 0.0000 0.0000 0.0000
# 3 19.2385 19.2357 119.9766 0.0000 0.0000 0.0000
# 4 0.0000 0.0000 0.0000 25.6524 0.0000 0.0000
# 5 0.0000 0.0000 0.0000 0.0000 25.6526 0.0000
# 6 0.0000 0.0000 0.0000 0.0000 0.0000 31.9394
#
#
#
# Elastic Compliance Matrix: (Units=1/GPa)
#
#
# Indices 1 2 3 4 5 6 
#
# 1 0.015758 -0.000886 -0.002385 0.000000 0.000000 0.000000
# 2 -0.000886 0.015759 -0.002385 0.000000 0.000000 0.000000
# 3 -0.002385 -0.002385 0.009100 0.000000 0.000000 0.000000
# 4 0.000000 0.000000 0.000000 0.038983 0.000000 0.000000
# 5 0.000000 0.000000 0.000000 0.000000 0.038982 0.000000
# 6 0.000000 0.000000 0.000000 0.000000 0.000000 0.031309
#
#
# Mechanical properties :
#
#
# Convention : Reuss Voigt Hill
#
# Bulk Modulus (GPa) = 34.12203 38.19287 36.15745
# Shear Modulus (GPa) = 29.24472 30.53718 29.89095
#
# Velocity S-wave (km/s) = 3.84113 3.92510 3.88334
# Velocity P-wave (km/s) = 6.07350 6.30956 6.19266
#
# Compressibility (1/GPa) = 0.02930658
#
# Stress axis : x y z
#
# Youngs Moduli (GPa) = 63.45843 63.45530 109.89380
#
# Poissons Ratio (x) = 0.05621 0.26208
# Poissons Ratio (y) = 0.05621 0.26205
# Poissons Ratio (z) = 0.15134 0.15132
#
# Static dielectric constant tensor:
#      x y z
#    x 1.719610 0.000000 0.000000 
#    y 0.000000 1.719610 0.000000 
#    z 0.000000 0.000000 1.702300 
# 
# From -- ./inp_files/5255.got.cif
#   From: 2010.05.17/outbox.cif.g08.bks.cpg/sg121_3_cif.got.tgz:5255.got - 2010.05.20 11:32:06.
