data_PCOD9560108
_publ_section_title
;
Structure prediction by ZEFSAII (Michael W. Deem and Ramdas Pophale) SiO2 
 PCOD9560108
Probable space group: I -4 2 M
;
_chemical_formula_sum "Si O2"
_cell_formula_units_Z 112
_cell_length_a 16.478207
_cell_length_b 16.478207
_cell_length_c 24.461584
_cell_angle_alpha 90.000000
_cell_angle_beta 90.000000
_cell_angle_gamma 90.000000
_cell_volume 6642.085849
_symmetry_space_group_name_H-M "I -4 2 M"
_symmetry_group_IT_number 121
_symmetry_cell_setting 'tetragonal'
loop_
_space_group_symop_operation_xyz
x,y,z
y,-x,-z
-x,-y,z
-y,x,-z
x,-y,-z
-x,y,-z
-y,-x,z
y,x,z
1/2+x,1/2+y,1/2+z
1/2+y,1/2-x,1/2-z
1/2-x,1/2-y,1/2+z
1/2-y,1/2+x,1/2-z
1/2+x,1/2-y,1/2-z
1/2-x,1/2+y,1/2-z
1/2-y,1/2-x,1/2+z
1/2+y,1/2+x,1/2+z
loop_
_atom_site_type_symbol
_atom_site_label
_atom_site_fract_x
_atom_site_fract_y
_atom_site_fract_z
Si Si1 0.236650 0.102992 0.335010
Si Si2 0.091511 0.225936 0.016044
Si Si3 0.795051 0.338585 0.283428
Si Si4 0.284556 0.848956 0.099985
Si Si5 0.466079 0.776361 0.374065
Si Si6 0.930318 0.202255 0.295540
Si Si7 0.372225 0.498552 0.687298
O O1 0.151850 0.151850 0.336879
O O2 0.279454 0.129147 0.277716
O O3 0.292843 0.140193 0.382681
O O4 0.222209 0.006893 0.333599
O O5 0.151402 0.151402 0.028706
O O6 0.076809 0.285242 0.067551
O O7 0.130877 0.271181 0.963806
O O8 0.000000 0.198673 0.000000
O O9 0.714540 0.285461 0.298484
O O10 0.810304 0.412036 0.325086
O O11 0.869332 0.276692 0.287764
O O12 0.204119 0.795882 0.117817
O O13 0.296097 0.938218 0.126246
O O14 0.466466 0.680237 0.361975
O O15 0.875759 0.124242 0.312143
O O16 0.967327 0.181788 0.236057
O O17 0.430976 0.569025 0.667628
O O18 0.427778 0.427778 0.711285
#
# Coordination Sequence:
#
# PCOD9560108 Si02
#       7
#    16  16  16  16  16  16  16
#     4  10  19  33  53  73  98 135 175 212 259 316
#     4   9  18  30  46  70 100 136 177 215 250 297
#     4  10  20  31  46  71 100 133 168 207 256 301
#     4   9  19  34  51  72 101 139 176 211 253 300
#     4  11  18  30  49  71 102 137 175 211 246 297
#     4  10  20  33  48  70 103 133 167 216 263 311
#     4  10  18  27  43  69 100 134 169 205 251 303
#
# _framework density 16.862172999999999
#
# number of rings (size 3 to 8) (size 9 to 14) (size 15 to 20)
#    0.000    2.143    1.429    3.000    0.000    3.857 
#    0.000    0.714    0.000    0.857    0.000    3.000 
#    0.000    1.143    0.000   15.714    0.000    0.000 
#
# Total GULP energy -311983.878105 kJ/mol
# GULP energy per Si atom -5571.140680 kJ/mol
# Density = 1.682379 g / cm^3
# Si number density = 16.862173 Si / 1000 Ang^3
#
#
#
# Elastic Constant Matrix: (Units=GPa)
#
#
# Indices 1 2 3 4 5 6 
#
# 1 86.9206 40.7023 24.7259 0.0000 0.0000 0.0000
# 2 40.7023 86.9202 24.7260 0.0000 0.0000 0.0000
# 3 24.7259 24.7260 40.0364 0.0000 0.0000 0.0000
# 4 0.0000 0.0000 0.0000 20.2809 0.0000 0.0000
# 5 0.0000 0.0000 0.0000 0.0000 20.2812 0.0000
# 6 0.0000 0.0000 0.0000 0.0000 0.0000 25.5169
#
#
#
# Elastic Compliance Matrix: (Units=1/GPa)
#
#
# Indices 1 2 3 4 5 6 
#
# 1 0.015969 -0.005668 -0.006361 0.000000 0.000000 0.000000
# 2 -0.005668 0.015969 -0.006362 0.000000 0.000000 0.000000
# 3 -0.006361 -0.006362 0.032835 0.000000 0.000000 0.000000
# 4 0.000000 0.000000 0.000000 0.049308 0.000000 0.000000
# 5 0.000000 0.000000 0.000000 0.000000 0.049307 0.000000
# 6 0.000000 0.000000 0.000000 0.000000 0.000000 0.039190
#
#
# Mechanical properties :
#
#
# Convention : Reuss Voigt Hill
#
# Bulk Modulus (GPa) = 35.72710 43.79842 39.76276
# Shear Modulus (GPa) = 20.10553 21.46400 20.78477
#
# Velocity S-wave (km/s) = 3.45678 3.57165 3.51469
# Velocity P-wave (km/s) = 6.09641 6.56047 6.33269
#
# Compressibility (1/GPa) = 0.02798996
#
# Stress axis : x y z
#
# Youngs Moduli (GPa) = 62.62322 62.62281 30.45550
#
# Poissons Ratio (x) = 0.35495 0.19374
# Poissons Ratio (y) = 0.35495 0.19374
# Poissons Ratio (z) = 0.39837 0.39838
#
# Static dielectric constant tensor:
#      x y z
#    x 1.580100 0.000000 0.000000 
#    y 0.000000 1.580100 0.000000 
#    z 0.000000 0.000000 1.598530 
# 
# From -- ./inp_files/7212.got.cif
#   From: 2010.05.17/outbox.cif.g08.bks.cpg/sg121_4_cif.got.tgz:7212.got - 2010.05.20 11:32:06.
