data_PCOD9560921
_publ_section_title
;
Structure prediction by ZEFSAII (Michael W. Deem and Ramdas Pophale) SiO2 
 PCOD9560921
Probable space group: I -4 2 D
;
_chemical_formula_sum "Si O2"
_cell_formula_units_Z 48
_cell_length_a 8.432365
_cell_length_b 8.432365
_cell_length_c 26.519111
_cell_angle_alpha 90.000000
_cell_angle_beta 90.000000
_cell_angle_gamma 90.000000
_cell_volume 1885.635540
_symmetry_space_group_name_H-M "I -4 2 D"
_symmetry_group_IT_number 122
_symmetry_cell_setting 'tetragonal'
loop_
_space_group_symop_operation_xyz
x,y,z
y,-x,-z
-x,-y,z
-y,x,-z
x,1/2-y,1/4-z
-x,1/2+y,1/4-z
-y,1/2-x,1/4+z
y,1/2+x,1/4+z
1/2+x,1/2+y,1/2+z
1/2+y,1/2-x,1/2-z
1/2-x,1/2-y,1/2+z
1/2-y,1/2+x,1/2-z
1/2+x,-y,3/4-z
1/2-x,y,3/4-z
1/2-y,-x,3/4+z
1/2+y,x,3/4+z
loop_
_atom_site_type_symbol
_atom_site_label
_atom_site_fract_x
_atom_site_fract_y
_atom_site_fract_z
Si Si1 0.350577 0.887533 0.322751
Si Si2 0.936837 0.826990 0.881137
Si Si3 0.283550 0.096523 0.729948
O O1 0.250000 0.929444 0.375000
O O2 0.448496 0.730864 0.337196
O O3 0.234126 0.847538 0.276154
O O4 0.500000 0.000000 0.313568
O O5 0.750000 0.814690 0.875000
O O6 0.988379 0.738659 0.931917
O O7 0.000000 0.000000 0.890310
O O8 0.456713 0.186442 0.729166
#
# Coordination Sequence:
#
# PCOD9560921 Si02
#       3
#    16  16  16
#     4  10  22  41  73 107 136 186 246 304 361 429
#     4  11  21  37  71 103 134 186 248 291 345 433
#     4  10  20  39  73 106 148 183 238 302 370 431
#
# _framework density 25.45561
#
# number of rings (size 3 to 8) (size 9 to 14) (size 15 to 20)
#    0.000    1.667    3.333    4.000    0.000    0.000 
#    0.000    0.000   44.000    8.000    0.000    0.000 
#    0.000    0.000    0.000    0.000    0.000    0.000 
#
# Total GULP energy -133618.113497 kJ/mol
# GULP energy per Si atom -5567.421396 kJ/mol
# Density = 2.539767 g / cm^3
# Si number density = 25.455610 Si / 1000 Ang^3
#
#
#
# Elastic Constant Matrix: (Units=GPa)
#
#
# Indices 1 2 3 4 5 6 
#
# 1 116.9609 54.0439 36.0421 0.0000 0.0000 0.0000
# 2 54.0439 116.9609 36.0421 0.0000 0.0000 0.0000
# 3 36.0421 36.0421 73.4998 0.0000 0.0000 0.0000
# 4 0.0000 0.0000 0.0000 33.3322 0.0000 0.0000
# 5 0.0000 0.0000 0.0000 0.0000 33.3322 0.0000
# 6 0.0000 0.0000 0.0000 0.0000 0.0000 38.4801
#
#
#
# Elastic Compliance Matrix: (Units=1/GPa)
#
#
# Indices 1 2 3 4 5 6 
#
# 1 0.011633 -0.004261 -0.003615 0.000000 0.000000 0.000000
# 2 -0.004261 0.011633 -0.003615 0.000000 0.000000 0.000000
# 3 -0.003615 -0.003615 0.017151 0.000000 0.000000 0.000000
# 4 0.000000 0.000000 0.000000 0.030001 0.000000 0.000000
# 5 0.000000 0.000000 0.000000 0.000000 0.030001 0.000000
# 6 0.000000 0.000000 0.000000 0.000000 0.000000 0.025987
#
#
# Mechanical properties :
#
#
# Convention : Reuss Voigt Hill
#
# Bulk Modulus (GPa) = 57.35722 62.18642 59.77182
# Shear Modulus (GPa) = 32.21678 33.11516 32.66597
#
# Velocity S-wave (km/s) = 3.56140 3.61071 3.58614
# Velocity P-wave (km/s) = 6.28431 6.47034 6.37801
#
# Compressibility (1/GPa) = 0.01743460
#
# Stress axis : x y z
#
# Youngs Moduli (GPa) = 85.96427 85.96428 58.30684
#
# Poissons Ratio (x) = 0.36631 0.21077
# Poissons Ratio (y) = 0.36631 0.21077
# Poissons Ratio (z) = 0.31074 0.31074
#
# Static dielectric constant tensor:
#      x y z
#    x 1.836650 0.000000 0.000000 
#    y 0.000000 1.836650 0.000000 
#    z 0.000000 0.000000 2.096080 
# 
# From -- ./inp_files/9022.got.cif
#   From: 2010.05.17/outbox.cif.g08.bks.cpg/sg122_5_cif.got.tgz:9022.got - 2010.05.20 11:37:33.
