data_PCOD9560775
_publ_section_title
;
Structure prediction by ZEFSAII (Michael W. Deem and Ramdas Pophale) SiO2 
 PCOD9560775
Probable space group: I -4 2 D
;
_chemical_formula_sum "Si O2"
_cell_formula_units_Z 56
_cell_length_a 19.165605
_cell_length_b 19.165605
_cell_length_c 6.844432
_cell_angle_alpha 90.000000
_cell_angle_beta 90.000000
_cell_angle_gamma 90.000000
_cell_volume 2514.099603
_symmetry_space_group_name_H-M "I -4 2 D"
_symmetry_group_IT_number 122
_symmetry_cell_setting 'tetragonal'
loop_
_space_group_symop_operation_xyz
x,y,z
y,-x,-z
-x,-y,z
-y,x,-z
x,1/2-y,1/4-z
-x,1/2+y,1/4-z
-y,1/2-x,1/4+z
y,1/2+x,1/4+z
1/2+x,1/2+y,1/2+z
1/2+y,1/2-x,1/2-z
1/2-x,1/2-y,1/2+z
1/2-y,1/2+x,1/2-z
1/2+x,-y,3/4-z
1/2-x,y,3/4-z
1/2-y,-x,3/4+z
1/2+y,x,3/4+z
loop_
_atom_site_type_symbol
_atom_site_label
_atom_site_fract_x
_atom_site_fract_y
_atom_site_fract_z
Si Si1 0.632138 0.185382 0.892695
Si Si2 0.982763 0.682373 0.492062
Si Si3 0.250000 0.909944 0.875000
Si Si4 0.335661 0.332338 0.181888
O O1 0.558952 0.151877 0.954143
O O2 0.695256 0.141090 0.983256
O O3 0.633583 0.268985 0.922933
O O4 0.650472 0.177211 0.661778
O O5 0.992391 0.750000 0.625000
O O6 0.956984 0.709874 0.280534
O O7 0.916332 0.643454 0.588631
O O8 0.332244 0.250000 0.125000
#
# Coordination Sequence:
#
# PCOD9560775 Si02
#       4
#    16  16   8  16
#     4  10  19  34  61  85 120 162 196 261 317 365
#     4  10  22  35  54  89 124 154 200 261 318 376
#     4  10  20  38  60  86 116 156 210 252 318 380
#     4   9  18  34  56  88 117 150 206 253 302 380
#
# _framework density 22.274376
#
# number of rings (size 3 to 8) (size 9 to 14) (size 15 to 20)
#    0.000    2.286    1.429    1.714    0.000    6.857 
#    0.000    0.000    0.000   29.143    0.000   32.000 
#    0.000    0.000    0.000    0.000    0.000    0.000 
#
# Total GULP energy -155997.366861 kJ/mol
# GULP energy per Si atom -5571.334531 kJ/mol
# Density = 2.222368 g / cm^3
# Si number density = 22.274376 Si / 1000 Ang^3
#
#
#
# Elastic Constant Matrix: (Units=GPa)
#
#
# Indices 1 2 3 4 5 6 
#
# 1 137.8785 15.6044 7.3823 0.0000 0.0000 0.0000
# 2 15.6044 137.8785 7.3823 0.0000 0.0000 0.0000
# 3 7.3823 7.3823 81.0714 0.0000 0.0000 0.0000
# 4 0.0000 0.0000 0.0000 22.9028 0.0000 0.0000
# 5 0.0000 0.0000 0.0000 0.0000 22.9028 0.0000
# 6 0.0000 0.0000 0.0000 0.0000 0.0000 3.8946
#
#
#
# Elastic Compliance Matrix: (Units=1/GPa)
#
#
# Indices 1 2 3 4 5 6 
#
# 1 0.007376 -0.000803 -0.000599 0.000000 0.000000 0.000000
# 2 -0.000803 0.007376 -0.000599 0.000000 0.000000 0.000000
# 3 -0.000599 -0.000599 0.012444 0.000000 0.000000 0.000000
# 4 0.000000 0.000000 0.000000 0.043663 0.000000 0.000000
# 5 0.000000 0.000000 0.000000 0.000000 0.043663 0.000000
# 6 0.000000 0.000000 0.000000 0.000000 0.000000 0.256766
#
#
# Mechanical properties :
#
#
# Convention : Reuss Voigt Hill
#
# Bulk Modulus (GPa) = 43.11163 46.39629 44.75396
# Shear Modulus (GPa) = 13.05423 31.70402 22.37912
#
# Velocity S-wave (km/s) = 2.42350 3.77681 3.17314
# Velocity P-wave (km/s) = 5.21804 6.31615 5.79317
#
# Compressibility (1/GPa) = 0.02319560
#
# Stress axis : x y z
#
# Youngs Moduli (GPa) = 135.58122 135.58122 80.36128
#
# Poissons Ratio (x) = 0.10883 0.04810
# Poissons Ratio (y) = 0.10883 0.04810
# Poissons Ratio (z) = 0.08115 0.08115
#
# Static dielectric constant tensor:
#      x y z
#    x 1.839550 0.000000 0.000000 
#    y 0.000000 1.839550 0.000000 
#    z 0.000000 0.000000 1.768820 
# 
# From -- ./inp_files/2420.got.cif
#   From: 2010.05.17/outbox.cif.g08.bks.cpg/sg122_2_cif.got.tgz:2420.got - 2010.05.20 11:37:33.
