data_PCOD9560337
_publ_section_title
;
Structure prediction by ZEFSAII (Michael W. Deem and Ramdas Pophale) SiO2 
 PCOD9560337
Probable space group: I -4 2 M
;
_chemical_formula_sum "Si O2"
_cell_formula_units_Z 112
_cell_length_a 15.365111
_cell_length_b 15.365111
_cell_length_c 22.623213
_cell_angle_alpha 90.000000
_cell_angle_beta 90.000000
_cell_angle_gamma 90.000000
_cell_volume 5341.038254
_symmetry_space_group_name_H-M "I -4 2 M"
_symmetry_group_IT_number 121
_symmetry_cell_setting 'tetragonal'
loop_
_space_group_symop_operation_xyz
x,y,z
y,-x,-z
-x,-y,z
-y,x,-z
x,-y,-z
-x,y,-z
-y,-x,z
y,x,z
1/2+x,1/2+y,1/2+z
1/2+y,1/2-x,1/2-z
1/2-x,1/2-y,1/2+z
1/2-y,1/2+x,1/2-z
1/2+x,1/2-y,1/2-z
1/2-x,1/2+y,1/2-z
1/2-y,1/2-x,1/2+z
1/2+y,1/2+x,1/2+z
loop_
_atom_site_type_symbol
_atom_site_label
_atom_site_fract_x
_atom_site_fract_y
_atom_site_fract_z
Si Si1 0.951908 0.279088 0.590687
Si Si2 0.503966 0.357639 0.808449
Si Si3 0.733058 0.129341 0.874887
Si Si4 0.086874 0.387626 0.231383
Si Si5 0.863527 0.726462 0.533577
Si Si6 0.174060 0.311733 0.835207
Si Si7 0.971460 0.168032 0.171897
O O1 0.889428 0.260825 0.534693
O O2 0.895208 0.349470 0.625444
O O3 0.972443 0.206977 0.640637
O O4 0.046022 0.296437 0.564669
O O5 0.598122 0.401879 0.820331
O O6 0.434471 0.434471 0.807587
O O7 0.506112 0.322081 0.741584
O O8 0.782170 0.217831 0.853912
O O9 0.650816 0.100148 0.834270
O O10 0.701193 0.152118 0.941397
O O11 0.804119 0.053616 0.866648
O O12 0.115728 0.487333 0.244836
O O13 0.150837 0.327408 0.269627
O O14 0.816899 0.816899 0.551740
O O15 0.266396 0.266396 0.849377
O O16 0.102433 0.238411 0.841719
O O17 0.926288 0.073713 0.164373
#
# Coordination Sequence:
#
# PCOD9560337 Si02
#       7
#    16  16  16  16  16  16  16
#     4  11  22  40  61  91 127 170 216 257 313 378
#     4  10  20  35  58  89 127 166 204 254 316 385
#     4  11  22  39  62  90 126 170 215 264 328 388
#     4  11  22  37  57  87 126 163 204 257 321 390
#     4  10  23  40  63  92 127 171 217 266 312 377
#     4  11  22  37  59  86 119 161 209 260 315 377
#     4  10  22  39  60  92 129 165 212 269 331 394
#
# _framework density 20.969707
#
# number of rings (size 3 to 8) (size 9 to 14) (size 15 to 20)
#    0.000    1.429    1.429    4.286    2.000    0.857 
#    0.000    0.714    0.000    6.857    0.000    1.000 
#    0.000    9.143    0.000    0.000    0.000    0.000 
#
# Total GULP energy -312070.050094 kJ/mol
# GULP energy per Si atom -5572.679466 kJ/mol
# Density = 2.092198 g / cm^3
# Si number density = 20.969707 Si / 1000 Ang^3
#
#
#
# Elastic Constant Matrix: (Units=GPa)
#
#
# Indices 1 2 3 4 5 6 
#
# 1 74.9123 41.0639 41.6947 0.0000 0.0000 0.0000
# 2 41.0639 74.9123 41.6949 0.0000 0.0000 0.0000
# 3 41.6947 41.6949 64.5486 0.0000 0.0000 0.0000
# 4 0.0000 0.0000 0.0000 -127.9680 0.0000 0.0000
# 5 0.0000 0.0000 0.0000 0.0000 -128.6610 0.0000
# 6 0.0000 0.0000 0.0000 0.0000 0.0000 36.2967
#
#
#
# Elastic Compliance Matrix: (Units=1/GPa)
#
#
# Indices 1 2 3 4 5 6 
#
# 1 0.022822 -0.006722 -0.010400 0.000000 0.000000 0.000000
# 2 -0.006722 0.022822 -0.010400 0.000000 0.000000 0.000000
# 3 -0.010400 -0.010400 0.028928 0.000000 0.000000 0.000000
# 4 0.000000 0.000000 0.000000 -0.007814 0.000000 0.000000
# 5 0.000000 0.000000 0.000000 0.000000 -0.007772 0.000000
# 6 0.000000 0.000000 0.000000 0.000000 0.000000 0.027551
#
#
# Mechanical properties :
#
#
# Convention : Reuss Voigt Hill
#
# Bulk Modulus (GPa) = 51.20674 51.47560 51.34117
# Shear Modulus (GPa) = 33.76386 -38.07180 -2.15397
#
# Velocity S-wave (km/s) = 4.01699 -4.26556 -1.01460
# Velocity P-wave (km/s) = 6.78140 0.58382 4.81291
#
# Compressibility (1/GPa) = 0.01952868
#
# Stress axis : x y z
#
# Youngs Moduli (GPa) = 43.81784 43.81751 34.56906
#
# Poissons Ratio (x) = 0.29453 0.35951
# Poissons Ratio (y) = 0.29453 0.35952
# Poissons Ratio (z) = 0.45569 0.45570
#
# Static dielectric constant tensor:
#      x y z
#    x 2.010790 0.000000 0.000000 
#    y 0.000000 2.011730 0.000000 
#    z 0.000000 0.000000 1.811460 
# 
# From -- ./inp_files/7213.got.cif
#   From: 2010.05.17/outbox.cif.g08.bks.cpg/sg121_4_cif.got.tgz:7213.got - 2010.05.20 11:32:06.
