data_PCOD9560453
_publ_section_title
;
Structure prediction by ZEFSAII (Michael W. Deem and Ramdas Pophale) SiO2 
 PCOD9560453
Probable space group: I -4 2 M
;
_chemical_formula_sum "Si O2"
_cell_formula_units_Z 56
_cell_length_a 10.832781
_cell_length_b 10.832781
_cell_length_c 19.135469
_cell_angle_alpha 90.000000
_cell_angle_beta 90.000000
_cell_angle_gamma 90.000000
_cell_volume 2245.530911
_symmetry_space_group_name_H-M "I -4 2 M"
_symmetry_group_IT_number 121
_symmetry_cell_setting 'tetragonal'
loop_
_space_group_symop_operation_xyz
x,y,z
y,-x,-z
-x,-y,z
-y,x,-z
x,-y,-z
-x,y,-z
-y,-x,z
y,x,z
1/2+x,1/2+y,1/2+z
1/2+y,1/2-x,1/2-z
1/2-x,1/2-y,1/2+z
1/2-y,1/2+x,1/2-z
1/2+x,1/2-y,1/2-z
1/2-x,1/2+y,1/2-z
1/2-y,1/2-x,1/2+z
1/2+y,1/2+x,1/2+z
loop_
_atom_site_type_symbol
_atom_site_label
_atom_site_fract_x
_atom_site_fract_y
_atom_site_fract_z
Si Si1 0.876371 0.687814 0.357339
Si Si2 0.322986 0.131911 0.590867
Si Si3 0.454564 0.263614 0.705851
Si Si4 0.694702 0.500000 0.500000
O O1 0.790135 0.790135 0.391123
O O2 0.787410 0.581104 0.326802
O O3 0.941397 0.745687 0.288562
O O4 0.985950 0.655150 0.410462
O O5 0.186688 0.186688 0.575924
O O6 0.357664 0.170963 0.669824
O O7 0.419130 0.215548 0.547828
O O8 0.399504 0.399504 0.688493
O O9 0.600662 0.399339 0.533650
#
# Coordination Sequence:
#
# PCOD9560453 Si02
#       4
#    16  16  16   8
#     4  11  22  37  62  97 142 186 225 280 345 409
#     4  10  21  39  66  98 134 175 226 286 343 406
#     4  10  21  37  60  92 133 181 228 278 338 403
#     4   9  20  42  71 102 136 179 233 290 348 411
#
# _framework density 24.938421999999999
#
# number of rings (size 3 to 8) (size 9 to 14) (size 15 to 20)
#    0.000    1.857    2.857    0.857    0.000    2.286 
#    0.000    8.571    0.000    5.143    0.000    2.000 
#    0.000    4.571    0.000    0.286    0.000    0.000 
#
# Total GULP energy -156243.662934 kJ/mol
# GULP energy per Si atom -5580.130819 kJ/mol
# Density = 2.488166 g / cm^3
# Si number density = 24.938422 Si / 1000 Ang^3
#
#
#
# Elastic Constant Matrix: (Units=GPa)
#
#
# Indices 1 2 3 4 5 6 
#
# 1 99.5250 169.2257 31.9171 0.0000 0.0000 0.0000
# 2 169.2257 99.5246 31.9163 0.0000 0.0000 0.0000
# 3 31.9171 31.9163 49.8690 0.0000 0.0000 0.0000
# 4 0.0000 0.0000 0.0000 25.7357 0.0000 0.0000
# 5 0.0000 0.0000 0.0000 0.0000 25.7360 0.0000
# 6 0.0000 0.0000 0.0000 0.0000 0.0000 30.0040
#
#
#
# Elastic Compliance Matrix: (Units=1/GPa)
#
#
# Indices 1 2 3 4 5 6 
#
# 1 -0.004980 0.009367 -0.002808 0.000000 0.000000 0.000000
# 2 0.009367 -0.004980 -0.002808 0.000000 0.000000 0.000000
# 3 -0.002808 -0.002808 0.023647 0.000000 0.000000 0.000000
# 4 0.000000 0.000000 0.000000 0.038856 0.000000 0.000000
# 5 0.000000 0.000000 0.000000 0.000000 0.038856 0.000000
# 6 0.000000 0.000000 0.000000 0.000000 0.000000 0.033329
#
#
# Mechanical properties :
#
#
# Convention : Reuss Voigt Hill
#
# Bulk Modulus (GPa) = 47.19244 79.44852 63.32048
# Shear Modulus (GPa) = 40.22805 17.35244 28.79025
#
# Velocity S-wave (km/s) = 4.02069 2.64069 3.40141
# Velocity P-wave (km/s) = 6.36548 6.42064 6.39312
#
# Compressibility (1/GPa) = 0.02118983
#
# Stress axis : x y z
#
# Youngs Moduli (GPa) = -200.82136 -200.82308 42.28817
#
# Poissons Ratio (x) = 1.88121 0.11875
# Poissons Ratio (y) = 1.88119 0.11877
# Poissons Ratio (z) = -0.56395 -0.56401
#
# Static dielectric constant tensor:
#      x y z
#    x 2.006490 0.000000 0.000000 
#    y 0.000000 2.006490 0.000000 
#    z 0.000000 0.000000 2.028020 
# 
# From -- ./inp_files/5903.got.cif
#   From: 2010.05.17/outbox.cif.g08.bks.cpg/sg121_3_cif.got.tgz:5903.got - 2010.05.20 11:32:06.
