data_PCOD9560080
_publ_section_title
;
Structure prediction by ZEFSAII (Michael W. Deem and Ramdas Pophale) SiO2 
 PCOD9560080
Probable space group: I -4 C 2
;
_chemical_formula_sum "Si O2"
_cell_formula_units_Z 58
_cell_length_a 18.000000
_cell_length_b 18.000000
_cell_length_c 18.000000
_cell_angle_alpha 90.000000
_cell_angle_beta 90.000000
_cell_angle_gamma 90.000000
_cell_volume 5832.000000
_symmetry_space_group_name_H-M "I -4 C 2"
_symmetry_group_IT_number 120
_symmetry_cell_setting 'tetragonal'
loop_
_space_group_symop_operation_xyz
x,y,z
y,-x,-z
-x,-y,z
-y,x,-z
y,x,1/2-z
-y,-x,1/2-z
-x,y,1/2+z
x,-y,1/2+z
1/2+x,1/2+y,1/2+z
1/2+y,1/2-x,1/2-z
1/2-x,1/2-y,1/2+z
1/2-y,1/2+x,1/2-z
1/2+y,1/2+x,-z
1/2-y,1/2-x,-z
1/2-x,1/2+y,z
1/2+x,1/2-y,z
loop_
_atom_site_type_symbol
_atom_site_label
_atom_site_fract_x
_atom_site_fract_y
_atom_site_fract_z
Si Si1 0.729996 0.885196 0.037032
Si Si2 0.783400 0.546141 0.837706
Si Si3 0.181704 0.132283 0.667962
Si Si4 0.944183 0.568586 0.087585
Si Si5 0.698503 0.001889 0.167317
Si Si6 0.500000 0.500000 0.500000
Si Si7 0.462806 0.345747 0.077310
Si Si8 0.297524 0.231952 0.582962
O O1 0.779648 0.817649 0.068130
O O2 0.706380 0.938671 0.104367
O O3 0.658515 0.841486 0.000000
O O4 0.784608 0.931841 0.982313
O O5 0.855495 0.518205 0.883744
O O6 0.801294 0.532353 0.750750
O O7 0.706574 0.509068 0.865649
O O8 0.777941 0.631187 0.865334
O O9 0.160564 0.160564 0.750000
O O10 0.232400 0.058983 0.667670
O O11 0.106974 0.121400 0.621830
O O12 0.228613 0.194669 0.624585
O O13 0.873774 0.548803 0.140343
O O14 0.000000 0.500000 0.094107
O O15 0.924418 0.575582 0.000000
O O16 0.419341 0.502336 0.457116
O O17 0.303699 0.196302 0.500000
#
# Coordination Sequence:
#
# PCOD9560080 Si02
#       8
#    16  16  16  16  16   4  16  16
#     4  11  25  43  74 109 141 184 255 306 361 442
#     4  12  27  43  72 103 148 194 237 295 377 439
#     4  12  25  47  70 103 146 193 236 303 374 431
#     4  11  27  44  68 102 147 195 243 298 362 440
#     4  12  28  43  70 110 146 189 238 305 369 444
#     4  12  28  48  82 108 140 196 250 320 364 460
#     4  12  25  48  75 105 145 193 246 305 374 438
#     4  11  24  44  71 103 136 189 249 299 354 437
#
# _framework density 9.9451300000000007
#
# number of rings (size 3 to 8) (size 9 to 14) (size 15 to 20)
#    0.000    0.414    5.517    2.897    9.655    0.000 
#    0.000    0.345    0.000    0.000    0.000    0.000 
#    0.000    0.000    0.000    0.000    0.000    0.000 
#
# Total GULP energy -324142.811283 kJ/mol
# GULP energy per Si atom -5588.669160 kJ/mol
# Density = 0.992249 g / cm^3
# Si number density = 9.945130 Si / 1000 Ang^3
#
#
#
# Elastic Constant Matrix: (Units=GPa)
#
#
# Indices 1 2 3 4 5 6 
#
# 1 103.8670 28.9096 43.3054 0.0000 0.0000 0.0000
# 2 28.9096 103.8677 43.3057 0.0000 0.0000 0.0000
# 3 43.3054 43.3057 150.2995 0.0000 0.0000 0.0000
# 4 0.0000 0.0000 0.0000 38.3821 0.0000 0.0000
# 5 0.0000 0.0000 0.0000 0.0000 38.3821 0.0000
# 6 0.0000 0.0000 0.0000 0.0000 0.0000 45.7878
#
#
#
# Elastic Compliance Matrix: (Units=1/GPa)
#
#
# Indices 1 2 3 4 5 6 
#
# 1 0.011308 -0.002033 -0.002672 0.000000 0.000000 0.000000
# 2 -0.002033 0.011308 -0.002672 0.000000 0.000000 0.000000
# 3 -0.002672 -0.002672 0.008193 0.000000 0.000000 0.000000
# 4 0.000000 0.000000 0.000000 0.026054 0.000000 0.000000
# 5 0.000000 0.000000 0.000000 0.000000 0.026054 0.000000
# 6 0.000000 0.000000 0.000000 0.000000 0.000000 0.021840
#
#
# Mechanical properties :
#
#
# Convention : Reuss Voigt Hill
#
# Bulk Modulus (GPa) = 62.29229 65.45286 63.87258
# Shear Modulus (GPa) = 40.04399 40.67796 40.36097
#
# Velocity S-wave (km/s) = 4.49179 4.52721 4.50953
# Velocity P-wave (km/s) = 7.63463 7.76569 7.70044
#
# Compressibility (1/GPa) = 0.01605335
#
# Stress axis : x y z
#
# Youngs Moduli (GPa) = 88.43504 88.43546 122.05104
#
# Poissons Ratio (x) = 0.17980 0.32615
# Poissons Ratio (y) = 0.17980 0.32615
# Poissons Ratio (z) = 0.23632 0.23632
#
# Static dielectric constant tensor:
#      x y z
#    x 1.713420 0.000000 0.000000 
#    y 0.000000 1.713420 0.000000 
#    z 0.000000 0.000000 1.692780 
# 
# From -- ./inp_files/4595.got.cif
#   From: 2010.05.17/outbox.ucp.g08.bks.cvg/sg120_3_cif.got.tgz:4595.got - 2010.06.11 11:34:49.
