data_PCOD9560528
_publ_section_title
;
Structure prediction by ZEFSAII (Michael W. Deem and Ramdas Pophale) SiO2 
 PCOD9560528
Probable space group: I -4 2 M
;
_chemical_formula_sum "Si O2"
_cell_formula_units_Z 64
_cell_length_a 19.285723
_cell_length_b 19.285723
_cell_length_c 8.509753
_cell_angle_alpha 90.000000
_cell_angle_beta 90.000000
_cell_angle_gamma 90.000000
_cell_volume 3165.109971
_symmetry_space_group_name_H-M "I -4 2 M"
_symmetry_group_IT_number 121
_symmetry_cell_setting 'tetragonal'
loop_
_space_group_symop_operation_xyz
x,y,z
y,-x,-z
-x,-y,z
-y,x,-z
x,-y,-z
-x,y,-z
-y,-x,z
y,x,z
1/2+x,1/2+y,1/2+z
1/2+y,1/2-x,1/2-z
1/2-x,1/2-y,1/2+z
1/2-y,1/2+x,1/2-z
1/2+x,1/2-y,1/2-z
1/2-x,1/2+y,1/2-z
1/2-y,1/2-x,1/2+z
1/2+y,1/2+x,1/2+z
loop_
_atom_site_type_symbol
_atom_site_label
_atom_site_fract_x
_atom_site_fract_y
_atom_site_fract_z
Si Si1 0.594378 0.237448 0.760470
Si Si2 0.159024 0.159024 0.512468
Si Si3 0.538120 0.909509 0.165466
Si Si4 0.133165 0.133165 0.154450
Si Si5 0.500000 0.299887 0.500000
Si Si6 0.273530 0.726471 0.559839
O O1 0.579217 0.162402 0.831612
O O2 0.534895 0.254645 0.635862
O O3 0.666049 0.239016 0.663676
O O4 0.601310 0.300259 0.885571
O O5 0.133945 0.133945 0.342815
O O6 0.217562 0.217562 0.486537
O O7 0.475268 0.913908 0.292372
O O8 0.500000 0.916821 0.000000
O O9 0.155234 0.060138 0.080644
O O10 0.189114 0.189114 0.087483
#
# Coordination Sequence:
#
# PCOD9560528 Si02
#       6
#    16   8  16   8   8   8
#     4  10  24  40  67  94 132 170 221 267 337 388
#     4  11  23  41  65 105 125 159 222 287 324 388
#     4  11  26  43  62  93 136 184 232 270 312 392
#     4  10  22  41  65  91 132 161 216 264 324 410
#     4  10  24  43  66  91 126 178 202 258 342 398
#     4   9  21  43  62  96 131 168 210 274 340 392
#
# _framework density 20.220468
#
# number of rings (size 3 to 8) (size 9 to 14) (size 15 to 20)
#    0.000    1.750    0.000    3.750   10.500    2.250 
#    0.000    0.000    0.000    1.500    0.000    0.000 
#    0.000    0.000    0.000    0.000    0.000    0.000 
#
# Total GULP energy -178864.691219 kJ/mol
# GULP energy per Si atom -5589.521601 kJ/mol
# Density = 2.017445 g / cm^3
# Si number density = 20.220468 Si / 1000 Ang^3
#
#
#
# Elastic Constant Matrix: (Units=GPa)
#
#
# Indices 1 2 3 4 5 6 
#
# 1 64.2842 31.1300 18.8423 0.0000 0.0000 0.0000
# 2 31.1300 64.2837 18.8427 0.0000 0.0000 0.0000
# 3 18.8423 18.8427 113.7092 0.0000 0.0000 0.0000
# 4 0.0000 0.0000 0.0000 21.1295 0.0000 0.0000
# 5 0.0000 0.0000 0.0000 0.0000 21.1293 0.0000
# 6 0.0000 0.0000 0.0000 0.0000 0.0000 35.0729
#
#
#
# Elastic Compliance Matrix: (Units=1/GPa)
#
#
# Indices 1 2 3 4 5 6 
#
# 1 0.020688 -0.009474 -0.001858 0.000000 0.000000 0.000000
# 2 -0.009474 0.020689 -0.001858 0.000000 0.000000 0.000000
# 3 -0.001858 -0.001858 0.009410 0.000000 0.000000 0.000000
# 4 0.000000 0.000000 0.000000 0.047327 0.000000 0.000000
# 5 0.000000 0.000000 0.000000 0.000000 0.047328 0.000000
# 6 0.000000 0.000000 0.000000 0.000000 0.000000 0.028512
#
#
# Mechanical properties :
#
#
# Convention : Reuss Voigt Hill
#
# Bulk Modulus (GPa) = 40.97334 42.21188 41.59261
# Shear Modulus (GPa) = 23.98420 27.03047 25.50734
#
# Velocity S-wave (km/s) = 3.44777 3.66018 3.55556
# Velocity P-wave (km/s) = 6.01305 6.22765 6.12129
#
# Compressibility (1/GPa) = 0.02440611
#
# Stress axis : x y z
#
# Youngs Moduli (GPa) = 48.33636 48.33593 106.26716
#
# Poissons Ratio (x) = 0.45793 0.19747
# Poissons Ratio (y) = 0.45793 0.19749
# Poissons Ratio (z) = 0.08982 0.08983
#
# Static dielectric constant tensor:
#      x y z
#    x 1.711210 0.000000 0.000000 
#    y 0.000000 1.711210 0.000000 
#    z 0.000000 0.000000 1.745790 
# 
# From -- ./inp_files/1660.got.cif
#   From: 2010.05.17/outbox.cif.g08.bks.cpg/sg121_1_cif.got.tgz:1660.got - 2010.05.20 11:32:06.
