data_PCOD9560792
_publ_section_title
;
Structure prediction by ZEFSAII (Michael W. Deem and Ramdas Pophale) SiO2 
 PCOD9560792
Probable space group: I -4 2 D
;
_chemical_formula_sum "Si O2"
_cell_formula_units_Z 80
_cell_length_a 17.521555
_cell_length_b 17.521555
_cell_length_c 14.321247
_cell_angle_alpha 90.000000
_cell_angle_beta 90.000000
_cell_angle_gamma 90.000000
_cell_volume 4396.692854
_symmetry_space_group_name_H-M "I -4 2 D"
_symmetry_group_IT_number 122
_symmetry_cell_setting 'tetragonal'
loop_
_space_group_symop_operation_xyz
x,y,z
y,-x,-z
-x,-y,z
-y,x,-z
x,1/2-y,1/4-z
-x,1/2+y,1/4-z
-y,1/2-x,1/4+z
y,1/2+x,1/4+z
1/2+x,1/2+y,1/2+z
1/2+y,1/2-x,1/2-z
1/2-x,1/2-y,1/2+z
1/2-y,1/2+x,1/2-z
1/2+x,-y,3/4-z
1/2-x,y,3/4-z
1/2-y,-x,3/4+z
1/2+y,x,3/4+z
loop_
_atom_site_type_symbol
_atom_site_label
_atom_site_fract_x
_atom_site_fract_y
_atom_site_fract_z
Si Si1 0.215981 0.839745 0.101161
Si Si2 0.786093 0.588064 0.771584
Si Si3 0.715012 0.410313 0.977360
Si Si4 0.346029 0.175919 0.566630
Si Si5 0.418322 0.406432 0.520241
O O1 0.221993 0.750000 0.125000
O O2 0.222468 0.886276 0.196257
O O3 0.285623 0.865483 0.032780
O O4 0.139563 0.860363 0.045802
O O5 0.750000 0.599029 0.875000
O O6 0.804496 0.499231 0.762904
O O7 0.857186 0.642841 0.751105
O O8 0.720669 0.615656 0.700586
O O9 0.750000 0.396717 0.875000
O O10 0.318327 0.250000 0.625000
O O11 0.409872 0.133768 0.628391
O O12 0.398950 0.495870 0.518868
#
# Coordination Sequence:
#
# PCOD9560792 Si02
#       5
#    16  16  16  16  16
#     4  11  21  38  64  89 119 156 211 244 297 366
#     4  11  21  39  60  85 124 156 205 253 305 356
#     4  11  23  38  61  89 117 164 203 252 301 357
#     4  10  19  36  66  84 117 159 191 247 303 348
#     4  10  23  41  60  92 129 156 194 251 311 367
#
# _framework density 18.195495999999999
#
# number of rings (size 3 to 8) (size 9 to 14) (size 15 to 20)
#    0.000    1.400    4.000    1.800    2.800    2.800 
#    3.600    0.000    0.000    0.000    0.000    0.000 
#    0.000    0.000    0.000    0.000    0.000    0.000 
#
# Total GULP energy -223084.594504 kJ/mol
# GULP energy per Si atom -5577.114863 kJ/mol
# Density = 1.815408 g / cm^3
# Si number density = 18.195496 Si / 1000 Ang^3
#
#
#
# Elastic Constant Matrix: (Units=GPa)
#
#
# Indices 1 2 3 4 5 6 
#
# 1 89.2029 40.2865 31.7039 0.0000 0.0000 0.0000
# 2 40.2865 89.2029 31.7039 0.0000 0.0000 0.0000
# 3 31.7039 31.7039 103.6018 0.0000 0.0000 0.0000
# 4 0.0000 0.0000 0.0000 25.5507 0.0000 0.0000
# 5 0.0000 0.0000 0.0000 0.0000 25.5507 0.0000
# 6 0.0000 0.0000 0.0000 0.0000 0.0000 19.7859
#
#
#
# Elastic Compliance Matrix: (Units=1/GPa)
#
#
# Indices 1 2 3 4 5 6 
#
# 1 0.014763 -0.005680 -0.002780 0.000000 0.000000 0.000000
# 2 -0.005680 0.014763 -0.002780 0.000000 0.000000 0.000000
# 3 -0.002780 -0.002780 0.011354 0.000000 0.000000 0.000000
# 4 0.000000 0.000000 0.000000 0.039138 0.000000 0.000000
# 5 0.000000 0.000000 0.000000 0.000000 0.039138 0.000000
# 6 0.000000 0.000000 0.000000 0.000000 0.000000 0.050541
#
#
# Mechanical properties :
#
#
# Convention : Reuss Voigt Hill
#
# Bulk Modulus (GPa) = 54.34155 54.37737 54.35946
# Shear Modulus (GPa) = 25.21307 26.06500 25.63904
#
# Velocity S-wave (km/s) = 3.72651 3.78894 3.75785
# Velocity P-wave (km/s) = 6.96032 7.00652 6.98346
#
# Compressibility (1/GPa) = 0.01840213
#
# Stress axis : x y z
#
# Youngs Moduli (GPa) = 67.73487 67.73487 88.07717
#
# Poissons Ratio (x) = 0.38471 0.24484
# Poissons Ratio (y) = 0.38471 0.24484
# Poissons Ratio (z) = 0.18829 0.18829
#
# Static dielectric constant tensor:
#      x y z
#    x 1.606610 0.000000 0.000000 
#    y 0.000000 1.606610 0.000000 
#    z 0.000000 0.000000 1.660830 
# 
# From -- ./inp_files/5310.got.cif
#   From: 2010.05.17/outbox.cif.g08.bks.cpg/sg122_3_cif.got.tgz:5310.got - 2010.05.20 11:37:33.
