data_PCOD9560370
_publ_section_title
;
Structure prediction by ZEFSAII (Michael W. Deem and Ramdas Pophale) SiO2 
 PCOD9560370
Probable space group: I -4 2 M
;
_chemical_formula_sum "Si O2"
_cell_formula_units_Z 96
_cell_length_a 15.466674
_cell_length_b 15.466674
_cell_length_c 21.313475
_cell_angle_alpha 90.000000
_cell_angle_beta 90.000000
_cell_angle_gamma 90.000000
_cell_volume 5098.566961
_symmetry_space_group_name_H-M "I -4 2 M"
_symmetry_group_IT_number 121
_symmetry_cell_setting 'tetragonal'
loop_
_space_group_symop_operation_xyz
x,y,z
y,-x,-z
-x,-y,z
-y,x,-z
x,-y,-z
-x,y,-z
-y,-x,z
y,x,z
1/2+x,1/2+y,1/2+z
1/2+y,1/2-x,1/2-z
1/2-x,1/2-y,1/2+z
1/2-y,1/2+x,1/2-z
1/2+x,1/2-y,1/2-z
1/2-x,1/2+y,1/2-z
1/2-y,1/2-x,1/2+z
1/2+y,1/2+x,1/2+z
loop_
_atom_site_type_symbol
_atom_site_label
_atom_site_fract_x
_atom_site_fract_y
_atom_site_fract_z
Si Si1 0.030965 0.826776 0.071907
Si Si2 0.346465 0.212719 0.354120
Si Si3 0.125118 0.732859 0.858133
Si Si4 0.753924 0.387535 0.933002
Si Si5 0.719751 0.583201 0.920759
Si Si6 0.407280 0.096143 0.749758
O O1 0.083000 0.917001 0.085578
O O2 0.100506 0.751659 0.087574
O O3 0.950042 0.794921 0.114109
O O4 0.000000 0.829672 0.000000
O O5 0.293054 0.293054 0.326631
O O6 0.278838 0.141800 0.376991
O O7 0.401972 0.167161 0.301411
O O8 0.204080 0.795921 0.841550
O O9 0.161337 0.663340 0.909211
O O10 0.101127 0.674570 0.798474
O O11 0.674235 0.325766 0.915701
O O12 0.735439 0.482965 0.906521
O O13 0.751302 0.398867 0.008089
O O14 0.622306 0.622306 0.916767
O O15 0.501780 0.099260 0.781740
#
# Coordination Sequence:
#
# PCOD9560370 Si02
#       6
#    16  16  16  16  16  16
#     4  11  23  40  63  92 125 159 202 257 320 382
#     4  10  20  37  58  82 114 154 199 247 304 370
#     4  11  22  38  59  84 117 158 202 249 307 370
#     4   9  18  32  51  80 114 148 192 244 299 367
#     4   9  17  31  53  79 112 151 191 240 301 369
#     4  11  22  38  59  83 115 151 201 254 299 353
#
# _framework density 18.828821000000001
#
# number of rings (size 3 to 8) (size 9 to 14) (size 15 to 20)
#    0.000    1.833    1.667    3.000    0.000    4.167 
#    0.000    1.667    0.000    4.000    0.000    2.333 
#    0.000    0.000    0.000    0.000    0.000    0.000 
#
# Total GULP energy -267366.497094 kJ/mol
# GULP energy per Si atom -5570.135356 kJ/mol
# Density = 1.878597 g / cm^3
# Si number density = 18.828821 Si / 1000 Ang^3
#
#
#
# Elastic Constant Matrix: (Units=GPa)
#
#
# Indices 1 2 3 4 5 6 
#
# 1 105.9637 45.2987 29.2656 0.0000 0.0000 0.0000
# 2 45.2987 105.9659 29.2654 0.0000 0.0000 0.0000
# 3 29.2656 29.2654 39.0417 0.0000 0.0000 0.0000
# 4 0.0000 0.0000 0.0000 26.5445 0.0000 0.0000
# 5 0.0000 0.0000 0.0000 0.0000 26.5444 0.0000
# 6 0.0000 0.0000 0.0000 0.0000 0.0000 26.4154
#
#
#
# Elastic Compliance Matrix: (Units=1/GPa)
#
#
# Indices 1 2 3 4 5 6 
#
# 1 0.012898 -0.003586 -0.006980 0.000000 0.000000 0.000000
# 2 -0.003586 0.012898 -0.006980 0.000000 0.000000 0.000000
# 3 -0.006980 -0.006980 0.036078 0.000000 0.000000 0.000000
# 4 0.000000 0.000000 0.000000 0.037673 0.000000 0.000000
# 5 0.000000 0.000000 0.000000 0.000000 0.037673 0.000000
# 6 0.000000 0.000000 0.000000 0.000000 0.000000 0.037857
#
#
# Mechanical properties :
#
#
# Convention : Reuss Voigt Hill
#
# Bulk Modulus (GPa) = 37.33934 50.95896 44.14915
# Shear Modulus (GPa) = 22.82107 25.71028 24.26567
#
# Velocity S-wave (km/s) = 3.48520 3.69924 3.59381
# Velocity P-wave (km/s) = 6.00579 6.73565 6.38116
#
# Compressibility (1/GPa) = 0.02678141
#
# Stress axis : x y z
#
# Youngs Moduli (GPa) = 77.53135 77.53366 27.71745
#
# Poissons Ratio (x) = 0.27802 0.19348
# Poissons Ratio (y) = 0.27802 0.19347
# Poissons Ratio (z) = 0.54120 0.54119
#
# Static dielectric constant tensor:
#      x y z
#    x 1.674940 0.000000 0.000000 
#    y 0.000000 1.674940 0.000000 
#    z 0.000000 0.000000 1.637880 
# 
# From -- ./inp_files/6422.got.cif
#   From: 2010.05.17/outbox.cif.g08.bks.cpg/sg121_4_cif.got.tgz:6422.got - 2010.05.20 11:32:06.
