data_PCOD9560666
_publ_section_title
;
Structure prediction by ZEFSAII (Michael W. Deem and Ramdas Pophale) SiO2 
 PCOD9560666
Probable space group: I -4 2 M
;
_chemical_formula_sum "Si O2"
_cell_formula_units_Z 48
_cell_length_a 9.957980
_cell_length_b 9.957980
_cell_length_c 25.112736
_cell_angle_alpha 90.000000
_cell_angle_beta 90.000000
_cell_angle_gamma 90.000000
_cell_volume 2490.213198
_symmetry_space_group_name_H-M "I -4 2 M"
_symmetry_group_IT_number 121
_symmetry_cell_setting 'tetragonal'
loop_
_space_group_symop_operation_xyz
x,y,z
y,-x,-z
-x,-y,z
-y,x,-z
x,-y,-z
-x,y,-z
-y,-x,z
y,x,z
1/2+x,1/2+y,1/2+z
1/2+y,1/2-x,1/2-z
1/2-x,1/2-y,1/2+z
1/2-y,1/2+x,1/2-z
1/2+x,1/2-y,1/2-z
1/2-x,1/2+y,1/2-z
1/2-y,1/2-x,1/2+z
1/2+y,1/2+x,1/2+z
loop_
_atom_site_type_symbol
_atom_site_label
_atom_site_fract_x
_atom_site_fract_y
_atom_site_fract_z
Si Si1 0.494075 0.726062 0.941296
Si Si2 0.094954 0.326267 0.334722
Si Si3 0.007260 0.221636 0.223998
O O1 0.355753 0.644247 0.934426
O O2 0.610789 0.610789 0.942125
O O3 0.521133 0.819117 0.890799
O O4 0.500000 0.790153 0.000000
O O5 0.210649 0.210649 0.337542
O O6 0.169580 0.463285 0.319273
O O7 0.009250 0.285171 0.282874
O O8 0.894273 0.105728 0.223602
O O9 0.149021 0.149021 0.214429
#
# Coordination Sequence:
#
# PCOD9560666 Si02
#       3
#    16  16  16
#     4   8  13  22  39  65  97 130 159 189 230 279
#     4   9  16  26  41  63  94 128 157 188 231 279
#     4   9  17  28  42  63  93 127 160 193 230 275
#
# _framework density 19.275455999999998
#
# number of rings (size 3 to 8) (size 9 to 14) (size 15 to 20)
#    0.000    3.333    0.000    2.000    0.000    4.667 
#    0.000    0.000    0.000    0.000    0.000    4.667 
#    0.000   18.667    0.000   76.333    0.000    3.000 
#
# Total GULP energy -133857.582069 kJ/mol
# GULP energy per Si atom -5577.399253 kJ/mol
# Density = 1.923158 g / cm^3
# Si number density = 19.275456 Si / 1000 Ang^3
#
#
#
# Elastic Constant Matrix: (Units=GPa)
#
#
# Indices 1 2 3 4 5 6 
#
# 1 51.8776 31.4946 62.7313 0.0000 0.0000 0.0000
# 2 31.4946 51.8777 62.7314 0.0000 0.0000 0.0000
# 3 62.7313 62.7314 210.7588 0.0000 0.0000 0.0000
# 4 0.0000 0.0000 0.0000 16.7870 0.0000 0.0000
# 5 0.0000 0.0000 0.0000 0.0000 16.7871 0.0000
# 6 0.0000 0.0000 0.0000 0.0000 0.0000 25.3346
#
#
#
# Elastic Compliance Matrix: (Units=1/GPa)
#
#
# Indices 1 2 3 4 5 6 
#
# 1 0.035393 -0.013667 -0.006466 0.000000 0.000000 0.000000
# 2 -0.013667 0.035393 -0.006467 0.000000 0.000000 0.000000
# 3 -0.006466 -0.006467 0.008594 0.000000 0.000000 0.000000
# 4 0.000000 0.000000 0.000000 0.059570 0.000000 0.000000
# 5 0.000000 0.000000 0.000000 0.000000 0.059569 0.000000
# 6 0.000000 0.000000 0.000000 0.000000 0.000000 0.039472
#
#
# Mechanical properties :
#
#
# Convention : Reuss Voigt Hill
#
# Bulk Modulus (GPa) = 38.19819 69.82539 54.01179
# Shear Modulus (GPa) = 16.67119 22.28553 19.47836
#
# Velocity S-wave (km/s) = 2.94410 3.40393 3.18233
# Velocity P-wave (km/s) = 5.60508 7.19393 6.44863
#
# Compressibility (1/GPa) = 0.02617925
#
# Stress axis : x y z
#
# Youngs Moduli (GPa) = 28.25422 28.25420 116.35758
#
# Poissons Ratio (x) = 0.38616 0.75242
# Poissons Ratio (y) = 0.38616 0.75243
# Poissons Ratio (z) = 0.18271 0.18271
#
# Static dielectric constant tensor:
#      x y z
#    x 1.698860 0.000000 0.000000 
#    y 0.000000 1.698860 0.000000 
#    z 0.000000 0.000000 1.651310 
# 
# From -- ./inp_files/4896.got.cif
#   From: 2010.05.17/outbox.cif.g08.bks.cpg/sg121_3_cif.got.tgz:4896.got - 2010.05.20 11:32:06.
