data_PCOD9560969
_publ_section_title
;
Structure prediction by ZEFSAII (Michael W. Deem and Ramdas Pophale) SiO2 
 PCOD9560969
Probable space group: I -4 2 D
;
_chemical_formula_sum "Si O2"
_cell_formula_units_Z 96
_cell_length_a 15.073332
_cell_length_b 15.073332
_cell_length_c 22.099844
_cell_angle_alpha 90.000000
_cell_angle_beta 90.000000
_cell_angle_gamma 90.000000
_cell_volume 5021.202517
_symmetry_space_group_name_H-M "I -4 2 D"
_symmetry_group_IT_number 122
_symmetry_cell_setting 'tetragonal'
loop_
_space_group_symop_operation_xyz
x,y,z
y,-x,-z
-x,-y,z
-y,x,-z
x,1/2-y,1/4-z
-x,1/2+y,1/4-z
-y,1/2-x,1/4+z
y,1/2+x,1/4+z
1/2+x,1/2+y,1/2+z
1/2+y,1/2-x,1/2-z
1/2-x,1/2-y,1/2+z
1/2-y,1/2+x,1/2-z
1/2+x,-y,3/4-z
1/2-x,y,3/4-z
1/2-y,-x,3/4+z
1/2+y,x,3/4+z
loop_
_atom_site_type_symbol
_atom_site_label
_atom_site_fract_x
_atom_site_fract_y
_atom_site_fract_z
Si Si1 0.585538 0.881092 0.263313
Si Si2 0.242514 0.854844 0.712674
Si Si3 0.500000 0.000000 0.039084
Si Si4 0.843832 0.932023 0.359428
Si Si5 0.872146 0.250000 0.125000
Si Si6 0.039356 0.685359 0.003874
Si Si7 0.231024 0.799173 0.303963
O O1 0.478381 0.881946 0.259799
O O2 0.615032 0.882757 0.332857
O O3 0.631972 0.799432 0.228676
O O4 0.145092 0.828911 0.688879
O O5 0.309892 0.820751 0.660650
O O6 0.254956 0.797038 0.772913
O O7 0.245139 0.959739 0.726699
O O8 0.501576 0.084775 0.082897
O O9 0.413187 0.000485 0.998959
O O10 0.750000 0.974635 0.375000
O O11 0.931158 0.289880 0.071258
O O12 0.128462 0.683429 0.963440
O O13 0.250000 0.798769 0.375000
#
# Coordination Sequence:
#
# PCOD9560969 Si02
#       7
#    16  16   8  16   8  16  16
#     4  11  25  38  60  96 134 174 206 250 320 393
#     4  10  21  44  65  90 122 171 217 261 331 388
#     4  10  24  36  59 102 127 156 216 264 316 376
#     4  11  20  40  61  82 127 172 201 250 308 390
#     4  10  20  46  68  88 128 172 216 282 330 396
#     4  10  24  41  66  96 125 171 221 266 336 396
#     4  11  25  42  64  99 129 166 217 273 322 383
#
# _framework density 19.118925999999998
#
# number of rings (size 3 to 8) (size 9 to 14) (size 15 to 20)
#    0.000    1.500    2.500    2.000   10.500    0.000 
#    6.000    0.000    0.000    4.500    0.000    0.000 
#    0.000    0.000    0.000    0.000    0.000    0.000 
#
# Total GULP energy -267894.108276 kJ/mol
# GULP energy per Si atom -5581.127256 kJ/mol
# Density = 1.907541 g / cm^3
# Si number density = 19.118926 Si / 1000 Ang^3
#
#
#
# Elastic Constant Matrix: (Units=GPa)
#
#
# Indices 1 2 3 4 5 6 
#
# 1 118.3779 56.1740 49.2312 0.0000 0.0000 0.0000
# 2 56.1740 118.3779 49.2312 0.0000 0.0000 0.0000
# 3 49.2312 49.2312 127.8587 0.0000 0.0000 0.0000
# 4 0.0000 0.0000 0.0000 22.1562 0.0000 0.0000
# 5 0.0000 0.0000 0.0000 0.0000 22.1562 0.0000
# 6 0.0000 0.0000 0.0000 0.0000 0.0000 27.3164
#
#
#
# Elastic Compliance Matrix: (Units=1/GPa)
#
#
# Indices 1 2 3 4 5 6 
#
# 1 0.011697 -0.004379 -0.002818 0.000000 0.000000 0.000000
# 2 -0.004379 0.011697 -0.002818 0.000000 0.000000 0.000000
# 3 -0.002818 -0.002818 0.009991 0.000000 0.000000 0.000000
# 4 0.000000 0.000000 0.000000 0.045134 0.000000 0.000000
# 5 0.000000 0.000000 0.000000 0.000000 0.045134 0.000000
# 6 0.000000 0.000000 0.000000 0.000000 0.000000 0.036608
#
#
# Mechanical properties :
#
#
# Convention : Reuss Voigt Hill
#
# Bulk Modulus (GPa) = 74.87024 74.87638 74.87331
# Shear Modulus (GPa) = 27.06453 28.32431 27.69442
#
# Velocity S-wave (km/s) = 3.76651 3.85318 3.81009
# Velocity P-wave (km/s) = 7.62632 7.68404 7.65523
#
# Compressibility (1/GPa) = 0.01335644
#
# Stress axis : x y z
#
# Youngs Moduli (GPa) = 85.48944 85.48944 100.08804
#
# Poissons Ratio (x) = 0.37434 0.28204
# Poissons Ratio (y) = 0.37434 0.28204
# Poissons Ratio (z) = 0.24091 0.24091
#
# Static dielectric constant tensor:
#      x y z
#    x 1.700510 0.000000 0.000000 
#    y 0.000000 1.700510 0.000000 
#    z 0.000000 0.000000 1.667300 
# 
# From -- ./inp_files/7336.got.cif
#   From: 2010.05.17/outbox.cif.g08.bks.cpg/sg122_4_cif.got.tgz:7336.got - 2010.05.20 11:37:33.
