data_PCOD9560892
_publ_section_title
;
Structure prediction by ZEFSAII (Michael W. Deem and Ramdas Pophale) SiO2 
 PCOD9560892
Probable space group: I -4 2 D
;
_chemical_formula_sum "Si O2"
_cell_formula_units_Z 72
_cell_length_a 11.553150
_cell_length_b 11.553150
_cell_length_c 25.742795
_cell_angle_alpha 90.000000
_cell_angle_beta 90.000000
_cell_angle_gamma 90.000000
_cell_volume 3436.026640
_symmetry_space_group_name_H-M "I -4 2 D"
_symmetry_group_IT_number 122
_symmetry_cell_setting 'tetragonal'
loop_
_space_group_symop_operation_xyz
x,y,z
y,-x,-z
-x,-y,z
-y,x,-z
x,1/2-y,1/4-z
-x,1/2+y,1/4-z
-y,1/2-x,1/4+z
y,1/2+x,1/4+z
1/2+x,1/2+y,1/2+z
1/2+y,1/2-x,1/2-z
1/2-x,1/2-y,1/2+z
1/2-y,1/2+x,1/2-z
1/2+x,-y,3/4-z
1/2-x,y,3/4-z
1/2-y,-x,3/4+z
1/2+y,x,3/4+z
loop_
_atom_site_type_symbol
_atom_site_label
_atom_site_fract_x
_atom_site_fract_y
_atom_site_fract_z
Si Si1 0.245325 0.077739 0.468354
Si Si2 0.477211 0.682438 0.489827
Si Si3 0.690293 0.362135 0.716798
Si Si4 0.420631 0.196864 0.390904
Si Si5 0.500000 0.000000 0.328281
O O1 0.209988 0.202122 0.491594
O O2 0.328837 0.112482 0.420341
O O3 0.120290 0.024282 0.451632
O O4 0.306476 0.987745 0.506543
O O5 0.584431 0.619889 0.517405
O O6 0.423523 0.789478 0.521344
O O7 0.523849 0.726312 0.435082
O O8 0.725162 0.371066 0.656139
O O9 0.512850 0.112944 0.363647
#
# Coordination Sequence:
#
# PCOD9560892 Si02
#       5
#    16  16  16  16   8
#     4  11  22  40  69 105 141 173 221 291 351 424
#     4  11  25  46  69  90 137 185 236 293 330 408
#     4  11  22  42  72 101 139 178 228 286 360 411
#     4  11  23  43  69 103 136 187 228 285 355 415
#     4  10  20  37  70 104 142 166 212 280 363 414
#
# _framework density 20.954438
#
# number of rings (size 3 to 8) (size 9 to 14) (size 15 to 20)
#    0.000    1.111    2.222    6.667    0.000    0.889 
#    0.000   10.000    4.889    0.000    0.000    0.000 
#    0.000    0.000    0.000    0.000    0.000    0.000 
#
# Total GULP energy -200981.741235 kJ/mol
# GULP energy per Si atom -5582.826145 kJ/mol
# Density = 2.090674 g / cm^3
# Si number density = 20.954438 Si / 1000 Ang^3
#
#
#
# Elastic Constant Matrix: (Units=GPa)
#
#
# Indices 1 2 3 4 5 6 
#
# 1 88.3677 64.2735 69.0220 0.0000 0.0000 0.0000
# 2 64.2735 88.3677 69.0220 0.0000 0.0000 0.0000
# 3 69.0220 69.0220 124.2218 0.0000 0.0000 0.0000
# 4 0.0000 0.0000 0.0000 21.6111 0.0000 0.0000
# 5 0.0000 0.0000 0.0000 0.0000 21.6111 0.0000
# 6 0.0000 0.0000 0.0000 0.0000 0.0000 44.0559
#
#
#
# Elastic Compliance Matrix: (Units=1/GPa)
#
#
# Indices 1 2 3 4 5 6 
#
# 1 0.027336 -0.014168 -0.007317 0.000000 0.000000 0.000000
# 2 -0.014168 0.027336 -0.007317 0.000000 0.000000 0.000000
# 3 -0.007317 -0.007317 0.016181 0.000000 0.000000 0.000000
# 4 0.000000 0.000000 0.000000 0.046272 0.000000 0.000000
# 5 0.000000 0.000000 0.000000 0.000000 0.046272 0.000000
# 6 0.000000 0.000000 0.000000 0.000000 0.000000 0.022698
#
#
# Mechanical properties :
#
#
# Convention : Reuss Voigt Hill
#
# Bulk Modulus (GPa) = 75.46826 78.39911 76.93369
# Shear Modulus (GPa) = 20.15183 24.03161 22.09172
#
# Velocity S-wave (km/s) = 3.10449 3.39019 3.25048
# Velocity P-wave (km/s) = 6.99600 7.26773 7.13316
#
# Compressibility (1/GPa) = 0.01325060
#
# Stress axis : x y z
#
# Youngs Moduli (GPa) = 36.58160 36.58160 61.80049
#
# Poissons Ratio (x) = 0.51828 0.45218
# Poissons Ratio (y) = 0.51828 0.45218
# Poissons Ratio (z) = 0.26766 0.26766
#
# Static dielectric constant tensor:
#      x y z
#    x 1.788290 0.000000 0.000000 
#    y 0.000000 1.788290 0.000000 
#    z 0.000000 0.000000 1.770860 
# 
# From -- ./inp_files/8649.got.cif
#   From: 2010.05.17/outbox.cif.g08.bks.cpg/sg122_5_cif.got.tgz:8649.got - 2010.05.20 11:37:33.
