data_PCOD9560180
_publ_section_title
;
Structure prediction by ZEFSAII (Michael W. Deem and Ramdas Pophale) SiO2 
 PCOD9560180
Probable space group: I -4 2 M
;
_chemical_formula_sum "Si O2"
_cell_formula_units_Z 80
_cell_length_a 19.378338
_cell_length_b 19.378338
_cell_length_c 13.437675
_cell_angle_alpha 90.000000
_cell_angle_beta 90.000000
_cell_angle_gamma 90.000000
_cell_volume 5046.115496
_symmetry_space_group_name_H-M "I -4 2 M"
_symmetry_group_IT_number 121
_symmetry_cell_setting 'tetragonal'
loop_
_space_group_symop_operation_xyz
x,y,z
y,-x,-z
-x,-y,z
-y,x,-z
x,-y,-z
-x,y,-z
-y,-x,z
y,x,z
1/2+x,1/2+y,1/2+z
1/2+y,1/2-x,1/2-z
1/2-x,1/2-y,1/2+z
1/2-y,1/2+x,1/2-z
1/2+x,1/2-y,1/2-z
1/2-x,1/2+y,1/2-z
1/2-y,1/2-x,1/2+z
1/2+y,1/2+x,1/2+z
loop_
_atom_site_type_symbol
_atom_site_label
_atom_site_fract_x
_atom_site_fract_y
_atom_site_fract_z
Si Si1 0.636319 0.245621 0.677960
Si Si2 0.841315 0.047523 0.689568
Si Si3 0.853201 0.968473 0.891558
Si Si4 0.787561 0.094472 0.389541
Si Si5 0.644836 0.238826 0.093130
O O1 0.699204 0.300797 0.681372
O O2 0.576322 0.283151 0.615847
O O3 0.609341 0.242004 0.791203
O O4 0.667011 0.176602 0.629906
O O5 0.907719 0.092282 0.656225
O O6 0.775722 0.097405 0.675397
O O7 0.851454 0.023794 0.803012
O O8 0.824653 0.979001 0.626526
O O9 0.915823 0.915823 0.870314
O O10 0.861913 0.000000 0.000000
O O11 0.848285 0.151716 0.391663
O O12 0.743368 0.103249 0.489639
O O13 0.709962 0.290039 0.077707
#
# Coordination Sequence:
#
# PCOD9560180 Si02
#       5
#    16  16  16  16  16
#     4   8  16  30  45  62  86 116 151 193 234 268
#     4  10  19  29  43  65  93 123 156 189 220 269
#     4  10  20  32  46  66  94 127 160 192 228 276
#     4   9  17  29  44  63  90 121 151 184 224 275
#     4   9  17  29  45  64  86 116 153 192 233 268
#
# _framework density 15.853778999999999
#
# number of rings (size 3 to 8) (size 9 to 14) (size 15 to 20)
#    0.000    2.800    0.000    3.000    0.000    4.200 
#    0.000    7.000    0.000    7.200    0.000    0.000 
#    0.000   41.600    0.000    0.000    0.000    0.000 
#
# Total GULP energy -222705.177466 kJ/mol
# GULP energy per Si atom -5567.629437 kJ/mol
# Density = 1.581770 g / cm^3
# Si number density = 15.853779 Si / 1000 Ang^3
#
#
#
# Elastic Constant Matrix: (Units=GPa)
#
#
# Indices 1 2 3 4 5 6 
#
# 1 39.8774 46.1486 24.0038 0.0000 0.0000 0.0000
# 2 46.1486 39.8793 24.0037 0.0000 0.0000 0.0000
# 3 24.0038 24.0037 63.4986 0.0000 0.0000 0.0000
# 4 0.0000 0.0000 0.0000 14.3785 0.0000 0.0000
# 5 0.0000 0.0000 0.0000 0.0000 14.3790 0.0000
# 6 0.0000 0.0000 0.0000 0.0000 0.0000 28.4033
#
#
#
# Elastic Compliance Matrix: (Units=1/GPa)
#
#
# Indices 1 2 3 4 5 6 
#
# 1 -0.072377 0.087107 -0.005568 0.000000 0.000000 0.000000
# 2 0.087107 -0.072372 -0.005570 0.000000 0.000000 0.000000
# 3 -0.005568 -0.005570 0.019959 0.000000 0.000000 0.000000
# 4 0.000000 0.000000 0.000000 0.069548 0.000000 0.000000
# 5 0.000000 0.000000 0.000000 0.000000 0.069546 0.000000
# 6 0.000000 0.000000 0.000000 0.000000 0.000000 0.035207
#
#
# Mechanical properties :
#
#
# Convention : Reuss Voigt Hill
#
# Bulk Modulus (GPa) = 36.83670 36.84084 36.83877
# Shear Modulus (GPa) = -53.54578 14.70544 -19.42017
#
# Velocity S-wave (km/s) = -5.81791 3.04890 -3.50373
# Velocity P-wave (km/s) = 4.67387 5.97350 2.63037
#
# Compressibility (1/GPa) = 0.02714684
#
# Stress axis : x y z
#
# Youngs Moduli (GPa) = -13.81652 -13.81744 50.10330
#
# Poissons Ratio (x) = 1.20359 0.27897
# Poissons Ratio (y) = 1.20351 0.27908
# Poissons Ratio (z) = -0.07693 -0.07697
#
# Static dielectric constant tensor:
#      x y z
#    x 1.528930 0.000000 0.000000 
#    y 0.000000 1.528930 0.000000 
#    z 0.000000 0.000000 1.550880 
# 
# From -- ./inp_files/4271.got.cif
#   From: 2010.05.17/outbox.cif.g08.bks.cpg/sg121_3_cif.got.tgz:4271.got - 2010.05.20 11:32:06.
