data_PCOD9560793
_publ_section_title
;
Structure prediction by ZEFSAII (Michael W. Deem and Ramdas Pophale) SiO2 
 PCOD9560793
Probable space group: I -4 2 D
;
_chemical_formula_sum "Si O2"
_cell_formula_units_Z 64
_cell_length_a 17.254945
_cell_length_b 17.254945
_cell_length_c 11.038838
_cell_angle_alpha 90.000000
_cell_angle_beta 90.000000
_cell_angle_gamma 90.000000
_cell_volume 3286.627756
_symmetry_space_group_name_H-M "I -4 2 D"
_symmetry_group_IT_number 122
_symmetry_cell_setting 'tetragonal'
loop_
_space_group_symop_operation_xyz
x,y,z
y,-x,-z
-x,-y,z
-y,x,-z
x,1/2-y,1/4-z
-x,1/2+y,1/4-z
-y,1/2-x,1/4+z
y,1/2+x,1/4+z
1/2+x,1/2+y,1/2+z
1/2+y,1/2-x,1/2-z
1/2-x,1/2-y,1/2+z
1/2-y,1/2+x,1/2-z
1/2+x,-y,3/4-z
1/2-x,y,3/4-z
1/2-y,-x,3/4+z
1/2+y,x,3/4+z
loop_
_atom_site_type_symbol
_atom_site_label
_atom_site_fract_x
_atom_site_fract_y
_atom_site_fract_z
Si Si1 0.837732 0.221741 0.752191
Si Si2 0.394036 0.574680 0.357148
Si Si3 0.338047 0.716000 0.748396
Si Si4 0.395253 0.925332 0.608477
O O1 0.872515 0.250000 0.625000
O O2 0.842259 0.129674 0.773860
O O3 0.748968 0.250782 0.750389
O O4 0.874385 0.258589 0.874221
O O5 0.375608 0.586737 0.499557
O O6 0.483007 0.601623 0.338298
O O7 0.394015 0.482803 0.336113
O O8 0.375570 0.750000 0.625000
O O9 0.339917 0.624296 0.726872
#
# Coordination Sequence:
#
# PCOD9560793 Si02
#       4
#    16  16  16  16
#     4  10  21  37  53  82 124 153 190 239 286 345
#     4   9  18  37  61  90 115 143 197 253 294 338
#     4  10  19  37  55  81 116 153 197 232 282 348
#     4   9  18  36  64  88 112 148 197 250 292 343
#
# _framework density 19.472847000000002
#
# number of rings (size 3 to 8) (size 9 to 14) (size 15 to 20)
#    0.000    2.500    2.500    1.500    0.000    0.000 
#   18.000    0.000    0.000    3.000    0.000    0.000 
#    0.000    0.000    0.000    0.000    0.000    0.000 
#
# Total GULP energy -178274.420390 kJ/mol
# GULP energy per Si atom -5571.075637 kJ/mol
# Density = 1.942853 g / cm^3
# Si number density = 19.472847 Si / 1000 Ang^3
#
#
#
# Elastic Constant Matrix: (Units=GPa)
#
#
# Indices 1 2 3 4 5 6 
#
# 1 64.4881 33.9453 15.5631 0.0000 0.0000 0.0000
# 2 33.9453 64.4881 15.5631 0.0000 0.0000 0.0000
# 3 15.5631 15.5631 120.4778 0.0000 0.0000 0.0000
# 4 0.0000 0.0000 0.0000 24.8750 0.0000 0.0000
# 5 0.0000 0.0000 0.0000 0.0000 24.8750 0.0000
# 6 0.0000 0.0000 0.0000 0.0000 0.0000 39.8569
#
#
#
# Elastic Compliance Matrix: (Units=1/GPa)
#
#
# Indices 1 2 3 4 5 6 
#
# 1 0.021666 -0.011075 -0.001368 0.000000 0.000000 0.000000
# 2 -0.011075 0.021666 -0.001368 0.000000 0.000000 0.000000
# 3 -0.001368 -0.001368 0.008654 0.000000 0.000000 0.000000
# 4 0.000000 0.000000 0.000000 0.040201 0.000000 0.000000
# 5 0.000000 0.000000 0.000000 0.000000 0.040201 0.000000
# 6 0.000000 0.000000 0.000000 0.000000 0.000000 0.025090
#
#
# Mechanical properties :
#
#
# Convention : Reuss Voigt Hill
#
# Bulk Modulus (GPa) = 41.04335 42.17743 41.61039
# Shear Modulus (GPa) = 25.87701 30.21357 28.04529
#
# Velocity S-wave (km/s) = 3.64933 3.94328 3.79915
# Velocity P-wave (km/s) = 6.23537 6.51454 6.37648
#
# Compressibility (1/GPa) = 0.02436448
#
# Stress axis : x y z
#
# Youngs Moduli (GPa) = 46.15443 46.15443 115.55653
#
# Poissons Ratio (x) = 0.51114 0.15811
# Poissons Ratio (y) = 0.51114 0.15811
# Poissons Ratio (z) = 0.06315 0.06315
#
# Static dielectric constant tensor:
#      x y z
#    x 1.719390 0.000000 0.000000 
#    y 0.000000 1.719390 0.000000 
#    z 0.000000 0.000000 1.743340 
# 
# From -- ./inp_files/4059.got.cif
#   From: 2010.05.17/outbox.cif.g08.bks.cpg/sg122_3_cif.got.tgz:4059.got - 2010.05.20 11:37:33.
