data_PCOD9560781
_publ_section_title
;
Structure prediction by ZEFSAII (Michael W. Deem and Ramdas Pophale) SiO2 
 PCOD9560781
Probable space group: I -4 2 D
;
_chemical_formula_sum "Si O2"
_cell_formula_units_Z 96
_cell_length_a 17.585215
_cell_length_b 17.585215
_cell_length_c 16.954948
_cell_angle_alpha 90.000000
_cell_angle_beta 90.000000
_cell_angle_gamma 90.000000
_cell_volume 5243.144501
_symmetry_space_group_name_H-M "I -4 2 D"
_symmetry_group_IT_number 122
_symmetry_cell_setting 'tetragonal'
loop_
_space_group_symop_operation_xyz
x,y,z
y,-x,-z
-x,-y,z
-y,x,-z
x,1/2-y,1/4-z
-x,1/2+y,1/4-z
-y,1/2-x,1/4+z
y,1/2+x,1/4+z
1/2+x,1/2+y,1/2+z
1/2+y,1/2-x,1/2-z
1/2-x,1/2-y,1/2+z
1/2-y,1/2+x,1/2-z
1/2+x,-y,3/4-z
1/2-x,y,3/4-z
1/2-y,-x,3/4+z
1/2+y,x,3/4+z
loop_
_atom_site_type_symbol
_atom_site_label
_atom_site_fract_x
_atom_site_fract_y
_atom_site_fract_z
Si Si1 0.214602 0.300569 0.046325
Si Si2 0.081032 0.311749 0.567018
Si Si3 0.470570 0.584088 0.903166
Si Si4 0.884117 0.663475 0.907039
Si Si5 0.686643 0.803594 0.929580
Si Si6 0.937062 0.296193 0.724083
O O1 0.202340 0.250000 0.125000
O O2 0.140356 0.328518 0.997932
O O3 0.259631 0.247155 0.985400
O O4 0.263938 0.378429 0.040650
O O5 0.121567 0.250000 0.625000
O O6 0.073833 0.386702 0.618168
O O7 0.128808 0.339194 0.491568
O O8 0.004650 0.264981 0.541643
O O9 0.500000 0.500000 0.908179
O O10 0.531250 0.632526 0.851883
O O11 0.470602 0.629710 0.984629
O O12 0.866678 0.745994 0.869817
O O13 0.828251 0.608871 0.853086
O O14 0.750000 0.844867 0.875000
#
# Coordination Sequence:
#
# PCOD9560781 Si02
#       6
#    16  16  16  16  16  16
#     4  10  19  35  58  81 112 154 202 244 288 351
#     4  12  22  37  56  83 122 154 197 241 295 368
#     4  12  25  34  55  86 124 159 192 230 307 379
#     4  10  21  37  52  84 120 151 193 240 296 363
#     4   9  18  35  57  79 108 146 191 244 291 338
#     4  11  22  36  55  83 124 160 194 242 303 370
#
# _framework density 18.309623999999999
#
# number of rings (size 3 to 8) (size 9 to 14) (size 15 to 20)
#    0.000    1.333    1.667    8.000    2.333    0.000 
#    0.000    0.833    0.000    0.000    0.000    0.000 
#    0.000    0.000    0.000    0.000    0.000    0.000 
#
# Total GULP energy -267244.377311 kJ/mol
# GULP energy per Si atom -5567.591194 kJ/mol
# Density = 1.826795 g / cm^3
# Si number density = 18.309624 Si / 1000 Ang^3
#
#
#
# Elastic Constant Matrix: (Units=GPa)
#
#
# Indices 1 2 3 4 5 6 
#
# 1 93.3814 27.8061 46.0009 0.0000 0.0000 0.0000
# 2 27.8061 93.3814 46.0009 0.0000 0.0000 0.0000
# 3 46.0009 46.0009 89.6254 0.0000 0.0000 0.0000
# 4 0.0000 0.0000 0.0000 34.8659 0.0000 0.0000
# 5 0.0000 0.0000 0.0000 0.0000 34.8659 0.0000
# 6 0.0000 0.0000 0.0000 0.0000 0.0000 14.9519
#
#
#
# Elastic Compliance Matrix: (Units=1/GPa)
#
#
# Indices 1 2 3 4 5 6 
#
# 1 0.014385 -0.000865 -0.006939 0.000000 0.000000 0.000000
# 2 -0.000865 0.014385 -0.006939 0.000000 0.000000 0.000000
# 3 -0.006939 -0.006939 0.018281 0.000000 0.000000 0.000000
# 4 0.000000 0.000000 0.000000 0.028681 0.000000 0.000000
# 5 0.000000 0.000000 0.000000 0.000000 0.028681 0.000000
# 6 0.000000 0.000000 0.000000 0.000000 0.000000 0.066881
#
#
# Mechanical properties :
#
#
# Convention : Reuss Voigt Hill
#
# Bulk Modulus (GPa) = 56.93592 57.33381 57.13487
# Shear Modulus (GPa) = 24.19734 27.37541 25.78638
#
# Velocity S-wave (km/s) = 3.63928 3.87090 3.75687
# Velocity P-wave (km/s) = 6.98733 7.16658 7.07752
#
# Compressibility (1/GPa) = 0.01756360
#
# Stress axis : x y z
#
# Youngs Moduli (GPa) = 69.51879 69.51879 54.70291
#
# Poissons Ratio (x) = 0.06014 0.37958
# Poissons Ratio (y) = 0.06014 0.37958
# Poissons Ratio (z) = 0.48239 0.48239
#
# Static dielectric constant tensor:
#      x y z
#    x 1.688890 0.000000 0.000000 
#    y 0.000000 1.688890 0.000000 
#    z 0.000000 0.000000 1.702130 
# 
# From -- ./inp_files/6303.got.cif
#   From: 2010.05.17/outbox.cif.g08.bks.cpg/sg122_4_cif.got.tgz:6303.got - 2010.05.20 11:37:33.
