data_PCOD9560663
_publ_section_title
;
Structure prediction by ZEFSAII (Michael W. Deem and Ramdas Pophale) SiO2 
 PCOD9560663
Probable space group: I -4 2 M
;
_chemical_formula_sum "Si O2"
_cell_formula_units_Z 80
_cell_length_a 9.390031
_cell_length_b 9.390031
_cell_length_c 36.606961
_cell_angle_alpha 90.000000
_cell_angle_beta 90.000000
_cell_angle_gamma 90.000000
_cell_volume 3227.733938
_symmetry_space_group_name_H-M "I -4 2 M"
_symmetry_group_IT_number 121
_symmetry_cell_setting 'tetragonal'
loop_
_space_group_symop_operation_xyz
x,y,z
y,-x,-z
-x,-y,z
-y,x,-z
x,-y,-z
-x,y,-z
-y,-x,z
y,x,z
1/2+x,1/2+y,1/2+z
1/2+y,1/2-x,1/2-z
1/2-x,1/2-y,1/2+z
1/2-y,1/2+x,1/2-z
1/2+x,1/2-y,1/2-z
1/2-x,1/2+y,1/2-z
1/2-y,1/2-x,1/2+z
1/2+y,1/2+x,1/2+z
loop_
_atom_site_type_symbol
_atom_site_label
_atom_site_fract_x
_atom_site_fract_y
_atom_site_fract_z
Si Si1 0.823518 0.416782 0.962839
Si Si2 0.006238 0.230748 0.775140
Si Si3 0.264885 0.508421 0.582885
Si Si4 0.937981 0.693618 0.616125
Si Si5 0.441462 0.804710 0.805635
O O1 0.692401 0.307600 0.965484
O O2 0.963264 0.321615 0.953580
O O3 0.800841 0.504480 0.924588
O O4 0.831186 0.500000 0.000000
O O5 0.895210 0.104791 0.782193
O O6 0.953242 0.357173 0.800584
O O7 0.983162 0.277428 0.732964
O O8 0.160996 0.160996 0.780036
O O9 0.339511 0.660490 0.585103
O O10 0.393624 0.393624 0.584675
O O11 0.155333 0.452928 0.613866
O O12 0.822190 0.822190 0.615594
O O13 0.014152 0.705819 0.654879
O O14 0.320702 0.679299 0.806050
#
# Coordination Sequence:
#
# PCOD9560663 Si02
#       5
#    16  16  16  16  16
#     4   8  14  23  35  56  91 135 184 233 281 334
#     4   9  18  30  46  69  99 140 183 231 291 342
#     4   7  11  20  35  56  83 122 176 234 289 337
#     4   7  13  23  38  58  88 132 179 229 281 327
#     4   9  16  29  45  66 100 137 186 239 281 340
#
# _framework density 24.785191999999999
#
# number of rings (size 3 to 8) (size 9 to 14) (size 15 to 20)
#    1.200    2.800    0.000    0.000    0.000    1.400 
#    0.000    5.000    0.000    3.600    0.000    0.000 
#    0.000    3.600    0.000   14.600    0.000   29.200 
#
# Total GULP energy -222950.583927 kJ/mol
# GULP energy per Si atom -5573.764598 kJ/mol
# Density = 2.472878 g / cm^3
# Si number density = 24.785192 Si / 1000 Ang^3
#
#
#
# Elastic Constant Matrix: (Units=GPa)
#
#
# Indices 1 2 3 4 5 6 
#
# 1 71.5423 9.3696 24.6728 0.0000 0.0000 0.0000
# 2 9.3696 71.5428 24.6721 0.0000 0.0000 0.0000
# 3 24.6728 24.6721 154.4625 0.0000 0.0000 0.0000
# 4 0.0000 0.0000 0.0000 18.3596 0.0000 0.0000
# 5 0.0000 0.0000 0.0000 0.0000 18.3590 0.0000
# 6 0.0000 0.0000 0.0000 0.0000 0.0000 27.9452
#
#
#
# Elastic Compliance Matrix: (Units=1/GPa)
#
#
# Indices 1 2 3 4 5 6 
#
# 1 0.014889 -0.001196 -0.002187 0.000000 0.000000 0.000000
# 2 -0.001196 0.014888 -0.002187 0.000000 0.000000 0.000000
# 3 -0.002187 -0.002187 0.007173 0.000000 0.000000 0.000000
# 4 0.000000 0.000000 0.000000 0.054468 0.000000 0.000000
# 5 0.000000 0.000000 0.000000 0.000000 0.054469 0.000000
# 6 0.000000 0.000000 0.000000 0.000000 0.000000 0.035784
#
#
# Mechanical properties :
#
#
# Convention : Reuss Voigt Hill
#
# Bulk Modulus (GPa) = 38.74474 46.10850 42.42662
# Shear Modulus (GPa) = 24.82446 28.85496 26.83971
#
# Velocity S-wave (km/s) = 3.16822 3.41574 3.29430
# Velocity P-wave (km/s) = 5.38977 5.84808 5.62359
#
# Compressibility (1/GPa) = 0.02580996
#
# Stress axis : x y z
#
# Youngs Moduli (GPa) = 67.16532 67.16603 139.41586
#
# Poissons Ratio (x) = 0.08030 0.30494
# Poissons Ratio (y) = 0.08030 0.30492
# Poissons Ratio (z) = 0.14691 0.14690
#
# Static dielectric constant tensor:
#      x y z
#    x 2.037030 0.000000 0.000000 
#    y 0.000000 2.037040 0.000000 
#    z 0.000000 0.000000 1.910000 
# 
# From -- ./inp_files/8075.got.cif
#   From: 2010.05.17/outbox.cif.g08.bks.cpg/sg121_5_cif.got.tgz:8075.got - 2010.05.20 11:32:06.
