data_PCOD9560909
_publ_section_title
;
Structure prediction by ZEFSAII (Michael W. Deem and Ramdas Pophale) SiO2 
 PCOD9560909
Probable space group: I -4 2 D
;
_chemical_formula_sum "Si O2"
_cell_formula_units_Z 60
_cell_length_a 11.190754
_cell_length_b 11.190754
_cell_length_c 22.398844
_cell_angle_alpha 90.000000
_cell_angle_beta 90.000000
_cell_angle_gamma 90.000000
_cell_volume 2805.073873
_symmetry_space_group_name_H-M "I -4 2 D"
_symmetry_group_IT_number 122
_symmetry_cell_setting 'tetragonal'
loop_
_space_group_symop_operation_xyz
x,y,z
y,-x,-z
-x,-y,z
-y,x,-z
x,1/2-y,1/4-z
-x,1/2+y,1/4-z
-y,1/2-x,1/4+z
y,1/2+x,1/4+z
1/2+x,1/2+y,1/2+z
1/2+y,1/2-x,1/2-z
1/2-x,1/2-y,1/2+z
1/2-y,1/2+x,1/2-z
1/2+x,-y,3/4-z
1/2-x,y,3/4-z
1/2-y,-x,3/4+z
1/2+y,x,3/4+z
loop_
_atom_site_type_symbol
_atom_site_label
_atom_site_fract_x
_atom_site_fract_y
_atom_site_fract_z
Si Si1 0.522027 0.136075 0.086196
Si Si2 0.250000 0.252538 0.375000
Si Si3 0.888429 0.777965 0.055521
Si Si4 0.500000 0.000000 0.750000
Si Si5 0.160724 0.385094 0.485695
O O1 0.473611 0.250000 0.125000
O O2 0.662860 0.163471 0.089034
O O3 0.500000 0.000000 0.109290
O O4 0.457415 0.141963 0.022792
O O5 0.172234 0.328956 0.420315
O O6 0.870094 0.750000 0.125000
O O7 0.974002 0.891341 0.043897
O O8 0.973100 0.679021 0.024324
O O9 0.766280 0.820664 0.024138
#
# Coordination Sequence:
#
# PCOD9560909 Si02
#       5
#    16   8  16   4  16
#     4  10  24  45  67  98 143 183 232 282 349 430
#     4  10  24  42  64 100 136 174 230 290 332 432
#     4  10  20  38  66  89 125 164 217 272 330 384
#     4   8  20  36  52  96 120 152 208 268 302 392
#     4  11  21  43  66  96 130 175 225 281 341 404
#
# _framework density 21.389811999999999
#
# number of rings (size 3 to 8) (size 9 to 14) (size 15 to 20)
#    0.800    1.067    1.333    2.400    0.000    2.133 
#    7.200    0.000    0.000    0.000    0.000    0.000 
#    0.000    0.000    0.000    0.000    0.000    0.000 
#
# Total GULP energy -167171.136083 kJ/mol
# GULP energy per Si atom -5572.371203 kJ/mol
# Density = 2.134113 g / cm^3
# Si number density = 21.389812 Si / 1000 Ang^3
#
#
#
# Elastic Constant Matrix: (Units=GPa)
#
#
# Indices 1 2 3 4 5 6 
#
# 1 111.8032 32.3687 59.7072 0.0000 0.0000 0.0000
# 2 32.3687 111.8032 59.7072 0.0000 0.0000 0.0000
# 3 59.7072 59.7072 156.4503 0.0000 0.0000 0.0000
# 4 0.0000 0.0000 0.0000 31.4284 0.0000 0.0000
# 5 0.0000 0.0000 0.0000 0.0000 31.4284 0.0000
# 6 0.0000 0.0000 0.0000 0.0000 0.0000 8.1709
#
#
#
# Elastic Compliance Matrix: (Units=1/GPa)
#
#
# Indices 1 2 3 4 5 6 
#
# 1 0.011366 -0.001223 -0.003871 0.000000 0.000000 0.000000
# 2 -0.001223 0.011366 -0.003871 0.000000 0.000000 0.000000
# 3 -0.003871 -0.003871 0.009346 0.000000 0.000000 0.000000
# 4 0.000000 0.000000 0.000000 0.031818 0.000000 0.000000
# 5 0.000000 0.000000 0.000000 0.000000 0.031818 0.000000
# 6 0.000000 0.000000 0.000000 0.000000 0.000000 0.122385
#
#
# Mechanical properties :
#
#
# Convention : Reuss Voigt Hill
#
# Bulk Modulus (GPa) = 70.68172 75.95811 73.31991
# Shear Modulus (GPa) = 20.76894 29.42381 25.09637
#
# Velocity S-wave (km/s) = 3.11942 3.71293 3.42904
# Velocity P-wave (km/s) = 6.78901 7.34640 7.07320
#
# Compressibility (1/GPa) = 0.01414793
#
# Stress axis : x y z
#
# Youngs Moduli (GPa) = 87.98529 87.98529 106.99617
#
# Poissons Ratio (x) = 0.10764 0.41414
# Poissons Ratio (y) = 0.10764 0.41414
# Poissons Ratio (z) = 0.34056 0.34056
#
# Static dielectric constant tensor:
#      x y z
#    x 1.811070 0.000000 0.000000 
#    y 0.000000 1.811070 0.000000 
#    z 0.000000 0.000000 1.780160 
# 
# From -- ./inp_files/6989.got.cif
#   From: 2010.05.17/outbox.cif.g08.bks.cpg/sg122_4_cif.got.tgz:6989.got - 2010.05.20 11:37:33.
