data_PCOD9560060
_publ_section_title
;
Structure prediction by ZEFSAII (Michael W. Deem and Ramdas Pophale) SiO2 
 PCOD9560060
Probable space group: I -4 C 2
;
_chemical_formula_sum "Si O2"
_cell_formula_units_Z 52
_cell_length_a 18.038381
_cell_length_b 18.038381
_cell_length_c 8.175814
_cell_angle_alpha 90.000000
_cell_angle_beta 90.000000
_cell_angle_gamma 90.000000
_cell_volume 2660.272433
_symmetry_space_group_name_H-M "I -4 C 2"
_symmetry_group_IT_number 120
_symmetry_cell_setting 'tetragonal'
loop_
_space_group_symop_operation_xyz
x,y,z
y,-x,-z
-x,-y,z
-y,x,-z
y,x,1/2-z
-y,-x,1/2-z
-x,y,1/2+z
x,-y,1/2+z
1/2+x,1/2+y,1/2+z
1/2+y,1/2-x,1/2-z
1/2-x,1/2-y,1/2+z
1/2-y,1/2+x,1/2-z
1/2+y,1/2+x,-z
1/2-y,1/2-x,-z
1/2-x,1/2+y,z
1/2+x,1/2-y,z
loop_
_atom_site_type_symbol
_atom_site_label
_atom_site_fract_x
_atom_site_fract_y
_atom_site_fract_z
Si Si1 0.500000 0.000000 0.750000
Si Si2 0.304810 0.695191 0.250000
Si Si3 0.275649 0.101775 0.461563
Si Si4 0.831605 0.331605 0.000000
Si Si5 0.164007 0.529459 0.758941
O O1 0.520960 0.081492 0.821944
O O2 0.369557 0.700147 0.116804
O O3 0.230262 0.684897 0.140357
O O4 0.326680 0.173321 0.500000
O O5 0.276533 0.055570 0.626717
O O6 0.315306 0.049558 0.330731
O O7 0.910224 0.332004 0.095388
#
# Coordination Sequence:
#
# PCOD9560060 Si02
#       5
#     4   8  16   8  16
#     4  12  20  34  52  82 136 166 192 246 304 366
#     4  12  22  42  58  80 122 176 222 270 330 356
#     4  12  23  39  57  86 121 171 214 261 309 372
#     4  12  22  37  60  84 124 169 220 272 310 386
#     4  12  24  36  57  92 126 170 216 253 312 391
#
# _framework density 19.546869000000001
#
# number of rings (size 3 to 8) (size 9 to 14) (size 15 to 20)
#    0.000    0.000    7.692    3.692    0.000    1.231 
#    0.000    0.000    0.000    0.000    0.000    0.000 
#    0.000   80.000    0.000    0.000    0.000    0.000 
#
# Total GULP energy -144900.125385 kJ/mol
# GULP energy per Si atom -5573.081746 kJ/mol
# Density = 1.950238 g / cm^3
# Si number density = 19.546869 Si / 1000 Ang^3
#
#
#
# Elastic Constant Matrix: (Units=GPa)
#
#
# Indices 1 2 3 4 5 6 
#
# 1 71.1263 47.9990 37.2076 0.0000 0.0000 0.0000
# 2 47.9990 71.1261 37.2072 0.0000 0.0000 0.0000
# 3 37.2076 37.2072 109.9141 0.0000 0.0000 0.0000
# 4 0.0000 0.0000 0.0000 38.8196 0.0000 0.0000
# 5 0.0000 0.0000 0.0000 0.0000 38.8205 0.0000
# 6 0.0000 0.0000 0.0000 0.0000 0.0000 25.2705
#
#
#
# Elastic Compliance Matrix: (Units=1/GPa)
#
#
# Indices 1 2 3 4 5 6 
#
# 1 0.026942 -0.016297 -0.003604 0.000000 0.000000 0.000000
# 2 -0.016297 0.026942 -0.003604 0.000000 0.000000 0.000000
# 3 -0.003604 -0.003604 0.011538 0.000000 0.000000 0.000000
# 4 0.000000 0.000000 0.000000 0.025760 0.000000 0.000000
# 5 0.000000 0.000000 0.000000 0.000000 0.025760 0.000000
# 6 0.000000 0.000000 0.000000 0.000000 0.000000 0.039572
#
#
# Mechanical properties :
#
#
# Convention : Reuss Voigt Hill
#
# Bulk Modulus (GPa) = 54.30545 55.22156 54.76351
# Shear Modulus (GPa) = 23.84805 29.23231 26.54018
#
# Velocity S-wave (km/s) = 3.49670 3.87136 3.68879
# Velocity P-wave (km/s) = 6.64418 6.94949 6.79855
#
# Compressibility (1/GPa) = 0.01841436
#
# Stress axis : x y z
#
# Youngs Moduli (GPa) = 37.11615 37.11619 86.67156
#
# Poissons Ratio (x) = 0.60487 0.31235
# Poissons Ratio (y) = 0.60487 0.31233
# Poissons Ratio (z) = 0.13376 0.13375
#
# Static dielectric constant tensor:
#      x y z
#    x 1.681620 0.000000 0.000000 
#    y 0.000000 1.681620 0.000000 
#    z 0.000000 0.000000 1.801980 
# 
# From -- ./inp_files/1009.got.cif
#   From: 2010.05.17/outbox.cif.g08.bks.cpg/sg120_1_cif.got.tgz:1009.got - 2010.05.20 11:28:13.
