data_PCOD9560116
_publ_section_title
;
Structure prediction by ZEFSAII (Michael W. Deem and Ramdas Pophale) SiO2 
 PCOD9560116
Probable space group: I -4 2 M
;
_chemical_formula_sum "Si O2"
_cell_formula_units_Z 96
_cell_length_a 14.745109
_cell_length_b 14.745109
_cell_length_c 21.012204
_cell_angle_alpha 90.000000
_cell_angle_beta 90.000000
_cell_angle_gamma 90.000000
_cell_volume 4568.436400
_symmetry_space_group_name_H-M "I -4 2 M"
_symmetry_group_IT_number 121
_symmetry_cell_setting 'tetragonal'
loop_
_space_group_symop_operation_xyz
x,y,z
y,-x,-z
-x,-y,z
-y,x,-z
x,-y,-z
-x,y,-z
-y,-x,z
y,x,z
1/2+x,1/2+y,1/2+z
1/2+y,1/2-x,1/2-z
1/2-x,1/2-y,1/2+z
1/2-y,1/2+x,1/2-z
1/2+x,1/2-y,1/2-z
1/2-x,1/2+y,1/2-z
1/2-y,1/2-x,1/2+z
1/2+y,1/2+x,1/2+z
loop_
_atom_site_type_symbol
_atom_site_label
_atom_site_fract_x
_atom_site_fract_y
_atom_site_fract_z
Si Si1 0.267663 0.125226 0.163537
Si Si2 0.872085 0.284665 0.576070
Si Si3 0.680448 0.829460 0.787611
Si Si4 0.666338 0.477030 0.734836
Si Si5 0.258827 0.102360 0.021012
Si Si6 0.505356 0.352158 0.885840
O O1 0.226585 0.226585 0.157294
O O2 0.336198 0.123768 0.222687
O O3 0.189658 0.058882 0.189123
O O4 0.294699 0.098057 0.093319
O O5 0.795178 0.204823 0.575960
O O6 0.868266 0.332961 0.645066
O O7 0.836646 0.353846 0.523239
O O8 0.968476 0.232844 0.574431
O O9 0.731064 0.731064 0.786585
O O10 0.757990 0.903382 0.782209
O O11 0.570542 0.429459 0.724123
O O12 0.670748 0.498583 0.810261
O O13 0.171013 0.171013 0.018864
O O14 0.235157 0.000000 0.000000
O O15 0.603600 0.396401 0.900232
O O16 0.432367 0.432367 0.895781
#
# Coordination Sequence:
#
# PCOD9560116 Si02
#       6
#    16  16  16  16  16  16
#     4  10  19  32  49  76 111 148 190 235 282 347
#     4   9  16  30  49  72 108 153 196 245 308 376
#     4   9  17  29  47  72 104 140 183 233 285 348
#     4  10  18  28  48  79 110 143 186 240 301 357
#     4  10  21  34  51  78 115 162 211 251 299 365
#     4   9  16  27  48  80 110 137 184 254 324 378
#
# _framework density 21.013755
#
# number of rings (size 3 to 8) (size 9 to 14) (size 15 to 20)
#    0.000    2.500    1.667    1.500    0.000    3.167 
#    0.000    1.667    0.000    1.500    0.000    5.833 
#    0.000   18.667    0.000    0.333    0.000    0.500 
#
# Total GULP energy -267517.049176 kJ/mol
# GULP energy per Si atom -5573.271858 kJ/mol
# Density = 2.096593 g / cm^3
# Si number density = 21.013755 Si / 1000 Ang^3
#
#
#
# Elastic Constant Matrix: (Units=GPa)
#
#
# Indices 1 2 3 4 5 6 
#
# 1 96.9812 11.5107 50.7409 0.0000 0.0000 0.0000
# 2 11.5107 96.9792 50.7397 0.0000 0.0000 0.0000
# 3 50.7409 50.7397 145.8060 0.0000 0.0000 0.0000
# 4 0.0000 0.0000 0.0000 21.1541 0.0000 0.0000
# 5 0.0000 0.0000 0.0000 0.0000 21.1555 0.0000
# 6 0.0000 0.0000 0.0000 0.0000 0.0000 38.3412
#
#
#
# Elastic Compliance Matrix: (Units=1/GPa)
#
#
# Indices 1 2 3 4 5 6 
#
# 1 0.012683 0.000983 -0.004756 0.000000 0.000000 0.000000
# 2 0.000983 0.012683 -0.004756 0.000000 0.000000 0.000000
# 3 -0.004756 -0.004756 0.010168 0.000000 0.000000 0.000000
# 4 0.000000 0.000000 0.000000 0.047272 0.000000 0.000000
# 5 0.000000 0.000000 0.000000 0.000000 0.047269 0.000000
# 6 0.000000 0.000000 0.000000 0.000000 0.000000 0.026082
#
#
# Mechanical properties :
#
#
# Convention : Reuss Voigt Hill
#
# Bulk Modulus (GPa) = 54.12082 62.86102 58.49092
# Shear Modulus (GPa) = 27.87487 31.24849 29.56168
#
# Velocity S-wave (km/s) = 3.64607 3.86041 3.75477
# Velocity P-wave (km/s) = 6.59818 7.06042 6.83321
#
# Compressibility (1/GPa) = 0.01847718
#
# Stress axis : x y z
#
# Youngs Moduli (GPa) = 78.84688 78.84565 98.34426
#
# Poissons Ratio (x) = -0.07749 0.46769
# Poissons Ratio (y) = -0.07749 0.46769
# Poissons Ratio (z) = 0.37497 0.37496
#
# Static dielectric constant tensor:
#      x y z
#    x 1.767510 0.000000 0.000000 
#    y 0.000000 1.767500 0.000000 
#    z 0.000000 0.000000 1.775690 
# 
# From -- ./inp_files/6450.got.cif
#   From: 2010.05.17/outbox.cif.g08.bks.cpg/sg121_4_cif.got.tgz:6450.got - 2010.05.20 11:32:06.
