data_PCOD9560421
_publ_section_title
;
Structure prediction by ZEFSAII (Michael W. Deem and Ramdas Pophale) SiO2 
 PCOD9560421
Probable space group: I -4 2 M
;
_chemical_formula_sum "Si O2"
_cell_formula_units_Z 72
_cell_length_a 11.729647
_cell_length_b 11.729647
_cell_length_c 24.967445
_cell_angle_alpha 90.000000
_cell_angle_beta 90.000000
_cell_angle_gamma 90.000000
_cell_volume 3435.136401
_symmetry_space_group_name_H-M "I -4 2 M"
_symmetry_group_IT_number 121
_symmetry_cell_setting 'tetragonal'
loop_
_space_group_symop_operation_xyz
x,y,z
y,-x,-z
-x,-y,z
-y,x,-z
x,-y,-z
-x,y,-z
-y,-x,z
y,x,z
1/2+x,1/2+y,1/2+z
1/2+y,1/2-x,1/2-z
1/2-x,1/2-y,1/2+z
1/2-y,1/2+x,1/2-z
1/2+x,1/2-y,1/2-z
1/2-x,1/2+y,1/2-z
1/2-y,1/2-x,1/2+z
1/2+y,1/2+x,1/2+z
loop_
_atom_site_type_symbol
_atom_site_label
_atom_site_fract_x
_atom_site_fract_y
_atom_site_fract_z
Si Si1 0.920387 0.394762 0.074314
Si Si2 0.311204 0.500000 0.500000
Si Si3 0.289371 0.523869 0.219697
Si Si4 0.705045 0.116636 0.183832
Si Si5 0.815636 0.990253 0.598683
O O1 0.944740 0.278776 0.041884
O O2 0.945308 0.358854 0.135917
O O3 0.793705 0.449875 0.072322
O O4 0.000000 0.500000 0.058782
O O5 0.397792 0.602209 0.481581
O O6 0.405272 0.594729 0.221236
O O7 0.185827 0.612682 0.217769
O O8 0.274771 0.454199 0.273382
O O9 0.285129 0.465466 0.161211
O O10 0.788193 0.211808 0.158065
O O11 0.876291 0.876291 0.575587
O O12 0.912860 0.087141 0.599196
#
# Coordination Sequence:
#
# PCOD9560421 Si02
#       5
#    16   8  16  16  16
#     4  11  24  41  63  95 126 163 212 266 328 387
#     4  11  25  48  74  94 125 171 216 272 336 399
#     4   9  19  32  51  81 121 169 210 251 305 370
#     4  10  21  35  54  84 123 162 205 255 303 368
#     4   9  18  36  62  90 124 165 206 256 318 380
#
# _framework density 20.959866000000002
#
# number of rings (size 3 to 8) (size 9 to 14) (size 15 to 20)
#    0.000    2.111    0.000    4.333    6.222    3.111 
#    0.000    0.000    0.000    0.000    0.000    3.111 
#    0.000    0.000    0.000    0.000    0.000    0.000 
#
# Total GULP energy -200652.897829 kJ/mol
# GULP energy per Si atom -5573.691606 kJ/mol
# Density = 2.091216 g / cm^3
# Si number density = 20.959866 Si / 1000 Ang^3
#
#
#
# Elastic Constant Matrix: (Units=GPa)
#
#
# Indices 1 2 3 4 5 6 
#
# 1 113.0010 54.6236 43.4765 0.0000 0.0000 0.0000
# 2 54.6236 113.0000 43.4764 0.0000 0.0000 0.0000
# 3 43.4765 43.4764 58.0877 0.0000 0.0000 0.0000
# 4 0.0000 0.0000 0.0000 39.9313 0.0000 0.0000
# 5 0.0000 0.0000 0.0000 0.0000 39.9465 0.0000
# 6 0.0000 0.0000 0.0000 0.0000 0.0000 36.7043
#
#
#
# Elastic Compliance Matrix: (Units=1/GPa)
#
#
# Indices 1 2 3 4 5 6 
#
# 1 0.013441 -0.003689 -0.007299 0.000000 0.000000 0.000000
# 2 -0.003689 0.013441 -0.007299 0.000000 0.000000 0.000000
# 3 -0.007299 -0.007299 0.028141 0.000000 0.000000 0.000000
# 4 0.000000 0.000000 0.000000 0.025043 0.000000 0.000000
# 5 0.000000 0.000000 0.000000 0.000000 0.025033 0.000000
# 6 0.000000 0.000000 0.000000 0.000000 0.000000 0.027245
#
#
# Mechanical properties :
#
#
# Convention : Reuss Voigt Hill
#
# Bulk Modulus (GPa) = 54.20231 63.02685 58.61458
# Shear Modulus (GPa) = 28.56024 32.81723 30.68874
#
# Velocity S-wave (km/s) = 3.69537 3.96121 3.83059
# Velocity P-wave (km/s) = 6.64258 7.14542 6.89858
#
# Compressibility (1/GPa) = 0.01844940
#
# Stress axis : x y z
#
# Youngs Moduli (GPa) = 74.39949 74.39863 35.53486
#
# Poissons Ratio (x) = 0.27446 0.25937
# Poissons Ratio (y) = 0.27446 0.25937
# Poissons Ratio (z) = 0.54304 0.54304
#
# Static dielectric constant tensor:
#      x y z
#    x 1.778940 0.000000 0.000000 
#    y 0.000000 1.778930 0.000000 
#    z 0.000000 0.000000 1.772570 
# 
# From -- ./inp_files/7552.got.cif
#   From: 2010.05.17/outbox.cif.g08.bks.cpg/sg121_4_cif.got.tgz:7552.got - 2010.05.20 11:32:06.
