data_PCOD9560556
_publ_section_title
;
Structure prediction by ZEFSAII (Michael W. Deem and Ramdas Pophale) SiO2 
 PCOD9560556
Probable space group: I -4 2 M
;
_chemical_formula_sum "Si O2"
_cell_formula_units_Z 48
_cell_length_a 12.556163
_cell_length_b 12.556163
_cell_length_c 14.897246
_cell_angle_alpha 90.000000
_cell_angle_beta 90.000000
_cell_angle_gamma 90.000000
_cell_volume 2348.658528
_symmetry_space_group_name_H-M "I -4 2 M"
_symmetry_group_IT_number 121
_symmetry_cell_setting 'tetragonal'
loop_
_space_group_symop_operation_xyz
x,y,z
y,-x,-z
-x,-y,z
-y,x,-z
x,-y,-z
-x,y,-z
-y,-x,z
y,x,z
1/2+x,1/2+y,1/2+z
1/2+y,1/2-x,1/2-z
1/2-x,1/2-y,1/2+z
1/2-y,1/2+x,1/2-z
1/2+x,1/2-y,1/2-z
1/2-x,1/2+y,1/2-z
1/2-y,1/2-x,1/2+z
1/2+y,1/2+x,1/2+z
loop_
_atom_site_type_symbol
_atom_site_label
_atom_site_fract_x
_atom_site_fract_y
_atom_site_fract_z
Si Si1 0.120776 0.531917 0.895616
Si Si2 0.176495 0.004073 0.719046
Si Si3 0.439519 0.263835 0.591619
O O1 0.217115 0.485430 0.837928
O O2 0.126767 0.658925 0.885003
O O3 0.000000 0.500000 0.868237
O O4 0.132543 0.500000 0.000000
O O5 0.096760 0.903241 0.712065
O O6 0.209119 0.013168 0.823563
O O7 0.107244 0.107244 0.691427
O O8 0.500000 0.239378 0.500000
O O9 0.363778 0.363778 0.576065
#
# Coordination Sequence:
#
# PCOD9560556 Si02
#       3
#    16  16  16
#     4  11  24  44  63  95 133 169 215 265 321 390
#     4  10  24  44  68  98 129 169 219 270 325 383
#     4  11  23  41  67  96 129 171 214 265 323 382
#
# _framework density 20.437197999999999
#
# number of rings (size 3 to 8) (size 9 to 14) (size 15 to 20)
#    0.000    1.333    3.333    2.000    4.667    4.333 
#    0.000    1.667    0.000    0.000    0.000    0.000 
#    0.000    0.000    0.000    0.000    0.000    0.000 
#
# Total GULP energy -134100.794187 kJ/mol
# GULP energy per Si atom -5587.533091 kJ/mol
# Density = 2.039068 g / cm^3
# Si number density = 20.437198 Si / 1000 Ang^3
#
#
#
# Elastic Constant Matrix: (Units=GPa)
#
#
# Indices 1 2 3 4 5 6 
#
# 1 85.7951 10.1323 45.9371 0.0000 0.0000 0.0000
# 2 10.1323 85.7936 45.9365 0.0000 0.0000 0.0000
# 3 45.9371 45.9365 90.3108 0.0000 0.0000 0.0000
# 4 0.0000 0.0000 0.0000 28.5170 0.0000 0.0000
# 5 0.0000 0.0000 0.0000 0.0000 28.5170 0.0000
# 6 0.0000 0.0000 0.0000 0.0000 0.0000 21.3489
#
#
#
# Elastic Compliance Matrix: (Units=1/GPa)
#
#
# Indices 1 2 3 4 5 6 
#
# 1 0.016772 0.003555 -0.010340 0.000000 0.000000 0.000000
# 2 0.003555 0.016772 -0.010340 0.000000 0.000000 0.000000
# 3 -0.010340 -0.010340 0.021591 0.000000 0.000000 0.000000
# 4 0.000000 0.000000 0.000000 0.035067 0.000000 0.000000
# 5 0.000000 0.000000 0.000000 0.000000 0.035067 0.000000
# 6 0.000000 0.000000 0.000000 0.000000 0.000000 0.046841
#
#
# Mechanical properties :
#
#
# Convention : Reuss Voigt Hill
#
# Bulk Modulus (GPa) = 47.87482 51.76793 49.82137
# Shear Modulus (GPa) = 23.43898 26.33615 24.88757
#
# Velocity S-wave (km/s) = 3.39023 3.59366 3.49343
# Velocity P-wave (km/s) = 6.22905 6.52720 6.37987
#
# Compressibility (1/GPa) = 0.02088781
#
# Stress axis : x y z
#
# Youngs Moduli (GPa) = 59.62369 59.62277 46.31486
#
# Poissons Ratio (x) = -0.21198 0.47887
# Poissons Ratio (y) = -0.21198 0.47888
# Poissons Ratio (z) = 0.61648 0.61647
#
# Static dielectric constant tensor:
#      x y z
#    x 1.762500 0.000000 0.000000 
#    y 0.000000 1.762480 0.000000 
#    z 0.000000 0.000000 1.709140 
# 
# From -- ./inp_files/4890.got.cif
#   From: 2010.05.17/outbox.cif.g08.bks.cpg/sg121_3_cif.got.tgz:4890.got - 2010.05.20 11:32:06.
