data_PCOD9560981
_publ_section_title
;
Structure prediction by ZEFSAII (Michael W. Deem and Ramdas Pophale) SiO2 
 PCOD9560981
Probable space group: I -4 2 D
;
_chemical_formula_sum "Si O2"
_cell_formula_units_Z 112
_cell_length_a 14.872356
_cell_length_b 14.872356
_cell_length_c 29.283044
_cell_angle_alpha 90.000000
_cell_angle_beta 90.000000
_cell_angle_gamma 90.000000
_cell_volume 6477.027862
_symmetry_space_group_name_H-M "I -4 2 D"
_symmetry_group_IT_number 122
_symmetry_cell_setting 'tetragonal'
loop_
_space_group_symop_operation_xyz
x,y,z
y,-x,-z
-x,-y,z
-y,x,-z
x,1/2-y,1/4-z
-x,1/2+y,1/4-z
-y,1/2-x,1/4+z
y,1/2+x,1/4+z
1/2+x,1/2+y,1/2+z
1/2+y,1/2-x,1/2-z
1/2-x,1/2-y,1/2+z
1/2-y,1/2+x,1/2-z
1/2+x,-y,3/4-z
1/2-x,y,3/4-z
1/2-y,-x,3/4+z
1/2+y,x,3/4+z
loop_
_atom_site_type_symbol
_atom_site_label
_atom_site_fract_x
_atom_site_fract_y
_atom_site_fract_z
Si Si1 0.133987 0.041825 0.016792
Si Si2 0.786183 0.839403 0.764625
Si Si3 0.105668 0.982496 0.202899
Si Si4 0.982595 0.294685 0.361961
Si Si5 0.473784 0.605570 0.193256
Si Si6 0.673192 0.159294 0.411607
Si Si7 0.175597 0.279348 0.914470
O O1 0.138949 0.047887 0.071354
O O2 0.227930 0.071394 0.995264
O O3 0.057499 0.106996 0.997889
O O4 0.877342 0.867821 0.790529
O O5 0.808047 0.804846 0.713321
O O6 0.726079 0.770355 0.793653
O O7 0.162937 0.023791 0.161826
O O8 0.125428 0.023131 0.252676
O O9 0.000000 0.000000 0.193823
O O10 0.918559 0.208346 0.354682
O O11 0.087173 0.274340 0.351821
O O12 0.500000 0.500000 0.188667
O O13 0.553110 0.657167 0.167087
O O14 0.377132 0.636188 0.176208
O O15 0.750000 0.179589 0.375000
O O16 0.250000 0.285456 0.875000
#
# Coordination Sequence:
#
# PCOD9560981 Si02
#       7
#    16  16  16  16  16  16  16
#     4  10  21  35  57  76 116 162 194 232 290 348
#     4  10  22  39  58  89 117 154 202 249 298 356
#     4  10  23  38  59  87 123 155 198 252 301 352
#     4  11  22  38  57  88 121 154 203 248 291 354
#     4  10  21  40  63  88 116 159 196 247 311 365
#     4  10  22  41  60  86 120 156 203 245 304 368
#     4  12  22  38  65  89 119 156 204 251 303 362
#
# _framework density 17.291882000000001
#
# number of rings (size 3 to 8) (size 9 to 14) (size 15 to 20)
#    0.000    1.571    4.286    0.429    6.000    0.000 
#    2.571    0.000    0.000    0.000    0.000    0.000 
#    0.000    0.000    0.000    0.000    0.000    0.000 
#
# Total GULP energy -312287.625360 kJ/mol
# GULP energy per Si atom -5576.564739 kJ/mol
# Density = 1.725252 g / cm^3
# Si number density = 17.291882 Si / 1000 Ang^3
#
#
#
# Elastic Constant Matrix: (Units=GPa)
#
#
# Indices 1 2 3 4 5 6 
#
# 1 60.9117 19.2292 39.4622 0.0000 0.0000 0.0000
# 2 19.2292 60.9117 39.4622 0.0000 0.0000 0.0000
# 3 39.4622 39.4622 93.9778 0.0000 0.0000 0.0000
# 4 0.0000 0.0000 0.0000 25.0644 0.0000 0.0000
# 5 0.0000 0.0000 0.0000 0.0000 25.0644 0.0000
# 6 0.0000 0.0000 0.0000 0.0000 0.0000 29.6780
#
#
#
# Elastic Compliance Matrix: (Units=1/GPa)
#
#
# Indices 1 2 3 4 5 6 
#
# 1 0.022634 -0.001357 -0.008934 0.000000 0.000000 0.000000
# 2 -0.001357 0.022634 -0.008934 0.000000 0.000000 0.000000
# 3 -0.008934 -0.008934 0.018144 0.000000 0.000000 0.000000
# 4 0.000000 0.000000 0.000000 0.039897 0.000000 0.000000
# 5 0.000000 0.000000 0.000000 0.000000 0.039897 0.000000
# 6 0.000000 0.000000 0.000000 0.000000 0.000000 0.033695
#
#
# Mechanical properties :
#
#
# Convention : Reuss Voigt Hill
#
# Bulk Modulus (GPa) = 40.06372 45.78984 42.92678
# Shear Modulus (GPa) = 22.35410 23.80454 23.07932
#
# Velocity S-wave (km/s) = 3.59939 3.71432 3.65731
# Velocity P-wave (km/s) = 6.36345 6.70320 6.53554
#
# Compressibility (1/GPa) = 0.02496024
#
# Stress axis : x y z
#
# Youngs Moduli (GPa) = 44.18166 44.18166 55.11455
#
# Poissons Ratio (x) = 0.05996 0.49241
# Poissons Ratio (y) = 0.05996 0.49241
# Poissons Ratio (z) = 0.39473 0.39473
#
# Static dielectric constant tensor:
#      x y z
#    x 1.575060 0.000000 0.000000 
#    y 0.000000 1.575060 0.000000 
#    z 0.000000 0.000000 1.574180 
# 
# From -- ./inp_files/8781.got.cif
#   From: 2010.05.17/outbox.cif.g08.bks.cpg/sg122_5_cif.got.tgz:8781.got - 2010.05.20 11:37:33.
