data_PCOD9560968
_publ_section_title
;
Structure prediction by ZEFSAII (Michael W. Deem and Ramdas Pophale) SiO2 
 PCOD9560968
Probable space group: I -4 2 D
;
_chemical_formula_sum "Si O2"
_cell_formula_units_Z 92
_cell_length_a 14.661518
_cell_length_b 14.661518
_cell_length_c 19.996035
_cell_angle_alpha 90.000000
_cell_angle_beta 90.000000
_cell_angle_gamma 90.000000
_cell_volume 4298.349884
_symmetry_space_group_name_H-M "I -4 2 D"
_symmetry_group_IT_number 122
_symmetry_cell_setting 'tetragonal'
loop_
_space_group_symop_operation_xyz
x,y,z
y,-x,-z
-x,-y,z
-y,x,-z
x,1/2-y,1/4-z
-x,1/2+y,1/4-z
-y,1/2-x,1/4+z
y,1/2+x,1/4+z
1/2+x,1/2+y,1/2+z
1/2+y,1/2-x,1/2-z
1/2-x,1/2-y,1/2+z
1/2-y,1/2+x,1/2-z
1/2+x,-y,3/4-z
1/2-x,y,3/4-z
1/2-y,-x,3/4+z
1/2+y,x,3/4+z
loop_
_atom_site_type_symbol
_atom_site_label
_atom_site_fract_x
_atom_site_fract_y
_atom_site_fract_z
Si Si1 0.486657 0.168401 0.545518
Si Si2 0.663173 0.750000 0.125000
Si Si3 0.500000 0.000000 0.447607
Si Si4 0.590813 0.197840 0.914355
Si Si5 0.500000 0.500000 0.500000
Si Si6 0.484286 0.697698 0.185296
Si Si7 0.429697 0.183472 0.809969
Si Si8 0.150790 0.750000 0.125000
O O1 0.403877 0.134063 0.592356
O O2 0.451950 0.255102 0.504032
O O3 0.580774 0.192326 0.580135
O O4 0.507810 0.087287 0.494781
O O5 0.727323 0.664790 0.107539
O O6 0.589895 0.731341 0.184519
O O7 0.406270 0.011341 0.410098
O O8 0.502185 0.206183 0.867879
O O9 0.561248 0.204870 0.992351
O O10 0.446451 0.422662 0.458248
O O11 0.435717 0.750000 0.125000
O O12 0.326162 0.202223 0.832399
#
# Coordination Sequence:
#
# PCOD9560968 Si02
#       8
#    16   8   8  16   4  16  16   8
#     4  11  24  40  66  96 131 188 225 285 363 411
#     4  10  23  44  73  98 146 180 242 292 362 430
#     4  10  20  45  68  85 141 175 228 294 356 426
#     4  11  24  44  68 100 140 185 237 300 357 429
#     4  12  24  46  64 104 144 182 236 286 340 456
#     4   9  22  45  66 103 130 185 237 295 362 436
#     4  12  26  42  70 100 140 183 232 290 356 424
#     4  12  23  42  65 102 138 178 238 284 348 434
#
# _framework density 21.403562999999998
#
# number of rings (size 3 to 8) (size 9 to 14) (size 15 to 20)
#    0.522    0.696    1.739    4.696    2.435    3.478 
#   15.652    0.000    0.000    1.043    0.000    0.000 
#    0.000    0.000    0.000    0.000    0.000    0.000 
#
# Total GULP energy -257057.865826 kJ/mol
# GULP energy per Si atom -5588.214474 kJ/mol
# Density = 2.135485 g / cm^3
# Si number density = 21.403563 Si / 1000 Ang^3
#
#
#
# Elastic Constant Matrix: (Units=GPa)
#
#
# Indices 1 2 3 4 5 6 
#
# 1 79.8081 3.1502 11.4013 0.0000 0.0000 0.0000
# 2 3.1502 79.8081 11.4013 0.0000 0.0000 0.0000
# 3 11.4013 11.4013 35.7855 0.0000 0.0000 0.0000
# 4 0.0000 0.0000 0.0000 27.7687 0.0000 0.0000
# 5 0.0000 0.0000 0.0000 0.0000 27.7687 0.0000
# 6 0.0000 0.0000 0.0000 0.0000 0.0000 85.1857
#
#
#
# Elastic Compliance Matrix: (Units=1/GPa)
#
#
# Indices 1 2 3 4 5 6 
#
# 1 0.013128 0.000083 -0.004209 0.000000 0.000000 0.000000
# 2 0.000083 0.013128 -0.004209 0.000000 0.000000 0.000000
# 3 -0.004209 -0.004209 0.030626 0.000000 0.000000 0.000000
# 4 0.000000 0.000000 0.000000 0.036012 0.000000 0.000000
# 5 0.000000 0.000000 0.000000 0.000000 0.036012 0.000000
# 6 0.000000 0.000000 0.000000 0.000000 0.000000 0.011739
#
#
# Mechanical properties :
#
#
# Convention : Reuss Voigt Hill
#
# Bulk Modulus (GPa) = 24.86798 27.47857 26.17328
# Shear Modulus (GPa) = 29.28784 39.44123 34.36453
#
# Velocity S-wave (km/s) = 3.70315 4.29737 4.01128
# Velocity P-wave (km/s) = 5.47068 6.12286 5.80593
#
# Compressibility (1/GPa) = 0.04021235
#
# Stress axis : x y z
#
# Youngs Moduli (GPa) = 76.17264 76.17264 32.65166
#
# Poissons Ratio (x) = -0.00633 0.13743
# Poissons Ratio (y) = -0.00633 0.13743
# Poissons Ratio (z) = 0.32062 0.32062
#
# Static dielectric constant tensor:
#      x y z
#    x 1.781590 0.000000 0.000000 
#    y 0.000000 1.781590 0.000000 
#    z 0.000000 0.000000 1.759980 
# 
# From -- ./inp_files/7379.got.cif
#   From: 2010.05.17/outbox.cif.g08.bks.cpg/sg122_4_cif.got.tgz:7379.got - 2010.05.20 11:37:33.
