data_PCOD9560836
_publ_section_title
;
Structure prediction by ZEFSAII (Michael W. Deem and Ramdas Pophale) SiO2 
 PCOD9560836
Probable space group: I -4 2 D
;
_chemical_formula_sum "Si O2"
_cell_formula_units_Z 96
_cell_length_a 18.778185
_cell_length_b 18.778185
_cell_length_c 13.477585
_cell_angle_alpha 90.000000
_cell_angle_beta 90.000000
_cell_angle_gamma 90.000000
_cell_volume 4752.469148
_symmetry_space_group_name_H-M "I -4 2 D"
_symmetry_group_IT_number 122
_symmetry_cell_setting 'tetragonal'
loop_
_space_group_symop_operation_xyz
x,y,z
y,-x,-z
-x,-y,z
-y,x,-z
x,1/2-y,1/4-z
-x,1/2+y,1/4-z
-y,1/2-x,1/4+z
y,1/2+x,1/4+z
1/2+x,1/2+y,1/2+z
1/2+y,1/2-x,1/2-z
1/2-x,1/2-y,1/2+z
1/2-y,1/2+x,1/2-z
1/2+x,-y,3/4-z
1/2-x,y,3/4-z
1/2-y,-x,3/4+z
1/2+y,x,3/4+z
loop_
_atom_site_type_symbol
_atom_site_label
_atom_site_fract_x
_atom_site_fract_y
_atom_site_fract_z
Si Si1 0.749915 0.549562 0.760531
Si Si2 0.501763 0.172841 0.679173
Si Si3 0.756325 0.438287 0.602247
Si Si4 0.673469 0.854021 0.918810
Si Si5 0.168864 0.777533 0.378957
Si Si6 0.125782 0.365543 0.060590
O O1 0.750000 0.532002 0.875000
O O2 0.782700 0.490740 0.688187
O O3 0.788576 0.624071 0.729739
O O4 0.667073 0.566685 0.733392
O O5 0.496556 0.250000 0.625000
O O6 0.484390 0.198082 0.789463
O O7 0.578951 0.146703 0.645581
O O8 0.440317 0.123934 0.633451
O O9 0.712195 0.377062 0.655481
O O10 0.814079 0.403153 0.527732
O O11 0.750000 0.833994 0.875000
O O12 0.688742 0.870770 0.034276
O O13 0.250000 0.802058 0.375000
O O14 0.169190 0.690655 0.375288
#
# Coordination Sequence:
#
# PCOD9560836 Si02
#       6
#    16  16  16  16  16  16
#     4  10  24  41  57  89 129 169 209 259 323 401
#     4   9  18  34  57  86 120 164 193 255 327 379
#     4  11  22  37  60  92 127 165 206 265 329 382
#     4  11  21  33  61  93 125 152 209 268 329 390
#     4  10  20  33  60  92 117 149 205 267 317 377
#     4   9  20  36  62  84 121 160 197 253 325 376
#
# _framework density 20.200025
#
# number of rings (size 3 to 8) (size 9 to 14) (size 15 to 20)
#    1.000    1.000    0.000    6.500    4.667    0.667 
#    0.000    0.833    0.000    0.000    0.000    0.000 
#    0.000    0.000    0.000    0.000    0.000    0.000 
#
# Total GULP energy -267270.124158 kJ/mol
# GULP energy per Si atom -5568.127587 kJ/mol
# Density = 2.015405 g / cm^3
# Si number density = 20.200025 Si / 1000 Ang^3
#
#
#
# Elastic Constant Matrix: (Units=GPa)
#
#
# Indices 1 2 3 4 5 6 
#
# 1 34.2353 12.4680 15.7423 0.0000 0.0000 0.0000
# 2 12.4680 34.2353 15.7423 0.0000 0.0000 0.0000
# 3 15.7423 15.7423 121.2620 0.0000 0.0000 0.0000
# 4 0.0000 0.0000 0.0000 23.2212 0.0000 0.0000
# 5 0.0000 0.0000 0.0000 0.0000 23.2212 0.0000
# 6 0.0000 0.0000 0.0000 0.0000 0.0000 2.3657
#
#
#
# Elastic Compliance Matrix: (Units=1/GPa)
#
#
# Indices 1 2 3 4 5 6 
#
# 1 0.034703 -0.011238 -0.003046 0.000000 0.000000 0.000000
# 2 -0.011238 0.034703 -0.003046 0.000000 0.000000 0.000000
# 3 -0.003046 -0.003046 0.009038 0.000000 0.000000 0.000000
# 4 0.000000 0.000000 0.000000 0.043064 0.000000 0.000000
# 5 0.000000 0.000000 0.000000 0.000000 0.043064 0.000000
# 6 0.000000 0.000000 0.000000 0.000000 0.000000 0.422716
#
#
# Mechanical properties :
#
#
# Convention : Reuss Voigt Hill
#
# Bulk Modulus (GPa) = 22.83984 30.84867 26.84425
# Shear Modulus (GPa) = 7.85493 19.48026 13.66760
#
# Velocity S-wave (km/s) = 1.97409 3.10880 2.60400
# Velocity P-wave (km/s) = 4.06539 5.30951 4.72855
#
# Compressibility (1/GPa) = 0.04378314
#
# Stress axis : x y z
#
# Youngs Moduli (GPa) = 28.81597 28.81597 110.64944
#
# Poissons Ratio (x) = 0.32382 0.33707
# Poissons Ratio (y) = 0.32382 0.33707
# Poissons Ratio (z) = 0.08778 0.08778
#
# Static dielectric constant tensor:
#      x y z
#    x 1.759150 0.000000 0.000000 
#    y 0.000000 1.759150 0.000000 
#    z 0.000000 0.000000 1.779390 
# 
# From -- ./inp_files/4449.got.cif
#   From: 2010.05.17/outbox.cif.g08.bks.cpg/sg122_3_cif.got.tgz:4449.got - 2010.05.20 11:37:33.
