data_PCOD9560134
_publ_section_title
;
Structure prediction by ZEFSAII (Michael W. Deem and Ramdas Pophale) SiO2 
 PCOD9560134
Probable space group: I -4 2 M
;
_chemical_formula_sum "Si O2"
_cell_formula_units_Z 40
_cell_length_a 9.308992
_cell_length_b 9.308992
_cell_length_c 27.002247
_cell_angle_alpha 90.000000
_cell_angle_beta 90.000000
_cell_angle_gamma 90.000000
_cell_volume 2339.942685
_symmetry_space_group_name_H-M "I -4 2 M"
_symmetry_group_IT_number 121
_symmetry_cell_setting 'tetragonal'
loop_
_space_group_symop_operation_xyz
x,y,z
y,-x,-z
-x,-y,z
-y,x,-z
x,-y,-z
-x,y,-z
-y,-x,z
y,x,z
1/2+x,1/2+y,1/2+z
1/2+y,1/2-x,1/2-z
1/2-x,1/2-y,1/2+z
1/2-y,1/2+x,1/2-z
1/2+x,1/2-y,1/2-z
1/2-x,1/2+y,1/2-z
1/2-y,1/2-x,1/2+z
1/2+y,1/2+x,1/2+z
loop_
_atom_site_type_symbol
_atom_site_label
_atom_site_fract_x
_atom_site_fract_y
_atom_site_fract_z
Si Si1 0.260377 0.504096 0.943324
Si Si2 0.500000 0.000000 0.868571
Si Si3 0.923810 0.690081 0.221698
O O1 0.347354 0.652647 0.935751
O O2 0.378370 0.378370 0.939387
O O3 0.137377 0.483336 0.903425
O O4 0.205465 0.500000 0.000000
O O5 0.364999 0.973409 0.832081
O O6 0.838098 0.838098 0.221563
O O7 0.819830 0.563814 0.243274
#
# Coordination Sequence:
#
# PCOD9560134 Si02
#       3
#    16   8  16
#     4   9  18  32  50  73 100 130 163 197 236 284
#     4  10  18  30  52  76  98 124 162 204 242 280
#     4   9  20  35  50  71  98 128 162 199 242 290
#
# _framework density 17.094435000000001
#
# number of rings (size 3 to 8) (size 9 to 14) (size 15 to 20)
#    0.000    3.200    0.000    3.000    0.000    7.200 
#    0.000    0.000    0.000    3.600    0.000   11.200 
#    0.000    0.000    0.000    0.000    0.000    0.000 
#
# Total GULP energy -111449.063409 kJ/mol
# GULP energy per Si atom -5572.453170 kJ/mol
# Density = 1.705553 g / cm^3
# Si number density = 17.094435 Si / 1000 Ang^3
#
#
#
# Elastic Constant Matrix: (Units=GPa)
#
#
# Indices 1 2 3 4 5 6 
#
# 1 53.1575 12.8724 44.4907 0.0000 0.0000 0.0000
# 2 12.8724 53.1563 44.4901 0.0000 0.0000 0.0000
# 3 44.4907 44.4901 132.8912 0.0000 0.0000 0.0000
# 4 0.0000 0.0000 0.0000 8.1896 0.0000 0.0000
# 5 0.0000 0.0000 0.0000 0.0000 8.1894 0.0000
# 6 0.0000 0.0000 0.0000 0.0000 0.0000 32.1682
#
#
#
# Elastic Compliance Matrix: (Units=1/GPa)
#
#
# Indices 1 2 3 4 5 6 
#
# 1 0.026208 0.001385 -0.009238 0.000000 0.000000 0.000000
# 2 0.001385 0.026209 -0.009238 0.000000 0.000000 0.000000
# 3 -0.009238 -0.009238 0.013711 0.000000 0.000000 0.000000
# 4 0.000000 0.000000 0.000000 0.122106 0.000000 0.000000
# 5 0.000000 0.000000 0.000000 0.000000 0.122109 0.000000
# 6 0.000000 0.000000 0.000000 0.000000 0.000000 0.031087
#
#
# Mechanical properties :
#
#
# Convention : Reuss Voigt Hill
#
# Bulk Modulus (GPa) = 31.30272 49.21238 40.25755
# Shear Modulus (GPa) = 12.94462 18.86622 15.90542
#
# Velocity S-wave (km/s) = 2.75479 3.32572 3.05363
# Velocity P-wave (km/s) = 5.33572 6.60290 6.00284
#
# Compressibility (1/GPa) = 0.03194611
#
# Stress axis : x y z
#
# Youngs Moduli (GPa) = 38.15558 38.15476 72.93623
#
# Poissons Ratio (x) = -0.05286 0.67379
# Poissons Ratio (y) = -0.05286 0.67380
# Poissons Ratio (z) = 0.35249 0.35248
#
# Static dielectric constant tensor:
#      x y z
#    x 1.570450 0.000000 0.000000 
#    y 0.000000 1.570450 0.000000 
#    z 0.000000 0.000000 1.580600 
# 
# From -- ./inp_files/6753.got.cif
#   From: 2010.05.17/outbox.cif.g08.bks.cpg/sg121_4_cif.got.tgz:6753.got - 2010.05.20 11:32:06.
