data_PCOD9560555
_publ_section_title
;
Structure prediction by ZEFSAII (Michael W. Deem and Ramdas Pophale) SiO2 
 PCOD9560555
Probable space group: I -4 2 M
;
_chemical_formula_sum "Si O2"
_cell_formula_units_Z 40
_cell_length_a 9.974192
_cell_length_b 9.974192
_cell_length_c 20.028562
_cell_angle_alpha 90.000000
_cell_angle_beta 90.000000
_cell_angle_gamma 90.000000
_cell_volume 1992.531598
_symmetry_space_group_name_H-M "I -4 2 M"
_symmetry_group_IT_number 121
_symmetry_cell_setting 'tetragonal'
loop_
_space_group_symop_operation_xyz
x,y,z
y,-x,-z
-x,-y,z
-y,x,-z
x,-y,-z
-x,y,-z
-y,-x,z
y,x,z
1/2+x,1/2+y,1/2+z
1/2+y,1/2-x,1/2-z
1/2-x,1/2-y,1/2+z
1/2-y,1/2+x,1/2-z
1/2+x,1/2-y,1/2-z
1/2-x,1/2+y,1/2-z
1/2-y,1/2-x,1/2+z
1/2+y,1/2+x,1/2+z
loop_
_atom_site_type_symbol
_atom_site_label
_atom_site_fract_x
_atom_site_fract_y
_atom_site_fract_z
Si Si1 0.500000 0.500000 0.000000
Si Si2 0.078671 0.705818 0.646749
Si Si3 0.500000 0.500000 0.500000
Si Si4 0.000000 0.500000 0.250000
Si Si5 0.793517 0.206484 0.039543
Si Si6 0.814812 0.814812 0.592206
O O1 0.408495 0.591506 0.954323
O O2 0.156837 0.843164 0.665900
O O3 0.090041 0.593499 0.702646
O O4 0.156390 0.666349 0.578244
O O5 0.921796 0.730299 0.633999
O O6 0.405642 0.594359 0.544630
O O7 0.768901 0.231100 0.961394
#
# Coordination Sequence:
#
# PCOD9560555 Si02
#       6
#     2  16   2   4   8   8
#     4  12  12  36  60 110 120 132 212 276 346 364
#     4  10  24  43  67  98 128 178 230 273 328 394
#     4  12  28  44  56 102 144 172 200 272 374 408
#     4  12  28  44  58  96 144 196 228 246 336 408
#     4  10  24  43  67 100 131 168 219 280 360 383
#     4  12  18  39  75 105 127 156 226 302 338 384
#
# _framework density 20.074963
#
# number of rings (size 3 to 8) (size 9 to 14) (size 15 to 20)
#    1.200    0.000    6.000    0.000    8.400    0.000 
#    3.600    0.000    0.000    0.000    0.000    0.000 
#    0.000    0.000    0.000    0.000    0.000    0.000 
#
# Total GULP energy -111511.727512 kJ/mol
# GULP energy per Si atom -5575.586376 kJ/mol
# Density = 2.002927 g / cm^3
# Si number density = 20.074963 Si / 1000 Ang^3
#
#
#
# Elastic Constant Matrix: (Units=GPa)
#
#
# Indices 1 2 3 4 5 6 
#
# 1 52.1022 46.4006 21.9496 0.0000 0.0000 0.0000
# 2 46.4006 52.1013 21.9479 0.0000 0.0000 0.0000
# 3 21.9496 21.9479 50.3695 0.0000 0.0000 0.0000
# 4 0.0000 0.0000 0.0000 20.4156 0.0000 0.0000
# 5 0.0000 0.0000 0.0000 0.0000 20.4146 0.0000
# 6 0.0000 0.0000 0.0000 0.0000 0.0000 45.5179
#
#
#
# Elastic Compliance Matrix: (Units=1/GPa)
#
#
# Indices 1 2 3 4 5 6 
#
# 1 0.094002 -0.081402 -0.005493 0.000000 0.000000 0.000000
# 2 -0.081402 0.094000 -0.005487 0.000000 0.000000 0.000000
# 3 -0.005493 -0.005487 0.024638 0.000000 0.000000 0.000000
# 4 0.000000 0.000000 0.000000 0.048982 0.000000 0.000000
# 5 0.000000 0.000000 0.000000 0.000000 0.048985 0.000000
# 6 0.000000 0.000000 0.000000 0.000000 0.000000 0.021969
#
#
# Mechanical properties :
#
#
# Convention : Reuss Voigt Hill
#
# Bulk Modulus (GPa) = 35.87394 37.24103 36.55748
# Shear Modulus (GPa) = 9.49429 21.55462 15.52445
#
# Velocity S-wave (km/s) = 2.17708 3.28030 2.78389
# Velocity P-wave (km/s) = 4.92223 5.73920 5.34634
#
# Compressibility (1/GPa) = 0.02787539
#
# Stress axis : x y z
#
# Youngs Moduli (GPa) = 10.63811 10.63825 40.58805
#
# Poissons Ratio (x) = 0.86598 0.22295
# Poissons Ratio (y) = 0.86597 0.22270
# Poissons Ratio (z) = 0.05844 0.05837
#
# Static dielectric constant tensor:
#      x y z
#    x 1.729230 0.000000 0.000000 
#    y 0.000000 1.729250 0.000000 
#    z 0.000000 0.000000 1.685540 
# 
# From -- ./inp_files/4878.got.cif
#   From: 2010.05.17/outbox.cif.g08.bks.cpg/sg121_3_cif.got.tgz:4878.got - 2010.05.20 11:32:06.
