data_PCOD9560322
_publ_section_title
;
Structure prediction by ZEFSAII (Michael W. Deem and Ramdas Pophale) SiO2 
 PCOD9560322
Probable space group: I -4 2 M
;
_chemical_formula_sum "Si O2"
_cell_formula_units_Z 120
_cell_length_a 26.383514
_cell_length_b 26.383514
_cell_length_c 8.926873
_cell_angle_alpha 90.000000
_cell_angle_beta 90.000000
_cell_angle_gamma 90.000000
_cell_volume 6213.905339
_symmetry_space_group_name_H-M "I -4 2 M"
_symmetry_group_IT_number 121
_symmetry_cell_setting 'tetragonal'
loop_
_space_group_symop_operation_xyz
x,y,z
y,-x,-z
-x,-y,z
-y,x,-z
x,-y,-z
-x,y,-z
-y,-x,z
y,x,z
1/2+x,1/2+y,1/2+z
1/2+y,1/2-x,1/2-z
1/2-x,1/2-y,1/2+z
1/2-y,1/2+x,1/2-z
1/2+x,1/2-y,1/2-z
1/2-x,1/2+y,1/2-z
1/2-y,1/2-x,1/2+z
1/2+y,1/2+x,1/2+z
loop_
_atom_site_type_symbol
_atom_site_label
_atom_site_fract_x
_atom_site_fract_y
_atom_site_fract_z
Si Si1 0.000000 0.201845 0.000000
Si Si2 0.823580 0.091065 0.796820
Si Si3 0.519742 0.783020 0.248059
Si Si4 0.370414 0.074197 0.931744
Si Si5 0.041552 0.572497 0.772718
Si Si6 0.744538 0.823420 0.132381
Si Si7 0.318596 0.826596 0.600291
Si Si8 0.756900 0.426684 0.063790
O O1 0.977320 0.239842 0.125432
O O2 0.043341 0.171412 0.090917
O O3 0.872981 0.127020 0.786268
O O4 0.777416 0.125644 0.861408
O O5 0.799820 0.074754 0.635094
O O6 0.540193 0.834272 0.325031
O O7 0.462186 0.786603 0.185025
O O8 0.549651 0.765105 0.099929
O O9 0.420486 0.094355 0.848268
O O10 0.338664 0.124882 0.952863
O O11 0.393970 0.047771 0.078666
O O12 0.063451 0.514886 0.789421
O O13 0.781173 0.781173 0.201212
O O14 0.692153 0.825257 0.223665
O O15 0.727871 0.808292 0.968152
O O16 0.279888 0.870793 0.554510
#
# Coordination Sequence:
#
# PCOD9560322 Si02
#       8
#     8  16  16  16  16  16  16  16
#     4  10  20  34  60  91 123 152 194 248 288 344
#     4   9  19  36  58  85 120 163 198 235 294 355
#     4  10  21  36  57  85 110 151 193 248 312 354
#     4  12  24  38  61  79 107 142 193 259 313 378
#     4  11  26  44  57  75 102 143 194 251 325 397
#     4  10  20  35  54  77 114 150 184 229 288 355
#     4  11  21  35  52  82 105 140 190 239 291 356
#     4   9  20  38  56  78 118 149 196 246 298 369
#
# _framework density 19.311527999999999
#
# number of rings (size 3 to 8) (size 9 to 14) (size 15 to 20)
#    0.000    1.733    0.000    4.400    3.733    2.667 
#    0.000    0.667    0.000    0.200    0.000    0.000 
#    0.000    0.000    0.000    0.000    0.000    0.000 
#
# Total GULP energy -334401.200046 kJ/mol
# GULP energy per Si atom -5573.353334 kJ/mol
# Density = 1.926757 g / cm^3
# Si number density = 19.311528 Si / 1000 Ang^3
#
#
#
# Elastic Constant Matrix: (Units=GPa)
#
#
# Indices 1 2 3 4 5 6 
#
# 1 79.9627 40.7797 40.2326 0.0000 0.0000 0.0000
# 2 40.7797 79.9618 40.2326 0.0000 0.0000 0.0000
# 3 40.2326 40.2326 103.6532 0.0000 0.0000 0.0000
# 4 0.0000 0.0000 0.0000 24.5003 0.0000 0.0000
# 5 0.0000 0.0000 0.0000 0.0000 24.5002 0.0000
# 6 0.0000 0.0000 0.0000 0.0000 0.0000 25.9763
#
#
#
# Elastic Compliance Matrix: (Units=1/GPa)
#
#
# Indices 1 2 3 4 5 6 
#
# 1 0.018347 -0.007175 -0.004336 0.000000 0.000000 0.000000
# 2 -0.007175 0.018347 -0.004336 0.000000 0.000000 0.000000
# 3 -0.004336 -0.004336 0.013014 0.000000 0.000000 0.000000
# 4 0.000000 0.000000 0.000000 0.040816 0.000000 0.000000
# 5 0.000000 0.000000 0.000000 0.000000 0.040816 0.000000
# 6 0.000000 0.000000 0.000000 0.000000 0.000000 0.038497
#
#
# Mechanical properties :
#
#
# Convention : Reuss Voigt Hill
#
# Bulk Modulus (GPa) = 55.51749 56.22974 55.87362
# Shear Modulus (GPa) = 24.09232 24.48421 24.28827
#
# Velocity S-wave (km/s) = 3.53592 3.56456 3.55027
# Velocity P-wave (km/s) = 6.74396 6.79131 6.76768
#
# Compressibility (1/GPa) = 0.01801234
#
# Stress axis : x y z
#
# Youngs Moduli (GPa) = 54.50582 54.50511 76.84126
#
# Poissons Ratio (x) = 0.39106 0.33321
# Poissons Ratio (y) = 0.39107 0.33321
# Poissons Ratio (z) = 0.23635 0.23636
#
# Static dielectric constant tensor:
#      x y z
#    x 1.741470 0.000000 0.000000 
#    y 0.000000 1.741470 0.000000 
#    z 0.000000 0.000000 1.727810 
# 
# From -- ./inp_files/2181.got.cif
#   From: 2010.05.17/outbox.cif.g08.bks.cpg/sg121_2_cif.got.tgz:2181.got - 2010.05.20 11:32:06.
