data_PCOD9560732
_publ_section_title
;
Structure prediction by ZEFSAII (Michael W. Deem and Ramdas Pophale) SiO2 
 PCOD9560732
Probable space group: I -4 2 D
;
_chemical_formula_sum "Si O2"
_cell_formula_units_Z 96
_cell_length_a 16.531260
_cell_length_b 16.531260
_cell_length_c 17.988325
_cell_angle_alpha 90.000000
_cell_angle_beta 90.000000
_cell_angle_gamma 90.000000
_cell_volume 4915.895456
_symmetry_space_group_name_H-M "I -4 2 D"
_symmetry_group_IT_number 122
_symmetry_cell_setting 'tetragonal'
loop_
_space_group_symop_operation_xyz
x,y,z
y,-x,-z
-x,-y,z
-y,x,-z
x,1/2-y,1/4-z
-x,1/2+y,1/4-z
-y,1/2-x,1/4+z
y,1/2+x,1/4+z
1/2+x,1/2+y,1/2+z
1/2+y,1/2-x,1/2-z
1/2-x,1/2-y,1/2+z
1/2-y,1/2+x,1/2-z
1/2+x,-y,3/4-z
1/2-x,y,3/4-z
1/2-y,-x,3/4+z
1/2+y,x,3/4+z
loop_
_atom_site_type_symbol
_atom_site_label
_atom_site_fract_x
_atom_site_fract_y
_atom_site_fract_z
Si Si1 0.244862 0.885540 0.193172
Si Si2 0.250000 0.354198 0.875000
Si Si3 0.613166 0.541778 0.817509
Si Si4 0.328711 0.437572 0.320756
Si Si5 0.489892 0.679753 0.849153
Si Si6 0.115015 0.168287 0.591664
Si Si7 0.500000 0.500000 0.316335
O O1 0.297978 0.809434 0.169922
O O2 0.154470 0.853355 0.199308
O O3 0.295974 0.916470 0.263951
O O4 0.249981 0.954002 0.130790
O O5 0.305292 0.406375 0.819750
O O6 0.543631 0.597064 0.855802
O O7 0.637390 0.462028 0.861997
O O8 0.576076 0.517792 0.738551
O O9 0.250000 0.441576 0.375000
O O10 0.311200 0.474880 0.238971
O O11 0.412196 0.479185 0.352085
O O12 0.408505 0.672915 0.897920
O O13 0.153769 0.250000 0.625000
#
# Coordination Sequence:
#
# PCOD9560732 Si02
#       7
#    16   8  16  16  16  16   8
#     4  11  24  38  64  92 134 175 217 275 336 402
#     4  10  22  36  54  90 126 176 220 258 328 420
#     4  10  18  35  58  87 133 168 213 261 339 413
#     4  11  22  45  70  94 134 180 230 289 342 394
#     4  10  23  39  59  99 131 171 228 276 332 422
#     4  12  20  34  59  93 132 172 206 266 342 413
#     4  10  20  40  68  94 130 176 222 292 340 392
#
# _framework density 19.528486000000001
#
# number of rings (size 3 to 8) (size 9 to 14) (size 15 to 20)
#    0.000    1.333    6.667    0.000    4.667    0.000 
#    0.000    1.667    0.000    4.000    0.000    0.000 
#    0.000    0.000    0.000    0.000    0.000    0.000 
#
# Total GULP energy -267396.525234 kJ/mol
# GULP energy per Si atom -5570.760942 kJ/mol
# Density = 1.948404 g / cm^3
# Si number density = 19.528486 Si / 1000 Ang^3
#
#
#
# Elastic Constant Matrix: (Units=GPa)
#
#
# Indices 1 2 3 4 5 6 
#
# 1 112.3719 42.6116 34.2759 0.0000 0.0000 0.0000
# 2 42.6116 112.3719 34.2759 0.0000 0.0000 0.0000
# 3 34.2759 34.2759 51.1320 0.0000 0.0000 0.0000
# 4 0.0000 0.0000 0.0000 24.4501 0.0000 0.0000
# 5 0.0000 0.0000 0.0000 0.0000 24.4501 0.0000
# 6 0.0000 0.0000 0.0000 0.0000 0.0000 -44.2054
#
#
#
# Elastic Compliance Matrix: (Units=1/GPa)
#
#
# Indices 1 2 3 4 5 6 
#
# 1 0.011753 -0.002582 -0.006148 0.000000 0.000000 0.000000
# 2 -0.002582 0.011753 -0.006148 0.000000 0.000000 0.000000
# 3 -0.006148 -0.006148 0.027800 0.000000 0.000000 0.000000
# 4 0.000000 0.000000 0.000000 0.040900 0.000000 0.000000
# 5 0.000000 0.000000 0.000000 0.000000 0.040900 0.000000
# 6 0.000000 0.000000 0.000000 0.000000 0.000000 -0.022622
#
#
# Mechanical properties :
#
#
# Convention : Reuss Voigt Hill
#
# Bulk Modulus (GPa) = 46.40217 55.35582 50.87899
# Shear Modulus (GPa) = 33.91586 11.91978 22.91782
#
# Velocity S-wave (km/s) = 4.17194 2.47327 3.42944
# Velocity P-wave (km/s) = 6.85709 6.04680 6.46465
#
# Compressibility (1/GPa) = 0.02155072
#
# Stress axis : x y z
#
# Youngs Moduli (GPa) = 85.08266 85.08266 35.97118
#
# Poissons Ratio (x) = 0.21964 0.22116
# Poissons Ratio (y) = 0.21964 0.22116
# Poissons Ratio (z) = 0.52311 0.52311
#
# Static dielectric constant tensor:
#      x y z
#    x 1.716580 0.000000 0.000000 
#    y 0.000000 1.716580 0.000000 
#    z 0.000000 0.000000 2.991920 
# 
# From -- ./inp_files/6354.got.cif
#   From: 2010.05.17/outbox.cif.g08.bks.cpg/sg122_4_cif.got.tgz:6354.got - 2010.05.20 11:37:33.
