data_PCOD9560169
_publ_section_title
;
Structure prediction by ZEFSAII (Michael W. Deem and Ramdas Pophale) SiO2 
 PCOD9560169
Probable space group: I -4 2 M
;
_chemical_formula_sum "Si O2"
_cell_formula_units_Z 88
_cell_length_a 14.880853
_cell_length_b 14.880853
_cell_length_c 20.835913
_cell_angle_alpha 90.000000
_cell_angle_beta 90.000000
_cell_angle_gamma 90.000000
_cell_volume 4613.900116
_symmetry_space_group_name_H-M "I -4 2 M"
_symmetry_group_IT_number 121
_symmetry_cell_setting 'tetragonal'
loop_
_space_group_symop_operation_xyz
x,y,z
y,-x,-z
-x,-y,z
-y,x,-z
x,-y,-z
-x,y,-z
-y,-x,z
y,x,z
1/2+x,1/2+y,1/2+z
1/2+y,1/2-x,1/2-z
1/2-x,1/2-y,1/2+z
1/2-y,1/2+x,1/2-z
1/2+x,1/2-y,1/2-z
1/2-x,1/2+y,1/2-z
1/2-y,1/2-x,1/2+z
1/2+y,1/2+x,1/2+z
loop_
_atom_site_type_symbol
_atom_site_label
_atom_site_fract_x
_atom_site_fract_y
_atom_site_fract_z
Si Si1 0.330886 0.811802 0.574338
Si Si2 0.905367 0.755595 0.796450
Si Si3 0.000000 0.729783 0.000000
Si Si4 0.087111 0.235310 0.128061
Si Si5 0.379885 0.772076 0.849804
Si Si6 0.039104 0.819392 0.569740
O O1 0.283708 0.716293 0.557490
O O2 0.356300 0.805124 0.649477
O O3 0.420134 0.825017 0.533406
O O4 0.257845 0.886604 0.560830
O O5 0.849129 0.849129 0.795470
O O6 0.901989 0.716179 0.725268
O O7 0.006615 0.766347 0.821093
O O8 0.043714 0.783799 0.941340
O O9 0.161483 0.161483 0.144211
O O10 0.136752 0.332608 0.125088
O O11 0.302044 0.697957 0.854848
O O12 0.463056 0.727216 0.886906
O O13 0.093128 0.906873 0.595982
O O14 0.000000 0.842740 0.500000
#
# Coordination Sequence:
#
# PCOD9560169 Si02
#       6
#    16  16   8  16  16  16
#     4   9  19  36  58  82 113 154 194 238 301 366
#     4   9  20  38  59  86 117 151 198 248 297 362
#     4  10  18  34  57  83 114 148 192 238 288 355
#     4  10  21  37  60  86 120 159 196 243 304 365
#     4  10  22  39  60  86 117 154 200 247 301 366
#     4  11  23  38  59  84 117 158 203 252 305 360
#
# _framework density 19.072801999999999
#
# number of rings (size 3 to 8) (size 9 to 14) (size 15 to 20)
#    0.000    2.182    0.000    2.182    2.545    6.000 
#    0.000   10.455    0.000    3.545    0.000    0.000 
#    0.000    0.000    0.000    0.000    0.000    0.000 
#
# Total GULP energy -245314.061163 kJ/mol
# GULP energy per Si atom -5575.319572 kJ/mol
# Density = 1.902939 g / cm^3
# Si number density = 19.072802 Si / 1000 Ang^3
#
#
#
# Elastic Constant Matrix: (Units=GPa)
#
#
# Indices 1 2 3 4 5 6 
#
# 1 93.7991 14.2338 31.8627 0.0000 0.0000 0.0000
# 2 14.2338 93.8007 31.8674 0.0000 0.0000 0.0000
# 3 31.8627 31.8674 75.3757 0.0000 0.0000 0.0000
# 4 0.0000 0.0000 0.0000 20.4038 0.0000 0.0000
# 5 0.0000 0.0000 0.0000 0.0000 20.4042 0.0000
# 6 0.0000 0.0000 0.0000 0.0000 0.0000 18.5811
#
#
#
# Elastic Compliance Matrix: (Units=1/GPa)
#
#
# Indices 1 2 3 4 5 6 
#
# 1 0.012450 -0.000118 -0.005213 0.000000 0.000000 0.000000
# 2 -0.000118 0.012450 -0.005214 0.000000 0.000000 0.000000
# 3 -0.005213 -0.005214 0.017675 0.000000 0.000000 0.000000
# 4 0.000000 0.000000 0.000000 0.049010 0.000000 0.000000
# 5 0.000000 0.000000 0.000000 0.000000 0.049009 0.000000
# 6 0.000000 0.000000 0.000000 0.000000 0.000000 0.053818
#
#
# Mechanical properties :
#
#
# Convention : Reuss Voigt Hill
#
# Bulk Modulus (GPa) = 46.54376 46.54483 46.54430
# Shear Modulus (GPa) = 22.45541 24.21194 23.33368
#
# Velocity S-wave (km/s) = 3.43498 3.56680 3.50151
# Velocity P-wave (km/s) = 6.33942 6.43580 6.38779
#
# Compressibility (1/GPa) = 0.02148516
#
# Stress axis : x y z
#
# Youngs Moduli (GPa) = 80.32294 80.32044 56.57818
#
# Poissons Ratio (x) = 0.00950 0.29493
# Poissons Ratio (y) = 0.00950 0.29498
# Poissons Ratio (z) = 0.41870 0.41877
#
# Static dielectric constant tensor:
#      x y z
#    x 1.670650 0.000000 0.000000 
#    y 0.000000 1.670650 0.000000 
#    z 0.000000 0.000000 1.681170 
# 
# From -- ./inp_files/6334.got.cif
#   From: 2010.05.17/outbox.cif.g08.bks.cpg/sg121_4_cif.got.tgz:6334.got - 2010.05.20 11:32:06.
