data_PCOD9560250
_publ_section_title
;
Structure prediction by ZEFSAII (Michael W. Deem and Ramdas Pophale) SiO2 
 PCOD9560250
Probable space group: I -4 2 M
;
_chemical_formula_sum "Si O2"
_cell_formula_units_Z 96
_cell_length_a 14.277497
_cell_length_b 14.277497
_cell_length_c 22.843861
_cell_angle_alpha 90.000000
_cell_angle_beta 90.000000
_cell_angle_gamma 90.000000
_cell_volume 4656.650719
_symmetry_space_group_name_H-M "I -4 2 M"
_symmetry_group_IT_number 121
_symmetry_cell_setting 'tetragonal'
loop_
_space_group_symop_operation_xyz
x,y,z
y,-x,-z
-x,-y,z
-y,x,-z
x,-y,-z
-x,y,-z
-y,-x,z
y,x,z
1/2+x,1/2+y,1/2+z
1/2+y,1/2-x,1/2-z
1/2-x,1/2-y,1/2+z
1/2-y,1/2+x,1/2-z
1/2+x,1/2-y,1/2-z
1/2-x,1/2+y,1/2-z
1/2-y,1/2-x,1/2+z
1/2+y,1/2+x,1/2+z
loop_
_atom_site_type_symbol
_atom_site_label
_atom_site_fract_x
_atom_site_fract_y
_atom_site_fract_z
Si Si1 0.536801 0.308478 0.117449
Si Si2 0.495520 0.654259 0.747387
Si Si3 0.332430 0.173565 0.944200
Si Si4 0.525615 0.677621 0.432374
Si Si5 0.210552 0.364483 0.072055
Si Si6 0.109127 0.743837 0.840513
O O1 0.601781 0.398220 0.101669
O O2 0.505843 0.321917 0.184273
O O3 0.597653 0.215589 0.103635
O O4 0.444670 0.287617 0.080270
O O5 0.394759 0.605242 0.735662
O O6 0.572624 0.572624 0.735088
O O7 0.529897 0.742954 0.709300
O O8 0.254183 0.254183 0.950306
O O9 0.273953 0.083384 0.927421
O O10 0.376035 0.162280 0.008990
O O11 0.500000 0.662894 0.500000
O O12 0.590963 0.590963 0.413277
O O13 0.437004 0.696502 0.392946
O O14 0.266680 0.266680 0.071420
O O15 0.141586 0.352155 0.127899
O O16 0.202504 0.797497 0.818011
#
# Coordination Sequence:
#
# PCOD9560250 Si02
#       6
#    16  16  16  16  16  16
#     4  10  20  36  58  82 111 149 194 249 301 345
#     4   9  18  34  55  82 115 148 193 247 291 346
#     4   9  19  35  53  79 116 151 188 243 299 358
#     4  11  20  33  55  83 114 149 192 238 291 355
#     4  10  19  34  56  82 115 149 188 237 295 360
#     4  10  20  35  54  81 119 155 186 233 293 352
#
# _framework density 20.615675
#
# number of rings (size 3 to 8) (size 9 to 14) (size 15 to 20)
#    0.000    2.167    1.667    2.000    0.000    2.833 
#    3.000    1.667    0.000    6.000    0.000    0.000 
#    0.000    0.000    0.000    0.000    0.000    0.000 
#
# Total GULP energy -267323.584141 kJ/mol
# GULP energy per Si atom -5569.241336 kJ/mol
# Density = 2.056875 g / cm^3
# Si number density = 20.615675 Si / 1000 Ang^3
#
#
#
# Elastic Constant Matrix: (Units=GPa)
#
#
# Indices 1 2 3 4 5 6 
#
# 1 59.6389 21.2904 13.8197 0.0000 0.0000 0.0000
# 2 21.2904 59.6426 13.8191 0.0000 0.0000 0.0000
# 3 13.8197 13.8191 41.2665 0.0000 0.0000 0.0000
# 4 0.0000 0.0000 0.0000 22.8354 0.0000 0.0000
# 5 0.0000 0.0000 0.0000 0.0000 22.8353 0.0000
# 6 0.0000 0.0000 0.0000 0.0000 0.0000 37.6609
#
#
#
# Elastic Compliance Matrix: (Units=1/GPa)
#
#
# Indices 1 2 3 4 5 6 
#
# 1 0.020014 -0.006062 -0.004673 0.000000 0.000000 0.000000
# 2 -0.006062 0.020013 -0.004672 0.000000 0.000000 0.000000
# 3 -0.004673 -0.004672 0.027362 0.000000 0.000000 0.000000
# 4 0.000000 0.000000 0.000000 0.043792 0.000000 0.000000
# 5 0.000000 0.000000 0.000000 0.000000 0.043792 0.000000
# 6 0.000000 0.000000 0.000000 0.000000 0.000000 0.026553
#
#
# Mechanical properties :
#
#
# Convention : Reuss Voigt Hill
#
# Bulk Modulus (GPa) = 27.33976 28.71183 28.02579
# Shear Modulus (GPa) = 22.26875 24.10759 23.18817
#
# Velocity S-wave (km/s) = 3.29018 3.42333 3.35742
# Velocity P-wave (km/s) = 5.26537 5.43903 5.35291
#
# Compressibility (1/GPa) = 0.03657677
#
# Stress axis : x y z
#
# Youngs Moduli (GPa) = 49.96422 49.96788 36.54707
#
# Poissons Ratio (x) = 0.30290 0.17077
# Poissons Ratio (y) = 0.30287 0.17074
# Poissons Ratio (z) = 0.23346 0.23344
#
# Static dielectric constant tensor:
#      x y z
#    x 1.828800 0.000000 0.000000 
#    y 0.000000 1.828810 0.000000 
#    z 0.000000 0.000000 1.782150 
# 
# From -- ./inp_files/6392.got.cif
#   From: 2010.05.17/outbox.cif.g08.bks.cpg/sg121_4_cif.got.tgz:6392.got - 2010.05.20 11:32:06.
