data_PCOD9560616
_publ_section_title
;
Structure prediction by ZEFSAII (Michael W. Deem and Ramdas Pophale) SiO2 
 PCOD9560616
Probable space group: I -4 2 M
;
_chemical_formula_sum "Si O2"
_cell_formula_units_Z 64
_cell_length_a 12.272859
_cell_length_b 12.272859
_cell_length_c 18.872361
_cell_angle_alpha 90.000000
_cell_angle_beta 90.000000
_cell_angle_gamma 90.000000
_cell_volume 2842.612915
_symmetry_space_group_name_H-M "I -4 2 M"
_symmetry_group_IT_number 121
_symmetry_cell_setting 'tetragonal'
loop_
_space_group_symop_operation_xyz
x,y,z
y,-x,-z
-x,-y,z
-y,x,-z
x,-y,-z
-x,y,-z
-y,-x,z
y,x,z
1/2+x,1/2+y,1/2+z
1/2+y,1/2-x,1/2-z
1/2-x,1/2-y,1/2+z
1/2-y,1/2+x,1/2-z
1/2+x,1/2-y,1/2-z
1/2-x,1/2+y,1/2-z
1/2-y,1/2-x,1/2+z
1/2+y,1/2+x,1/2+z
loop_
_atom_site_type_symbol
_atom_site_label
_atom_site_fract_x
_atom_site_fract_y
_atom_site_fract_z
Si Si1 0.504450 0.672848 0.844889
Si Si2 0.551542 0.730635 0.420133
Si Si3 0.465118 0.116259 0.920220
Si Si4 0.325815 0.966333 0.776659
O O1 0.400188 0.599813 0.831278
O O2 0.595260 0.595260 0.879395
O O3 0.477741 0.779134 0.889511
O O4 0.549648 0.721913 0.772790
O O5 0.500000 0.724335 0.500000
O O6 0.620728 0.620728 0.405770
O O7 0.630789 0.835687 0.419344
O O8 0.472117 0.772835 0.356146
O O9 0.500000 0.000000 0.884974
O O10 0.500000 0.106832 0.000000
O O11 0.416713 0.879028 0.749151
#
# Coordination Sequence:
#
# PCOD9560616 Si02
#       4
#    16  16  16  16
#     4  11  25  43  67 104 144 181 230 298 369 431
#     4  12  26  45  72 106 146 193 241 297 366 442
#     4  11  22  44  69  99 138 183 239 291 351 431
#     4  11  24  44  75 108 140 191 250 303 364 434
#
# _framework density 22.514496999999999
#
# number of rings (size 3 to 8) (size 9 to 14) (size 15 to 20)
#    0.000    0.750    5.000    3.000    0.000    4.250 
#    0.000    1.250    0.000    0.000    0.000    0.000 
#    0.000    0.000    0.000    0.000    0.000    0.000 
#
# Total GULP energy -178296.216165 kJ/mol
# GULP energy per Si atom -5571.756755 kJ/mol
# Density = 2.246325 g / cm^3
# Si number density = 22.514497 Si / 1000 Ang^3
#
#
#
# Elastic Constant Matrix: (Units=GPa)
#
#
# Indices 1 2 3 4 5 6 
#
# 1 96.7860 39.2834 13.8938 0.0000 0.0000 0.0000
# 2 39.2834 96.7867 13.8947 0.0000 0.0000 0.0000
# 3 13.8938 13.8947 127.1758 0.0000 0.0000 0.0000
# 4 0.0000 0.0000 0.0000 17.9563 0.0000 0.0000
# 5 0.0000 0.0000 0.0000 0.0000 17.9578 0.0000
# 6 0.0000 0.0000 0.0000 0.0000 0.0000 44.1258
#
#
#
# Elastic Compliance Matrix: (Units=1/GPa)
#
#
# Indices 1 2 3 4 5 6 
#
# 1 0.012454 -0.004937 -0.000821 0.000000 0.000000 0.000000
# 2 -0.004937 0.012454 -0.000821 0.000000 0.000000 0.000000
# 3 -0.000821 -0.000821 0.008043 0.000000 0.000000 0.000000
# 4 0.000000 0.000000 0.000000 0.055691 0.000000 0.000000
# 5 0.000000 0.000000 0.000000 0.000000 0.055686 0.000000
# 6 0.000000 0.000000 0.000000 0.000000 0.000000 0.022662
#
#
# Mechanical properties :
#
#
# Convention : Reuss Voigt Hill
#
# Bulk Modulus (GPa) = 50.52698 50.54358 50.53528
# Shear Modulus (GPa) = 26.77450 32.91976 29.84713
#
# Velocity S-wave (km/s) = 3.45224 3.82797 3.64495
# Velocity P-wave (km/s) = 6.19526 6.48351 6.34102
#
# Compressibility (1/GPa) = 0.01979141
#
# Stress axis : x y z
#
# Youngs Moduli (GPa) = 80.29753 80.29795 124.33832
#
# Poissons Ratio (x) = 0.39641 0.10210
# Poissons Ratio (y) = 0.39641 0.10212
# Poissons Ratio (z) = 0.06594 0.06595
#
# Static dielectric constant tensor:
#      x y z
#    x 1.835960 0.000000 0.000000 
#    y 0.000000 1.835960 0.000000 
#    z 0.000000 0.000000 1.898870 
# 
# From -- ./inp_files/6026.got.cif
#   From: 2010.05.17/outbox.cif.g08.bks.cpg/sg121_4_cif.got.tgz:6026.got - 2010.05.20 11:32:06.
