data_PCOD9560499
_publ_section_title
;
Structure prediction by ZEFSAII (Michael W. Deem and Ramdas Pophale) SiO2 
 PCOD9560499
Probable space group: I -4 2 M
;
_chemical_formula_sum "Si O2"
_cell_formula_units_Z 56
_cell_length_a 14.649653
_cell_length_b 14.649653
_cell_length_c 10.992805
_cell_angle_alpha 90.000000
_cell_angle_beta 90.000000
_cell_angle_gamma 90.000000
_cell_volume 2359.191527
_symmetry_space_group_name_H-M "I -4 2 M"
_symmetry_group_IT_number 121
_symmetry_cell_setting 'tetragonal'
loop_
_space_group_symop_operation_xyz
x,y,z
y,-x,-z
-x,-y,z
-y,x,-z
x,-y,-z
-x,y,-z
-y,-x,z
y,x,z
1/2+x,1/2+y,1/2+z
1/2+y,1/2-x,1/2-z
1/2-x,1/2-y,1/2+z
1/2-y,1/2+x,1/2-z
1/2+x,1/2-y,1/2-z
1/2-x,1/2+y,1/2-z
1/2-y,1/2-x,1/2+z
1/2+y,1/2+x,1/2+z
loop_
_atom_site_type_symbol
_atom_site_label
_atom_site_fract_x
_atom_site_fract_y
_atom_site_fract_z
Si Si1 0.131799 0.131799 0.116043
Si Si2 0.500000 0.500000 0.000000
Si Si3 0.359530 0.640471 0.887683
Si Si4 0.000000 0.274778 0.000000
Si Si5 0.000000 0.500000 0.750000
Si Si6 0.799789 0.799789 0.347055
Si Si7 0.500000 0.500000 0.500000
Si Si8 0.822466 0.406357 0.744505
O O1 0.139417 0.139417 0.258949
O O2 0.089137 0.218813 0.048239
O O3 0.058033 0.058033 0.088814
O O4 0.434241 0.565759 0.921940
O O5 0.274389 0.594609 0.815128
O O6 0.317377 0.682624 0.012269
O O7 0.962375 0.321320 0.119409
O O8 0.908318 0.454751 0.811977
O O9 0.698625 0.827031 0.300518
#
# Coordination Sequence:
#
# PCOD9560499 Si02
#       8
#     8   2   8   8   4   8   2  16
#     4  10  21  41  71 105 143 195 254 318 385 462
#     4  12  32  50  88 110 156 202 260 344 414 508
#     4  11  30  54  77 121 158 210 269 335 425 479
#     4  11  24  44  74 111 146 204 264 320 388 474
#     4  12  28  50  80 120 162 220 282 332 400 490
#     4  11  26  49  79 105 166 208 254 335 409 485
#     4   8  20  38  68 116 146 178 256 318 368 468
#     4  11  28  49  78 111 159 215 271 331 401 481
#
# _framework density 23.736946
#
# number of rings (size 3 to 8) (size 9 to 14) (size 15 to 20)
#    0.000    1.143    0.000    3.429   20.000    1.143 
#    0.000    0.000    0.000    0.000    0.000    0.000 
#    0.000    0.000    0.000    0.000    0.000    0.000 
#
# Total GULP energy -156181.100509 kJ/mol
# GULP energy per Si atom -5577.896447 kJ/mol
# Density = 2.368292 g / cm^3
# Si number density = 23.736946 Si / 1000 Ang^3
#
#
#
# Elastic Constant Matrix: (Units=GPa)
#
#
# Indices 1 2 3 4 5 6 
#
# 1 112.6807 96.1200 44.2828 0.0000 0.0000 0.0000
# 2 96.1200 112.6802 44.2833 0.0000 0.0000 0.0000
# 3 44.2828 44.2833 121.7180 0.0000 0.0000 0.0000
# 4 0.0000 0.0000 0.0000 38.3307 0.0000 0.0000
# 5 0.0000 0.0000 0.0000 0.0000 38.3302 0.0000
# 6 0.0000 0.0000 0.0000 0.0000 0.0000 31.6318
#
#
#
# Elastic Compliance Matrix: (Units=1/GPa)
#
#
# Indices 1 2 3 4 5 6 
#
# 1 0.033024 -0.027361 -0.002060 0.000000 0.000000 0.000000
# 2 -0.027361 0.033024 -0.002061 0.000000 0.000000 0.000000
# 3 -0.002060 -0.002061 0.009715 0.000000 0.000000 0.000000
# 4 0.000000 0.000000 0.000000 0.026089 0.000000 0.000000
# 5 0.000000 0.000000 0.000000 0.000000 0.026089 0.000000
# 6 0.000000 0.000000 0.000000 0.000000 0.000000 0.031614
#
#
# Mechanical properties :
#
#
# Convention : Reuss Voigt Hill
#
# Bulk Modulus (GPa) = 78.12600 79.60567 78.86583
# Shear Modulus (GPa) = 22.04739 32.48471 27.26605
#
# Velocity S-wave (km/s) = 3.05096 3.70338 3.39289
# Velocity P-wave (km/s) = 6.73765 7.20389 6.97467
#
# Compressibility (1/GPa) = 0.01279984
#
# Stress axis : x y z
#
# Youngs Moduli (GPa) = 30.28115 30.28089 102.93465
#
# Poissons Ratio (x) = 0.82851 0.21207
# Poissons Ratio (y) = 0.82852 0.21210
# Poissons Ratio (z) = 0.06239 0.06239
#
# Static dielectric constant tensor:
#      x y z
#    x 1.942730 0.000000 0.000000 
#    y 0.000000 1.942730 0.000000 
#    z 0.000000 0.000000 1.885890 
# 
# From -- ./inp_files/2817.got.cif
#   From: 2010.05.17/outbox.cif.g08.bks.cpg/sg121_2_cif.got.tgz:2817.got - 2010.05.20 11:32:06.
