data_PCOD9560073
_publ_section_title
;
Structure prediction by ZEFSAII (Michael W. Deem and Ramdas Pophale) SiO2 
 PCOD9560073
Probable space group: I -4 C 2
;
_chemical_formula_sum "Si O2"
_cell_formula_units_Z 56
_cell_length_a 30.000000
_cell_length_b 30.000000
_cell_length_c 6.000000
_cell_angle_alpha 90.000000
_cell_angle_beta 90.000000
_cell_angle_gamma 90.000000
_cell_volume 5400.000000
_symmetry_space_group_name_H-M "I -4 C 2"
_symmetry_group_IT_number 120
_symmetry_cell_setting 'tetragonal'
loop_
_space_group_symop_operation_xyz
x,y,z
y,-x,-z
-x,-y,z
-y,x,-z
y,x,1/2-z
-y,-x,1/2-z
-x,y,1/2+z
x,-y,1/2+z
1/2+x,1/2+y,1/2+z
1/2+y,1/2-x,1/2-z
1/2-x,1/2-y,1/2+z
1/2-y,1/2+x,1/2-z
1/2+y,1/2+x,-z
1/2-y,1/2-x,-z
1/2-x,1/2+y,z
1/2+x,1/2-y,z
loop_
_atom_site_type_symbol
_atom_site_label
_atom_site_fract_x
_atom_site_fract_y
_atom_site_fract_z
Si Si1 0.752001 0.815387 0.885442
Si Si2 0.777596 0.623267 0.031139
Si Si3 0.488384 0.890373 0.232755
Si Si4 0.598194 0.841907 0.840457
Si Si5 0.795488 0.537449 0.307419
Si Si6 0.796252 0.983858 0.275086
Si Si7 0.122665 0.804109 0.766756
O O1 0.789460 0.789460 0.750000
O O2 0.718484 0.841983 0.727724
O O3 0.722882 0.777119 0.000000
O O4 0.776745 0.851693 0.039727
O O5 0.813567 0.625075 0.837627
O O6 0.727581 0.630899 0.944808
O O7 0.783090 0.573649 0.123514
O O8 0.498824 0.910443 0.484963
O O9 0.436259 0.877367 0.232610
O O10 0.514560 0.842915 0.241128
O O11 0.630081 0.869920 0.000000
O O12 0.567399 0.806466 0.975363
O O13 0.754392 0.503127 0.308173
O O14 0.803316 0.931262 0.219877
O O15 0.813305 0.993318 0.535828
O O16 0.148351 0.851650 0.750000
#
# Coordination Sequence:
#
# PCOD9560073 Si02
#       7
#    16  16  16  16  16  16  16
#     4  12  28  48  65  84 129 196 261 305 353 417
#     4  12  23  44  64  87 128 173 241 288 359 412
#     4  10  19  38  63  88 126 169 210 267 354 429
#     4  11  25  41  61  98 135 174 228 298 357 422
#     4  11  22  40  65  95 129 173 221 284 356 441
#     4  12  24  42  71 106 132 178 229 286 365 440
#     4  12  26  45  68  99 133 180 237 306 360 418
#
# _framework density 10.370369999999999
#
# number of rings (size 3 to 8) (size 9 to 14) (size 15 to 20)
#    0.000    0.571    4.286    5.571    0.000    4.000 
#    0.000    0.000    0.000    0.000    0.000    0.000 
#    0.000   29.143    0.000    0.000    0.000    0.000 
#
# Total GULP energy -312767.425253 kJ/mol
# GULP energy per Si atom -5585.132594 kJ/mol
# Density = 1.034677 g / cm^3
# Si number density = 10.370370 Si / 1000 Ang^3
#
#
#
# Elastic Constant Matrix: (Units=GPa)
#
#
# Indices 1 2 3 4 5 6 
#
# 1 87.9654 34.6256 34.5731 0.0000 0.0000 0.0000
# 2 34.6256 87.9705 34.5711 0.0000 0.0000 0.0000
# 3 34.5731 34.5711 117.0141 0.0000 0.0000 0.0000
# 4 0.0000 0.0000 0.0000 35.2824 0.0000 0.0000
# 5 0.0000 0.0000 0.0000 0.0000 35.2806 0.0000
# 6 0.0000 0.0000 0.0000 0.0000 0.0000 17.5980
#
#
#
# Elastic Compliance Matrix: (Units=1/GPa)
#
#
# Indices 1 2 3 4 5 6 
#
# 1 0.014268 -0.004479 -0.002892 0.000000 0.000000 0.000000
# 2 -0.004479 0.014267 -0.002892 0.000000 0.000000 0.000000
# 3 -0.002892 -0.002892 0.010255 0.000000 0.000000 0.000000
# 4 0.000000 0.000000 0.000000 0.028343 0.000000 0.000000
# 5 0.000000 0.000000 0.000000 0.000000 0.028344 0.000000
# 6 0.000000 0.000000 0.000000 0.000000 0.000000 0.056824
#
#
# Mechanical properties :
#
#
# Convention : Reuss Voigt Hill
#
# Bulk Modulus (GPa) = 54.75441 55.60996 55.18219
# Shear Modulus (GPa) = 27.94617 30.24423 29.09520
#
# Velocity S-wave (km/s) = 3.67468 3.82279 3.74947
# Velocity P-wave (km/s) = 6.66792 6.80846 6.73855
#
# Compressibility (1/GPa) = 0.01826337
#
# Stress axis : x y z
#
# Youngs Moduli (GPa) = 70.08662 70.09234 97.51508
#
# Poissons Ratio (x) = 0.31397 0.28204
# Poissons Ratio (y) = 0.31394 0.28197
# Poissons Ratio (z) = 0.20271 0.20268
#
# Static dielectric constant tensor:
#      x y z
#    x 1.748880 0.000000 0.000000 
#    y 0.000000 1.748890 0.000000 
#    z 0.000000 0.000000 1.909580 
# 
# From -- ./inp_files/536.got.cif
#   From: 2010.05.17/outbox.ucp.g08.bks.cvg/sg120_1_cif.got.tgz:536.got - 2010.06.11 11:34:49.
