data_PCOD9560716
_publ_section_title
;
Structure prediction by ZEFSAII (Michael W. Deem and Ramdas Pophale) SiO2 
 PCOD9560716
Probable space group: I -4 2 D
;
_chemical_formula_sum "Si O2"
_cell_formula_units_Z 120
_cell_length_a 18.065276
_cell_length_b 18.065276
_cell_length_c 18.778277
_cell_angle_alpha 90.000000
_cell_angle_beta 90.000000
_cell_angle_gamma 90.000000
_cell_volume 6128.369511
_symmetry_space_group_name_H-M "I -4 2 D"
_symmetry_group_IT_number 122
_symmetry_cell_setting 'tetragonal'
loop_
_space_group_symop_operation_xyz
x,y,z
y,-x,-z
-x,-y,z
-y,x,-z
x,1/2-y,1/4-z
-x,1/2+y,1/4-z
-y,1/2-x,1/4+z
y,1/2+x,1/4+z
1/2+x,1/2+y,1/2+z
1/2+y,1/2-x,1/2-z
1/2-x,1/2-y,1/2+z
1/2-y,1/2+x,1/2-z
1/2+x,-y,3/4-z
1/2-x,y,3/4-z
1/2-y,-x,3/4+z
1/2+y,x,3/4+z
loop_
_atom_site_type_symbol
_atom_site_label
_atom_site_fract_x
_atom_site_fract_y
_atom_site_fract_z
Si Si1 0.401891 0.274532 0.300095
Si Si2 0.850571 0.179706 0.879590
Si Si3 0.380764 0.195662 0.437351
Si Si4 0.746601 0.762457 0.736878
Si Si5 0.190831 0.960285 0.969767
Si Si6 0.500000 0.500000 0.683578
Si Si7 0.589658 0.389780 0.592290
Si Si8 0.543429 0.347351 0.259699
O O1 0.413077 0.210812 0.359507
O O2 0.330933 0.252820 0.254645
O O3 0.380818 0.348125 0.346493
O O4 0.473022 0.294142 0.251914
O O5 0.840315 0.230888 0.948406
O O6 0.797617 0.215454 0.819488
O O7 0.824568 0.099611 0.907437
O O8 0.927431 0.172791 0.839523
O O9 0.308235 0.248440 0.447353
O O10 0.439102 0.230066 0.494518
O O11 0.352082 0.113563 0.456695
O O12 0.177759 0.043344 0.942306
O O13 0.130076 0.938005 0.030508
O O14 0.525093 0.435218 0.631162
O O15 0.431001 0.482536 0.732910
#
# Coordination Sequence:
#
# PCOD9560716 Si02
#       8
#    16  16  16  16  16   8  16  16
#     4  10  21  36  58  86 114 149 201 254 293 340
#     4   9  18  34  59  76 110 156 184 231 296 336
#     4   9  20  36  57  78 114 157 196 237 291 347
#     4   9  18  37  59  78 109 148 192 245 277 347
#     4  10  18  31  52  83 119 165 196 212 268 343
#     4  10  18  33  48  72 128 160 191 236 272 330
#     4  10  19  29  51  81 120 159 193 224 263 343
#     4  10  20  37  53  83 118 159 193 236 300 346
#
# _framework density 19.581064999999999
#
# number of rings (size 3 to 8) (size 9 to 14) (size 15 to 20)
#    0.000    2.400    1.333    2.000    3.733    0.000 
#    4.800    5.333   11.733    0.000    0.000    0.000 
#    0.000    0.000    0.000    0.000    0.000    0.000 
#
# Total GULP energy -334197.537285 kJ/mol
# GULP energy per Si atom -5569.958955 kJ/mol
# Density = 1.953650 g / cm^3
# Si number density = 19.581065 Si / 1000 Ang^3
#
#
#
# Elastic Constant Matrix: (Units=GPa)
#
#
# Indices 1 2 3 4 5 6 
#
# 1 66.8532 1.4942 15.5754 0.0000 0.0000 0.0000
# 2 1.4942 66.8532 15.5754 0.0000 0.0000 0.0000
# 3 15.5754 15.5754 35.9278 0.0000 0.0000 0.0000
# 4 0.0000 0.0000 0.0000 10.8692 0.0000 0.0000
# 5 0.0000 0.0000 0.0000 0.0000 10.8692 0.0000
# 6 0.0000 0.0000 0.0000 0.0000 0.0000 21.4529
#
#
#
# Elastic Compliance Matrix: (Units=1/GPa)
#
#
# Indices 1 2 3 4 5 6 
#
# 1 0.016767 0.001467 -0.007905 0.000000 0.000000 0.000000
# 2 0.001467 0.016767 -0.007905 0.000000 0.000000 0.000000
# 3 -0.007905 -0.007905 0.034687 0.000000 0.000000 0.000000
# 4 0.000000 0.000000 0.000000 0.092003 0.000000 0.000000
# 5 0.000000 0.000000 0.000000 0.000000 0.092003 0.000000
# 6 0.000000 0.000000 0.000000 0.000000 0.000000 0.046614
#
#
# Mechanical properties :
#
#
# Convention : Reuss Voigt Hill
#
# Bulk Modulus (GPa) = 25.29333 26.10269 25.69801
# Shear Modulus (GPa) = 14.67545 17.77089 16.22317
#
# Velocity S-wave (km/s) = 2.74062 3.01583 2.88151
# Velocity P-wave (km/s) = 4.79165 5.04842 4.92171
#
# Compressibility (1/GPa) = 0.03953612
#
# Stress axis : x y z
#
# Youngs Moduli (GPa) = 59.64103 59.64102 28.82904
#
# Poissons Ratio (x) = -0.08749 0.22789
# Poissons Ratio (y) = -0.08749 0.22789
# Poissons Ratio (z) = 0.47145 0.47145
#
# Static dielectric constant tensor:
#      x y z
#    x 1.743840 0.000000 0.000000 
#    y 0.000000 1.743840 0.000000 
#    z 0.000000 0.000000 1.739510 
# 
# From -- ./inp_files/7505.got.cif
#   From: 2010.05.17/outbox.cif.g08.bks.cpg/sg122_4_cif.got.tgz:7505.got - 2010.05.20 11:37:33.
