data_PCOD9560349
_publ_section_title
;
Structure prediction by ZEFSAII (Michael W. Deem and Ramdas Pophale) SiO2 
 PCOD9560349
Probable space group: I -4 2 M
;
_chemical_formula_sum "Si O2"
_cell_formula_units_Z 88
_cell_length_a 13.222098
_cell_length_b 13.222098
_cell_length_c 25.513715
_cell_angle_alpha 90.000000
_cell_angle_beta 90.000000
_cell_angle_gamma 90.000000
_cell_volume 4460.406535
_symmetry_space_group_name_H-M "I -4 2 M"
_symmetry_group_IT_number 121
_symmetry_cell_setting 'tetragonal'
loop_
_space_group_symop_operation_xyz
x,y,z
y,-x,-z
-x,-y,z
-y,x,-z
x,-y,-z
-x,y,-z
-y,-x,z
y,x,z
1/2+x,1/2+y,1/2+z
1/2+y,1/2-x,1/2-z
1/2-x,1/2-y,1/2+z
1/2-y,1/2+x,1/2-z
1/2+x,1/2-y,1/2-z
1/2-x,1/2+y,1/2-z
1/2-y,1/2-x,1/2+z
1/2+y,1/2+x,1/2+z
loop_
_atom_site_type_symbol
_atom_site_label
_atom_site_fract_x
_atom_site_fract_y
_atom_site_fract_z
Si Si1 0.000000 0.170124 0.000000
Si Si2 0.887024 0.478270 0.894662
Si Si3 0.163544 0.000182 0.562960
Si Si4 0.646101 0.021316 0.722649
Si Si5 0.994479 0.834698 0.785305
Si Si6 0.926552 0.245893 0.891284
O O1 0.016349 0.232156 0.053287
O O2 0.903673 0.096328 0.006811
O O3 0.781562 0.506346 0.922382
O O4 0.881675 0.530715 0.837774
O O5 0.883803 0.357795 0.887303
O O6 0.000000 0.500000 0.917564
O O7 0.102054 0.102054 0.580429
O O8 0.159376 0.000000 0.500000
O O9 0.095326 0.904675 0.581339
O O10 0.603686 0.914474 0.743862
O O11 0.762455 0.022213 0.737408
O O12 0.885728 0.885728 0.779385
O O13 0.004367 0.776689 0.840693
O O14 0.076538 0.923463 0.787847
O O15 0.836911 0.163090 0.890922
#
# Coordination Sequence:
#
# PCOD9560349 Si02
#       6
#     8  16  16  16  16  16
#     4   9  18  34  57  82 116 158 193 234 288 359
#     4  12  23  38  63  90 122 160 203 256 311 375
#     4   9  21  44  69  92 124 167 213 262 314 368
#     4  11  21  41  59  78 114 159 201 241 298 363
#     4  10  21  36  57  87 118 150 198 254 300 355
#     4  10  20  36  57  85 118 158 199 239 299 368
#
# _framework density 19.729143000000001
#
# number of rings (size 3 to 8) (size 9 to 14) (size 15 to 20)
#    0.000    1.727    3.636    1.636    0.000    6.909 
#    0.000    7.273    0.000    0.000    0.000    0.000 
#    0.000    0.000    0.000    0.000    0.000    0.000 
#
# Total GULP energy -245411.274670 kJ/mol
# GULP energy per Si atom -5577.528970 kJ/mol
# Density = 1.968424 g / cm^3
# Si number density = 19.729143 Si / 1000 Ang^3
#
#
#
# Elastic Constant Matrix: (Units=GPa)
#
#
# Indices 1 2 3 4 5 6 
#
# 1 86.9127 27.0280 14.4657 0.0000 0.0000 0.0000
# 2 27.0280 86.9129 14.4662 0.0000 0.0000 0.0000
# 3 14.4657 14.4662 30.4878 0.0000 0.0000 0.0000
# 4 0.0000 0.0000 0.0000 27.7822 0.0000 0.0000
# 5 0.0000 0.0000 0.0000 0.0000 27.7821 0.0000
# 6 0.0000 0.0000 0.0000 0.0000 0.0000 -10.5274
#
#
#
# Elastic Compliance Matrix: (Units=1/GPa)
#
#
# Indices 1 2 3 4 5 6 
#
# 1 0.013339 -0.003360 -0.004735 0.000000 0.000000 0.000000
# 2 -0.003360 0.013339 -0.004735 0.000000 0.000000 0.000000
# 3 -0.004735 -0.004735 0.037293 0.000000 0.000000 0.000000
# 4 0.000000 0.000000 0.000000 0.035994 0.000000 0.000000
# 5 0.000000 0.000000 0.000000 0.000000 0.035994 0.000000
# 6 0.000000 0.000000 0.000000 0.000000 0.000000 -0.094990
#
#
# Mechanical properties :
#
#
# Convention : Reuss Voigt Hill
#
# Bulk Modulus (GPa) = 26.10177 35.13703 30.61940
# Shear Modulus (GPa) = 62.97343 18.89762 40.93552
#
# Velocity S-wave (km/s) = 5.65582 3.09828 4.56002
# Velocity P-wave (km/s) = 7.47729 5.53602 6.57865
#
# Compressibility (1/GPa) = 0.03831158
#
# Stress axis : x y z
#
# Youngs Moduli (GPa) = 74.96980 74.96953 26.81463
#
# Poissons Ratio (x) = 0.25190 0.12696
# Poissons Ratio (y) = 0.25190 0.12696
# Poissons Ratio (z) = 0.35495 0.35497
#
# Static dielectric constant tensor:
#      x y z
#    x 1.704040 0.000000 0.000000 
#    y 0.000000 1.704040 0.000000 
#    z 0.000000 0.000000 1.698440 
# 
# From -- ./inp_files/8239.got.cif
#   From: 2010.05.17/outbox.cif.g08.bks.cpg/sg121_5_cif.got.tgz:8239.got - 2010.05.20 11:32:06.
