data_PCOD9560431
_publ_section_title
;
Structure prediction by ZEFSAII (Michael W. Deem and Ramdas Pophale) SiO2 
 PCOD9560431
Probable space group: I -4 2 M
;
_chemical_formula_sum "Si O2"
_cell_formula_units_Z 88
_cell_length_a 11.771809
_cell_length_b 11.771809
_cell_length_c 28.900182
_cell_angle_alpha 90.000000
_cell_angle_beta 90.000000
_cell_angle_gamma 90.000000
_cell_volume 4004.856799
_symmetry_space_group_name_H-M "I -4 2 M"
_symmetry_group_IT_number 121
_symmetry_cell_setting 'tetragonal'
loop_
_space_group_symop_operation_xyz
x,y,z
y,-x,-z
-x,-y,z
-y,x,-z
x,-y,-z
-x,y,-z
-y,-x,z
y,x,z
1/2+x,1/2+y,1/2+z
1/2+y,1/2-x,1/2-z
1/2-x,1/2-y,1/2+z
1/2-y,1/2+x,1/2-z
1/2+x,1/2-y,1/2-z
1/2-x,1/2+y,1/2-z
1/2-y,1/2-x,1/2+z
1/2+y,1/2+x,1/2+z
loop_
_atom_site_type_symbol
_atom_site_label
_atom_site_fract_x
_atom_site_fract_y
_atom_site_fract_z
Si Si1 0.494579 0.318844 0.063023
Si Si2 0.500000 0.688723 0.500000
Si Si3 0.874639 0.501062 0.663593
Si Si4 0.504916 0.689485 0.742089
Si Si5 0.747158 0.070082 0.338644
Si Si6 0.666009 0.141541 0.071871
O O1 0.583697 0.416304 0.049763
O O2 0.369540 0.369540 0.050369
O O3 0.492126 0.306336 0.118662
O O4 0.553726 0.199954 0.049272
O O5 0.603560 0.603560 0.514362
O O6 0.549985 0.769525 0.459989
O O7 0.778272 0.485322 0.701297
O O8 0.876570 0.629355 0.644692
O O9 0.864881 0.414993 0.620951
O O10 0.000000 0.500000 0.685477
O O11 0.406985 0.593016 0.740634
O O12 0.623251 0.623251 0.736203
O O13 0.503242 0.751326 0.791927
O O14 0.823863 0.176138 0.325854
O O15 0.756299 0.243702 0.079130
#
# Coordination Sequence:
#
# PCOD9560431 Si02
#       6
#    16   8  16  16  16  16
#     4   9  17  33  59  89 122 165 212 256 308 374
#     4   9  20  40  69 102 134 168 209 261 332 410
#     4  12  24  37  56  90 127 164 205 263 323 385
#     4  10  23  42  61  83 116 168 226 274 322 379
#     4  10  21  36  56  83 120 163 213 265 316 372
#     4  10  21  40  65  95 130 168 208 256 319 394
#
# _framework density 21.973320999999999
#
# number of rings (size 3 to 8) (size 9 to 14) (size 15 to 20)
#    0.000    1.909    1.818    1.636    2.545    3.636 
#    0.000    2.273    0.000    0.000    0.000    3.818 
#    0.000   11.636    0.000    0.000    0.000    0.000 
#
# Total GULP energy -245398.420669 kJ/mol
# GULP energy per Si atom -5577.236833 kJ/mol
# Density = 2.192331 g / cm^3
# Si number density = 21.973321 Si / 1000 Ang^3
#
#
#
# Elastic Constant Matrix: (Units=GPa)
#
#
# Indices 1 2 3 4 5 6 
#
# 1 105.1112 39.5007 47.9088 0.0000 0.0000 0.0000
# 2 39.5007 105.1119 47.9076 0.0000 0.0000 0.0000
# 3 47.9088 47.9076 109.9649 0.0000 0.0000 0.0000
# 4 0.0000 0.0000 0.0000 3.3474 0.0000 0.0000
# 5 0.0000 0.0000 0.0000 0.0000 3.3522 0.0000
# 6 0.0000 0.0000 0.0000 0.0000 0.0000 26.2253
#
#
#
# Elastic Compliance Matrix: (Units=1/GPa)
#
#
# Indices 1 2 3 4 5 6 
#
# 1 0.012481 -0.002760 -0.004235 0.000000 0.000000 0.000000
# 2 -0.002760 0.012481 -0.004235 0.000000 0.000000 0.000000
# 3 -0.004235 -0.004235 0.012784 0.000000 0.000000 0.000000
# 4 0.000000 0.000000 0.000000 0.298740 0.000000 0.000000
# 5 0.000000 0.000000 0.000000 0.000000 0.298313 0.000000
# 6 0.000000 0.000000 0.000000 0.000000 0.000000 0.038131
#
#
# Mechanical properties :
#
#
# Convention : Reuss Voigt Hill
#
# Bulk Modulus (GPa) = 65.42090 65.64690 65.53390
# Shear Modulus (GPa) = 7.13789 18.90970 13.02379
#
# Velocity S-wave (km/s) = 1.80430 2.93674 2.43720
# Velocity P-wave (km/s) = 5.84621 6.43738 6.14890
#
# Compressibility (1/GPa) = 0.01528563
#
# Stress axis : x y z
#
# Youngs Moduli (GPa) = 80.11915 80.12081 78.22222
#
# Poissons Ratio (x) = 0.22114 0.33130
# Poissons Ratio (y) = 0.22114 0.33128
# Poissons Ratio (z) = 0.33933 0.33932
#
# Static dielectric constant tensor:
#      x y z
#    x 1.846680 0.000000 0.000000 
#    y 0.000000 1.846680 0.000000 
#    z 0.000000 0.000000 1.769680 
# 
# From -- ./inp_files/8157.got.cif
#   From: 2010.05.17/outbox.cif.g08.bks.cpg/sg121_5_cif.got.tgz:8157.got - 2010.05.20 11:32:06.
