data_PCOD9560626
_publ_section_title
;
Structure prediction by ZEFSAII (Michael W. Deem and Ramdas Pophale) SiO2 
 PCOD9560626
Probable space group: I -4 2 M
;
_chemical_formula_sum "Si O2"
_cell_formula_units_Z 62
_cell_length_a 11.411072
_cell_length_b 11.411072
_cell_length_c 24.295115
_cell_angle_alpha 90.000000
_cell_angle_beta 90.000000
_cell_angle_gamma 90.000000
_cell_volume 3163.529221
_symmetry_space_group_name_H-M "I -4 2 M"
_symmetry_group_IT_number 121
_symmetry_cell_setting 'tetragonal'
loop_
_space_group_symop_operation_xyz
x,y,z
y,-x,-z
-x,-y,z
-y,x,-z
x,-y,-z
-x,y,-z
-y,-x,z
y,x,z
1/2+x,1/2+y,1/2+z
1/2+y,1/2-x,1/2-z
1/2-x,1/2-y,1/2+z
1/2-y,1/2+x,1/2-z
1/2+x,1/2-y,1/2-z
1/2-x,1/2+y,1/2-z
1/2-y,1/2-x,1/2+z
1/2+y,1/2+x,1/2+z
loop_
_atom_site_type_symbol
_atom_site_label
_atom_site_fract_x
_atom_site_fract_y
_atom_site_fract_z
Si Si1 0.409284 0.409284 0.230969
Si Si2 0.500000 0.500000 0.500000
Si Si3 0.859570 0.859570 0.436593
Si Si4 0.000000 0.500000 0.750000
Si Si5 0.374658 0.625343 0.932665
Si Si6 0.755626 0.755626 0.652289
Si Si7 0.221496 0.510477 0.681969
Si Si8 0.838545 0.161456 0.086241
O O1 0.500000 0.500000 0.206730
O O2 0.340651 0.340651 0.185123
O O3 0.473628 0.318611 0.271098
O O4 0.415085 0.584916 0.540077
O O5 0.872407 0.872407 0.501916
O O6 0.760123 0.760123 0.429245
O O7 0.992861 0.837046 0.415503
O O8 0.100399 0.551696 0.709991
O O9 0.281875 0.718126 0.910713
O O10 0.787634 0.625088 0.668114
O O11 0.267689 0.574280 0.627172
#
# Coordination Sequence:
#
# PCOD9560626 Si02
#       8
#     8   2   8   4   8   8  16   8
#     4  11  23  41  61  91 129 172 220 267 328 398
#     4  12  28  52  68 100 140 192 240 312 360 406
#     4   9  21  46  66  97 130 167 222 284 344 402
#     4  12  24  44  64 102 148 176 224 288 344 394
#     4   9  22  42  70  96 129 169 217 282 344 412
#     4  12  23  40  68  92 128 180 222 269 342 413
#     4  11  25  42  64  96 137 178 220 280 334 409
#     4  11  27  45  72  99 137 183 237 286 352 420
#
# _framework density 19.598365000000001
#
# number of rings (size 3 to 8) (size 9 to 14) (size 15 to 20)
#    0.000    1.290    3.871    1.548   10.839    0.000 
#    0.000    0.000    0.000    0.000    0.000    0.000 
#    0.000    0.000    0.000    0.000    0.000    0.000 
#
# Total GULP energy -172767.560165 kJ/mol
# GULP energy per Si atom -5573.147102 kJ/mol
# Density = 1.955376 g / cm^3
# Si number density = 19.598365 Si / 1000 Ang^3
#
#
#
# Elastic Constant Matrix: (Units=GPa)
#
#
# Indices 1 2 3 4 5 6 
#
# 1 115.0276 54.6869 47.1255 0.0000 0.0000 0.0000
# 2 54.6869 115.0276 47.1252 0.0000 0.0000 0.0000
# 3 47.1255 47.1252 88.0337 0.0000 0.0000 0.0000
# 4 0.0000 0.0000 0.0000 18.9314 0.0000 0.0000
# 5 0.0000 0.0000 0.0000 0.0000 18.9318 0.0000
# 6 0.0000 0.0000 0.0000 0.0000 0.0000 40.4035
#
#
#
# Elastic Compliance Matrix: (Units=1/GPa)
#
#
# Indices 1 2 3 4 5 6 
#
# 1 0.012479 -0.004094 -0.004489 0.000000 0.000000 0.000000
# 2 -0.004094 0.012479 -0.004489 0.000000 0.000000 0.000000
# 3 -0.004489 -0.004489 0.016165 0.000000 0.000000 0.000000
# 4 0.000000 0.000000 0.000000 0.052822 0.000000 0.000000
# 5 0.000000 0.000000 0.000000 0.000000 0.052821 0.000000
# 6 0.000000 0.000000 0.000000 0.000000 0.000000 0.024750
#
#
# Mechanical properties :
#
#
# Convention : Reuss Voigt Hill
#
# Bulk Modulus (GPa) = 66.75336 68.44048 67.59692
# Shear Modulus (GPa) = 24.67290 26.93010 25.80150
#
# Velocity S-wave (km/s) = 3.55198 3.71091 3.63231
# Velocity P-wave (km/s) = 7.13840 7.30469 7.22202
#
# Compressibility (1/GPa) = 0.01498052
#
# Stress axis : x y z
#
# Youngs Moduli (GPa) = 80.13594 80.13629 61.86269
#
# Poissons Ratio (x) = 0.32806 0.27768
# Poissons Ratio (y) = 0.32806 0.27767
# Poissons Ratio (z) = 0.35970 0.35969
#
# Static dielectric constant tensor:
#      x y z
#    x 1.708580 0.000000 0.000000 
#    y 0.000000 1.708580 0.000000 
#    z 0.000000 0.000000 1.703710 
# 
# From -- ./inp_files/7005.got.cif
#   From: 2010.05.17/outbox.cif.g08.bks.cpg/sg121_4_cif.got.tgz:7005.got - 2010.05.20 11:32:06.
