data_PCOD9560284
_publ_section_title
;
Structure prediction by ZEFSAII (Michael W. Deem and Ramdas Pophale) SiO2 
 PCOD9560284
Probable space group: I -4 2 M
;
_chemical_formula_sum "Si O2"
_cell_formula_units_Z 98
_cell_length_a 15.927959
_cell_length_b 15.927959
_cell_length_c 23.889018
_cell_angle_alpha 90.000000
_cell_angle_beta 90.000000
_cell_angle_gamma 90.000000
_cell_volume 6060.640950
_symmetry_space_group_name_H-M "I -4 2 M"
_symmetry_group_IT_number 121
_symmetry_cell_setting 'tetragonal'
loop_
_space_group_symop_operation_xyz
x,y,z
y,-x,-z
-x,-y,z
-y,x,-z
x,-y,-z
-x,y,-z
-y,-x,z
y,x,z
1/2+x,1/2+y,1/2+z
1/2+y,1/2-x,1/2-z
1/2-x,1/2-y,1/2+z
1/2-y,1/2+x,1/2-z
1/2+x,1/2-y,1/2-z
1/2-x,1/2+y,1/2-z
1/2-y,1/2-x,1/2+z
1/2+y,1/2+x,1/2+z
loop_
_atom_site_type_symbol
_atom_site_label
_atom_site_fract_x
_atom_site_fract_y
_atom_site_fract_z
Si Si1 0.733426 0.868641 0.031408
Si Si2 0.000000 0.000000 0.000000
Si Si3 0.640280 0.500000 0.000000
Si Si4 0.365952 0.943044 0.312430
Si Si5 0.126843 0.551246 0.687013
Si Si6 0.244602 0.104785 0.586263
Si Si7 0.067001 0.933000 0.108129
Si Si8 0.754016 0.548596 0.411731
O O1 0.816016 0.816016 0.048248
O O2 0.654352 0.809815 0.045830
O O3 0.727876 0.955184 0.065364
O O4 0.741694 0.892324 0.966208
O O5 0.944478 0.055523 0.040655
O O6 0.698497 0.531501 0.051187
O O7 0.578329 0.421672 0.014182
O O8 0.450764 0.887851 0.318674
O O9 0.335402 0.931528 0.248471
O O10 0.297651 0.924434 0.359827
O O11 0.401958 0.037619 0.315537
O O12 0.181355 0.577957 0.634716
O O13 0.172704 0.172704 0.601973
O O14 0.047088 0.836813 0.117521
O O15 0.000000 0.000000 0.131650
#
# Coordination Sequence:
#
# PCOD9560284 Si02
#       8
#    16   2   8  16  16  16   8  16
#     4  10  20  31  47  76 112 137 170 215 259 310
#     4   8  16  32  48  72  92 156 188 180 244 314
#     4   9  20  38  58  77 100 136 176 211 268 338
#     4   9  18  38  55  78 102 137 181 211 276 323
#     4   9  19  34  59  75 104 141 173 223 260 323
#     4  10  20  35  56  78 103 137 171 223 271 317
#     4  10  20  30  50  70 107 156 182 203 241 320
#     4  11  19  32  49  79 105 145 179 215 254 306
#
# _framework density 16.169906999999998
#
# number of rings (size 3 to 8) (size 9 to 14) (size 15 to 20)
#    0.245    2.041    2.449    2.449    2.286    0.000 
#    1.469    0.000    0.000    2.939    0.000    0.000 
#    0.000    0.000    0.000    0.000    0.000    0.000 
#
# Total GULP energy -272885.584666 kJ/mol
# GULP energy per Si atom -5569.093565 kJ/mol
# Density = 1.613310 g / cm^3
# Si number density = 16.169907 Si / 1000 Ang^3
#
#
#
# Elastic Constant Matrix: (Units=GPa)
#
#
# Indices 1 2 3 4 5 6 
#
# 1 58.8540 14.6013 37.6835 0.0000 0.0000 0.0000
# 2 14.6013 58.8536 37.6836 0.0000 0.0000 0.0000
# 3 37.6835 37.6836 88.6390 0.0000 0.0000 0.0000
# 4 0.0000 0.0000 0.0000 19.9020 0.0000 0.0000
# 5 0.0000 0.0000 0.0000 0.0000 19.9003 0.0000
# 6 0.0000 0.0000 0.0000 0.0000 0.0000 15.1719
#
#
#
# Elastic Compliance Matrix: (Units=1/GPa)
#
#
# Indices 1 2 3 4 5 6 
#
# 1 0.023372 0.000774 -0.010265 0.000000 0.000000 0.000000
# 2 0.000774 0.023372 -0.010266 0.000000 0.000000 0.000000
# 3 -0.010265 -0.010266 0.020010 0.000000 0.000000 0.000000
# 4 0.000000 0.000000 0.000000 0.050246 0.000000 0.000000
# 5 0.000000 0.000000 0.000000 0.000000 0.050250 0.000000
# 6 0.000000 0.000000 0.000000 0.000000 0.000000 0.065911
#
#
# Mechanical properties :
#
#
# Convention : Reuss Voigt Hill
#
# Bulk Modulus (GPa) = 36.70925 42.92037 39.81481
# Shear Modulus (GPa) = 17.74585 18.75338 18.24961
#
# Velocity S-wave (km/s) = 3.31639 3.40923 3.36313
# Velocity P-wave (km/s) = 6.11687 6.48831 6.30532
#
# Compressibility (1/GPa) = 0.02724109
#
# Stress axis : x y z
#
# Youngs Moduli (GPa) = 42.78633 42.78590 49.97451
#
# Poissons Ratio (x) = -0.03314 0.51301
# Poissons Ratio (y) = -0.03314 0.51302
# Poissons Ratio (z) = 0.43922 0.43922
#
# Static dielectric constant tensor:
#      x y z
#    x 1.620340 0.000000 0.000000 
#    y 0.000000 1.620360 0.000000 
#    z 0.000000 0.000000 1.524900 
# 
# From -- ./inp_files/7170.got.cif
#   From: 2010.05.17/outbox.cif.g08.bks.cpg/sg121_4_cif.got.tgz:7170.got - 2010.05.20 11:32:06.
