data_PCOD9560545
_publ_section_title
;
Structure prediction by ZEFSAII (Michael W. Deem and Ramdas Pophale) SiO2 
 PCOD9560545
Probable space group: I -4 2 M
;
_chemical_formula_sum "Si O2"
_cell_formula_units_Z 60
_cell_length_a 18.780425
_cell_length_b 18.780425
_cell_length_c 7.703176
_cell_angle_alpha 90.000000
_cell_angle_beta 90.000000
_cell_angle_gamma 90.000000
_cell_volume 2716.943786
_symmetry_space_group_name_H-M "I -4 2 M"
_symmetry_group_IT_number 121
_symmetry_cell_setting 'tetragonal'
loop_
_space_group_symop_operation_xyz
x,y,z
y,-x,-z
-x,-y,z
-y,x,-z
x,-y,-z
-x,y,-z
-y,-x,z
y,x,z
1/2+x,1/2+y,1/2+z
1/2+y,1/2-x,1/2-z
1/2-x,1/2-y,1/2+z
1/2-y,1/2+x,1/2-z
1/2+x,1/2-y,1/2-z
1/2-x,1/2+y,1/2-z
1/2-y,1/2-x,1/2+z
1/2+y,1/2+x,1/2+z
loop_
_atom_site_type_symbol
_atom_site_label
_atom_site_fract_x
_atom_site_fract_y
_atom_site_fract_z
Si Si1 0.000000 0.500000 0.250000
Si Si2 0.917101 0.082900 0.955278
Si Si3 0.188413 0.603221 0.656916
Si Si4 0.846601 0.548965 0.706957
Si Si5 0.416730 0.583271 0.045614
Si Si6 0.333511 0.666490 0.751958
O O1 0.070384 0.531635 0.341152
O O2 0.905258 0.094743 0.750727
O O3 0.870434 0.129567 0.084777
O O4 0.000000 0.096595 0.000000
O O5 0.184111 0.527493 0.758581
O O6 0.196103 0.578499 0.458005
O O7 0.113683 0.645041 0.662081
O O8 0.250710 0.649457 0.734895
O O9 0.500000 0.596599 0.000000
O O10 0.368169 0.631832 0.922814
#
# Coordination Sequence:
#
# PCOD9560545 Si02
#       6
#     4   8  16  16   8   8
#     4   8  16  34  68 102 120 178 252 282 318 420
#     4  11  21  41  70  94 130 177 232 299 333 385
#     4  10  23  41  65  95 136 176 230 276 343 413
#     4   9  20  40  65  95 134 179 224 287 339 401
#     4  11  21  41  68  98 128 175 242 291 329 393
#     4  12  26  43  66 104 140 175 228 280 346 428
#
# _framework density 22.083637
#
# number of rings (size 3 to 8) (size 9 to 14) (size 15 to 20)
#    0.000    1.867    2.667    0.800    3.733   17.067 
#    9.600    0.000    0.000    0.000    0.000    0.000 
#    0.000    0.000    0.000    0.000    0.000    0.000 
#
# Total GULP energy -167445.368790 kJ/mol
# GULP energy per Si atom -5581.512293 kJ/mol
# Density = 2.203337 g / cm^3
# Si number density = 22.083637 Si / 1000 Ang^3
#
#
#
# Elastic Constant Matrix: (Units=GPa)
#
#
# Indices 1 2 3 4 5 6 
#
# 1 73.8187 56.1829 16.2925 0.0000 0.0000 0.0000
# 2 56.1829 73.8196 16.2934 0.0000 0.0000 0.0000
# 3 16.2925 16.2934 106.2306 0.0000 0.0000 0.0000
# 4 0.0000 0.0000 0.0000 24.2800 0.0000 0.0000
# 5 0.0000 0.0000 0.0000 0.0000 24.2820 0.0000
# 6 0.0000 0.0000 0.0000 0.0000 0.0000 34.4796
#
#
#
# Elastic Compliance Matrix: (Units=1/GPa)
#
#
# Indices 1 2 3 4 5 6 
#
# 1 0.032351 -0.024351 -0.001227 0.000000 0.000000 0.000000
# 2 -0.024351 0.032350 -0.001227 0.000000 0.000000 0.000000
# 3 -0.001227 -0.001227 0.009790 0.000000 0.000000 0.000000
# 4 0.000000 0.000000 0.000000 0.041186 0.000000 0.000000
# 5 0.000000 0.000000 0.000000 0.000000 0.041183 0.000000
# 6 0.000000 0.000000 0.000000 0.000000 0.000000 0.029003
#
#
# Mechanical properties :
#
#
# Convention : Reuss Voigt Hill
#
# Bulk Modulus (GPa) = 47.88924 47.93406 47.91165
# Shear Modulus (GPa) = 20.28953 27.61502 23.95227
#
# Velocity S-wave (km/s) = 3.03439 3.54004 3.29692
# Velocity P-wave (km/s) = 5.83174 6.20177 6.01960
#
# Compressibility (1/GPa) = 0.02088152
#
# Stress axis : x y z
#
# Youngs Moduli (GPa) = 30.91118 30.91148 102.14667
#
# Poissons Ratio (x) = 0.75272 0.12531
# Poissons Ratio (y) = 0.75271 0.12535
# Poissons Ratio (z) = 0.03792 0.03793
#
# Static dielectric constant tensor:
#      x y z
#    x 1.813800 0.000000 0.000000 
#    y 0.000000 1.813810 0.000000 
#    z 0.000000 0.000000 1.837300 
# 
# From -- ./inp_files/1422.got.cif
#   From: 2010.05.17/outbox.cif.g08.bks.cpg/sg121_1_cif.got.tgz:1422.got - 2010.05.20 11:32:06.
