data_PCOD9560504
_publ_section_title
;
Structure prediction by ZEFSAII (Michael W. Deem and Ramdas Pophale) SiO2 
 PCOD9560504
Probable space group: I -4 2 M
;
_chemical_formula_sum "Si O2"
_cell_formula_units_Z 80
_cell_length_a 18.533569
_cell_length_b 18.533569
_cell_length_c 13.782768
_cell_angle_alpha 90.000000
_cell_angle_beta 90.000000
_cell_angle_gamma 90.000000
_cell_volume 4734.286808
_symmetry_space_group_name_H-M "I -4 2 M"
_symmetry_group_IT_number 121
_symmetry_cell_setting 'tetragonal'
loop_
_space_group_symop_operation_xyz
x,y,z
y,-x,-z
-x,-y,z
-y,x,-z
x,-y,-z
-x,y,-z
-y,-x,z
y,x,z
1/2+x,1/2+y,1/2+z
1/2+y,1/2-x,1/2-z
1/2-x,1/2-y,1/2+z
1/2-y,1/2+x,1/2-z
1/2+x,1/2-y,1/2-z
1/2-x,1/2+y,1/2-z
1/2-y,1/2-x,1/2+z
1/2+y,1/2+x,1/2+z
loop_
_atom_site_type_symbol
_atom_site_label
_atom_site_fract_x
_atom_site_fract_y
_atom_site_fract_z
Si Si1 0.639225 0.104634 0.319793
Si Si2 0.618152 0.504067 0.615464
Si Si3 0.226071 0.105725 0.820267
Si Si4 0.036765 0.420490 0.363988
Si Si5 0.823207 0.415581 0.503905
O O1 0.713448 0.111730 0.262167
O O2 0.576484 0.095668 0.238349
O O3 0.618898 0.165446 0.398188
O O4 0.636003 0.027645 0.373556
O O5 0.633101 0.500000 0.500000
O O6 0.554819 0.445182 0.631814
O O7 0.581829 0.581829 0.637588
O O8 0.687005 0.472738 0.672211
O O9 0.164797 0.164797 0.805052
O O10 0.265403 0.119141 0.923669
O O11 0.099459 0.414429 0.442285
O O12 0.000000 0.500000 0.370021
O O13 0.804632 0.500000 0.500000
#
# Coordination Sequence:
#
# PCOD9560504 Si02
#       5
#    16  16  16  16  16
#     4  11  19  31  50  74 103 136 166 212 258 309
#     4   8  14  28  51  73  94 126 171 223 266 297
#     4  10  22  35  47  72 108 142 178 211 252 318
#     4  11  18  30  50  79 106 123 161 217 260 303
#     4  11  21  31  53  78 103 131 172 213 266 310
#
# _framework density 16.898004
#
# number of rings (size 3 to 8) (size 9 to 14) (size 15 to 20)
#    0.000    1.800    4.000    3.000    0.000    0.800 
#    0.000    0.000    0.000    9.600    0.000    1.400 
#    0.000    0.000    0.000    0.000    0.000   38.600 
#
# Total GULP energy -222889.028245 kJ/mol
# GULP energy per Si atom -5572.225706 kJ/mol
# Density = 1.685954 g / cm^3
# Si number density = 16.898004 Si / 1000 Ang^3
#
#
#
# Elastic Constant Matrix: (Units=GPa)
#
#
# Indices 1 2 3 4 5 6 
#
# 1 80.0724 30.9924 28.6507 0.0000 0.0000 0.0000
# 2 30.9924 80.0726 28.6507 0.0000 0.0000 0.0000
# 3 28.6507 28.6507 72.0569 0.0000 0.0000 0.0000
# 4 0.0000 0.0000 0.0000 13.7017 0.0000 0.0000
# 5 0.0000 0.0000 0.0000 0.0000 13.7019 0.0000
# 6 0.0000 0.0000 0.0000 0.0000 0.0000 16.9436
#
#
#
# Elastic Compliance Matrix: (Units=1/GPa)
#
#
# Indices 1 2 3 4 5 6 
#
# 1 0.015851 -0.004524 -0.004504 0.000000 0.000000 0.000000
# 2 -0.004524 0.015851 -0.004504 0.000000 0.000000 0.000000
# 3 -0.004504 -0.004504 0.017460 0.000000 0.000000 0.000000
# 4 0.000000 0.000000 0.000000 0.072983 0.000000 0.000000
# 5 0.000000 0.000000 0.000000 0.000000 0.072982 0.000000
# 6 0.000000 0.000000 0.000000 0.000000 0.000000 0.059019
#
#
# Mechanical properties :
#
#
# Convention : Reuss Voigt Hill
#
# Bulk Modulus (GPa) = 45.25149 45.42107 45.33628
# Shear Modulus (GPa) = 17.32642 18.46332 17.89487
#
# Velocity S-wave (km/s) = 3.20559 3.30909 3.25775
# Velocity P-wave (km/s) = 6.36698 6.44500 6.40610
#
# Compressibility (1/GPa) = 0.02209872
#
# Stress axis : x y z
#
# Youngs Moduli (GPa) = 63.08681 63.08696 57.27524
#
# Poissons Ratio (x) = 0.28539 0.25796
# Poissons Ratio (y) = 0.28539 0.25796
# Poissons Ratio (z) = 0.28414 0.28414
#
# Static dielectric constant tensor:
#      x y z
#    x 1.596400 0.000000 0.000000 
#    y 0.000000 1.596400 0.000000 
#    z 0.000000 0.000000 1.615070 
# 
# From -- ./inp_files/4252.got.cif
#   From: 2010.05.17/outbox.cif.g08.bks.cpg/sg121_3_cif.got.tgz:4252.got - 2010.05.20 11:32:06.
