data_PCOD9560736
_publ_section_title
;
Structure prediction by ZEFSAII (Michael W. Deem and Ramdas Pophale) SiO2 
 PCOD9560736
Probable space group: I -4 2 D
;
_chemical_formula_sum "Si O2"
_cell_formula_units_Z 80
_cell_length_a 17.383032
_cell_length_b 17.383032
_cell_length_c 13.677872
_cell_angle_alpha 90.000000
_cell_angle_beta 90.000000
_cell_angle_gamma 90.000000
_cell_volume 4133.039867
_symmetry_space_group_name_H-M "I -4 2 D"
_symmetry_group_IT_number 122
_symmetry_cell_setting 'tetragonal'
loop_
_space_group_symop_operation_xyz
x,y,z
y,-x,-z
-x,-y,z
-y,x,-z
x,1/2-y,1/4-z
-x,1/2+y,1/4-z
-y,1/2-x,1/4+z
y,1/2+x,1/4+z
1/2+x,1/2+y,1/2+z
1/2+y,1/2-x,1/2-z
1/2-x,1/2-y,1/2+z
1/2-y,1/2+x,1/2-z
1/2+x,-y,3/4-z
1/2-x,y,3/4-z
1/2-y,-x,3/4+z
1/2+y,x,3/4+z
loop_
_atom_site_type_symbol
_atom_site_label
_atom_site_fract_x
_atom_site_fract_y
_atom_site_fract_z
Si Si1 0.037756 0.239982 0.368737
Si Si2 0.691470 0.775202 0.967112
Si Si3 0.873876 0.269188 0.842936
Si Si4 0.601838 0.828361 0.563045
Si Si5 0.376265 0.502946 0.475043
O O1 0.102043 0.280007 0.435721
O O2 0.087323 0.183763 0.300367
O O3 0.004288 0.299244 0.287650
O O4 0.962038 0.203535 0.417163
O O5 0.750000 0.784310 0.875000
O O6 0.711554 0.837363 0.050957
O O7 0.703376 0.690584 0.015486
O O8 0.878134 0.177142 0.828887
O O9 0.619017 0.750000 0.625000
O O10 0.525340 0.860082 0.613706
O O11 0.427282 0.573829 0.514768
#
# Coordination Sequence:
#
# PCOD9560736 Si02
#       5
#    16  16  16  16  16
#     4  11  23  36  63  87 117 166 201 248 311 352
#     4  11  22  41  65  89 123 164 204 257 304 360
#     4  11  22  41  61  89 124 155 215 250 294 375
#     4  10  18  36  55  87 118 154 197 243 301 368
#     4  10  20  32  52  88 127 151 185 249 314 378
#
# _framework density 19.356213
#
# number of rings (size 3 to 8) (size 9 to 14) (size 15 to 20)
#    0.000    1.400    6.000    1.200    2.800    0.800 
#    3.600    0.000    0.000    3.000    0.000    0.000 
#    0.000    0.000    0.000    0.000    0.000    0.000 
#
# Total GULP energy -223016.512792 kJ/mol
# GULP energy per Si atom -5575.412820 kJ/mol
# Density = 1.931216 g / cm^3
# Si number density = 19.356213 Si / 1000 Ang^3
#
#
#
# Elastic Constant Matrix: (Units=GPa)
#
#
# Indices 1 2 3 4 5 6 
#
# 1 70.5521 -7.3680 15.2362 0.0000 0.0000 0.0000
# 2 -7.3680 70.5521 15.2362 0.0000 0.0000 0.0000
# 3 15.2362 15.2362 53.3222 0.0000 0.0000 0.0000
# 4 0.0000 0.0000 0.0000 22.4194 0.0000 0.0000
# 5 0.0000 0.0000 0.0000 0.0000 22.4194 0.0000
# 6 0.0000 0.0000 0.0000 0.0000 0.0000 0.5866
#
#
#
# Elastic Compliance Matrix: (Units=1/GPa)
#
#
# Indices 1 2 3 4 5 6 
#
# 1 0.015595 0.002761 -0.005245 0.000000 0.000000 0.000000
# 2 0.002761 0.015595 -0.005245 0.000000 0.000000 0.000000
# 3 -0.005245 -0.005245 0.021751 0.000000 0.000000 0.000000
# 4 0.000000 0.000000 0.000000 0.044604 0.000000 0.000000
# 5 0.000000 0.000000 0.000000 0.000000 0.044604 0.000000
# 6 0.000000 0.000000 0.000000 0.000000 0.000000 1.704866
#
#
# Mechanical properties :
#
#
# Convention : Reuss Voigt Hill
#
# Bulk Modulus (GPa) = 26.67829 26.73724 26.70777
# Shear Modulus (GPa) = 2.66671 20.50654 11.58662
#
# Velocity S-wave (km/s) = 1.17503 3.25842 2.44928
# Velocity P-wave (km/s) = 3.95647 5.29147 4.67190
#
# Compressibility (1/GPa) = 0.03748366
#
# Stress axis : x y z
#
# Youngs Moduli (GPa) = 64.12309 64.12309 45.97414
#
# Poissons Ratio (x) = -0.17707 0.24114
# Poissons Ratio (y) = -0.17707 0.24114
# Poissons Ratio (z) = 0.33633 0.33633
#
# Static dielectric constant tensor:
#      x y z
#    x 1.694450 0.000000 0.000000 
#    y 0.000000 1.694450 0.000000 
#    z 0.000000 0.000000 1.720260 
# 
# From -- ./inp_files/5275.got.cif
#   From: 2010.05.17/outbox.cif.g08.bks.cpg/sg122_3_cif.got.tgz:5275.got - 2010.05.20 11:37:33.
