data_PCOD9560336
_publ_section_title
;
Structure prediction by ZEFSAII (Michael W. Deem and Ramdas Pophale) SiO2 
 PCOD9560336
Probable space group: I -4 2 M
;
_chemical_formula_sum "Si O2"
_cell_formula_units_Z 72
_cell_length_a 10.876726
_cell_length_b 10.876726
_cell_length_c 28.925430
_cell_angle_alpha 90.000000
_cell_angle_beta 90.000000
_cell_angle_gamma 90.000000
_cell_volume 3421.970019
_symmetry_space_group_name_H-M "I -4 2 M"
_symmetry_group_IT_number 121
_symmetry_cell_setting 'tetragonal'
loop_
_space_group_symop_operation_xyz
x,y,z
y,-x,-z
-x,-y,z
-y,x,-z
x,-y,-z
-x,y,-z
-y,-x,z
y,x,z
1/2+x,1/2+y,1/2+z
1/2+y,1/2-x,1/2-z
1/2-x,1/2-y,1/2+z
1/2-y,1/2+x,1/2-z
1/2+x,1/2-y,1/2-z
1/2-x,1/2+y,1/2-z
1/2-y,1/2-x,1/2+z
1/2+y,1/2+x,1/2+z
loop_
_atom_site_type_symbol
_atom_site_label
_atom_site_fract_x
_atom_site_fract_y
_atom_site_fract_z
Si Si1 0.436078 0.751322 0.705863
Si Si2 0.034813 0.232408 0.308469
Si Si3 0.614446 0.811138 0.534399
Si Si4 0.306641 0.500000 0.000000
Si Si5 0.093841 0.615311 0.864049
O O1 0.372173 0.627828 0.687723
O O2 0.337144 0.860429 0.698734
O O3 0.466002 0.732475 0.759478
O O4 0.553203 0.796192 0.677580
O O5 0.106220 0.106220 0.317140
O O6 0.945392 0.277217 0.349220
O O7 0.500000 0.831402 0.500000
O O8 0.687402 0.687402 0.521350
O O9 0.581667 0.812367 0.588213
O O10 0.713787 0.921719 0.531026
O O11 0.398373 0.601628 0.022125
O O12 0.000000 0.500000 0.867289
#
# Coordination Sequence:
#
# PCOD9560336 Si02
#       5
#    16  16  16   8  16
#     4  10  20  35  58  86 121 167 212 256 308 368
#     4  10  20  35  59  89 125 169 212 256 313 380
#     4  11  24  42  65  92 127 171 217 268 324 390
#     4   9  19  38  66  96 123 153 198 264 334 389
#     4  10  21  37  61  89 126 165 212 261 320 375
#
# _framework density 21.040513000000001
#
# number of rings (size 3 to 8) (size 9 to 14) (size 15 to 20)
#    0.000    1.889    2.222    1.667    0.000    4.222 
#    0.000    4.444    0.000    0.000    0.000    0.000 
#    0.000    0.000    0.000    0.000    0.000    0.000 
#
# Total GULP energy -200867.957189 kJ/mol
# GULP energy per Si atom -5579.665477 kJ/mol
# Density = 2.099262 g / cm^3
# Si number density = 21.040513 Si / 1000 Ang^3
#
#
#
# Elastic Constant Matrix: (Units=GPa)
#
#
# Indices 1 2 3 4 5 6 
#
# 1 75.8698 52.0570 30.4282 0.0000 0.0000 0.0000
# 2 52.0570 75.8709 30.4283 0.0000 0.0000 0.0000
# 3 30.4282 30.4283 98.2401 0.0000 0.0000 0.0000
# 4 0.0000 0.0000 0.0000 1.8371 0.0000 0.0000
# 5 0.0000 0.0000 0.0000 0.0000 1.8364 0.0000
# 6 0.0000 0.0000 0.0000 0.0000 0.0000 27.5794
#
#
#
# Elastic Compliance Matrix: (Units=1/GPa)
#
#
# Indices 1 2 3 4 5 6 
#
# 1 0.025581 -0.016413 -0.002840 0.000000 0.000000 0.000000
# 2 -0.016413 0.025580 -0.002840 0.000000 0.000000 0.000000
# 3 -0.002840 -0.002840 0.011938 0.000000 0.000000 0.000000
# 4 0.000000 0.000000 0.000000 0.544344 0.000000 0.000000
# 5 0.000000 0.000000 0.000000 0.000000 0.544540 0.000000
# 6 0.000000 0.000000 0.000000 0.000000 0.000000 0.036259
#
#
# Mechanical properties :
#
#
# Convention : Reuss Voigt Hill
#
# Bulk Modulus (GPa) = 52.86692 52.86752 52.86722
# Shear Modulus (GPa) = 4.03639 15.38840 9.71240
#
# Velocity S-wave (km/s) = 1.38656 2.70732 2.15083
# Velocity P-wave (km/s) = 5.26728 5.91218 5.59902
#
# Compressibility (1/GPa) = 0.01891542
#
# Stress axis : x y z
#
# Youngs Moduli (GPa) = 39.09198 39.09260 83.76499
#
# Poissons Ratio (x) = 0.64162 0.23786
# Poissons Ratio (y) = 0.64161 0.23785
# Poissons Ratio (z) = 0.11101 0.11100
#
# Static dielectric constant tensor:
#      x y z
#    x 1.792650 0.000000 0.000000 
#    y 0.000000 1.792650 0.000000 
#    z 0.000000 0.000000 1.736570 
# 
# From -- ./inp_files/7550.got.cif
#   From: 2010.05.17/outbox.cif.g08.bks.cpg/sg121_4_cif.got.tgz:7550.got - 2010.05.20 11:32:06.
