data_PCOD9560867
_publ_section_title
;
Structure prediction by ZEFSAII (Michael W. Deem and Ramdas Pophale) SiO2 
 PCOD9560867
Probable space group: I -4 2 D
;
_chemical_formula_sum "Si O2"
_cell_formula_units_Z 48
_cell_length_a 8.580015
_cell_length_b 8.580015
_cell_length_c 27.662963
_cell_angle_alpha 90.000000
_cell_angle_beta 90.000000
_cell_angle_gamma 90.000000
_cell_volume 2036.454870
_symmetry_space_group_name_H-M "I -4 2 D"
_symmetry_group_IT_number 122
_symmetry_cell_setting 'tetragonal'
loop_
_space_group_symop_operation_xyz
x,y,z
y,-x,-z
-x,-y,z
-y,x,-z
x,1/2-y,1/4-z
-x,1/2+y,1/4-z
-y,1/2-x,1/4+z
y,1/2+x,1/4+z
1/2+x,1/2+y,1/2+z
1/2+y,1/2-x,1/2-z
1/2-x,1/2-y,1/2+z
1/2-y,1/2+x,1/2-z
1/2+x,-y,3/4-z
1/2-x,y,3/4-z
1/2-y,-x,3/4+z
1/2+y,x,3/4+z
loop_
_atom_site_type_symbol
_atom_site_label
_atom_site_fract_x
_atom_site_fract_y
_atom_site_fract_z
Si Si1 0.992496 0.682567 0.177119
Si Si2 0.306271 0.343899 0.927841
Si Si3 0.675975 0.930516 0.525709
O O1 0.947093 0.750000 0.125000
O O2 0.170744 0.734349 0.184431
O O3 0.000000 0.500000 0.177077
O O4 0.862585 0.751502 0.212615
O O5 0.250000 0.397887 0.875000
O O6 0.487309 0.298496 0.937837
O O7 0.242124 0.447053 0.971822
O O8 0.500000 0.000000 0.530562
#
# Coordination Sequence:
#
# PCOD9560867 Si02
#       3
#    16  16  16
#     4  10  20  36  66 100 135 177 225 289 351 417
#     4  10  22  43  63  91 140 178 227 293 349 424
#     4  10  23  41  63 100 132 176 239 285 353 432
#
# _framework density 23.570371999999999
#
# number of rings (size 3 to 8) (size 9 to 14) (size 15 to 20)
#    0.000    2.000    0.000    5.000    9.333    0.667 
#    6.000    0.000    0.000    0.000    0.000    0.000 
#    0.000    0.000    0.000    0.000    0.000    0.000 
#
# Total GULP energy -134009.182213 kJ/mol
# GULP energy per Si atom -5583.715926 kJ/mol
# Density = 2.351672 g / cm^3
# Si number density = 23.570372 Si / 1000 Ang^3
#
#
#
# Elastic Constant Matrix: (Units=GPa)
#
#
# Indices 1 2 3 4 5 6 
#
# 1 77.9843 -5.2379 14.7894 0.0000 0.0000 0.0000
# 2 -5.2379 77.9843 14.7894 0.0000 0.0000 0.0000
# 3 14.7894 14.7894 147.4778 0.0000 0.0000 0.0000
# 4 0.0000 0.0000 0.0000 32.5751 0.0000 0.0000
# 5 0.0000 0.0000 0.0000 0.0000 32.5751 0.0000
# 6 0.0000 0.0000 0.0000 0.0000 0.0000 34.7054
#
#
#
# Elastic Compliance Matrix: (Units=1/GPa)
#
#
# Indices 1 2 3 4 5 6 
#
# 1 0.013173 0.001157 -0.001437 0.000000 0.000000 0.000000
# 2 0.001157 0.013173 -0.001437 0.000000 0.000000 0.000000
# 3 -0.001437 -0.001437 0.007069 0.000000 0.000000 0.000000
# 4 0.000000 0.000000 0.000000 0.030698 0.000000 0.000000
# 5 0.000000 0.000000 0.000000 0.000000 0.030698 0.000000
# 6 0.000000 0.000000 0.000000 0.000000 0.000000 0.028814
#
#
# Mechanical properties :
#
#
# Convention : Reuss Voigt Hill
#
# Bulk Modulus (GPa) = 33.35348 39.12537 36.23942
# Shear Modulus (GPa) = 36.48200 38.57816 37.53008
#
# Velocity S-wave (km/s) = 3.93847 4.05003 3.99464
# Velocity P-wave (km/s) = 5.90452 6.20530 6.05678
#
# Compressibility (1/GPa) = 0.02998188
#
# Stress axis : x y z
#
# Youngs Moduli (GPa) = 75.91070 75.91070 141.46433
#
# Poissons Ratio (x) = -0.08786 0.20330
# Poissons Ratio (y) = -0.08786 0.20330
# Poissons Ratio (z) = 0.10909 0.10909
#
# Static dielectric constant tensor:
#      x y z
#    x 1.936300 0.000000 0.000000 
#    y 0.000000 1.936300 0.000000 
#    z 0.000000 0.000000 1.929530 
# 
# From -- ./inp_files/8998.got.cif
#   From: 2010.05.17/outbox.cif.g08.bks.cpg/sg122_5_cif.got.tgz:8998.got - 2010.05.20 11:37:33.
