data_PCOD9560507
_publ_section_title
;
Structure prediction by ZEFSAII (Michael W. Deem and Ramdas Pophale) SiO2 
 PCOD9560507
Probable space group: I -4 2 M
;
_chemical_formula_sum "Si O2"
_cell_formula_units_Z 58
_cell_length_a 10.671607
_cell_length_b 10.671607
_cell_length_c 26.972575
_cell_angle_alpha 90.000000
_cell_angle_beta 90.000000
_cell_angle_gamma 90.000000
_cell_volume 3071.723044
_symmetry_space_group_name_H-M "I -4 2 M"
_symmetry_group_IT_number 121
_symmetry_cell_setting 'tetragonal'
loop_
_space_group_symop_operation_xyz
x,y,z
y,-x,-z
-x,-y,z
-y,x,-z
x,-y,-z
-x,y,-z
-y,-x,z
y,x,z
1/2+x,1/2+y,1/2+z
1/2+y,1/2-x,1/2-z
1/2-x,1/2-y,1/2+z
1/2-y,1/2+x,1/2-z
1/2+x,1/2-y,1/2-z
1/2-x,1/2+y,1/2-z
1/2-y,1/2-x,1/2+z
1/2+y,1/2+x,1/2+z
loop_
_atom_site_type_symbol
_atom_site_label
_atom_site_fract_x
_atom_site_fract_y
_atom_site_fract_z
Si Si1 0.500000 0.500000 0.500000
Si Si2 0.347575 0.014415 0.664549
Si Si3 0.643826 0.040247 0.447498
Si Si4 0.807907 0.192094 0.820069
Si Si5 0.107390 0.892611 0.715586
Si Si6 0.167392 0.167392 0.069101
O O1 0.584136 0.584136 0.534665
O O2 0.311183 0.993044 0.606372
O O3 0.327027 0.158614 0.679563
O O4 0.500000 0.000000 0.670230
O O5 0.244652 0.933787 0.694664
O O6 0.644779 0.188531 0.442939
O O7 0.500000 0.000000 0.449594
O O8 0.704553 0.000000 0.500000
O O9 0.874004 0.125997 0.774281
O O10 0.856380 0.143621 0.873056
O O11 0.000000 0.000000 0.705152
#
# Coordination Sequence:
#
# PCOD9560507 Si02
#       6
#     2  16  16   8   8   8
#     4  12  20  32  60  92 120 152 204 260 298 404
#     4  10  23  42  65  95 129 169 214 265 323 381
#     4   9  18  38  62  86 122 165 203 251 313 377
#     4  10  24  43  61  89 131 165 209 275 320 368
#     4  12  26  41  70  94 127 173 224 271 311 384
#     4  10  22  37  59  90 124 162 202 255 319 367
#
# _framework density 18.881912
#
# number of rings (size 3 to 8) (size 9 to 14) (size 15 to 20)
#    0.000    1.931    1.379    1.655    4.828    1.103 
#    0.000    8.276    0.000    0.000    0.000    0.000 
#    0.000    0.000    0.000    0.000    0.000    0.000 
#
# Total GULP energy -161510.067084 kJ/mol
# GULP energy per Si atom -5569.312658 kJ/mol
# Density = 1.883894 g / cm^3
# Si number density = 18.881912 Si / 1000 Ang^3
#
#
#
# Elastic Constant Matrix: (Units=GPa)
#
#
# Indices 1 2 3 4 5 6 
#
# 1 83.0133 72.3571 57.9395 0.0000 0.0000 0.0000
# 2 72.3571 83.0141 57.9402 0.0000 0.0000 0.0000
# 3 57.9395 57.9402 172.7061 0.0000 0.0000 0.0000
# 4 0.0000 0.0000 0.0000 31.4486 0.0000 0.0000
# 5 0.0000 0.0000 0.0000 0.0000 31.4489 0.0000
# 6 0.0000 0.0000 0.0000 0.0000 0.0000 32.9950
#
#
#
# Elastic Compliance Matrix: (Units=1/GPa)
#
#
# Indices 1 2 3 4 5 6 
#
# 1 0.051212 -0.042627 -0.002880 0.000000 0.000000 0.000000
# 2 -0.042627 0.051211 -0.002880 0.000000 0.000000 0.000000
# 3 -0.002880 -0.002880 0.007722 0.000000 0.000000 0.000000
# 4 0.000000 0.000000 0.000000 0.031798 0.000000 0.000000
# 5 0.000000 0.000000 0.000000 0.000000 0.031798 0.000000
# 6 0.000000 0.000000 0.000000 0.000000 0.000000 0.030308
#
#
# Mechanical properties :
#
#
# Convention : Reuss Voigt Hill
#
# Bulk Modulus (GPa) = 74.78688 79.46745 77.12716
# Shear Modulus (GPa) = 16.37843 29.21163 22.79503
#
# Velocity S-wave (km/s) = 2.94838 3.93755 3.47831
# Velocity P-wave (km/s) = 7.16131 7.92782 7.55429
#
# Compressibility (1/GPa) = 0.01337133
#
# Stress axis : x y z
#
# Youngs Moduli (GPa) = 19.52683 19.52692 129.49303
#
# Poissons Ratio (x) = 0.83238 0.37289
# Poissons Ratio (y) = 0.83238 0.37293
# Poissons Ratio (z) = 0.05623 0.05624
#
# Static dielectric constant tensor:
#      x y z
#    x 1.618660 0.000000 0.000000 
#    y 0.000000 1.618660 0.000000 
#    z 0.000000 0.000000 1.728310 
# 
# From -- ./inp_files/6891.got.cif
#   From: 2010.05.17/outbox.cif.g08.bks.cpg/sg121_4_cif.got.tgz:6891.got - 2010.05.20 11:32:06.
