data_PCOD9560158
_publ_section_title
;
Structure prediction by ZEFSAII (Michael W. Deem and Ramdas Pophale) SiO2 
 PCOD9560158
Probable space group: I -4 2 M
;
_chemical_formula_sum "Si O2"
_cell_formula_units_Z 112
_cell_length_a 29.868332
_cell_length_b 29.868332
_cell_length_c 5.506813
_cell_angle_alpha 90.000000
_cell_angle_beta 90.000000
_cell_angle_gamma 90.000000
_cell_volume 4912.722905
_symmetry_space_group_name_H-M "I -4 2 M"
_symmetry_group_IT_number 121
_symmetry_cell_setting 'tetragonal'
loop_
_space_group_symop_operation_xyz
x,y,z
y,-x,-z
-x,-y,z
-y,x,-z
x,-y,-z
-x,y,-z
-y,-x,z
y,x,z
1/2+x,1/2+y,1/2+z
1/2+y,1/2-x,1/2-z
1/2-x,1/2-y,1/2+z
1/2-y,1/2+x,1/2-z
1/2+x,1/2-y,1/2-z
1/2-x,1/2+y,1/2-z
1/2-y,1/2-x,1/2+z
1/2+y,1/2+x,1/2+z
loop_
_atom_site_type_symbol
_atom_site_label
_atom_site_fract_x
_atom_site_fract_y
_atom_site_fract_z
Si Si1 0.313176 0.215748 0.329644
Si Si2 0.544244 0.699418 0.837725
Si Si3 0.210496 0.549007 0.484612
Si Si4 0.090509 0.552704 0.977867
Si Si5 0.832872 0.616153 0.851411
Si Si6 0.472926 0.398570 0.742303
Si Si7 0.744933 0.391944 0.867149
O O1 0.287898 0.215758 0.584699
O O2 0.342323 0.168885 0.311912
O O3 0.349214 0.255608 0.307809
O O4 0.545275 0.744270 0.677312
O O5 0.542035 0.652844 0.699055
O O6 0.500000 0.701751 0.000000
O O7 0.587792 0.701495 0.011134
O O8 0.190147 0.500000 0.500000
O O9 0.174507 0.582675 0.374388
O O10 0.229699 0.567533 0.734401
O O11 0.062206 0.565853 0.220694
O O12 0.132861 0.587248 0.986821
O O13 0.102807 0.500000 0.000000
O O14 0.780775 0.621802 0.930253
O O15 0.500000 0.412262 0.500000
O O16 0.431024 0.431024 0.769401
O O17 0.500000 0.400015 0.000000
#
# Coordination Sequence:
#
# PCOD9560158 Si02
#       7
#    16  16  16  16  16  16  16
#     4  10  18  33  49  69 106 147 184 239 305 371
#     4  10  21  36  56  89 128 170 210 259 318 382
#     4  11  20  31  55  80 118 160 201 245 313 399
#     4  12  28  45  62  75  92 128 181 250 323 392
#     4  10  23  35  51  79 108 143 188 247 317 383
#     4  11  25  45  72 104 142 188 233 279 319 357
#     4  10  20  33  51  80 115 158 196 247 307 388
#
# _framework density 22.79795
#
# number of rings (size 3 to 8) (size 9 to 14) (size 15 to 20)
#    0.000    1.429    2.857    3.000    6.000    1.714 
#    0.000    0.000    0.000    0.000    0.000    0.000 
#    0.000   10.286    0.000    0.000    0.000    0.000 
#
# Total GULP energy -312423.828764 kJ/mol
# GULP energy per Si atom -5578.996942 kJ/mol
# Density = 2.274606 g / cm^3
# Si number density = 22.797950 Si / 1000 Ang^3
#
#
#
# Elastic Constant Matrix: (Units=GPa)
#
#
# Indices 1 2 3 4 5 6 
#
# 1 57.3866 54.6416 13.6160 0.0000 0.0000 0.0000
# 2 54.6416 57.3866 13.6160 0.0000 0.0000 0.0000
# 3 13.6160 13.6160 99.1423 0.0000 0.0000 0.0000
# 4 0.0000 0.0000 0.0000 3.7070 0.0000 0.0000
# 5 0.0000 0.0000 0.0000 0.0000 3.7070 0.0000
# 6 0.0000 0.0000 0.0000 0.0000 0.0000 25.0744
#
#
#
# Elastic Compliance Matrix: (Units=1/GPa)
#
#
# Indices 1 2 3 4 5 6 
#
# 1 0.186767 -0.177533 -0.001268 0.000000 0.000000 0.000000
# 2 -0.177533 0.186767 -0.001268 0.000000 0.000000 0.000000
# 3 -0.001268 -0.001268 0.010435 0.000000 0.000000 0.000000
# 4 0.000000 0.000000 0.000000 0.269762 0.000000 0.000000
# 5 0.000000 0.000000 0.000000 0.000000 0.269762 0.000000
# 6 0.000000 0.000000 0.000000 0.000000 0.000000 0.039881
#
#
# Mechanical properties :
#
#
# Convention : Reuss Voigt Hill
#
# Bulk Modulus (GPa) = 41.96208 41.96254 41.96231
# Shear Modulus (GPa) = 3.75529 15.30047 9.52788
#
# Velocity S-wave (km/s) = 1.28483 2.59343 2.04654
# Velocity P-wave (km/s) = 4.54391 5.23585 4.90210
#
# Compressibility (1/GPa) = 0.02383104
#
# Stress axis : x y z
#
# Youngs Moduli (GPa) = 5.35426 5.35426 95.83253
#
# Poissons Ratio (x) = 0.95056 0.12154
# Poissons Ratio (y) = 0.95056 0.12154
# Poissons Ratio (z) = 0.00679 0.00679
#
# Static dielectric constant tensor:
#      x y z
#    x 1.863120 0.000000 0.000000 
#    y 0.000000 1.863120 0.000000 
#    z 0.000000 0.000000 2.080840 
# 
# From -- ./inp_files/713.got.cif
#   From: 2010.05.17/outbox.cif.g08.bks.cpg/sg121_1_cif.got.tgz:713.got - 2010.05.20 11:32:06.
