data_PCOD9560946
_publ_section_title
;
Structure prediction by ZEFSAII (Michael W. Deem and Ramdas Pophale) SiO2 
 PCOD9560946
Probable space group: I -4 2 D
;
_chemical_formula_sum "Si O2"
_cell_formula_units_Z 96
_cell_length_a 18.668129
_cell_length_b 18.668129
_cell_length_c 11.050375
_cell_angle_alpha 90.000000
_cell_angle_beta 90.000000
_cell_angle_gamma 90.000000
_cell_volume 3851.045083
_symmetry_space_group_name_H-M "I -4 2 D"
_symmetry_group_IT_number 122
_symmetry_cell_setting 'tetragonal'
loop_
_space_group_symop_operation_xyz
x,y,z
y,-x,-z
-x,-y,z
-y,x,-z
x,1/2-y,1/4-z
-x,1/2+y,1/4-z
-y,1/2-x,1/4+z
y,1/2+x,1/4+z
1/2+x,1/2+y,1/2+z
1/2+y,1/2-x,1/2-z
1/2-x,1/2-y,1/2+z
1/2-y,1/2+x,1/2-z
1/2+x,-y,3/4-z
1/2-x,y,3/4-z
1/2-y,-x,3/4+z
1/2+y,x,3/4+z
loop_
_atom_site_type_symbol
_atom_site_label
_atom_site_fract_x
_atom_site_fract_y
_atom_site_fract_z
Si Si1 0.992018 0.639401 0.114911
Si Si2 0.627622 0.082825 0.508860
Si Si3 0.216886 0.712283 0.011090
Si Si4 0.079578 0.591327 0.750720
Si Si5 0.416917 0.849996 0.002593
Si Si6 0.439949 0.760519 0.797553
O O1 0.911537 0.615299 0.086446
O O2 0.013088 0.672964 0.244280
O O3 0.055973 0.583959 0.089549
O O4 0.013378 0.697780 0.011837
O O5 0.694445 0.130952 0.549825
O O6 0.612628 0.116153 0.376243
O O7 0.638250 0.001036 0.482507
O O8 0.250000 0.715457 0.875000
O O9 0.140200 0.754017 0.004475
O O10 0.256436 0.750000 0.125000
O O11 0.095462 0.506598 0.732917
O O12 0.110492 0.634046 0.636629
O O13 0.421014 0.773788 0.936992
#
# Coordination Sequence:
#
# PCOD9560946 Si02
#       6
#    16  16  16  16  16  16
#     4  10  20  42  64  91 145 177 208 296 365 408
#     4  10  20  41  66  97 132 173 232 293 359 425
#     4  11  24  48  72  92 138 199 243 297 366 433
#     4   9  17  33  58  94 133 168 210 278 357 414
#     4  11  22  37  69 104 128 185 232 284 360 439
#     4  10  23  43  64  98 144 180 233 294 357 442
#
# _framework density 24.928298000000002
#
# number of rings (size 3 to 8) (size 9 to 14) (size 15 to 20)
#    0.000    1.833    5.000    0.500    2.333    1.333 
#    9.000    2.500    0.000    0.000    0.000    0.000 
#    0.000    0.000    0.000    0.000    0.000    0.000 
#
# Total GULP energy -267544.409527 kJ/mol
# GULP energy per Si atom -5573.841865 kJ/mol
# Density = 2.487156 g / cm^3
# Si number density = 24.928298 Si / 1000 Ang^3
#
#
#
# Elastic Constant Matrix: (Units=GPa)
#
#
# Indices 1 2 3 4 5 6 
#
# 1 51.5555 4.8797 1.1906 0.0000 0.0000 0.0000
# 2 4.8797 51.5555 1.1906 0.0000 0.0000 0.0000
# 3 1.1906 1.1906 43.5973 0.0000 0.0000 0.0000
# 4 0.0000 0.0000 0.0000 13.2501 0.0000 0.0000
# 5 0.0000 0.0000 0.0000 0.0000 13.2501 0.0000
# 6 0.0000 0.0000 0.0000 0.0000 0.0000 12.1115
#
#
#
# Elastic Compliance Matrix: (Units=1/GPa)
#
#
# Indices 1 2 3 4 5 6 
#
# 1 0.019582 -0.001842 -0.000484 0.000000 0.000000 0.000000
# 2 -0.001842 0.019582 -0.000484 0.000000 0.000000 0.000000
# 3 -0.000484 -0.000484 0.022964 0.000000 0.000000 0.000000
# 4 0.000000 0.000000 0.000000 0.075471 0.000000 0.000000
# 5 0.000000 0.000000 0.000000 0.000000 0.075471 0.000000
# 6 0.000000 0.000000 0.000000 0.000000 0.000000 0.082566
#
#
# Mechanical properties :
#
#
# Convention : Reuss Voigt Hill
#
# Bulk Modulus (GPa) = 17.69739 17.91447 17.80593
# Shear Modulus (GPa) = 15.62044 17.01884 16.31964
#
# Velocity S-wave (km/s) = 2.50594 2.61571 2.56141
# Velocity P-wave (km/s) = 3.93545 4.04037 3.98825
#
# Compressibility (1/GPa) = 0.05650552
#
# Stress axis : x y z
#
# Youngs Moduli (GPa) = 51.06696 51.06696 43.54707
#
# Poissons Ratio (x) = 0.09408 0.02110
# Poissons Ratio (y) = 0.09408 0.02110
# Poissons Ratio (z) = 0.02474 0.02474
#
# Static dielectric constant tensor:
#      x y z
#    x 2.040980 0.000000 0.000000 
#    y 0.000000 2.040980 0.000000 
#    z 0.000000 0.000000 2.097340 
# 
# From -- ./inp_files/4467.got.cif
#   From: 2010.05.17/outbox.cif.g08.bks.cpg/sg122_3_cif.got.tgz:4467.got - 2010.05.20 11:37:33.
