data_PCOD9560458
_publ_section_title
;
Structure prediction by ZEFSAII (Michael W. Deem and Ramdas Pophale) SiO2 
 PCOD9560458
Probable space group: I -4 2 M
;
_chemical_formula_sum "Si O2"
_cell_formula_units_Z 128
_cell_length_a 23.022306
_cell_length_b 23.022306
_cell_length_c 12.650741
_cell_angle_alpha 90.000000
_cell_angle_beta 90.000000
_cell_angle_gamma 90.000000
_cell_volume 6705.228905
_symmetry_space_group_name_H-M "I -4 2 M"
_symmetry_group_IT_number 121
_symmetry_cell_setting 'tetragonal'
loop_
_space_group_symop_operation_xyz
x,y,z
y,-x,-z
-x,-y,z
-y,x,-z
x,-y,-z
-x,y,-z
-y,-x,z
y,x,z
1/2+x,1/2+y,1/2+z
1/2+y,1/2-x,1/2-z
1/2-x,1/2-y,1/2+z
1/2-y,1/2+x,1/2-z
1/2+x,1/2-y,1/2-z
1/2-x,1/2+y,1/2-z
1/2-y,1/2-x,1/2+z
1/2+y,1/2+x,1/2+z
loop_
_atom_site_type_symbol
_atom_site_label
_atom_site_fract_x
_atom_site_fract_y
_atom_site_fract_z
Si Si1 0.266785 0.363299 0.641116
Si Si2 0.054386 0.751907 0.671905
Si Si3 0.655496 0.563390 0.010538
Si Si4 0.783633 0.926186 0.731203
Si Si5 0.074150 0.442173 0.281732
Si Si6 0.867795 0.330025 0.341748
Si Si7 0.935561 0.359175 0.547779
Si Si8 0.932110 0.835100 0.966345
O O1 0.306156 0.306156 0.639165
O O2 0.278999 0.401674 0.744723
O O3 0.199376 0.346779 0.649743
O O4 0.286311 0.402211 0.541123
O O5 0.058432 0.787720 0.563002
O O6 0.067627 0.685678 0.644560
O O7 0.989826 0.755136 0.718158
O O8 0.613372 0.613372 0.971230
O O9 0.673109 0.576174 0.131140
O O10 0.626866 0.500000 0.000000
O O11 0.732956 0.879262 0.710375
O O12 0.814486 0.924578 0.844689
O O13 0.077133 0.510889 0.262205
O O14 0.124476 0.407867 0.221589
O O15 0.077032 0.422252 0.403860
O O16 0.892646 0.334955 0.460009
O O17 0.000000 0.357938 0.500000
O O18 0.894143 0.894143 0.981614
O O19 0.000000 0.841566 0.000000
#
# Coordination Sequence:
#
# PCOD9560458 Si02
#       8
#    16  16  16  16  16  16  16  16
#     4  11  26  44  65  96 133 171 217 273 329 394
#     4  11  19  41  68  92 121 168 219 257 322 387
#     4  10  21  37  63  95 125 162 204 255 320 384
#     4  11  22  41  69  94 125 171 217 263 316 390
#     4  11  24  40  60  92 126 164 214 268 325 385
#     4  12  25  42  65  93 129 167 219 272 326 391
#     4  12  21  41  64  91 127 169 215 270 324 389
#     4  11  25  46  71 101 135 175 223 274 334 405
#
# _framework density 19.089579000000001
#
# number of rings (size 3 to 8) (size 9 to 14) (size 15 to 20)
#    0.000    0.875    6.250    1.125    1.750    1.750 
#    0.000    1.250    0.000    1.500    0.000    0.000 
#    0.000    0.000    0.000    0.000    0.000    0.000 
#
# Total GULP energy -357340.758851 kJ/mol
# GULP energy per Si atom -5583.449357 kJ/mol
# Density = 1.904613 g / cm^3
# Si number density = 19.089579 Si / 1000 Ang^3
#
#
#
# Elastic Constant Matrix: (Units=GPa)
#
#
# Indices 1 2 3 4 5 6 
#
# 1 85.2995 43.1442 28.0731 0.0000 0.0000 0.0000
# 2 43.1442 85.2995 28.0731 0.0000 0.0000 0.0000
# 3 28.0731 28.0731 106.3855 0.0000 0.0000 0.0000
# 4 0.0000 0.0000 0.0000 24.2916 0.0000 0.0000
# 5 0.0000 0.0000 0.0000 0.0000 24.2916 0.0000
# 6 0.0000 0.0000 0.0000 0.0000 0.0000 24.4868
#
#
#
# Elastic Compliance Matrix: (Units=1/GPa)
#
#
# Indices 1 2 3 4 5 6 
#
# 1 0.016261 -0.007461 -0.002322 0.000000 0.000000 0.000000
# 2 -0.007461 0.016261 -0.002322 0.000000 0.000000 0.000000
# 3 -0.002322 -0.002322 0.010625 0.000000 0.000000 0.000000
# 4 0.000000 0.000000 0.000000 0.041166 0.000000 0.000000
# 5 0.000000 0.000000 0.000000 0.000000 0.041166 0.000000
# 6 0.000000 0.000000 0.000000 0.000000 0.000000 0.040838
#
#
# Mechanical properties :
#
#
# Convention : Reuss Voigt Hill
#
# Bulk Modulus (GPa) = 52.80547 52.84058 52.82302
# Shear Modulus (GPa) = 25.40107 26.46028 25.93068
#
# Velocity S-wave (km/s) = 3.65173 3.72709 3.68960
# Velocity P-wave (km/s) = 6.74553 6.80162 6.77363
#
# Compressibility (1/GPa) = 0.01893743
#
# Stress axis : x y z
#
# Youngs Moduli (GPa) = 61.49596 61.49596 94.11399
#
# Poissons Ratio (x) = 0.45880 0.21856
# Poissons Ratio (y) = 0.45880 0.21856
# Poissons Ratio (z) = 0.14281 0.14281
#
# Static dielectric constant tensor:
#      x y z
#    x 1.656920 0.000000 0.000000 
#    y 0.000000 1.656920 0.000000 
#    z 0.000000 0.000000 1.684880 
# 
# From -- ./inp_files/3561.got.cif
#   From: 2010.05.17/outbox.cif.g08.bks.cpg/sg121_2_cif.got.tgz:3561.got - 2010.05.20 11:32:06.
