data_PCOD9560368
_publ_section_title
;
Structure prediction by ZEFSAII (Michael W. Deem and Ramdas Pophale) SiO2 
 PCOD9560368
Probable space group: I -4 2 M
;
_chemical_formula_sum "Si O2"
_cell_formula_units_Z 88
_cell_length_a 12.171037
_cell_length_b 12.171037
_cell_length_c 31.151714
_cell_angle_alpha 90.000000
_cell_angle_beta 90.000000
_cell_angle_gamma 90.000000
_cell_volume 4614.632414
_symmetry_space_group_name_H-M "I -4 2 M"
_symmetry_group_IT_number 121
_symmetry_cell_setting 'tetragonal'
loop_
_space_group_symop_operation_xyz
x,y,z
y,-x,-z
-x,-y,z
-y,x,-z
x,-y,-z
-x,y,-z
-y,-x,z
y,x,z
1/2+x,1/2+y,1/2+z
1/2+y,1/2-x,1/2-z
1/2-x,1/2-y,1/2+z
1/2-y,1/2+x,1/2-z
1/2+x,1/2-y,1/2-z
1/2-x,1/2+y,1/2-z
1/2-y,1/2-x,1/2+z
1/2+y,1/2+x,1/2+z
loop_
_atom_site_type_symbol
_atom_site_label
_atom_site_fract_x
_atom_site_fract_y
_atom_site_fract_z
Si Si1 0.880896 0.705134 0.921516
Si Si2 0.252515 0.929310 0.860409
Si Si3 0.820314 0.000000 0.000000
Si Si4 0.822331 0.998549 0.685668
Si Si5 0.483052 0.877852 0.877716
Si Si6 0.675501 0.027680 0.762927
O O1 0.762980 0.762980 0.922648
O O2 0.873236 0.574075 0.915012
O O3 0.950196 0.753116 0.881192
O O4 0.948632 0.746031 0.962724
O O5 0.143673 0.856328 0.863348
O O6 0.353437 0.873126 0.886883
O O7 0.292557 0.939266 0.811132
O O8 0.902576 0.902576 0.015634
O O9 0.911005 0.088996 0.672803
O O10 0.783333 0.020370 0.733887
O O11 0.716405 0.007705 0.655991
O O12 0.880312 0.880312 0.682048
O O13 0.500000 0.000000 0.858231
O O14 0.589821 0.115017 0.742637
#
# Coordination Sequence:
#
# PCOD9560368 Si02
#       6
#    16  16   8  16  16  16
#     4  10  21  37  61  88 114 147 185 230 286 349
#     4  11  22  36  57  82 114 153 193 241 293 344
#     4   9  18  36  61  90 124 152 179 227 292 356
#     4  11  23  37  55  81 112 150 197 247 295 339
#     4  10  20  37  55  80 111 149 194 230 278 342
#     4  11  22  36  57  79 107 150 200 247 294 340
#
# _framework density 19.069776000000001
#
# number of rings (size 3 to 8) (size 9 to 14) (size 15 to 20)
#    0.000    1.545    1.818    4.364    2.545    2.545 
#    0.000    4.091    0.000    0.000    0.000    0.000 
#    0.000    0.000    0.000   43.091    0.000    0.000 
#
# Total GULP energy -245506.131429 kJ/mol
# GULP energy per Si atom -5579.684805 kJ/mol
# Density = 1.902637 g / cm^3
# Si number density = 19.069776 Si / 1000 Ang^3
#
#
#
# Elastic Constant Matrix: (Units=GPa)
#
#
# Indices 1 2 3 4 5 6 
#
# 1 69.9094 18.9580 21.3520 0.0000 0.0000 0.0000
# 2 18.9580 69.9057 21.3509 0.0000 0.0000 0.0000
# 3 21.3520 21.3509 48.2917 0.0000 0.0000 0.0000
# 4 0.0000 0.0000 0.0000 25.6988 0.0000 0.0000
# 5 0.0000 0.0000 0.0000 0.0000 25.6989 0.0000
# 6 0.0000 0.0000 0.0000 0.0000 0.0000 18.6556
#
#
#
# Elastic Compliance Matrix: (Units=1/GPa)
#
#
# Indices 1 2 3 4 5 6 
#
# 1 0.016958 -0.002669 -0.006318 0.000000 0.000000 0.000000
# 2 -0.002669 0.016958 -0.006317 0.000000 0.000000 0.000000
# 3 -0.006318 -0.006317 0.026294 0.000000 0.000000 0.000000
# 4 0.000000 0.000000 0.000000 0.038912 0.000000 0.000000
# 5 0.000000 0.000000 0.000000 0.000000 0.038912 0.000000
# 6 0.000000 0.000000 0.000000 0.000000 0.000000 0.053603
#
#
# Mechanical properties :
#
#
# Convention : Reuss Voigt Hill
#
# Bulk Modulus (GPa) = 33.78240 34.60316 34.19278
# Shear Modulus (GPa) = 21.54121 22.44040 21.99081
#
# Velocity S-wave (km/s) = 3.36460 3.43410 3.39953
# Velocity P-wave (km/s) = 5.73129 5.82315 5.77740
#
# Compressibility (1/GPa) = 0.02960121
#
# Stress axis : x y z
#
# Youngs Moduli (GPa) = 58.97054 58.96786 38.03165
#
# Poissons Ratio (x) = 0.15740 0.24027
# Poissons Ratio (y) = 0.15741 0.24026
# Poissons Ratio (z) = 0.37255 0.37253
#
# Static dielectric constant tensor:
#      x y z
#    x 1.685710 0.000000 0.000000 
#    y 0.000000 1.685720 0.000000 
#    z 0.000000 0.000000 1.646600 
# 
# From -- ./inp_files/8172.got.cif
#   From: 2010.05.17/outbox.cif.g08.bks.cpg/sg121_5_cif.got.tgz:8172.got - 2010.05.20 11:32:06.
