data_PCOD9560070
_publ_section_title
;
Structure prediction by ZEFSAII (Michael W. Deem and Ramdas Pophale) SiO2 
 PCOD9560070
Probable space group: I -4 C 2
;
_chemical_formula_sum "Si O2"
_cell_formula_units_Z 56
_cell_length_a 13.068788
_cell_length_b 13.068788
_cell_length_c 11.918383
_cell_angle_alpha 90.000000
_cell_angle_beta 90.000000
_cell_angle_gamma 90.000000
_cell_volume 2035.579007
_symmetry_space_group_name_H-M "I -4 C 2"
_symmetry_group_IT_number 120
_symmetry_cell_setting 'tetragonal'
loop_
_space_group_symop_operation_xyz
x,y,z
y,-x,-z
-x,-y,z
-y,x,-z
y,x,1/2-z
-y,-x,1/2-z
-x,y,1/2+z
x,-y,1/2+z
1/2+x,1/2+y,1/2+z
1/2+y,1/2-x,1/2-z
1/2-x,1/2-y,1/2+z
1/2-y,1/2+x,1/2-z
1/2+y,1/2+x,-z
1/2-y,1/2-x,-z
1/2-x,1/2+y,z
1/2+x,1/2-y,z
loop_
_atom_site_type_symbol
_atom_site_label
_atom_site_fract_x
_atom_site_fract_y
_atom_site_fract_z
Si Si1 0.701947 0.798054 0.500000
Si Si2 0.500000 0.000000 0.000000
Si Si3 0.237927 0.762074 0.750000
Si Si4 0.000000 0.000000 0.750000
Si Si5 0.356714 0.460134 0.942922
Si Si6 0.639390 0.052638 0.694916
O O1 0.711514 0.741297 0.374487
O O2 0.594792 0.750556 0.541850
O O3 0.599816 0.992002 0.077719
O O4 0.263435 0.878538 0.715124
O O5 0.000325 0.898460 0.674963
O O6 0.375694 0.556770 0.023258
O O7 0.545686 0.129864 0.725941
#
# Coordination Sequence:
#
# PCOD9560070 Si02
#       6
#     8   4   8   4  16  16
#     4  12  27  41  66 112 157 199 270 354 427 501
#     4   8  16  42  76  98 134 204 274 324 414 526
#     4  12  27  41  66 112 157 199 270 354 427 501
#     4   8  16  42  76  98 134 204 274 324 414 526
#     4   9  21  42  70  98 138 202 270 334 408 502
#     4   9  21  42  70  98 138 202 270 334 408 502
#
# _framework density 27.510598000000002
#
# number of rings (size 3 to 8) (size 9 to 14) (size 15 to 20)
#    0.000    2.857    0.000    1.714    0.000   13.714 
#    0.000    0.000    0.000    1.714    0.000    0.000 
#    0.000    0.000    0.000    0.000    0.000    0.000 
#
# Total GULP energy -156040.656049 kJ/mol
# GULP energy per Si atom -5572.880573 kJ/mol
# Density = 2.744798 g / cm^3
# Si number density = 27.510598 Si / 1000 Ang^3
#
#
#
# Elastic Constant Matrix: (Units=GPa)
#
#
# Indices 1 2 3 4 5 6 
#
# 1 113.5500 107.5306 60.1014 0.0000 0.0000 0.0000
# 2 107.5306 113.5540 60.1012 0.0000 0.0000 0.0000
# 3 60.1014 60.1012 240.4743 0.0001 0.0000 0.0000
# 4 0.0000 0.0000 0.0001 -317.9864 -0.0006 0.0000
# 5 0.0000 0.0000 0.0000 -0.0006 -313.2215 0.0000
# 6 0.0000 0.0000 0.0000 0.0000 0.0000 89.1542
#
#
#
# Elastic Compliance Matrix: (Units=1/GPa)
#
#
# Indices 1 2 3 4 5 6 
#
# 1 0.085656 -0.080420 -0.001309 0.000000 0.000000 0.000000
# 2 -0.080420 0.085653 -0.001308 0.000000 0.000000 0.000000
# 3 -0.001309 -0.001308 0.004812 0.000000 0.000000 0.000000
# 4 0.000000 0.000000 0.000000 -0.003145 0.000000 0.000000
# 5 0.000000 0.000000 0.000000 0.000000 -0.003193 0.000000
# 6 0.000000 0.000000 0.000000 0.000000 0.000000 0.011217
#
#
# Mechanical properties :
#
#
# Convention : Reuss Voigt Hill
#
# Bulk Modulus (GPa) = 99.51855 102.56052 101.03953
# Shear Modulus (GPa) = 14.26849 -92.42107 -39.07629
#
# Velocity S-wave (km/s) = 2.27987 -5.80238 -3.77292
# Velocity P-wave (km/s) = 6.57142 2.74388 4.22224
#
# Compressibility (1/GPa) = 0.01004838
#
# Stress axis : x y z
#
# Youngs Moduli (GPa) = 11.67458 11.67507 207.79725
#
# Poissons Ratio (x) = 0.93891 0.27196
# Poissons Ratio (y) = 0.93887 0.27174
# Poissons Ratio (z) = 0.01528 0.01527
#
# Static dielectric constant tensor:
#      x y z
#    x 7.026850 -0.000010 0.000000 
#    y -0.000010 7.095240 0.000000 
#    z 0.000000 0.000000 2.305740 
# 
# From -- ./inp_files/2260.got.cif
#   From: 2010.05.17/outbox.cif.g08.bks.cpg/sg120_2_cif.got.tgz:2260.got - 2010.05.20 11:28:13.
