data_PCOD9560710
_publ_section_title
;
Structure prediction by ZEFSAII (Michael W. Deem and Ramdas Pophale) SiO2 
 PCOD9560710
Probable space group: I -4 2 D
;
_chemical_formula_sum "Si O2"
_cell_formula_units_Z 72
_cell_length_a 17.683651
_cell_length_b 17.683651
_cell_length_c 8.909551
_cell_angle_alpha 90.000000
_cell_angle_beta 90.000000
_cell_angle_gamma 90.000000
_cell_volume 2786.119171
_symmetry_space_group_name_H-M "I -4 2 D"
_symmetry_group_IT_number 122
_symmetry_cell_setting 'tetragonal'
loop_
_space_group_symop_operation_xyz
x,y,z
y,-x,-z
-x,-y,z
-y,x,-z
x,1/2-y,1/4-z
-x,1/2+y,1/4-z
-y,1/2-x,1/4+z
y,1/2+x,1/4+z
1/2+x,1/2+y,1/2+z
1/2+y,1/2-x,1/2-z
1/2-x,1/2-y,1/2+z
1/2-y,1/2+x,1/2-z
1/2+x,-y,3/4-z
1/2-x,y,3/4-z
1/2-y,-x,3/4+z
1/2+y,x,3/4+z
loop_
_atom_site_type_symbol
_atom_site_label
_atom_site_fract_x
_atom_site_fract_y
_atom_site_fract_z
Si Si1 0.859550 0.793218 0.809802
Si Si2 0.149294 0.045999 0.876824
Si Si3 0.341573 0.029712 0.513780
Si Si4 0.500000 0.500000 0.229231
Si Si5 0.250000 0.913543 0.875000
Si Si6 0.166057 0.750000 0.625000
O O1 0.824329 0.876944 0.796947
O O2 0.806203 0.721047 0.778666
O O3 0.946490 0.801143 0.750129
O O4 0.867686 0.784459 0.990515
O O5 0.190352 0.973151 0.809330
O O6 0.151675 0.040746 0.055951
O O7 0.063815 0.035296 0.832404
O O8 0.420007 0.029162 0.414492
O O9 0.299432 0.106273 0.467410
#
# Coordination Sequence:
#
# PCOD9560710 Si02
#       6
#    16  16  16   8   8   8
#     4  10  21  36  57  86 113 146 192 238 290 345
#     4  10  18  33  59  89 110 132 179 246 302 337
#     4  10  21  36  59  87 116 150 188 237 297 357
#     4  10  17  34  64  92 111 132 185 258 314 346
#     4  10  19  34  57  84 108 136 178 238 295 330
#     4  12  23  40  55  78 124 166 192 228 279 352
#
# _framework density 25.842400000000001
#
# number of rings (size 3 to 8) (size 9 to 14) (size 15 to 20)
#    0.000    1.778    0.000    8.000    0.000    0.000 
#    0.000   14.444    0.000    0.000    0.000    0.000 
#    0.000    0.000    0.000    0.000    0.000    0.000 
#
# Total GULP energy -200820.691733 kJ/mol
# GULP energy per Si atom -5578.352548 kJ/mol
# Density = 2.578358 g / cm^3
# Si number density = 25.842400 Si / 1000 Ang^3
#
#
#
# Elastic Constant Matrix: (Units=GPa)
#
#
# Indices 1 2 3 4 5 6 
#
# 1 157.5440 49.0754 3.0676 0.0000 0.0000 0.0000
# 2 49.0754 157.5440 3.0676 0.0000 0.0000 0.0000
# 3 3.0676 3.0676 6.9272 0.0000 0.0000 0.0000
# 4 0.0000 0.0000 0.0000 15.5125 0.0000 0.0000
# 5 0.0000 0.0000 0.0000 0.0000 15.5125 0.0000
# 6 0.0000 0.0000 0.0000 0.0000 0.0000 58.5137
#
#
#
# Elastic Compliance Matrix: (Units=1/GPa)
#
#
# Indices 1 2 3 4 5 6 
#
# 1 0.007062 -0.002157 -0.002172 0.000000 0.000000 0.000000
# 2 -0.002157 0.007062 -0.002172 0.000000 0.000000 0.000000
# 3 -0.002172 -0.002172 0.146281 0.000000 0.000000 0.000000
# 4 0.000000 0.000000 0.000000 0.064464 0.000000 0.000000
# 5 0.000000 0.000000 0.000000 0.000000 0.064464 0.000000
# 6 0.000000 0.000000 0.000000 0.000000 0.000000 0.017090
#
#
# Mechanical properties :
#
#
# Convention : Reuss Voigt Hill
#
# Bulk Modulus (GPa) = 6.78415 48.04849 27.41632
# Shear Modulus (GPa) = 13.56635 35.69473 24.63054
#
# Velocity S-wave (km/s) = 2.29370 3.72054 3.09059
# Velocity P-wave (km/s) = 3.10574 6.09014 4.83402
#
# Compressibility (1/GPa) = 0.14740243
#
# Stress axis : x y z
#
# Youngs Moduli (GPa) = 141.60741 141.60741 6.83616
#
# Poissons Ratio (x) = 0.30551 0.01485
# Poissons Ratio (y) = 0.30551 0.01485
# Poissons Ratio (z) = 0.30754 0.30754
#
# Static dielectric constant tensor:
#      x y z
#    x 2.253130 0.000000 0.000000 
#    y 0.000000 2.253130 0.000000 
#    z 0.000000 0.000000 2.034170 
# 
# From -- ./inp_files/4231.got.cif
#   From: 2010.05.17/outbox.cif.g08.bks.cpg/sg122_3_cif.got.tgz:4231.got - 2010.05.20 11:37:33.
