data_PCOD9560796
_publ_section_title
;
Structure prediction by ZEFSAII (Michael W. Deem and Ramdas Pophale) SiO2 
 PCOD9560796
Probable space group: I -4 2 D
;
_chemical_formula_sum "Si O2"
_cell_formula_units_Z 96
_cell_length_a 14.511176
_cell_length_b 14.511176
_cell_length_c 20.949958
_cell_angle_alpha 90.000000
_cell_angle_beta 90.000000
_cell_angle_gamma 90.000000
_cell_volume 4411.521251
_symmetry_space_group_name_H-M "I -4 2 D"
_symmetry_group_IT_number 122
_symmetry_cell_setting 'tetragonal'
loop_
_space_group_symop_operation_xyz
x,y,z
y,-x,-z
-x,-y,z
-y,x,-z
x,1/2-y,1/4-z
-x,1/2+y,1/4-z
-y,1/2-x,1/4+z
y,1/2+x,1/4+z
1/2+x,1/2+y,1/2+z
1/2+y,1/2-x,1/2-z
1/2-x,1/2-y,1/2+z
1/2-y,1/2+x,1/2-z
1/2+x,-y,3/4-z
1/2-x,y,3/4-z
1/2-y,-x,3/4+z
1/2+y,x,3/4+z
loop_
_atom_site_type_symbol
_atom_site_label
_atom_site_fract_x
_atom_site_fract_y
_atom_site_fract_z
Si Si1 0.221514 0.404718 0.611679
Si Si2 0.414680 0.256765 0.484075
Si Si3 0.593511 0.442134 0.414889
Si Si4 0.286321 0.267298 0.025834
Si Si5 0.763869 0.403692 0.091047
Si Si6 0.966556 0.398241 0.033542
O O1 0.332505 0.416365 0.597242
O O2 0.193042 0.335481 0.553098
O O3 0.189787 0.339285 0.669917
O O4 0.205105 0.504688 0.644976
O O5 0.454941 0.341253 0.524348
O O6 0.323766 0.223768 0.519917
O O7 0.376300 0.284202 0.414424
O O8 0.492718 0.177061 0.483738
O O9 0.500000 0.500000 0.422856
O O10 0.633692 0.483323 0.349243
O O11 0.333204 0.284176 0.957464
O O12 0.862135 0.415362 0.056211
O O13 0.000000 0.500000 0.013695
#
# Coordination Sequence:
#
# PCOD9560796 Si02
#       6
#    16  16  16  16  16  16
#     4  10  20  42  63  87 121 173 219 269 327 385
#     4  11  23  36  60  94 139 171 212 274 336 399
#     4  10  19  37  60  90 130 180 217 260 325 413
#     4  10  22  40  65  88 126 170 216 265 338 393
#     4  12  23  37  62  94 129 164 220 269 334 402
#     4  11  21  40  62  90 129 177 224 271 326 408
#
# _framework density 21.761201
#
# number of rings (size 3 to 8) (size 9 to 14) (size 15 to 20)
#    0.000    1.333    5.000    2.000    0.000    6.000 
#    0.000    0.000   18.333    0.000    0.000    0.000 
#    0.000    0.000    0.000    0.000    0.000    0.000 
#
# Total GULP energy -267300.821804 kJ/mol
# GULP energy per Si atom -5568.767121 kJ/mol
# Density = 2.171167 g / cm^3
# Si number density = 21.761201 Si / 1000 Ang^3
#
#
#
# Elastic Constant Matrix: (Units=GPa)
#
#
# Indices 1 2 3 4 5 6 
#
# 1 58.3159 11.1103 25.9954 0.0000 0.0000 0.0000
# 2 11.1103 58.3159 25.9954 0.0000 0.0000 0.0000
# 3 25.9954 25.9954 82.4991 0.0000 0.0000 0.0000
# 4 0.0000 0.0000 0.0000 44.4807 0.0000 0.0000
# 5 0.0000 0.0000 0.0000 0.0000 44.4807 0.0000
# 6 0.0000 0.0000 0.0000 0.0000 0.0000 14.2456
#
#
#
# Elastic Compliance Matrix: (Units=1/GPa)
#
#
# Indices 1 2 3 4 5 6 
#
# 1 0.020018 -0.001166 -0.005940 0.000000 0.000000 0.000000
# 2 -0.001166 0.020018 -0.005940 0.000000 0.000000 0.000000
# 3 -0.005940 -0.005940 0.015865 0.000000 0.000000 0.000000
# 4 0.000000 0.000000 0.000000 0.022482 0.000000 0.000000
# 5 0.000000 0.000000 0.000000 0.000000 0.022482 0.000000
# 6 0.000000 0.000000 0.000000 0.000000 0.000000 0.070197
#
#
# Mechanical properties :
#
#
# Convention : Reuss Voigt Hill
#
# Bulk Modulus (GPa) = 33.54790 36.14815 34.84802
# Shear Modulus (GPa) = 24.14402 29.71007 26.92704
#
# Velocity S-wave (km/s) = 3.33453 3.69897 3.52147
# Velocity P-wave (km/s) = 5.50230 5.90682 5.70814
#
# Compressibility (1/GPa) = 0.02980813
#
# Stress axis : x y z
#
# Youngs Moduli (GPa) = 49.95476 49.95476 63.03207
#
# Poissons Ratio (x) = 0.05824 0.37443
# Poissons Ratio (y) = 0.05824 0.37443
# Poissons Ratio (z) = 0.29675 0.29675
#
# Static dielectric constant tensor:
#      x y z
#    x 1.843020 0.000000 0.000000 
#    y 0.000000 1.843020 0.000000 
#    z 0.000000 0.000000 1.912540 
# 
# From -- ./inp_files/7262.got.cif
#   From: 2010.05.17/outbox.cif.g08.bks.cpg/sg122_4_cif.got.tgz:7262.got - 2010.05.20 11:37:33.
