data_PCOD9560762
_publ_section_title
;
Structure prediction by ZEFSAII (Michael W. Deem and Ramdas Pophale) SiO2 
 PCOD9560762
Probable space group: I -4 2 D
;
_chemical_formula_sum "Si O2"
_cell_formula_units_Z 112
_cell_length_a 16.691989
_cell_length_b 16.691989
_cell_length_c 16.965253
_cell_angle_alpha 90.000000
_cell_angle_beta 90.000000
_cell_angle_gamma 90.000000
_cell_volume 4726.901149
_symmetry_space_group_name_H-M "I -4 2 D"
_symmetry_group_IT_number 122
_symmetry_cell_setting 'tetragonal'
loop_
_space_group_symop_operation_xyz
x,y,z
y,-x,-z
-x,-y,z
-y,x,-z
x,1/2-y,1/4-z
-x,1/2+y,1/4-z
-y,1/2-x,1/4+z
y,1/2+x,1/4+z
1/2+x,1/2+y,1/2+z
1/2+y,1/2-x,1/2-z
1/2-x,1/2-y,1/2+z
1/2-y,1/2+x,1/2-z
1/2+x,-y,3/4-z
1/2-x,y,3/4-z
1/2-y,-x,3/4+z
1/2+y,x,3/4+z
loop_
_atom_site_type_symbol
_atom_site_label
_atom_site_fract_x
_atom_site_fract_y
_atom_site_fract_z
Si Si1 0.646317 0.308375 0.698268
Si Si2 0.996454 0.086587 0.216196
Si Si3 0.879076 0.058143 0.990952
Si Si4 0.333430 0.814361 0.368885
Si Si5 0.656111 0.879204 0.582375
Si Si6 0.087907 0.477518 0.641657
Si Si7 0.259955 0.949927 0.614802
O O1 0.663950 0.250000 0.625000
O O2 0.559383 0.346484 0.679706
O O3 0.642050 0.285069 0.791471
O O4 0.710397 0.379541 0.691419
O O5 0.086513 0.114770 0.231045
O O6 0.955717 0.071184 0.300012
O O7 0.000000 0.000000 0.173263
O O8 0.859726 0.102649 0.909352
O O9 0.805001 0.067140 0.051445
O O10 0.963515 0.099879 0.016352
O O11 0.250000 0.858007 0.375000
O O12 0.322386 0.731517 0.321184
O O13 0.396918 0.871424 0.326937
O O14 0.697940 0.966125 0.590541
O O15 0.164383 0.537244 0.640215
O O16 0.000000 0.500000 0.671207
#
# Coordination Sequence:
#
# PCOD9560762 Si02
#       7
#    16  16  16  16  16  16  16
#     4  11  22  36  60  90 129 163 209 253 301 360
#     4  10  19  34  56  87 124 171 200 237 294 364
#     4   9  17  26  45  82 129 169 195 229 278 354
#     4  10  23  41  61  87 126 165 196 258 321 360
#     4  10  19  31  55  82 119 163 200 228 291 365
#     4   9  21  40  64  86 113 156 212 259 312 377
#     4  10  19  35  54  79 117 157 201 253 300 350
#
# _framework density 23.69417
#
# number of rings (size 3 to 8) (size 9 to 14) (size 15 to 20)
#    0.000    2.143    1.429    1.714    2.000    7.429 
#    0.000    0.714    6.286    0.000    0.000    0.000 
#    0.000    0.000    0.000    0.000    0.000    0.000 
#
# Total GULP energy -312252.309762 kJ/mol
# GULP energy per Si atom -5575.934103 kJ/mol
# Density = 2.364024 g / cm^3
# Si number density = 23.694170 Si / 1000 Ang^3
#
#
#
# Elastic Constant Matrix: (Units=GPa)
#
#
# Indices 1 2 3 4 5 6 
#
# 1 139.6919 36.6854 2.6973 0.0000 0.0000 0.0000
# 2 36.6854 139.6919 2.6973 0.0000 0.0000 0.0000
# 3 2.6973 2.6973 50.9598 0.0000 0.0000 0.0000
# 4 0.0000 0.0000 0.0000 5.1134 0.0000 0.0000
# 5 0.0000 0.0000 0.0000 0.0000 5.1134 0.0000
# 6 0.0000 0.0000 0.0000 0.0000 0.0000 20.3065
#
#
#
# Elastic Compliance Matrix: (Units=1/GPa)
#
#
# Indices 1 2 3 4 5 6 
#
# 1 0.007693 -0.002015 -0.000301 0.000000 0.000000 0.000000
# 2 -0.002015 0.007693 -0.000301 0.000000 0.000000 0.000000
# 3 -0.000301 -0.000301 0.019655 0.000000 0.000000 0.000000
# 4 0.000000 0.000000 0.000000 0.195565 0.000000 0.000000
# 5 0.000000 0.000000 0.000000 0.000000 0.195565 0.000000
# 6 0.000000 0.000000 0.000000 0.000000 0.000000 0.049245
#
#
# Mechanical properties :
#
#
# Convention : Reuss Voigt Hill
#
# Bulk Modulus (GPa) = 33.54521 46.05598 39.80060
# Shear Modulus (GPa) = 10.19190 25.32423 17.75806
#
# Velocity S-wave (km/s) = 2.07624 3.27279 2.74061
# Velocity P-wave (km/s) = 4.46498 5.81046 5.18158
#
# Compressibility (1/GPa) = 0.02981051
#
# Stress axis : x y z
#
# Youngs Moduli (GPa) = 129.98001 129.98001 50.87727
#
# Poissons Ratio (x) = 0.26186 0.01529
# Poissons Ratio (y) = 0.26186 0.01529
# Poissons Ratio (z) = 0.03907 0.03907
#
# Static dielectric constant tensor:
#      x y z
#    x 1.947310 0.000000 0.000000 
#    y 0.000000 1.947310 0.000000 
#    z 0.000000 0.000000 1.989300 
# 
# From -- ./inp_files/7435.got.cif
#   From: 2010.05.17/outbox.cif.g08.bks.cpg/sg122_4_cif.got.tgz:7435.got - 2010.05.20 11:37:33.
