data_PCOD9560558
_publ_section_title
;
Structure prediction by ZEFSAII (Michael W. Deem and Ramdas Pophale) SiO2 
 PCOD9560558
Probable space group: I -4 2 M
;
_chemical_formula_sum "Si O2"
_cell_formula_units_Z 72
_cell_length_a 18.825839
_cell_length_b 18.825839
_cell_length_c 7.136695
_cell_angle_alpha 90.000000
_cell_angle_beta 90.000000
_cell_angle_gamma 90.000000
_cell_volume 2529.331876
_symmetry_space_group_name_H-M "I -4 2 M"
_symmetry_group_IT_number 121
_symmetry_cell_setting 'tetragonal'
loop_
_space_group_symop_operation_xyz
x,y,z
y,-x,-z
-x,-y,z
-y,x,-z
x,-y,-z
-x,y,-z
-y,-x,z
y,x,z
1/2+x,1/2+y,1/2+z
1/2+y,1/2-x,1/2-z
1/2-x,1/2-y,1/2+z
1/2-y,1/2+x,1/2-z
1/2+x,1/2-y,1/2-z
1/2-x,1/2+y,1/2-z
1/2-y,1/2-x,1/2+z
1/2+y,1/2+x,1/2+z
loop_
_atom_site_type_symbol
_atom_site_label
_atom_site_fract_x
_atom_site_fract_y
_atom_site_fract_z
Si Si1 0.281158 0.878788 0.152453
Si Si2 0.611857 0.003135 0.230350
Si Si3 0.099371 0.273626 0.411346
Si Si4 0.522411 0.367985 0.208004
Si Si5 0.878111 0.878111 0.956383
O O1 0.337718 0.942331 0.112706
O O2 0.260627 0.893460 0.367468
O O3 0.325292 0.805646 0.148634
O O4 0.212001 0.877329 0.026312
O O5 0.557999 0.056855 0.339079
O O6 0.666835 0.956418 0.347904
O O7 0.065173 0.202318 0.334115
O O8 0.584867 0.415134 0.318677
O O9 0.455800 0.368106 0.338370
O O10 0.500000 0.394118 0.000000
#
# Coordination Sequence:
#
# PCOD9560558 Si02
#       5
#    16  16  16  16   8
#     4  11  23  42  71 111 162 215 286 346 405 493
#     4   9  20  42  70 110 167 233 297 352 419 498
#     4  11  23  42  72 109 159 224 276 342 418 493
#     4  10  24  48  77 110 151 194 260 332 422 502
#     4  10  26  44  75 114 150 204 269 344 412 498
#
# _framework density 28.466014000000001
#
# number of rings (size 3 to 8) (size 9 to 14) (size 15 to 20)
#    0.667    1.111    0.000    3.333    3.111    0.222 
#    0.000   65.556    0.000    0.000    0.000    6.222 
#    0.000    0.000    0.000    0.000    0.000    0.000 
#
# Total GULP energy -201021.434749 kJ/mol
# GULP energy per Si atom -5583.928743 kJ/mol
# Density = 2.840122 g / cm^3
# Si number density = 28.466014 Si / 1000 Ang^3
#
#
#
# Elastic Constant Matrix: (Units=GPa)
#
#
# Indices 1 2 3 4 5 6 
#
# 1 202.6761 124.6426 76.8569 0.0000 0.0000 0.0000
# 2 124.6426 202.6734 76.8560 0.0000 0.0000 0.0000
# 3 76.8569 76.8560 182.9459 0.0000 0.0000 0.0000
# 4 0.0000 0.0000 0.0000 85.4906 0.0000 0.0000
# 5 0.0000 0.0000 0.0000 0.0000 85.5069 0.0000
# 6 0.0000 0.0000 0.0000 0.0000 0.0000 57.2886
#
#
#
# Elastic Compliance Matrix: (Units=1/GPa)
#
#
# Indices 1 2 3 4 5 6 
#
# 1 0.008311 -0.004505 -0.001599 0.000000 0.000000 0.000000
# 2 -0.004505 0.008311 -0.001599 0.000000 0.000000 0.000000
# 3 -0.001599 -0.001599 0.006810 0.000000 0.000000 0.000000
# 4 0.000000 0.000000 0.000000 0.011697 0.000000 0.000000
# 5 0.000000 0.000000 0.000000 0.000000 0.011695 0.000000
# 6 0.000000 0.000000 0.000000 0.000000 0.000000 0.017455
#
#
# Mechanical properties :
#
#
# Convention : Reuss Voigt Hill
#
# Bulk Modulus (GPa) = 124.59723 127.22292 125.91008
# Shear Modulus (GPa) = 60.71009 66.31986 63.51498
#
# Velocity S-wave (km/s) = 4.62315 4.83203 4.72874
# Velocity P-wave (km/s) = 8.50668 8.71328 8.61060
#
# Compressibility (1/GPa) = 0.00802586
#
# Stress axis : x y z
#
# Youngs Moduli (GPa) = 120.32862 120.32723 146.85304
#
# Poissons Ratio (x) = 0.54203 0.23481
# Poissons Ratio (y) = 0.54203 0.23481
# Poissons Ratio (z) = 0.19240 0.19239
#
# Static dielectric constant tensor:
#      x y z
#    x 2.012780 0.000000 0.000000 
#    y 0.000000 2.012750 0.000000 
#    z 0.000000 0.000000 2.370280 
# 
# From -- ./inp_files/3006.got.cif
#   From: 2010.05.17/outbox.cif.g08.bks.cpg/sg121_2_cif.got.tgz:3006.got - 2010.05.20 11:32:06.
