data_PCOD9560290
_publ_section_title
;
Structure prediction by ZEFSAII (Michael W. Deem and Ramdas Pophale) SiO2 
 PCOD9560290
Probable space group: I -4 2 M
;
_chemical_formula_sum "Si O2"
_cell_formula_units_Z 104
_cell_length_a 18.160132
_cell_length_b 18.160132
_cell_length_c 16.367319
_cell_angle_alpha 90.000000
_cell_angle_beta 90.000000
_cell_angle_gamma 90.000000
_cell_volume 5397.784586
_symmetry_space_group_name_H-M "I -4 2 M"
_symmetry_group_IT_number 121
_symmetry_cell_setting 'tetragonal'
loop_
_space_group_symop_operation_xyz
x,y,z
y,-x,-z
-x,-y,z
-y,x,-z
x,-y,-z
-x,y,-z
-y,-x,z
y,x,z
1/2+x,1/2+y,1/2+z
1/2+y,1/2-x,1/2-z
1/2-x,1/2-y,1/2+z
1/2-y,1/2+x,1/2-z
1/2+x,1/2-y,1/2-z
1/2-x,1/2+y,1/2-z
1/2-y,1/2-x,1/2+z
1/2+y,1/2+x,1/2+z
loop_
_atom_site_type_symbol
_atom_site_label
_atom_site_fract_x
_atom_site_fract_y
_atom_site_fract_z
Si Si1 0.619032 0.505989 0.308828
Si Si2 0.774331 0.649385 0.131659
Si Si3 0.839878 0.714083 0.296452
Si Si4 0.817454 0.061799 0.948617
Si Si5 0.500000 0.381172 0.000000
Si Si6 0.989500 0.209951 0.654554
Si Si7 0.288010 0.837558 0.033586
O O1 0.555297 0.444704 0.317934
O O2 0.583862 0.583862 0.334240
O O3 0.687872 0.477641 0.361760
O O4 0.644497 0.508386 0.216721
O O5 0.700949 0.700949 0.134443
O O6 0.823692 0.676620 0.208721
O O7 0.755021 0.564266 0.142302
O O8 0.810377 0.662634 0.042666
O O9 0.784226 0.784226 0.299860
O O10 0.921975 0.743846 0.309654
O O11 0.822267 0.663281 0.375956
O O12 0.865388 0.134613 0.936130
O O13 0.748123 0.086710 0.001444
O O14 0.860606 0.000000 0.000000
O O15 0.531611 0.329036 0.070077
O O16 0.434870 0.434870 0.030578
O O17 0.222208 0.777793 0.039769
#
# Coordination Sequence:
#
# PCOD9560290 Si02
#       7
#    16  16  16  16   8  16  16
#     4  10  20  32  48  77 117 152 181 219 275 350
#     4  10  21  37  57  83 113 147 192 242 288 346
#     4  10  21  37  58  83 114 151 194 244 294 342
#     4  10  20  33  53  79 111 148 184 227 280 344
#     4  11  22  34  52  86 128 161 188 226 282 359
#     4  12  22  35  58  82 111 155 198 238 287 347
#     4   9  19  36  54  77 110 146 187 235 282 333
#
# _framework density 19.267163
#
# number of rings (size 3 to 8) (size 9 to 14) (size 15 to 20)
#    0.000    1.769    0.000    5.077    2.154    5.692 
#    0.000    0.000    0.000    0.462    0.000    1.077 
#    0.000    0.000    0.000    0.000    0.000    0.000 
#
# Total GULP energy -289941.513790 kJ/mol
# GULP energy per Si atom -5575.798342 kJ/mol
# Density = 1.922331 g / cm^3
# Si number density = 19.267163 Si / 1000 Ang^3
#
#
#
# Elastic Constant Matrix: (Units=GPa)
#
#
# Indices 1 2 3 4 5 6 
#
# 1 45.8143 3.9601 -6.3854 0.0000 0.0000 0.0000
# 2 3.9601 45.8124 -6.3862 0.0000 0.0000 0.0000
# 3 -6.3854 -6.3862 67.4365 0.0000 0.0000 0.0000
# 4 0.0000 0.0000 0.0000 28.4445 0.0000 0.0000
# 5 0.0000 0.0000 0.0000 0.0000 28.4435 0.0000
# 6 0.0000 0.0000 0.0000 0.0000 0.0000 -94.6967
#
#
#
# Elastic Compliance Matrix: (Units=1/GPa)
#
#
# Indices 1 2 3 4 5 6 
#
# 1 0.022242 -0.001651 0.001950 0.000000 0.000000 0.000000
# 2 -0.001651 0.022243 0.001950 0.000000 0.000000 0.000000
# 3 0.001950 0.001950 0.015198 0.000000 0.000000 0.000000
# 4 0.000000 0.000000 0.000000 0.035156 0.000000 0.000000
# 5 0.000000 0.000000 0.000000 0.000000 0.035157 0.000000
# 6 0.000000 0.000000 0.000000 0.000000 0.000000 -0.010560
#
#
# Mechanical properties :
#
#
# Convention : Reuss Voigt Hill
#
# Bulk Modulus (GPa) = 15.58112 15.71557 15.64835
# Shear Modulus (GPa) = 36.67532 3.62992 20.15262
#
# Velocity S-wave (km/s) = 4.36766 1.37407 3.23763
# Velocity P-wave (km/s) = 5.79135 3.26983 4.70274
#
# Compressibility (1/GPa) = 0.06418025
#
# Stress axis : x y z
#
# Youngs Moduli (GPa) = 44.96065 44.95863 65.79795
#
# Poissons Ratio (x) = 0.07422 -0.12829
# Poissons Ratio (y) = 0.07422 -0.12831
# Poissons Ratio (z) = -0.08766 -0.08767
#
# Static dielectric constant tensor:
#      x y z
#    x 1.679370 0.000000 0.000000 
#    y 0.000000 1.679370 0.000000 
#    z 0.000000 0.000000 1.773530 
# 
# From -- ./inp_files/5460.got.cif
#   From: 2010.05.17/outbox.cif.g08.bks.cpg/sg121_3_cif.got.tgz:5460.got - 2010.05.20 11:32:06.
