data_PCOD9560362
_publ_section_title
;
Structure prediction by ZEFSAII (Michael W. Deem and Ramdas Pophale) SiO2 
 PCOD9560362
Probable space group: I -4 2 M
;
_chemical_formula_sum "Si O2"
_cell_formula_units_Z 112
_cell_length_a 15.438856
_cell_length_b 15.438856
_cell_length_c 22.238433
_cell_angle_alpha 90.000000
_cell_angle_beta 90.000000
_cell_angle_gamma 90.000000
_cell_volume 5300.714519
_symmetry_space_group_name_H-M "I -4 2 M"
_symmetry_group_IT_number 121
_symmetry_cell_setting 'tetragonal'
loop_
_space_group_symop_operation_xyz
x,y,z
y,-x,-z
-x,-y,z
-y,x,-z
x,-y,-z
-x,y,-z
-y,-x,z
y,x,z
1/2+x,1/2+y,1/2+z
1/2+y,1/2-x,1/2-z
1/2-x,1/2-y,1/2+z
1/2-y,1/2+x,1/2-z
1/2+x,1/2-y,1/2-z
1/2-x,1/2+y,1/2-z
1/2-y,1/2-x,1/2+z
1/2+y,1/2+x,1/2+z
loop_
_atom_site_type_symbol
_atom_site_label
_atom_site_fract_x
_atom_site_fract_y
_atom_site_fract_z
Si Si1 0.435808 0.206549 0.167508
Si Si2 0.069342 0.569343 0.146060
Si Si3 0.426383 0.290439 0.040815
Si Si4 0.793450 0.435808 0.332491
Si Si5 0.290441 0.573617 0.459184
Si Si6 0.181808 0.318194 0.445116
Si Si7 0.000001 0.860146 0.749999
O O1 0.511236 0.137493 0.182145
O O2 0.448947 0.229972 0.096967
O O3 0.344081 0.155919 0.175321
O O4 0.453335 0.294725 0.203540
O O5 0.125645 0.625647 0.100029
O O6 0.000000 0.500000 0.118766
O O7 0.011235 0.637493 0.182145
O O8 0.361511 0.361511 0.066123
O O9 0.500000 0.333297 0.000000
O O10 0.378601 0.234620 0.990208
O O11 0.770027 0.448948 0.403032
O O12 0.705275 0.453335 0.296459
O O13 0.333299 0.500000 0.500000
O O14 0.361514 0.638487 0.433876
O O15 0.234622 0.621399 0.509791
O O16 0.250001 0.250001 0.416068
O O17 0.074895 0.925106 0.725045
O O18 0.925107 0.925107 0.774952
#
# Coordination Sequence:
#
# PCOD9560362 Si02
#       7
#    16  16  16  16  16  16  16
#     4  11  24  44  69 100 132 171 217 274 335 393
#     4  10  22  40  65 102 134 169 214 270 327 391
#     4  11  22  37  61  93 130 172 216 259 315 390
#     4  11  24  44  69 100 132 171 217 274 335 393
#     4  11  22  37  61  93 130 172 216 259 315 390
#     4  10  20  36  59  94 134 171 212 252 309 391
#     4  11  28  50  71  96 128 172 225 278 330 393
#
# _framework density 21.129225999999999
#
# number of rings (size 3 to 8) (size 9 to 14) (size 15 to 20)
#    0.000    1.286    4.286    0.857    2.000    4.286 
#    2.571    0.000    0.000    0.000    0.000    0.000 
#    0.000    0.000    0.000    0.000    0.000    0.000 
#
# Total GULP energy -312232.490686 kJ/mol
# GULP energy per Si atom -5575.580191 kJ/mol
# Density = 2.108113 g / cm^3
# Si number density = 21.129226 Si / 1000 Ang^3
#
#
#
# Elastic Constant Matrix: (Units=GPa)
#
#
# Indices 1 2 3 4 5 6 
#
# 1 104.8484 58.5649 46.7379 0.0000 0.0000 0.0000
# 2 58.5649 104.8447 46.7381 0.0000 0.0000 0.0000
# 3 46.7379 46.7381 72.7493 0.0000 0.0000 0.0000
# 4 0.0000 0.0000 0.0000 20.4604 0.0000 0.0000
# 5 0.0000 0.0000 0.0000 0.0000 20.4609 0.0000
# 6 0.0000 0.0000 0.0000 0.0000 0.0000 50.3898
#
#
#
# Elastic Compliance Matrix: (Units=1/GPa)
#
#
# Indices 1 2 3 4 5 6 
#
# 1 0.015641 -0.005966 -0.006216 0.000000 0.000000 0.000000
# 2 -0.005966 0.015641 -0.006216 0.000000 0.000000 0.000000
# 3 -0.006216 -0.006216 0.021733 0.000000 0.000000 0.000000
# 4 0.000000 0.000000 0.000000 0.048875 0.000000 0.000000
# 5 0.000000 0.000000 0.000000 0.000000 0.048874 0.000000
# 6 0.000000 0.000000 0.000000 0.000000 0.000000 0.019845
#
#
# Mechanical properties :
#
#
# Convention : Reuss Voigt Hill
#
# Bulk Modulus (GPa) = 61.65388 65.16935 63.41161
# Shear Modulus (GPa) = 23.49514 26.95565 25.22540
#
# Velocity S-wave (km/s) = 3.33824 3.57564 3.45898
# Velocity P-wave (km/s) = 6.64088 6.92511 6.78448
#
# Compressibility (1/GPa) = 0.01621958
#
# Stress axis : x y z
#
# Youngs Moduli (GPa) = 63.93619 63.93292 46.01386
#
# Poissons Ratio (x) = 0.38141 0.28600
# Poissons Ratio (y) = 0.38143 0.28603
# Poissons Ratio (z) = 0.39740 0.39741
#
# Static dielectric constant tensor:
#      x y z
#    x 1.959550 0.000000 0.000000 
#    y 0.000000 1.959560 0.000000 
#    z 0.000000 0.000000 1.705300 
# 
# From -- ./inp_files/7219.got.cif
#   From: 2010.05.17/outbox.cif.g08.bks.cpg/sg121_4_cif.got.tgz:7219.got - 2010.05.20 11:32:06.
