data_PCOD9560373
_publ_section_title
;
Structure prediction by ZEFSAII (Michael W. Deem and Ramdas Pophale) SiO2 
 PCOD9560373
Probable space group: I -4 2 M
;
_chemical_formula_sum "Si O2"
_cell_formula_units_Z 88
_cell_length_a 12.082235
_cell_length_b 12.082235
_cell_length_c 33.787515
_cell_angle_alpha 90.000000
_cell_angle_beta 90.000000
_cell_angle_gamma 90.000000
_cell_volume 4932.315042
_symmetry_space_group_name_H-M "I -4 2 M"
_symmetry_group_IT_number 121
_symmetry_cell_setting 'tetragonal'
loop_
_space_group_symop_operation_xyz
x,y,z
y,-x,-z
-x,-y,z
-y,x,-z
x,-y,-z
-x,y,-z
-y,-x,z
y,x,z
1/2+x,1/2+y,1/2+z
1/2+y,1/2-x,1/2-z
1/2-x,1/2-y,1/2+z
1/2-y,1/2+x,1/2-z
1/2+x,1/2-y,1/2-z
1/2-x,1/2+y,1/2-z
1/2-y,1/2-x,1/2+z
1/2+y,1/2+x,1/2+z
loop_
_atom_site_type_symbol
_atom_site_label
_atom_site_fract_x
_atom_site_fract_y
_atom_site_fract_z
Si Si1 0.707876 0.986913 0.601062
Si Si2 0.126203 0.301618 0.044106
Si Si3 0.908831 0.091170 0.345469
Si Si4 0.500000 0.000000 0.841935
Si Si5 0.132502 0.689758 0.049063
Si Si6 0.971880 0.338905 0.229040
Si Si7 0.095421 0.904580 0.253996
O O1 0.693971 0.886847 0.570456
O O2 0.813123 0.964608 0.628396
O O3 0.605255 0.985711 0.630750
O O4 0.695226 0.098572 0.575318
O O5 0.180791 0.180791 0.047938
O O6 0.998469 0.306109 0.057247
O O7 0.137650 0.335257 0.997996
O O8 0.876595 0.123406 0.300376
O O9 0.000000 0.000000 0.338783
O O10 0.391833 0.015939 0.814387
O O11 0.193743 0.806258 0.055290
O O12 0.875348 0.414412 0.248968
O O13 0.946248 0.209993 0.234080
O O14 0.000000 0.000000 0.251442
#
# Coordination Sequence:
#
# PCOD9560373 Si02
#       7
#    16  16   8   8  16  16   8
#     4  12  20  38  60  86 119 154 200 248 295 361
#     4  10  20  37  59  85 118 164 206 246 294 353
#     4  11  24  38  58  90 121 150 190 248 311 355
#     4  10  21  38  63  88 110 158 200 244 307 354
#     4  10  21  36  59  86 119 161 206 250 296 354
#     4   9  20  41  62  86 118 155 197 246 306 374
#     4  11  24  42  66  95 118 157 203 250 307 375
#
# _framework density 17.841521
#
# number of rings (size 3 to 8) (size 9 to 14) (size 15 to 20)
#    0.000    1.818    2.727    3.273    1.273    1.818 
#    4.909    1.818    0.000    0.000    0.000    0.000 
#    0.000    0.000    0.000    0.000    0.000    0.000 
#
# Total GULP energy -245331.602274 kJ/mol
# GULP energy per Si atom -5575.718233 kJ/mol
# Density = 1.780091 g / cm^3
# Si number density = 17.841521 Si / 1000 Ang^3
#
#
#
# Elastic Constant Matrix: (Units=GPa)
#
#
# Indices 1 2 3 4 5 6 
#
# 1 95.7164 35.2851 27.3054 0.0000 0.0000 0.0000
# 2 35.2851 95.7115 27.3036 0.0000 0.0000 0.0000
# 3 27.3054 27.3036 61.3098 0.0000 0.0000 0.0000
# 4 0.0000 0.0000 0.0000 95.3201 0.0000 0.0000
# 5 0.0000 0.0000 0.0000 0.0000 95.3045 0.0000
# 6 0.0000 0.0000 0.0000 0.0000 0.0000 19.0049
#
#
#
# Elastic Compliance Matrix: (Units=1/GPa)
#
#
# Indices 1 2 3 4 5 6 
#
# 1 0.012961 -0.003587 -0.004175 0.000000 0.000000 0.000000
# 2 -0.003587 0.012961 -0.004175 0.000000 0.000000 0.000000
# 3 -0.004175 -0.004175 0.020029 0.000000 0.000000 0.000000
# 4 0.000000 0.000000 0.000000 0.010491 0.000000 0.000000
# 5 0.000000 0.000000 0.000000 0.000000 0.010493 0.000000
# 6 0.000000 0.000000 0.000000 0.000000 0.000000 0.052618
#
#
# Mechanical properties :
#
#
# Convention : Reuss Voigt Hill
#
# Bulk Modulus (GPa) = 45.29383 48.05846 46.67615
# Shear Modulus (GPa) = 33.15967 52.78214 42.97090
#
# Velocity S-wave (km/s) = 4.31579 5.44501 4.91295
# Velocity P-wave (km/s) = 7.09060 8.15632 7.64206
#
# Compressibility (1/GPa) = 0.02207806
#
# Stress axis : x y z
#
# Youngs Moduli (GPa) = 77.15512 77.15207 49.92750
#
# Poissons Ratio (x) = 0.27676 0.20844
# Poissons Ratio (y) = 0.27677 0.20843
# Poissons Ratio (z) = 0.32211 0.32208
#
# Static dielectric constant tensor:
#      x y z
#    x 1.487260 0.000000 0.000000 
#    y 0.000000 1.487270 0.000000 
#    z 0.000000 0.000000 1.612480 
# 
# From -- ./inp_files/8266.got.cif
#   From: 2010.05.17/outbox.cif.g08.bks.cpg/sg121_5_cif.got.tgz:8266.got - 2010.05.20 11:32:06.
