data_PCOD9560286
_publ_section_title
;
Structure prediction by ZEFSAII (Michael W. Deem and Ramdas Pophale) SiO2 
 PCOD9560286
Probable space group: I -4 2 M
;
_chemical_formula_sum "Si O2"
_cell_formula_units_Z 96
_cell_length_a 21.707952
_cell_length_b 21.707952
_cell_length_c 13.013999
_cell_angle_alpha 90.000000
_cell_angle_beta 90.000000
_cell_angle_gamma 90.000000
_cell_volume 6132.654162
_symmetry_space_group_name_H-M "I -4 2 M"
_symmetry_group_IT_number 121
_symmetry_cell_setting 'tetragonal'
loop_
_space_group_symop_operation_xyz
x,y,z
y,-x,-z
-x,-y,z
-y,x,-z
x,-y,-z
-x,y,-z
-y,-x,z
y,x,z
1/2+x,1/2+y,1/2+z
1/2+y,1/2-x,1/2-z
1/2-x,1/2-y,1/2+z
1/2-y,1/2+x,1/2-z
1/2+x,1/2-y,1/2-z
1/2-x,1/2+y,1/2-z
1/2-y,1/2-x,1/2+z
1/2+y,1/2+x,1/2+z
loop_
_atom_site_type_symbol
_atom_site_label
_atom_site_fract_x
_atom_site_fract_y
_atom_site_fract_z
Si Si1 0.761487 0.654687 0.923722
Si Si2 0.117351 0.979596 0.382722
Si Si3 0.931846 0.826414 0.031827
Si Si4 0.878198 0.776475 0.638301
Si Si5 0.585566 0.686741 0.762477
Si Si6 0.859097 0.753137 0.864868
O O1 0.705490 0.705490 0.925923
O O2 0.741191 0.603250 0.840867
O O3 0.822376 0.691706 0.893963
O O4 0.765498 0.626708 0.037883
O O5 0.056696 0.943305 0.344792
O O6 0.172660 0.930303 0.381977
O O7 0.106718 0.000000 0.500000
O O8 0.141403 0.035906 0.314940
O O9 0.883849 0.883849 0.031399
O O10 0.934130 0.798366 0.146729
O O11 0.906984 0.776602 0.949960
O O12 0.000000 0.846969 0.000000
O O13 0.813872 0.813872 0.643667
O O14 0.887084 0.748096 0.750687
O O15 0.648116 0.648116 0.750218
O O16 0.807491 0.807491 0.862578
#
# Coordination Sequence:
#
# PCOD9560286 Si02
#       6
#    16  16  16  16  16  16
#     4   9  17  29  45  67  90 112 150 200 249 288
#     4  11  20  31  45  64  93 127 167 207 244 281
#     4  10  21  35  49  67  94 129 171 203 235 283
#     4   9  17  29  45  64  87 114 148 192 238 282
#     4  10  20  32  45  64  91 124 162 208 247 281
#     4   9  18  30  48  68  87 118 156 195 240 293
#
# _framework density 15.653907
#
# number of rings (size 3 to 8) (size 9 to 14) (size 15 to 20)
#    0.000    2.333    1.667    1.500    2.333    3.333 
#    0.000    1.667    0.000    0.000    0.000    0.000 
#    0.000    0.000    0.000    3.000    6.000    0.333 
#
# Total GULP energy -267352.527510 kJ/mol
# GULP energy per Si atom -5569.844323 kJ/mol
# Density = 1.561828 g / cm^3
# Si number density = 15.653907 Si / 1000 Ang^3
#
#
#
# Elastic Constant Matrix: (Units=GPa)
#
#
# Indices 1 2 3 4 5 6 
#
# 1 30.1662 35.7434 39.3050 0.0000 0.0000 0.0000
# 2 35.7434 30.1663 39.3041 0.0000 0.0000 0.0000
# 3 39.3050 39.3041 147.2230 0.0000 0.0000 0.0000
# 4 0.0000 0.0000 0.0000 8.5638 0.0000 0.0000
# 5 0.0000 0.0000 0.0000 0.0000 8.5641 0.0000
# 6 0.0000 0.0000 0.0000 0.0000 0.0000 21.4507
#
#
#
# Elastic Compliance Matrix: (Units=1/GPa)
#
#
# Indices 1 2 3 4 5 6 
#
# 1 -0.078523 0.100782 -0.005942 0.000000 0.000000 0.000000
# 2 0.100782 -0.078521 -0.005944 0.000000 0.000000 0.000000
# 3 -0.005942 -0.005944 0.009966 0.000000 0.000000 0.000000
# 4 0.000000 0.000000 0.000000 0.116770 0.000000 0.000000
# 5 0.000000 0.000000 0.000000 0.000000 0.116766 0.000000
# 6 0.000000 0.000000 0.000000 0.000000 0.000000 0.046619
#
#
# Mechanical properties :
#
#
# Convention : Reuss Voigt Hill
#
# Bulk Modulus (GPa) = 32.55789 48.47340 40.51564
# Shear Modulus (GPa) = -145.01845 13.92927 -65.54459
#
# Velocity S-wave (km/s) = -9.63543 2.98623 -6.47781
# Velocity P-wave (km/s) = 10.14618 6.55157 5.47823
#
# Compressibility (1/GPa) = 0.03071452
#
# Stress axis : x y z
#
# Youngs Moduli (GPa) = -12.73511 -12.73546 100.34534
#
# Poissons Ratio (x) = 1.28351 0.59626
# Poissons Ratio (y) = 1.28347 0.59642
# Poissons Ratio (z) = -0.07567 -0.07570
#
# Static dielectric constant tensor:
#      x y z
#    x 1.509440 0.000000 0.000000 
#    y 0.000000 1.509440 0.000000 
#    z 0.000000 0.000000 1.561150 
# 
# From -- ./inp_files/3284.got.cif
#   From: 2010.05.17/outbox.cif.g08.bks.cpg/sg121_2_cif.got.tgz:3284.got - 2010.05.20 11:32:06.
