data_PCOD9560586
_publ_section_title
;
Structure prediction by ZEFSAII (Michael W. Deem and Ramdas Pophale) SiO2 
 PCOD9560586
Probable space group: I -4 2 M
;
_chemical_formula_sum "Si O2"
_cell_formula_units_Z 64
_cell_length_a 10.870323
_cell_length_b 10.870323
_cell_length_c 27.471935
_cell_angle_alpha 90.000000
_cell_angle_beta 90.000000
_cell_angle_gamma 90.000000
_cell_volume 3246.191588
_symmetry_space_group_name_H-M "I -4 2 M"
_symmetry_group_IT_number 121
_symmetry_cell_setting 'tetragonal'
loop_
_space_group_symop_operation_xyz
x,y,z
y,-x,-z
-x,-y,z
-y,x,-z
x,-y,-z
-x,y,-z
-y,-x,z
y,x,z
1/2+x,1/2+y,1/2+z
1/2+y,1/2-x,1/2-z
1/2-x,1/2-y,1/2+z
1/2-y,1/2+x,1/2-z
1/2+x,1/2-y,1/2-z
1/2-x,1/2+y,1/2-z
1/2-y,1/2-x,1/2+z
1/2+y,1/2+x,1/2+z
loop_
_atom_site_type_symbol
_atom_site_label
_atom_site_fract_x
_atom_site_fract_y
_atom_site_fract_z
Si Si1 0.137675 0.335735 0.133825
Si Si2 0.796633 0.993117 0.943297
Si Si3 0.462978 0.728473 0.712495
Si Si4 0.236812 0.430766 0.816696
O O1 0.260858 0.260858 0.120664
O O2 0.035925 0.310865 0.092399
O O3 0.174063 0.473982 0.146716
O O4 0.079204 0.270498 0.181333
O O5 0.904958 0.095043 0.936836
O O6 0.862159 0.862159 0.932725
O O7 0.761531 0.000000 0.000000
O O8 0.396613 0.603388 0.695524
O O9 0.495393 0.718241 0.769077
O O10 0.365081 0.836834 0.703632
O O11 0.348881 0.348881 0.836673
#
# Coordination Sequence:
#
# PCOD9560586 Si02
#       4
#    16  16  16  16
#     4  11  21  33  54  84 114 151 191 236 294 350
#     4   8  15  30  53  83 119 153 188 237 294 351
#     4  11  22  36  53  74 106 152 200 243 283 332
#     4  11  23  37  52  74 111 160 201 238 284 338
#
# _framework density 19.715411
#
# number of rings (size 3 to 8) (size 9 to 14) (size 15 to 20)
#    0.000    1.750    2.500    3.750    0.000    4.500 
#    0.000    0.000    0.000    3.000    0.000    0.000 
#    0.000    4.000    0.000   41.250    0.000    1.000 
#
# Total GULP energy -178722.801237 kJ/mol
# GULP energy per Si atom -5585.087539 kJ/mol
# Density = 1.967054 g / cm^3
# Si number density = 19.715411 Si / 1000 Ang^3
#
#
#
# Elastic Constant Matrix: (Units=GPa)
#
#
# Indices 1 2 3 4 5 6 
#
# 1 87.3596 73.7055 37.3502 0.0000 0.0000 0.0000
# 2 73.7055 87.3600 37.3502 0.0000 0.0000 0.0000
# 3 37.3502 37.3502 84.4377 0.0000 0.0000 0.0000
# 4 0.0000 0.0000 0.0000 14.9641 0.0000 0.0000
# 5 0.0000 0.0000 0.0000 0.0000 14.9638 0.0000
# 6 0.0000 0.0000 0.0000 0.0000 0.0000 37.3182
#
#
#
# Elastic Compliance Matrix: (Units=1/GPa)
#
#
# Indices 1 2 3 4 5 6 
#
# 1 0.040524 -0.032713 -0.003455 0.000000 0.000000 0.000000
# 2 -0.032713 0.040524 -0.003455 0.000000 0.000000 0.000000
# 3 -0.003455 -0.003455 0.014900 0.000000 0.000000 0.000000
# 4 0.000000 0.000000 0.000000 0.066827 0.000000 0.000000
# 5 0.000000 0.000000 0.000000 0.000000 0.066828 0.000000
# 6 0.000000 0.000000 0.000000 0.000000 0.000000 0.026797
#
#
# Mechanical properties :
#
#
# Convention : Reuss Voigt Hill
#
# Bulk Modulus (GPa) = 59.87546 61.77435 60.82491
# Shear Modulus (GPa) = 14.65361 20.83262 17.74312
#
# Velocity S-wave (km/s) = 2.72923 3.25417 3.00319
# Velocity P-wave (km/s) = 6.35354 6.74689 6.55316
#
# Compressibility (1/GPa) = 0.01670133
#
# Stress axis : x y z
#
# Youngs Moduli (GPa) = 24.67665 24.67683 67.11504
#
# Poissons Ratio (x) = 0.80725 0.23190
# Poissons Ratio (y) = 0.80724 0.23189
# Poissons Ratio (z) = 0.08526 0.08526
#
# Static dielectric constant tensor:
#      x y z
#    x 1.721980 0.000000 0.000000 
#    y 0.000000 1.721970 0.000000 
#    z 0.000000 0.000000 1.690000 
# 
# From -- ./inp_files/7477.got.cif
#   From: 2010.05.17/outbox.cif.g08.bks.cpg/sg121_4_cif.got.tgz:7477.got - 2010.05.20 11:32:06.
