data_PCOD9560833
_publ_section_title
;
Structure prediction by ZEFSAII (Michael W. Deem and Ramdas Pophale) SiO2 
 PCOD9560833
Probable space group: I -4 2 D
;
_chemical_formula_sum "Si O2"
_cell_formula_units_Z 64
_cell_length_a 19.896242
_cell_length_b 19.896242
_cell_length_c 8.368374
_cell_angle_alpha 90.000000
_cell_angle_beta 90.000000
_cell_angle_gamma 90.000000
_cell_volume 3312.708262
_symmetry_space_group_name_H-M "I -4 2 D"
_symmetry_group_IT_number 122
_symmetry_cell_setting 'tetragonal'
loop_
_space_group_symop_operation_xyz
x,y,z
y,-x,-z
-x,-y,z
-y,x,-z
x,1/2-y,1/4-z
-x,1/2+y,1/4-z
-y,1/2-x,1/4+z
y,1/2+x,1/4+z
1/2+x,1/2+y,1/2+z
1/2+y,1/2-x,1/2-z
1/2-x,1/2-y,1/2+z
1/2-y,1/2+x,1/2-z
1/2+x,-y,3/4-z
1/2-x,y,3/4-z
1/2-y,-x,3/4+z
1/2+y,x,3/4+z
loop_
_atom_site_type_symbol
_atom_site_label
_atom_site_fract_x
_atom_site_fract_y
_atom_site_fract_z
Si Si1 0.500055 0.355992 0.700528
Si Si2 0.626026 0.076149 0.404791
Si Si3 0.499919 0.781894 0.886676
Si Si4 0.076249 0.874024 0.654787
O O1 0.567027 0.398343 0.730683
O O2 0.500089 0.294033 0.827677
O O3 0.500071 0.325496 0.524136
O O4 0.433037 0.398274 0.730685
O O5 0.623706 0.123614 0.250007
O O6 0.693794 0.063116 0.505613
O O7 0.607943 0.999956 0.349478
O O8 0.436741 0.806243 0.994405
#
# Coordination Sequence:
#
# PCOD9560833 Si02
#       4
#    16  16  16  16
#     4  11  18  36  52  73 120 137 185 240 273 349
#     4  10  20  32  51  81 110 141 180 227 290 343
#     4   9  23  31  49  84 102 153 183 222 297 334
#     4  10  20  32  51  81 110 141 180 227 290 343
#
# _framework density 19.319541000000001
#
# number of rings (size 3 to 8) (size 9 to 14) (size 15 to 20)
#    1.500    0.500    2.500    2.250    0.000    4.000 
#    4.500    0.000    0.000    0.000    0.000   28.000 
#    0.000    0.000    0.000    0.000    0.000    0.000 
#
# Total GULP energy -178218.927568 kJ/mol
# GULP energy per Si atom -5569.341487 kJ/mol
# Density = 1.927557 g / cm^3
# Si number density = 19.319541 Si / 1000 Ang^3
#
#
#
# Elastic Constant Matrix: (Units=GPa)
#
#
# Indices 1 2 3 4 5 6 
#
# 1 53.9534 22.9671 45.7697 0.0000 0.0000 0.0000
# 2 22.9671 53.9534 45.7697 0.0000 0.0000 0.0000
# 3 45.7697 45.7697 117.7770 0.0000 0.0000 0.0000
# 4 0.0000 0.0000 0.0000 43.0524 0.0000 0.0000
# 5 0.0000 0.0000 0.0000 0.0000 43.0524 0.0000
# 6 0.0000 0.0000 0.0000 0.0000 0.0000 3.9183
#
#
#
# Elastic Compliance Matrix: (Units=1/GPa)
#
#
# Indices 1 2 3 4 5 6 
#
# 1 0.028229 -0.004043 -0.009399 0.000000 0.000000 0.000000
# 2 -0.004043 0.028229 -0.009399 0.000000 0.000000 0.000000
# 3 -0.009399 -0.009399 0.015796 0.000000 0.000000 0.000000
# 4 0.000000 0.000000 0.000000 0.023228 0.000000 0.000000
# 5 0.000000 0.000000 0.000000 0.000000 0.023228 0.000000
# 6 0.000000 0.000000 0.000000 0.000000 0.000000 0.255213
#
#
# Mechanical properties :
#
#
# Convention : Reuss Voigt Hill
#
# Bulk Modulus (GPa) = 37.63444 50.52186 44.07815
# Shear Modulus (GPa) = 11.66967 25.41642 18.54305
#
# Velocity S-wave (km/s) = 2.46038 3.63103 3.10144
# Velocity P-wave (km/s) = 5.25296 6.61714 5.97412
#
# Compressibility (1/GPa) = 0.02657141
#
# Stress axis : x y z
#
# Youngs Moduli (GPa) = 35.42466 35.42466 63.30867
#
# Poissons Ratio (x) = 0.14324 0.59503
# Poissons Ratio (y) = 0.14324 0.59503
# Poissons Ratio (z) = 0.33295 0.33295
#
# Static dielectric constant tensor:
#      x y z
#    x 1.663490 0.000000 0.000000 
#    y 0.000000 1.663490 0.000000 
#    z 0.000000 0.000000 1.749630 
# 
# From -- ./inp_files/2524.got.cif
#   From: 2010.05.17/outbox.cif.g08.bks.cpg/sg122_2_cif.got.tgz:2524.got - 2010.05.20 11:37:33.
