data_PCOD9560067
_publ_section_title
;
Structure prediction by ZEFSAII (Michael W. Deem and Ramdas Pophale) SiO2 
 PCOD9560067
Probable space group: I -4 C 2
;
_chemical_formula_sum "Si O2"
_cell_formula_units_Z 48
_cell_length_a 14.297778
_cell_length_b 14.297778
_cell_length_c 10.030849
_cell_angle_alpha 90.000000
_cell_angle_beta 90.000000
_cell_angle_gamma 90.000000
_cell_volume 2050.570909
_symmetry_space_group_name_H-M "I -4 C 2"
_symmetry_group_IT_number 120
_symmetry_cell_setting 'tetragonal'
loop_
_space_group_symop_operation_xyz
x,y,z
y,-x,-z
-x,-y,z
-y,x,-z
y,x,1/2-z
-y,-x,1/2-z
-x,y,1/2+z
x,-y,1/2+z
1/2+x,1/2+y,1/2+z
1/2+y,1/2-x,1/2-z
1/2-x,1/2-y,1/2+z
1/2-y,1/2+x,1/2-z
1/2+y,1/2+x,-z
1/2-y,1/2-x,-z
1/2-x,1/2+y,z
1/2+x,1/2-y,z
loop_
_atom_site_type_symbol
_atom_site_label
_atom_site_fract_x
_atom_site_fract_y
_atom_site_fract_z
Si Si1 0.261615 0.238386 0.500000
Si Si2 0.450768 0.703638 0.564767
Si Si3 0.000000 0.000000 0.000000
Si Si4 0.000000 0.500000 0.250000
Si Si5 0.428589 0.193134 0.343775
O O1 0.281909 0.348183 0.498851
O O2 0.318301 0.197099 0.374070
O O3 0.474950 0.594320 0.580078
O O4 0.522452 0.751487 0.463340
O O5 0.449768 0.755613 0.705599
O O6 0.088326 0.466526 0.164348
#
# Coordination Sequence:
#
# PCOD9560067 Si02
#       5
#     8  16   4   4  16
#     4  12  26  49  74 115 162 208 266 324 418 498
#     4  12  28  51  84 117 161 210 273 343 417 495
#     4  12  28  54  84 122 168 210 284 342 432 490
#     4  12  28  50  80 110 160 202 276 330 408 482
#     4  12  28  51  80 117 155 216 268 344 410 498
#
# _framework density 23.408117000000001
#
# number of rings (size 3 to 8) (size 9 to 14) (size 15 to 20)
#    0.000    0.000    3.333    5.000    0.000   10.000 
#    0.000    0.000    0.000    0.000    0.000    0.000 
#    0.000    0.000    0.000    0.000    0.000    0.000 
#
# Total GULP energy -134592.635885 kJ/mol
# GULP energy per Si atom -5608.026495 kJ/mol
# Density = 2.335484 g / cm^3
# Si number density = 23.408117 Si / 1000 Ang^3
#
#
#
# Elastic Constant Matrix: (Units=GPa)
#
#
# Indices 1 2 3 4 5 6 
#
# 1 163.6596 49.6686 55.8293 0.0000 0.0000 0.0000
# 2 49.6686 163.6619 55.8297 0.0000 0.0000 0.0000
# 3 55.8293 55.8297 154.9265 0.0000 0.0000 0.0000
# 4 0.0000 0.0000 0.0000 16.2587 0.0000 0.0000
# 5 0.0000 0.0000 0.0000 0.0000 16.2584 0.0000
# 6 0.0000 0.0000 0.0000 0.0000 0.0000 43.5226
#
#
#
# Elastic Compliance Matrix: (Units=1/GPa)
#
#
# Indices 1 2 3 4 5 6 
#
# 1 0.007275 -0.001498 -0.002082 0.000000 0.000000 0.000000
# 2 -0.001498 0.007275 -0.002082 0.000000 0.000000 0.000000
# 3 -0.002082 -0.002082 0.007955 0.000000 0.000000 0.000000
# 4 0.000000 0.000000 0.000000 0.061506 0.000000 0.000000
# 5 0.000000 0.000000 0.000000 0.000000 0.061507 0.000000
# 6 0.000000 0.000000 0.000000 0.000000 0.000000 0.022977
#
#
# Mechanical properties :
#
#
# Convention : Reuss Voigt Hill
#
# Bulk Modulus (GPa) = 89.42877 89.43367 89.43122
# Shear Modulus (GPa) = 27.24142 36.60263 31.92202
#
# Velocity S-wave (km/s) = 3.41509 3.95862 3.69686
# Velocity P-wave (km/s) = 7.33741 7.69308 7.51735
#
# Compressibility (1/GPa) = 0.01118208
#
# Stress axis : x y z
#
# Youngs Moduli (GPa) = 137.45780 137.45974 125.70467
#
# Poissons Ratio (x) = 0.20586 0.26171
# Poissons Ratio (y) = 0.20586 0.26170
# Poissons Ratio (z) = 0.28618 0.28618
#
# Static dielectric constant tensor:
#      x y z
#    x 1.894720 0.000000 0.000000 
#    y 0.000000 1.894710 0.000000 
#    z 0.000000 0.000000 1.823540 
# 
# From -- ./inp_files/2164.got.cif
#   From: 2010.05.17/outbox.cif.g08.bks.cpg/sg120_2_cif.got.tgz:2164.got - 2010.05.20 11:28:13.
