data_PCOD9560020
_publ_section_title
;
Structure prediction by ZEFSAII (Michael W. Deem and Ramdas Pophale) SiO2 
 PCOD9560020
Probable space group: I -4 C 2
;
_chemical_formula_sum "Si O2"
_cell_formula_units_Z 64
_cell_length_a 11.852677
_cell_length_b 11.852677
_cell_length_c 19.002623
_cell_angle_alpha 90.000000
_cell_angle_beta 90.000000
_cell_angle_gamma 90.000000
_cell_volume 2669.601584
_symmetry_space_group_name_H-M "I -4 C 2"
_symmetry_group_IT_number 120
_symmetry_cell_setting 'tetragonal'
loop_
_space_group_symop_operation_xyz
x,y,z
y,-x,-z
-x,-y,z
-y,x,-z
y,x,1/2-z
-y,-x,1/2-z
-x,y,1/2+z
x,-y,1/2+z
1/2+x,1/2+y,1/2+z
1/2+y,1/2-x,1/2-z
1/2-x,1/2-y,1/2+z
1/2-y,1/2+x,1/2-z
1/2+y,1/2+x,-z
1/2-y,1/2-x,-z
1/2-x,1/2+y,z
1/2+x,1/2-y,z
loop_
_atom_site_type_symbol
_atom_site_label
_atom_site_fract_x
_atom_site_fract_y
_atom_site_fract_z
Si Si1 0.810946 0.459642 0.616623
Si Si2 0.615249 0.410900 0.967730
Si Si3 0.686294 0.502596 0.758479
Si Si4 0.466731 0.175932 0.098483
O O1 0.693650 0.427215 0.578321
O O2 0.776180 0.468684 0.698566
O O3 0.878182 0.575940 0.606946
O O4 0.906592 0.371575 0.590827
O O5 0.748180 0.414510 0.962964
O O6 0.548337 0.401955 0.042192
O O7 0.626966 0.626966 0.750000
O O8 0.584782 0.415219 0.750000
O O9 0.744753 0.478384 0.832929
#
# Coordination Sequence:
#
# PCOD9560020 Si02
#       4
#    16  16  16  16
#     4  11  26  47  74 112 151 190 241 307 382 450
#     4  11  28  46  73 100 137 198 253 308 358 434
#     4  11  24  41  76 115 148 187 240 293 371 459
#     4  11  26  47  74 112 151 190 241 307 382 450
#
# _framework density 23.973616
#
# number of rings (size 3 to 8) (size 9 to 14) (size 15 to 20)
#    0.000    1.000    2.500    1.500   10.500    8.000 
#    0.000    2.500    0.000    0.000    0.000    0.000 
#    0.000    0.000    0.000    0.000    0.000    0.000 
#
# Total GULP energy -178175.577188 kJ/mol
# GULP energy per Si atom -5567.986787 kJ/mol
# Density = 2.391905 g / cm^3
# Si number density = 23.973616 Si / 1000 Ang^3
#
#
#
# Elastic Constant Matrix: (Units=GPa)
#
#
# Indices 1 2 3 4 5 6 
#
# 1 147.4591 80.8928 53.0401 0.0000 0.0000 0.0000
# 2 80.8928 147.4625 53.0407 0.0000 0.0000 0.0000
# 3 53.0401 53.0407 96.1161 0.0000 0.0000 0.0000
# 4 0.0000 0.0000 0.0000 35.4293 0.0000 0.0000
# 5 0.0000 0.0000 0.0000 0.0000 35.4295 0.0000
# 6 0.0000 0.0000 0.0000 0.0000 0.0000 21.0680
#
#
#
# Elastic Compliance Matrix: (Units=1/GPa)
#
#
# Indices 1 2 3 4 5 6 
#
# 1 0.010456 -0.004567 -0.003250 0.000000 0.000000 0.000000
# 2 -0.004567 0.010455 -0.003250 0.000000 0.000000 0.000000
# 3 -0.003250 -0.003250 0.013991 0.000000 0.000000 0.000000
# 4 0.000000 0.000000 0.000000 0.028225 0.000000 0.000000
# 5 0.000000 0.000000 0.000000 0.000000 0.028225 0.000000
# 6 0.000000 0.000000 0.000000 0.000000 0.000000 0.047465
#
#
# Mechanical properties :
#
#
# Convention : Reuss Voigt Hill
#
# Bulk Modulus (GPa) = 78.31089 84.99831 81.65460
# Shear Modulus (GPa) = 30.26526 31.98964 31.12745
#
# Velocity S-wave (km/s) = 3.55694 3.65686 3.60725
# Velocity P-wave (km/s) = 7.04311 7.30494 7.17522
#
# Compressibility (1/GPa) = 0.01276962
#
# Stress axis : x y z
#
# Youngs Moduli (GPa) = 95.64233 95.64448 71.47641
#
# Poissons Ratio (x) = 0.43678 0.23227
# Poissons Ratio (y) = 0.43677 0.23227
# Poissons Ratio (z) = 0.31081 0.31081
#
# Static dielectric constant tensor:
#      x y z
#    x 2.044000 0.000000 0.000000 
#    y 0.000000 2.044010 0.000000 
#    z 0.000000 0.000000 2.010360 
# 
# From -- ./inp_files/5027.got.cif
#   From: 2010.05.17/outbox.cif.g08.bks.cpg/sg120_3_cif.got.tgz:5027.got - 2010.05.20 11:28:13.
