data_PCOD9560146
_publ_section_title
;
Structure prediction by ZEFSAII (Michael W. Deem and Ramdas Pophale) SiO2 
 PCOD9560146
Probable space group: I -4 2 M
;
_chemical_formula_sum "Si O2"
_cell_formula_units_Z 88
_cell_length_a 12.064602
_cell_length_b 12.064602
_cell_length_c 30.109314
_cell_angle_alpha 90.000000
_cell_angle_beta 90.000000
_cell_angle_gamma 90.000000
_cell_volume 4382.549800
_symmetry_space_group_name_H-M "I -4 2 M"
_symmetry_group_IT_number 121
_symmetry_cell_setting 'tetragonal'
loop_
_space_group_symop_operation_xyz
x,y,z
y,-x,-z
-x,-y,z
-y,x,-z
x,-y,-z
-x,y,-z
-y,-x,z
y,x,z
1/2+x,1/2+y,1/2+z
1/2+y,1/2-x,1/2-z
1/2-x,1/2-y,1/2+z
1/2-y,1/2+x,1/2-z
1/2+x,1/2-y,1/2-z
1/2-x,1/2+y,1/2-z
1/2-y,1/2-x,1/2+z
1/2+y,1/2+x,1/2+z
loop_
_atom_site_type_symbol
_atom_site_label
_atom_site_fract_x
_atom_site_fract_y
_atom_site_fract_z
Si Si1 0.377339 0.966172 0.822730
Si Si2 0.186061 0.000000 0.000000
Si Si3 0.411395 0.225033 0.586651
Si Si4 0.764764 0.578252 0.241507
Si Si5 0.946736 0.759189 0.546377
Si Si6 0.904604 0.095397 0.605943
Si Si7 0.595029 0.595029 0.793281
O O1 0.300694 0.962817 0.865785
O O2 0.387674 0.846673 0.798443
O O3 0.500000 0.000000 0.836872
O O4 0.334929 0.051081 0.785280
O O5 0.254204 0.993162 0.954531
O O6 0.107094 0.107094 0.998337
O O7 0.332248 0.332248 0.591023
O O8 0.333333 0.123824 0.571380
O O9 0.675027 0.675027 0.248244
O O10 0.697920 0.464988 0.230075
O O11 0.861692 0.861692 0.536838
O O12 0.000000 0.722705 0.500000
O O13 0.041343 0.804984 0.578798
O O14 0.875333 0.124668 0.656217
O O15 0.000000 0.000000 0.607967
O O16 0.500000 0.500000 0.794825
#
# Coordination Sequence:
#
# PCOD9560146 Si02
#       7
#    16   8  16  16  16   8   8
#     4  12  24  43  63  92 128 171 210 259 329 390
#     4   9  20  44  69  90 122 162 209 272 323 366
#     4  10  23  39  64  91 121 163 209 259 318 373
#     4  11  23  41  65  91 128 165 214 272 323 381
#     4  10  18  31  53  85 124 162 197 242 297 361
#     4   9  16  28  50  79 118 160 196 239 296 360
#     4   9  20  36  58  89 116 157 213 260 313 378
#
# _framework density 20.079636000000001
#
# number of rings (size 3 to 8) (size 9 to 14) (size 15 to 20)
#    0.000    1.727    2.727    1.636    2.545    5.091 
#    0.000    0.000    0.000    0.000    0.000    0.000 
#    0.000    0.000    0.000    0.000    0.000    0.000 
#
# Total GULP energy -245896.045561 kJ/mol
# GULP energy per Si atom -5588.546490 kJ/mol
# Density = 2.003393 g / cm^3
# Si number density = 20.079636 Si / 1000 Ang^3
#
#
#
# Elastic Constant Matrix: (Units=GPa)
#
#
# Indices 1 2 3 4 5 6 
#
# 1 48.0500 8.1411 21.0261 0.0000 0.0000 0.0000
# 2 8.1411 48.0502 21.0261 0.0000 0.0000 0.0000
# 3 21.0261 21.0261 127.6272 0.0000 0.0000 0.0000
# 4 0.0000 0.0000 0.0000 13.9620 0.0000 0.0000
# 5 0.0000 0.0000 0.0000 0.0000 13.9617 0.0000
# 6 0.0000 0.0000 0.0000 0.0000 0.0000 -2.3648
#
#
#
# Elastic Compliance Matrix: (Units=1/GPa)
#
#
# Indices 1 2 3 4 5 6 
#
# 1 0.022678 -0.002379 -0.003344 0.000000 0.000000 0.000000
# 2 -0.002379 0.022678 -0.003344 0.000000 0.000000 0.000000
# 3 -0.003344 -0.003344 0.008937 0.000000 0.000000 0.000000
# 4 0.000000 0.000000 0.000000 0.071623 0.000000 0.000000
# 5 0.000000 0.000000 0.000000 0.000000 0.071625 0.000000
# 6 0.000000 0.000000 0.000000 0.000000 0.000000 -0.422875
#
#
# Mechanical properties :
#
#
# Convention : Reuss Voigt Hill
#
# Bulk Modulus (GPa) = 27.65593 36.01267 31.83430
# Shear Modulus (GPa) = -25.62175 16.68072 -4.47052
#
# Velocity S-wave (km/s) = -3.57600 2.88536 -1.49373
# Velocity P-wave (km/s) = 1.80204 5.39206 3.59353
#
# Compressibility (1/GPa) = 0.03615861
#
# Stress axis : x y z
#
# Youngs Moduli (GPa) = 44.09542 44.09566 111.89176
#
# Poissons Ratio (x) = 0.10490 0.37419
# Poissons Ratio (y) = 0.10490 0.37419
# Poissons Ratio (z) = 0.14746 0.14746
#
# Static dielectric constant tensor:
#      x y z
#    x 1.715750 0.000000 0.000000 
#    y 0.000000 1.715750 0.000000 
#    z 0.000000 0.000000 1.682430 
# 
# From -- ./inp_files/8268.got.cif
#   From: 2010.05.17/outbox.cif.g08.bks.cpg/sg121_5_cif.got.tgz:8268.got - 2010.05.20 11:32:06.
