data_PCOD9560624
_publ_section_title
;
Structure prediction by ZEFSAII (Michael W. Deem and Ramdas Pophale) SiO2 
 PCOD9560624
Probable space group: I -4 2 M
;
_chemical_formula_sum "Si O2"
_cell_formula_units_Z 32
_cell_length_a 17.715280
_cell_length_b 17.715280
_cell_length_c 4.829651
_cell_angle_alpha 90.000000
_cell_angle_beta 90.000000
_cell_angle_gamma 90.000000
_cell_volume 1515.694906
_symmetry_space_group_name_H-M "I -4 2 M"
_symmetry_group_IT_number 121
_symmetry_cell_setting 'tetragonal'
loop_
_space_group_symop_operation_xyz
x,y,z
y,-x,-z
-x,-y,z
-y,x,-z
x,-y,-z
-x,y,-z
-y,-x,z
y,x,z
1/2+x,1/2+y,1/2+z
1/2+y,1/2-x,1/2-z
1/2-x,1/2-y,1/2+z
1/2-y,1/2+x,1/2-z
1/2+x,1/2-y,1/2-z
1/2-x,1/2+y,1/2-z
1/2-y,1/2-x,1/2+z
1/2+y,1/2+x,1/2+z
loop_
_atom_site_type_symbol
_atom_site_label
_atom_site_fract_x
_atom_site_fract_y
_atom_site_fract_z
Si Si1 0.657926 0.916525 0.611575
Si Si2 0.447027 0.324349 0.239080
O O1 0.607222 0.862645 0.421661
O O2 0.748612 0.911754 0.604099
O O3 0.639130 0.000000 0.500000
O O4 0.500000 0.303875 0.500000
O O5 0.382654 0.382654 0.324118
O O6 0.500000 0.358471 0.000000
#
# Coordination Sequence:
#
# PCOD9560624 Si02
#       2
#    16  16
#     4  11  23  40  62  91 125 162 207 256 309 373
#     4  11  24  42  64  93 128 166 213 266 319 381
#
# _framework density 21.112428000000001
#
# number of rings (size 3 to 8) (size 9 to 14) (size 15 to 20)
#    0.000    1.000    0.000    9.000    0.000    8.000 
#    0.000    0.000    0.000    0.000    0.000    0.000 
#    0.000    0.000    0.000    0.000    0.000    0.000 
#
# Total GULP energy -89327.562166 kJ/mol
# GULP energy per Si atom -5582.972635 kJ/mol
# Density = 2.106437 g / cm^3
# Si number density = 21.112428 Si / 1000 Ang^3
#
#
#
# Elastic Constant Matrix: (Units=GPa)
#
#
# Indices 1 2 3 4 5 6 
#
# 1 71.7161 57.6212 -1.4711 0.0000 0.0000 0.0000
# 2 57.6212 71.7161 -1.4711 0.0000 0.0000 0.0000
# 3 -1.4711 -1.4711 77.2952 0.0000 0.0000 0.0000
# 4 0.0000 0.0000 0.0000 29.8502 0.0000 0.0000
# 5 0.0000 0.0000 0.0000 0.0000 29.8502 0.0000
# 6 0.0000 0.0000 0.0000 0.0000 0.0000 57.7544
#
#
#
# Elastic Compliance Matrix: (Units=1/GPa)
#
#
# Indices 1 2 3 4 5 6 
#
# 1 0.039341 -0.031606 0.000147 0.000000 0.000000 0.000000
# 2 -0.031606 0.039341 0.000147 0.000000 0.000000 0.000000
# 3 0.000147 0.000147 0.012943 0.000000 0.000000 0.000000
# 4 0.000000 0.000000 0.000000 0.033501 0.000000 0.000000
# 5 0.000000 0.000000 0.000000 0.000000 0.033501 0.000000
# 6 0.000000 0.000000 0.000000 0.000000 0.000000 0.017315
#
#
# Mechanical properties :
#
#
# Convention : Reuss Voigt Hill
#
# Bulk Modulus (GPa) = 34.48034 36.67614 35.57824
# Shear Modulus (GPa) = 20.14237 34.56086 27.35161
#
# Velocity S-wave (km/s) = 3.09213 4.05036 3.60324
# Velocity P-wave (km/s) = 5.39588 6.26765 5.84803
#
# Compressibility (1/GPa) = 0.02900203
#
# Stress axis : x y z
#
# Youngs Moduli (GPa) = 25.41848 25.41848 77.26170
#
# Poissons Ratio (x) = 0.80339 -0.01137
# Poissons Ratio (y) = 0.80339 -0.01137
# Poissons Ratio (z) = -0.00374 -0.00374
#
# Static dielectric constant tensor:
#      x y z
#    x 1.739720 0.000000 0.000000 
#    y 0.000000 1.739720 0.000000 
#    z 0.000000 0.000000 1.684020 
# 
# From -- ./inp_files/115.got.cif
#   From: 2010.05.17/outbox.cif.g08.bks.cpg/sg121_1_cif.got.tgz:115.got - 2010.05.20 11:32:06.
