data_PCOD9560676
_publ_section_title
;
Structure prediction by ZEFSAII (Michael W. Deem and Ramdas Pophale) SiO2 
 PCOD9560676
Probable space group: I -4 2 M
;
_chemical_formula_sum "Si O2"
_cell_formula_units_Z 60
_cell_length_a 18.000000
_cell_length_b 18.000000
_cell_length_c 21.000000
_cell_angle_alpha 90.000000
_cell_angle_beta 90.000000
_cell_angle_gamma 90.000000
_cell_volume 6804.000000
_symmetry_space_group_name_H-M "I -4 2 M"
_symmetry_group_IT_number 121
_symmetry_cell_setting 'tetragonal'
loop_
_space_group_symop_operation_xyz
x,y,z
y,-x,-z
-x,-y,z
-y,x,-z
x,-y,-z
-x,y,-z
-y,-x,z
y,x,z
1/2+x,1/2+y,1/2+z
1/2+y,1/2-x,1/2-z
1/2-x,1/2-y,1/2+z
1/2-y,1/2+x,1/2-z
1/2+x,1/2-y,1/2-z
1/2-x,1/2+y,1/2-z
1/2-y,1/2-x,1/2+z
1/2+y,1/2+x,1/2+z
loop_
_atom_site_type_symbol
_atom_site_label
_atom_site_fract_x
_atom_site_fract_y
_atom_site_fract_z
Si Si1 0.000000 0.119577 0.000000
Si Si2 0.620022 0.502250 0.266898
Si Si3 0.081990 0.607563 0.525431
Si Si4 0.534606 0.868096 0.594960
Si Si5 0.551806 0.279605 0.616215
Si Si6 0.814862 0.702671 0.400049
Si Si7 0.100735 0.561358 0.272789
Si Si8 0.382028 0.263398 0.770017
O O1 0.963440 0.171077 0.053825
O O2 0.935408 0.064593 0.974145
O O3 0.559756 0.440245 0.289327
O O4 0.568480 0.568480 0.237554
O O5 0.666870 0.538740 0.324069
O O6 0.681312 0.453584 0.228191
O O7 0.135086 0.584452 0.467303
O O8 0.087107 0.538796 0.574043
O O9 0.116441 0.677684 0.558318
O O10 0.000000 0.615597 0.500000
O O11 0.508161 0.786956 0.616147
O O12 0.573885 0.909625 0.652244
O O13 0.630886 0.237132 0.615285
O O14 0.762010 0.762010 0.433074
O O15 0.849076 0.738774 0.337386
O O16 0.096232 0.471530 0.261774
O O17 0.182493 0.593570 0.257374
O O18 0.315081 0.315081 0.739654
#
# Coordination Sequence:
#
# PCOD9560676 Si02
#       8
#     8  16  16  16  16  16  16  16
#     4  11  22  32  48  78 113 154 200 238 273 326
#     4  10  20  35  55  79 110 150 194 238 284 340
#     4  10  21  34  57  77 109 144 186 230 281 332
#     4  10  20  34  51  84 111 143 184 228 273 342
#     4  11  19  34  53  78 113 149 189 230 280 339
#     4  10  21  37  57  79 105 144 190 234 289 348
#     4  11  23  35  59  87 120 152 196 241 289 351
#     4  10  22  40  57  82 117 152 194 239 290 348
#
# _framework density 8.8183419999999995
#
# number of rings (size 3 to 8) (size 9 to 14) (size 15 to 20)
#    0.000    1.667    1.333    5.600    5.600    1.067 
#    0.000    1.333    0.000    0.800    0.000    0.000 
#    0.000    0.000    0.000    0.000    0.000    0.000 
#
# Total GULP energy -334173.496936 kJ/mol
# GULP energy per Si atom -5569.558282 kJ/mol
# Density = 0.879827 g / cm^3
# Si number density = 8.818342 Si / 1000 Ang^3
#
#
#
# Elastic Constant Matrix: (Units=GPa)
#
#
# Indices 1 2 3 4 5 6 
#
# 1 97.3864 37.7202 27.3431 0.0000 0.0000 0.0000
# 2 37.7202 97.3861 27.3432 0.0000 0.0000 0.0000
# 3 27.3431 27.3432 41.4508 0.0000 0.0000 0.0000
# 4 0.0000 0.0000 0.0000 21.6645 0.0000 0.0000
# 5 0.0000 0.0000 0.0000 0.0000 21.6644 0.0000
# 6 0.0000 0.0000 0.0000 0.0000 0.0000 32.8010
#
#
#
# Elastic Compliance Matrix: (Units=1/GPa)
#
#
# Indices 1 2 3 4 5 6 
#
# 1 0.013429 -0.003331 -0.006661 0.000000 0.000000 0.000000
# 2 -0.003331 0.013429 -0.006661 0.000000 0.000000 0.000000
# 3 -0.006661 -0.006661 0.032913 0.000000 0.000000 0.000000
# 4 0.000000 0.000000 0.000000 0.046158 0.000000 0.000000
# 5 0.000000 0.000000 0.000000 0.000000 0.046159 0.000000
# 6 0.000000 0.000000 0.000000 0.000000 0.000000 0.030487
#
#
# Mechanical properties :
#
#
# Convention : Reuss Voigt Hill
#
# Bulk Modulus (GPa) = 37.78668 46.78181 42.28424
# Shear Modulus (GPa) = 22.25168 24.81378 23.53273
#
# Velocity S-wave (km/s) = 3.55585 3.75499 3.65678
# Velocity P-wave (km/s) = 6.19115 6.73668 6.46967
#
# Compressibility (1/GPa) = 0.02646436
#
# Stress axis : x y z
#
# Youngs Moduli (GPa) = 74.46689 74.46650 30.38321
#
# Poissons Ratio (x) = 0.24806 0.20238
# Poissons Ratio (y) = 0.24806 0.20238
# Poissons Ratio (z) = 0.49602 0.49602
#
# Static dielectric constant tensor:
#      x y z
#    x 1.616510 0.000000 0.000000 
#    y 0.000000 1.616510 0.000000 
#    z 0.000000 0.000000 1.615940 
# 
# From -- ./inp_files/6664.got.cif
#   From: 2010.05.17/outbox.ucp.g08.bks.cvg/sg121_4_cif.got.tgz:6664.got - 2010.06.11 11:35:03.
