data_PCOD9560145
_publ_section_title
;
Structure prediction by ZEFSAII (Michael W. Deem and Ramdas Pophale) SiO2 
 PCOD9560145
Probable space group: I -4 2 M
;
_chemical_formula_sum "Si O2"
_cell_formula_units_Z 80
_cell_length_a 18.601414
_cell_length_b 18.601414
_cell_length_c 11.659712
_cell_angle_alpha 90.000000
_cell_angle_beta 90.000000
_cell_angle_gamma 90.000000
_cell_volume 4034.407297
_symmetry_space_group_name_H-M "I -4 2 M"
_symmetry_group_IT_number 121
_symmetry_cell_setting 'tetragonal'
loop_
_space_group_symop_operation_xyz
x,y,z
y,-x,-z
-x,-y,z
-y,x,-z
x,-y,-z
-x,y,-z
-y,-x,z
y,x,z
1/2+x,1/2+y,1/2+z
1/2+y,1/2-x,1/2-z
1/2-x,1/2-y,1/2+z
1/2-y,1/2+x,1/2-z
1/2+x,1/2-y,1/2-z
1/2-x,1/2+y,1/2-z
1/2-y,1/2-x,1/2+z
1/2+y,1/2+x,1/2+z
loop_
_atom_site_type_symbol
_atom_site_label
_atom_site_fract_x
_atom_site_fract_y
_atom_site_fract_z
Si Si1 0.756057 0.356943 0.456983
Si Si2 0.760690 0.873244 0.792695
Si Si3 0.861724 0.751068 0.302761
Si Si4 0.325097 0.996895 0.687380
Si Si5 0.067143 0.399169 0.083900
O O1 0.724721 0.275280 0.462632
O O2 0.726607 0.392897 0.573141
O O3 0.732309 0.382778 0.330629
O O4 0.840041 0.375566 0.460926
O O5 0.831187 0.831187 0.749258
O O6 0.697063 0.813071 0.794628
O O7 0.729091 0.940017 0.724846
O O8 0.820036 0.820036 0.350172
O O9 0.931616 0.720690 0.364173
O O10 0.388736 0.030295 0.613773
O O11 0.365209 0.964728 0.799188
O O12 0.000000 0.407426 0.000000
#
# Coordination Sequence:
#
# PCOD9560145 Si02
#       5
#    16  16  16  16  16
#     4   9  17  31  53  75  99 140 185 227 270 315
#     4  10  18  31  53  79 104 137 185 229 265 328
#     4   9  19  35  52  72 104 142 187 231 267 323
#     4  11  20  35  54  79 109 151 184 216 283 339
#     4  11  22  36  51  75 118 149 181 227 278 348
#
# _framework density 19.829431
#
# number of rings (size 3 to 8) (size 9 to 14) (size 15 to 20)
#    0.000    2.000    6.000    0.000    0.000    0.400 
#    0.000    9.000    0.000    0.600    0.000    0.000 
#    0.000    6.000    0.000    5.400    0.000    0.800 
#
# Total GULP energy -223065.233942 kJ/mol
# GULP energy per Si atom -5576.630849 kJ/mol
# Density = 1.978430 g / cm^3
# Si number density = 19.829431 Si / 1000 Ang^3
#
#
#
# Elastic Constant Matrix: (Units=GPa)
#
#
# Indices 1 2 3 4 5 6 
#
# 1 115.8574 89.7773 25.4805 0.0000 0.0000 0.0000
# 2 89.7773 115.8577 25.4805 0.0000 0.0000 0.0000
# 3 25.4805 25.4805 42.4703 0.0000 0.0000 0.0000
# 4 0.0000 0.0000 0.0000 27.4710 0.0000 0.0000
# 5 0.0000 0.0000 0.0000 0.0000 27.4706 0.0000
# 6 0.0000 0.0000 0.0000 0.0000 0.0000 42.9380
#
#
#
# Elastic Compliance Matrix: (Units=1/GPa)
#
#
# Indices 1 2 3 4 5 6 
#
# 1 0.022028 -0.016315 -0.003427 0.000000 0.000000 0.000000
# 2 -0.016315 0.022028 -0.003427 0.000000 0.000000 0.000000
# 3 -0.003427 -0.003427 0.027658 0.000000 0.000000 0.000000
# 4 0.000000 0.000000 0.000000 0.036402 0.000000 0.000000
# 5 0.000000 0.000000 0.000000 0.000000 0.036403 0.000000
# 6 0.000000 0.000000 0.000000 0.000000 0.000000 0.023289
#
#
# Mechanical properties :
#
#
# Convention : Reuss Voigt Hill
#
# Bulk Modulus (GPa) = 39.41019 61.74023 50.57521
# Shear Modulus (GPa) = 22.46128 28.47238 25.46683
#
# Velocity S-wave (km/s) = 3.36925 3.79339 3.58759
# Velocity P-wave (km/s) = 5.92060 7.09857 6.53618
#
# Compressibility (1/GPa) = 0.02537415
#
# Stress axis : x y z
#
# Youngs Moduli (GPa) = 45.39721 45.39733 36.15569
#
# Poissons Ratio (x) = 0.74068 0.12391
# Poissons Ratio (y) = 0.74068 0.12391
# Poissons Ratio (z) = 0.15558 0.15558
#
# Static dielectric constant tensor:
#      x y z
#    x 1.712250 0.000000 0.000000 
#    y 0.000000 1.712250 0.000000 
#    z 0.000000 0.000000 1.813890 
# 
# From -- ./inp_files/4235.got.cif
#   From: 2010.05.17/outbox.cif.g08.bks.cpg/sg121_3_cif.got.tgz:4235.got - 2010.05.20 11:32:06.
