data_PCOD9560217
_publ_section_title
;
Structure prediction by ZEFSAII (Michael W. Deem and Ramdas Pophale) SiO2 
 PCOD9560217
Probable space group: I -4 2 M
;
_chemical_formula_sum "Si O2"
_cell_formula_units_Z 64
_cell_length_a 27.986425
_cell_length_b 27.986425
_cell_length_c 5.027474
_cell_angle_alpha 90.000000
_cell_angle_beta 90.000000
_cell_angle_gamma 90.000000
_cell_volume 3937.718657
_symmetry_space_group_name_H-M "I -4 2 M"
_symmetry_group_IT_number 121
_symmetry_cell_setting 'tetragonal'
loop_
_space_group_symop_operation_xyz
x,y,z
y,-x,-z
-x,-y,z
-y,x,-z
x,-y,-z
-x,y,-z
-y,-x,z
y,x,z
1/2+x,1/2+y,1/2+z
1/2+y,1/2-x,1/2-z
1/2-x,1/2-y,1/2+z
1/2-y,1/2+x,1/2-z
1/2+x,1/2-y,1/2-z
1/2-x,1/2+y,1/2-z
1/2-y,1/2-x,1/2+z
1/2+y,1/2+x,1/2+z
loop_
_atom_site_type_symbol
_atom_site_label
_atom_site_fract_x
_atom_site_fract_y
_atom_site_fract_z
Si Si1 0.696941 0.447453 0.549075
Si Si2 0.654575 0.801447 0.081868
Si Si3 0.262527 0.946822 0.550022
Si Si4 0.195315 0.195315 0.595339
Si Si5 0.350729 0.350729 0.594215
O O1 0.676179 0.500000 0.500000
O O2 0.717564 0.443267 0.846051
O O3 0.662243 0.404804 0.473477
O O4 0.742055 0.443788 0.347718
O O5 0.662724 0.820005 0.378334
O O6 0.599006 0.794456 0.012766
O O7 0.681063 0.750213 0.049576
O O8 0.283146 0.000000 0.500000
O O9 0.163884 0.163884 0.391292
O O10 0.181464 0.181464 0.895541
#
# Coordination Sequence:
#
# PCOD9560217 Si02
#       5
#    16  16  16   8   8
#     4  10  19  32  51  70  92 127 170 215 251 282
#     4  12  22  34  49  74 106 137 165 196 241 296
#     4  10  20  36  52  70  95 130 171 208 239 281
#     4  12  22  33  48  72 106 143 161 194 235 299
#     4  12  18  33  52  69 100 126 177 206 245 296
#
# _framework density 16.253066
#
# number of rings (size 3 to 8) (size 9 to 14) (size 15 to 20)
#    0.000    1.000    5.000    3.750    0.000    0.000 
#    0.000    0.000    0.000    0.375    0.000    0.000 
#    0.000   11.000    0.000    0.000    0.000    1.250 
#
# Total GULP energy -178734.404586 kJ/mol
# GULP energy per Si atom -5585.450143 kJ/mol
# Density = 1.621607 g / cm^3
# Si number density = 16.253066 Si / 1000 Ang^3
#
#
#
# Elastic Constant Matrix: (Units=GPa)
#
#
# Indices 1 2 3 4 5 6 
#
# 1 68.4234 27.5124 -11.3656 0.0000 0.0000 0.0000
# 2 27.5124 68.4234 -11.3656 0.0000 0.0000 0.0000
# 3 -11.3656 -11.3656 45.4759 0.0000 0.0000 0.0000
# 4 0.0000 0.0000 0.0000 18.6180 0.0000 0.0000
# 5 0.0000 0.0000 0.0000 0.0000 18.6180 0.0000
# 6 0.0000 0.0000 0.0000 0.0000 0.0000 13.1666
#
#
#
# Elastic Compliance Matrix: (Units=1/GPa)
#
#
# Indices 1 2 3 4 5 6 
#
# 1 0.017762 -0.006682 0.002769 0.000000 0.000000 0.000000
# 2 -0.006682 0.017762 0.002769 0.000000 0.000000 0.000000
# 3 0.002769 0.002769 0.023374 0.000000 0.000000 0.000000
# 4 0.000000 0.000000 0.000000 0.053711 0.000000 0.000000
# 5 0.000000 0.000000 0.000000 0.000000 0.053711 0.000000
# 6 0.000000 0.000000 0.000000 0.000000 0.000000 0.075950
#
#
# Mechanical properties :
#
#
# Convention : Reuss Voigt Hill
#
# Bulk Modulus (GPa) = 17.66476 21.32055 19.49266
# Shear Modulus (GPa) = 18.98061 21.91662 20.44861
#
# Velocity S-wave (km/s) = 3.42104 3.67612 3.55087
# Velocity P-wave (km/s) = 5.14751 5.58255 5.36944
#
# Compressibility (1/GPa) = 0.05660988
#
# Stress axis : x y z
#
# Youngs Moduli (GPa) = 56.30147 56.30147 42.78285
#
# Poissons Ratio (x) = 0.37619 -0.11847
# Poissons Ratio (y) = 0.37619 -0.11847
# Poissons Ratio (z) = -0.15591 -0.15591
#
# Static dielectric constant tensor:
#      x y z
#    x 1.540010 0.000000 0.000000 
#    y 0.000000 1.540010 0.000000 
#    z 0.000000 0.000000 1.552950 
# 
# From -- ./inp_files/515.got.cif
#   From: 2010.05.17/outbox.cif.g08.bks.cpg/sg121_1_cif.got.tgz:515.got - 2010.05.20 11:32:06.
