data_PCOD9560570
_publ_section_title
;
Structure prediction by ZEFSAII (Michael W. Deem and Ramdas Pophale) SiO2 
 PCOD9560570
Probable space group: I -4 2 M
;
_chemical_formula_sum "Si O2"
_cell_formula_units_Z 56
_cell_length_a 11.490686
_cell_length_b 11.490686
_cell_length_c 19.988046
_cell_angle_alpha 90.000000
_cell_angle_beta 90.000000
_cell_angle_gamma 90.000000
_cell_volume 2639.138938
_symmetry_space_group_name_H-M "I -4 2 M"
_symmetry_group_IT_number 121
_symmetry_cell_setting 'tetragonal'
loop_
_space_group_symop_operation_xyz
x,y,z
y,-x,-z
-x,-y,z
-y,x,-z
x,-y,-z
-x,y,-z
-y,-x,z
y,x,z
1/2+x,1/2+y,1/2+z
1/2+y,1/2-x,1/2-z
1/2-x,1/2-y,1/2+z
1/2-y,1/2+x,1/2-z
1/2+x,1/2-y,1/2-z
1/2-x,1/2+y,1/2-z
1/2-y,1/2-x,1/2+z
1/2+y,1/2+x,1/2+z
loop_
_atom_site_type_symbol
_atom_site_label
_atom_site_fract_x
_atom_site_fract_y
_atom_site_fract_z
Si Si1 0.699457 0.699457 0.645742
Si Si2 0.503811 0.138935 0.419428
Si Si3 0.738455 0.261546 0.605542
Si Si4 0.872753 0.872753 0.280474
Si Si5 0.634546 0.365455 0.984894
Si Si6 0.632126 0.632126 0.174251
O O1 0.788324 0.616809 0.605161
O O2 0.627139 0.627139 0.700096
O O3 0.775501 0.775501 0.697822
O O4 0.500000 0.137217 0.500000
O O5 0.394626 0.217133 0.395280
O O6 0.500000 0.000000 0.398457
O O7 0.795448 0.204553 0.670431
O O8 0.790571 0.209430 0.535967
O O9 0.002973 0.842020 0.303327
O O10 0.644417 0.355584 0.905690
O O11 0.500000 0.339984 0.000000
#
# Coordination Sequence:
#
# PCOD9560570 Si02
#       6
#     8  16   8   8   8   8
#     4  12  28  47  67 102 148 191 235 302 351 443
#     4  11  26  47  74 107 139 188 244 301 366 431
#     4  12  24  41  71 104 144 185 231 297 361 433
#     4  11  25  41  67 100 134 183 232 286 360 425
#     4  11  19  36  70 109 130 165 231 306 363 395
#     4  11  22  45  67  96 132 178 235 294 349 411
#
# _framework density 21.219042000000002
#
# number of rings (size 3 to 8) (size 9 to 14) (size 15 to 20)
#    0.000    0.714    2.857    5.143    8.000    1.714 
#    0.000    1.429    0.000    0.000    0.000    0.000 
#    0.000    0.000    0.000    0.000    0.000    0.000 
#
# Total GULP energy -156216.612874 kJ/mol
# GULP energy per Si atom -5579.164746 kJ/mol
# Density = 2.117075 g / cm^3
# Si number density = 21.219042 Si / 1000 Ang^3
#
#
#
# Elastic Constant Matrix: (Units=GPa)
#
#
# Indices 1 2 3 4 5 6 
#
# 1 210.8565 11.4470 32.2198 0.0000 0.0000 0.0000
# 2 11.4470 210.8548 32.2196 0.0000 0.0000 0.0000
# 3 32.2198 32.2196 107.9456 0.0000 0.0000 0.0000
# 4 0.0000 0.0000 0.0000 -7.0481 0.0000 0.0000
# 5 0.0000 0.0000 0.0000 0.0000 -7.0463 0.0000
# 6 0.0000 0.0000 0.0000 0.0000 0.0000 32.9326
#
#
#
# Elastic Compliance Matrix: (Units=1/GPa)
#
#
# Indices 1 2 3 4 5 6 
#
# 1 0.004970 -0.000045 -0.001470 0.000000 0.000000 0.000000
# 2 -0.000045 0.004970 -0.001470 0.000000 0.000000 0.000000
# 3 -0.001470 -0.001470 0.010141 0.000000 0.000000 0.000000
# 4 0.000000 0.000000 0.000000 -0.141882 0.000000 0.000000
# 5 0.000000 0.000000 0.000000 0.000000 -0.141918 0.000000
# 6 0.000000 0.000000 0.000000 0.000000 0.000000 0.030365
#
#
# Mechanical properties :
#
#
# Convention : Reuss Voigt Hill
#
# Bulk Modulus (GPa) = 70.86747 75.71441 73.29094
# Shear Modulus (GPa) = -22.45366 34.01899 5.78267
#
# Velocity S-wave (km/s) = -3.25650 4.00838 1.65262
# Velocity P-wave (km/s) = 4.39668 7.56191 6.18520
#
# Compressibility (1/GPa) = 0.01411085
#
# Stress axis : x y z
#
# Youngs Moduli (GPa) = 201.22282 201.22120 98.60597
#
# Poissons Ratio (x) = 0.00909 0.14494
# Poissons Ratio (y) = 0.00909 0.14494
# Poissons Ratio (z) = 0.29577 0.29577
#
# Static dielectric constant tensor:
#      x y z
#    x 1.824090 0.000000 0.000000 
#    y 0.000000 1.824080 0.000000 
#    z 0.000000 0.000000 1.771740 
# 
# From -- ./inp_files/5980.got.cif
#   From: 2010.05.17/outbox.cif.g08.bks.cpg/sg121_3_cif.got.tgz:5980.got - 2010.05.20 11:32:06.
