data_PCOD9560997
_publ_section_title
;
Structure prediction by ZEFSAII (Michael W. Deem and Ramdas Pophale) SiO2 
 PCOD9560997
Probable space group: I -4 2 D
;
_chemical_formula_sum "Si O2"
_cell_formula_units_Z 80
_cell_length_a 14.701783
_cell_length_b 14.701783
_cell_length_c 18.648569
_cell_angle_alpha 90.000000
_cell_angle_beta 90.000000
_cell_angle_gamma 90.000000
_cell_volume 4030.746896
_symmetry_space_group_name_H-M "I -4 2 D"
_symmetry_group_IT_number 122
_symmetry_cell_setting 'tetragonal'
loop_
_space_group_symop_operation_xyz
x,y,z
y,-x,-z
-x,-y,z
-y,x,-z
x,1/2-y,1/4-z
-x,1/2+y,1/4-z
-y,1/2-x,1/4+z
y,1/2+x,1/4+z
1/2+x,1/2+y,1/2+z
1/2+y,1/2-x,1/2-z
1/2-x,1/2-y,1/2+z
1/2-y,1/2+x,1/2-z
1/2+x,-y,3/4-z
1/2-x,y,3/4-z
1/2-y,-x,3/4+z
1/2+y,x,3/4+z
loop_
_atom_site_type_symbol
_atom_site_label
_atom_site_fract_x
_atom_site_fract_y
_atom_site_fract_z
Si Si1 0.092981 0.098086 0.975654
Si Si2 0.586386 0.703706 0.774964
Si Si3 0.092211 0.736453 0.708345
Si Si4 0.733350 0.075572 0.193919
Si Si5 0.403412 0.053791 0.933387
O O1 0.125137 0.197311 0.996943
O O2 0.126959 0.062460 0.899514
O O3 0.983030 0.108484 0.968969
O O4 0.666234 0.630647 0.767226
O O5 0.561075 0.716228 0.858886
O O6 0.501420 0.669419 0.729547
O O7 0.064717 0.750000 0.625000
O O8 0.174288 0.664386 0.711412
O O9 0.009558 0.705025 0.757766
O O10 0.841155 0.088240 0.206739
O O11 0.500000 0.000000 0.937734
#
# Coordination Sequence:
#
# PCOD9560997 Si02
#       5
#    16  16  16  16  16
#     4  10  21  38  58  91 125 157 202 257 315 383
#     4  10  23  39  63  91 126 166 211 260 321 388
#     4  10  22  42  63  91 128 167 216 270 323 384
#     4  10  23  41  62  94 124 164 221 264 319 388
#     4  11  20  40  65  85 122 168 203 256 321 384
#
# _framework density 19.847439000000001
#
# number of rings (size 3 to 8) (size 9 to 14) (size 15 to 20)
#    0.000    1.800    4.000    0.000    2.800    2.800 
#    0.000    0.000    4.400    0.000    0.000    0.000 
#    0.000    0.000    0.000    0.000    0.000    0.000 
#
# Total GULP energy -223294.603012 kJ/mol
# GULP energy per Si atom -5582.365075 kJ/mol
# Density = 1.980227 g / cm^3
# Si number density = 19.847439 Si / 1000 Ang^3
#
#
#
# Elastic Constant Matrix: (Units=GPa)
#
#
# Indices 1 2 3 4 5 6 
#
# 1 90.0968 21.6109 51.2415 0.0000 0.0000 0.0000
# 2 21.6109 90.0968 51.2415 0.0000 0.0000 0.0000
# 3 51.2415 51.2415 58.8024 0.0000 0.0000 0.0000
# 4 0.0000 0.0000 0.0000 30.2594 0.0000 0.0000
# 5 0.0000 0.0000 0.0000 0.0000 30.2594 0.0000
# 6 0.0000 0.0000 0.0000 0.0000 0.0000 27.5906
#
#
#
# Elastic Compliance Matrix: (Units=1/GPa)
#
#
# Indices 1 2 3 4 5 6 
#
# 1 0.029620 0.015019 -0.038899 0.000000 0.000000 0.000000
# 2 0.015019 0.029620 -0.038899 0.000000 0.000000 0.000000
# 3 -0.038899 -0.038899 0.084801 0.000000 0.000000 0.000000
# 4 0.000000 0.000000 0.000000 0.033048 0.000000 0.000000
# 5 0.000000 0.000000 0.000000 0.000000 0.033048 0.000000
# 6 0.000000 0.000000 0.000000 0.000000 0.000000 0.036244
#
#
# Mechanical properties :
#
#
# Convention : Reuss Voigt Hill
#
# Bulk Modulus (GPa) = 54.10627 54.13154 54.11890
# Shear Modulus (GPa) = 13.22404 25.28203 19.25303
#
# Velocity S-wave (km/s) = 2.58405 3.57293 3.11794
# Velocity P-wave (km/s) = 6.01858 6.65989 6.34734
#
# Compressibility (1/GPa) = 0.01848215
#
# Stress axis : x y z
#
# Youngs Moduli (GPa) = 33.76092 33.76092 11.79238
#
# Poissons Ratio (x) = -0.50704 0.45871
# Poissons Ratio (y) = -0.50704 0.45871
# Poissons Ratio (z) = 1.31326 1.31326
#
# Static dielectric constant tensor:
#      x y z
#    x 1.712050 0.000000 0.000000 
#    y 0.000000 1.712050 0.000000 
#    z 0.000000 0.000000 1.703200 
# 
# From -- ./inp_files/7055.got.cif
#   From: 2010.05.17/outbox.cif.g08.bks.cpg/sg122_4_cif.got.tgz:7055.got - 2010.05.20 11:37:33.
