data_PCOD9560882
_publ_section_title
;
Structure prediction by ZEFSAII (Michael W. Deem and Ramdas Pophale) SiO2 
 PCOD9560882
Probable space group: I -4 2 D
;
_chemical_formula_sum "Si O2"
_cell_formula_units_Z 120
_cell_length_a 20.213277
_cell_length_b 20.213277
_cell_length_c 14.852989
_cell_angle_alpha 90.000000
_cell_angle_beta 90.000000
_cell_angle_gamma 90.000000
_cell_volume 6068.583256
_symmetry_space_group_name_H-M "I -4 2 D"
_symmetry_group_IT_number 122
_symmetry_cell_setting 'tetragonal'
loop_
_space_group_symop_operation_xyz
x,y,z
y,-x,-z
-x,-y,z
-y,x,-z
x,1/2-y,1/4-z
-x,1/2+y,1/4-z
-y,1/2-x,1/4+z
y,1/2+x,1/4+z
1/2+x,1/2+y,1/2+z
1/2+y,1/2-x,1/2-z
1/2-x,1/2-y,1/2+z
1/2-y,1/2+x,1/2-z
1/2+x,-y,3/4-z
1/2-x,y,3/4-z
1/2-y,-x,3/4+z
1/2+y,x,3/4+z
loop_
_atom_site_type_symbol
_atom_site_label
_atom_site_fract_x
_atom_site_fract_y
_atom_site_fract_z
Si Si1 0.013547 0.250000 0.125000
Si Si2 0.808676 0.160688 0.216680
Si Si3 0.596816 0.212483 0.739049
Si Si4 0.183320 0.535811 0.932664
Si Si5 0.391025 0.005777 0.263247
Si Si6 0.246032 0.188658 0.483030
Si Si7 0.870833 0.780169 0.989802
Si Si8 0.741132 0.547112 0.074155
O O1 0.065239 0.252449 0.208570
O O2 0.957655 0.302887 0.161190
O O3 0.853567 0.226544 0.213301
O O4 0.840557 0.106079 0.280357
O O5 0.738176 0.185839 0.252949
O O6 0.791609 0.129655 0.118706
O O7 0.646240 0.153729 0.768890
O O8 0.555524 0.238807 0.823434
O O9 0.250000 0.546551 0.875000
O O10 0.135106 0.499048 0.864971
O O11 0.203911 0.491792 0.017385
O O12 0.432467 0.939716 0.245614
O O13 0.328854 0.012668 0.196635
O O14 0.250000 0.178376 0.375000
O O15 0.312500 0.227664 0.509259
O O16 0.237091 0.120385 0.532696
#
# Coordination Sequence:
#
# PCOD9560882 Si02
#       8
#     8  16  16  16  16  16  16  16
#     4  12  22  40  64  90 124 170 204 272 320 378
#     4  10  20  37  63  88 126 159 206 264 322 378
#     4  11  22  40  61  93 123 164 209 264 319 379
#     4  10  22  37  56  90 117 154 202 253 303 378
#     4  10  22  40  57  79 122 166 199 243 298 375
#     4   9  19  35  60  93 126 157 192 269 324 372
#     4  10  21  40  61  93 125 158 214 260 327 377
#     4  11  22  36  58  92 122 154 205 254 310 379
#
# _framework density 19.773973000000002
#
# number of rings (size 3 to 8) (size 9 to 14) (size 15 to 20)
#    0.000    1.733    1.333    4.400    5.600    1.067 
#    4.800    0.000    0.000    0.400    3.467    0.000 
#    0.000    0.000    0.000    0.000    0.000    0.000 
#
# Total GULP energy -334494.525077 kJ/mol
# GULP energy per Si atom -5574.908751 kJ/mol
# Density = 1.972897 g / cm^3
# Si number density = 19.773973 Si / 1000 Ang^3
#
#
#
# Elastic Constant Matrix: (Units=GPa)
#
#
# Indices 1 2 3 4 5 6 
#
# 1 80.3274 9.7552 28.0100 0.0000 0.0000 0.0000
# 2 9.7552 80.3274 28.0100 0.0000 0.0000 0.0000
# 3 28.0100 28.0100 66.7826 0.0000 0.0000 0.0000
# 4 0.0000 0.0000 0.0000 30.1006 0.0000 0.0000
# 5 0.0000 0.0000 0.0000 0.0000 30.1006 0.0000
# 6 0.0000 0.0000 0.0000 0.0000 0.0000 5.6918
#
#
#
# Elastic Compliance Matrix: (Units=1/GPa)
#
#
# Indices 1 2 3 4 5 6 
#
# 1 0.014594 0.000424 -0.006299 0.000000 0.000000 0.000000
# 2 0.000424 0.014594 -0.006299 0.000000 0.000000 0.000000
# 3 -0.006299 -0.006299 0.020258 0.000000 0.000000 0.000000
# 4 0.000000 0.000000 0.000000 0.033222 0.000000 0.000000
# 5 0.000000 0.000000 0.000000 0.000000 0.033222 0.000000
# 6 0.000000 0.000000 0.000000 0.000000 0.000000 0.175692
#
#
# Mechanical properties :
#
#
# Convention : Reuss Voigt Hill
#
# Bulk Modulus (GPa) = 39.84336 39.88753 39.86545
# Shear Modulus (GPa) = 15.41807 23.95607 19.68707
#
# Velocity S-wave (km/s) = 2.79537 3.48443 3.15874
# Velocity P-wave (km/s) = 5.53280 6.03356 5.78860
#
# Compressibility (1/GPa) = 0.02509828
#
# Stress axis : x y z
#
# Youngs Moduli (GPa) = 68.52154 68.52154 49.36389
#
# Poissons Ratio (x) = -0.02906 0.31094
# Poissons Ratio (y) = -0.02906 0.31094
# Poissons Ratio (z) = 0.43161 0.43161
#
# Static dielectric constant tensor:
#      x y z
#    x 1.696360 0.000000 0.000000 
#    y 0.000000 1.696360 0.000000 
#    z 0.000000 0.000000 1.756730 
# 
# From -- ./inp_files/5586.got.cif
#   From: 2010.05.17/outbox.cif.g08.bks.cpg/sg122_3_cif.got.tgz:5586.got - 2010.05.20 11:37:33.
