data_PCOD9560609
_publ_section_title
;
Structure prediction by ZEFSAII (Michael W. Deem and Ramdas Pophale) SiO2 
 PCOD9560609
Probable space group: I -4 2 M
;
_chemical_formula_sum "Si O2"
_cell_formula_units_Z 120
_cell_length_a 21.360282
_cell_length_b 21.360282
_cell_length_c 14.015233
_cell_angle_alpha 90.000000
_cell_angle_beta 90.000000
_cell_angle_gamma 90.000000
_cell_volume 6394.613293
_symmetry_space_group_name_H-M "I -4 2 M"
_symmetry_group_IT_number 121
_symmetry_cell_setting 'tetragonal'
loop_
_space_group_symop_operation_xyz
x,y,z
y,-x,-z
-x,-y,z
-y,x,-z
x,-y,-z
-x,y,-z
-y,-x,z
y,x,z
1/2+x,1/2+y,1/2+z
1/2+y,1/2-x,1/2-z
1/2-x,1/2-y,1/2+z
1/2-y,1/2+x,1/2-z
1/2+x,1/2-y,1/2-z
1/2-x,1/2+y,1/2-z
1/2-y,1/2-x,1/2+z
1/2+y,1/2+x,1/2+z
loop_
_atom_site_type_symbol
_atom_site_label
_atom_site_fract_x
_atom_site_fract_y
_atom_site_fract_z
Si Si1 0.664891 0.056127 0.433658
Si Si2 0.104899 0.000000 0.500000
Si Si3 0.858366 0.960669 0.905242
Si Si4 0.930330 0.357727 0.039536
Si Si5 0.901822 0.528907 0.255066
Si Si6 0.358590 0.258572 0.171632
Si Si7 0.137189 0.965948 0.301587
Si Si8 0.353036 0.747005 0.608984
O O1 0.603399 0.085153 0.484860
O O2 0.646010 0.027090 0.331807
O O3 0.711057 0.112723 0.404878
O O4 0.690155 0.000000 0.500000
O O5 0.140381 0.995656 0.600640
O O6 0.060469 0.060469 0.504565
O O7 0.924388 0.924388 0.913295
O O8 0.855782 0.996242 0.803024
O O9 0.806080 0.906820 0.896541
O O10 0.847731 0.000000 0.000000
O O11 0.942411 0.374748 0.149271
O O12 0.880098 0.301531 0.042786
O O13 0.000000 0.342645 0.000000
O O14 0.928682 0.460441 0.275927
O O15 0.296134 0.296134 0.142425
O O16 0.412480 0.310683 0.186675
O O17 0.347921 0.232306 0.279275
O O18 0.070632 0.929369 0.298063
O O19 0.288379 0.711621 0.583331
#
# Coordination Sequence:
#
# PCOD9560609 Si02
#       8
#    16   8  16  16  16  16  16  16
#     4  12  24  36  58  93 119 151 199 242 297 351
#     4   9  16  26  42  66  98 132 171 222 276 334
#     4   9  17  30  48  73 102 135 177 229 283 340
#     4  12  23  36  60  90 117 155 197 237 298 352
#     4  11  22  39  58  82 128 161 192 242 286 357
#     4   9  19  37  58  77 109 153 194 239 287 342
#     4   8  16  30  47  69  96 135 183 224 277 340
#     4   9  19  37  59  79 108 151 195 237 282 343
#
# _framework density 18.765795000000001
#
# number of rings (size 3 to 8) (size 9 to 14) (size 15 to 20)
#    0.000    2.067    4.000    2.000    0.933    1.467 
#    0.000    1.333    0.000    0.000    0.000    0.000 
#    0.000    0.000    0.000    0.000    0.000    0.000 
#
# Total GULP energy -334115.507202 kJ/mol
# GULP energy per Si atom -5568.591787 kJ/mol
# Density = 1.872308 g / cm^3
# Si number density = 18.765795 Si / 1000 Ang^3
#
#
#
# Elastic Constant Matrix: (Units=GPa)
#
#
# Indices 1 2 3 4 5 6 
#
# 1 48.2416 13.4146 22.6435 0.0000 0.0000 0.0000
# 2 13.4146 48.2405 22.6433 0.0000 0.0000 0.0000
# 3 22.6435 22.6433 124.8347 0.0000 0.0000 0.0000
# 4 0.0000 0.0000 0.0000 21.4950 0.0000 0.0000
# 5 0.0000 0.0000 0.0000 0.0000 21.4960 0.0000
# 6 0.0000 0.0000 0.0000 0.0000 0.0000 23.4025
#
#
#
# Elastic Compliance Matrix: (Units=1/GPa)
#
#
# Indices 1 2 3 4 5 6 
#
# 1 0.023713 -0.005001 -0.003394 0.000000 0.000000 0.000000
# 2 -0.005001 0.023713 -0.003394 0.000000 0.000000 0.000000
# 3 -0.003394 -0.003394 0.009242 0.000000 0.000000 0.000000
# 4 0.000000 0.000000 0.000000 0.046522 0.000000 0.000000
# 5 0.000000 0.000000 0.000000 0.000000 0.046520 0.000000
# 6 0.000000 0.000000 0.000000 0.000000 0.000000 0.042731
#
#
# Mechanical properties :
#
#
# Convention : Reuss Voigt Hill
#
# Bulk Modulus (GPa) = 30.22093 37.63551 33.92822
# Shear Modulus (GPa) = 22.02166 24.11972 23.07069
#
# Velocity S-wave (km/s) = 3.42935 3.58900 3.51009
# Velocity P-wave (km/s) = 5.64091 6.10520 5.87764
#
# Compressibility (1/GPa) = 0.03308965
#
# Stress axis : x y z
#
# Youngs Moduli (GPa) = 42.17150 42.17052 108.20283
#
# Poissons Ratio (x) = 0.21089 0.36725
# Poissons Ratio (y) = 0.21089 0.36726
# Poissons Ratio (z) = 0.14313 0.14313
#
# Static dielectric constant tensor:
#      x y z
#    x 1.663890 0.000000 0.000000 
#    y 0.000000 1.663890 0.000000 
#    z 0.000000 0.000000 1.682860 
# 
# From -- ./inp_files/4625.got.cif
#   From: 2010.05.17/outbox.cif.g08.bks.cpg/sg121_3_cif.got.tgz:4625.got - 2010.05.20 11:32:06.
