data_PCOD9560805
_publ_section_title
;
Structure prediction by ZEFSAII (Michael W. Deem and Ramdas Pophale) SiO2 
 PCOD9560805
Probable space group: I -4 2 D
;
_chemical_formula_sum "Si O2"
_cell_formula_units_Z 96
_cell_length_a 14.628163
_cell_length_b 14.628163
_cell_length_c 19.501589
_cell_angle_alpha 90.000000
_cell_angle_beta 90.000000
_cell_angle_gamma 90.000000
_cell_volume 4173.011498
_symmetry_space_group_name_H-M "I -4 2 D"
_symmetry_group_IT_number 122
_symmetry_cell_setting 'tetragonal'
loop_
_space_group_symop_operation_xyz
x,y,z
y,-x,-z
-x,-y,z
-y,x,-z
x,1/2-y,1/4-z
-x,1/2+y,1/4-z
-y,1/2-x,1/4+z
y,1/2+x,1/4+z
1/2+x,1/2+y,1/2+z
1/2+y,1/2-x,1/2-z
1/2-x,1/2-y,1/2+z
1/2-y,1/2+x,1/2-z
1/2+x,-y,3/4-z
1/2-x,y,3/4-z
1/2-y,-x,3/4+z
1/2+y,x,3/4+z
loop_
_atom_site_type_symbol
_atom_site_label
_atom_site_fract_x
_atom_site_fract_y
_atom_site_fract_z
Si Si1 0.250000 0.529626 0.375000
Si Si2 0.438409 0.818684 0.375210
Si Si3 0.680024 0.554332 0.962374
Si Si4 0.594916 0.750000 0.125000
Si Si5 0.935850 0.389172 0.345406
Si Si6 0.000000 0.000000 0.621223
Si Si7 0.885318 0.134632 0.059479
Si Si8 0.750000 0.776786 0.375000
O O1 0.155057 0.584258 0.390290
O O2 0.217651 0.457130 0.317499
O O3 0.450532 0.827875 0.293238
O O4 0.333439 0.839300 0.386378
O O5 0.458569 0.717615 0.395597
O O6 0.488841 0.904431 0.410206
O O7 0.749959 0.476161 0.938187
O O8 0.588469 0.518982 0.925277
O O9 0.706901 0.653209 0.931445
O O10 0.892204 0.396019 0.269139
O O11 0.043201 0.422201 0.348806
O O12 0.790009 0.175149 0.088889
#
# Coordination Sequence:
#
# PCOD9560805 Si02
#       8
#     8  16  16   8  16   8  16   8
#     4  11  25  45  73 102 122 182 243 273 357 443
#     4  11  22  36  65  95 131 176 226 283 347 424
#     4  10  20  38  62  93 136 181 227 294 354 433
#     4   9  21  37  57  94 132 174 223 275 347 423
#     4  12  25  45  73 100 138 184 233 300 362 425
#     4  10  19  38  60  92 134 184 228 274 375 432
#     4  11  25  46  71  97 139 182 229 294 365 423
#     4  10  24  40  66  98 138 182 244 286 354 436
#
# _framework density 23.00497
#
# number of rings (size 3 to 8) (size 9 to 14) (size 15 to 20)
#    0.000    1.333    1.667    4.500    4.667    0.000 
#    3.000    0.000    0.000    0.000    0.000    0.000 
#    0.000    0.000    0.000    0.000    0.000    0.000 
#
# Total GULP energy -267350.539710 kJ/mol
# GULP energy per Si atom -5569.802911 kJ/mol
# Density = 2.295261 g / cm^3
# Si number density = 23.004970 Si / 1000 Ang^3
#
#
#
# Elastic Constant Matrix: (Units=GPa)
#
#
# Indices 1 2 3 4 5 6 
#
# 1 44.5320 38.9063 8.9048 0.0000 0.0000 0.0000
# 2 38.9063 44.5320 8.9048 0.0000 0.0000 0.0000
# 3 8.9048 8.9048 4.1521 0.0000 0.0000 0.0000
# 4 0.0000 0.0000 0.0000 22.0811 0.0000 0.0000
# 5 0.0000 0.0000 0.0000 0.0000 22.0811 0.0000
# 6 0.0000 0.0000 0.0000 0.0000 0.0000 62.4216
#
#
#
# Elastic Compliance Matrix: (Units=1/GPa)
#
#
# Indices 1 2 3 4 5 6 
#
# 1 0.099930 -0.077827 -0.047403 0.000000 0.000000 0.000000
# 2 -0.077827 0.099930 -0.047403 0.000000 0.000000 0.000000
# 3 -0.047403 -0.047403 0.444166 0.000000 0.000000 0.000000
# 4 0.000000 0.000000 0.000000 0.045288 0.000000 0.000000
# 5 0.000000 0.000000 0.000000 0.000000 0.045288 0.000000
# 6 0.000000 0.000000 0.000000 0.000000 0.000000 0.016020
#
#
# Mechanical properties :
#
#
# Convention : Reuss Voigt Hill
#
# Bulk Modulus (GPa) = 3.34716 22.96089 13.15403
# Shear Modulus (GPa) = 4.18245 23.75010 13.96627
#
# Velocity S-wave (km/s) = 1.34982 3.21657 2.46661
# Velocity P-wave (km/s) = 1.97167 4.87828 3.72056
#
# Compressibility (1/GPa) = 0.29876038
#
# Stress axis : x y z
#
# Youngs Moduli (GPa) = 10.00705 10.00705 2.25141
#
# Poissons Ratio (x) = 0.77882 0.10672
# Poissons Ratio (y) = 0.77882 0.10672
# Poissons Ratio (z) = 0.47436 0.47436
#
# Static dielectric constant tensor:
#      x y z
#    x 1.965690 0.000000 0.000000 
#    y 0.000000 1.965690 0.000000 
#    z 0.000000 0.000000 1.839510 
# 
# From -- ./inp_files/7381.got.cif
#   From: 2010.05.17/outbox.cif.g08.bks.cpg/sg122_4_cif.got.tgz:7381.got - 2010.05.20 11:37:33.
