data_PCOD9560444
_publ_section_title
;
Structure prediction by ZEFSAII (Michael W. Deem and Ramdas Pophale) SiO2 
 PCOD9560444
Probable space group: I -4 2 M
;
_chemical_formula_sum "Si O2"
_cell_formula_units_Z 56
_cell_length_a 23.645870
_cell_length_b 23.645870
_cell_length_c 4.936375
_cell_angle_alpha 90.000000
_cell_angle_beta 90.000000
_cell_angle_gamma 90.000000
_cell_volume 2760.061374
_symmetry_space_group_name_H-M "I -4 2 M"
_symmetry_group_IT_number 121
_symmetry_cell_setting 'tetragonal'
loop_
_space_group_symop_operation_xyz
x,y,z
y,-x,-z
-x,-y,z
-y,x,-z
x,-y,-z
-x,y,-z
-y,-x,z
y,x,z
1/2+x,1/2+y,1/2+z
1/2+y,1/2-x,1/2-z
1/2-x,1/2-y,1/2+z
1/2-y,1/2+x,1/2-z
1/2+x,1/2-y,1/2-z
1/2-x,1/2+y,1/2-z
1/2-y,1/2-x,1/2+z
1/2+y,1/2+x,1/2+z
loop_
_atom_site_type_symbol
_atom_site_label
_atom_site_fract_x
_atom_site_fract_y
_atom_site_fract_z
Si Si1 0.383544 0.063058 0.105734
Si Si2 0.842372 0.710316 0.073403
Si Si3 0.337519 0.337519 0.766273
Si Si4 0.608859 0.608859 0.272880
Si Si5 0.500000 0.413610 0.000000
O O1 0.429149 0.092814 0.907144
O O2 0.326645 0.100567 0.090299
O O3 0.374828 0.000000 0.000000
O O4 0.819552 0.703730 0.769480
O O5 0.849737 0.773170 0.181233
O O6 0.352938 0.352938 0.073082
O O7 0.376336 0.376336 0.575893
O O8 0.542977 0.619043 0.193473
O O9 0.456410 0.456410 0.849453
#
# Coordination Sequence:
#
# PCOD9560444 Si02
#       5
#    16  16   8   8   8
#     4  10  21  37  56  81 112 145 183 227 280 334
#     4  10  21  39  59  80 115 152 184 228 281 336
#     4  12  22  35  61  90 109 144 201 230 277 325
#     4  10  21  37  56  84 113 142 195 238 270 335
#     4   7  16  42  56  76 110 166 186 220 291 346
#
# _framework density 20.289404000000001
#
# number of rings (size 3 to 8) (size 9 to 14) (size 15 to 20)
#    0.857    1.286    0.000    3.429    0.000    2.857 
#    5.143    1.429    0.000    0.000    0.000    0.000 
#    0.000    0.000    0.000    0.000    0.000    0.000 
#
# Total GULP energy -156148.325716 kJ/mol
# GULP energy per Si atom -5576.725918 kJ/mol
# Density = 2.024322 g / cm^3
# Si number density = 20.289404 Si / 1000 Ang^3
#
#
#
# Elastic Constant Matrix: (Units=GPa)
#
#
# Indices 1 2 3 4 5 6 
#
# 1 -8.4819 136.3349 5.1541 0.0000 0.0000 0.0000
# 2 136.3349 -8.4819 5.1541 0.0000 0.0000 0.0000
# 3 5.1541 5.1541 60.2155 0.0000 0.0000 0.0000
# 4 0.0000 0.0000 0.0000 17.1848 0.0000 0.0000
# 5 0.0000 0.0000 0.0000 0.0000 17.1848 0.0000
# 6 0.0000 0.0000 0.0000 0.0000 0.0000 12.9809
#
#
#
# Elastic Compliance Matrix: (Units=1/GPa)
#
#
# Indices 1 2 3 4 5 6 
#
# 1 0.000485 0.007391 -0.000674 0.000000 0.000000 0.000000
# 2 0.007391 0.000485 -0.000674 0.000000 0.000000 0.000000
# 3 -0.000674 -0.000674 0.016722 0.000000 0.000000 0.000000
# 4 0.000000 0.000000 0.000000 0.058191 0.000000 0.000000
# 5 0.000000 0.000000 0.000000 0.000000 0.058191 0.000000
# 6 0.000000 0.000000 0.000000 0.000000 0.000000 0.077036
#
#
# Mechanical properties :
#
#
# Convention : Reuss Voigt Hill
#
# Bulk Modulus (GPa) = 33.58229 37.39309 35.48769
# Shear Modulus (GPa) = 23.92887 2.57733 13.25310
#
# Velocity S-wave (km/s) = 3.43793 1.12829 2.55856
# Velocity P-wave (km/s) = 5.68742 4.49080 5.12416
#
# Compressibility (1/GPa) = 0.02977760
#
# Stress axis : x y z
#
# Youngs Moduli (GPa) = 2060.66995 2060.66995 59.79994
#
# Poissons Ratio (x) = -15.22949 0.04031
# Poissons Ratio (y) = -15.22949 0.04031
# Poissons Ratio (z) = 1.38914 1.38914
#
# Static dielectric constant tensor:
#      x y z
#    x 1.716190 0.000000 0.000000 
#    y 0.000000 1.716190 0.000000 
#    z 0.000000 0.000000 1.705410 
# 
# From -- ./inp_files/428.got.cif
#   From: 2010.05.17/outbox.cif.g08.bks.cpg/sg121_1_cif.got.tgz:428.got - 2010.05.20 11:32:06.
