data_PCOD9560594
_publ_section_title
;
Structure prediction by ZEFSAII (Michael W. Deem and Ramdas Pophale) SiO2 
 PCOD9560594
Probable space group: I -4 2 M
;
_chemical_formula_sum "Si O2"
_cell_formula_units_Z 64
_cell_length_a 11.934235
_cell_length_b 11.934235
_cell_length_c 21.832956
_cell_angle_alpha 90.000000
_cell_angle_beta 90.000000
_cell_angle_gamma 90.000000
_cell_volume 3109.579828
_symmetry_space_group_name_H-M "I -4 2 M"
_symmetry_group_IT_number 121
_symmetry_cell_setting 'tetragonal'
loop_
_space_group_symop_operation_xyz
x,y,z
y,-x,-z
-x,-y,z
-y,x,-z
x,-y,-z
-x,y,-z
-y,-x,z
y,x,z
1/2+x,1/2+y,1/2+z
1/2+y,1/2-x,1/2-z
1/2-x,1/2-y,1/2+z
1/2-y,1/2+x,1/2-z
1/2+x,1/2-y,1/2-z
1/2-x,1/2+y,1/2-z
1/2-y,1/2-x,1/2+z
1/2+y,1/2+x,1/2+z
loop_
_atom_site_type_symbol
_atom_site_label
_atom_site_fract_x
_atom_site_fract_y
_atom_site_fract_z
Si Si1 0.095477 0.095477 0.277186
Si Si2 0.162167 0.568993 0.411900
Si Si3 0.905351 0.094650 0.863746
Si Si4 0.772878 0.037319 0.373823
Si Si5 0.644883 0.826436 0.952390
O O1 0.121648 0.121648 0.207218
O O2 0.040388 0.195210 0.316258
O O3 0.000000 0.000000 0.275238
O O4 0.292367 0.557706 0.396784
O O5 0.104209 0.656628 0.366343
O O6 0.121420 0.441490 0.415578
O O7 0.147279 0.630392 0.477755
O O8 0.000000 0.000000 0.866879
O O9 0.872023 0.127978 0.383421
O O10 0.756662 0.953053 0.430874
O O11 0.761278 0.761278 0.940356
#
# Coordination Sequence:
#
# PCOD9560594 Si02
#       5
#     8  16   8  16  16
#     4   9  22  41  66  90 127 174 222 273 314 384
#     4  11  23  40  64  99 134 169 215 275 328 392
#     4  11  22  45  66  93 131 180 224 268 328 388
#     4  11  21  42  66  95 131 175 217 268 329 392
#     4  11  22  40  65 100 135 170 211 268 337 395
#
# _framework density 20.581558999999999
#
# number of rings (size 3 to 8) (size 9 to 14) (size 15 to 20)
#    0.000    1.250    3.750    2.250    0.000    2.000 
#    6.750    0.000    0.000    0.000    0.000    0.000 
#    0.000    0.000    0.000    0.000    0.000    0.000 
#
# Total GULP energy -178615.807698 kJ/mol
# GULP energy per Si atom -5581.743991 kJ/mol
# Density = 2.053471 g / cm^3
# Si number density = 20.581559 Si / 1000 Ang^3
#
#
#
# Elastic Constant Matrix: (Units=GPa)
#
#
# Indices 1 2 3 4 5 6 
#
# 1 103.0114 36.4853 16.2156 0.0000 0.0000 0.0000
# 2 36.4853 103.0114 16.2159 0.0000 0.0000 0.0000
# 3 16.2156 16.2159 51.2420 0.0000 0.0000 0.0000
# 4 0.0000 0.0000 0.0000 7.0406 0.0000 0.0000
# 5 0.0000 0.0000 0.0000 0.0000 7.0403 0.0000
# 6 0.0000 0.0000 0.0000 0.0000 0.0000 47.4762
#
#
#
# Elastic Compliance Matrix: (Units=1/GPa)
#
#
# Indices 1 2 3 4 5 6 
#
# 1 0.011385 -0.003647 -0.002449 0.000000 0.000000 0.000000
# 2 -0.003647 0.011385 -0.002449 0.000000 0.000000 0.000000
# 3 -0.002449 -0.002449 0.021065 0.000000 0.000000 0.000000
# 4 0.000000 0.000000 0.000000 0.142033 0.000000 0.000000
# 5 0.000000 0.000000 0.000000 0.000000 0.142040 0.000000
# 6 0.000000 0.000000 0.000000 0.000000 0.000000 0.021063
#
#
# Mechanical properties :
#
#
# Convention : Reuss Voigt Hill
#
# Bulk Modulus (GPa) = 37.38862 43.89981 40.64421
# Shear Modulus (GPa) = 13.33425 24.86796 19.10110
#
# Velocity S-wave (km/s) = 2.54810 3.47978 3.04973
# Velocity P-wave (km/s) = 5.18291 6.12545 5.67379
#
# Compressibility (1/GPa) = 0.02674611
#
# Stress axis : x y z
#
# Youngs Moduli (GPa) = 87.83640 87.83623 47.47199
#
# Poissons Ratio (x) = 0.32033 0.11624
# Poissons Ratio (y) = 0.32033 0.11625
# Poissons Ratio (z) = 0.21508 0.21509
#
# Static dielectric constant tensor:
#      x y z
#    x 1.773530 0.000000 0.000000 
#    y 0.000000 1.773530 0.000000 
#    z 0.000000 0.000000 1.736540 
# 
# From -- ./inp_files/6951.got.cif
#   From: 2010.05.17/outbox.cif.g08.bks.cpg/sg121_4_cif.got.tgz:6951.got - 2010.05.20 11:32:06.
