data_PCOD9560416
_publ_section_title
;
Structure prediction by ZEFSAII (Michael W. Deem and Ramdas Pophale) SiO2 
 PCOD9560416
Probable space group: I -4 2 M
;
_chemical_formula_sum "Si O2"
_cell_formula_units_Z 64
_cell_length_a 26.127931
_cell_length_b 26.127931
_cell_length_c 5.233214
_cell_angle_alpha 90.000000
_cell_angle_beta 90.000000
_cell_angle_gamma 90.000000
_cell_volume 3572.551808
_symmetry_space_group_name_H-M "I -4 2 M"
_symmetry_group_IT_number 121
_symmetry_cell_setting 'tetragonal'
loop_
_space_group_symop_operation_xyz
x,y,z
y,-x,-z
-x,-y,z
-y,x,-z
x,-y,-z
-x,y,-z
-y,-x,z
y,x,z
1/2+x,1/2+y,1/2+z
1/2+y,1/2-x,1/2-z
1/2-x,1/2-y,1/2+z
1/2-y,1/2+x,1/2-z
1/2+x,1/2-y,1/2-z
1/2-x,1/2+y,1/2-z
1/2-y,1/2-x,1/2+z
1/2+y,1/2+x,1/2+z
loop_
_atom_site_type_symbol
_atom_site_label
_atom_site_fract_x
_atom_site_fract_y
_atom_site_fract_z
Si Si1 0.558537 0.103920 0.051320
Si Si2 0.690886 0.144384 0.539347
Si Si3 0.693431 0.607271 0.016566
Si Si4 0.853890 0.059915 0.985573
O O1 0.566608 0.078039 0.326270
O O2 0.595234 0.153306 0.038185
O O3 0.500000 0.117295 0.000000
O O4 0.674102 0.179937 0.302467
O O5 0.748442 0.125051 0.510018
O O6 0.657211 0.657211 0.018919
O O7 0.681326 0.576851 0.276210
O O8 0.675417 0.573745 0.775348
O O9 0.904777 0.095223 0.995995
O O10 0.865758 0.000000 0.000000
#
# Coordination Sequence:
#
# PCOD9560416 Si02
#       4
#    16  16  16  16
#     4  10  21  35  51  73 100 131 170 214 259 312
#     4  10  21  37  55  79 110 141 178 222 269 324
#     4  10  21  37  57  83 112 143 184 228 271 326
#     4  10  21  37  57  83 114 147 186 230 275 328
#
# _framework density 17.914366000000001
#
# number of rings (size 3 to 8) (size 9 to 14) (size 15 to 20)
#    0.000    2.000    0.000    3.000    0.000    4.750 
#    0.000    0.000    0.000    4.500    0.000    0.000 
#    0.000    0.000    0.000    0.000    0.000    0.000 
#
# Total GULP energy -178734.548068 kJ/mol
# GULP energy per Si atom -5585.454627 kJ/mol
# Density = 1.787359 g / cm^3
# Si number density = 17.914366 Si / 1000 Ang^3
#
#
#
# Elastic Constant Matrix: (Units=GPa)
#
#
# Indices 1 2 3 4 5 6 
#
# 1 81.0503 -19.3111 -11.4827 0.0000 0.0000 0.0000
# 2 -19.3111 81.0483 -11.4827 0.0000 0.0000 0.0000
# 3 -11.4827 -11.4827 58.9850 0.0000 0.0000 0.0000
# 4 0.0000 0.0000 0.0000 12.0282 0.0000 0.0000
# 5 0.0000 0.0000 0.0000 0.0000 12.0276 0.0000
# 6 0.0000 0.0000 0.0000 0.0000 0.0000 3.7290
#
#
#
# Elastic Compliance Matrix: (Units=1/GPa)
#
#
# Indices 1 2 3 4 5 6 
#
# 1 0.013713 0.003749 0.003399 0.000000 0.000000 0.000000
# 2 0.003749 0.013713 0.003399 0.000000 0.000000 0.000000
# 3 0.003399 0.003399 0.018277 0.000000 0.000000 0.000000
# 4 0.000000 0.000000 0.000000 0.083138 0.000000 0.000000
# 5 0.000000 0.000000 0.000000 0.000000 0.083142 0.000000
# 6 0.000000 0.000000 0.000000 0.000000 0.000000 0.268168
#
#
# Mechanical properties :
#
#
# Convention : Reuss Voigt Hill
#
# Bulk Modulus (GPa) = 14.97048 15.17007 15.07028
# Shear Modulus (GPa) = 10.38804 23.11429 16.75116
#
# Velocity S-wave (km/s) = 2.41067 3.59592 3.06121
# Velocity P-wave (km/s) = 4.01538 5.07222 4.57442
#
# Compressibility (1/GPa) = 0.06679813
#
# Stress axis : x y z
#
# Youngs Moduli (GPa) = 72.92446 72.92259 54.71363
#
# Poissons Ratio (x) = -0.27338 -0.18599
# Poissons Ratio (y) = -0.27339 -0.18599
# Poissons Ratio (z) = -0.24789 -0.24789
#
# Static dielectric constant tensor:
#      x y z
#    x 1.576740 0.000000 0.000000 
#    y 0.000000 1.576740 0.000000 
#    z 0.000000 0.000000 1.614430 
# 
# From -- ./inp_files/441.got.cif
#   From: 2010.05.17/outbox.cif.g08.bks.cpg/sg121_1_cif.got.tgz:441.got - 2010.05.20 11:32:06.
