data_PCOD9560898
_publ_section_title
;
Structure prediction by ZEFSAII (Michael W. Deem and Ramdas Pophale) SiO2 
 PCOD9560898
Probable space group: I -4 2 D
;
_chemical_formula_sum "Si O2"
_cell_formula_units_Z 72
_cell_length_a 10.818011
_cell_length_b 10.818011
_cell_length_c 27.214326
_cell_angle_alpha 90.000000
_cell_angle_beta 90.000000
_cell_angle_gamma 90.000000
_cell_volume 3184.875209
_symmetry_space_group_name_H-M "I -4 2 D"
_symmetry_group_IT_number 122
_symmetry_cell_setting 'tetragonal'
loop_
_space_group_symop_operation_xyz
x,y,z
y,-x,-z
-x,-y,z
-y,x,-z
x,1/2-y,1/4-z
-x,1/2+y,1/4-z
-y,1/2-x,1/4+z
y,1/2+x,1/4+z
1/2+x,1/2+y,1/2+z
1/2+y,1/2-x,1/2-z
1/2-x,1/2-y,1/2+z
1/2-y,1/2+x,1/2-z
1/2+x,-y,3/4-z
1/2-x,y,3/4-z
1/2-y,-x,3/4+z
1/2+y,x,3/4+z
loop_
_atom_site_type_symbol
_atom_site_label
_atom_site_fract_x
_atom_site_fract_y
_atom_site_fract_z
Si Si1 0.856171 0.857732 0.684229
Si Si2 0.807710 0.551687 0.266054
Si Si3 0.605010 0.280514 0.344381
Si Si4 0.004123 0.707757 0.747574
Si Si5 0.250000 0.493668 0.375000
O O1 0.810498 0.928159 0.732043
O O2 0.768726 0.737960 0.675019
O O3 0.822639 0.933258 0.635040
O O4 0.984398 0.794139 0.699902
O O5 0.858849 0.414680 0.254814
O O6 0.778918 0.572239 0.323468
O O7 0.519432 0.284699 0.297307
O O8 0.632855 0.414661 0.366120
O O9 0.884979 0.619668 0.755340
#
# Coordination Sequence:
#
# PCOD9560898 Si02
#       5
#    16  16  16  16   8
#     4   9  18  35  59  81 117 149 188 245 287 343
#     4  11  21  36  58  84 117 158 195 233 290 353
#     4   9  17  37  61  79 115 156 184 241 302 328
#     4   9  18  34  65  85 109 154 195 236 295 350
#     4  10  20  38  60  84 124 154 192 234 298 350
#
# _framework density 22.606852
#
# number of rings (size 3 to 8) (size 9 to 14) (size 15 to 20)
#    0.000    2.667    4.444    0.000    0.000    1.778 
#    0.000    0.000   34.222   13.333    0.000    0.000 
#    0.000    0.000    0.000    0.000    0.000    0.000 
#
# Total GULP energy -200548.486636 kJ/mol
# GULP energy per Si atom -5570.791295 kJ/mol
# Density = 2.255540 g / cm^3
# Si number density = 22.606852 Si / 1000 Ang^3
#
#
#
# Elastic Constant Matrix: (Units=GPa)
#
#
# Indices 1 2 3 4 5 6 
#
# 1 11.2946 14.2484 15.1844 0.0000 0.0000 0.0000
# 2 14.2484 11.2946 15.1844 0.0000 0.0000 0.0000
# 3 15.1844 15.1844 136.1810 0.0000 0.0000 0.0000
# 4 0.0000 0.0000 0.0000 30.0069 0.0000 0.0000
# 5 0.0000 0.0000 0.0000 0.0000 30.0069 0.0000
# 6 0.0000 0.0000 0.0000 0.0000 0.0000 -0.6372
#
#
#
# Elastic Compliance Matrix: (Units=1/GPa)
#
#
# Indices 1 2 3 4 5 6 
#
# 1 -0.146708 0.191841 -0.005032 0.000000 0.000000 0.000000
# 2 0.191841 -0.146708 -0.005032 0.000000 0.000000 0.000000
# 3 -0.005032 -0.005032 0.008465 0.000000 0.000000 0.000000
# 4 0.000000 0.000000 0.000000 0.033326 0.000000 0.000000
# 5 0.000000 0.000000 0.000000 0.000000 0.033326 0.000000
# 6 0.000000 0.000000 0.000000 0.000000 0.000000 -1.569449
#
#
# Mechanical properties :
#
#
# Convention : Reuss Voigt Hill
#
# Bulk Modulus (GPa) = 12.72244 27.55607 20.13925
# Shear Modulus (GPa) = -2.35283 19.48553 8.56635
#
# Velocity S-wave (km/s) = -1.02128 2.93905 1.94872
# Velocity P-wave (km/s) = 2.06136 4.87166 3.74047
#
# Compressibility (1/GPa) = 0.07860129
#
# Stress axis : x y z
#
# Youngs Moduli (GPa) = -6.81626 -6.81626 118.12796
#
# Poissons Ratio (x) = 1.30764 0.59446
# Poissons Ratio (y) = 1.30764 0.59446
# Poissons Ratio (z) = -0.03430 -0.03430
#
# Static dielectric constant tensor:
#      x y z
#    x 1.881650 0.000000 0.000000 
#    y 0.000000 1.881650 0.000000 
#    z 0.000000 0.000000 1.923090 
# 
# From -- ./inp_files/8630.got.cif
#   From: 2010.05.17/outbox.cif.g08.bks.cpg/sg122_5_cif.got.tgz:8630.got - 2010.05.20 11:37:33.
