data_PCOD9560014
_publ_section_title
;
Structure prediction by ZEFSAII (Michael W. Deem and Ramdas Pophale) SiO2 
 PCOD9560014
Probable space group: I -4 C 2
;
_chemical_formula_sum "Si O2"
_cell_formula_units_Z 96
_cell_length_a 15.054052
_cell_length_b 15.054052
_cell_length_c 18.575371
_cell_angle_alpha 90.000000
_cell_angle_beta 90.000000
_cell_angle_gamma 90.000000
_cell_volume 4209.633824
_symmetry_space_group_name_H-M "I -4 C 2"
_symmetry_group_IT_number 120
_symmetry_cell_setting 'tetragonal'
loop_
_space_group_symop_operation_xyz
x,y,z
y,-x,-z
-x,-y,z
-y,x,-z
y,x,1/2-z
-y,-x,1/2-z
-x,y,1/2+z
x,-y,1/2+z
1/2+x,1/2+y,1/2+z
1/2+y,1/2-x,1/2-z
1/2-x,1/2-y,1/2+z
1/2-y,1/2+x,1/2-z
1/2+y,1/2+x,-z
1/2-y,1/2-x,-z
1/2-x,1/2+y,z
1/2+x,1/2-y,z
loop_
_atom_site_type_symbol
_atom_site_label
_atom_site_fract_x
_atom_site_fract_y
_atom_site_fract_z
Si Si1 0.763603 0.905337 0.393006
Si Si2 0.783607 0.727358 0.670164
Si Si3 0.331695 0.543699 0.790842
Si Si4 0.259520 0.022812 0.148733
Si Si5 0.364639 0.522556 0.520587
Si Si6 0.428262 0.927572 0.913352
O O1 0.752645 0.800399 0.381024
O O2 0.791654 0.927788 0.473619
O O3 0.667638 0.948496 0.381138
O O4 0.832604 0.955366 0.339893
O O5 0.746251 0.746251 0.750000
O O6 0.872332 0.787505 0.666369
O O7 0.796655 0.622412 0.658389
O O8 0.419337 0.580664 0.750000
O O9 0.268539 0.516785 0.724773
O O10 0.176792 0.017811 0.092763
O O11 0.334214 0.961487 0.115176
O O12 0.444179 0.592749 0.528000
O O13 0.500000 0.000000 0.891963
O O14 0.424395 0.924395 0.000000
#
# Coordination Sequence:
#
# PCOD9560014 Si02
#       6
#    16  16  16  16  16  16
#     4  12  23  46  70  97 138 185 231 284 360 420
#     4  11  23  45  69 100 137 179 228 290 347 424
#     4  11  25  43  69 100 136 176 230 288 345 422
#     4  12  23  44  67  99 136 178 231 284 353 414
#     4  11  24  42  67 100 137 178 233 290 347 421
#     4  11  24  42  66  95 136 177 225 285 344 420
#
# _framework density 22.804834
#
# number of rings (size 3 to 8) (size 9 to 14) (size 15 to 20)
#    0.000    0.667    5.000    4.000    0.000    0.000 
#    0.000    0.833    0.000    0.000    0.000    0.000 
#    0.000    0.000    0.000    0.000    0.000    0.000 
#
# Total GULP energy -268445.072676 kJ/mol
# GULP energy per Si atom -5592.605681 kJ/mol
# Density = 2.275293 g / cm^3
# Si number density = 22.804834 Si / 1000 Ang^3
#
#
#
# Elastic Constant Matrix: (Units=GPa)
#
#
# Indices 1 2 3 4 5 6 
#
# 1 82.2062 7.4582 9.3671 0.0000 0.0000 0.0000
# 2 7.4582 82.2071 9.3670 0.0000 0.0000 0.0000
# 3 9.3671 9.3670 63.9965 0.0000 0.0000 0.0000
# 4 0.0000 0.0000 0.0000 27.5705 0.0000 0.0000
# 5 0.0000 0.0000 0.0000 0.0000 27.5699 0.0000
# 6 0.0000 0.0000 0.0000 0.0000 0.0000 31.6857
#
#
#
# Elastic Compliance Matrix: (Units=1/GPa)
#
#
# Indices 1 2 3 4 5 6 
#
# 1 0.012441 -0.000937 -0.001684 0.000000 0.000000 0.000000
# 2 -0.000937 0.012441 -0.001684 0.000000 0.000000 0.000000
# 3 -0.001684 -0.001684 0.016119 0.000000 0.000000 0.000000
# 4 0.000000 0.000000 0.000000 0.036271 0.000000 0.000000
# 5 0.000000 0.000000 0.000000 0.000000 0.036271 0.000000
# 6 0.000000 0.000000 0.000000 0.000000 0.000000 0.031560
#
#
# Mechanical properties :
#
#
# Convention : Reuss Voigt Hill
#
# Bulk Modulus (GPa) = 30.87165 31.19937 31.03551
# Shear Modulus (GPa) = 30.39326 30.84639 30.61983
#
# Velocity S-wave (km/s) = 3.65465 3.68180 3.66825
# Velocity P-wave (km/s) = 5.60137 5.63781 5.61962
#
# Compressibility (1/GPa) = 0.03239218
#
# Stress axis : x y z
#
# Youngs Moduli (GPa) = 80.37672 80.37766 62.03941
#
# Poissons Ratio (x) = 0.07530 0.10447
# Poissons Ratio (y) = 0.07530 0.10447
# Poissons Ratio (z) = 0.13535 0.13534
#
# Static dielectric constant tensor:
#      x y z
#    x 1.867700 0.000000 0.000000 
#    y 0.000000 1.867690 0.000000 
#    z 0.000000 0.000000 1.826310 
# 
# From -- ./inp_files/5329.got.cif
#   From: 2010.05.17/outbox.cif.g08.bks.cpg/sg120_3_cif.got.tgz:5329.got - 2010.05.20 11:28:13.
