data_PCOD9560131
_publ_section_title
;
Structure prediction by ZEFSAII (Michael W. Deem and Ramdas Pophale) SiO2 
 PCOD9560131
Probable space group: I -4 2 M
;
_chemical_formula_sum "Si O2"
_cell_formula_units_Z 56
_cell_length_a 19.255115
_cell_length_b 19.255115
_cell_length_c 5.471325
_cell_angle_alpha 90.000000
_cell_angle_beta 90.000000
_cell_angle_gamma 90.000000
_cell_volume 2028.545468
_symmetry_space_group_name_H-M "I -4 2 M"
_symmetry_group_IT_number 121
_symmetry_cell_setting 'tetragonal'
loop_
_space_group_symop_operation_xyz
x,y,z
y,-x,-z
-x,-y,z
-y,x,-z
x,-y,-z
-x,y,-z
-y,-x,z
y,x,z
1/2+x,1/2+y,1/2+z
1/2+y,1/2-x,1/2-z
1/2-x,1/2-y,1/2+z
1/2-y,1/2+x,1/2-z
1/2+x,1/2-y,1/2-z
1/2-x,1/2+y,1/2-z
1/2-y,1/2-x,1/2+z
1/2+y,1/2+x,1/2+z
loop_
_atom_site_type_symbol
_atom_site_label
_atom_site_fract_x
_atom_site_fract_y
_atom_site_fract_z
Si Si1 0.755423 0.648524 0.237573
Si Si2 0.000000 0.115546 0.500000
Si Si3 0.069741 0.231381 0.236159
Si Si4 0.617528 0.080036 0.765550
O O1 0.726085 0.726085 0.246211
O O2 0.728375 0.610493 0.481884
O O3 0.838309 0.641678 0.234766
O O4 0.729177 0.614696 0.985618
O O5 0.018453 0.167504 0.278391
O O6 0.934736 0.065265 0.452224
O O7 0.038045 0.309974 0.241032
O O8 0.574799 0.076153 0.516956
#
# Coordination Sequence:
#
# PCOD9560131 Si02
#       4
#    16   8  16  16
#     4  10  18  30  51  74  91 109 141 196 266 322
#     4  11  24  40  54  68  94 142 196 229 244 266
#     4  10  21  35  49  67  92 121 160 208 247 286
#     4   8  16  28  47  73  94 110 136 186 256 321
#
# _framework density 27.605983999999999
#
# number of rings (size 3 to 8) (size 9 to 14) (size 15 to 20)
#    0.000    2.429    0.000    2.571    0.000   12.571 
#    0.000    4.286    0.000    8.571    0.000    0.000 
#    0.000    0.000    0.000    0.000    0.000  347.143 
#
# Total GULP energy -156932.675511 kJ/mol
# GULP energy per Si atom -5604.738411 kJ/mol
# Density = 2.754315 g / cm^3
# Si number density = 27.605984 Si / 1000 Ang^3
#
#
#
# Elastic Constant Matrix: (Units=GPa)
#
#
# Indices 1 2 3 4 5 6 
#
# 1 142.4473 52.4426 43.7138 0.0000 0.0000 0.0000
# 2 52.4426 142.4461 43.7137 0.0000 0.0000 0.0000
# 3 43.7138 43.7137 280.9684 0.0000 0.0000 0.0000
# 4 0.0000 0.0000 0.0000 22.8092 0.0000 0.0000
# 5 0.0000 0.0000 0.0000 0.0000 22.8088 0.0000
# 6 0.0000 0.0000 0.0000 0.0000 0.0000 7.8805
#
#
#
# Elastic Compliance Matrix: (Units=1/GPa)
#
#
# Indices 1 2 3 4 5 6 
#
# 1 0.008313 -0.002797 -0.000858 0.000000 0.000000 0.000000
# 2 -0.002797 0.008313 -0.000858 0.000000 0.000000 0.000000
# 3 -0.000858 -0.000858 0.003826 0.000000 0.000000 0.000000
# 4 0.000000 0.000000 0.000000 0.043842 0.000000 0.000000
# 5 0.000000 0.000000 0.000000 0.000000 0.043843 0.000000
# 6 0.000000 0.000000 0.000000 0.000000 0.000000 0.126896
#
#
# Mechanical properties :
#
#
# Convention : Reuss Voigt Hill
#
# Bulk Modulus (GPa) = 87.52319 93.95580 90.73950
# Shear Modulus (GPa) = 20.17189 39.09913 29.63551
#
# Velocity S-wave (km/s) = 2.70609 3.76750 3.28001
# Velocity P-wave (km/s) = 6.44493 7.28243 6.87645
#
# Compressibility (1/GPa) = 0.01142554
#
# Stress axis : x y z
#
# Youngs Moduli (GPa) = 120.28880 120.28779 261.35833
#
# Poissons Ratio (x) = 0.33647 0.22430
# Poissons Ratio (y) = 0.33648 0.22430
# Poissons Ratio (z) = 0.10323 0.10323
#
# Static dielectric constant tensor:
#      x y z
#    x 2.184440 0.000000 0.000000 
#    y 0.000000 2.184440 0.000000 
#    z 0.000000 0.000000 2.182990 
# 
# From -- ./inp_files/412.got.cif
#   From: 2010.05.17/outbox.cif.g08.bks.cpg/sg121_1_cif.got.tgz:412.got - 2010.05.20 11:32:06.
