data_PCOD9560685
_publ_section_title
;
Structure prediction by ZEFSAII (Michael W. Deem and Ramdas Pophale) SiO2 
 PCOD9560685
Probable space group: I -4 2 D
;
_chemical_formula_sum "Si O2"
_cell_formula_units_Z 104
_cell_length_a 23.033426
_cell_length_b 23.033426
_cell_length_c 8.444189
_cell_angle_alpha 90.000000
_cell_angle_beta 90.000000
_cell_angle_gamma 90.000000
_cell_volume 4479.969167
_symmetry_space_group_name_H-M "I -4 2 D"
_symmetry_group_IT_number 122
_symmetry_cell_setting 'tetragonal'
loop_
_space_group_symop_operation_xyz
x,y,z
y,-x,-z
-x,-y,z
-y,x,-z
x,1/2-y,1/4-z
-x,1/2+y,1/4-z
-y,1/2-x,1/4+z
y,1/2+x,1/4+z
1/2+x,1/2+y,1/2+z
1/2+y,1/2-x,1/2-z
1/2-x,1/2-y,1/2+z
1/2-y,1/2+x,1/2-z
1/2+x,-y,3/4-z
1/2-x,y,3/4-z
1/2-y,-x,3/4+z
1/2+y,x,3/4+z
loop_
_atom_site_type_symbol
_atom_site_label
_atom_site_fract_x
_atom_site_fract_y
_atom_site_fract_z
Si Si1 0.352441 0.004550 0.720440
Si Si2 0.913201 0.354838 0.990973
Si Si3 0.250000 0.332975 0.375000
Si Si4 0.949061 0.582597 0.746927
Si Si5 0.754308 0.960467 0.548682
Si Si6 0.284278 0.325632 0.715174
Si Si7 0.402057 0.382634 0.679311
O O1 0.370093 0.939951 0.771524
O O2 0.284594 0.006001 0.675325
O O3 0.380213 0.049954 0.594095
O O4 0.367888 0.039229 0.879094
O O5 0.891347 0.412540 0.901512
O O6 0.946315 0.318030 0.856527
O O7 0.870216 0.308060 0.077053
O O8 0.264607 0.302762 0.542159
O O9 0.925765 0.517128 0.774467
O O10 0.935941 0.617217 0.905962
O O11 0.750000 0.987227 0.375000
O O12 0.729727 0.894878 0.540104
O O13 0.250000 0.306245 0.875000
O O14 0.353726 0.332321 0.706868
#
# Coordination Sequence:
#
# PCOD9560685 Si02
#       7
#    16  16   8  16  16  16  16
#     4  11  21  33  50  73 100 141 181 221 263 326
#     4  11  17  34  50  69  91 131 181 215 268 308
#     4  10  16  30  56  70  88 124 174 226 278 302
#     4  11  24  34  45  65 104 147 186 218 256 315
#     4   9  17  33  54  71  91 126 176 225 277 312
#     4   9  17  31  50  74  94 129 179 225 270 317
#     4  11  22  34  47  71 103 143 185 221 263 324
#
# _framework density 23.214444
#
# number of rings (size 3 to 8) (size 9 to 14) (size 15 to 20)
#    0.000    1.692    6.154    3.692    2.154    0.308 
#    0.000    0.000    0.000    0.000    0.000    0.000 
#    0.000    0.000   10.462    0.308    0.000    0.000 
#
# Total GULP energy -289562.883142 kJ/mol
# GULP energy per Si atom -5568.516983 kJ/mol
# Density = 2.316161 g / cm^3
# Si number density = 23.214444 Si / 1000 Ang^3
#
#
#
# Elastic Constant Matrix: (Units=GPa)
#
#
# Indices 1 2 3 4 5 6 
#
# 1 61.8631 10.9629 27.6925 0.0000 0.0000 0.0000
# 2 10.9629 61.8631 27.6925 0.0000 0.0000 0.0000
# 3 27.6925 27.6925 161.5645 0.0000 0.0000 0.0000
# 4 0.0000 0.0000 0.0000 34.0820 0.0000 0.0000
# 5 0.0000 0.0000 0.0000 0.0000 34.0820 0.0000
# 6 0.0000 0.0000 0.0000 0.0000 0.0000 116.8801
#
#
#
# Elastic Compliance Matrix: (Units=1/GPa)
#
#
# Indices 1 2 3 4 5 6 
#
# 1 0.017718 -0.001928 -0.002706 0.000000 0.000000 0.000000
# 2 -0.001928 0.017718 -0.002706 0.000000 0.000000 0.000000
# 3 -0.002706 -0.002706 0.007117 0.000000 0.000000 0.000000
# 4 0.000000 0.000000 0.000000 0.029341 0.000000 0.000000
# 5 0.000000 0.000000 0.000000 0.000000 0.029341 0.000000
# 6 0.000000 0.000000 0.000000 0.000000 0.000000 0.008556
#
#
# Mechanical properties :
#
#
# Convention : Reuss Voigt Hill
#
# Bulk Modulus (GPa) = 35.87969 46.44297 41.16133
# Shear Modulus (GPa) = 37.37947 51.60502 44.49224
#
# Velocity S-wave (km/s) = 4.01706 4.71995 4.38262
# Velocity P-wave (km/s) = 6.08317 7.05361 6.58629
#
# Compressibility (1/GPa) = 0.02787092
#
# Stress axis : x y z
#
# Youngs Moduli (GPa) = 56.44001 56.44001 140.50400
#
# Poissons Ratio (x) = 0.10884 0.38026
# Poissons Ratio (y) = 0.10884 0.38026
# Poissons Ratio (z) = 0.15275 0.15275
#
# Static dielectric constant tensor:
#      x y z
#    x 1.953390 0.000000 0.000000 
#    y 0.000000 1.953390 0.000000 
#    z 0.000000 0.000000 1.898420 
# 
# From -- ./inp_files/3076.got.cif
#   From: 2010.05.17/outbox.cif.g08.bks.cpg/sg122_2_cif.got.tgz:3076.got - 2010.05.20 11:37:33.
