data_PCOD9560276
_publ_section_title
;
Structure prediction by ZEFSAII (Michael W. Deem and Ramdas Pophale) SiO2 
 PCOD9560276
Probable space group: I -4 2 M
;
_chemical_formula_sum "Si O2"
_cell_formula_units_Z 96
_cell_length_a 16.326736
_cell_length_b 16.326736
_cell_length_c 18.231167
_cell_angle_alpha 90.000000
_cell_angle_beta 90.000000
_cell_angle_gamma 90.000000
_cell_volume 4859.741961
_symmetry_space_group_name_H-M "I -4 2 M"
_symmetry_group_IT_number 121
_symmetry_cell_setting 'tetragonal'
loop_
_space_group_symop_operation_xyz
x,y,z
y,-x,-z
-x,-y,z
-y,x,-z
x,-y,-z
-x,y,-z
-y,-x,z
y,x,z
1/2+x,1/2+y,1/2+z
1/2+y,1/2-x,1/2-z
1/2-x,1/2-y,1/2+z
1/2-y,1/2+x,1/2-z
1/2+x,1/2-y,1/2-z
1/2-x,1/2+y,1/2-z
1/2-y,1/2-x,1/2+z
1/2+y,1/2+x,1/2+z
loop_
_atom_site_type_symbol
_atom_site_label
_atom_site_fract_x
_atom_site_fract_y
_atom_site_fract_z
Si Si1 0.757116 0.379509 0.877961
Si Si2 0.121004 0.566294 0.745643
Si Si3 0.130599 0.992997 0.778398
Si Si4 0.759763 0.628876 0.538559
Si Si5 0.546780 0.228796 0.614170
Si Si6 0.007552 0.867144 0.608626
O O1 0.684058 0.315943 0.853426
O O2 0.816324 0.403129 0.809290
O O3 0.809987 0.331455 0.937779
O O4 0.713271 0.458297 0.914751
O O5 0.108116 0.467905 0.749183
O O6 0.155976 0.580005 0.664293
O O7 0.059590 0.059590 0.773839
O O8 0.198829 0.031991 0.828232
O O9 0.153588 0.976222 0.694364
O O10 0.089607 0.910394 0.809013
O O11 0.675593 0.675593 0.559230
O O12 0.754763 0.606937 0.453006
O O13 0.779688 0.543834 0.579453
O O14 0.940063 0.940063 0.604439
O O15 0.090597 0.909404 0.577666
#
# Coordination Sequence:
#
# PCOD9560276 Si02
#       6
#    16  16  16  16  16  16
#     4  10  19  36  59  86 122 163 205 261 317 363
#     4  11  23  40  61  88 120 154 212 266 308 367
#     4   9  16  26  46  79 117 157 199 243 296 359
#     4  10  22  36  55  86 124 166 204 242 304 377
#     4  11  20  35  57  82 121 166 207 248 303 365
#     4   8  14  25  47  81 116 151 194 245 307 363
#
# _framework density 19.754137
#
# number of rings (size 3 to 8) (size 9 to 14) (size 15 to 20)
#    0.000    2.167    3.333    2.000    0.000    0.667 
#    0.000    1.667    0.000    4.000    0.000    1.167 
#    0.000    0.000    0.000    0.000    0.000    0.167 
#
# Total GULP energy -267298.421281 kJ/mol
# GULP energy per Si atom -5568.717110 kJ/mol
# Density = 1.970918 g / cm^3
# Si number density = 19.754137 Si / 1000 Ang^3
#
#
#
# Elastic Constant Matrix: (Units=GPa)
#
#
# Indices 1 2 3 4 5 6 
#
# 1 72.4120 34.9170 22.2947 0.0000 0.0000 0.0000
# 2 34.9170 72.4125 22.2942 0.0000 0.0000 0.0000
# 3 22.2947 22.2942 64.1014 0.0000 0.0000 0.0000
# 4 0.0000 0.0000 0.0000 33.6280 0.0000 0.0000
# 5 0.0000 0.0000 0.0000 0.0000 33.6279 0.0000
# 6 0.0000 0.0000 0.0000 0.0000 0.0000 24.7285
#
#
#
# Elastic Compliance Matrix: (Units=1/GPa)
#
#
# Indices 1 2 3 4 5 6 
#
# 1 0.018781 -0.007890 -0.003788 0.000000 0.000000 0.000000
# 2 -0.007890 0.018780 -0.003788 0.000000 0.000000 0.000000
# 3 -0.003788 -0.003788 0.018235 0.000000 0.000000 0.000000
# 4 0.000000 0.000000 0.000000 0.029737 0.000000 0.000000
# 5 0.000000 0.000000 0.000000 0.000000 0.029737 0.000000
# 6 0.000000 0.000000 0.000000 0.000000 0.000000 0.040439
#
#
# Mechanical properties :
#
#
# Convention : Reuss Voigt Hill
#
# Bulk Modulus (GPa) = 40.21659 40.88196 40.54928
# Shear Modulus (GPa) = 25.65044 27.02487 26.33765
#
# Velocity S-wave (km/s) = 3.60736 3.70274 3.65536
# Velocity P-wave (km/s) = 6.14439 6.24666 6.19573
#
# Compressibility (1/GPa) = 0.02486536
#
# Stress axis : x y z
#
# Youngs Moduli (GPa) = 53.24663 53.24731 54.83935
#
# Poissons Ratio (x) = 0.42010 0.20773
# Poissons Ratio (y) = 0.42010 0.20771
# Poissons Ratio (z) = 0.20169 0.20168
#
# Static dielectric constant tensor:
#      x y z
#    x 1.706570 0.000000 0.000000 
#    y 0.000000 1.706560 0.000000 
#    z 0.000000 0.000000 1.712810 
# 
# From -- ./inp_files/6391.got.cif
#   From: 2010.05.17/outbox.cif.g08.bks.cpg/sg121_4_cif.got.tgz:6391.got - 2010.05.20 11:32:06.
