data_PCOD9560335
_publ_section_title
;
Structure prediction by ZEFSAII (Michael W. Deem and Ramdas Pophale) SiO2 
 PCOD9560335
Probable space group: I -4 2 M
;
_chemical_formula_sum "Si O2"
_cell_formula_units_Z 60
_cell_length_a 14.768627
_cell_length_b 14.768627
_cell_length_c 11.500829
_cell_angle_alpha 90.000000
_cell_angle_beta 90.000000
_cell_angle_gamma 90.000000
_cell_volume 2508.472765
_symmetry_space_group_name_H-M "I -4 2 M"
_symmetry_group_IT_number 121
_symmetry_cell_setting 'tetragonal'
loop_
_space_group_symop_operation_xyz
x,y,z
y,-x,-z
-x,-y,z
-y,x,-z
x,-y,-z
-x,y,-z
-y,-x,z
y,x,z
1/2+x,1/2+y,1/2+z
1/2+y,1/2-x,1/2-z
1/2-x,1/2-y,1/2+z
1/2-y,1/2+x,1/2-z
1/2+x,1/2-y,1/2-z
1/2-x,1/2+y,1/2-z
1/2-y,1/2-x,1/2+z
1/2+y,1/2+x,1/2+z
loop_
_atom_site_type_symbol
_atom_site_label
_atom_site_fract_x
_atom_site_fract_y
_atom_site_fract_z
Si Si1 0.642540 0.357461 0.808484
Si Si2 0.721711 0.721711 0.432043
Si Si3 0.415909 0.866149 0.577444
Si Si4 0.000000 0.000000 0.646121
Si Si5 0.218822 0.502760 0.810110
Si Si6 0.862304 0.137697 0.661759
O O1 0.684362 0.315639 0.691563
O O2 0.566285 0.433716 0.783191
O O3 0.723690 0.414564 0.866424
O O4 0.780362 0.637796 0.480238
O O5 0.797404 0.797404 0.409324
O O6 0.500000 0.892907 0.500000
O O7 0.455605 0.832919 0.701111
O O8 0.348580 0.947597 0.608497
O O9 0.929092 0.070909 0.589133
O O10 0.293965 0.428391 0.770762
#
# Coordination Sequence:
#
# PCOD9560335 Si02
#       6
#     8   8  16   4  16   8
#     4   8  14  28  51  75 111 156 199 247 295 350
#     4   8  16  31  51  80 119 156 192 235 293 362
#     4  10  20  35  57  87 121 157 197 245 300 359
#     4   8  12  20  42  76 103 144 203 248 290 338
#     4   9  18  33  53  83 119 159 203 248 300 356
#     4   8  14  27  49  75 113 158 200 245 293 351
#
# _framework density 23.918937
#
# number of rings (size 3 to 8) (size 9 to 14) (size 15 to 20)
#    0.000    3.200    0.000    0.000    0.000    1.600 
#    0.000    4.000    0.000    0.000    0.000   13.067 
#    0.000    0.000    0.000  112.000    0.000    1.333 
#
# Total GULP energy -167317.664663 kJ/mol
# GULP energy per Si atom -5577.255489 kJ/mol
# Density = 2.386450 g / cm^3
# Si number density = 23.918937 Si / 1000 Ang^3
#
#
#
# Elastic Constant Matrix: (Units=GPa)
#
#
# Indices 1 2 3 4 5 6 
#
# 1 164.7507 101.9646 55.9176 0.0000 0.0000 0.0000
# 2 101.9646 164.7481 55.9178 0.0000 0.0000 0.0000
# 3 55.9176 55.9178 47.1975 0.0000 0.0000 0.0000
# 4 0.0000 0.0000 0.0000 16.8036 0.0000 0.0000
# 5 0.0000 0.0000 0.0000 0.0000 16.8043 0.0000
# 6 0.0000 0.0000 0.0000 0.0000 0.0000 54.9812
#
#
#
# Elastic Compliance Matrix: (Units=1/GPa)
#
#
# Indices 1 2 3 4 5 6 
#
# 1 0.011689 -0.004238 -0.008827 0.000000 0.000000 0.000000
# 2 -0.004238 0.011689 -0.008828 0.000000 0.000000 0.000000
# 3 -0.008827 -0.008828 0.042104 0.000000 0.000000 0.000000
# 4 0.000000 0.000000 0.000000 0.059511 0.000000 0.000000
# 5 0.000000 0.000000 0.000000 0.000000 0.059508 0.000000
# 6 0.000000 0.000000 0.000000 0.000000 0.000000 0.018188
#
#
# Mechanical properties :
#
#
# Convention : Reuss Voigt Hill
#
# Bulk Modulus (GPa) = 46.09095 89.36624 67.72859
# Shear Modulus (GPa) = 19.70773 28.57757 24.14265
#
# Velocity S-wave (km/s) = 2.87355 3.46029 3.18048
# Velocity P-wave (km/s) = 5.50647 7.30808 6.47029
#
# Compressibility (1/GPa) = 0.02169623
#
# Stress axis : x y z
#
# Youngs Moduli (GPa) = 85.55146 85.54878 23.75076
#
# Poissons Ratio (x) = 0.36259 0.20965
# Poissons Ratio (y) = 0.36260 0.20966
# Poissons Ratio (z) = 0.75516 0.75518
#
# Static dielectric constant tensor:
#      x y z
#    x 1.951920 0.000000 0.000000 
#    y 0.000000 1.951920 0.000000 
#    z 0.000000 0.000000 1.876230 
# 
# From -- ./inp_files/4118.got.cif
#   From: 2010.05.17/outbox.cif.g08.bks.cpg/sg121_3_cif.got.tgz:4118.got - 2010.05.20 11:32:06.
