data_PCOD9560486
_publ_section_title
;
Structure prediction by ZEFSAII (Michael W. Deem and Ramdas Pophale) SiO2 
 PCOD9560486
Probable space group: I -4 2 M
;
_chemical_formula_sum "Si O2"
_cell_formula_units_Z 88
_cell_length_a 11.655744
_cell_length_b 11.655744
_cell_length_c 27.569519
_cell_angle_alpha 90.000000
_cell_angle_beta 90.000000
_cell_angle_gamma 90.000000
_cell_volume 3745.494724
_symmetry_space_group_name_H-M "I -4 2 M"
_symmetry_group_IT_number 121
_symmetry_cell_setting 'tetragonal'
loop_
_space_group_symop_operation_xyz
x,y,z
y,-x,-z
-x,-y,z
-y,x,-z
x,-y,-z
-x,y,-z
-y,-x,z
y,x,z
1/2+x,1/2+y,1/2+z
1/2+y,1/2-x,1/2-z
1/2-x,1/2-y,1/2+z
1/2-y,1/2+x,1/2-z
1/2+x,1/2-y,1/2-z
1/2-x,1/2+y,1/2-z
1/2-y,1/2-x,1/2+z
1/2+y,1/2+x,1/2+z
loop_
_atom_site_type_symbol
_atom_site_label
_atom_site_fract_x
_atom_site_fract_y
_atom_site_fract_z
Si Si1 0.493602 0.315319 0.061978
Si Si2 0.693863 0.500000 0.500000
Si Si3 0.145251 0.549604 0.680435
Si Si4 0.238008 0.953017 0.737756
Si Si5 0.710226 0.118711 0.342928
Si Si6 0.671615 0.136789 0.072434
O O1 0.589965 0.410036 0.076934
O O2 0.394299 0.394299 0.035571
O O3 0.428727 0.256575 0.106620
O O4 0.569438 0.205604 0.045128
O O5 0.608500 0.391501 0.491259
O O6 0.779203 0.473781 0.544737
O O7 0.095401 0.635687 0.721696
O O8 0.259045 0.508192 0.709037
O O9 0.096683 0.423834 0.665975
O O10 0.149029 0.613938 0.629217
O O11 0.148081 0.851920 0.733470
O O12 0.221434 0.048763 0.697569
O O13 0.749225 0.250776 0.339155
O O14 0.776143 0.223858 0.071634
#
# Coordination Sequence:
#
# PCOD9560486 Si02
#       6
#    16   8  16  16  16  16
#     4   9  18  34  60  96 135 176 221 271 339 425
#     4   9  20  40  66  99 140 188 246 306 364 426
#     4  12  24  38  61  91 130 176 224 280 344 415
#     4  12  25  40  58  86 127 176 228 282 340 408
#     4  11  23  38  59  89 126 170 219 274 337 406
#     4  10  21  39  67  99 139 186 232 291 360 428
#
# _framework density 23.494893999999999
#
# number of rings (size 3 to 8) (size 9 to 14) (size 15 to 20)
#    0.000    1.364    3.636    2.182    0.000    3.273 
#    0.000    0.000    0.000    7.091    0.000    5.091 
#    0.000   11.636    0.000    0.000    0.000    0.000 
#
# Total GULP energy -245133.097209 kJ/mol
# GULP energy per Si atom -5571.206755 kJ/mol
# Density = 2.344142 g / cm^3
# Si number density = 23.494894 Si / 1000 Ang^3
#
#
#
# Elastic Constant Matrix: (Units=GPa)
#
#
# Indices 1 2 3 4 5 6 
#
# 1 94.3165 49.9746 19.5838 0.0000 0.0000 0.0000
# 2 49.9746 94.3138 19.5822 0.0000 0.0000 0.0000
# 3 19.5838 19.5822 75.4811 0.0000 0.0000 0.0000
# 4 0.0000 0.0000 0.0000 21.0246 0.0000 0.0000
# 5 0.0000 0.0000 0.0000 0.0000 21.0210 0.0000
# 6 0.0000 0.0000 0.0000 0.0000 0.0000 21.0740
#
#
#
# Elastic Compliance Matrix: (Units=1/GPa)
#
#
# Indices 1 2 3 4 5 6 
#
# 1 0.015004 -0.007549 -0.001934 0.000000 0.000000 0.000000
# 2 -0.007549 0.015004 -0.001934 0.000000 0.000000 0.000000
# 3 -0.001934 -0.001934 0.014252 0.000000 0.000000 0.000000
# 4 0.000000 0.000000 0.000000 0.047563 0.000000 0.000000
# 5 0.000000 0.000000 0.000000 0.000000 0.047571 0.000000
# 6 0.000000 0.000000 0.000000 0.000000 0.000000 0.047452
#
#
# Mechanical properties :
#
#
# Convention : Reuss Voigt Hill
#
# Bulk Modulus (GPa) = 46.67234 49.15474 47.91354
# Shear Modulus (GPa) = 23.06026 24.28863 23.67445
#
# Velocity S-wave (km/s) = 3.13629 3.21874 3.17778
# Velocity P-wave (km/s) = 5.74657 5.89751 5.82253
#
# Compressibility (1/GPa) = 0.02142596
#
# Stress axis : x y z
#
# Youngs Moduli (GPa) = 66.64907 66.64766 70.16546
#
# Poissons Ratio (x) = 0.50309 0.13573
# Poissons Ratio (y) = 0.50311 0.13571
# Poissons Ratio (z) = 0.12893 0.12890
#
# Static dielectric constant tensor:
#      x y z
#    x 1.977010 0.000000 0.000000 
#    y 0.000000 1.977000 0.000000 
#    z 0.000000 0.000000 1.906650 
# 
# From -- ./inp_files/8158.got.cif
#   From: 2010.05.17/outbox.cif.g08.bks.cpg/sg121_5_cif.got.tgz:8158.got - 2010.05.20 11:32:06.
