data_PCOD9560447
_publ_section_title
;
Structure prediction by ZEFSAII (Michael W. Deem and Ramdas Pophale) SiO2 
 PCOD9560447
Probable space group: I -4 2 M
;
_chemical_formula_sum "Si O2"
_cell_formula_units_Z 112
_cell_length_a 14.107479
_cell_length_b 14.107479
_cell_length_c 26.165861
_cell_angle_alpha 90.000000
_cell_angle_beta 90.000000
_cell_angle_gamma 90.000000
_cell_volume 5207.554873
_symmetry_space_group_name_H-M "I -4 2 M"
_symmetry_group_IT_number 121
_symmetry_cell_setting 'tetragonal'
loop_
_space_group_symop_operation_xyz
x,y,z
y,-x,-z
-x,-y,z
-y,x,-z
x,-y,-z
-x,y,-z
-y,-x,z
y,x,z
1/2+x,1/2+y,1/2+z
1/2+y,1/2-x,1/2-z
1/2-x,1/2-y,1/2+z
1/2-y,1/2+x,1/2-z
1/2+x,1/2-y,1/2-z
1/2-x,1/2+y,1/2-z
1/2-y,1/2-x,1/2+z
1/2+y,1/2+x,1/2+z
loop_
_atom_site_type_symbol
_atom_site_label
_atom_site_fract_x
_atom_site_fract_y
_atom_site_fract_z
Si Si1 0.346875 0.502998 0.653289
Si Si2 0.311222 0.899197 0.409473
Si Si3 0.294258 0.136300 0.307249
Si Si4 0.071544 0.426224 0.394731
Si Si5 0.543075 0.234404 0.446947
Si Si6 0.704137 0.132359 0.805418
Si Si7 0.649038 0.504960 0.146098
O O1 0.392594 0.607407 0.656979
O O2 0.430483 0.430483 0.667488
O O3 0.312976 0.475534 0.596116
O O4 0.257241 0.468015 0.686120
O O5 0.350610 0.811776 0.443776
O O6 0.345621 0.863982 0.352861
O O7 0.206223 0.937838 0.397582
O O8 0.362460 0.996641 0.425347
O O9 0.228977 0.228977 0.311271
O O10 0.366593 0.127788 0.353397
O O11 0.338124 0.133651 0.250989
O O12 0.222869 0.047415 0.316885
O O13 0.144411 0.479497 0.430437
O O14 0.000000 0.500000 0.368011
O O15 0.500000 0.268246 0.500000
O O16 0.785355 0.214646 0.807450
O O17 0.578032 0.421969 0.126693
O O18 0.582337 0.582337 0.173226
#
# Coordination Sequence:
#
# PCOD9560447 Si02
#       7
#    16  16  16  16  16  16  16
#     4   9  19  36  56  79 112 149 186 236 286 334
#     4   9  18  34  52  77 109 141 180 231 290 338
#     4   9  18  33  52  77 109 146 186 232 281 335
#     4   9  19  36  51  74 106 140 176 231 281 334
#     4  10  21  37  58  82 109 145 190 237 290 348
#     4   9  17  32  53  77 110 151 190 225 278 347
#     4   9  17  31  53  79 107 142 187 235 281 339
#
# _framework density 21.507216
#
# number of rings (size 3 to 8) (size 9 to 14) (size 15 to 20)
#    0.000    2.857    0.000    0.429    0.000    4.857 
#   15.429    3.571    0.000    0.000    0.000   13.000 
#    0.000   18.286    0.000    0.000    0.000    0.000 
#
# Total GULP energy -311832.592983 kJ/mol
# GULP energy per Si atom -5568.439160 kJ/mol
# Density = 2.145826 g / cm^3
# Si number density = 21.507216 Si / 1000 Ang^3
#
#
#
# Elastic Constant Matrix: (Units=GPa)
#
#
# Indices 1 2 3 4 5 6 
#
# 1 54.7141 14.3526 -13.6536 0.0000 0.0000 0.0000
# 2 14.3526 54.7126 -13.6537 0.0000 0.0000 0.0000
# 3 -13.6536 -13.6537 32.9090 0.0000 0.0000 0.0000
# 4 0.0000 0.0000 0.0000 14.9141 0.0000 0.0000
# 5 0.0000 0.0000 0.0000 0.0000 14.9139 0.0000
# 6 0.0000 0.0000 0.0000 0.0000 0.0000 41.3136
#
#
#
# Elastic Compliance Matrix: (Units=1/GPa)
#
#
# Indices 1 2 3 4 5 6 
#
# 1 0.021048 -0.003728 0.007186 0.000000 0.000000 0.000000
# 2 -0.003728 0.021049 0.007186 0.000000 0.000000 0.000000
# 3 0.007186 0.007186 0.036350 0.000000 0.000000 0.000000
# 4 0.000000 0.000000 0.000000 0.067051 0.000000 0.000000
# 5 0.000000 0.000000 0.000000 0.000000 0.067052 0.000000
# 6 0.000000 0.000000 0.000000 0.000000 0.000000 0.024205
#
#
# Mechanical properties :
#
#
# Convention : Reuss Voigt Hill
#
# Bulk Modulus (GPa) = 10.02672 12.93626 11.48149
# Shear Modulus (GPa) = 20.10368 24.58101 22.34235
#
# Velocity S-wave (km/s) = 3.06067 3.38438 3.22659
# Velocity P-wave (km/s) = 4.14276 4.61518 4.38534
#
# Compressibility (1/GPa) = 0.09973353
#
# Stress axis : x y z
#
# Youngs Moduli (GPa) = 47.51044 47.50900 27.51064
#
# Poissons Ratio (x) = 0.17712 -0.19769
# Poissons Ratio (y) = 0.17713 -0.19769
# Poissons Ratio (z) = -0.34140 -0.34141
#
# Static dielectric constant tensor:
#      x y z
#    x 1.849750 0.000000 0.000000 
#    y 0.000000 1.849750 0.000000 
#    z 0.000000 0.000000 1.741820 
# 
# From -- ./inp_files/7715.got.cif
#   From: 2010.05.17/outbox.cif.g08.bks.cpg/sg121_4_cif.got.tgz:7715.got - 2010.05.20 11:32:06.
