data_PCOD9560199
_publ_section_title
;
Structure prediction by ZEFSAII (Michael W. Deem and Ramdas Pophale) SiO2 
 PCOD9560199
Probable space group: I -4 2 M
;
_chemical_formula_sum "Si O2"
_cell_formula_units_Z 96
_cell_length_a 25.748536
_cell_length_b 25.748536
_cell_length_c 9.060824
_cell_angle_alpha 90.000000
_cell_angle_beta 90.000000
_cell_angle_gamma 90.000000
_cell_volume 6007.209483
_symmetry_space_group_name_H-M "I -4 2 M"
_symmetry_group_IT_number 121
_symmetry_cell_setting 'tetragonal'
loop_
_space_group_symop_operation_xyz
x,y,z
y,-x,-z
-x,-y,z
-y,x,-z
x,-y,-z
-x,y,-z
-y,-x,z
y,x,z
1/2+x,1/2+y,1/2+z
1/2+y,1/2-x,1/2-z
1/2-x,1/2-y,1/2+z
1/2-y,1/2+x,1/2-z
1/2+x,1/2-y,1/2-z
1/2-x,1/2+y,1/2-z
1/2-y,1/2-x,1/2+z
1/2+y,1/2+x,1/2+z
loop_
_atom_site_type_symbol
_atom_site_label
_atom_site_fract_x
_atom_site_fract_y
_atom_site_fract_z
Si Si1 0.187081 0.608012 0.677219
Si Si2 0.391987 0.812920 0.322781
Si Si3 0.000001 0.187989 0.331232
Si Si4 0.106712 0.808991 0.823017
Si Si5 0.500000 0.185921 0.170547
Si Si6 0.606710 0.691008 0.323022
O O1 0.181695 0.607802 0.500000
O O2 0.152650 0.652648 0.750001
O O3 0.170587 0.552394 0.744628
O O4 0.248281 0.615569 0.713402
O O5 0.384429 0.751721 0.286595
O O6 0.447605 0.829414 0.255371
O O7 0.052979 0.172799 0.249969
O O8 0.000001 0.251072 0.330013
O O9 0.000000 0.170414 0.500000
O O10 0.947024 0.172799 0.249963
O O11 0.154471 0.845530 0.778162
O O12 0.101159 0.811765 0.999997
O O13 0.500000 0.168552 0.000000
O O14 0.654468 0.654468 0.278167
#
# Coordination Sequence:
#
# PCOD9560199 Si02
#       6
#    16  16  16  16  16  16
#     4  10  19  31  48  71  98 127 159 195 235 279
#     4  10  19  31  48  71  98 127 159 195 235 279
#     4   9  17  29  47  70  93 120 157 199 239 278
#     4   9  18  32  49  69  95 128 162 194 232 281
#     4   9  17  31  49  68  91 122 161 199 234 276
#     4   9  18  32  49  69  95 128 162 194 232 281
#
# _framework density 15.980797000000001
#
# number of rings (size 3 to 8) (size 9 to 14) (size 15 to 20)
#    0.000    2.667    0.000    2.000    0.000    6.667 
#    0.000    0.000    0.000    1.000    0.000    7.000 
#    0.000    0.000    0.000    0.000    0.000    0.000 
#
# Total GULP energy -267491.374883 kJ/mol
# GULP energy per Si atom -5572.736977 kJ/mol
# Density = 1.594442 g / cm^3
# Si number density = 15.980797 Si / 1000 Ang^3
#
#
#
# Elastic Constant Matrix: (Units=GPa)
#
#
# Indices 1 2 3 4 5 6 
#
# 1 105.2267 74.9366 55.8478 0.0000 0.0000 0.0000
# 2 74.9366 105.2304 55.8472 0.0000 0.0000 0.0000
# 3 55.8478 55.8472 69.9751 0.0000 0.0000 0.0000
# 4 0.0000 0.0000 0.0000 24.8077 0.0000 0.0000
# 5 0.0000 0.0000 0.0000 0.0000 24.8077 0.0000
# 6 0.0000 0.0000 0.0000 0.0000 0.0000 -2.9905
#
#
#
# Elastic Compliance Matrix: (Units=1/GPa)
#
#
# Indices 1 2 3 4 5 6 
#
# 1 0.022000 -0.011013 -0.008769 0.000000 0.000000 0.000000
# 2 -0.011013 0.021998 -0.008768 0.000000 0.000000 0.000000
# 3 -0.008769 -0.008768 0.028287 0.000000 0.000000 0.000000
# 4 0.000000 0.000000 0.000000 0.040310 0.000000 0.000000
# 5 0.000000 0.000000 0.000000 0.000000 0.040310 0.000000
# 6 0.000000 0.000000 0.000000 0.000000 0.000000 -0.334397
#
#
# Mechanical properties :
#
#
# Convention : Reuss Voigt Hill
#
# Bulk Modulus (GPa) = 65.84817 72.63283 69.24050
# Shear Modulus (GPa) = -41.90051 15.57836 -13.16108
#
# Velocity S-wave (km/s) = -5.12603 3.12559 -2.87288
# Velocity P-wave (km/s) = 2.50181 7.65340 5.69357
#
# Compressibility (1/GPa) = 0.01518645
#
# Stress axis : x y z
#
# Youngs Moduli (GPa) = 45.45421 45.45769 35.35186
#
# Poissons Ratio (x) = 0.50062 0.31001
# Poissons Ratio (y) = 0.50058 0.30995
# Poissons Ratio (z) = 0.39860 0.39855
#
# Static dielectric constant tensor:
#      x y z
#    x 1.519610 0.000000 0.000000 
#    y 0.000000 1.519610 0.000000 
#    z 0.000000 0.000000 1.535480 
# 
# From -- ./inp_files/1925.got.cif
#   From: 2010.05.17/outbox.cif.g08.bks.cpg/sg121_1_cif.got.tgz:1925.got - 2010.05.20 11:32:06.
