data_PCOD9560771
_publ_section_title
;
Structure prediction by ZEFSAII (Michael W. Deem and Ramdas Pophale) SiO2 
 PCOD9560771
Probable space group: I -4 2 D
;
_chemical_formula_sum "Si O2"
_cell_formula_units_Z 120
_cell_length_a 23.492007
_cell_length_b 23.492007
_cell_length_c 10.184021
_cell_angle_alpha 90.000000
_cell_angle_beta 90.000000
_cell_angle_gamma 90.000000
_cell_volume 5620.300407
_symmetry_space_group_name_H-M "I -4 2 D"
_symmetry_group_IT_number 122
_symmetry_cell_setting 'tetragonal'
loop_
_space_group_symop_operation_xyz
x,y,z
y,-x,-z
-x,-y,z
-y,x,-z
x,1/2-y,1/4-z
-x,1/2+y,1/4-z
-y,1/2-x,1/4+z
y,1/2+x,1/4+z
1/2+x,1/2+y,1/2+z
1/2+y,1/2-x,1/2-z
1/2-x,1/2-y,1/2+z
1/2-y,1/2+x,1/2-z
1/2+x,-y,3/4-z
1/2-x,y,3/4-z
1/2-y,-x,3/4+z
1/2+y,x,3/4+z
loop_
_atom_site_type_symbol
_atom_site_label
_atom_site_fract_x
_atom_site_fract_y
_atom_site_fract_z
Si Si1 0.656192 0.233025 0.760013
Si Si2 0.485255 0.815142 0.084325
Si Si3 0.486554 0.159565 0.529656
Si Si4 0.682682 0.750000 0.125000
Si Si5 0.478403 0.288553 0.451497
Si Si6 0.408487 0.501138 0.033575
Si Si7 0.853353 0.751541 0.909180
Si Si8 0.629971 0.147544 0.975843
O O1 0.623413 0.250000 0.625000
O O2 0.692179 0.280066 0.844566
O O3 0.706179 0.196011 0.696591
O O4 0.621344 0.189857 0.851974
O O5 0.486908 0.750000 0.125000
O O6 0.514846 0.854759 0.191572
O O7 0.420434 0.836692 0.073532
O O8 0.510468 0.817101 0.937995
O O9 0.496536 0.222011 0.463065
O O10 0.501767 0.172618 0.680410
O O11 0.513823 0.114331 0.429301
O O12 0.420624 0.137415 0.539193
O O13 0.644311 0.756836 0.253642
O O14 0.410474 0.278814 0.466654
O O15 0.450364 0.554920 0.029429
O O16 0.837056 0.691826 0.970775
#
# Coordination Sequence:
#
# PCOD9560771 Si02
#       8
#    16  16  16   8  16  16  16  16
#     4  10  19  34  53  89 130 168 213 250 309 400
#     4  12  26  42  65  99 134 168 217 279 331 400
#     4  10  20  43  70  93 125 176 214 271 336 397
#     4  10  20  28  52  88 128 160 216 250 294 388
#     4  10  22  40  66  92 133 168 219 259 332 410
#     4  11  24  48  73  98 129 174 232 288 338 399
#     4  10  20  35  59  87 123 176 207 253 316 395
#     4  11  21  38  62  89 125 171 213 261 331 382
#
# _framework density 21.35117
#
# number of rings (size 3 to 8) (size 9 to 14) (size 15 to 20)
#    0.000    1.467    5.333    0.000    2.800    0.000 
#    4.800    0.000    0.000    1.600    0.000    0.000 
#    0.000    0.000    0.000    0.000    0.000    0.000 
#
# Total GULP energy -334618.739131 kJ/mol
# GULP energy per Si atom -5576.978986 kJ/mol
# Density = 2.130257 g / cm^3
# Si number density = 21.351170 Si / 1000 Ang^3
#
#
#
# Elastic Constant Matrix: (Units=GPa)
#
#
# Indices 1 2 3 4 5 6 
#
# 1 43.5584 14.2195 10.1604 0.0000 0.0000 0.0000
# 2 14.2195 43.5584 10.1604 0.0000 0.0000 0.0000
# 3 10.1604 10.1604 110.7224 0.0000 0.0000 0.0000
# 4 0.0000 0.0000 0.0000 27.9823 0.0000 0.0000
# 5 0.0000 0.0000 0.0000 0.0000 27.9823 0.0000
# 6 0.0000 0.0000 0.0000 0.0000 0.0000 6.7909
#
#
#
# Elastic Compliance Matrix: (Units=1/GPa)
#
#
# Indices 1 2 3 4 5 6 
#
# 1 0.025985 -0.008100 -0.001641 0.000000 0.000000 0.000000
# 2 -0.008100 0.025985 -0.001641 0.000000 0.000000 0.000000
# 3 -0.001641 -0.001641 0.009333 0.000000 0.000000 0.000000
# 4 0.000000 0.000000 0.000000 0.035737 0.000000 0.000000
# 5 0.000000 0.000000 0.000000 0.000000 0.035737 0.000000
# 6 0.000000 0.000000 0.000000 0.000000 0.000000 0.147256
#
#
# Mechanical properties :
#
#
# Convention : Reuss Voigt Hill
#
# Bulk Modulus (GPa) = 25.94859 29.65777 27.80318
# Shear Modulus (GPa) = 15.84073 23.43769 19.63921
#
# Velocity S-wave (km/s) = 2.72676 3.31679 3.03614
# Velocity P-wave (km/s) = 4.70035 5.34684 5.03398
#
# Compressibility (1/GPa) = 0.03853774
#
# Stress axis : x y z
#
# Youngs Moduli (GPa) = 38.48424 38.48424 107.14894
#
# Poissons Ratio (x) = 0.31171 0.17585
# Poissons Ratio (y) = 0.31171 0.17585
# Poissons Ratio (z) = 0.06316 0.06316
#
# Static dielectric constant tensor:
#      x y z
#    x 1.784120 0.000000 0.000000 
#    y 0.000000 1.784120 0.000000 
#    z 0.000000 0.000000 1.849210 
# 
# From -- ./inp_files/3103.got.cif
#   From: 2010.05.17/outbox.cif.g08.bks.cpg/sg122_2_cif.got.tgz:3103.got - 2010.05.20 11:37:33.
