data_PCOD9560038
_publ_section_title
;
Structure prediction by ZEFSAII (Michael W. Deem and Ramdas Pophale) SiO2 
 PCOD9560038
Probable space group: I -4 C 2
;
_chemical_formula_sum "Si O2"
_cell_formula_units_Z 52
_cell_length_a 13.309318
_cell_length_b 13.309318
_cell_length_c 11.852337
_cell_angle_alpha 90.000000
_cell_angle_beta 90.000000
_cell_angle_gamma 90.000000
_cell_volume 2099.498627
_symmetry_space_group_name_H-M "I -4 C 2"
_symmetry_group_IT_number 120
_symmetry_cell_setting 'tetragonal'
loop_
_space_group_symop_operation_xyz
x,y,z
y,-x,-z
-x,-y,z
-y,x,-z
y,x,1/2-z
-y,-x,1/2-z
-x,y,1/2+z
x,-y,1/2+z
1/2+x,1/2+y,1/2+z
1/2+y,1/2-x,1/2-z
1/2-x,1/2-y,1/2+z
1/2-y,1/2+x,1/2-z
1/2+y,1/2+x,-z
1/2-y,1/2-x,-z
1/2-x,1/2+y,z
1/2+x,1/2-y,z
loop_
_atom_site_type_symbol
_atom_site_label
_atom_site_fract_x
_atom_site_fract_y
_atom_site_fract_z
Si Si1 0.056473 0.890613 0.372457
Si Si2 0.000000 0.500000 0.250000
Si Si3 0.290166 0.917454 0.693100
Si Si4 0.279960 0.340800 0.929010
O O1 0.109371 0.890630 0.250000
O O2 0.118876 0.864458 0.484786
O O3 0.989612 0.791258 0.361645
O O4 0.000000 0.000000 0.376305
O O5 0.045990 0.403638 0.314440
O O6 0.264528 0.814523 0.628128
O O7 0.251138 0.908263 0.822677
O O8 0.181232 0.318769 0.000000
#
# Coordination Sequence:
#
# PCOD9560038 Si02
#       4
#    16   4  16  16
#     4  11  26  47  82 121 161 205 274 353 420 480
#     4  12  28  56  78 112 182 220 276 334 408 510
#     4  11  28  49  77 122 157 223 280 332 423 497
#     4  11  26  46  79 116 161 212 281 345 409 495
#
# _framework density 24.767817999999998
#
# number of rings (size 3 to 8) (size 9 to 14) (size 15 to 20)
#    0.000    0.923    0.000    5.538   17.231    1.231 
#    0.000    9.231    0.000    0.000    0.000    0.000 
#    0.000    0.000    0.000    0.000    0.000    0.000 
#
# Total GULP energy -145178.856176 kJ/mol
# GULP energy per Si atom -5583.802161 kJ/mol
# Density = 2.471145 g / cm^3
# Si number density = 24.767818 Si / 1000 Ang^3
#
#
#
# Elastic Constant Matrix: (Units=GPa)
#
#
# Indices 1 2 3 4 5 6 
#
# 1 111.4378 52.4712 49.8416 0.0000 0.0000 0.0000
# 2 52.4712 111.4374 49.8417 0.0000 0.0000 0.0000
# 3 49.8416 49.8417 188.5427 0.0000 0.0000 0.0000
# 4 0.0000 0.0000 0.0000 28.5602 0.0000 0.0000
# 5 0.0000 0.0000 0.0000 0.0000 28.5613 0.0000
# 6 0.0000 0.0000 0.0000 0.0000 0.0000 51.7693
#
#
#
# Elastic Compliance Matrix: (Units=1/GPa)
#
#
# Indices 1 2 3 4 5 6 
#
# 1 0.012114 -0.004845 -0.001922 0.000000 0.000000 0.000000
# 2 -0.004845 0.012114 -0.001922 0.000000 0.000000 0.000000
# 3 -0.001922 -0.001922 0.006320 0.000000 0.000000 0.000000
# 4 0.000000 0.000000 0.000000 0.035014 0.000000 0.000000
# 5 0.000000 0.000000 0.000000 0.000000 0.035012 0.000000
# 6 0.000000 0.000000 0.000000 0.000000 0.000000 0.019316
#
#
# Mechanical properties :
#
#
# Convention : Reuss Voigt Hill
#
# Bulk Modulus (GPa) = 75.91725 79.52521 77.72123
# Shear Modulus (GPa) = 35.29630 39.06239 37.17934
#
# Velocity S-wave (km/s) = 3.77913 3.97563 3.87863
# Velocity P-wave (km/s) = 7.05411 7.29741 7.17679
#
# Compressibility (1/GPa) = 0.01317224
#
# Stress axis : x y z
#
# Youngs Moduli (GPa) = 82.54758 82.54721 158.23090
#
# Poissons Ratio (x) = 0.39990 0.30408
# Poissons Ratio (y) = 0.39991 0.30408
# Poissons Ratio (z) = 0.15864 0.15864
#
# Static dielectric constant tensor:
#      x y z
#    x 2.115340 0.000000 0.000000 
#    y 0.000000 2.115350 0.000000 
#    z 0.000000 0.000000 1.924010 
# 
# From -- ./inp_files/2198.got.cif
#   From: 2010.05.17/outbox.cif.g08.bks.cpg/sg120_2_cif.got.tgz:2198.got - 2010.05.20 11:28:13.
