data_PCOD9560699
_publ_section_title
;
Structure prediction by ZEFSAII (Michael W. Deem and Ramdas Pophale) SiO2 
 PCOD9560699
Probable space group: I -4 2 D
;
_chemical_formula_sum "Si O2"
_cell_formula_units_Z 128
_cell_length_a 19.738448
_cell_length_b 19.738448
_cell_length_c 15.932261
_cell_angle_alpha 90.000000
_cell_angle_beta 90.000000
_cell_angle_gamma 90.000000
_cell_volume 6207.309728
_symmetry_space_group_name_H-M "I -4 2 D"
_symmetry_group_IT_number 122
_symmetry_cell_setting 'tetragonal'
loop_
_space_group_symop_operation_xyz
x,y,z
y,-x,-z
-x,-y,z
-y,x,-z
x,1/2-y,1/4-z
-x,1/2+y,1/4-z
-y,1/2-x,1/4+z
y,1/2+x,1/4+z
1/2+x,1/2+y,1/2+z
1/2+y,1/2-x,1/2-z
1/2-x,1/2-y,1/2+z
1/2-y,1/2+x,1/2-z
1/2+x,-y,3/4-z
1/2-x,y,3/4-z
1/2-y,-x,3/4+z
1/2+y,x,3/4+z
loop_
_atom_site_type_symbol
_atom_site_label
_atom_site_fract_x
_atom_site_fract_y
_atom_site_fract_z
Si Si1 0.387928 0.878166 0.070142
Si Si2 0.992573 0.616488 0.038764
Si Si3 0.605249 0.884516 0.847546
Si Si4 0.219767 0.911679 0.233115
Si Si5 0.381499 0.058592 0.663539
Si Si6 0.093583 0.545243 0.917066
Si Si7 0.864909 0.120159 0.483253
Si Si8 0.428301 0.737704 0.287085
O O1 0.467881 0.894489 0.058087
O O2 0.374966 0.886259 0.167371
O O3 0.346197 0.933057 0.014731
O O4 0.386838 0.801255 0.036623
O O5 0.947325 0.582907 0.111954
O O6 0.058564 0.639215 0.091623
O O7 0.028432 0.572668 0.965341
O O8 0.614527 0.811757 0.894381
O O9 0.624695 0.905692 0.753570
O O10 0.522881 0.888936 0.841205
O O11 0.156294 0.912715 0.295157
O O12 0.283902 0.875062 0.272028
O O13 0.242054 0.990917 0.228372
O O14 0.313882 0.078146 0.613810
O O15 0.100673 0.558958 0.818490
O O16 0.900038 0.188062 0.450780
#
# Coordination Sequence:
#
# PCOD9560699 Si02
#       8
#    16  16  16  16  16  16  16  16
#     4  10  21  36  56  85 121 146 184 244 296 345
#     4  10  19  32  52  95 131 143 172 236 294 349
#     4  10  17  30  60  93 124 153 182 227 298 369
#     4   9  21  39  56  83 118 152 198 246 285 343
#     4  10  17  30  60  93 124 153 182 227 298 369
#     4  10  21  36  56  85 121 146 184 244 296 345
#     4  12  22  34  61  74 102 168 212 232 278 349
#     4   9  21  39  56  83 118 152 198 246 285 343
#
# _framework density 20.620849
#
# number of rings (size 3 to 8) (size 9 to 14) (size 15 to 20)
#    0.000    2.000    1.250    5.250    3.500    2.000 
#    0.000    0.000   11.000    6.000    0.000    0.000 
#    0.000    0.000    0.000    0.000    0.000    0.000 
#
# Total GULP energy -356349.565075 kJ/mol
# GULP energy per Si atom -5567.961954 kJ/mol
# Density = 2.057392 g / cm^3
# Si number density = 20.620849 Si / 1000 Ang^3
#
#
#
# Elastic Constant Matrix: (Units=GPa)
#
#
# Indices 1 2 3 4 5 6 
#
# 1 34.9696 17.2202 4.4967 0.0000 0.0000 0.0000
# 2 17.2202 34.9696 4.4967 0.0000 0.0000 0.0000
# 3 4.4967 4.4967 92.9541 0.0000 0.0000 0.0000
# 4 0.0000 0.0000 0.0000 16.3556 0.0000 0.0000
# 5 0.0000 0.0000 0.0000 0.0000 16.3556 0.0000
# 6 0.0000 0.0000 0.0000 0.0000 0.0000 15.8939
#
#
#
# Elastic Compliance Matrix: (Units=1/GPa)
#
#
# Indices 1 2 3 4 5 6 
#
# 1 0.037831 -0.018509 -0.000935 0.000000 0.000000 0.000000
# 2 -0.018509 0.037831 -0.000935 0.000000 0.000000 0.000000
# 3 -0.000935 -0.000935 0.010848 0.000000 0.000000 0.000000
# 4 0.000000 0.000000 0.000000 0.061141 0.000000 0.000000
# 5 0.000000 0.000000 0.000000 0.000000 0.061141 0.000000
# 6 0.000000 0.000000 0.000000 0.000000 0.000000 0.062917
#
#
# Mechanical properties :
#
#
# Convention : Reuss Voigt Hill
#
# Bulk Modulus (GPa) = 21.85627 23.92448 22.89037
# Shear Modulus (GPa) = 15.25704 18.83300 17.04502
#
# Velocity S-wave (km/s) = 2.72303 3.02536 2.87817
# Velocity P-wave (km/s) = 4.52865 4.88170 4.70849
#
# Compressibility (1/GPa) = 0.04575346
#
# Stress axis : x y z
#
# Youngs Moduli (GPa) = 26.43347 26.43347 92.17924
#
# Poissons Ratio (x) = 0.48925 0.08616
# Poissons Ratio (y) = 0.48925 0.08616
# Poissons Ratio (z) = 0.02471 0.02471
#
# Static dielectric constant tensor:
#      x y z
#    x 1.757960 0.000000 0.000000 
#    y 0.000000 1.757960 0.000000 
#    z 0.000000 0.000000 1.802140 
# 
# From -- ./inp_files/6515.got.cif
#   From: 2010.05.17/outbox.cif.g08.bks.cpg/sg122_4_cif.got.tgz:6515.got - 2010.05.20 11:37:33.
