data_PCOD9560380
_publ_section_title
;
Structure prediction by ZEFSAII (Michael W. Deem and Ramdas Pophale) SiO2 
 PCOD9560380
Probable space group: I -4 2 M
;
_chemical_formula_sum "Si O2"
_cell_formula_units_Z 96
_cell_length_a 13.614472
_cell_length_b 13.614472
_cell_length_c 28.016055
_cell_angle_alpha 90.000000
_cell_angle_beta 90.000000
_cell_angle_gamma 90.000000
_cell_volume 5192.883596
_symmetry_space_group_name_H-M "I -4 2 M"
_symmetry_group_IT_number 121
_symmetry_cell_setting 'tetragonal'
loop_
_space_group_symop_operation_xyz
x,y,z
y,-x,-z
-x,-y,z
-y,x,-z
x,-y,-z
-x,y,-z
-y,-x,z
y,x,z
1/2+x,1/2+y,1/2+z
1/2+y,1/2-x,1/2-z
1/2-x,1/2-y,1/2+z
1/2-y,1/2+x,1/2-z
1/2+x,1/2-y,1/2-z
1/2-x,1/2+y,1/2-z
1/2-y,1/2-x,1/2+z
1/2+y,1/2+x,1/2+z
loop_
_atom_site_type_symbol
_atom_site_label
_atom_site_fract_x
_atom_site_fract_y
_atom_site_fract_z
Si Si1 0.085007 0.085007 0.111491
Si Si2 0.619008 0.785399 0.858265
Si Si3 0.208757 0.951663 0.048219
Si Si4 0.438723 0.096612 0.951505
Si Si5 0.583332 0.416669 0.282434
Si Si6 0.805188 0.961172 0.708245
Si Si7 0.131060 0.412269 0.263812
O O1 0.112336 0.112336 0.165008
O O2 0.032814 0.178759 0.087357
O O3 0.000000 0.000000 0.108970
O O4 0.712613 0.712613 0.864259
O O5 0.576755 0.829242 0.907478
O O6 0.528910 0.728088 0.834524
O O7 0.642300 0.867704 0.817017
O O8 0.148698 0.851303 0.058294
O O9 0.324120 0.932082 0.040417
O O10 0.168808 0.000000 0.000000
O O11 0.500000 0.000000 0.935847
O O12 0.500000 0.128178 0.000000
O O13 0.500000 0.500000 0.288339
O O14 0.666917 0.466116 0.251375
O O15 0.900355 0.900355 0.695220
O O16 0.722304 0.890011 0.729560
O O17 0.030295 0.377142 0.239286
#
# Coordination Sequence:
#
# PCOD9560380 Si02
#       7
#     8  16  16  16   8  16  16
#     4   9  20  32  58  99 130 162 193 244 317 379
#     4  11  23  40  66  91 117 162 211 252 310 372
#     4  11  20  37  63  93 125 158 196 246 312 379
#     4  11  25  44  63  83 118 164 208 256 313 371
#     4   9  18  34  54  87 128 160 198 243 296 364
#     4  10  20  37  61  88 127 163 202 250 298 357
#     4   9  20  36  58  90 127 167 197 244 298 364
#
# _framework density 18.486839
#
# number of rings (size 3 to 8) (size 9 to 14) (size 15 to 20)
#    0.000    1.833    3.333    1.000    7.000    0.000 
#    0.000    1.667    1.833    0.000    0.000    0.000 
#    0.000    0.000    0.000    0.000    0.000    0.000 
#
# Total GULP energy -267212.577411 kJ/mol
# GULP energy per Si atom -5566.928696 kJ/mol
# Density = 1.844476 g / cm^3
# Si number density = 18.486839 Si / 1000 Ang^3
#
#
#
# Elastic Constant Matrix: (Units=GPa)
#
#
# Indices 1 2 3 4 5 6 
#
# 1 91.7229 60.5001 63.9313 0.0000 0.0000 0.0000
# 2 60.5001 91.7247 63.9306 0.0000 0.0000 0.0000
# 3 63.9313 63.9306 159.4937 0.0000 0.0000 0.0000
# 4 0.0000 0.0000 0.0000 29.0600 0.0000 0.0000
# 5 0.0000 0.0000 0.0000 0.0000 29.0602 0.0000
# 6 0.0000 0.0000 0.0000 0.0000 0.0000 14.4850
#
#
#
# Elastic Compliance Matrix: (Units=1/GPa)
#
#
# Indices 1 2 3 4 5 6 
#
# 1 0.020966 -0.011062 -0.003970 0.000000 0.000000 0.000000
# 2 -0.011062 0.020965 -0.003970 0.000000 0.000000 0.000000
# 3 -0.003970 -0.003970 0.009452 0.000000 0.000000 0.000000
# 4 0.000000 0.000000 0.000000 0.034412 0.000000 0.000000
# 5 0.000000 0.000000 0.000000 0.000000 0.034411 0.000000
# 6 0.000000 0.000000 0.000000 0.000000 0.000000 0.069037
#
#
# Mechanical properties :
#
#
# Convention : Reuss Voigt Hill
#
# Bulk Modulus (GPa) = 74.73482 79.96281 77.34881
# Shear Modulus (GPa) = 21.57912 24.82633 23.20272
#
# Velocity S-wave (km/s) = 3.42024 3.66856 3.54657
# Velocity P-wave (km/s) = 7.49073 7.82894 7.66170
#
# Compressibility (1/GPa) = 0.01338064
#
# Stress axis : x y z
#
# Youngs Moduli (GPa) = 47.69699 47.69860 105.79428
#
# Poissons Ratio (x) = 0.52762 0.42000
# Poissons Ratio (y) = 0.52761 0.41996
# Poissons Ratio (z) = 0.18936 0.18934
#
# Static dielectric constant tensor:
#      x y z
#    x 1.724530 0.000000 0.000000 
#    y 0.000000 1.724540 0.000000 
#    z 0.000000 0.000000 1.686930 
# 
# From -- ./inp_files/7152.got.cif
#   From: 2010.05.17/outbox.cif.g08.bks.cpg/sg121_4_cif.got.tgz:7152.got - 2010.05.20 11:32:06.
