data_PCOD9560348
_publ_section_title
;
Structure prediction by ZEFSAII (Michael W. Deem and Ramdas Pophale) SiO2 
 PCOD9560348
Probable space group: I -4 2 M
;
_chemical_formula_sum "Si O2"
_cell_formula_units_Z 96
_cell_length_a 23.144165
_cell_length_b 23.144165
_cell_length_c 8.462446
_cell_angle_alpha 90.000000
_cell_angle_beta 90.000000
_cell_angle_gamma 90.000000
_cell_volume 4532.929286
_symmetry_space_group_name_H-M "I -4 2 M"
_symmetry_group_IT_number 121
_symmetry_cell_setting 'tetragonal'
loop_
_space_group_symop_operation_xyz
x,y,z
y,-x,-z
-x,-y,z
-y,x,-z
x,-y,-z
-x,y,-z
-y,-x,z
y,x,z
1/2+x,1/2+y,1/2+z
1/2+y,1/2-x,1/2-z
1/2-x,1/2-y,1/2+z
1/2-y,1/2+x,1/2-z
1/2+x,1/2-y,1/2-z
1/2-x,1/2+y,1/2-z
1/2-y,1/2-x,1/2+z
1/2+y,1/2+x,1/2+z
loop_
_atom_site_type_symbol
_atom_site_label
_atom_site_fract_x
_atom_site_fract_y
_atom_site_fract_z
Si Si1 0.653831 0.246009 0.143534
Si Si2 0.825756 0.562998 0.421311
Si Si3 0.702678 0.383552 0.643842
Si Si4 0.073901 0.163359 0.188688
Si Si5 0.461423 0.632712 0.843597
Si Si6 0.660604 0.131581 0.362760
O O1 0.708093 0.291908 0.136081
O O2 0.600071 0.281357 0.220068
O O3 0.664882 0.190350 0.256676
O O4 0.636111 0.215803 0.978835
O O5 0.817961 0.500000 0.500000
O O6 0.766251 0.598469 0.399767
O O7 0.863724 0.602482 0.535127
O O8 0.845974 0.573145 0.241182
O O9 0.683454 0.316547 0.644189
O O10 0.669981 0.411052 0.493909
O O11 0.679451 0.411833 0.805131
O O12 0.109877 0.109877 0.258033
O O13 0.008120 0.148151 0.211562
O O14 0.428654 0.571347 0.836910
O O15 0.500000 0.638479 0.000000
#
# Coordination Sequence:
#
# PCOD9560348 Si02
#       6
#    16  16  16  16  16  16
#     4  10  20  36  59  96 141 177 219 283 340 407
#     4  11  23  44  70  98 139 177 214 273 332 398
#     4  10  22  40  64  93 128 179 230 272 336 406
#     4  10  20  36  57  83 119 167 224 280 340 393
#     4  11  24  39  56  82 120 171 237 294 335 379
#     4  10  23  39  64 102 130 174 225 263 334 420
#
# _framework density 21.178357999999999
#
# number of rings (size 3 to 8) (size 9 to 14) (size 15 to 20)
#    0.000    1.667    1.667    2.500    2.333    4.500 
#    0.000    4.167    0.000    7.500    0.000    0.000 
#    0.000    0.000    0.000    0.000    0.000    0.000 
#
# Total GULP energy -267412.049211 kJ/mol
# GULP energy per Si atom -5571.084359 kJ/mol
# Density = 2.113015 g / cm^3
# Si number density = 21.178358 Si / 1000 Ang^3
#
#
#
# Elastic Constant Matrix: (Units=GPa)
#
#
# Indices 1 2 3 4 5 6 
#
# 1 42.0269 51.0321 49.7378 0.0000 0.0000 0.0000
# 2 51.0321 42.0282 49.7421 0.0000 0.0000 0.0000
# 3 49.7378 49.7421 88.8940 0.0000 0.0000 0.0000
# 4 0.0000 0.0000 0.0000 8.4867 0.0000 0.0000
# 5 0.0000 0.0000 0.0000 0.0000 8.4845 0.0000
# 6 0.0000 0.0000 0.0000 0.0000 0.0000 24.7648
#
#
#
# Elastic Compliance Matrix: (Units=1/GPa)
#
#
# Indices 1 2 3 4 5 6 
#
# 1 -0.042152 0.068898 -0.014968 0.000000 0.000000 0.000000
# 2 0.068898 -0.042162 -0.014957 0.000000 0.000000 0.000000
# 3 -0.014968 -0.014957 0.027994 0.000000 0.000000 0.000000
# 4 0.000000 0.000000 0.000000 0.117831 0.000000 0.000000
# 5 0.000000 0.000000 0.000000 0.000000 0.117862 0.000000
# 6 0.000000 0.000000 0.000000 0.000000 0.000000 0.040380
#
#
# Mechanical properties :
#
#
# Convention : Reuss Voigt Hill
#
# Bulk Modulus (GPa) = 46.24310 52.66368 49.45339
# Shear Modulus (GPa) = 33.55359 9.84300 21.69829
#
# Velocity S-wave (km/s) = 3.98469 2.15818 3.20433
# Velocity P-wave (km/s) = 6.56146 5.57952 6.09031
#
# Compressibility (1/GPa) = 0.02162485
#
# Stress axis : x y z
#
# Youngs Moduli (GPa) = -23.72375 -23.71788 35.72241
#
# Poissons Ratio (x) = 1.63411 0.53470
# Poissons Ratio (y) = 1.63451 0.53430
# Poissons Ratio (z) = -0.35510 -0.35475
#
# Static dielectric constant tensor:
#      x y z
#    x 1.914940 0.000000 0.000000 
#    y 0.000000 1.914950 0.000000 
#    z 0.000000 0.000000 1.882370 
# 
# From -- ./inp_files/1968.got.cif
#   From: 2010.05.17/outbox.cif.g08.bks.cpg/sg121_1_cif.got.tgz:1968.got - 2010.05.20 11:32:06.
