data_PCOD9560611
_publ_section_title
;
Structure prediction by ZEFSAII (Michael W. Deem and Ramdas Pophale) SiO2 
 PCOD9560611
Probable space group: I -4 2 M
;
_chemical_formula_sum "Si O2"
_cell_formula_units_Z 48
_cell_length_a 18.700054
_cell_length_b 18.700054
_cell_length_c 7.298028
_cell_angle_alpha 90.000000
_cell_angle_beta 90.000000
_cell_angle_gamma 90.000000
_cell_volume 2552.062150
_symmetry_space_group_name_H-M "I -4 2 M"
_symmetry_group_IT_number 121
_symmetry_cell_setting 'tetragonal'
loop_
_space_group_symop_operation_xyz
x,y,z
y,-x,-z
-x,-y,z
-y,x,-z
x,-y,-z
-x,y,-z
-y,-x,z
y,x,z
1/2+x,1/2+y,1/2+z
1/2+y,1/2-x,1/2-z
1/2-x,1/2-y,1/2+z
1/2-y,1/2+x,1/2-z
1/2+x,1/2-y,1/2-z
1/2-x,1/2+y,1/2-z
1/2-y,1/2-x,1/2+z
1/2+y,1/2+x,1/2+z
loop_
_atom_site_type_symbol
_atom_site_label
_atom_site_fract_x
_atom_site_fract_y
_atom_site_fract_z
Si Si1 0.212865 0.423365 0.044737
Si Si2 0.928676 0.812666 0.883081
Si Si3 0.660237 0.776416 0.675409
O O1 0.276310 0.440496 0.186664
O O2 0.166735 0.360921 0.140608
O O3 0.177627 0.500000 0.000000
O O4 0.237890 0.385357 0.857624
O O5 0.885698 0.885698 0.861447
O O6 0.878997 0.759693 0.003855
O O7 0.000000 0.822190 0.000000
O O8 0.737618 0.737618 0.693326
#
# Coordination Sequence:
#
# PCOD9560611 Si02
#       3
#    16  16  16
#     4  12  23  38  65  98 130 164 214 277 328 379
#     4  11  23  40  63  92 129 171 217 271 329 390
#     4  11  22  39  64  93 125 170 225 270 314 381
#
# _framework density 18.808320999999999
#
# number of rings (size 3 to 8) (size 9 to 14) (size 15 to 20)
#    0.000    0.667    6.667    3.000    0.000    0.333 
#    0.000    0.000    0.000    8.000    0.000    0.000 
#    0.000    0.000    0.000    0.000    0.000    0.000 
#
# Total GULP energy -134013.458180 kJ/mol
# GULP energy per Si atom -5583.894091 kJ/mol
# Density = 1.876551 g / cm^3
# Si number density = 18.808321 Si / 1000 Ang^3
#
#
#
# Elastic Constant Matrix: (Units=GPa)
#
#
# Indices 1 2 3 4 5 6 
#
# 1 103.0787 38.9651 23.6038 0.0000 0.0000 0.0000
# 2 38.9651 103.0787 23.6038 0.0000 0.0000 0.0000
# 3 23.6038 23.6038 118.2741 0.0000 0.0000 0.0000
# 4 0.0000 0.0000 0.0000 25.5301 0.0000 0.0000
# 5 0.0000 0.0000 0.0000 0.0000 25.5301 0.0000
# 6 0.0000 0.0000 0.0000 0.0000 0.0000 18.1937
#
#
#
# Elastic Compliance Matrix: (Units=1/GPa)
#
#
# Indices 1 2 3 4 5 6 
#
# 1 0.011569 -0.004029 -0.001505 0.000000 0.000000 0.000000
# 2 -0.004029 0.011569 -0.001505 0.000000 0.000000 0.000000
# 3 -0.001505 -0.001505 0.009056 0.000000 0.000000 0.000000
# 4 0.000000 0.000000 0.000000 0.039169 0.000000 0.000000
# 5 0.000000 0.000000 0.000000 0.000000 0.039169 0.000000
# 6 0.000000 0.000000 0.000000 0.000000 0.000000 0.054964
#
#
# Mechanical properties :
#
#
# Convention : Reuss Voigt Hill
#
# Bulk Modulus (GPa) = 55.19739 55.19741 55.19740
# Shear Modulus (GPa) = 26.93805 29.73472 28.33639
#
# Velocity S-wave (km/s) = 3.78860 3.98041 3.88569
# Velocity P-wave (km/s) = 6.96771 7.10886 7.03864
#
# Compressibility (1/GPa) = 0.01811680
#
# Stress axis : x y z
#
# Youngs Moduli (GPa) = 86.43974 86.43974 110.42951
#
# Poissons Ratio (x) = 0.34823 0.16617
# Poissons Ratio (y) = 0.34823 0.16617
# Poissons Ratio (z) = 0.13007 0.13007
#
# Static dielectric constant tensor:
#      x y z
#    x 1.647450 0.000000 0.000000 
#    y 0.000000 1.647450 0.000000 
#    z 0.000000 0.000000 1.671350 
# 
# From -- ./inp_files/1153.got.cif
#   From: 2010.05.17/outbox.cif.g08.bks.cpg/sg121_1_cif.got.tgz:1153.got - 2010.05.20 11:32:06.
