data_PCOD9560465
_publ_section_title
;
Structure prediction by ZEFSAII (Michael W. Deem and Ramdas Pophale) SiO2 
 PCOD9560465
Probable space group: I -4 2 M
;
_chemical_formula_sum "Si O2"
_cell_formula_units_Z 96
_cell_length_a 14.941779
_cell_length_b 14.941779
_cell_length_c 20.402307
_cell_angle_alpha 90.000000
_cell_angle_beta 90.000000
_cell_angle_gamma 90.000000
_cell_volume 4554.952951
_symmetry_space_group_name_H-M "I -4 2 M"
_symmetry_group_IT_number 121
_symmetry_cell_setting 'tetragonal'
loop_
_space_group_symop_operation_xyz
x,y,z
y,-x,-z
-x,-y,z
-y,x,-z
x,-y,-z
-x,y,-z
-y,-x,z
y,x,z
1/2+x,1/2+y,1/2+z
1/2+y,1/2-x,1/2-z
1/2-x,1/2-y,1/2+z
1/2-y,1/2+x,1/2-z
1/2+x,1/2-y,1/2-z
1/2-x,1/2+y,1/2-z
1/2-y,1/2-x,1/2+z
1/2+y,1/2+x,1/2+z
loop_
_atom_site_type_symbol
_atom_site_label
_atom_site_fract_x
_atom_site_fract_y
_atom_site_fract_z
Si Si1 0.472919 0.827581 0.641776
Si Si2 0.117591 0.431447 0.060343
Si Si3 0.395818 0.247600 0.483958
Si Si4 0.322763 0.185775 0.265103
Si Si5 0.682469 0.541327 0.736601
Si Si6 0.728628 0.409082 0.850740
O O1 0.535433 0.903442 0.609216
O O2 0.402334 0.795756 0.587576
O O3 0.411775 0.854180 0.703030
O O4 0.518607 0.736796 0.670092
O O5 0.206000 0.461131 0.100120
O O6 0.098779 0.500000 0.000000
O O7 0.136432 0.333280 0.029935
O O8 0.500000 0.268091 0.500000
O O9 0.331964 0.331964 0.488286
O O10 0.280165 0.280165 0.290203
O O11 0.246302 0.113817 0.270558
O O12 0.344040 0.204129 0.189103
O O13 0.587241 0.587241 0.724252
O O14 0.683731 0.463286 0.790546
O O15 0.651711 0.348290 0.882965
#
# Coordination Sequence:
#
# PCOD9560465 Si02
#       6
#    16  16  16  16  16  16
#     4  10  21  38  60  91 126 161 198 262 318 376
#     4  11  24  42  62  89 129 175 223 261 307 368
#     4  10  23  41  63  90 124 168 215 262 314 378
#     4   9  18  36  63  92 120 154 199 250 320 394
#     4  10  21  39  66  95 120 157 201 256 328 388
#     4  10  21  40  64  91 126 165 210 262 317 378
#
# _framework density 21.075958
#
# number of rings (size 3 to 8) (size 9 to 14) (size 15 to 20)
#    0.000    2.000    1.667    1.000    2.333    6.833 
#    0.000    0.833    0.000    0.000    0.000    0.000 
#    0.000    0.000    0.000    0.000    0.000    0.000 
#
# Total GULP energy -267282.242351 kJ/mol
# GULP energy per Si atom -5568.380049 kJ/mol
# Density = 2.102799 g / cm^3
# Si number density = 21.075958 Si / 1000 Ang^3
#
#
#
# Elastic Constant Matrix: (Units=GPa)
#
#
# Indices 1 2 3 4 5 6 
#
# 1 47.8091 36.3653 18.5644 0.0000 0.0000 0.0000
# 2 36.3653 47.8077 18.5633 0.0000 0.0000 0.0000
# 3 18.5644 18.5633 70.4582 0.0000 0.0000 0.0000
# 4 0.0000 0.0000 0.0000 29.3755 0.0000 0.0000
# 5 0.0000 0.0000 0.0000 0.0000 29.3754 0.0000
# 6 0.0000 0.0000 0.0000 0.0000 0.0000 23.4542
#
#
#
# Elastic Compliance Matrix: (Units=1/GPa)
#
#
# Indices 1 2 3 4 5 6 
#
# 1 0.050415 -0.036973 -0.003542 0.000000 0.000000 0.000000
# 2 -0.036973 0.050416 -0.003541 0.000000 0.000000 0.000000
# 3 -0.003542 -0.003541 0.016059 0.000000 0.000000 0.000000
# 4 0.000000 0.000000 0.000000 0.034042 0.000000 0.000000
# 5 0.000000 0.000000 0.000000 0.000000 0.034042 0.000000
# 6 0.000000 0.000000 0.000000 0.000000 0.000000 0.042636
#
#
# Mechanical properties :
#
#
# Convention : Reuss Voigt Hill
#
# Bulk Modulus (GPa) = 34.74992 34.78456 34.76724
# Shear Modulus (GPa) = 15.36968 22.61314 18.99141
#
# Velocity S-wave (km/s) = 2.70340 3.27912 3.00508
# Velocity P-wave (km/s) = 5.12525 5.55671 5.34534
#
# Compressibility (1/GPa) = 0.02877704
#
# Stress axis : x y z
#
# Youngs Moduli (GPa) = 19.83539 19.83497 62.26991
#
# Poissons Ratio (x) = 0.73336 0.22058
# Poissons Ratio (y) = 0.73338 0.22051
# Poissons Ratio (z) = 0.07026 0.07024
#
# Static dielectric constant tensor:
#      x y z
#    x 1.833150 0.000000 0.000000 
#    y 0.000000 1.833150 0.000000 
#    z 0.000000 0.000000 1.864500 
# 
# From -- ./inp_files/6437.got.cif
#   From: 2010.05.17/outbox.cif.g08.bks.cpg/sg121_4_cif.got.tgz:6437.got - 2010.05.20 11:32:06.
