data_PCOD9560224
_publ_section_title
;
Structure prediction by ZEFSAII (Michael W. Deem and Ramdas Pophale) SiO2 
 PCOD9560224
Probable space group: I -4 2 M
;
_chemical_formula_sum "Si O2"
_cell_formula_units_Z 112
_cell_length_a 17.481208
_cell_length_b 17.481208
_cell_length_c 21.510251
_cell_angle_alpha 90.000000
_cell_angle_beta 90.000000
_cell_angle_gamma 90.000000
_cell_volume 6573.374243
_symmetry_space_group_name_H-M "I -4 2 M"
_symmetry_group_IT_number 121
_symmetry_cell_setting 'tetragonal'
loop_
_space_group_symop_operation_xyz
x,y,z
y,-x,-z
-x,-y,z
-y,x,-z
x,-y,-z
-x,y,-z
-y,-x,z
y,x,z
1/2+x,1/2+y,1/2+z
1/2+y,1/2-x,1/2-z
1/2-x,1/2-y,1/2+z
1/2-y,1/2+x,1/2-z
1/2+x,1/2-y,1/2-z
1/2-x,1/2+y,1/2-z
1/2-y,1/2-x,1/2+z
1/2+y,1/2+x,1/2+z
loop_
_atom_site_type_symbol
_atom_site_label
_atom_site_fract_x
_atom_site_fract_y
_atom_site_fract_z
Si Si1 0.784358 0.089085 0.764342
Si Si2 0.209664 0.081959 0.968538
Si Si3 0.708697 0.417315 0.115448
Si Si4 0.421719 0.704881 0.680349
Si Si5 0.298123 0.832348 0.517012
Si Si6 0.092780 0.222633 0.599831
Si Si7 0.162475 0.707102 0.279949
O O1 0.852719 0.147282 0.781813
O O2 0.781600 0.086086 0.689513
O O3 0.703799 0.125804 0.785584
O O4 0.800391 0.006474 0.792477
O O5 0.139705 0.139705 0.984714
O O6 0.212089 0.076387 0.893705
O O7 0.289734 0.121344 0.987954
O O8 0.199131 0.000000 0.000000
O O9 0.635414 0.364587 0.099229
O O10 0.780390 0.380769 0.078850
O O11 0.698672 0.504918 0.096067
O O12 0.369683 0.630318 0.695622
O O13 0.380290 0.775431 0.715371
O O14 0.237455 0.762546 0.519080
O O15 0.275101 0.882896 0.458026
O O16 0.149496 0.149496 0.600383
O O17 0.108153 0.269675 0.663178
O O18 0.232364 0.767637 0.281904
#
# Coordination Sequence:
#
# PCOD9560224 Si02
#       7
#    16  16  16  16  16  16  16
#     4  10  20  32  53  80 107 144 184 221 266 326
#     4  10  22  38  58  81 107 141 181 227 277 329
#     4  10  19  33  53  81 112 144 181 219 267 322
#     4  10  20  36  55  80 112 141 175 225 279 323
#     4   9  19  35  54  77 106 142 184 221 260 316
#     4  10  19  32  53  81 110 143 179 222 267 316
#     4   9  18  33  52  77 108 141 184 225 262 314
#
# _framework density 17.038435
#
# number of rings (size 3 to 8) (size 9 to 14) (size 15 to 20)
#    0.000    2.286    1.429    1.286    2.000    4.714 
#    0.000    2.857    0.000    4.714    0.000    0.000 
#    0.000    0.000    0.000    0.000    0.000    0.000 
#
# Total GULP energy -312195.338782 kJ/mol
# GULP energy per Si atom -5574.916764 kJ/mol
# Density = 1.699965 g / cm^3
# Si number density = 17.038435 Si / 1000 Ang^3
#
#
#
# Elastic Constant Matrix: (Units=GPa)
#
#
# Indices 1 2 3 4 5 6 
#
# 1 67.5700 77.2567 26.6916 0.0000 0.0000 0.0000
# 2 77.2567 67.5694 26.6865 0.0000 0.0000 0.0000
# 3 26.6916 26.6865 41.3786 0.0000 0.0000 0.0000
# 4 0.0000 0.0000 0.0000 19.6820 0.0000 0.0000
# 5 0.0000 0.0000 0.0000 0.0000 19.6819 0.0000
# 6 0.0000 0.0000 0.0000 0.0000 0.0000 18.3566
#
#
#
# Elastic Compliance Matrix: (Units=1/GPa)
#
#
# Indices 1 2 3 4 5 6 
#
# 1 -0.047089 0.056145 -0.005834 0.000000 0.000000 0.000000
# 2 0.056145 -0.047084 -0.005851 0.000000 0.000000 0.000000
# 3 -0.005834 -0.005851 0.031704 0.000000 0.000000 0.000000
# 4 0.000000 0.000000 0.000000 0.050808 0.000000 0.000000
# 5 0.000000 0.000000 0.000000 0.000000 0.050808 0.000000
# 6 0.000000 0.000000 0.000000 0.000000 0.000000 0.054476
#
#
# Mechanical properties :
#
#
# Convention : Reuss Voigt Hill
#
# Bulk Modulus (GPa) = 37.80685 48.64307 43.22496
# Shear Modulus (GPa) = 369.79860 14.60298 192.20079
#
# Velocity S-wave (km/s) = 14.74819 2.93074 10.63246
# Velocity P-wave (km/s) = 17.67058 6.32956 13.27239
#
# Compressibility (1/GPa) = 0.02645023
#
# Stress axis : x y z
#
# Youngs Moduli (GPa) = -21.23630 -21.23883 31.54197
#
# Poissons Ratio (x) = 1.19244 0.18402
# Poissons Ratio (y) = 1.19230 0.18454
# Poissons Ratio (z) = -0.12390 -0.12426
#
# Static dielectric constant tensor:
#      x y z
#    x 1.566830 0.000000 0.000000 
#    y 0.000000 1.566830 0.000000 
#    z 0.000000 0.000000 1.592280 
# 
# From -- ./inp_files/6608.got.cif
#   From: 2010.05.17/outbox.cif.g08.bks.cpg/sg121_4_cif.got.tgz:6608.got - 2010.05.20 11:32:06.
