data_PCOD9560386
_publ_section_title
;
Structure prediction by ZEFSAII (Michael W. Deem and Ramdas Pophale) SiO2 
 PCOD9560386
Probable space group: I -4 2 M
;
_chemical_formula_sum "Si O2"
_cell_formula_units_Z 32
_cell_length_a 10.234266
_cell_length_b 10.234266
_cell_length_c 13.063591
_cell_angle_alpha 90.000000
_cell_angle_beta 90.000000
_cell_angle_gamma 90.000000
_cell_volume 1368.283141
_symmetry_space_group_name_H-M "I -4 2 M"
_symmetry_group_IT_number 121
_symmetry_cell_setting 'tetragonal'
loop_
_space_group_symop_operation_xyz
x,y,z
y,-x,-z
-x,-y,z
-y,x,-z
x,-y,-z
-x,y,-z
-y,-x,z
y,x,z
1/2+x,1/2+y,1/2+z
1/2+y,1/2-x,1/2-z
1/2-x,1/2-y,1/2+z
1/2-y,1/2+x,1/2-z
1/2+x,1/2-y,1/2-z
1/2-x,1/2+y,1/2-z
1/2-y,1/2-x,1/2+z
1/2+y,1/2+x,1/2+z
loop_
_atom_site_type_symbol
_atom_site_label
_atom_site_fract_x
_atom_site_fract_y
_atom_site_fract_z
Si Si1 0.507843 0.285382 0.805678
Si Si2 0.822550 0.396109 0.589004
O O1 0.636133 0.363868 0.840707
O O2 0.391669 0.391669 0.795273
O O3 0.537388 0.224562 0.695204
O O4 0.456648 0.176804 0.882812
O O5 0.829660 0.500000 0.500000
O O6 0.713743 0.286258 0.563930
#
# Coordination Sequence:
#
# PCOD9560386 Si02
#       2
#    16  16
#     4   9  19  37  62  97 140 178 218 276 339 395
#     4  10  20  37  67 101 131 172 226 278 331 397
#
# _framework density 23.386972
#
# number of rings (size 3 to 8) (size 9 to 14) (size 15 to 20)
#    0.000    2.500    0.000    1.500    0.000    3.500 
#    0.000    5.000    0.000   21.000    0.000   31.500 
#    0.000    0.000    0.000    0.000    0.000    0.000 
#
# Total GULP energy -89732.232457 kJ/mol
# GULP energy per Si atom -5608.264529 kJ/mol
# Density = 2.333374 g / cm^3
# Si number density = 23.386972 Si / 1000 Ang^3
#
#
#
# Elastic Constant Matrix: (Units=GPa)
#
#
# Indices 1 2 3 4 5 6 
#
# 1 139.0854 87.4995 112.3540 0.0000 0.0000 0.0000
# 2 87.4995 139.0887 112.3536 0.0000 0.0000 0.0000
# 3 112.3540 112.3536 142.2334 0.0000 0.0000 0.0000
# 4 0.0000 0.0000 0.0000 49.1357 0.0000 0.0000
# 5 0.0000 0.0000 0.0000 0.0000 49.1355 0.0000
# 6 0.0000 0.0000 0.0000 0.0000 0.0000 17.8826
#
#
#
# Elastic Compliance Matrix: (Units=1/GPa)
#
#
# Indices 1 2 3 4 5 6 
#
# 1 0.019880 0.000494 -0.016094 0.000000 0.000000 0.000000
# 2 0.000494 0.019878 -0.016093 0.000000 0.000000 0.000000
# 3 -0.016094 -0.016093 0.032456 0.000000 0.000000 0.000000
# 4 0.000000 0.000000 0.000000 0.020352 0.000000 0.000000
# 5 0.000000 0.000000 0.000000 0.000000 0.020352 0.000000
# 6 0.000000 0.000000 0.000000 0.000000 0.000000 0.055920
#
#
# Mechanical properties :
#
#
# Convention : Reuss Voigt Hill
#
# Bulk Modulus (GPa) = 113.26467 116.09131 114.67799
# Shear Modulus (GPa) = 21.26173 30.44414 25.85293
#
# Velocity S-wave (km/s) = 3.01844 3.61190 3.32843
# Velocity P-wave (km/s) = 7.78998 8.19399 7.99454
#
# Compressibility (1/GPa) = 0.00882888
#
# Stress axis : x y z
#
# Youngs Moduli (GPa) = 50.30291 50.30681 30.81137
#
# Poissons Ratio (x) = -0.02487 0.49587
# Poissons Ratio (y) = -0.02486 0.49583
# Poissons Ratio (z) = 0.80957 0.80957
#
# Static dielectric constant tensor:
#      x y z
#    x 1.879320 0.000000 0.000000 
#    y 0.000000 1.879320 0.000000 
#    z 0.000000 0.000000 1.802300 
# 
# From -- ./inp_files/2318.got.cif
#   From: 2010.05.17/outbox.cif.g08.bks.cpg/sg121_2_cif.got.tgz:2318.got - 2010.05.20 11:32:06.
