data_PCOD9560085
_publ_section_title
;
Structure prediction by ZEFSAII (Michael W. Deem and Ramdas Pophale) SiO2 
 PCOD9560085
Probable space group: I -4 2 M
;
_chemical_formula_sum "Si O2"
_cell_formula_units_Z 88
_cell_length_a 16.393218
_cell_length_b 16.393218
_cell_length_c 19.460265
_cell_angle_alpha 90.000000
_cell_angle_beta 90.000000
_cell_angle_gamma 90.000000
_cell_volume 5229.704841
_symmetry_space_group_name_H-M "I -4 2 M"
_symmetry_group_IT_number 121
_symmetry_cell_setting 'tetragonal'
loop_
_space_group_symop_operation_xyz
x,y,z
y,-x,-z
-x,-y,z
-y,x,-z
x,-y,-z
-x,y,-z
-y,-x,z
y,x,z
1/2+x,1/2+y,1/2+z
1/2+y,1/2-x,1/2-z
1/2-x,1/2-y,1/2+z
1/2-y,1/2+x,1/2-z
1/2+x,1/2-y,1/2-z
1/2-x,1/2+y,1/2-z
1/2-y,1/2-x,1/2+z
1/2+y,1/2+x,1/2+z
loop_
_atom_site_type_symbol
_atom_site_label
_atom_site_fract_x
_atom_site_fract_y
_atom_site_fract_z
Si Si1 0.341525 0.794054 0.573288
Si Si2 0.764365 0.901488 0.782431
Si Si3 0.000000 0.761204 0.000000
Si Si4 0.066214 0.201747 0.143884
Si Si5 0.338242 0.801482 0.854823
Si Si6 0.769061 0.905724 0.507689
O O1 0.285493 0.714508 0.555909
O O2 0.366710 0.786024 0.652424
O O3 0.422812 0.789678 0.527577
O O4 0.286183 0.870692 0.554178
O O5 0.843881 0.843881 0.776012
O O6 0.712796 0.891637 0.713092
O O7 0.791549 0.992094 0.802935
O O8 0.970269 0.810386 0.067125
O O9 0.130206 0.130206 0.159646
O O10 0.114627 0.287858 0.143446
O O11 0.267521 0.732480 0.853235
O O12 0.388446 0.783081 0.923459
O O13 0.849626 0.849626 0.511268
O O14 0.788051 0.000000 0.500000
#
# Coordination Sequence:
#
# PCOD9560085 Si02
#       6
#    16  16   8  16  16  16
#     4   9  17  31  50  74 104 139 173 213 267 323
#     4   9  19  33  52  78 111 142 176 219 264 322
#     4  10  16  28  53  79 104 134 178 224 262 327
#     4  10  19  32  55  80 109 145 181 220 275 337
#     4   9  18  35  54  74 102 143 183 217 262 323
#     4  10  20  35  56  77 101 133 177 229 278 324
#
# _framework density 16.826954000000001
#
# number of rings (size 3 to 8) (size 9 to 14) (size 15 to 20)
#    0.000    2.545    1.818    0.545    0.000    2.727 
#    0.000    3.182    0.000    9.545    0.000    0.000 
#    0.000    0.000    0.000    0.000    0.000    0.000 
#
# Total GULP energy -245182.327985 kJ/mol
# GULP energy per Si atom -5572.325636 kJ/mol
# Density = 1.678866 g / cm^3
# Si number density = 16.826954 Si / 1000 Ang^3
#
#
#
# Elastic Constant Matrix: (Units=GPa)
#
#
# Indices 1 2 3 4 5 6 
#
# 1 70.3248 56.5615 35.1176 0.0000 0.0000 0.0000
# 2 56.5615 70.3262 35.1214 0.0000 0.0000 0.0000
# 3 35.1176 35.1214 68.4659 0.0000 0.0000 0.0000
# 4 0.0000 0.0000 0.0000 19.6867 0.0000 0.0000
# 5 0.0000 0.0000 0.0000 0.0000 19.6869 0.0000
# 6 0.0000 0.0000 0.0000 0.0000 0.0000 10.8927
#
#
#
# Elastic Compliance Matrix: (Units=1/GPa)
#
#
# Indices 1 2 3 4 5 6 
#
# 1 0.041829 -0.030824 -0.005643 0.000000 0.000000 0.000000
# 2 -0.030824 0.041831 -0.005648 0.000000 0.000000 0.000000
# 3 -0.005643 -0.005648 0.020398 0.000000 0.000000 0.000000
# 4 0.000000 0.000000 0.000000 0.050796 0.000000 0.000000
# 5 0.000000 0.000000 0.000000 0.000000 0.050795 0.000000
# 6 0.000000 0.000000 0.000000 0.000000 0.000000 0.091805
#
#
# Mechanical properties :
#
#
# Convention : Reuss Voigt Hill
#
# Bulk Modulus (GPa) = 50.43485 51.41310 50.92397
# Shear Modulus (GPa) = 12.87689 15.54099 14.20894
#
# Velocity S-wave (km/s) = 2.76932 3.04234 2.90904
# Velocity P-wave (km/s) = 6.34533 6.55450 6.45076
#
# Compressibility (1/GPa) = 0.01982756
#
# Stress axis : x y z
#
# Youngs Moduli (GPa) = 23.90694 23.90576 49.02532
#
# Poissons Ratio (x) = 0.73686 0.27665
# Poissons Ratio (y) = 0.73690 0.27690
# Poissons Ratio (z) = 0.13491 0.13502
#
# Static dielectric constant tensor:
#      x y z
#    x 1.553920 0.000000 0.000000 
#    y 0.000000 1.553920 0.000000 
#    z 0.000000 0.000000 1.585510 
# 
# From -- ./inp_files/6333.got.cif
#   From: 2010.05.17/outbox.cif.g08.bks.cpg/sg121_4_cif.got.tgz:6333.got - 2010.05.20 11:32:06.
