data_PCOD9560965
_publ_section_title
;
Structure prediction by ZEFSAII (Michael W. Deem and Ramdas Pophale) SiO2 
 PCOD9560965
Probable space group: I -4 2 D
;
_chemical_formula_sum "Si O2"
_cell_formula_units_Z 28
_cell_length_a 9.529279
_cell_length_b 9.529279
_cell_length_c 12.767249
_cell_angle_alpha 90.000000
_cell_angle_beta 90.000000
_cell_angle_gamma 90.000000
_cell_volume 1159.357600
_symmetry_space_group_name_H-M "I -4 2 D"
_symmetry_group_IT_number 122
_symmetry_cell_setting 'tetragonal'
loop_
_space_group_symop_operation_xyz
x,y,z
y,-x,-z
-x,-y,z
-y,x,-z
x,1/2-y,1/4-z
-x,1/2+y,1/4-z
-y,1/2-x,1/4+z
y,1/2+x,1/4+z
1/2+x,1/2+y,1/2+z
1/2+y,1/2-x,1/2-z
1/2-x,1/2-y,1/2+z
1/2-y,1/2+x,1/2-z
1/2+x,-y,3/4-z
1/2-x,y,3/4-z
1/2-y,-x,3/4+z
1/2+y,x,3/4+z
loop_
_atom_site_type_symbol
_atom_site_label
_atom_site_fract_x
_atom_site_fract_y
_atom_site_fract_z
Si Si1 0.408745 0.204354 0.915226
Si Si2 0.000000 0.500000 0.599154
Si Si3 0.000000 0.500000 0.250000
O O1 0.250000 0.180589 0.875000
O O2 0.441209 0.367920 0.912233
O O3 0.505637 0.131722 0.826783
O O4 0.443973 0.124261 0.022222
#
# Coordination Sequence:
#
# PCOD9560965 Si02
#       3
#    16   8   4
#     4  11  23  43  71 102 133 182 232 285 338 418
#     4  11  26  43  73  98 141 178 232 285 348 409
#     4  10  20  44  68  96 126 184 222 270 340 416
#
# _framework density 24.151309000000001
#
# number of rings (size 3 to 8) (size 9 to 14) (size 15 to 20)
#    0.000    1.143    5.714    0.000    0.000    4.571 
#    0.000    0.000    0.000    0.000    0.000    0.000 
#    0.000    0.000    0.000    0.000    0.000    0.000 
#
# Total GULP energy -78448.401504 kJ/mol
# GULP energy per Si atom -5603.457250 kJ/mol
# Density = 2.409634 g / cm^3
# Si number density = 24.151309 Si / 1000 Ang^3
#
#
#
# Elastic Constant Matrix: (Units=GPa)
#
#
# Indices 1 2 3 4 5 6 
#
# 1 145.3866 19.0257 38.3970 0.0000 0.0000 0.0000
# 2 19.0257 145.3866 38.3970 0.0000 0.0000 0.0000
# 3 38.3970 38.3970 66.4027 0.0000 0.0000 0.0000
# 4 0.0000 0.0000 0.0000 27.4843 0.0000 0.0000
# 5 0.0000 0.0000 0.0000 0.0000 27.4843 0.0000
# 6 0.0000 0.0000 0.0000 0.0000 0.0000 41.9584
#
#
#
# Elastic Compliance Matrix: (Units=1/GPa)
#
#
# Indices 1 2 3 4 5 6 
#
# 1 0.008123 0.000210 -0.004818 0.000000 0.000000 0.000000
# 2 0.000210 0.008123 -0.004818 0.000000 0.000000 0.000000
# 3 -0.004818 -0.004818 0.020632 0.000000 0.000000 0.000000
# 4 0.000000 0.000000 0.000000 0.036384 0.000000 0.000000
# 5 0.000000 0.000000 0.000000 0.000000 0.036384 0.000000
# 6 0.000000 0.000000 0.000000 0.000000 0.000000 0.023833
#
#
# Mechanical properties :
#
#
# Convention : Reuss Voigt Hill
#
# Bulk Modulus (GPa) = 55.48129 60.97947 58.23038
# Shear Modulus (GPa) = 31.57691 36.80914 34.19302
#
# Velocity S-wave (km/s) = 3.61981 3.90821 3.76677
# Velocity P-wave (km/s) = 6.36340 6.75790 6.56362
#
# Compressibility (1/GPa) = 0.01802409
#
# Stress axis : x y z
#
# Youngs Moduli (GPa) = 123.10182 123.10182 48.46820
#
# Poissons Ratio (x) = -0.02579 0.23354
# Poissons Ratio (y) = -0.02579 0.23354
# Poissons Ratio (z) = 0.59316 0.59316
#
# Static dielectric constant tensor:
#      x y z
#    x 1.934230 0.000000 0.000000 
#    y 0.000000 1.934230 0.000000 
#    z 0.000000 0.000000 1.881080 
# 
# From -- ./inp_files/3278.got.cif
#   From: 2010.05.17/outbox.cif.g08.bks.cpg/sg122_2_cif.got.tgz:3278.got - 2010.05.20 11:37:33.
