data_PCOD9560677
_publ_section_title
;
Structure prediction by ZEFSAII (Michael W. Deem and Ramdas Pophale) SiO2 
 PCOD9560677
Probable space group: I -4 2 M
;
_chemical_formula_sum "Si O2"
_cell_formula_units_Z 42
_cell_length_a 24.000000
_cell_length_b 24.000000
_cell_length_c 9.000000
_cell_angle_alpha 90.000000
_cell_angle_beta 90.000000
_cell_angle_gamma 90.000000
_cell_volume 5184.000000
_symmetry_space_group_name_H-M "I -4 2 M"
_symmetry_group_IT_number 121
_symmetry_cell_setting 'tetragonal'
loop_
_space_group_symop_operation_xyz
x,y,z
y,-x,-z
-x,-y,z
-y,x,-z
x,-y,-z
-x,y,-z
-y,-x,z
y,x,z
1/2+x,1/2+y,1/2+z
1/2+y,1/2-x,1/2-z
1/2-x,1/2-y,1/2+z
1/2-y,1/2+x,1/2-z
1/2+x,1/2-y,1/2-z
1/2-x,1/2+y,1/2-z
1/2-y,1/2-x,1/2+z
1/2+y,1/2+x,1/2+z
loop_
_atom_site_type_symbol
_atom_site_label
_atom_site_fract_x
_atom_site_fract_y
_atom_site_fract_z
Si Si1 0.075312 0.324578 0.155484
Si Si2 0.239182 0.146888 0.687135
Si Si3 0.000000 0.500000 0.750000
Si Si4 0.207431 0.472906 0.165293
Si Si5 0.895561 0.429060 0.653451
Si Si6 0.682624 0.227033 0.480932
O O1 0.088239 0.366777 0.292706
O O2 0.022511 0.288287 0.211322
O O3 0.067171 0.363265 0.005614
O O4 0.127222 0.285593 0.112830
O O5 0.178024 0.178024 0.681576
O O6 0.249594 0.079883 0.676262
O O7 0.275982 0.175869 0.557533
O O8 0.265709 0.165988 0.846129
O O9 0.048960 0.532716 0.660552
O O10 0.147198 0.448488 0.216322
O O11 0.208219 0.500000 0.000000
O O12 0.717753 0.282248 0.437950
#
# Coordination Sequence:
#
# PCOD9560677 Si02
#       6
#    16  16   4  16  16  16
#     4  12  23  40  55  78 111 148 195 239 287 339
#     4  10  22  38  58  83 110 143 193 243 300 348
#     4  12  28  34  48  74 102 152 202 228 270 292
#     4  12  25  39  56  78 109 156 192 242 287 335
#     4  12  25  37  53  73 112 150 199 245 268 323
#     4  10  20  35  59  84 109 144 186 246 299 344
#
# _framework density 8.1018519999999992
#
# number of rings (size 3 to 8) (size 9 to 14) (size 15 to 20)
#    0.000    0.762    5.714    1.714    2.667    0.762 
#    0.000    0.000    0.000    0.000    0.000    0.000 
#    0.000    2.667    0.000    8.381    0.000    0.000 
#
# Total GULP energy -234513.750355 kJ/mol
# GULP energy per Si atom -5583.660723 kJ/mol
# Density = 0.808341 g / cm^3
# Si number density = 8.101852 Si / 1000 Ang^3
#
#
#
# Elastic Constant Matrix: (Units=GPa)
#
#
# Indices 1 2 3 4 5 6 
#
# 1 100.4777 54.6026 35.9942 0.0000 0.0000 0.0000
# 2 54.6026 100.4781 35.9947 0.0000 0.0000 0.0000
# 3 35.9942 35.9947 96.8730 0.0000 0.0000 0.0000
# 4 0.0000 0.0000 0.0000 25.7695 0.0000 0.0000
# 5 0.0000 0.0000 0.0000 0.0000 25.7693 0.0000
# 6 0.0000 0.0000 0.0000 0.0000 0.0000 43.4656
#
#
#
# Elastic Compliance Matrix: (Units=1/GPa)
#
#
# Indices 1 2 3 4 5 6 
#
# 1 0.014795 -0.007003 -0.002895 0.000000 0.000000 0.000000
# 2 -0.007003 0.014795 -0.002895 0.000000 0.000000 0.000000
# 3 -0.002895 -0.002895 0.012474 0.000000 0.000000 0.000000
# 4 0.000000 0.000000 0.000000 0.038806 0.000000 0.000000
# 5 0.000000 0.000000 0.000000 0.000000 0.038806 0.000000
# 6 0.000000 0.000000 0.000000 0.000000 0.000000 0.023007
#
#
# Mechanical properties :
#
#
# Convention : Reuss Voigt Hill
#
# Bulk Modulus (GPa) = 60.68827 61.22354 60.95591
# Shear Modulus (GPa) = 28.77485 30.41670 29.59577
#
# Velocity S-wave (km/s) = 4.21862 4.33730 4.27837
# Velocity P-wave (km/s) = 7.82711 7.93402 7.88074
#
# Compressibility (1/GPa) = 0.01647765
#
# Stress axis : x y z
#
# Youngs Moduli (GPa) = 67.58919 67.58928 80.16432
#
# Poissons Ratio (x) = 0.47333 0.23210
# Poissons Ratio (y) = 0.47333 0.23211
# Poissons Ratio (z) = 0.19569 0.19570
#
# Static dielectric constant tensor:
#      x y z
#    x 1.574390 0.000000 0.000000 
#    y 0.000000 1.574390 0.000000 
#    z 0.000000 0.000000 1.583090 
# 
# From -- ./inp_files/1870.got.cif
#   From: 2010.05.17/outbox.ucp.g08.bks.cvg/sg121_1_cif.got.tgz:1870.got - 2010.06.11 11:35:03.
