data_PCOD9560140
_publ_section_title
;
Structure prediction by ZEFSAII (Michael W. Deem and Ramdas Pophale) SiO2 
 PCOD9560140
Probable space group: I -4 2 M
;
_chemical_formula_sum "Si O2"
_cell_formula_units_Z 80
_cell_length_a 28.037581
_cell_length_b 28.037581
_cell_length_c 5.289734
_cell_angle_alpha 90.000000
_cell_angle_beta 90.000000
_cell_angle_gamma 90.000000
_cell_volume 4158.291362
_symmetry_space_group_name_H-M "I -4 2 M"
_symmetry_group_IT_number 121
_symmetry_cell_setting 'tetragonal'
loop_
_space_group_symop_operation_xyz
x,y,z
y,-x,-z
-x,-y,z
-y,x,-z
x,-y,-z
-x,y,-z
-y,-x,z
y,x,z
1/2+x,1/2+y,1/2+z
1/2+y,1/2-x,1/2-z
1/2-x,1/2-y,1/2+z
1/2-y,1/2+x,1/2-z
1/2+x,1/2-y,1/2-z
1/2-x,1/2+y,1/2-z
1/2-y,1/2-x,1/2+z
1/2+y,1/2+x,1/2+z
loop_
_atom_site_type_symbol
_atom_site_label
_atom_site_fract_x
_atom_site_fract_y
_atom_site_fract_z
Si Si1 0.675796 0.213019 0.113469
Si Si2 0.112447 0.192041 0.408713
Si Si3 0.389874 0.871611 0.676839
Si Si4 0.802532 0.472325 0.742471
Si Si5 0.450713 0.694871 0.598903
O O1 0.702912 0.211901 0.382228
O O2 0.643464 0.259225 0.060059
O O3 0.642357 0.165819 0.142151
O O4 0.149667 0.149667 0.364759
O O5 0.080975 0.178831 0.658618
O O6 0.081002 0.199067 0.154966
O O7 0.405131 0.894327 0.415403
O O8 0.420395 0.824919 0.728659
O O9 0.821711 0.500000 0.500000
O O10 0.746230 0.467475 0.703489
O O11 0.812767 0.500000 0.000000
O O12 0.500000 0.670117 0.500000
#
# Coordination Sequence:
#
# PCOD9560140 Si02
#       5
#    16  16  16  16  16
#     4  10  20  33  52  75 111 160 202 230 269 324
#     4  12  24  39  58  86 122 156 199 243 279 339
#     4  10  18  31  50  73 106 145 182 228 287 341
#     4  11  21  34  55  82 111 146 195 251 297 340
#     4  11  22  39  60  82 111 153 196 241 299 346
#
# _framework density 19.238671
#
# number of rings (size 3 to 8) (size 9 to 14) (size 15 to 20)
#    0.000    1.200    0.000   10.800    0.000    0.800 
#    0.000    0.000    0.000    0.000    0.000    0.000 
#    0.000   56.000    0.000    0.000    0.000    0.000 
#
# Total GULP energy -222952.989452 kJ/mol
# GULP energy per Si atom -5573.824736 kJ/mol
# Density = 1.919488 g / cm^3
# Si number density = 19.238671 Si / 1000 Ang^3
#
#
#
# Elastic Constant Matrix: (Units=GPa)
#
#
# Indices 1 2 3 4 5 6 
#
# 1 45.6466 24.2834 28.7052 0.0000 0.0000 0.0000
# 2 24.2834 45.6466 28.7052 0.0000 0.0000 0.0000
# 3 28.7052 28.7052 187.6424 0.0000 0.0000 0.0000
# 4 0.0000 0.0000 0.0000 24.9019 0.0000 0.0000
# 5 0.0000 0.0000 0.0000 0.0000 24.9019 0.0000
# 6 0.0000 0.0000 0.0000 0.0000 0.0000 15.9696
#
#
#
# Elastic Compliance Matrix: (Units=1/GPa)
#
#
# Indices 1 2 3 4 5 6 
#
# 1 0.031582 -0.015228 -0.002502 0.000000 0.000000 0.000000
# 2 -0.015228 0.031582 -0.002502 0.000000 0.000000 0.000000
# 3 -0.002502 -0.002502 0.006095 0.000000 0.000000 0.000000
# 4 0.000000 0.000000 0.000000 0.040158 0.000000 0.000000
# 5 0.000000 0.000000 0.000000 0.000000 0.040158 0.000000
# 6 0.000000 0.000000 0.000000 0.000000 0.000000 0.062619
#
#
# Mechanical properties :
#
#
# Convention : Reuss Voigt Hill
#
# Bulk Modulus (GPa) = 34.72779 49.14700 41.93740
# Shear Modulus (GPa) = 19.06553 26.30414 22.68484
#
# Velocity S-wave (km/s) = 3.15143 3.70165 3.43757
# Velocity P-wave (km/s) = 5.59752 6.62352 6.13202
#
# Compressibility (1/GPa) = 0.02879538
#
# Stress axis : x y z
#
# Youngs Moduli (GPa) = 31.66388 31.66388 164.07640
#
# Poissons Ratio (x) = 0.48217 0.41048
# Poissons Ratio (y) = 0.48217 0.41048
# Poissons Ratio (z) = 0.07922 0.07922
#
# Static dielectric constant tensor:
#      x y z
#    x 1.714430 0.000000 0.000000 
#    y 0.000000 1.714430 0.000000 
#    z 0.000000 0.000000 1.821880 
# 
# From -- ./inp_files/586.got.cif
#   From: 2010.05.17/outbox.cif.g08.bks.cpg/sg121_1_cif.got.tgz:586.got - 2010.05.20 11:32:06.
