data_PCOD9560077
_publ_section_title
;
Structure prediction by ZEFSAII (Michael W. Deem and Ramdas Pophale) SiO2 
 PCOD9560077
Probable space group: I -4 C 2
;
_chemical_formula_sum "Si O2"
_cell_formula_units_Z 56
_cell_length_a 15.000000
_cell_length_b 15.000000
_cell_length_c 24.000000
_cell_angle_alpha 90.000000
_cell_angle_beta 90.000000
_cell_angle_gamma 90.000000
_cell_volume 5400.000000
_symmetry_space_group_name_H-M "I -4 C 2"
_symmetry_group_IT_number 120
_symmetry_cell_setting 'tetragonal'
loop_
_space_group_symop_operation_xyz
x,y,z
y,-x,-z
-x,-y,z
-y,x,-z
y,x,1/2-z
-y,-x,1/2-z
-x,y,1/2+z
x,-y,1/2+z
1/2+x,1/2+y,1/2+z
1/2+y,1/2-x,1/2-z
1/2-x,1/2-y,1/2+z
1/2-y,1/2+x,1/2-z
1/2+y,1/2+x,-z
1/2-y,1/2-x,-z
1/2-x,1/2+y,z
1/2+x,1/2-y,z
loop_
_atom_site_type_symbol
_atom_site_label
_atom_site_fract_x
_atom_site_fract_y
_atom_site_fract_z
Si Si1 0.447766 0.083885 0.858047
Si Si2 0.245397 0.938848 0.316306
Si Si3 0.685671 0.389258 0.618468
Si Si4 0.219952 0.088559 0.107677
Si Si5 0.109296 0.900524 0.498799
Si Si6 0.600651 0.826926 0.297313
Si Si7 0.299906 0.628838 0.303176
O O1 0.348022 0.060584 0.837607
O O2 0.433653 0.174865 0.893140
O O3 0.515506 0.109993 0.807263
O O4 0.500000 0.000000 0.885009
O O5 0.181472 0.866912 0.344153
O O6 0.255348 0.925213 0.249766
O O7 0.199710 0.032427 0.330094
O O8 0.669772 0.496225 0.625694
O O9 0.660579 0.371321 0.554668
O O10 0.785695 0.381496 0.641469
O O11 0.201003 0.164647 0.153034
O O12 0.177366 0.115313 0.049046
O O13 0.006054 0.884607 0.516301
O O14 0.698313 0.861307 0.281143
O O15 0.362695 0.637306 0.250000
#
# Coordination Sequence:
#
# PCOD9560077 Si02
#       7
#    16  16  16  16  16  16  16
#     4  11  23  41  63  92 125 176 224 262 319 404
#     4  12  23  38  62  91 130 174 215 264 331 397
#     4  10  21  38  63  92 124 162 205 273 330 386
#     4  10  22  40  65  95 127 165 220 274 331 398
#     4   9  18  37  64  93 123 162 215 267 330 404
#     4  11  22  39  59  90 128 166 222 266 316 394
#     4  12  23  38  58  91 132 167 212 274 325 389
#
# _framework density 10.370369999999999
#
# number of rings (size 3 to 8) (size 9 to 14) (size 15 to 20)
#    0.000    1.286    1.429    6.429    0.000    1.714 
#    0.000    3.571    0.000    1.714    3.714    0.000 
#    0.000    0.000    0.000    0.000    0.000    0.000 
#
# Total GULP energy -312403.703404 kJ/mol
# GULP energy per Si atom -5578.637561 kJ/mol
# Density = 1.034677 g / cm^3
# Si number density = 10.370370 Si / 1000 Ang^3
#
#
#
# Elastic Constant Matrix: (Units=GPa)
#
#
# Indices 1 2 3 4 5 6 
#
# 1 90.1719 29.3876 25.9797 0.0000 0.0000 0.0000
# 2 29.3876 90.1725 25.9797 0.0000 0.0000 0.0000
# 3 25.9797 25.9797 80.5271 0.0000 0.0000 0.0000
# 4 0.0000 0.0000 0.0000 24.6011 0.0000 0.0000
# 5 0.0000 0.0000 0.0000 0.0000 24.6010 0.0000
# 6 0.0000 0.0000 0.0000 0.0000 0.0000 36.9386
#
#
#
# Elastic Compliance Matrix: (Units=1/GPa)
#
#
# Indices 1 2 3 4 5 6 
#
# 1 0.013090 -0.003362 -0.003138 0.000000 0.000000 0.000000
# 2 -0.003362 0.013090 -0.003138 0.000000 0.000000 0.000000
# 3 -0.003138 -0.003138 0.014443 0.000000 0.000000 0.000000
# 4 0.000000 0.000000 0.000000 0.040649 0.000000 0.000000
# 5 0.000000 0.000000 0.000000 0.000000 0.040649 0.000000
# 6 0.000000 0.000000 0.000000 0.000000 0.000000 0.027072
#
#
# Mechanical properties :
#
#
# Convention : Reuss Voigt Hill
#
# Bulk Modulus (GPa) = 46.84855 47.06283 46.95569
# Shear Modulus (GPa) = 28.50879 29.19643 28.85261
#
# Velocity S-wave (km/s) = 3.71149 3.75598 3.73380
# Velocity P-wave (km/s) = 6.40340 6.44594 6.42471
#
# Compressibility (1/GPa) = 0.02134538
#
# Stress axis : x y z
#
# Youngs Moduli (GPa) = 76.39546 76.39595 69.23653
#
# Poissons Ratio (x) = 0.25683 0.21730
# Poissons Ratio (y) = 0.25683 0.21729
# Poissons Ratio (z) = 0.23976 0.23976
#
# Static dielectric constant tensor:
#      x y z
#    x 1.784440 0.000000 0.000000 
#    y 0.000000 1.784440 0.000000 
#    z 0.000000 0.000000 1.726840 
# 
# From -- ./inp_files/5917.got.cif
#   From: 2010.05.17/outbox.ucp.g08.bks.cvg/sg120_3_cif.got.tgz:5917.got - 2010.06.11 11:34:49.
