data_PCOD9560117
_publ_section_title
;
Structure prediction by ZEFSAII (Michael W. Deem and Ramdas Pophale) SiO2 
 PCOD9560117
Probable space group: I -4 2 M
;
_chemical_formula_sum "Si O2"
_cell_formula_units_Z 88
_cell_length_a 12.978643
_cell_length_b 12.978643
_cell_length_c 28.083686
_cell_angle_alpha 90.000000
_cell_angle_beta 90.000000
_cell_angle_gamma 90.000000
_cell_volume 4730.561378
_symmetry_space_group_name_H-M "I -4 2 M"
_symmetry_group_IT_number 121
_symmetry_cell_setting 'tetragonal'
loop_
_space_group_symop_operation_xyz
x,y,z
y,-x,-z
-x,-y,z
-y,x,-z
x,-y,-z
-x,y,-z
-y,-x,z
y,x,z
1/2+x,1/2+y,1/2+z
1/2+y,1/2-x,1/2-z
1/2-x,1/2-y,1/2+z
1/2-y,1/2+x,1/2-z
1/2+x,1/2-y,1/2-z
1/2-x,1/2+y,1/2-z
1/2-y,1/2-x,1/2+z
1/2+y,1/2+x,1/2+z
loop_
_atom_site_type_symbol
_atom_site_label
_atom_site_fract_x
_atom_site_fract_y
_atom_site_fract_z
Si Si1 0.599872 0.224387 0.974064
Si Si2 0.500721 0.331124 0.415526
Si Si3 0.604616 0.219096 0.862479
Si Si4 0.742500 0.434361 0.318585
Si Si5 0.500000 0.829048 0.500000
Si Si6 0.499548 0.673497 0.219950
O O1 0.699724 0.300277 0.978687
O O2 0.578362 0.207015 0.917810
O O3 0.500000 0.271512 0.000000
O O4 0.616444 0.110926 0.996580
O O5 0.610349 0.389652 0.419987
O O6 0.413409 0.413409 0.427164
O O7 0.492005 0.295878 0.360957
O O8 0.497074 0.240289 0.452733
O O9 0.694752 0.305249 0.862002
O O10 0.654380 0.118685 0.838098
O O11 0.516796 0.262063 0.827886
O O12 0.655880 0.344121 0.315026
O O13 0.743011 0.485517 0.266912
O O14 0.402144 0.597857 0.215222
O O15 0.598404 0.598404 0.227063
#
# Coordination Sequence:
#
# PCOD9560117 Si02
#       6
#    16  16  16  16   8  16
#     4  11  24  42  64  88 118 161 207 251 301 355
#     4  10  18  28  50  84 119 153 192 239 291 354
#     4   9  18  35  57  80 110 150 190 235 296 350
#     4   9  16  30  51  78 112 148 184 232 292 352
#     4  12  21  37  58  86 120 157 198 240 303 364
#     4   9  17  30  53  82 109 142 190 241 284 338
#
# _framework density 18.602443999999998
#
# number of rings (size 3 to 8) (size 9 to 14) (size 15 to 20)
#    0.000    2.182    1.818    2.455    0.000    3.818 
#    0.000    3.636    0.000    4.364    0.000    0.000 
#    0.000    0.000    0.000    0.000    0.000    0.000 
#
# Total GULP energy -245266.217087 kJ/mol
# GULP energy per Si atom -5574.232207 kJ/mol
# Density = 1.856010 g / cm^3
# Si number density = 18.602444 Si / 1000 Ang^3
#
#
#
# Elastic Constant Matrix: (Units=GPa)
#
#
# Indices 1 2 3 4 5 6 
#
# 1 60.5968 20.6443 37.6197 0.0000 0.0000 0.0000
# 2 20.6443 60.5983 37.6184 0.0000 0.0000 0.0000
# 3 37.6197 37.6184 94.3715 0.0000 0.0000 0.0000
# 4 0.0000 0.0000 0.0000 397.3433 0.0000 0.0000
# 5 0.0000 0.0000 0.0000 0.0000 397.1286 0.0000
# 6 0.0000 0.0000 0.0000 0.0000 0.0000 6.9051
#
#
#
# Elastic Compliance Matrix: (Units=1/GPa)
#
#
# Indices 1 2 3 4 5 6 
#
# 1 0.022271 -0.002759 -0.007779 0.000000 0.000000 0.000000
# 2 -0.002759 0.022270 -0.007778 0.000000 0.000000 0.000000
# 3 -0.007779 -0.007778 0.016798 0.000000 0.000000 0.000000
# 4 0.000000 0.000000 0.000000 0.002517 0.000000 0.000000
# 5 0.000000 0.000000 0.000000 0.000000 0.002518 0.000000
# 6 0.000000 0.000000 0.000000 0.000000 0.000000 0.144821
#
#
# Mechanical properties :
#
#
# Convention : Reuss Voigt Hill
#
# Bulk Modulus (GPa) = 40.47011 45.25904 42.86457
# Shear Modulus (GPa) = 19.52660 168.25433 93.89047
#
# Velocity S-wave (km/s) = 3.24339 9.52070 7.11208
# Velocity P-wave (km/s) = 5.98570 12.05159 9.51497
#
# Compressibility (1/GPa) = 0.02470960
#
# Stress axis : x y z
#
# Youngs Moduli (GPa) = 44.90072 44.90313 59.53246
#
# Poissons Ratio (x) = 0.12387 0.46307
# Poissons Ratio (y) = 0.12386 0.46303
# Poissons Ratio (z) = 0.34926 0.34924
#
# Static dielectric constant tensor:
#      x y z
#    x 1.607050 0.000000 0.000000 
#    y 0.000000 1.607080 0.000000 
#    z 0.000000 0.000000 1.628430 
# 
# From -- ./inp_files/8225.got.cif
#   From: 2010.05.17/outbox.cif.g08.bks.cpg/sg121_5_cif.got.tgz:8225.got - 2010.05.20 11:32:06.
