data_PCOD9560265
_publ_section_title
;
Structure prediction by ZEFSAII (Michael W. Deem and Ramdas Pophale) SiO2 
 PCOD9560265
Probable space group: I -4 2 M
;
_chemical_formula_sum "Si O2"
_cell_formula_units_Z 128
_cell_length_a 23.672884
_cell_length_b 23.672884
_cell_length_c 12.777989
_cell_angle_alpha 90.000000
_cell_angle_beta 90.000000
_cell_angle_gamma 90.000000
_cell_volume 7160.854508
_symmetry_space_group_name_H-M "I -4 2 M"
_symmetry_group_IT_number 121
_symmetry_cell_setting 'tetragonal'
loop_
_space_group_symop_operation_xyz
x,y,z
y,-x,-z
-x,-y,z
-y,x,-z
x,-y,-z
-x,y,-z
-y,-x,z
y,x,z
1/2+x,1/2+y,1/2+z
1/2+y,1/2-x,1/2-z
1/2-x,1/2-y,1/2+z
1/2-y,1/2+x,1/2-z
1/2+x,1/2-y,1/2-z
1/2-x,1/2+y,1/2-z
1/2-y,1/2-x,1/2+z
1/2+y,1/2+x,1/2+z
loop_
_atom_site_type_symbol
_atom_site_label
_atom_site_fract_x
_atom_site_fract_y
_atom_site_fract_z
Si Si1 0.042785 0.770126 0.252306
Si Si2 0.627053 0.933112 0.362147
Si Si3 0.360209 0.728036 0.402421
Si Si4 0.938628 0.846776 0.950636
Si Si5 0.444740 0.860194 0.774136
Si Si6 0.415907 0.741426 0.186884
Si Si7 0.153582 0.645623 0.945196
Si Si8 0.377192 0.717352 0.955567
O O1 0.059527 0.809222 0.155063
O O2 0.048124 0.702876 0.227292
O O3 0.078901 0.781628 0.358279
O O4 0.977329 0.779296 0.277987
O O5 0.570832 0.908760 0.307446
O O6 0.690123 0.918084 0.319124
O O7 0.629919 0.898694 0.470420
O O8 0.627187 0.001059 0.347455
O O9 0.298417 0.701584 0.422699
O O10 0.403817 0.688551 0.463327
O O11 0.372344 0.726508 0.278434
O O12 0.369466 0.791357 0.443924
O O13 0.904101 0.904101 0.930150
O O14 0.000000 0.856837 0.000000
O O15 0.386856 0.857286 0.838381
O O16 0.404012 0.716266 0.071913
O O17 0.221003 0.651431 0.955472
O O18 0.332583 0.667418 0.942103
#
# Coordination Sequence:
#
# PCOD9560265 Si02
#       8
#    16  16  16  16  16  16  16  16
#     4  10  20  37  58  82 112 153 197 232 282 346
#     4  10  20  35  55  79 109 152 196 240 282 333
#     4  11  21  35  58  87 116 148 187 234 291 353
#     4  11  23  39  60  83 112 147 189 239 289 351
#     4  10  20  35  56  81 110 153 193 239 285 334
#     4  10  19  35  57  81 115 152 186 234 292 342
#     4  10  20  36  55  81 117 149 188 231 292 346
#     4  10  20  34  56  86 118 149 187 235 287 347
#
# _framework density 17.874962
#
# number of rings (size 3 to 8) (size 9 to 14) (size 15 to 20)
#    0.000    1.750    2.500    2.625    0.000    3.375 
#    0.000    0.625    0.000    1.500    0.000    0.000 
#    0.000    2.000    0.000    0.000    0.000    0.000 
#
# Total GULP energy -356427.079231 kJ/mol
# GULP energy per Si atom -5569.173113 kJ/mol
# Density = 1.783428 g / cm^3
# Si number density = 17.874962 Si / 1000 Ang^3
#
#
#
# Elastic Constant Matrix: (Units=GPa)
#
#
# Indices 1 2 3 4 5 6 
#
# 1 83.0233 37.1935 21.3805 0.0000 0.0000 0.0000
# 2 37.1935 83.0198 21.3807 0.0000 0.0000 0.0000
# 3 21.3805 21.3807 67.7921 0.0000 0.0000 0.0000
# 4 0.0000 0.0000 0.0000 23.4864 0.0000 0.0000
# 5 0.0000 0.0000 0.0000 0.0000 23.4875 0.0000
# 6 0.0000 0.0000 0.0000 0.0000 0.0000 24.0914
#
#
#
# Elastic Compliance Matrix: (Units=1/GPa)
#
#
# Indices 1 2 3 4 5 6 
#
# 1 0.015595 -0.006226 -0.002955 0.000000 0.000000 0.000000
# 2 -0.006226 0.015595 -0.002955 0.000000 0.000000 0.000000
# 3 -0.002955 -0.002955 0.016615 0.000000 0.000000 0.000000
# 4 0.000000 0.000000 0.000000 0.042578 0.000000 0.000000
# 5 0.000000 0.000000 0.000000 0.000000 0.042576 0.000000
# 6 0.000000 0.000000 0.000000 0.000000 0.000000 0.041509
#
#
# Mechanical properties :
#
#
# Convention : Reuss Voigt Hill
#
# Bulk Modulus (GPa) = 42.49180 43.74939 43.12060
# Shear Modulus (GPa) = 24.20334 24.47178 24.33756
#
# Velocity S-wave (km/s) = 3.68371 3.70409 3.69391
# Velocity P-wave (km/s) = 6.47428 6.54386 6.50916
#
# Compressibility (1/GPa) = 0.02353395
#
# Stress axis : x y z
#
# Youngs Moduli (GPa) = 64.12415 64.12112 60.18696
#
# Poissons Ratio (x) = 0.39919 0.17784
# Poissons Ratio (y) = 0.39921 0.17786
# Poissons Ratio (z) = 0.18948 0.18949
#
# Static dielectric constant tensor:
#      x y z
#    x 1.605540 0.000000 0.000000 
#    y 0.000000 1.605540 0.000000 
#    z 0.000000 0.000000 1.674850 
# 
# From -- ./inp_files/3551.got.cif
#   From: 2010.05.17/outbox.cif.g08.bks.cpg/sg121_2_cif.got.tgz:3551.got - 2010.05.20 11:32:06.
