data_PCOD9560181
_publ_section_title
;
Structure prediction by ZEFSAII (Michael W. Deem and Ramdas Pophale) SiO2 
 PCOD9560181
Probable space group: I -4 2 M
;
_chemical_formula_sum "Si O2"
_cell_formula_units_Z 128
_cell_length_a 23.221323
_cell_length_b 23.221323
_cell_length_c 11.585174
_cell_angle_alpha 90.000000
_cell_angle_beta 90.000000
_cell_angle_gamma 90.000000
_cell_volume 6247.071544
_symmetry_space_group_name_H-M "I -4 2 M"
_symmetry_group_IT_number 121
_symmetry_cell_setting 'tetragonal'
loop_
_space_group_symop_operation_xyz
x,y,z
y,-x,-z
-x,-y,z
-y,x,-z
x,-y,-z
-x,y,-z
-y,-x,z
y,x,z
1/2+x,1/2+y,1/2+z
1/2+y,1/2-x,1/2-z
1/2-x,1/2-y,1/2+z
1/2-y,1/2+x,1/2-z
1/2+x,1/2-y,1/2-z
1/2-x,1/2+y,1/2-z
1/2-y,1/2-x,1/2+z
1/2+y,1/2+x,1/2+z
loop_
_atom_site_type_symbol
_atom_site_label
_atom_site_fract_x
_atom_site_fract_y
_atom_site_fract_z
Si Si1 0.247805 0.411244 0.139498
Si Si2 0.793192 0.474786 0.254116
Si Si3 0.301542 0.206265 0.721988
Si Si4 0.594508 0.191855 0.463538
Si Si5 0.543292 0.364761 0.781318
Si Si6 0.576175 0.333618 0.277185
Si Si7 0.888112 0.327054 0.583100
Si Si8 0.905751 0.815704 0.954863
O O1 0.215833 0.460653 0.213391
O O2 0.238676 0.349060 0.197290
O O3 0.313903 0.431727 0.138063
O O4 0.217730 0.406790 0.015444
O O5 0.811830 0.461742 0.384102
O O6 0.731489 0.440761 0.242751
O O7 0.835210 0.440990 0.168997
O O8 0.263126 0.263126 0.717230
O O9 0.351432 0.205532 0.623833
O O10 0.334585 0.197800 0.842600
O O11 0.614357 0.134891 0.527382
O O12 0.590432 0.247311 0.544664
O O13 0.577099 0.422902 0.803273
O O14 0.474962 0.369682 0.780564
O O15 0.559575 0.342389 0.651509
O O16 0.637577 0.362424 0.247545
O O17 0.572729 0.334118 0.417504
O O18 0.841401 0.841401 0.944547
#
# Coordination Sequence:
#
# PCOD9560181 Si02
#       8
#    16  16  16  16  16  16  16  16
#     4  10  20  34  51  73 106 142 172 205 250 309
#     4   9  19  35  53  74 103 137 172 207 250 312
#     4  10  20  32  48  76 112 144 176 214 260 312
#     4   9  18  31  49  74 103 132 167 206 256 309
#     4  10  19  29  44  67  93 128 176 223 261 295
#     4   9  18  32  47  64  91 131 176 217 259 305
#     4  10  20  33  52  76 102 130 168 210 256 303
#     4   9  16  28  45  65  93 128 161 201 257 315
#
# _framework density 20.489599999999999
#
# number of rings (size 3 to 8) (size 9 to 14) (size 15 to 20)
#    0.000    2.500    0.000    2.250    0.000    7.250 
#    0.000    1.875    0.000    2.250    0.000    0.000 
#    0.000  101.500    0.000    0.000    0.000    0.500 
#
# Total GULP energy -357318.812906 kJ/mol
# GULP energy per Si atom -5583.106452 kJ/mol
# Density = 2.044296 g / cm^3
# Si number density = 20.489600 Si / 1000 Ang^3
#
#
#
# Elastic Constant Matrix: (Units=GPa)
#
#
# Indices 1 2 3 4 5 6 
#
# 1 43.1451 15.5694 5.5916 0.0000 0.0000 0.0000
# 2 15.5694 43.1473 5.5917 0.0000 0.0000 0.0000
# 3 5.5916 5.5917 52.7742 0.0000 0.0000 0.0000
# 4 0.0000 0.0000 0.0000 18.1387 0.0000 0.0000
# 5 0.0000 0.0000 0.0000 0.0000 18.1397 0.0000
# 6 0.0000 0.0000 0.0000 0.0000 0.0000 24.2058
#
#
#
# Elastic Compliance Matrix: (Units=1/GPa)
#
#
# Indices 1 2 3 4 5 6 
#
# 1 0.026823 -0.009440 -0.001842 0.000000 0.000000 0.000000
# 2 -0.009440 0.026822 -0.001842 0.000000 0.000000 0.000000
# 3 -0.001842 -0.001842 0.019339 0.000000 0.000000 0.000000
# 4 0.000000 0.000000 0.000000 0.055131 0.000000 0.000000
# 5 0.000000 0.000000 0.000000 0.000000 0.055128 0.000000
# 6 0.000000 0.000000 0.000000 0.000000 0.000000 0.041312
#
#
# Mechanical properties :
#
#
# Convention : Reuss Voigt Hill
#
# Bulk Modulus (GPa) = 21.39669 21.39688 21.39679
# Shear Modulus (GPa) = 18.77015 19.58441 19.17728
#
# Velocity S-wave (km/s) = 3.02997 3.09499 3.06265
# Velocity P-wave (km/s) = 4.76511 4.82052 4.79290
#
# Compressibility (1/GPa) = 0.04673620
#
# Stress axis : x y z
#
# Youngs Moduli (GPa) = 37.28155 37.28352 51.70917
#
# Poissons Ratio (x) = 0.35196 0.09523
# Poissons Ratio (y) = 0.35195 0.09523
# Poissons Ratio (z) = 0.06866 0.06866
#
# Static dielectric constant tensor:
#      x y z
#    x 1.738120 0.000000 0.000000 
#    y 0.000000 1.738120 0.000000 
#    z 0.000000 0.000000 1.768460 
# 
# From -- ./inp_files/3538.got.cif
#   From: 2010.05.17/outbox.cif.g08.bks.cpg/sg121_2_cif.got.tgz:3538.got - 2010.05.20 11:32:06.
