data_PCOD9560391
_publ_section_title
;
Structure prediction by ZEFSAII (Michael W. Deem and Ramdas Pophale) SiO2 
 PCOD9560391
Probable space group: I -4 2 M
;
_chemical_formula_sum "Si O2"
_cell_formula_units_Z 96
_cell_length_a 22.769519
_cell_length_b 22.769519
_cell_length_c 10.273119
_cell_angle_alpha 90.000000
_cell_angle_beta 90.000000
_cell_angle_gamma 90.000000
_cell_volume 5326.108772
_symmetry_space_group_name_H-M "I -4 2 M"
_symmetry_group_IT_number 121
_symmetry_cell_setting 'tetragonal'
loop_
_space_group_symop_operation_xyz
x,y,z
y,-x,-z
-x,-y,z
-y,x,-z
x,-y,-z
-x,y,-z
-y,-x,z
y,x,z
1/2+x,1/2+y,1/2+z
1/2+y,1/2-x,1/2-z
1/2-x,1/2-y,1/2+z
1/2-y,1/2+x,1/2-z
1/2+x,1/2-y,1/2-z
1/2-x,1/2+y,1/2-z
1/2-y,1/2-x,1/2+z
1/2+y,1/2+x,1/2+z
loop_
_atom_site_type_symbol
_atom_site_label
_atom_site_fract_x
_atom_site_fract_y
_atom_site_fract_z
Si Si1 0.720260 0.123719 0.233175
Si Si2 0.853886 0.146115 0.152859
Si Si3 0.623721 0.220258 0.266809
Si Si4 0.853883 0.853883 0.152870
Si Si5 0.569923 0.430078 0.850633
Si Si6 0.431410 0.147163 0.500009
Si Si7 0.930745 0.317181 0.499992
Si Si8 0.430077 0.430077 0.850638
O O1 0.785976 0.133519 0.185658
O O2 0.684855 0.184853 0.249997
O O3 0.685501 0.084928 0.126901
O O4 0.715562 0.092654 0.372249
O O5 0.893976 0.106025 0.245212
O O6 0.864688 0.135313 0.999993
O O7 0.633521 0.285973 0.314332
O O8 0.584925 0.185499 0.373075
O O9 0.592661 0.215561 0.127730
O O10 0.893974 0.893974 0.245223
O O11 0.500000 0.420000 0.836030
O O12 0.585931 0.414070 0.999998
O O13 0.500000 0.130660 0.500000
O O14 0.383731 0.094773 0.500010
O O15 0.000000 0.318904 0.500000
#
# Coordination Sequence:
#
# PCOD9560391 Si02
#       8
#    16   8  16   8   8  16  16   8
#     4  10  22  40  59  85 123 158 195 246 299 349
#     4  12  24  40  62  93 116 155 201 238 295 366
#     4  10  22  40  59  85 123 158 195 246 299 349
#     4  12  24  40  62  93 116 155 201 238 295 366
#     4   9  22  45  65  85 119 155 190 239 292 345
#     4  10  20  38  61  85 122 164 200 248 301 344
#     4  10  22  38  59  89 122 160 204 248 295 350
#     4   9  22  45  65  85 119 155 190 239 292 345
#
# _framework density 18.024415999999999
#
# number of rings (size 3 to 8) (size 9 to 14) (size 15 to 20)
#    0.000    1.833    1.667    2.000    2.333    3.667 
#    0.000    0.833    0.000    6.000    0.000    0.000 
#    0.000    0.000    0.000    0.000    0.000    0.000 
#
# Total GULP energy -268105.157541 kJ/mol
# GULP energy per Si atom -5585.524115 kJ/mol
# Density = 1.798339 g / cm^3
# Si number density = 18.024416 Si / 1000 Ang^3
#
#
#
# Elastic Constant Matrix: (Units=GPa)
#
#
# Indices 1 2 3 4 5 6 
#
# 1 78.6503 55.8407 61.3917 0.0000 0.0000 0.0000
# 2 55.8407 78.6516 61.3941 0.0000 0.0000 0.0000
# 3 61.3917 61.3941 183.8370 0.0000 0.0000 0.0000
# 4 0.0000 0.0000 0.0000 10.5284 0.0000 0.0000
# 5 0.0000 0.0000 0.0000 0.0000 10.5287 0.0000
# 6 0.0000 0.0000 0.0000 0.0000 0.0000 10.5459
#
#
#
# Elastic Compliance Matrix: (Units=1/GPa)
#
#
# Indices 1 2 3 4 5 6 
#
# 1 0.027268 -0.016572 -0.003572 0.000000 0.000000 0.000000
# 2 -0.016572 0.027268 -0.003572 0.000000 0.000000 0.000000
# 3 -0.003572 -0.003572 0.007825 0.000000 0.000000 0.000000
# 4 0.000000 0.000000 0.000000 0.094982 0.000000 0.000000
# 5 0.000000 0.000000 0.000000 0.000000 0.094979 0.000000
# 6 0.000000 0.000000 0.000000 0.000000 0.000000 0.094824
#
#
# Mechanical properties :
#
#
# Convention : Reuss Voigt Hill
#
# Bulk Modulus (GPa) = 66.97881 77.59910 72.28896
# Shear Modulus (GPa) = 12.51392 17.15474 14.83433
#
# Velocity S-wave (km/s) = 2.63777 3.08839 2.87193
# Velocity P-wave (km/s) = 6.82040 7.47417 7.15476
#
# Compressibility (1/GPa) = 0.01493009
#
# Stress axis : x y z
#
# Youngs Moduli (GPa) = 36.67262 36.67243 127.78763
#
# Poissons Ratio (x) = 0.60772 0.45644
# Poissons Ratio (y) = 0.60773 0.45652
# Poissons Ratio (z) = 0.13099 0.13101
#
# Static dielectric constant tensor:
#      x y z
#    x 1.591020 0.000000 0.000000 
#    y 0.000000 1.591010 0.000000 
#    z 0.000000 0.000000 1.601810 
# 
# From -- ./inp_files/2033.got.cif
#   From: 2010.05.17/outbox.cif.g08.bks.cpg/sg121_2_cif.got.tgz:2033.got - 2010.05.20 11:32:06.
