data_PCOD9560069
_publ_section_title
;
Structure prediction by ZEFSAII (Michael W. Deem and Ramdas Pophale) SiO2 
 PCOD9560069
Probable space group: I -4 C 2
;
_chemical_formula_sum "Si O2"
_cell_formula_units_Z 44
_cell_length_a 9.355770
_cell_length_b 9.355770
_cell_length_c 19.802358
_cell_angle_alpha 90.000000
_cell_angle_beta 90.000000
_cell_angle_gamma 90.000000
_cell_volume 1733.308956
_symmetry_space_group_name_H-M "I -4 C 2"
_symmetry_group_IT_number 120
_symmetry_cell_setting 'tetragonal'
loop_
_space_group_symop_operation_xyz
x,y,z
y,-x,-z
-x,-y,z
-y,x,-z
y,x,1/2-z
-y,-x,1/2-z
-x,y,1/2+z
x,-y,1/2+z
1/2+x,1/2+y,1/2+z
1/2+y,1/2-x,1/2-z
1/2-x,1/2-y,1/2+z
1/2-y,1/2+x,1/2-z
1/2+y,1/2+x,-z
1/2-y,1/2-x,-z
1/2-x,1/2+y,z
1/2+x,1/2-y,z
loop_
_atom_site_type_symbol
_atom_site_label
_atom_site_fract_x
_atom_site_fract_y
_atom_site_fract_z
Si Si1 0.000000 0.000000 0.250000
Si Si2 0.495383 0.224526 0.346370
Si Si3 0.736284 0.357638 0.931675
Si Si4 0.000000 0.500000 0.750000
Si Si5 0.000000 0.000000 0.000000
O O1 0.865783 0.991601 0.198986
O O2 0.390955 0.253524 0.408309
O O3 0.643151 0.155708 0.373799
O O4 0.421574 0.112310 0.296660
O O5 0.640370 0.496604 0.951962
O O6 0.812869 0.312869 0.000000
#
# Coordination Sequence:
#
# PCOD9560069 Si02
#       5
#     4  16  16   4   4
#     4  12  26  52  78 106 152 216 248 318 396 466
#     4  12  27  46  78 107 159 199 269 315 399 480
#     4  12  27  47  80 112 153 207 262 329 411 468
#     4  12  28  44  66 116 148 204 256 322 376 468
#     4  12  26  52  72 122 160 210 260 340 422 468
#
# _framework density 25.384972000000001
#
# number of rings (size 3 to 8) (size 9 to 14) (size 15 to 20)
#    0.000    0.000    3.636    5.455    5.091    0.000 
#    0.000    0.000    0.000    0.000    0.000    0.000 
#    0.000    0.000    0.000    0.000    0.000    0.000 
#
# Total GULP energy -123014.240025 kJ/mol
# GULP energy per Si atom -5591.556365 kJ/mol
# Density = 2.532720 g / cm^3
# Si number density = 25.384972 Si / 1000 Ang^3
#
#
#
# Elastic Constant Matrix: (Units=GPa)
#
#
# Indices 1 2 3 4 5 6 
#
# 1 91.4910 8.2176 36.2845 0.0000 0.0000 0.0000
# 2 8.2176 91.4910 36.2845 0.0000 0.0000 0.0000
# 3 36.2845 36.2845 130.0979 0.0000 0.0000 0.0000
# 4 0.0000 0.0000 0.0000 39.8049 0.0000 0.0000
# 5 0.0000 0.0000 0.0000 0.0000 39.8049 0.0000
# 6 0.0000 0.0000 0.0000 0.0000 0.0000 38.8914
#
#
#
# Elastic Compliance Matrix: (Units=1/GPa)
#
#
# Indices 1 2 3 4 5 6 
#
# 1 0.012296 0.000287 -0.003510 0.000000 0.000000 0.000000
# 2 0.000287 0.012296 -0.003510 0.000000 0.000000 0.000000
# 3 -0.003510 -0.003510 0.009644 0.000000 0.000000 0.000000
# 4 0.000000 0.000000 0.000000 0.025123 0.000000 0.000000
# 5 0.000000 0.000000 0.000000 0.000000 0.025123 0.000000
# 6 0.000000 0.000000 0.000000 0.000000 0.000000 0.025713
#
#
# Mechanical properties :
#
#
# Convention : Reuss Voigt Hill
#
# Bulk Modulus (GPa) = 48.13950 52.73921 50.43936
# Shear Modulus (GPa) = 38.29019 39.18644 38.73831
#
# Velocity S-wave (km/s) = 3.88800 3.93324 3.91069
# Velocity P-wave (km/s) = 6.25782 6.43801 6.34856
#
# Compressibility (1/GPa) = 0.02077296
#
# Stress axis : x y z
#
# Youngs Moduli (GPa) = 81.32675 81.32675 103.68974
#
# Poissons Ratio (x) = -0.02338 0.36390
# Poissons Ratio (y) = -0.02338 0.36390
# Poissons Ratio (z) = 0.28542 0.28542
#
# Static dielectric constant tensor:
#      x y z
#    x 2.052980 0.000000 0.000000 
#    y 0.000000 2.052980 0.000000 
#    z 0.000000 0.000000 1.966540 
# 
# From -- ./inp_files/4028.got.cif
#   From: 2010.05.17/outbox.cif.g08.bks.cpg/sg120_3_cif.got.tgz:4028.got - 2010.05.20 11:28:13.
