data_PCOD9560610
_publ_section_title
;
Structure prediction by ZEFSAII (Michael W. Deem and Ramdas Pophale) SiO2 
 PCOD9560610
Probable space group: I -4 2 M
;
_chemical_formula_sum "Si O2"
_cell_formula_units_Z 64
_cell_length_a 11.874905
_cell_length_b 11.874905
_cell_length_c 21.024233
_cell_angle_alpha 90.000000
_cell_angle_beta 90.000000
_cell_angle_gamma 90.000000
_cell_volume 2964.697921
_symmetry_space_group_name_H-M "I -4 2 M"
_symmetry_group_IT_number 121
_symmetry_cell_setting 'tetragonal'
loop_
_space_group_symop_operation_xyz
x,y,z
y,-x,-z
-x,-y,z
-y,x,-z
x,-y,-z
-x,y,-z
-y,-x,z
y,x,z
1/2+x,1/2+y,1/2+z
1/2+y,1/2-x,1/2-z
1/2-x,1/2-y,1/2+z
1/2-y,1/2+x,1/2-z
1/2+x,1/2-y,1/2-z
1/2-x,1/2+y,1/2-z
1/2-y,1/2-x,1/2+z
1/2+y,1/2+x,1/2+z
loop_
_atom_site_type_symbol
_atom_site_label
_atom_site_fract_x
_atom_site_fract_y
_atom_site_fract_z
Si Si1 0.313333 0.497047 0.067572
Si Si2 0.972230 0.634616 0.174787
Si Si3 0.257115 0.562909 0.800599
Si Si4 0.314503 0.500899 0.424550
O O1 0.410609 0.589392 0.058557
O O2 0.375867 0.375867 0.073636
O O3 0.264415 0.518498 0.137813
O O4 0.247351 0.500000 0.000000
O O5 0.838165 0.648194 0.175834
O O6 0.000000 0.500000 0.176103
O O7 0.014964 0.702094 0.236645
O O8 0.014083 0.699244 0.113050
O O9 0.375255 0.624746 0.788075
O O10 0.296055 0.500000 0.500000
O O11 0.385400 0.614601 0.409041
O O12 0.398558 0.398558 0.408771
#
# Coordination Sequence:
#
# PCOD9560610 Si02
#       4
#    16  16  16  16
#     4   8  16  34  59  88 120 152 196 255 311 366
#     4  12  23  43  58  88 134 167 205 253 319 383
#     4  11  22  39  62  87 121 164 209 256 307 368
#     4   9  20  42  71  99 124 159 217 275 315 368
#
# _framework density 21.587358999999999
#
# number of rings (size 3 to 8) (size 9 to 14) (size 15 to 20)
#    0.000    2.000    2.500    3.000    0.000    2.500 
#    4.500    2.500    0.000    0.000    0.000    0.000 
#    0.000    0.000    0.000    0.000    0.000    0.000 
#
# Total GULP energy -178202.748979 kJ/mol
# GULP energy per Si atom -5568.835906 kJ/mol
# Density = 2.153822 g / cm^3
# Si number density = 21.587359 Si / 1000 Ang^3
#
#
#
# Elastic Constant Matrix: (Units=GPa)
#
#
# Indices 1 2 3 4 5 6 
#
# 1 67.2751 9.1635 54.1818 0.0000 0.0000 0.0000
# 2 9.1635 67.2777 54.1819 0.0000 0.0000 0.0000
# 3 54.1818 54.1819 114.5261 0.0000 0.0000 0.0000
# 4 0.0000 0.0000 0.0000 21.3951 0.0000 0.0000
# 5 0.0000 0.0000 0.0000 0.0000 21.3948 0.0000
# 6 0.0000 0.0000 0.0000 0.0000 0.0000 13.2067
#
#
#
# Elastic Compliance Matrix: (Units=1/GPa)
#
#
# Indices 1 2 3 4 5 6 
#
# 1 0.028467 0.011258 -0.018794 0.000000 0.000000 0.000000
# 2 0.011258 0.028465 -0.018793 0.000000 0.000000 0.000000
# 3 -0.018794 -0.018793 0.026514 0.000000 0.000000 0.000000
# 4 0.000000 0.000000 0.000000 0.046740 0.000000 0.000000
# 5 0.000000 0.000000 0.000000 0.000000 0.046740 0.000000
# 6 0.000000 0.000000 0.000000 0.000000 0.000000 0.075719
#
#
# Mechanical properties :
#
#
# Convention : Reuss Voigt Hill
#
# Bulk Modulus (GPa) = 32.47935 53.79259 43.13597
# Shear Modulus (GPa) = 15.84459 19.96944 17.90702
#
# Velocity S-wave (km/s) = 2.71214 3.04477 2.88325
# Velocity P-wave (km/s) = 4.98857 6.11011 5.57760
#
# Compressibility (1/GPa) = 0.03078879
#
# Stress axis : x y z
#
# Youngs Moduli (GPa) = 35.12846 35.13055 37.71619
#
# Poissons Ratio (x) = -0.39551 0.70883
# Poissons Ratio (y) = -0.39548 0.70880
# Poissons Ratio (z) = 0.66020 0.66021
#
# Static dielectric constant tensor:
#      x y z
#    x 1.813680 0.000000 0.000000 
#    y 0.000000 1.813680 0.000000 
#    z 0.000000 0.000000 1.937110 
# 
# From -- ./inp_files/6031.got.cif
#   From: 2010.05.17/outbox.cif.g08.bks.cpg/sg121_4_cif.got.tgz:6031.got - 2010.05.20 11:32:06.
