data_PCOD9560706
_publ_section_title
;
Structure prediction by ZEFSAII (Michael W. Deem and Ramdas Pophale) SiO2 
 PCOD9560706
Probable space group: I -4 2 D
;
_chemical_formula_sum "Si O2"
_cell_formula_units_Z 72
_cell_length_a 28.297479
_cell_length_b 28.297479
_cell_length_c 5.000905
_cell_angle_alpha 90.000000
_cell_angle_beta 90.000000
_cell_angle_gamma 90.000000
_cell_volume 4004.461265
_symmetry_space_group_name_H-M "I -4 2 D"
_symmetry_group_IT_number 122
_symmetry_cell_setting 'tetragonal'
loop_
_space_group_symop_operation_xyz
x,y,z
y,-x,-z
-x,-y,z
-y,x,-z
x,1/2-y,1/4-z
-x,1/2+y,1/4-z
-y,1/2-x,1/4+z
y,1/2+x,1/4+z
1/2+x,1/2+y,1/2+z
1/2+y,1/2-x,1/2-z
1/2-x,1/2-y,1/2+z
1/2-y,1/2+x,1/2-z
1/2+x,-y,3/4-z
1/2-x,y,3/4-z
1/2-y,-x,3/4+z
1/2+y,x,3/4+z
loop_
_atom_site_type_symbol
_atom_site_label
_atom_site_fract_x
_atom_site_fract_y
_atom_site_fract_z
Si Si1 0.250000 0.284236 0.875000
Si Si2 0.917958 0.418688 0.585069
Si Si3 0.476302 0.891939 0.581998
Si Si4 0.176059 0.133620 0.259589
Si Si5 0.925364 0.200673 0.242858
O O1 0.241076 0.250000 0.625000
O O2 0.204469 0.318077 0.933786
O O3 0.904404 0.470543 0.488716
O O4 0.959292 0.401780 0.382582
O O5 0.875545 0.379879 0.565256
O O6 0.940037 0.418465 0.881029
O O7 0.466436 0.837224 0.526131
O O8 0.199644 0.095720 0.461556
O O9 0.184645 0.117262 0.955464
O O10 0.941096 0.250000 0.125000
#
# Coordination Sequence:
#
# PCOD9560706 Si02
#       5
#     8  16  16  16  16
#     4  12  22  34  56  84 108 140 182 210 276 340
#     4  10  21  36  53  79 110 141 182 222 273 311
#     4  10  21  33  54  79 106 145 178 221 269 323
#     4  10  20  35  54  76 108 136 172 230 257 311
#     4  10  17  33  56  76  97 135 187 223 256 302
#
# _framework density 17.979946000000002
#
# number of rings (size 3 to 8) (size 9 to 14) (size 15 to 20)
#    0.000    1.778    2.222    2.667    0.000    2.667 
#    0.000    1.111    0.000    5.333    0.000    0.000 
#    0.000    0.000    0.000    0.000    0.000    0.000 
#
# Total GULP energy -200707.713647 kJ/mol
# GULP energy per Si atom -5575.214268 kJ/mol
# Density = 1.793902 g / cm^3
# Si number density = 17.979946 Si / 1000 Ang^3
#
#
#
# Elastic Constant Matrix: (Units=GPa)
#
#
# Indices 1 2 3 4 5 6 
#
# 1 89.8811 37.3618 -9.7394 0.0000 0.0000 0.0000
# 2 37.3618 89.8811 -9.7394 0.0000 0.0000 0.0000
# 3 -9.7394 -9.7394 56.2803 0.0000 0.0000 0.0000
# 4 0.0000 0.0000 0.0000 20.4573 0.0000 0.0000
# 5 0.0000 0.0000 0.0000 0.0000 20.4573 0.0000
# 6 0.0000 0.0000 0.0000 0.0000 0.0000 9.6713
#
#
#
# Elastic Compliance Matrix: (Units=1/GPa)
#
#
# Indices 1 2 3 4 5 6 
#
# 1 0.013557 -0.005484 0.001397 0.000000 0.000000 0.000000
# 2 -0.005484 0.013557 0.001397 0.000000 0.000000 0.000000
# 3 0.001397 0.001397 0.018252 0.000000 0.000000 0.000000
# 4 0.000000 0.000000 0.000000 0.048882 0.000000 0.000000
# 5 0.000000 0.000000 0.000000 0.000000 0.048882 0.000000
# 6 0.000000 0.000000 0.000000 0.000000 0.000000 0.103399
#
#
# Mechanical properties :
#
#
# Convention : Reuss Voigt Hill
#
# Bulk Modulus (GPa) = 25.00907 30.20094 27.60501
# Shear Modulus (GPa) = 18.85108 24.66115 21.75611
#
# Velocity S-wave (km/s) = 3.24149 3.70752 3.48231
# Velocity P-wave (km/s) = 5.28671 5.92968 5.61740
#
# Compressibility (1/GPa) = 0.03998549
#
# Stress axis : x y z
#
# Youngs Moduli (GPa) = 73.76414 73.76414 54.78936
#
# Poissons Ratio (x) = 0.40451 -0.07654
# Poissons Ratio (y) = 0.40451 -0.07654
# Poissons Ratio (z) = -0.10305 -0.10305
#
# Static dielectric constant tensor:
#      x y z
#    x 1.611480 0.000000 0.000000 
#    y 0.000000 1.611480 0.000000 
#    z 0.000000 0.000000 1.628510 
# 
# From -- ./inp_files/1226.got.cif
#   From: 2010.05.17/outbox.cif.g08.bks.cpg/sg122_1_cif.got.tgz:1226.got - 2010.05.20 11:37:33.
