data_PCOD9560016
_publ_section_title
;
Structure prediction by ZEFSAII (Michael W. Deem and Ramdas Pophale) SiO2 
 PCOD9560016
Probable space group: I -4 C 2
;
_chemical_formula_sum "Si O2"
_cell_formula_units_Z 112
_cell_length_a 22.857180
_cell_length_b 22.857180
_cell_length_c 11.856093
_cell_angle_alpha 90.000000
_cell_angle_beta 90.000000
_cell_angle_gamma 90.000000
_cell_volume 6194.223821
_symmetry_space_group_name_H-M "I -4 C 2"
_symmetry_group_IT_number 120
_symmetry_cell_setting 'tetragonal'
loop_
_space_group_symop_operation_xyz
x,y,z
y,-x,-z
-x,-y,z
-y,x,-z
y,x,1/2-z
-y,-x,1/2-z
-x,y,1/2+z
x,-y,1/2+z
1/2+x,1/2+y,1/2+z
1/2+y,1/2-x,1/2-z
1/2-x,1/2-y,1/2+z
1/2-y,1/2+x,1/2-z
1/2+y,1/2+x,-z
1/2-y,1/2-x,-z
1/2-x,1/2+y,z
1/2+x,1/2-y,z
loop_
_atom_site_type_symbol
_atom_site_label
_atom_site_fract_x
_atom_site_fract_y
_atom_site_fract_z
Si Si1 0.731258 0.905107 0.481748
Si Si2 0.124504 0.218680 0.788650
Si Si3 0.471356 0.244430 0.131325
Si Si4 0.605430 0.805015 0.941737
Si Si5 0.929347 0.394838 0.391287
Si Si6 0.682207 0.219861 0.230965
Si Si7 0.027214 0.360238 0.261956
O O1 0.776357 0.884707 0.577609
O O2 0.670094 0.919281 0.552511
O O3 0.724379 0.854157 0.386683
O O4 0.755209 0.964728 0.423175
O O5 0.165721 0.165721 0.750000
O O6 0.061957 0.217346 0.725279
O O7 0.160476 0.278912 0.761365
O O8 0.485147 0.183612 0.194831
O O9 0.423038 0.236519 0.034386
O O10 0.639971 0.776373 0.838599
O O11 0.551352 0.834429 0.877945
O O12 0.647488 0.852513 0.000000
O O13 0.934866 0.434866 0.500000
O O14 0.875858 0.418506 0.316333
O O15 0.982423 0.406973 0.307792
O O16 0.728339 0.271662 0.250000
#
# Coordination Sequence:
#
# PCOD9560016 Si02
#       7
#    16  16  16  16  16  16  16
#     4  12  23  41  64  85 124 164 211 251 322 380
#     4  11  24  41  62  94 127 164 207 257 318 379
#     4  12  22  37  62  89 115 161 206 250 307 376
#     4  12  21  36  57  83 116 153 205 258 301 369
#     4  12  22  38  57  75 110 159 212 268 308 352
#     4  11  25  39  62  91 123 162 203 260 328 381
#     4  12  23  38  55  83 108 160 217 257 311 354
#
# _framework density 18.081363
#
# number of rings (size 3 to 8) (size 9 to 14) (size 15 to 20)
#    0.000    0.286    7.143    3.000    2.000    0.286 
#    0.000    0.714    0.000    0.000    0.000    0.000 
#    0.000    4.571    0.000    0.000    0.000    0.000 
#
# Total GULP energy -312021.580454 kJ/mol
# GULP energy per Si atom -5571.813937 kJ/mol
# Density = 1.804021 g / cm^3
# Si number density = 18.081363 Si / 1000 Ang^3
#
#
#
# Elastic Constant Matrix: (Units=GPa)
#
#
# Indices 1 2 3 4 5 6 
#
# 1 63.4530 27.8516 28.8579 0.0000 0.0000 0.0000
# 2 27.8516 63.4557 28.8584 0.0000 0.0000 0.0000
# 3 28.8579 28.8584 115.9003 0.0000 0.0000 0.0000
# 4 0.0000 0.0000 0.0000 25.4497 0.0000 0.0000
# 5 0.0000 0.0000 0.0000 0.0000 25.4439 0.0000
# 6 0.0000 0.0000 0.0000 0.0000 0.0000 22.1592
#
#
#
# Elastic Compliance Matrix: (Units=1/GPa)
#
#
# Indices 1 2 3 4 5 6 
#
# 1 0.020543 -0.007545 -0.003236 0.000000 0.000000 0.000000
# 2 -0.007545 0.020542 -0.003236 0.000000 0.000000 0.000000
# 3 -0.003236 -0.003236 0.010240 0.000000 0.000000 0.000000
# 4 0.000000 0.000000 0.000000 0.039293 0.000000 0.000000
# 5 0.000000 0.000000 0.000000 0.000000 0.039302 0.000000
# 6 0.000000 0.000000 0.000000 0.000000 0.000000 0.045128
#
#
# Mechanical properties :
#
#
# Convention : Reuss Voigt Hill
#
# Bulk Modulus (GPa) = 42.93655 45.99387 44.46521
# Shear Modulus (GPa) = 23.71383 25.09330 24.40357
#
# Velocity S-wave (km/s) = 3.62540 3.72936 3.67775
# Velocity P-wave (km/s) = 6.42826 6.63600 6.53296
#
# Compressibility (1/GPa) = 0.02329018
#
# Stress axis : x y z
#
# Youngs Moduli (GPa) = 48.67772 48.67984 97.65846
#
# Poissons Ratio (x) = 0.36728 0.31606
# Poissons Ratio (y) = 0.36727 0.31606
# Poissons Ratio (z) = 0.15754 0.15754
#
# Static dielectric constant tensor:
#      x y z
#    x 1.706980 0.000000 0.000000 
#    y 0.000000 1.706980 0.000000 
#    z 0.000000 0.000000 1.673240 
# 
# From -- ./inp_files/2875.got.cif
#   From: 2010.05.17/outbox.cif.g08.bks.cpg/sg120_2_cif.got.tgz:2875.got - 2010.05.20 11:28:13.
