data_PCOD9560582
_publ_section_title
;
Structure prediction by ZEFSAII (Michael W. Deem and Ramdas Pophale) SiO2 
 PCOD9560582
Probable space group: I -4 2 M
;
_chemical_formula_sum "Si O2"
_cell_formula_units_Z 96
_cell_length_a 26.917889
_cell_length_b 26.917889
_cell_length_c 9.164224
_cell_angle_alpha 90.000000
_cell_angle_beta 90.000000
_cell_angle_gamma 90.000000
_cell_volume 6640.146969
_symmetry_space_group_name_H-M "I -4 2 M"
_symmetry_group_IT_number 121
_symmetry_cell_setting 'tetragonal'
loop_
_space_group_symop_operation_xyz
x,y,z
y,-x,-z
-x,-y,z
-y,x,-z
x,-y,-z
-x,y,-z
-y,-x,z
y,x,z
1/2+x,1/2+y,1/2+z
1/2+y,1/2-x,1/2-z
1/2-x,1/2-y,1/2+z
1/2-y,1/2+x,1/2-z
1/2+x,1/2-y,1/2-z
1/2-x,1/2+y,1/2-z
1/2-y,1/2-x,1/2+z
1/2+y,1/2+x,1/2+z
loop_
_atom_site_type_symbol
_atom_site_label
_atom_site_fract_x
_atom_site_fract_y
_atom_site_fract_z
Si Si1 0.129336 0.949966 0.908300
Si Si2 0.319615 0.404915 0.093543
Si Si3 0.097809 0.982103 0.340111
Si Si4 0.885734 0.199551 0.733602
Si Si5 0.732031 0.182461 0.904481
Si Si6 0.163085 0.751324 0.232566
O O1 0.091697 0.908304 0.972728
O O2 0.179491 0.923222 0.856899
O O3 0.104818 0.971035 0.761432
O O4 0.136228 0.000000 0.000000
O O5 0.361579 0.361579 0.089009
O O6 0.349949 0.452844 0.145486
O O7 0.277676 0.385934 0.204726
O O8 0.299007 0.408810 0.928233
O O9 0.055753 0.944248 0.285621
O O10 0.083869 0.000000 0.500000
O O11 0.843095 0.156906 0.726676
O O12 0.858505 0.248727 0.789848
O O13 0.774762 0.225239 0.907256
O O14 0.683368 0.209925 0.844563
O O15 0.730382 0.161204 0.068329
O O16 0.205352 0.794649 0.229860
#
# Coordination Sequence:
#
# PCOD9560582 Si02
#       6
#    16  16  16  16  16  16
#     4  11  23  35  45  58  76 100 132 175 224 263
#     4   9  17  29  43  58  76  96 121 155 196 243
#     4  11  21  33  47  60  74  98 134 175 219 260
#     4   9  17  30  43  56  76  98 121 154 197 243
#     4   9  16  25  40  60  80  99 117 140 177 230
#     4   9  16  25  40  61  80  98 117 140 177 230
#
# _framework density 14.457511999999999
#
# number of rings (size 3 to 8) (size 9 to 14) (size 15 to 20)
#    0.000    2.333    1.667    2.000    2.333    6.000 
#    0.000    0.000    0.000    0.000    0.000    0.000 
#    0.000    0.000    0.000    0.000    0.000    0.000 
#
# Total GULP energy -267503.585654 kJ/mol
# GULP energy per Si atom -5572.991368 kJ/mol
# Density = 1.442461 g / cm^3
# Si number density = 14.457512 Si / 1000 Ang^3
#
#
#
# Elastic Constant Matrix: (Units=GPa)
#
#
# Indices 1 2 3 4 5 6 
#
# 1 25.8820 28.1327 2.3808 0.0000 0.0000 0.0000
# 2 28.1327 25.8804 2.3814 0.0000 0.0000 0.0000
# 3 2.3808 2.3814 40.3760 0.0000 0.0000 0.0000
# 4 0.0000 0.0000 0.0000 8.0140 0.0000 0.0000
# 5 0.0000 0.0000 0.0000 0.0000 7.9885 0.0000
# 6 0.0000 0.0000 0.0000 0.0000 0.0000 24.4718
#
#
#
# Elastic Compliance Matrix: (Units=1/GPa)
#
#
# Indices 1 2 3 4 5 6 
#
# 1 -0.212753 0.231370 -0.001101 0.000000 0.000000 0.000000
# 2 0.231370 -0.212767 -0.001094 0.000000 0.000000 0.000000
# 3 -0.001101 -0.001094 0.024897 0.000000 0.000000 0.000000
# 4 0.000000 0.000000 0.000000 0.124781 0.000000 0.000000
# 5 0.000000 0.000000 0.000000 0.000000 0.125180 0.000000
# 6 0.000000 0.000000 0.000000 0.000000 0.000000 0.040863
#
#
# Mechanical properties :
#
#
# Convention : Reuss Voigt Hill
#
# Bulk Modulus (GPa) = 17.32276 17.54760 17.43518
# Shear Modulus (GPa) = -9.10902 12.04441 1.46770
#
# Velocity S-wave (km/s) = -2.51281 2.88946 1.00865
# Velocity P-wave (km/s) = 1.89444 4.82656 3.66637
#
# Compressibility (1/GPa) = 0.05772752
#
# Stress axis : x y z
#
# Youngs Moduli (GPa) = -4.70029 -4.69998 40.16603
#
# Poissons Ratio (x) = 1.08744 0.04423
# Poissons Ratio (y) = 1.08751 0.04393
# Poissons Ratio (z) = -0.00518 -0.00514
#
# Static dielectric constant tensor:
#      x y z
#    x 1.468760 0.000000 0.000000 
#    y 0.000000 1.468770 0.000000 
#    z 0.000000 0.000000 1.532010 
# 
# From -- ./inp_files/1922.got.cif
#   From: 2010.05.17/outbox.cif.g08.bks.cpg/sg121_1_cif.got.tgz:1922.got - 2010.05.20 11:32:06.
