data_PCOD9560259
_publ_section_title
;
Structure prediction by ZEFSAII (Michael W. Deem and Ramdas Pophale) SiO2 
 PCOD9560259
Probable space group: I -4 2 M
;
_chemical_formula_sum "Si O2"
_cell_formula_units_Z 88
_cell_length_a 14.243794
_cell_length_b 14.243794
_cell_length_c 20.949591
_cell_angle_alpha 90.000000
_cell_angle_beta 90.000000
_cell_angle_gamma 90.000000
_cell_volume 4250.371754
_symmetry_space_group_name_H-M "I -4 2 M"
_symmetry_group_IT_number 121
_symmetry_cell_setting 'tetragonal'
loop_
_space_group_symop_operation_xyz
x,y,z
y,-x,-z
-x,-y,z
-y,x,-z
x,-y,-z
-x,y,-z
-y,-x,z
y,x,z
1/2+x,1/2+y,1/2+z
1/2+y,1/2-x,1/2-z
1/2-x,1/2-y,1/2+z
1/2-y,1/2+x,1/2-z
1/2+x,1/2-y,1/2-z
1/2-x,1/2+y,1/2-z
1/2-y,1/2-x,1/2+z
1/2+y,1/2+x,1/2+z
loop_
_atom_site_type_symbol
_atom_site_label
_atom_site_fract_x
_atom_site_fract_y
_atom_site_fract_z
Si Si1 0.345489 0.506049 0.169439
Si Si2 0.732518 0.422601 0.303661
Si Si3 0.746078 0.895253 0.889688
Si Si4 0.704691 0.860928 0.623272
Si Si5 0.887765 0.394277 0.007361
Si Si6 0.500000 0.642527 0.500000
O O1 0.410645 0.589356 0.140206
O O2 0.421516 0.421516 0.184694
O O3 0.297425 0.549399 0.232488
O O4 0.259159 0.459246 0.131308
O O5 0.645724 0.354277 0.326396
O O6 0.750074 0.521392 0.339110
O O7 0.827246 0.363408 0.319110
O O8 0.806450 0.806450 0.867278
O O9 0.797828 0.942455 0.950387
O O10 0.649677 0.865140 0.923715
O O11 0.787563 0.787563 0.623779
O O12 0.651796 0.845763 0.556201
O O13 0.853586 0.500000 0.000000
O O14 0.000000 0.394845 0.000000
O O15 0.574039 0.574039 0.534300
#
# Coordination Sequence:
#
# PCOD9560259 Si02
#       6
#    16  16  16  16  16   8
#     4   9  19  37  60  86 119 164 215 263 309 362
#     4  10  19  34  57  90 129 163 198 248 311 381
#     4  11  19  31  53  83 116 153 197 244 302 374
#     4  10  20  39  63  85 119 162 204 255 315 374
#     4  11  22  38  55  77 114 159 205 251 310 375
#     4   9  16  24  39  70 110 146 179 216 268 345
#
# _framework density 20.704072
#
# number of rings (size 3 to 8) (size 9 to 14) (size 15 to 20)
#    0.000    1.909    2.727    1.636    0.000    4.727 
#    3.273    1.818    0.000    0.000    0.000    0.000 
#    0.000    0.000    0.000    0.000    0.000    0.000 
#
# Total GULP energy -244968.555582 kJ/mol
# GULP energy per Si atom -5567.467172 kJ/mol
# Density = 2.065695 g / cm^3
# Si number density = 20.704072 Si / 1000 Ang^3
#
#
#
# Elastic Constant Matrix: (Units=GPa)
#
#
# Indices 1 2 3 4 5 6 
#
# 1 90.2547 33.9771 19.7198 0.0000 0.0000 0.0000
# 2 33.9771 90.2544 19.7199 0.0000 0.0000 0.0000
# 3 19.7198 19.7199 34.5497 0.0000 0.0000 0.0000
# 4 0.0000 0.0000 0.0000 26.9455 0.0000 0.0000
# 5 0.0000 0.0000 0.0000 0.0000 26.9450 0.0000
# 6 0.0000 0.0000 0.0000 0.0000 0.0000 3.9955
#
#
#
# Elastic Compliance Matrix: (Units=1/GPa)
#
#
# Indices 1 2 3 4 5 6 
#
# 1 0.013800 -0.003969 -0.005611 0.000000 0.000000 0.000000
# 2 -0.003969 0.013800 -0.005611 0.000000 0.000000 0.000000
# 3 -0.005611 -0.005611 0.035349 0.000000 0.000000 0.000000
# 4 0.000000 0.000000 0.000000 0.037112 0.000000 0.000000
# 5 0.000000 0.000000 0.000000 0.000000 0.037113 0.000000
# 6 0.000000 0.000000 0.000000 0.000000 0.000000 0.250279
#
#
# Mechanical properties :
#
#
# Convention : Reuss Voigt Hill
#
# Bulk Modulus (GPa) = 30.70664 40.21029 35.45847
# Shear Modulus (GPa) = 11.66342 21.01999 16.34170
#
# Velocity S-wave (km/s) = 2.37605 3.18977 2.81249
# Velocity P-wave (km/s) = 4.73190 5.74715 5.26406
#
# Compressibility (1/GPa) = 0.03256625
#
# Stress axis : x y z
#
# Youngs Moduli (GPa) = 72.46409 72.46366 28.28927
#
# Poissons Ratio (x) = 0.28762 0.15873
# Poissons Ratio (y) = 0.28762 0.15874
# Poissons Ratio (z) = 0.40660 0.40661
#
# Static dielectric constant tensor:
#      x y z
#    x 1.833300 0.000000 0.000000 
#    y 0.000000 1.833300 0.000000 
#    z 0.000000 0.000000 1.756180 
# 
# From -- ./inp_files/6347.got.cif
#   From: 2010.05.17/outbox.cif.g08.bks.cpg/sg121_4_cif.got.tgz:6347.got - 2010.05.20 11:32:06.
