data_PCOD9560701
_publ_section_title
;
Structure prediction by ZEFSAII (Michael W. Deem and Ramdas Pophale) SiO2 
 PCOD9560701
Probable space group: I -4 2 D
;
_chemical_formula_sum "Si O2"
_cell_formula_units_Z 72
_cell_length_a 10.702500
_cell_length_b 10.702500
_cell_length_c 34.920679
_cell_angle_alpha 90.000000
_cell_angle_beta 90.000000
_cell_angle_gamma 90.000000
_cell_volume 3999.937013
_symmetry_space_group_name_H-M "I -4 2 D"
_symmetry_group_IT_number 122
_symmetry_cell_setting 'tetragonal'
loop_
_space_group_symop_operation_xyz
x,y,z
y,-x,-z
-x,-y,z
-y,x,-z
x,1/2-y,1/4-z
-x,1/2+y,1/4-z
-y,1/2-x,1/4+z
y,1/2+x,1/4+z
1/2+x,1/2+y,1/2+z
1/2+y,1/2-x,1/2-z
1/2-x,1/2-y,1/2+z
1/2-y,1/2+x,1/2-z
1/2+x,-y,3/4-z
1/2-x,y,3/4-z
1/2-y,-x,3/4+z
1/2+y,x,3/4+z
loop_
_atom_site_type_symbol
_atom_site_label
_atom_site_fract_x
_atom_site_fract_y
_atom_site_fract_z
Si Si1 0.432185 0.617958 0.434138
Si Si2 0.137021 0.204263 0.665673
Si Si3 0.642612 0.642608 0.011331
Si Si4 0.000000 0.000000 0.282775
Si Si5 0.250742 0.603323 0.504311
O O1 0.500000 0.500000 0.414606
O O2 0.367326 0.729822 0.410707
O O3 0.327552 0.577915 0.465571
O O4 0.540212 0.678844 0.460431
O O5 0.088541 0.250000 0.625000
O O6 0.152083 0.321884 0.694043
O O7 0.048247 0.110229 0.689327
O O8 0.668398 0.497241 0.003268
O O9 0.748147 0.729682 0.992302
O O10 0.956603 0.885990 0.256455
#
# Coordination Sequence:
#
# PCOD9560701 Si02
#       5
#    16  16  16   8  16
#     4  10  18  32  60  81 109 142 189 239 296 342
#     4  10  22  38  57  81 119 157 189 239 299 353
#     4  10  20  34  56  84 113 146 193 244 287 344
#     4  10  20  34  56  82 113 142 196 230 288 357
#     4  10  17  31  53  88 102 140 182 244 287 335
#
# _framework density 18.000284000000001
#
# number of rings (size 3 to 8) (size 9 to 14) (size 15 to 20)
#    0.000    2.000    4.444    0.000    0.000    1.778 
#    0.000    0.000   14.667    0.000    0.000    0.000 
#    0.000    0.000    0.000    0.000    0.000    0.000 
#
# Total GULP energy -200547.427612 kJ/mol
# GULP energy per Si atom -5570.761878 kJ/mol
# Density = 1.795931 g / cm^3
# Si number density = 18.000284 Si / 1000 Ang^3
#
#
#
# Elastic Constant Matrix: (Units=GPa)
#
#
# Indices 1 2 3 4 5 6 
#
# 1 95.6311 24.2213 19.8542 0.0000 0.0000 0.0000
# 2 24.2213 95.6311 19.8542 0.0000 0.0000 0.0000
# 3 19.8542 19.8542 44.1562 0.0000 0.0000 0.0000
# 4 0.0000 0.0000 0.0000 14.0132 0.0000 0.0000
# 5 0.0000 0.0000 0.0000 0.0000 14.0132 0.0000
# 6 0.0000 0.0000 0.0000 0.0000 0.0000 31.4443
#
#
#
# Elastic Compliance Matrix: (Units=1/GPa)
#
#
# Indices 1 2 3 4 5 6 
#
# 1 0.011904 -0.002100 -0.004408 0.000000 0.000000 0.000000
# 2 -0.002100 0.011904 -0.004408 0.000000 0.000000 0.000000
# 3 -0.004408 -0.004408 0.026611 0.000000 0.000000 0.000000
# 4 0.000000 0.000000 0.000000 0.071361 0.000000 0.000000
# 5 0.000000 0.000000 0.000000 0.000000 0.071361 0.000000
# 6 0.000000 0.000000 0.000000 0.000000 0.000000 0.031802
#
#
# Mechanical properties :
#
#
# Convention : Reuss Voigt Hill
#
# Bulk Modulus (GPa) = 34.98186 40.36418 37.67302
# Shear Modulus (GPa) = 19.50800 23.32673 21.41737
#
# Velocity S-wave (km/s) = 3.29562 3.60378 3.45314
# Velocity P-wave (km/s) = 5.82733 6.30787 6.07235
#
# Compressibility (1/GPa) = 0.02858624
#
# Stress axis : x y z
#
# Youngs Moduli (GPa) = 84.00621 84.00621 37.57828
#
# Poissons Ratio (x) = 0.17639 0.16566
# Poissons Ratio (y) = 0.17639 0.16566
# Poissons Ratio (z) = 0.37032 0.37032
#
# Static dielectric constant tensor:
#      x y z
#    x 1.663420 0.000000 0.000000 
#    y 0.000000 1.663420 0.000000 
#    z 0.000000 0.000000 1.565650 
# 
# From -- ./inp_files/9270.got.cif
#   From: 2010.05.17/outbox.cif.g08.bks.cpg/sg122_5_cif.got.tgz:9270.got - 2010.05.20 11:37:33.
