data_PCOD9560834
_publ_section_title
;
Structure prediction by ZEFSAII (Michael W. Deem and Ramdas Pophale) SiO2 
 PCOD9560834
Probable space group: I -4 2 D
;
_chemical_formula_sum "Si O2"
_cell_formula_units_Z 104
_cell_length_a 31.902753
_cell_length_b 31.902753
_cell_length_c 5.322909
_cell_angle_alpha 90.000000
_cell_angle_beta 90.000000
_cell_angle_gamma 90.000000
_cell_volume 5417.580391
_symmetry_space_group_name_H-M "I -4 2 D"
_symmetry_group_IT_number 122
_symmetry_cell_setting 'tetragonal'
loop_
_space_group_symop_operation_xyz
x,y,z
y,-x,-z
-x,-y,z
-y,x,-z
x,1/2-y,1/4-z
-x,1/2+y,1/4-z
-y,1/2-x,1/4+z
y,1/2+x,1/4+z
1/2+x,1/2+y,1/2+z
1/2+y,1/2-x,1/2-z
1/2-x,1/2-y,1/2+z
1/2-y,1/2+x,1/2-z
1/2+x,-y,3/4-z
1/2-x,y,3/4-z
1/2-y,-x,3/4+z
1/2+y,x,3/4+z
loop_
_atom_site_type_symbol
_atom_site_label
_atom_site_fract_x
_atom_site_fract_y
_atom_site_fract_z
Si Si1 0.322611 0.075233 0.567607
Si Si2 0.524293 0.113682 0.631502
Si Si3 0.776557 0.411623 0.631745
Si Si4 0.392377 0.130483 0.371041
Si Si5 0.901509 0.061001 0.127632
Si Si6 0.750000 0.933274 0.875000
Si Si7 0.310135 0.005763 0.190929
O O1 0.356889 0.062019 0.771656
O O2 0.348492 0.104760 0.379307
O O3 0.280319 0.092534 0.690537
O O4 0.310005 0.030179 0.452229
O O5 0.549302 0.071220 0.576405
O O6 0.488193 0.106442 0.835576
O O7 0.505762 0.142085 0.409268
O O8 0.750000 0.410379 0.375000
O O9 0.819849 0.386402 0.604991
O O10 0.791289 0.459673 0.682878
O O11 0.750000 0.398344 0.875000
O O12 0.419073 0.115004 0.613778
O O13 0.417705 0.121430 0.114359
O O14 0.781254 0.963933 0.726871
#
# Coordination Sequence:
#
# PCOD9560834 Si02
#       7
#    16  16  16  16  16   8  16
#     4  10  21  36  58  86 119 161 197 251 314 383
#     4  10  22  35  56  79 113 162 213 255 309 354
#     4  12  24  37  59  89 121 159 199 248 308 374
#     4  11  23  40  60  82 124 161 201 249 312 381
#     4  11  22  38  57  82 114 164 215 257 306 356
#     4  10  20  32  56  90 116 146 194 250 312 374
#     4  11  19  36  55  83 121 150 197 255 313 367
#
# _framework density 19.196760000000001
#
# number of rings (size 3 to 8) (size 9 to 14) (size 15 to 20)
#    0.000    1.231    3.846    3.231    2.154    0.308 
#    0.000    0.000    0.000    1.846    0.000    0.000 
#    4.615    0.000    0.000    0.000    0.000    0.000 
#
# Total GULP energy -289963.320430 kJ/mol
# GULP energy per Si atom -5576.217701 kJ/mol
# Density = 1.915307 g / cm^3
# Si number density = 19.196760 Si / 1000 Ang^3
#
#
#
# Elastic Constant Matrix: (Units=GPa)
#
#
# Indices 1 2 3 4 5 6 
#
# 1 72.9427 34.3262 22.1819 0.0000 0.0000 0.0000
# 2 34.3262 72.9427 22.1819 0.0000 0.0000 0.0000
# 3 22.1819 22.1819 88.2389 0.0000 0.0000 0.0000
# 4 0.0000 0.0000 0.0000 25.9056 0.0000 0.0000
# 5 0.0000 0.0000 0.0000 0.0000 25.9056 0.0000
# 6 0.0000 0.0000 0.0000 0.0000 0.0000 7.8660
#
#
#
# Elastic Compliance Matrix: (Units=1/GPa)
#
#
# Indices 1 2 3 4 5 6 
#
# 1 0.018150 -0.007746 -0.002615 0.000000 0.000000 0.000000
# 2 -0.007746 0.018150 -0.002615 0.000000 0.000000 0.000000
# 3 -0.002615 -0.002615 0.012648 0.000000 0.000000 0.000000
# 4 0.000000 0.000000 0.000000 0.038602 0.000000 0.000000
# 5 0.000000 0.000000 0.000000 0.000000 0.038602 0.000000
# 6 0.000000 0.000000 0.000000 0.000000 0.000000 0.127129
#
#
# Mechanical properties :
#
#
# Convention : Reuss Voigt Hill
#
# Bulk Modulus (GPa) = 43.48918 43.50049 43.49483
# Shear Modulus (GPa) = 17.42779 22.29772 19.86276
#
# Velocity S-wave (km/s) = 3.01632 3.41183 3.22015
# Velocity P-wave (km/s) = 5.90208 6.18306 6.04421
#
# Compressibility (1/GPa) = 0.02299423
#
# Stress axis : x y z
#
# Youngs Moduli (GPa) = 55.09690 55.09690 79.06498
#
# Poissons Ratio (x) = 0.42677 0.20679
# Poissons Ratio (y) = 0.42677 0.20679
# Poissons Ratio (z) = 0.14410 0.14410
#
# Static dielectric constant tensor:
#      x y z
#    x 1.752610 0.000000 0.000000 
#    y 0.000000 1.752610 0.000000 
#    z 0.000000 0.000000 1.774390 
# 
# From -- ./inp_files/1519.got.cif
#   From: 2010.05.17/outbox.cif.g08.bks.cpg/sg122_1_cif.got.tgz:1519.got - 2010.05.20 11:37:33.
