data_PCOD9560212
_publ_section_title
;
Structure prediction by ZEFSAII (Michael W. Deem and Ramdas Pophale) SiO2 
 PCOD9560212
Probable space group: I -4 2 M
;
_chemical_formula_sum "Si O2"
_cell_formula_units_Z 96
_cell_length_a 16.161623
_cell_length_b 16.161623
_cell_length_c 22.194508
_cell_angle_alpha 90.000000
_cell_angle_beta 90.000000
_cell_angle_gamma 90.000000
_cell_volume 5797.162388
_symmetry_space_group_name_H-M "I -4 2 M"
_symmetry_group_IT_number 121
_symmetry_cell_setting 'tetragonal'
loop_
_space_group_symop_operation_xyz
x,y,z
y,-x,-z
-x,-y,z
-y,x,-z
x,-y,-z
-x,y,-z
-y,-x,z
y,x,z
1/2+x,1/2+y,1/2+z
1/2+y,1/2-x,1/2-z
1/2-x,1/2-y,1/2+z
1/2-y,1/2+x,1/2-z
1/2+x,1/2-y,1/2-z
1/2-x,1/2+y,1/2-z
1/2-y,1/2-x,1/2+z
1/2+y,1/2+x,1/2+z
loop_
_atom_site_type_symbol
_atom_site_label
_atom_site_fract_x
_atom_site_fract_y
_atom_site_fract_z
Si Si1 0.250115 0.613499 0.162100
Si Si2 0.561461 0.309811 0.808797
Si Si3 0.091149 0.773165 0.527024
Si Si4 0.417426 0.950024 0.847531
Si Si5 0.841633 0.584884 0.270045
Si Si6 0.206843 0.338205 0.092320
O O1 0.304080 0.695921 0.162548
O O2 0.303265 0.536259 0.185490
O O3 0.230175 0.592080 0.092362
O O4 0.171446 0.626336 0.204299
O O5 0.600081 0.399920 0.803903
O O6 0.589823 0.251593 0.753716
O O7 0.602202 0.266213 0.867641
O O8 0.139755 0.860246 0.533945
O O9 0.141045 0.721335 0.477336
O O10 0.000000 0.784829 0.500000
O O11 0.441965 0.895261 0.788640
O O12 0.367483 0.885144 0.889087
O O13 0.500000 0.000000 0.869077
O O14 0.355159 0.018331 0.821907
O O15 0.246026 0.246026 0.104030
#
# Coordination Sequence:
#
# PCOD9560212 Si02
#       6
#    16  16  16  16  16  16
#     4  11  22  34  52  74 100 136 176 212 256 316
#     4  10  19  32  50  71  99 131 168 211 250 302
#     4  10  20  34  50  69  99 135 174 215 253 303
#     4  11  18  30  54  76 102 132 169 214 262 314
#     4  11  18  34  49  75 102 131 167 209 266 310
#     4   9  19  34  51  72 102 138 171 208 260 310
#
# _framework density 16.559826999999999
#
# number of rings (size 3 to 8) (size 9 to 14) (size 15 to 20)
#    0.000    1.667    5.000    1.500    0.000    1.167 
#    0.000    2.500    0.000    0.000    0.000    0.000 
#    0.000    0.000    0.000    0.000    0.000   11.333 
#
# Total GULP energy -267405.899015 kJ/mol
# GULP energy per Si atom -5570.956229 kJ/mol
# Density = 1.652214 g / cm^3
# Si number density = 16.559827 Si / 1000 Ang^3
#
#
#
# Elastic Constant Matrix: (Units=GPa)
#
#
# Indices 1 2 3 4 5 6 
#
# 1 50.6792 34.4228 24.9971 0.0000 0.0000 0.0000
# 2 34.4228 50.6713 24.9955 0.0000 0.0000 0.0000
# 3 24.9971 24.9955 55.8164 0.0000 0.0000 0.0000
# 4 0.0000 0.0000 0.0000 17.8905 0.0000 0.0000
# 5 0.0000 0.0000 0.0000 0.0000 17.8912 0.0000
# 6 0.0000 0.0000 0.0000 0.0000 0.0000 25.7023
#
#
#
# Elastic Compliance Matrix: (Units=1/GPa)
#
#
# Indices 1 2 3 4 5 6 
#
# 1 0.038735 -0.022791 -0.007141 0.000000 0.000000 0.000000
# 2 -0.022791 0.038741 -0.007142 0.000000 0.000000 0.000000
# 3 -0.007141 -0.007142 0.024312 0.000000 0.000000 0.000000
# 4 0.000000 0.000000 0.000000 0.055896 0.000000 0.000000
# 5 0.000000 0.000000 0.000000 0.000000 0.055893 0.000000
# 6 0.000000 0.000000 0.000000 0.000000 0.000000 0.038907
#
#
# Mechanical properties :
#
#
# Convention : Reuss Voigt Hill
#
# Bulk Modulus (GPa) = 36.17979 36.22197 36.20088
# Shear Modulus (GPa) = 14.88779 17.14688 16.01734
#
# Velocity S-wave (km/s) = 3.00164 3.22133 3.11342
# Velocity P-wave (km/s) = 5.82310 5.97970 5.90192
#
# Compressibility (1/GPa) = 0.02763974
#
# Stress axis : x y z
#
# Youngs Moduli (GPa) = 25.81663 25.81233 41.13182
#
# Poissons Ratio (x) = 0.58830 0.29371
# Poissons Ratio (y) = 0.58840 0.29376
# Poissons Ratio (z) = 0.18435 0.18435
#
# Static dielectric constant tensor:
#      x y z
#    x 1.570350 0.000000 0.000000 
#    y 0.000000 1.570350 0.000000 
#    z 0.000000 0.000000 1.567720 
# 
# From -- ./inp_files/6456.got.cif
#   From: 2010.05.17/outbox.cif.g08.bks.cpg/sg121_4_cif.got.tgz:6456.got - 2010.05.20 11:32:06.
