data_PCOD9560434
_publ_section_title
;
Structure prediction by ZEFSAII (Michael W. Deem and Ramdas Pophale) SiO2 
 PCOD9560434
Probable space group: I -4 2 M
;
_chemical_formula_sum "Si O2"
_cell_formula_units_Z 96
_cell_length_a 20.683271
_cell_length_b 20.683271
_cell_length_c 11.757123
_cell_angle_alpha 90.000000
_cell_angle_beta 90.000000
_cell_angle_gamma 90.000000
_cell_volume 5029.670169
_symmetry_space_group_name_H-M "I -4 2 M"
_symmetry_group_IT_number 121
_symmetry_cell_setting 'tetragonal'
loop_
_space_group_symop_operation_xyz
x,y,z
y,-x,-z
-x,-y,z
-y,x,-z
x,-y,-z
-x,y,-z
-y,-x,z
y,x,z
1/2+x,1/2+y,1/2+z
1/2+y,1/2-x,1/2-z
1/2-x,1/2-y,1/2+z
1/2-y,1/2+x,1/2-z
1/2+x,1/2-y,1/2-z
1/2-x,1/2+y,1/2-z
1/2-y,1/2-x,1/2+z
1/2+y,1/2+x,1/2+z
loop_
_atom_site_type_symbol
_atom_site_label
_atom_site_fract_x
_atom_site_fract_y
_atom_site_fract_z
Si Si1 0.148296 0.747957 0.845035
Si Si2 0.676535 0.570086 0.469495
Si Si3 0.347809 0.755364 0.945213
Si Si4 0.304851 0.935016 0.642093
Si Si5 0.727740 0.064082 0.242664
Si Si6 0.556838 0.074221 0.707825
O O1 0.202835 0.797166 0.798434
O O2 0.185000 0.701661 0.933700
O O3 0.114633 0.707638 0.746098
O O4 0.097393 0.788718 0.917603
O O5 0.648759 0.500000 0.500000
O O6 0.621925 0.621925 0.435994
O O7 0.730750 0.562102 0.371809
O O8 0.307297 0.692704 0.980084
O O9 0.377112 0.748087 0.819727
O O10 0.403564 0.774778 0.031286
O O11 0.382351 0.946135 0.628750
O O12 0.268313 0.999132 0.682392
O O13 0.650447 0.068179 0.222692
O O14 0.478913 0.067249 0.689243
#
# Coordination Sequence:
#
# PCOD9560434 Si02
#       6
#    16  16  16  16  16  16
#     4  10  21  36  57  84 114 150 195 243 297 350
#     4  11  23  41  64  90 116 150 195 250 312 369
#     4  11  23  37  56  86 122 158 198 248 300 353
#     4  11  20  37  58  83 118 158 201 241 294 353
#     4  11  21  38  61  85 118 156 199 243 297 363
#     4   9  19  35  56  82 117 157 198 241 282 338
#
# _framework density 19.086738
#
# number of rings (size 3 to 8) (size 9 to 14) (size 15 to 20)
#    0.000    1.500    3.333    2.500    0.000    0.167 
#    0.000    0.833    0.000    4.000    0.000    0.000 
#    0.000    2.667    0.000    0.000    0.000    0.000 
#
# Total GULP energy -267464.387721 kJ/mol
# GULP energy per Si atom -5572.174744 kJ/mol
# Density = 1.904330 g / cm^3
# Si number density = 19.086738 Si / 1000 Ang^3
#
#
#
# Elastic Constant Matrix: (Units=GPa)
#
#
# Indices 1 2 3 4 5 6 
#
# 1 87.7387 36.3891 20.1495 0.0000 0.0000 0.0000
# 2 36.3891 87.7379 20.1530 0.0000 0.0000 0.0000
# 3 20.1495 20.1530 38.8325 0.0000 0.0000 0.0000
# 4 0.0000 0.0000 0.0000 16.5612 0.0000 0.0000
# 5 0.0000 0.0000 0.0000 0.0000 16.5635 0.0000
# 6 0.0000 0.0000 0.0000 0.0000 0.0000 24.1588
#
#
#
# Elastic Compliance Matrix: (Units=1/GPa)
#
#
# Indices 1 2 3 4 5 6 
#
# 1 0.014581 -0.004893 -0.005027 0.000000 0.000000 0.000000
# 2 -0.004893 0.014582 -0.005029 0.000000 0.000000 0.000000
# 3 -0.005027 -0.005029 0.030970 0.000000 0.000000 0.000000
# 4 0.000000 0.000000 0.000000 0.060382 0.000000 0.000000
# 5 0.000000 0.000000 0.000000 0.000000 0.060374 0.000000
# 6 0.000000 0.000000 0.000000 0.000000 0.000000 0.041393
#
#
# Mechanical properties :
#
#
# Convention : Reuss Voigt Hill
#
# Bulk Modulus (GPa) = 33.07299 40.85471 36.96385
# Shear Modulus (GPa) = 19.06527 20.63119 19.84823
#
# Velocity S-wave (km/s) = 3.16393 3.29130 3.22824
# Velocity P-wave (km/s) = 5.54190 5.99122 5.77093
#
# Compressibility (1/GPa) = 0.03023615
#
# Stress axis : x y z
#
# Youngs Moduli (GPa) = 68.58158 68.57770 32.28962
#
# Poissons Ratio (x) = 0.33554 0.16231
# Poissons Ratio (y) = 0.33556 0.16238
# Poissons Ratio (z) = 0.34474 0.34486
#
# Static dielectric constant tensor:
#      x y z
#    x 1.686790 0.000000 0.000000 
#    y 0.000000 1.686790 0.000000 
#    z 0.000000 0.000000 1.660250 
# 
# From -- ./inp_files/3298.got.cif
#   From: 2010.05.17/outbox.cif.g08.bks.cpg/sg121_2_cif.got.tgz:3298.got - 2010.05.20 11:32:06.
