data_PCOD9560863
_publ_section_title
;
Structure prediction by ZEFSAII (Michael W. Deem and Ramdas Pophale) SiO2 
 PCOD9560863
Probable space group: I -4 2 D
;
_chemical_formula_sum "Si O2"
_cell_formula_units_Z 128
_cell_length_a 22.074824
_cell_length_b 22.074824
_cell_length_c 12.043381
_cell_angle_alpha 90.000000
_cell_angle_beta 90.000000
_cell_angle_gamma 90.000000
_cell_volume 5868.713724
_symmetry_space_group_name_H-M "I -4 2 D"
_symmetry_group_IT_number 122
_symmetry_cell_setting 'tetragonal'
loop_
_space_group_symop_operation_xyz
x,y,z
y,-x,-z
-x,-y,z
-y,x,-z
x,1/2-y,1/4-z
-x,1/2+y,1/4-z
-y,1/2-x,1/4+z
y,1/2+x,1/4+z
1/2+x,1/2+y,1/2+z
1/2+y,1/2-x,1/2-z
1/2-x,1/2-y,1/2+z
1/2-y,1/2+x,1/2-z
1/2+x,-y,3/4-z
1/2-x,y,3/4-z
1/2-y,-x,3/4+z
1/2+y,x,3/4+z
loop_
_atom_site_type_symbol
_atom_site_label
_atom_site_fract_x
_atom_site_fract_y
_atom_site_fract_z
Si Si1 0.047895 0.089274 0.978157
Si Si2 0.600860 0.820757 0.588136
Si Si3 0.073703 0.733159 0.000909
Si Si4 0.796634 0.031793 0.622920
Si Si5 0.308569 0.868087 0.302241
Si Si6 0.178839 0.736028 0.404301
Si Si7 0.909394 0.597987 0.515253
Si Si8 0.490124 0.582509 0.941764
O O1 0.058465 0.110613 0.850828
O O2 0.079065 0.136758 0.061728
O O3 0.976921 0.079396 0.006359
O O4 0.598628 0.750000 0.625000
O O5 0.556123 0.827706 0.484911
O O6 0.669487 0.834883 0.548337
O O7 0.057976 0.750000 0.125000
O O8 0.136337 0.759829 0.954790
O O9 0.084271 0.661145 0.005702
O O10 0.018481 0.749815 0.917653
O O11 0.785833 0.091423 0.550516
O O12 0.846026 0.994099 0.554055
O O13 0.250000 0.856724 0.375000
O O14 0.333249 0.799564 0.280451
O O15 0.352916 0.905535 0.384791
O O16 0.250000 0.733721 0.375000
O O17 0.935835 0.538683 0.574895
O O18 0.554760 0.552942 0.964083
#
# Coordination Sequence:
#
# PCOD9560863 Si02
#       8
#    16  16  16  16  16  16  16  16
#     4  11  25  45  67 103 144 179 227 291 366 430
#     4  11  25  44  69 103 137 183 235 298 360 429
#     4  10  20  39  69  99 132 184 237 283 355 433
#     4  11  23  40  64  98 138 173 229 292 347 426
#     4  10  22  43  64  95 132 181 229 287 358 423
#     4   9  21  44  67  96 138 181 241 295 359 435
#     4  10  21  40  66  93 128 175 228 279 342 417
#     4  10  20  36  61  88 119 167 219 268 326 410
#
# _framework density 21.810572000000001
#
# number of rings (size 3 to 8) (size 9 to 14) (size 15 to 20)
#    0.000    1.750    1.250    2.625    1.750    5.500 
#    6.750    0.000    0.000    0.000    0.000    0.000 
#    0.000    0.000    0.000    0.000    0.000    0.000 
#
# Total GULP energy -356798.598845 kJ/mol
# GULP energy per Si atom -5574.978107 kJ/mol
# Density = 2.176093 g / cm^3
# Si number density = 21.810572 Si / 1000 Ang^3
#
#
#
# Elastic Constant Matrix: (Units=GPa)
#
#
# Indices 1 2 3 4 5 6 
#
# 1 92.3335 23.9241 30.5270 0.0000 0.0000 0.0000
# 2 23.9241 92.3335 30.5270 0.0000 0.0000 0.0000
# 3 30.5270 30.5270 80.8784 0.0000 0.0000 0.0000
# 4 0.0000 0.0000 0.0000 28.1628 0.0000 0.0000
# 5 0.0000 0.0000 0.0000 0.0000 28.1628 0.0000
# 6 0.0000 0.0000 0.0000 0.0000 0.0000 25.0701
#
#
#
# Elastic Compliance Matrix: (Units=1/GPa)
#
#
# Indices 1 2 3 4 5 6 
#
# 1 0.012673 -0.001945 -0.004049 0.000000 0.000000 0.000000
# 2 -0.001945 0.012673 -0.004049 0.000000 0.000000 0.000000
# 3 -0.004049 -0.004049 0.015421 0.000000 0.000000 0.000000
# 4 0.000000 0.000000 0.000000 0.035508 0.000000 0.000000
# 5 0.000000 0.000000 0.000000 0.000000 0.035508 0.000000
# 6 0.000000 0.000000 0.000000 0.000000 0.000000 0.039888
#
#
# Mechanical properties :
#
#
# Convention : Reuss Voigt Hill
#
# Bulk Modulus (GPa) = 48.35551 48.38906 48.37229
# Shear Modulus (GPa) = 27.98753 28.31695 28.15224
#
# Velocity S-wave (km/s) = 3.58608 3.60712 3.59661
# Velocity P-wave (km/s) = 6.27419 6.29147 6.28284
#
# Compressibility (1/GPa) = 0.02068017
#
# Stress axis : x y z
#
# Youngs Moduli (GPa) = 78.90799 78.90799 64.84674
#
# Poissons Ratio (x) = 0.15347 0.26258
# Poissons Ratio (y) = 0.15347 0.26258
# Poissons Ratio (z) = 0.31952 0.31952
#
# Static dielectric constant tensor:
#      x y z
#    x 1.884930 0.000000 0.000000 
#    y 0.000000 1.884930 0.000000 
#    z 0.000000 0.000000 1.794860 
# 
# From -- ./inp_files/4643.got.cif
#   From: 2010.05.17/outbox.cif.g08.bks.cpg/sg122_3_cif.got.tgz:4643.got - 2010.05.20 11:37:33.
