data_PCOD9560679
_publ_section_title
;
Structure prediction by ZEFSAII (Michael W. Deem and Ramdas Pophale) SiO2 
 PCOD9560679
Probable space group: I -4 2 M
;
_chemical_formula_sum "Si O2"
_cell_formula_units_Z 30
_cell_length_a 15.000000
_cell_length_b 15.000000
_cell_length_c 15.000000
_cell_angle_alpha 90.000000
_cell_angle_beta 90.000000
_cell_angle_gamma 90.000000
_cell_volume 3375.000000
_symmetry_space_group_name_H-M "I -4 2 M"
_symmetry_group_IT_number 121
_symmetry_cell_setting 'tetragonal'
loop_
_space_group_symop_operation_xyz
x,y,z
y,-x,-z
-x,-y,z
-y,x,-z
x,-y,-z
-x,y,-z
-y,-x,z
y,x,z
1/2+x,1/2+y,1/2+z
1/2+y,1/2-x,1/2-z
1/2-x,1/2-y,1/2+z
1/2-y,1/2+x,1/2-z
1/2+x,1/2-y,1/2-z
1/2-x,1/2+y,1/2-z
1/2-y,1/2-x,1/2+z
1/2+y,1/2+x,1/2+z
loop_
_atom_site_type_symbol
_atom_site_label
_atom_site_fract_x
_atom_site_fract_y
_atom_site_fract_z
Si Si1 0.334300 0.665701 0.750833
Si Si2 0.376153 0.884388 0.622879
Si Si3 0.760523 0.491656 0.262533
Si Si4 0.000000 0.500000 0.000000
Si Si5 0.220615 0.220615 0.945428
Si Si6 0.806789 0.806789 0.155114
O O1 0.435374 0.691131 0.774743
O O2 0.326221 0.673780 0.641648
O O3 0.263591 0.736410 0.796745
O O4 0.445775 0.822642 0.676377
O O5 0.322581 0.948545 0.687941
O O6 0.436240 0.939759 0.557781
O O7 0.306096 0.822400 0.571131
O O8 0.718379 0.406754 0.313243
O O9 0.197171 0.197171 0.047322
#
# Coordination Sequence:
#
# PCOD9560679 Si02
#       6
#     8  16  16   4   8   8
#     4  10  24  41  59  97 125 163 214 257 311 380
#     4  11  22  38  59  94 126 164 213 261 317 376
#     4  11  21  42  64  87 129 168 209 261 321 374
#     4  12  24  30  56 100 120 158 216 268 306 380
#     4  10  22  40  61  88 129 161 208 252 320 379
#     4  12  22  41  66  89 126 174 198 271 319 367
#
# _framework density 8.8888890000000007
#
# number of rings (size 3 to 8) (size 9 to 14) (size 15 to 20)
#    0.000    1.067    5.333    3.200    3.733    3.733 
#    0.000    0.000    0.000    6.400    0.000    0.000 
#    0.000    0.000    0.000    0.000    0.000    0.000 
#
# Total GULP energy -167229.976486 kJ/mol
# GULP energy per Si atom -5574.332550 kJ/mol
# Density = 0.886866 g / cm^3
# Si number density = 8.888889 Si / 1000 Ang^3
#
#
#
# Elastic Constant Matrix: (Units=GPa)
#
#
# Indices 1 2 3 4 5 6 
#
# 1 145.5896 92.0844 64.6953 0.0000 0.0000 0.0000
# 2 92.0844 145.5867 64.6947 0.0000 0.0000 0.0000
# 3 64.6953 64.6947 78.1998 0.0000 0.0000 0.0000
# 4 0.0000 0.0000 0.0000 306.1003 0.0000 0.0000
# 5 0.0000 0.0000 0.0000 0.0000 306.0071 0.0000
# 6 0.0000 0.0000 0.0000 0.0000 0.0000 -139.2012
#
#
#
# Elastic Compliance Matrix: (Units=1/GPa)
#
#
# Indices 1 2 3 4 5 6 
#
# 1 0.013173 -0.005517 -0.006333 0.000000 0.000000 0.000000
# 2 -0.005517 0.013173 -0.006333 0.000000 0.000000 0.000000
# 3 -0.006333 -0.006333 0.023267 0.000000 0.000000 0.000000
# 4 0.000000 0.000000 0.000000 0.003267 0.000000 0.000000
# 5 0.000000 0.000000 0.000000 0.000000 0.003268 0.000000
# 6 0.000000 0.000000 0.000000 0.000000 0.000000 -0.007184
#
#
# Mechanical properties :
#
#
# Convention : Reuss Voigt Hill
#
# Bulk Modulus (GPa) = 75.50368 90.25830 82.88099
# Shear Modulus (GPa) = 55.71255 104.44136 80.07696
#
# Velocity S-wave (km/s) = 5.60414 7.67306 6.71871
# Velocity P-wave (km/s) = 9.18902 11.37460 10.33972
#
# Compressibility (1/GPa) = 0.01324439
#
# Stress axis : x y z
#
# Youngs Moduli (GPa) = 75.91471 75.91316 42.97953
#
# Poissons Ratio (x) = 0.41885 0.27220
# Poissons Ratio (y) = 0.41886 0.27220
# Poissons Ratio (z) = 0.48079 0.48078
#
# Static dielectric constant tensor:
#      x y z
#    x 1.563790 0.000000 0.000000 
#    y 0.000000 1.563810 0.000000 
#    z 0.000000 0.000000 2.265480 
# 
# From -- ./inp_files/4124.got.cif
#   From: 2010.05.17/outbox.ucp.g08.bks.cvg/sg121_3_cif.got.tgz:4124.got - 2010.06.11 11:35:03.
