data_PCOD9560425
_publ_section_title
;
Structure prediction by ZEFSAII (Michael W. Deem and Ramdas Pophale) SiO2 
 PCOD9560425
Probable space group: I -4 2 M
;
_chemical_formula_sum "Si O2"
_cell_formula_units_Z 64
_cell_length_a 25.007462
_cell_length_b 25.007462
_cell_length_c 4.949844
_cell_angle_alpha 90.000000
_cell_angle_beta 90.000000
_cell_angle_gamma 90.000000
_cell_volume 3095.499562
_symmetry_space_group_name_H-M "I -4 2 M"
_symmetry_group_IT_number 121
_symmetry_cell_setting 'tetragonal'
loop_
_space_group_symop_operation_xyz
x,y,z
y,-x,-z
-x,-y,z
-y,x,-z
x,-y,-z
-x,y,-z
-y,-x,z
y,x,z
1/2+x,1/2+y,1/2+z
1/2+y,1/2-x,1/2-z
1/2-x,1/2-y,1/2+z
1/2-y,1/2+x,1/2-z
1/2+x,1/2-y,1/2-z
1/2-x,1/2+y,1/2-z
1/2-y,1/2-x,1/2+z
1/2+y,1/2+x,1/2+z
loop_
_atom_site_type_symbol
_atom_site_label
_atom_site_fract_x
_atom_site_fract_y
_atom_site_fract_z
Si Si1 0.147058 0.307272 0.690340
Si Si2 0.701057 0.614716 0.504067
Si Si3 0.555432 0.103232 0.863186
Si Si4 0.649955 0.437041 0.009861
O O1 0.169551 0.306127 0.386657
O O2 0.125973 0.255976 0.848868
O O3 0.097503 0.348212 0.658831
O O4 0.670839 0.670839 0.553720
O O5 0.696691 0.581290 0.780999
O O6 0.666811 0.581591 0.286755
O O7 0.578563 0.058268 0.066044
O O8 0.500000 0.120480 0.000000
O O9 0.597619 0.402382 0.090205
O O10 0.641264 0.500000 0.000000
#
# Coordination Sequence:
#
# PCOD9560425 Si02
#       4
#    16  16  16  16
#     4  10  21  37  56  81 114 150 190 237 289 346
#     4  10  21  37  58  85 116 150 192 240 287 343
#     4  10  21  36  54  78 108 143 186 235 286 343
#     4  10  21  38  59  86 119 153 193 240 289 346
#
# _framework density 20.675176
#
# number of rings (size 3 to 8) (size 9 to 14) (size 15 to 20)
#    0.000    2.000    0.000    3.000    0.000    3.750 
#    0.000    7.500    0.000    4.500    0.000    0.000 
#    0.000    0.000    0.000    0.000    0.000    0.000 
#
# Total GULP energy -178390.103240 kJ/mol
# GULP energy per Si atom -5574.690726 kJ/mol
# Density = 2.062812 g / cm^3
# Si number density = 20.675176 Si / 1000 Ang^3
#
#
#
# Elastic Constant Matrix: (Units=GPa)
#
#
# Indices 1 2 3 4 5 6 
#
# 1 78.8431 6.8779 11.8278 0.0000 0.0000 0.0000
# 2 6.8779 78.8476 11.8300 0.0000 0.0000 0.0000
# 3 11.8278 11.8300 99.7614 0.0000 0.0000 0.0000
# 4 0.0000 0.0000 0.0000 30.7038 0.0000 0.0000
# 5 0.0000 0.0000 0.0000 0.0000 30.7050 0.0000
# 6 0.0000 0.0000 0.0000 0.0000 0.0000 5.7961
#
#
#
# Elastic Compliance Matrix: (Units=1/GPa)
#
#
# Indices 1 2 3 4 5 6 
#
# 1 0.012978 -0.000918 -0.001430 0.000000 0.000000 0.000000
# 2 -0.000918 0.012977 -0.001430 0.000000 0.000000 0.000000
# 3 -0.001430 -0.001430 0.010363 0.000000 0.000000 0.000000
# 4 0.000000 0.000000 0.000000 0.032569 0.000000 0.000000
# 5 0.000000 0.000000 0.000000 0.000000 0.032568 0.000000
# 6 0.000000 0.000000 0.000000 0.000000 0.000000 0.172529
#
#
# Mechanical properties :
#
#
# Convention : Reuss Voigt Hill
#
# Bulk Modulus (GPa) = 34.76657 35.39150 35.07903
# Shear Modulus (GPa) = 17.17459 28.56874 22.87166
#
# Velocity S-wave (km/s) = 2.88529 3.72128 3.32962
# Velocity P-wave (km/s) = 5.28696 5.96816 5.63786
#
# Compressibility (1/GPa) = 0.02876326
#
# Stress axis : x y z
#
# Youngs Moduli (GPa) = 77.05367 77.05761 96.49690
#
# Poissons Ratio (x) = 0.07070 0.13798
# Poissons Ratio (y) = 0.07070 0.13800
# Poissons Ratio (z) = 0.11018 0.11020
#
# Static dielectric constant tensor:
#      x y z
#    x 1.743890 0.000000 0.000000 
#    y 0.000000 1.743890 0.000000 
#    z 0.000000 0.000000 1.725470 
# 
# From -- ./inp_files/458.got.cif
#   From: 2010.05.17/outbox.cif.g08.bks.cpg/sg121_1_cif.got.tgz:458.got - 2010.05.20 11:32:06.
