data_PCOD9560731
_publ_section_title
;
Structure prediction by ZEFSAII (Michael W. Deem and Ramdas Pophale) SiO2 
 PCOD9560731
Probable space group: I -4 2 D
;
_chemical_formula_sum "Si O2"
_cell_formula_units_Z 64
_cell_length_a 24.527699
_cell_length_b 24.527699
_cell_length_c 4.920459
_cell_angle_alpha 90.000000
_cell_angle_beta 90.000000
_cell_angle_gamma 90.000000
_cell_volume 2960.187588
_symmetry_space_group_name_H-M "I -4 2 D"
_symmetry_group_IT_number 122
_symmetry_cell_setting 'tetragonal'
loop_
_space_group_symop_operation_xyz
x,y,z
y,-x,-z
-x,-y,z
-y,x,-z
x,1/2-y,1/4-z
-x,1/2+y,1/4-z
-y,1/2-x,1/4+z
y,1/2+x,1/4+z
1/2+x,1/2+y,1/2+z
1/2+y,1/2-x,1/2-z
1/2-x,1/2-y,1/2+z
1/2-y,1/2+x,1/2-z
1/2+x,-y,3/4-z
1/2-x,y,3/4-z
1/2-y,-x,3/4+z
1/2+y,x,3/4+z
loop_
_atom_site_type_symbol
_atom_site_label
_atom_site_fract_x
_atom_site_fract_y
_atom_site_fract_z
Si Si1 0.984665 0.189236 0.519665
Si Si2 0.106494 0.166787 0.688074
Si Si3 0.693790 0.326021 0.339978
Si Si4 0.837385 0.919773 0.992344
O O1 0.974320 0.250000 0.625000
O O2 0.963896 0.185995 0.213488
O O3 0.047814 0.176424 0.563410
O O4 0.948618 0.151892 0.722233
O O5 0.151324 0.179300 0.456855
O O6 0.112592 0.107401 0.827068
O O7 0.123648 0.203297 0.946920
O O8 0.750000 0.293277 0.375000
O O9 0.635666 0.302771 0.445105
#
# Coordination Sequence:
#
# PCOD9560731 Si02
#       4
#    16  16  16  16
#     4  12  22  37  62  92 117 149 196 252 298 341
#     4  10  21  36  59  86 118 149 194 242 292 346
#     4  10  18  35  58  85 109 152 196 235 282 346
#     4  10  22  37  54  91 123 151 185 252 299 345
#
# _framework density 21.620253999999999
#
# number of rings (size 3 to 8) (size 9 to 14) (size 15 to 20)
#    1.500    0.000    2.500    4.500    0.000    0.000 
#    0.000    0.000    0.000    7.500    0.000    0.000 
#    0.000    0.000    0.000    0.000    0.000    0.000 
#
# Total GULP energy -178157.396894 kJ/mol
# GULP energy per Si atom -5567.418653 kJ/mol
# Density = 2.157105 g / cm^3
# Si number density = 21.620254 Si / 1000 Ang^3
#
#
#
# Elastic Constant Matrix: (Units=GPa)
#
#
# Indices 1 2 3 4 5 6 
#
# 1 39.3902 2.6675 13.9651 0.0000 0.0000 0.0000
# 2 2.6675 39.3902 13.9651 0.0000 0.0000 0.0000
# 3 13.9651 13.9651 142.3002 0.0000 0.0000 0.0000
# 4 0.0000 0.0000 0.0000 27.0821 0.0000 0.0000
# 5 0.0000 0.0000 0.0000 0.0000 27.0821 0.0000
# 6 0.0000 0.0000 0.0000 0.0000 0.0000 29.9576
#
#
#
# Elastic Compliance Matrix: (Units=1/GPa)
#
#
# Indices 1 2 3 4 5 6 
#
# 1 0.026333 -0.000898 -0.002496 0.000000 0.000000 0.000000
# 2 -0.000898 0.026333 -0.002496 0.000000 0.000000 0.000000
# 3 -0.002496 -0.002496 0.007517 0.000000 0.000000 0.000000
# 4 0.000000 0.000000 0.000000 0.036925 0.000000 0.000000
# 5 0.000000 0.000000 0.000000 0.000000 0.036925 0.000000
# 6 0.000000 0.000000 0.000000 0.000000 0.000000 0.033380
#
#
# Mechanical properties :
#
#
# Convention : Reuss Voigt Hill
#
# Bulk Modulus (GPa) = 20.66032 31.36398 26.01215
# Shear Modulus (GPa) = 25.59800 29.52324 27.56062
#
# Velocity S-wave (km/s) = 3.44464 3.69933 3.57425
# Velocity P-wave (km/s) = 5.03959 5.72581 5.39363
#
# Compressibility (1/GPa) = 0.04840195
#
# Stress axis : x y z
#
# Youngs Moduli (GPa) = 37.97548 37.97548 133.02609
#
# Poissons Ratio (x) = 0.03411 0.33205
# Poissons Ratio (y) = 0.03411 0.33205
# Poissons Ratio (z) = 0.09479 0.09479
#
# Static dielectric constant tensor:
#      x y z
#    x 1.842830 0.000000 0.000000 
#    y 0.000000 1.842830 0.000000 
#    z 0.000000 0.000000 1.793380 
# 
# From -- ./inp_files/1074.got.cif
#   From: 2010.05.17/outbox.cif.g08.bks.cpg/sg122_1_cif.got.tgz:1074.got - 2010.05.20 11:37:33.
