data_PCOD9560829
_publ_section_title
;
Structure prediction by ZEFSAII (Michael W. Deem and Ramdas Pophale) SiO2 
 PCOD9560829
Probable space group: I -4 2 D
;
_chemical_formula_sum "Si O2"
_cell_formula_units_Z 112
_cell_length_a 14.491289
_cell_length_b 14.491289
_cell_length_c 31.007238
_cell_angle_alpha 90.000000
_cell_angle_beta 90.000000
_cell_angle_gamma 90.000000
_cell_volume 6511.441125
_symmetry_space_group_name_H-M "I -4 2 D"
_symmetry_group_IT_number 122
_symmetry_cell_setting 'tetragonal'
loop_
_space_group_symop_operation_xyz
x,y,z
y,-x,-z
-x,-y,z
-y,x,-z
x,1/2-y,1/4-z
-x,1/2+y,1/4-z
-y,1/2-x,1/4+z
y,1/2+x,1/4+z
1/2+x,1/2+y,1/2+z
1/2+y,1/2-x,1/2-z
1/2-x,1/2-y,1/2+z
1/2-y,1/2+x,1/2-z
1/2+x,-y,3/4-z
1/2-x,y,3/4-z
1/2-y,-x,3/4+z
1/2+y,x,3/4+z
loop_
_atom_site_type_symbol
_atom_site_label
_atom_site_fract_x
_atom_site_fract_y
_atom_site_fract_z
Si Si1 0.912019 0.563997 0.811381
Si Si2 0.773318 0.580744 0.985974
Si Si3 0.433841 0.286161 0.408979
Si Si4 0.375448 0.054791 0.732688
Si Si5 0.943343 0.782678 0.809940
Si Si6 0.083765 0.430882 0.909764
Si Si7 0.738097 0.795752 0.780405
O O1 0.828889 0.548506 0.778349
O O2 0.939355 0.671156 0.809967
O O3 0.880510 0.550000 0.861174
O O4 0.000000 0.500000 0.803485
O O5 0.839446 0.557547 0.945988
O O6 0.770819 0.692129 0.988799
O O7 0.806696 0.527707 0.028506
O O8 0.501932 0.341698 0.440374
O O9 0.448212 0.313808 0.359496
O O10 0.449441 0.175657 0.411770
O O11 0.329801 0.298905 0.427749
O O12 0.473719 0.107197 0.731820
O O13 0.300731 0.127910 0.748204
O O14 0.844102 0.813105 0.791759
O O15 0.000000 0.500000 0.917502
#
# Coordination Sequence:
#
# PCOD9560829 Si02
#       7
#    16  16  16  16  16  16  16
#     4   9  19  32  50  72 105 145 188 222 247 307
#     4  10  20  31  51  76 110 140 185 215 266 315
#     4   9  18  35  55  76 106 135 180 227 269 326
#     4   9  18  35  64  83  96 131 185 231 272 318
#     4  10  20  31  52  80 110 145 173 221 277 316
#     4   9  18  33  50  73 104 145 178 212 265 323
#     4   9  19  35  55  77 105 145 182 221 266 329
#
# _framework density 17.200493999999999
#
# number of rings (size 3 to 8) (size 9 to 14) (size 15 to 20)
#    0.000    2.714    0.000    0.857    6.000    3.429 
#    0.000    0.714    6.286    8.571    0.000    0.000 
#    0.000    0.000    0.000    0.000    0.000    0.000 
#
# Total GULP energy -312092.128928 kJ/mol
# GULP energy per Si atom -5573.073731 kJ/mol
# Density = 1.716134 g / cm^3
# Si number density = 17.200494 Si / 1000 Ang^3
#
#
#
# Elastic Constant Matrix: (Units=GPa)
#
#
# Indices 1 2 3 4 5 6 
#
# 1 65.1711 42.0263 46.4949 0.0000 0.0000 0.0000
# 2 42.0263 65.1711 46.4949 0.0000 0.0000 0.0000
# 3 46.4949 46.4949 110.7484 0.0000 0.0000 0.0000
# 4 0.0000 0.0000 0.0000 14.6978 0.0000 0.0000
# 5 0.0000 0.0000 0.0000 0.0000 14.6978 0.0000
# 6 0.0000 0.0000 0.0000 0.0000 0.0000 28.2147
#
#
#
# Elastic Compliance Matrix: (Units=1/GPa)
#
#
# Indices 1 2 3 4 5 6 
#
# 1 0.028939 -0.014267 -0.006160 0.000000 0.000000 0.000000
# 2 -0.014267 0.028939 -0.006160 0.000000 0.000000 0.000000
# 3 -0.006160 -0.006160 0.014201 0.000000 0.000000 0.000000
# 4 0.000000 0.000000 0.000000 0.068037 0.000000 0.000000
# 5 0.000000 0.000000 0.000000 0.000000 0.068037 0.000000
# 6 0.000000 0.000000 0.000000 0.000000 0.000000 0.035443
#
#
# Mechanical properties :
#
#
# Convention : Reuss Voigt Hill
#
# Bulk Modulus (GPa) = 52.89151 56.79142 54.84147
# Shear Modulus (GPa) = 16.49775 18.59370 17.54573
#
# Velocity S-wave (km/s) = 3.10037 3.29142 3.19732
# Velocity P-wave (km/s) = 6.60554 6.89446 6.75154
#
# Compressibility (1/GPa) = 0.01890663
#
# Stress axis : x y z
#
# Youngs Moduli (GPa) = 34.55546 34.55546 70.41583
#
# Poissons Ratio (x) = 0.49301 0.43373
# Poissons Ratio (y) = 0.49301 0.43373
# Poissons Ratio (z) = 0.21285 0.21285
#
# Static dielectric constant tensor:
#      x y z
#    x 1.582310 0.000000 0.000000 
#    y 0.000000 1.582310 0.000000 
#    z 0.000000 0.000000 1.590930 
# 
# From -- ./inp_files/9674.got.cif
#   From: 2010.05.17/outbox.cif.g08.bks.cpg/sg122_5_cif.got.tgz:9674.got - 2010.05.20 11:37:33.
