data_PCOD9560268
_publ_section_title
;
Structure prediction by ZEFSAII (Michael W. Deem and Ramdas Pophale) SiO2 
 PCOD9560268
Probable space group: I -4 2 M
;
_chemical_formula_sum "Si O2"
_cell_formula_units_Z 96
_cell_length_a 14.589472
_cell_length_b 14.589472
_cell_length_c 21.794615
_cell_angle_alpha 90.000000
_cell_angle_beta 90.000000
_cell_angle_gamma 90.000000
_cell_volume 4639.042501
_symmetry_space_group_name_H-M "I -4 2 M"
_symmetry_group_IT_number 121
_symmetry_cell_setting 'tetragonal'
loop_
_space_group_symop_operation_xyz
x,y,z
y,-x,-z
-x,-y,z
-y,x,-z
x,-y,-z
-x,y,-z
-y,-x,z
y,x,z
1/2+x,1/2+y,1/2+z
1/2+y,1/2-x,1/2-z
1/2-x,1/2-y,1/2+z
1/2-y,1/2+x,1/2-z
1/2+x,1/2-y,1/2-z
1/2-x,1/2+y,1/2-z
1/2-y,1/2-x,1/2+z
1/2+y,1/2+x,1/2+z
loop_
_atom_site_type_symbol
_atom_site_label
_atom_site_fract_x
_atom_site_fract_y
_atom_site_fract_z
Si Si1 0.143241 0.997799 0.887797
Si Si2 0.997221 0.849569 0.666645
Si Si3 0.096058 0.244730 0.227195
Si Si4 0.294981 0.032086 0.429921
Si Si5 0.068427 0.576363 0.838884
Si Si6 0.555379 0.824776 0.439007
O O1 0.073901 0.073901 0.862479
O O2 0.216275 0.046627 0.931230
O O3 0.194529 0.948375 0.831729
O O4 0.080329 0.919672 0.918982
O O5 0.896707 0.896707 0.669070
O O6 0.024893 0.774117 0.717696
O O7 0.021786 0.803488 0.601700
O O8 0.068836 0.931165 0.678738
O O9 0.191482 0.191482 0.240482
O O10 0.107768 0.351265 0.210064
O O11 0.344101 0.131478 0.433215
O O12 0.294266 0.000000 0.500000
O O13 0.358416 0.969344 0.385224
O O14 0.000000 0.500000 0.813455
O O15 0.002122 0.633842 0.883316
O O16 0.500000 0.853647 0.500000
#
# Coordination Sequence:
#
# PCOD9560268 Si02
#       6
#    16  16  16  16  16  16
#     4   9  18  33  56  88 124 164 206 250 311 384
#     4  10  23  44  66  89 122 165 214 272 335 398
#     4   9  18  38  64  89 121 162 207 259 320 390
#     4  11  22  39  64  90 123 169 217 264 326 385
#     4   9  19  36  60  90 123 157 203 256 317 382
#     4  10  19  35  59  84 118 163 208 256 309 376
#
# _framework density 20.693926999999999
#
# number of rings (size 3 to 8) (size 9 to 14) (size 15 to 20)
#    0.000    2.333    1.667    0.500    0.000    4.667 
#    9.000    1.667    0.000    0.000    0.000    0.000 
#    0.000    0.000    0.000    0.000    0.000    0.000 
#
# Total GULP energy -267532.265945 kJ/mol
# GULP energy per Si atom -5573.588874 kJ/mol
# Density = 2.064683 g / cm^3
# Si number density = 20.693927 Si / 1000 Ang^3
#
#
#
# Elastic Constant Matrix: (Units=GPa)
#
#
# Indices 1 2 3 4 5 6 
#
# 1 87.4134 33.0790 37.1614 0.0000 0.0000 0.0000
# 2 33.0790 87.4134 37.1608 0.0000 0.0000 0.0000
# 3 37.1614 37.1608 92.7163 0.0000 0.0000 0.0000
# 4 0.0000 0.0000 0.0000 -0.9874 0.0000 0.0000
# 5 0.0000 0.0000 0.0000 0.0000 -0.9868 0.0000
# 6 0.0000 0.0000 0.0000 0.0000 0.0000 9.7285
#
#
#
# Elastic Compliance Matrix: (Units=1/GPa)
#
#
# Indices 1 2 3 4 5 6 
#
# 1 0.014715 -0.003690 -0.004419 0.000000 0.000000 0.000000
# 2 -0.003690 0.014715 -0.004419 0.000000 0.000000 0.000000
# 3 -0.004419 -0.004419 0.014328 0.000000 0.000000 0.000000
# 4 0.000000 0.000000 0.000000 -1.012733 0.000000 0.000000
# 5 0.000000 0.000000 0.000000 0.000000 -1.013426 0.000000
# 6 0.000000 0.000000 0.000000 0.000000 0.000000 0.102791
#
#
# Mechanical properties :
#
#
# Convention : Reuss Voigt Hill
#
# Bulk Modulus (GPa) = 53.46950 53.59394 53.53172
# Shear Modulus (GPa) = -2.70516 12.22699 4.76092
#
# Velocity S-wave (km/s) = -1.14458 2.43338 1.51843
# Velocity P-wave (km/s) = 4.91402 5.81805 5.38504
#
# Compressibility (1/GPa) = 0.01870225
#
# Stress axis : x y z
#
# Youngs Moduli (GPa) = 67.95896 67.95937 69.79453
#
# Poissons Ratio (x) = 0.25076 0.30842
# Poissons Ratio (y) = 0.25076 0.30841
# Poissons Ratio (z) = 0.30030 0.30030
#
# Static dielectric constant tensor:
#      x y z
#    x 1.778820 0.000000 0.000000 
#    y 0.000000 1.778820 0.000000 
#    z 0.000000 0.000000 1.729580 
# 
# From -- ./inp_files/6398.got.cif
#   From: 2010.05.17/outbox.cif.g08.bks.cpg/sg121_4_cif.got.tgz:6398.got - 2010.05.20 11:32:06.
