data_PCOD9560723
_publ_section_title
;
Structure prediction by ZEFSAII (Michael W. Deem and Ramdas Pophale) SiO2 
 PCOD9560723
Probable space group: I -4 2 D
;
_chemical_formula_sum "Si O2"
_cell_formula_units_Z 128
_cell_length_a 16.115749
_cell_length_b 16.115749
_cell_length_c 18.565948
_cell_angle_alpha 90.000000
_cell_angle_beta 90.000000
_cell_angle_gamma 90.000000
_cell_volume 4821.899109
_symmetry_space_group_name_H-M "I -4 2 D"
_symmetry_group_IT_number 122
_symmetry_cell_setting 'tetragonal'
loop_
_space_group_symop_operation_xyz
x,y,z
y,-x,-z
-x,-y,z
-y,x,-z
x,1/2-y,1/4-z
-x,1/2+y,1/4-z
-y,1/2-x,1/4+z
y,1/2+x,1/4+z
1/2+x,1/2+y,1/2+z
1/2+y,1/2-x,1/2-z
1/2-x,1/2-y,1/2+z
1/2-y,1/2+x,1/2-z
1/2+x,-y,3/4-z
1/2-x,y,3/4-z
1/2-y,-x,3/4+z
1/2+y,x,3/4+z
loop_
_atom_site_type_symbol
_atom_site_label
_atom_site_fract_x
_atom_site_fract_y
_atom_site_fract_z
Si Si1 0.911808 0.061080 0.680953
Si Si2 0.565760 0.654438 0.115628
Si Si3 0.004201 0.636203 0.230659
Si Si4 0.406287 0.568753 0.341223
Si Si5 0.010350 0.179217 0.460471
Si Si6 0.765791 0.304604 0.559388
Si Si7 0.657208 0.254413 0.929632
Si Si8 0.673237 0.057106 0.636043
O O1 0.909821 0.028221 0.762556
O O2 0.881926 0.012719 0.608883
O O3 0.840224 0.129643 0.691911
O O4 0.002165 0.100357 0.663313
O O5 0.539170 0.750000 0.125000
O O6 0.666619 0.657408 0.123996
O O7 0.548755 0.638240 0.030576
O O8 0.923693 0.579731 0.251421
O O9 0.988134 0.645269 0.146692
O O10 0.995261 0.705311 0.292380
O O11 0.363797 0.661254 0.346328
O O12 0.501647 0.594146 0.362932
O O13 0.055258 0.261909 0.429868
O O14 0.920559 0.216728 0.478509
O O15 0.791755 0.250000 0.625000
O O16 0.765341 0.258228 0.483160
O O17 0.681791 0.349004 0.585817
#
# Coordination Sequence:
#
# PCOD9560723 Si02
#       8
#    16  16  16  16  16  16  16  16
#     4  10  21  37  59  81 109 157 203 248 307 369
#     4  12  22  34  54  81 113 155 205 253 301 365
#     4   9  18  36  63  88 111 144 189 245 313 380
#     4   9  19  39  59  83 115 152 198 249 307 387
#     4  10  20  38  56  79 117 156 199 252 308 376
#     4  10  18  33  56  80 111 155 195 235 302 374
#     4  10  21  34  52  80 114 149 193 247 302 366
#     4   9  18  33  59  86 111 145 191 247 304 373
#
# _framework density 26.545556000000001
#
# number of rings (size 3 to 8) (size 9 to 14) (size 15 to 20)
#    0.000    2.125    0.000    5.625    0.000    1.500 
#    0.000   12.500    0.000    9.000    0.000    0.000 
#    0.000    0.000    0.000    0.000    0.000    0.000 
#
# Total GULP energy -356687.975214 kJ/mol
# GULP energy per Si atom -5573.249613 kJ/mol
# Density = 2.648514 g / cm^3
# Si number density = 26.545556 Si / 1000 Ang^3
#
#
#
# Elastic Constant Matrix: (Units=GPa)
#
#
# Indices 1 2 3 4 5 6 
#
# 1 64.3386 7.9346 23.4575 0.0000 0.0000 0.0000
# 2 7.9346 64.3386 23.4575 0.0000 0.0000 0.0000
# 3 23.4575 23.4575 162.9518 0.0000 0.0000 0.0000
# 4 0.0000 0.0000 0.0000 33.3510 0.0000 0.0000
# 5 0.0000 0.0000 0.0000 0.0000 33.3510 0.0000
# 6 0.0000 0.0000 0.0000 0.0000 0.0000 22.2005
#
#
#
# Elastic Compliance Matrix: (Units=1/GPa)
#
#
# Indices 1 2 3 4 5 6 
#
# 1 0.016496 -0.001233 -0.002197 0.000000 0.000000 0.000000
# 2 -0.001233 0.016496 -0.002197 0.000000 0.000000 0.000000
# 3 -0.002197 -0.002197 0.006769 0.000000 0.000000 0.000000
# 4 0.000000 0.000000 0.000000 0.029984 0.000000 0.000000
# 5 0.000000 0.000000 0.000000 0.000000 0.029984 0.000000
# 6 0.000000 0.000000 0.000000 0.000000 0.000000 0.045044
#
#
# Mechanical properties :
#
#
# Convention : Reuss Voigt Hill
#
# Bulk Modulus (GPa) = 35.08020 44.59205 39.83612
# Shear Modulus (GPa) = 30.20591 33.56579 31.88585
#
# Velocity S-wave (km/s) = 3.37692 3.55978 3.46956
# Velocity P-wave (km/s) = 5.33372 5.80783 5.57581
#
# Compressibility (1/GPa) = 0.02850611
#
# Stress axis : x y z
#
# Youngs Moduli (GPa) = 60.62108 60.62108 147.72465
#
# Poissons Ratio (x) = 0.07476 0.32457
# Poissons Ratio (y) = 0.07476 0.32457
# Poissons Ratio (z) = 0.13319 0.13319
#
# Static dielectric constant tensor:
#      x y z
#    x 2.216330 0.000000 0.000000 
#    y 0.000000 2.216330 0.000000 
#    z 0.000000 0.000000 2.266290 
# 
# From -- ./inp_files/6521.got.cif
#   From: 2010.05.17/outbox.cif.g08.bks.cpg/sg122_4_cif.got.tgz:6521.got - 2010.05.20 11:37:33.
