data_PCOD9560103
_publ_section_title
;
Structure prediction by ZEFSAII (Michael W. Deem and Ramdas Pophale) SiO2 
 PCOD9560103
Probable space group: I -4 2 M
;
_chemical_formula_sum "Si O2"
_cell_formula_units_Z 84
_cell_length_a 14.568781
_cell_length_b 14.568781
_cell_length_c 22.523199
_cell_angle_alpha 90.000000
_cell_angle_beta 90.000000
_cell_angle_gamma 90.000000
_cell_volume 4780.535019
_symmetry_space_group_name_H-M "I -4 2 M"
_symmetry_group_IT_number 121
_symmetry_cell_setting 'tetragonal'
loop_
_space_group_symop_operation_xyz
x,y,z
y,-x,-z
-x,-y,z
-y,x,-z
x,-y,-z
-x,y,-z
-y,-x,z
y,x,z
1/2+x,1/2+y,1/2+z
1/2+y,1/2-x,1/2-z
1/2-x,1/2-y,1/2+z
1/2-y,1/2+x,1/2-z
1/2+x,1/2-y,1/2-z
1/2-x,1/2+y,1/2-z
1/2-y,1/2-x,1/2+z
1/2+y,1/2+x,1/2+z
loop_
_atom_site_type_symbol
_atom_site_label
_atom_site_fract_x
_atom_site_fract_y
_atom_site_fract_z
Si Si1 0.296159 0.703842 0.763367
Si Si2 0.140241 0.859760 0.763451
Si Si3 0.862675 0.137326 0.902460
Si Si4 0.215816 0.496384 0.430193
Si Si5 0.000000 0.000000 0.105975
Si Si6 0.589129 0.941965 0.828256
Si Si7 0.358839 0.641162 0.631463
Si Si8 0.489999 0.227525 0.221471
O O1 0.218744 0.781257 0.760429
O O2 0.321544 0.678457 0.694348
O O3 0.257022 0.612969 0.795664
O O4 0.124777 0.875224 0.832597
O O5 0.049187 0.817389 0.735374
O O6 0.934262 0.065739 0.932299
O O7 0.904985 0.236618 0.915570
O O8 0.200884 0.500000 0.500000
O O9 0.126500 0.473435 0.391802
O O10 0.284224 0.414382 0.407632
O O11 0.064757 0.935243 0.144389
O O12 0.553469 0.837796 0.819652
O O13 0.500000 0.000000 0.814354
O O14 0.667877 0.970797 0.781315
#
# Coordination Sequence:
#
# PCOD9560103 Si02
#       8
#     8   8   8  16   4  16   8  16
#     4  12  22  35  57  88 110 153 194 241 292 350
#     4  12  20  33  55  84 117 150 190 236 285 346
#     4  10  19  32  52  79 107 155 188 229 278 346
#     4  11  22  35  53  81 117 154 193 237 282 345
#     4   8  16  28  49  72 108 142 176 220 265 330
#     4  12  21  37  58  79 106 155 196 234 291 349
#     4  10  17  34  52  77 114 149 190 222 281 343
#     4  12  21  36  59  85 114 147 195 236 294 349
#
# _framework density 17.571256000000002
#
# number of rings (size 3 to 8) (size 9 to 14) (size 15 to 20)
#    0.000    0.762    7.619    1.714    0.000    0.762 
#    0.000    2.857    0.000    0.000    0.000    0.000 
#    0.000    0.000    0.000    0.000    0.000    0.095 
#
# Total GULP energy -234113.462018 kJ/mol
# GULP energy per Si atom -5574.130048 kJ/mol
# Density = 1.753126 g / cm^3
# Si number density = 17.571256 Si / 1000 Ang^3
#
#
#
# Elastic Constant Matrix: (Units=GPa)
#
#
# Indices 1 2 3 4 5 6 
#
# 1 56.5406 14.3378 16.7416 0.0000 0.0000 0.0000
# 2 14.3378 56.5416 16.7415 0.0000 0.0000 0.0000
# 3 16.7416 16.7415 79.7937 0.0000 0.0000 0.0000
# 4 0.0000 0.0000 0.0000 12.9493 0.0000 0.0000
# 5 0.0000 0.0000 0.0000 0.0000 12.9493 0.0000
# 6 0.0000 0.0000 0.0000 0.0000 0.0000 43.0528
#
#
#
# Elastic Compliance Matrix: (Units=1/GPa)
#
#
# Indices 1 2 3 4 5 6 
#
# 1 0.019678 -0.004017 -0.003286 0.000000 0.000000 0.000000
# 2 -0.004017 0.019678 -0.003286 0.000000 0.000000 0.000000
# 3 -0.003286 -0.003286 0.013911 0.000000 0.000000 0.000000
# 4 0.000000 0.000000 0.000000 0.077224 0.000000 0.000000
# 5 0.000000 0.000000 0.000000 0.000000 0.077224 0.000000
# 6 0.000000 0.000000 0.000000 0.000000 0.000000 0.023227
#
#
# Mechanical properties :
#
#
# Convention : Reuss Voigt Hill
#
# Bulk Modulus (GPa) = 31.16284 32.05750 31.61017
# Shear Modulus (GPa) = 19.02470 23.46061 21.24266
#
# Velocity S-wave (km/s) = 3.29404 3.65796 3.48076
# Velocity P-wave (km/s) = 5.67813 6.01039 5.84662
#
# Compressibility (1/GPa) = 0.03208950
#
# Stress axis : x y z
#
# Youngs Moduli (GPa) = 50.81816 50.81925 71.88505
#
# Poissons Ratio (x) = 0.20414 0.23620
# Poissons Ratio (y) = 0.20414 0.23619
# Poissons Ratio (z) = 0.16698 0.16698
#
# Static dielectric constant tensor:
#      x y z
#    x 1.674190 0.000000 0.000000 
#    y 0.000000 1.674190 0.000000 
#    z 0.000000 0.000000 1.579370 
# 
# From -- ./inp_files/6374.got.cif
#   From: 2010.05.17/outbox.cif.g08.bks.cpg/sg121_4_cif.got.tgz:6374.got - 2010.05.20 11:32:06.
