data_PCOD9560201
_publ_section_title
;
Structure prediction by ZEFSAII (Michael W. Deem and Ramdas Pophale) SiO2 
 PCOD9560201
Probable space group: I -4 2 M
;
_chemical_formula_sum "Si O2"
_cell_formula_units_Z 96
_cell_length_a 20.842869
_cell_length_b 20.842869
_cell_length_c 12.595874
_cell_angle_alpha 90.000000
_cell_angle_beta 90.000000
_cell_angle_gamma 90.000000
_cell_volume 5471.964932
_symmetry_space_group_name_H-M "I -4 2 M"
_symmetry_group_IT_number 121
_symmetry_cell_setting 'tetragonal'
loop_
_space_group_symop_operation_xyz
x,y,z
y,-x,-z
-x,-y,z
-y,x,-z
x,-y,-z
-x,y,-z
-y,-x,z
y,x,z
1/2+x,1/2+y,1/2+z
1/2+y,1/2-x,1/2-z
1/2-x,1/2-y,1/2+z
1/2-y,1/2+x,1/2-z
1/2+x,1/2-y,1/2-z
1/2-x,1/2+y,1/2-z
1/2-y,1/2-x,1/2+z
1/2+y,1/2+x,1/2+z
loop_
_atom_site_type_symbol
_atom_site_label
_atom_site_fract_x
_atom_site_fract_y
_atom_site_fract_z
Si Si1 0.617556 0.200564 0.403914
Si Si2 0.668284 0.125380 0.670758
Si Si3 0.875665 0.233186 0.238279
Si Si4 0.350464 0.247324 0.033833
Si Si5 0.924544 0.571377 0.978339
Si Si6 0.821835 0.930433 0.964546
O O1 0.602807 0.199602 0.279691
O O2 0.693723 0.200828 0.426084
O O3 0.598570 0.130515 0.448960
O O4 0.585278 0.258737 0.465480
O O5 0.648318 0.199576 0.689232
O O6 0.717054 0.119628 0.571989
O O7 0.602731 0.089798 0.637345
O O8 0.815227 0.184773 0.240379
O O9 0.894435 0.243434 0.361506
O O10 0.926439 0.202198 0.157715
O O11 0.312214 0.312214 0.009551
O O12 0.898926 0.500000 0.000000
O O13 0.000000 0.569472 0.000000
O O14 0.875353 0.875353 0.979130
O O15 0.845629 0.000000 0.000000
#
# Coordination Sequence:
#
# PCOD9560201 Si02
#       6
#    16  16  16  16  16  16
#     4  10  20  33  52  78 105 143 181 230 277 331
#     4  10  19  31  49  79 106 143 178 231 267 319
#     4   9  17  30  52  77 105 139 177 217 267 328
#     4   9  16  29  50  77 107 139 176 217 267 325
#     4  10  21  36  50  69 104 149 192 225 265 320
#     4  11  22  38  59  84 111 143 186 235 294 355
#
# _framework density 17.543972
#
# number of rings (size 3 to 8) (size 9 to 14) (size 15 to 20)
#    0.000    2.167    3.333    1.500    0.000    3.500 
#    6.000    1.667    0.000    0.000    0.000    0.000 
#    0.000    0.000    0.000    4.333    0.000    0.000 
#
# Total GULP energy -267275.949122 kJ/mol
# GULP energy per Si atom -5568.248940 kJ/mol
# Density = 1.750404 g / cm^3
# Si number density = 17.543972 Si / 1000 Ang^3
#
#
#
# Elastic Constant Matrix: (Units=GPa)
#
#
# Indices 1 2 3 4 5 6 
#
# 1 62.7230 16.9318 27.5079 0.0000 0.0000 0.0000
# 2 16.9318 62.7250 27.5054 0.0000 0.0000 0.0000
# 3 27.5079 27.5054 113.4995 0.0000 0.0000 0.0000
# 4 0.0000 0.0000 0.0000 6.8347 0.0000 0.0000
# 5 0.0000 0.0000 0.0000 0.0000 6.8349 0.0000
# 6 0.0000 0.0000 0.0000 0.0000 0.0000 19.8082
#
#
#
# Elastic Compliance Matrix: (Units=1/GPa)
#
#
# Indices 1 2 3 4 5 6 
#
# 1 0.018458 -0.003380 -0.003654 0.000000 0.000000 0.000000
# 2 -0.003380 0.018457 -0.003654 0.000000 0.000000 0.000000
# 3 -0.003654 -0.003654 0.010582 0.000000 0.000000 0.000000
# 4 0.000000 0.000000 0.000000 0.146311 0.000000 0.000000
# 5 0.000000 0.000000 0.000000 0.000000 0.146308 0.000000
# 6 0.000000 0.000000 0.000000 0.000000 0.000000 0.050484
#
#
# Mechanical properties :
#
#
# Convention : Reuss Voigt Hill
#
# Bulk Modulus (GPa) = 38.28372 42.53752 40.41062
# Shear Modulus (GPa) = 11.88540 17.82907 14.85724
#
# Velocity S-wave (km/s) = 2.60564 3.19133 2.91324
# Velocity P-wave (km/s) = 5.56070 6.15453 5.86514
#
# Compressibility (1/GPa) = 0.02612076
#
# Stress axis : x y z
#
# Youngs Moduli (GPa) = 54.17630 54.17948 94.50240
#
# Poissons Ratio (x) = 0.18313 0.34535
# Poissons Ratio (y) = 0.18312 0.34528
# Poissons Ratio (z) = 0.19798 0.19796
#
# Static dielectric constant tensor:
#      x y z
#    x 1.620520 0.000000 0.000000 
#    y 0.000000 1.620530 0.000000 
#    z 0.000000 0.000000 1.650960 
# 
# From -- ./inp_files/3308.got.cif
#   From: 2010.05.17/outbox.cif.g08.bks.cpg/sg121_2_cif.got.tgz:3308.got - 2010.05.20 11:32:06.
