data_PCOD9560615
_publ_section_title
;
Structure prediction by ZEFSAII (Michael W. Deem and Ramdas Pophale) SiO2 
 PCOD9560615
Probable space group: I -4 2 M
;
_chemical_formula_sum "Si O2"
_cell_formula_units_Z 100
_cell_length_a 14.681711
_cell_length_b 14.681711
_cell_length_c 23.847872
_cell_angle_alpha 90.000000
_cell_angle_beta 90.000000
_cell_angle_gamma 90.000000
_cell_volume 5140.471718
_symmetry_space_group_name_H-M "I -4 2 M"
_symmetry_group_IT_number 121
_symmetry_cell_setting 'tetragonal'
loop_
_space_group_symop_operation_xyz
x,y,z
y,-x,-z
-x,-y,z
-y,x,-z
x,-y,-z
-x,y,-z
-y,-x,z
y,x,z
1/2+x,1/2+y,1/2+z
1/2+y,1/2-x,1/2-z
1/2-x,1/2-y,1/2+z
1/2-y,1/2+x,1/2-z
1/2+x,1/2-y,1/2-z
1/2-x,1/2+y,1/2-z
1/2-y,1/2-x,1/2+z
1/2+y,1/2+x,1/2+z
loop_
_atom_site_type_symbol
_atom_site_label
_atom_site_fract_x
_atom_site_fract_y
_atom_site_fract_z
Si Si1 0.000000 0.500000 0.000000
Si Si2 0.395491 0.756161 0.075271
Si Si3 0.183168 0.955561 0.944667
Si Si4 0.609300 0.764114 0.364108
Si Si5 0.235062 0.916320 0.361069
Si Si6 0.635896 0.147041 0.960168
Si Si7 0.647972 0.955801 0.749842
O O1 0.935193 0.436643 0.962409
O O2 0.326207 0.673794 0.082126
O O3 0.351607 0.842986 0.106945
O O4 0.490542 0.727398 0.102842
O O5 0.393922 0.785475 0.010084
O O6 0.109529 0.890472 0.916202
O O7 0.265419 0.894905 0.969644
O O8 0.224279 0.030412 0.903480
O O9 0.141991 0.000000 0.000000
O O10 0.687285 0.687285 0.357383
O O11 0.568331 0.796139 0.305478
O O12 0.142931 0.857070 0.353721
O O13 0.303326 0.860136 0.400945
O O14 0.286590 0.939318 0.303403
O O15 0.558868 0.890545 0.747666
#
# Coordination Sequence:
#
# PCOD9560615 Si02
#       7
#     4  16  16  16  16  16  16
#     4  12  20  36  68  96 130 172 224 268 326 396
#     4  11  22  42  67  93 133 178 219 266 334 404
#     4  12  24  39  63  98 137 175 219 270 334 401
#     4  11  23  43  66  91 132 178 221 269 333 400
#     4  12  25  42  66  99 135 168 221 280 333 395
#     4  12  23  39  65 102 134 173 215 280 333 392
#     4  11  24  43  69  97 127 168 223 280 334 397
#
# _framework density 19.453468000000001
#
# number of rings (size 3 to 8) (size 9 to 14) (size 15 to 20)
#    0.000    0.480    5.600    3.360    0.000    2.720 
#    0.000    1.600    0.000    3.840    0.000    0.000 
#    0.000    0.000    0.000    0.000    0.000    0.000 
#
# Total GULP energy -279490.317928 kJ/mol
# GULP energy per Si atom -5589.806359 kJ/mol
# Density = 1.940919 g / cm^3
# Si number density = 19.453468 Si / 1000 Ang^3
#
#
#
# Elastic Constant Matrix: (Units=GPa)
#
#
# Indices 1 2 3 4 5 6 
#
# 1 83.2438 70.5380 30.5326 0.0000 0.0000 0.0000
# 2 70.5380 83.2391 30.5333 0.0000 0.0000 0.0000
# 3 30.5326 30.5333 119.8993 0.0000 0.0000 0.0000
# 4 0.0000 0.0000 0.0000 21.6250 0.0000 0.0000
# 5 0.0000 0.0000 0.0000 0.0000 21.6253 0.0000
# 6 0.0000 0.0000 0.0000 0.0000 0.0000 35.3719
#
#
#
# Elastic Compliance Matrix: (Units=1/GPa)
#
#
# Indices 1 2 3 4 5 6 
#
# 1 0.042975 -0.035742 -0.001842 0.000000 0.000000 0.000000
# 2 -0.035742 0.042978 -0.001843 0.000000 0.000000 0.000000
# 3 -0.001842 -0.001843 0.009279 0.000000 0.000000 0.000000
# 4 0.000000 0.000000 0.000000 0.046243 0.000000 0.000000
# 5 0.000000 0.000000 0.000000 0.000000 0.046242 0.000000
# 6 0.000000 0.000000 0.000000 0.000000 0.000000 0.028271
#
#
# Mechanical properties :
#
#
# Convention : Reuss Voigt Hill
#
# Bulk Modulus (GPa) = 61.05637 61.06555 61.06096
# Shear Modulus (GPa) = 16.64996 26.04299 21.34648
#
# Velocity S-wave (km/s) = 2.92873 3.66284 3.31616
# Velocity P-wave (km/s) = 6.54909 7.02476 6.79109
#
# Compressibility (1/GPa) = 0.01637831
#
# Stress axis : x y z
#
# Youngs Moduli (GPa) = 23.26923 23.26765 107.77471
#
# Poissons Ratio (x) = 0.83164 0.19848
# Poissons Ratio (y) = 0.83170 0.19862
# Poissons Ratio (z) = 0.04285 0.04288
#
# Static dielectric constant tensor:
#      x y z
#    x 1.698710 0.000000 0.000000 
#    y 0.000000 1.698710 0.000000 
#    z 0.000000 0.000000 1.655660 
# 
# From -- ./inp_files/7143.got.cif
#   From: 2010.05.17/outbox.cif.g08.bks.cpg/sg121_4_cif.got.tgz:7143.got - 2010.05.20 11:32:06.
