data_PCOD9560625
_publ_section_title
;
Structure prediction by ZEFSAII (Michael W. Deem and Ramdas Pophale) SiO2 
 PCOD9560625
Probable space group: I -4 2 M
;
_chemical_formula_sum "Si O2"
_cell_formula_units_Z 54
_cell_length_a 11.023860
_cell_length_b 11.023860
_cell_length_c 22.445030
_cell_angle_alpha 90.000000
_cell_angle_beta 90.000000
_cell_angle_gamma 90.000000
_cell_volume 2727.643253
_symmetry_space_group_name_H-M "I -4 2 M"
_symmetry_group_IT_number 121
_symmetry_cell_setting 'tetragonal'
loop_
_space_group_symop_operation_xyz
x,y,z
y,-x,-z
-x,-y,z
-y,x,-z
x,-y,-z
-x,y,-z
-y,-x,z
y,x,z
1/2+x,1/2+y,1/2+z
1/2+y,1/2-x,1/2-z
1/2-x,1/2-y,1/2+z
1/2-y,1/2+x,1/2-z
1/2+x,1/2-y,1/2-z
1/2-x,1/2+y,1/2-z
1/2-y,1/2-x,1/2+z
1/2+y,1/2+x,1/2+z
loop_
_atom_site_type_symbol
_atom_site_label
_atom_site_fract_x
_atom_site_fract_y
_atom_site_fract_z
Si Si1 0.500000 0.000000 0.750000
Si Si2 0.091205 0.091205 0.744511
Si Si3 0.228293 0.771708 0.359619
Si Si4 0.315781 0.315781 0.432675
Si Si5 0.989799 0.711947 0.835247
Si Si6 0.500000 0.500000 0.500000
Si Si7 0.643018 0.356983 0.987354
O O1 0.400018 0.051210 0.794600
O O2 0.168325 0.168325 0.698325
O O3 0.017960 0.177160 0.789272
O O4 0.000000 0.000000 0.712317
O O5 0.372387 0.797276 0.357483
O O6 0.171755 0.828246 0.418768
O O7 0.399142 0.233748 0.389618
O O8 0.409549 0.409549 0.464366
O O9 0.231950 0.231950 0.474602
O O10 0.500000 0.333656 0.000000
#
# Coordination Sequence:
#
# PCOD9560625 Si02
#       7
#     4   8   8   8  16   2   8
#     4  12  24  40  60 110 144 168 232 276 338 436
#     4  11  23  40  67 102 140 176 219 273 356 412
#     4  12  24  45  70  96 139 184 226 287 348 410
#     4  11  25  46  75 100 138 183 236 294 346 401
#     4  11  24  41  69 104 134 176 227 286 346 414
#     4  12  24  52  72 108 136 176 252 300 334 416
#     4  11  29  51  67 101 139 190 242 285 348 422
#
# _framework density 19.79731
#
# number of rings (size 3 to 8) (size 9 to 14) (size 15 to 20)
#    0.000    0.741    4.444    2.667    8.296    0.000 
#    0.000    1.481    0.000    0.000    0.000    0.000 
#    0.000    0.000    0.000    0.000    0.000    0.000 
#
# Total GULP energy -150841.972389 kJ/mol
# GULP energy per Si atom -5586.739718 kJ/mol
# Density = 1.975225 g / cm^3
# Si number density = 19.797310 Si / 1000 Ang^3
#
#
#
# Elastic Constant Matrix: (Units=GPa)
#
#
# Indices 1 2 3 4 5 6 
#
# 1 51.3211 85.1139 55.0024 0.0000 0.0000 0.0000
# 2 85.1139 51.3230 55.0042 0.0000 0.0000 0.0000
# 3 55.0024 55.0042 126.4482 0.0000 0.0000 0.0000
# 4 0.0000 0.0000 0.0000 -0.1286 0.0000 0.0000
# 5 0.0000 0.0000 0.0000 0.0000 -0.1277 0.0000
# 6 0.0000 0.0000 0.0000 0.0000 0.0000 36.6287
#
#
#
# Elastic Compliance Matrix: (Units=1/GPa)
#
#
# Indices 1 2 3 4 5 6 
#
# 1 -0.009152 0.020441 -0.004911 0.000000 0.000000 0.000000
# 2 0.020441 -0.009152 -0.004910 0.000000 0.000000 0.000000
# 3 -0.004911 -0.004910 0.012180 0.000000 0.000000 0.000000
# 4 0.000000 0.000000 0.000000 -7.776580 -0.000001 0.000000
# 5 0.000000 0.000000 0.000000 -0.000001 -7.830919 0.000000
# 6 0.000000 0.000000 0.000000 0.000000 0.000000 0.027301
#
#
# Mechanical properties :
#
#
# Convention : Reuss Voigt Hill
#
# Bulk Modulus (GPa) = 66.15529 68.81482 67.48505
# Shear Modulus (GPa) = -0.32046 9.53927 4.60940
#
# Velocity S-wave (km/s) = -0.40277 2.19748 1.52753
# Velocity P-wave (km/s) = 5.76824 6.42446 6.10517
#
# Compressibility (1/GPa) = 0.01511595
#
# Stress axis : x y z
#
# Youngs Moduli (GPa) = -109.26335 -109.26491 82.09974
#
# Poissons Ratio (x) = 2.23346 0.40316
# Poissons Ratio (y) = 2.23343 0.40313
# Poissons Ratio (z) = -0.53655 -0.53652
#
# Static dielectric constant tensor:
#      x y z
#    x 1.739930 0.000000 0.000000 
#    y 0.000000 1.739930 0.000000 
#    z 0.000000 0.000000 1.642030 
# 
# From -- ./inp_files/5990.got.cif
#   From: 2010.05.17/outbox.cif.g08.bks.cpg/sg121_3_cif.got.tgz:5990.got - 2010.05.20 11:32:06.
