data_PCOD9560976
_publ_section_title
;
Structure prediction by ZEFSAII (Michael W. Deem and Ramdas Pophale) SiO2 
 PCOD9560976
Probable space group: I -4 2 D
;
_chemical_formula_sum "Si O2"
_cell_formula_units_Z 112
_cell_length_a 31.389109
_cell_length_b 31.389109
_cell_length_c 5.519772
_cell_angle_alpha 90.000000
_cell_angle_beta 90.000000
_cell_angle_gamma 90.000000
_cell_volume 5438.499781
_symmetry_space_group_name_H-M "I -4 2 D"
_symmetry_group_IT_number 122
_symmetry_cell_setting 'tetragonal'
loop_
_space_group_symop_operation_xyz
x,y,z
y,-x,-z
-x,-y,z
-y,x,-z
x,1/2-y,1/4-z
-x,1/2+y,1/4-z
-y,1/2-x,1/4+z
y,1/2+x,1/4+z
1/2+x,1/2+y,1/2+z
1/2+y,1/2-x,1/2-z
1/2-x,1/2-y,1/2+z
1/2-y,1/2+x,1/2-z
1/2+x,-y,3/4-z
1/2-x,y,3/4-z
1/2-y,-x,3/4+z
1/2+y,x,3/4+z
loop_
_atom_site_type_symbol
_atom_site_label
_atom_site_fract_x
_atom_site_fract_y
_atom_site_fract_z
Si Si1 0.333442 0.641529 0.856685
Si Si2 0.543208 0.865798 0.505516
Si Si3 0.299793 0.951534 0.365875
Si Si4 0.117574 0.867910 0.876129
Si Si5 0.061965 0.984183 0.436919
Si Si6 0.980426 0.135816 0.865224
Si Si7 0.267606 0.299376 0.124345
O O1 0.309823 0.596806 0.800503
O O2 0.362516 0.651428 0.620443
O O3 0.302394 0.681601 0.880040
O O4 0.357976 0.638039 0.117581
O O5 0.549676 0.818663 0.405642
O O6 0.581102 0.879553 0.680188
O O7 0.545379 0.901825 0.300728
O O8 0.496151 0.866533 0.610520
O O9 0.250000 0.960789 0.375000
O O10 0.328910 0.987742 0.496128
O O11 0.068894 0.854431 0.839460
O O12 0.088641 0.009557 0.238022
O O13 0.043652 0.020424 0.620043
O O14 0.253390 0.250000 0.125000
O O15 0.250000 0.318556 0.375000
O O16 0.250000 0.319252 0.875000
#
# Coordination Sequence:
#
# PCOD9560976 Si02
#       7
#    16  16  16  16  16  16  16
#     4  11  23  44  68  97 128 174 216 267 323 401
#     4  10  22  37  59  88 122 167 210 272 322 381
#     4  10  23  42  64  91 125 168 221 274 324 382
#     4  11  24  41  65  92 128 173 220 259 329 375
#     4  10  21  34  55  87 122 162 210 260 323 383
#     4  11  23  38  60  87 125 168 212 275 316 385
#     4  10  21  40  70 105 136 162 201 266 336 397
#
# _framework density 20.593914999999999
#
# number of rings (size 3 to 8) (size 9 to 14) (size 15 to 20)
#    0.000    1.571    2.857    1.286    6.000    0.571 
#    0.000    5.000    3.143    0.000    0.000    0.000 
#    0.000    0.000    0.000    0.000    0.000    0.000 
#
# Total GULP energy -311845.354987 kJ/mol
# GULP energy per Si atom -5568.667053 kJ/mol
# Density = 2.054704 g / cm^3
# Si number density = 20.593915 Si / 1000 Ang^3
#
#
#
# Elastic Constant Matrix: (Units=GPa)
#
#
# Indices 1 2 3 4 5 6 
#
# 1 98.5705 12.0663 19.0300 0.0000 0.0000 0.0000
# 2 12.0663 98.5705 19.0300 0.0000 0.0000 0.0000
# 3 19.0300 19.0300 84.2018 0.0000 0.0000 0.0000
# 4 0.0000 0.0000 0.0000 17.9958 0.0000 0.0000
# 5 0.0000 0.0000 0.0000 0.0000 17.9958 0.0000
# 6 0.0000 0.0000 0.0000 0.0000 0.0000 20.1333
#
#
#
# Elastic Compliance Matrix: (Units=1/GPa)
#
#
# Indices 1 2 3 4 5 6 
#
# 1 0.010680 -0.000880 -0.002215 0.000000 0.000000 0.000000
# 2 -0.000880 0.010680 -0.002215 0.000000 0.000000 0.000000
# 3 -0.002215 -0.002215 0.012877 0.000000 0.000000 0.000000
# 4 0.000000 0.000000 0.000000 0.055569 0.000000 0.000000
# 5 0.000000 0.000000 0.000000 0.000000 0.055569 0.000000
# 6 0.000000 0.000000 0.000000 0.000000 0.000000 0.049669
#
#
# Mechanical properties :
#
#
# Convention : Reuss Voigt Hill
#
# Bulk Modulus (GPa) = 42.33944 42.39948 42.36946
# Shear Modulus (GPa) = 23.41519 26.63940 25.02729
#
# Velocity S-wave (km/s) = 3.37559 3.60051 3.48986
# Velocity P-wave (km/s) = 5.98303 6.15775 6.07102
#
# Compressibility (1/GPa) = 0.02361864
#
# Stress axis : x y z
#
# Youngs Moduli (GPa) = 93.62994 93.62994 77.65535
#
# Poissons Ratio (x) = 0.08237 0.17200
# Poissons Ratio (y) = 0.08237 0.17200
# Poissons Ratio (z) = 0.20739 0.20739
#
# Static dielectric constant tensor:
#      x y z
#    x 1.739510 0.000000 0.000000 
#    y 0.000000 1.739510 0.000000 
#    z 0.000000 0.000000 1.920620 
# 
# From -- ./inp_files/1521.got.cif
#   From: 2010.05.17/outbox.cif.g08.bks.cpg/sg122_1_cif.got.tgz:1521.got - 2010.05.20 11:37:33.
