data_PCOD9560315
_publ_section_title
;
Structure prediction by ZEFSAII (Michael W. Deem and Ramdas Pophale) SiO2 
 PCOD9560315
Probable space group: I -4 2 M
;
_chemical_formula_sum "Si O2"
_cell_formula_units_Z 64
_cell_length_a 13.274606
_cell_length_b 13.274606
_cell_length_c 19.005856
_cell_angle_alpha 90.000000
_cell_angle_beta 90.000000
_cell_angle_gamma 90.000000
_cell_volume 3349.120041
_symmetry_space_group_name_H-M "I -4 2 M"
_symmetry_group_IT_number 121
_symmetry_cell_setting 'tetragonal'
loop_
_space_group_symop_operation_xyz
x,y,z
y,-x,-z
-x,-y,z
-y,x,-z
x,-y,-z
-x,y,-z
-y,-x,z
y,x,z
1/2+x,1/2+y,1/2+z
1/2+y,1/2-x,1/2-z
1/2-x,1/2-y,1/2+z
1/2-y,1/2+x,1/2-z
1/2+x,1/2-y,1/2-z
1/2-x,1/2+y,1/2-z
1/2-y,1/2-x,1/2+z
1/2+y,1/2+x,1/2+z
loop_
_atom_site_type_symbol
_atom_site_label
_atom_site_fract_x
_atom_site_fract_y
_atom_site_fract_z
Si Si1 0.173046 0.662261 0.782832
Si Si2 0.222022 0.061674 0.098611
Si Si3 0.301436 0.857738 0.044173
Si Si4 0.383950 0.964526 0.650683
O O1 0.275120 0.724881 0.773999
O O2 0.096580 0.732930 0.827375
O O3 0.120725 0.634325 0.709599
O O4 0.182451 0.560251 0.827865
O O5 0.111827 0.111827 0.090431
O O6 0.235158 0.944337 0.083421
O O7 0.290457 0.113807 0.037688
O O8 0.248908 0.751093 0.056069
O O9 0.411971 0.863861 0.076415
O O10 0.500000 0.000000 0.654370
#
# Coordination Sequence:
#
# PCOD9560315 Si02
#       4
#    16  16  16  16
#     4  11  21  35  55  78 111 143 179 233 283 333
#     4   9  19  34  52  82 117 149 186 226 277 335
#     4  10  20  34  54  81 115 151 187 229 279 333
#     4  12  20  36  56  84 107 141 187 232 281 332
#
# _framework density 19.109497999999999
#
# number of rings (size 3 to 8) (size 9 to 14) (size 15 to 20)
#    0.000    1.500    5.000    0.750    0.000    1.500 
#    0.000    2.500    0.000    4.500    0.000    0.000 
#    0.000   12.000    0.000    0.000    0.000    0.000 
#
# Total GULP energy -178654.215479 kJ/mol
# GULP energy per Si atom -5582.944234 kJ/mol
# Density = 1.906600 g / cm^3
# Si number density = 19.109498 Si / 1000 Ang^3
#
#
#
# Elastic Constant Matrix: (Units=GPa)
#
#
# Indices 1 2 3 4 5 6 
#
# 1 73.0862 34.7929 12.3224 0.0000 0.0000 0.0000
# 2 34.7929 73.0893 12.3243 0.0000 0.0000 0.0000
# 3 12.3224 12.3243 53.9894 0.0000 0.0000 0.0000
# 4 0.0000 0.0000 0.0000 20.6781 0.0000 0.0000
# 5 0.0000 0.0000 0.0000 0.0000 20.6780 0.0000
# 6 0.0000 0.0000 0.0000 0.0000 0.0000 39.1655
#
#
#
# Elastic Compliance Matrix: (Units=1/GPa)
#
#
# Indices 1 2 3 4 5 6 
#
# 1 0.017947 -0.008167 -0.002232 0.000000 0.000000 0.000000
# 2 -0.008167 0.017946 -0.002233 0.000000 0.000000 0.000000
# 3 -0.002232 -0.002233 0.019541 0.000000 0.000000 0.000000
# 4 0.000000 0.000000 0.000000 0.048360 0.000000 0.000000
# 5 0.000000 0.000000 0.000000 0.000000 0.048361 0.000000
# 6 0.000000 0.000000 0.000000 0.000000 0.000000 0.025533
#
#
# Mechanical properties :
#
#
# Convention : Reuss Voigt Hill
#
# Bulk Modulus (GPa) = 33.14411 35.44935 34.29673
# Shear Modulus (GPa) = 23.47341 25.48602 24.47971
#
# Velocity S-wave (km/s) = 3.50860 3.65592 3.58302
# Velocity P-wave (km/s) = 5.81341 6.03423 5.92485
#
# Compressibility (1/GPa) = 0.03017127
#
# Stress axis : x y z
#
# Youngs Moduli (GPa) = 55.72081 55.72261 51.17399
#
# Poissons Ratio (x) = 0.45508 0.11421
# Poissons Ratio (y) = 0.45506 0.11425
# Poissons Ratio (z) = 0.12436 0.12441
#
# Static dielectric constant tensor:
#      x y z
#    x 1.666290 0.000000 0.000000 
#    y 0.000000 1.666290 0.000000 
#    z 0.000000 0.000000 1.694450 
# 
# From -- ./inp_files/5072.got.cif
#   From: 2010.05.17/outbox.cif.g08.bks.cpg/sg121_3_cif.got.tgz:5072.got - 2010.05.20 11:32:06.
