data_PCOD9560920
_publ_section_title
;
Structure prediction by ZEFSAII (Michael W. Deem and Ramdas Pophale) SiO2 
 PCOD9560920
Probable space group: I -4 2 D
;
_chemical_formula_sum "Si O2"
_cell_formula_units_Z 60
_cell_length_a 10.700801
_cell_length_b 10.700801
_cell_length_c 24.438761
_cell_angle_alpha 90.000000
_cell_angle_beta 90.000000
_cell_angle_gamma 90.000000
_cell_volume 2798.412677
_symmetry_space_group_name_H-M "I -4 2 D"
_symmetry_group_IT_number 122
_symmetry_cell_setting 'tetragonal'
loop_
_space_group_symop_operation_xyz
x,y,z
y,-x,-z
-x,-y,z
-y,x,-z
x,1/2-y,1/4-z
-x,1/2+y,1/4-z
-y,1/2-x,1/4+z
y,1/2+x,1/4+z
1/2+x,1/2+y,1/2+z
1/2+y,1/2-x,1/2-z
1/2-x,1/2-y,1/2+z
1/2-y,1/2+x,1/2-z
1/2+x,-y,3/4-z
1/2-x,y,3/4-z
1/2-y,-x,3/4+z
1/2+y,x,3/4+z
loop_
_atom_site_type_symbol
_atom_site_label
_atom_site_fract_x
_atom_site_fract_y
_atom_site_fract_z
Si Si1 0.500000 0.000000 0.750000
Si Si2 0.238884 0.907989 0.752323
Si Si3 0.643312 0.865106 0.268185
Si Si4 0.000000 0.000000 0.187192
Si Si5 0.889370 0.719057 0.374527
O O1 0.629815 0.045317 0.777556
O O2 0.211165 0.759765 0.756633
O O3 0.246974 0.926211 0.686738
O O4 0.123331 0.983052 0.776645
O O5 0.512140 0.833140 0.239587
O O6 0.625462 0.831286 0.332008
O O7 0.121305 0.984125 0.150124
O O8 0.750000 0.660461 0.375000
#
# Coordination Sequence:
#
# PCOD9560920 Si02
#       5
#     4  16  16   8  16
#     4  12  26  44  72 100 152 188 244 306 356 440
#     4  11  24  43  70 101 141 194 239 297 369 440
#     4  10  20  39  69  96 139 186 235 307 372 428
#     4  12  23  44  74 101 145 198 244 299 378 434
#     4  10  22  41  66 100 143 184 240 309 358 438
#
# _framework density 21.440728
#
# number of rings (size 3 to 8) (size 9 to 14) (size 15 to 20)
#    0.000    1.333    2.667    4.000    0.000    2.133 
#    0.000    0.000    0.000    0.000    0.000    0.000 
#    0.000    0.000    0.000    0.000    0.000    0.000 
#
# Total GULP energy -167589.329660 kJ/mol
# GULP energy per Si atom -5586.310989 kJ/mol
# Density = 2.139193 g / cm^3
# Si number density = 21.440728 Si / 1000 Ang^3
#
#
#
# Elastic Constant Matrix: (Units=GPa)
#
#
# Indices 1 2 3 4 5 6 
#
# 1 139.9551 43.1497 36.4228 0.0000 0.0000 0.0000
# 2 43.1497 139.9551 36.4228 0.0000 0.0000 0.0000
# 3 36.4228 36.4228 100.4588 0.0000 0.0000 0.0000
# 4 0.0000 0.0000 0.0000 26.1344 0.0000 0.0000
# 5 0.0000 0.0000 0.0000 0.0000 26.1344 0.0000
# 6 0.0000 0.0000 0.0000 0.0000 0.0000 39.5734
#
#
#
# Elastic Compliance Matrix: (Units=1/GPa)
#
#
# Indices 1 2 3 4 5 6 
#
# 1 0.008356 -0.001974 -0.002314 0.000000 0.000000 0.000000
# 2 -0.001974 0.008356 -0.002314 0.000000 0.000000 0.000000
# 3 -0.002314 -0.002314 0.011632 0.000000 0.000000 0.000000
# 4 0.000000 0.000000 0.000000 0.038264 0.000000 0.000000
# 5 0.000000 0.000000 0.000000 0.000000 0.038264 0.000000
# 6 0.000000 0.000000 0.000000 0.000000 0.000000 0.025270
#
#
# Mechanical properties :
#
#
# Convention : Reuss Voigt Hill
#
# Bulk Modulus (GPa) = 66.04782 68.03999 67.04390
# Shear Modulus (GPa) = 33.69466 35.99333 34.84400
#
# Velocity S-wave (km/s) = 3.96855 4.10168 4.03567
# Velocity P-wave (km/s) = 7.20214 7.36442 7.28373
#
# Compressibility (1/GPa) = 0.01514055
#
# Stress axis : x y z
#
# Youngs Moduli (GPa) = 119.67526 119.67526 85.96851
#
# Poissons Ratio (x) = 0.23625 0.19892
# Poissons Ratio (y) = 0.23625 0.19892
# Poissons Ratio (z) = 0.27691 0.27691
#
# Static dielectric constant tensor:
#      x y z
#    x 1.793910 0.000000 0.000000 
#    y 0.000000 1.793910 0.000000 
#    z 0.000000 0.000000 1.770040 
# 
# From -- ./inp_files/6999.got.cif
#   From: 2010.05.17/outbox.cif.g08.bks.cpg/sg122_4_cif.got.tgz:6999.got - 2010.05.20 11:37:33.
