data_PCOD9560365
_publ_section_title
;
Structure prediction by ZEFSAII (Michael W. Deem and Ramdas Pophale) SiO2 
 PCOD9560365
Probable space group: I -4 2 M
;
_chemical_formula_sum "Si O2"
_cell_formula_units_Z 96
_cell_length_a 19.789140
_cell_length_b 19.789140
_cell_length_c 12.727885
_cell_angle_alpha 90.000000
_cell_angle_beta 90.000000
_cell_angle_gamma 90.000000
_cell_volume 4984.367833
_symmetry_space_group_name_H-M "I -4 2 M"
_symmetry_group_IT_number 121
_symmetry_cell_setting 'tetragonal'
loop_
_space_group_symop_operation_xyz
x,y,z
y,-x,-z
-x,-y,z
-y,x,-z
x,-y,-z
-x,y,-z
-y,-x,z
y,x,z
1/2+x,1/2+y,1/2+z
1/2+y,1/2-x,1/2-z
1/2-x,1/2-y,1/2+z
1/2-y,1/2+x,1/2-z
1/2+x,1/2-y,1/2-z
1/2-x,1/2+y,1/2-z
1/2-y,1/2-x,1/2+z
1/2+y,1/2+x,1/2+z
loop_
_atom_site_type_symbol
_atom_site_label
_atom_site_fract_x
_atom_site_fract_y
_atom_site_fract_z
Si Si1 0.344904 0.655097 0.147290
Si Si2 0.163221 0.836780 0.066305
Si Si3 0.759526 0.759526 0.776333
Si Si4 0.925690 0.269970 0.535165
Si Si5 0.602465 0.602465 0.640268
Si Si6 0.513498 0.305117 0.613725
Si Si7 0.622457 0.164089 0.822309
Si Si8 0.184055 0.528612 0.251823
O O1 0.296884 0.703117 0.215579
O O2 0.387595 0.704000 0.073807
O O3 0.385016 0.614985 0.236735
O O4 0.217434 0.782567 0.106088
O O5 0.092730 0.815255 0.118811
O O6 0.147854 0.852147 0.943149
O O7 0.719609 0.823881 0.724604
O O8 0.891714 0.309601 0.439855
O O9 0.937202 0.316203 0.637251
O O10 0.000000 0.248986 0.500000
O O11 0.526916 0.624781 0.614524
O O12 0.500000 0.271744 0.500000
O O13 0.481236 0.259578 0.703775
O O14 0.549592 0.161085 0.761516
O O15 0.649713 0.087018 0.821535
#
# Coordination Sequence:
#
# PCOD9560365 Si02
#       8
#     8   8   8  16   8  16  16  16
#     4  12  21  39  67  90 127 167 210 269 322 385
#     4  10  22  36  58  92 128 161 213 267 323 385
#     4  12  21  37  65  99 124 158 222 276 317 377
#     4  10  23  41  62  91 128 171 212 262 325 385
#     4  10  20  36  60  91 125 168 207 258 326 395
#     4  10  20  36  60  88 126 168 208 260 322 384
#     4  11  24  40  65  94 128 169 218 264 322 389
#     4  11  22  42  62  91 129 170 213 268 327 380
#
# _framework density 19.260214999999999
#
# number of rings (size 3 to 8) (size 9 to 14) (size 15 to 20)
#    0.000    1.333    5.000    0.500    0.000    6.000 
#    0.000    1.667    0.000    3.250    0.000    0.000 
#    0.000    0.000    0.000    0.000    0.000    0.000 
#
# Total GULP energy -267371.781746 kJ/mol
# GULP energy per Si atom -5570.245453 kJ/mol
# Density = 1.921638 g / cm^3
# Si number density = 19.260215 Si / 1000 Ang^3
#
#
#
# Elastic Constant Matrix: (Units=GPa)
#
#
# Indices 1 2 3 4 5 6 
#
# 1 52.5395 51.0737 30.3407 0.0000 0.0000 0.0000
# 2 51.0737 52.5411 30.3387 0.0000 0.0000 0.0000
# 3 30.3407 30.3387 80.7207 0.0000 0.0000 0.0000
# 4 0.0000 0.0000 0.0000 20.2582 0.0000 0.0000
# 5 0.0000 0.0000 0.0000 0.0000 20.2592 0.0000
# 6 0.0000 0.0000 0.0000 0.0000 0.0000 21.4553
#
#
#
# Elastic Compliance Matrix: (Units=1/GPa)
#
#
# Indices 1 2 3 4 5 6 
#
# 1 0.347132 -0.334744 -0.004665 0.000000 0.000000 0.000000
# 2 -0.334744 0.347105 -0.004637 0.000000 0.000000 0.000000
# 3 -0.004665 -0.004637 0.015885 0.000000 0.000000 0.000000
# 4 0.000000 0.000000 0.000000 0.049363 0.000000 0.000000
# 5 0.000000 0.000000 0.000000 0.000000 0.049360 0.000000
# 6 0.000000 0.000000 0.000000 0.000000 0.000000 0.046609
#
#
# Mechanical properties :
#
#
# Convention : Reuss Voigt Hill
#
# Bulk Modulus (GPa) = 45.39286 45.47862 45.43574
# Shear Modulus (GPa) = 3.22395 17.33109 10.27752
#
# Velocity S-wave (km/s) = 1.29519 3.00299 2.31251
# Velocity P-wave (km/s) = 5.08489 5.97393 5.54725
#
# Compressibility (1/GPa) = 0.02202989
#
# Stress axis : x y z
#
# Youngs Moduli (GPa) = 2.88075 2.88097 62.95293
#
# Poissons Ratio (x) = 0.96439 0.29369
# Poissons Ratio (y) = 0.96431 0.29194
# Poissons Ratio (z) = 0.01344 0.01336
#
# Static dielectric constant tensor:
#      x y z
#    x 1.687380 0.000000 0.000000 
#    y 0.000000 1.687380 0.000000 
#    z 0.000000 0.000000 1.744080 
# 
# From -- ./inp_files/3374.got.cif
#   From: 2010.05.17/outbox.cif.g08.bks.cpg/sg121_2_cif.got.tgz:3374.got - 2010.05.20 11:32:06.
