data_PCOD9560144
_publ_section_title
;
Structure prediction by ZEFSAII (Michael W. Deem and Ramdas Pophale) SiO2 
 PCOD9560144
Probable space group: I -4 2 M
;
_chemical_formula_sum "Si O2"
_cell_formula_units_Z 72
_cell_length_a 16.881444
_cell_length_b 16.881444
_cell_length_c 14.412948
_cell_angle_alpha 90.000000
_cell_angle_beta 90.000000
_cell_angle_gamma 90.000000
_cell_volume 4107.447344
_symmetry_space_group_name_H-M "I -4 2 M"
_symmetry_group_IT_number 121
_symmetry_cell_setting 'tetragonal'
loop_
_space_group_symop_operation_xyz
x,y,z
y,-x,-z
-x,-y,z
-y,x,-z
x,-y,-z
-x,y,-z
-y,-x,z
y,x,z
1/2+x,1/2+y,1/2+z
1/2+y,1/2-x,1/2-z
1/2-x,1/2-y,1/2+z
1/2-y,1/2+x,1/2-z
1/2+x,1/2-y,1/2-z
1/2-x,1/2+y,1/2-z
1/2-y,1/2-x,1/2+z
1/2+y,1/2+x,1/2+z
loop_
_atom_site_type_symbol
_atom_site_label
_atom_site_fract_x
_atom_site_fract_y
_atom_site_fract_z
Si Si1 0.237361 0.237361 0.284364
Si Si2 0.513330 0.738116 0.398764
Si Si3 0.495324 0.904959 0.105959
Si Si4 0.190220 0.809781 0.052223
Si Si5 0.598637 0.155153 0.733830
Si Si6 0.354324 0.645677 0.359360
O O1 0.250701 0.250701 0.394744
O O2 0.208679 0.323963 0.252237
O O3 0.175690 0.175690 0.240188
O O4 0.500000 0.778208 0.500000
O O5 0.600875 0.704481 0.414454
O O6 0.525845 0.797532 0.314209
O O7 0.445226 0.673171 0.377533
O O8 0.567925 0.876368 0.168685
O O9 0.415026 0.882438 0.160776
O O10 0.500000 0.000000 0.105651
O O11 0.500000 0.876673 0.000000
O O12 0.192544 0.807457 0.941249
#
# Coordination Sequence:
#
# PCOD9560144 Si02
#       6
#     8  16  16   8  16   8
#     4  10  22  32  54  72 106 140 170 218 270 324
#     4   9  19  31  53  74 105 137 174 218 264 319
#     4  11  23  35  56  80 105 141 181 222 265 317
#     4   8  18  35  46  75 101 134 169 215 265 313
#     4  11  20  38  52  79 109 141 180 223 270 324
#     4  10  18  31  52  75  97 138 175 211 267 317
#
# _framework density 17.529135
#
# number of rings (size 3 to 8) (size 9 to 14) (size 15 to 20)
#    0.000    2.000    2.222    1.333    3.111    4.000 
#    0.000    2.222    0.000    0.000    0.000    0.000 
#    0.000    0.000    0.000   10.000    0.000    0.222 
#
# Total GULP energy -200446.767615 kJ/mol
# GULP energy per Si atom -5567.965767 kJ/mol
# Density = 1.748924 g / cm^3
# Si number density = 17.529135 Si / 1000 Ang^3
#
#
#
# Elastic Constant Matrix: (Units=GPa)
#
#
# Indices 1 2 3 4 5 6 
#
# 1 53.5874 23.2819 32.6931 0.0000 0.0000 0.0000
# 2 23.2819 53.5881 32.6934 0.0000 0.0000 0.0000
# 3 32.6931 32.6934 111.9120 0.0000 0.0000 0.0000
# 4 0.0000 0.0000 0.0000 17.3065 0.0000 0.0000
# 5 0.0000 0.0000 0.0000 0.0000 17.3066 0.0000
# 6 0.0000 0.0000 0.0000 0.0000 0.0000 37.7065
#
#
#
# Elastic Compliance Matrix: (Units=1/GPa)
#
#
# Indices 1 2 3 4 5 6 
#
# 1 0.025154 -0.007843 -0.005057 0.000000 0.000000 0.000000
# 2 -0.007843 0.025154 -0.005057 0.000000 0.000000 0.000000
# 3 -0.005057 -0.005057 0.011890 0.000000 0.000000 0.000000
# 4 0.000000 0.000000 0.000000 0.057782 0.000000 0.000000
# 5 0.000000 0.000000 0.000000 0.000000 0.057782 0.000000
# 6 0.000000 0.000000 0.000000 0.000000 0.000000 0.026521
#
#
# Mechanical properties :
#
#
# Convention : Reuss Voigt Hill
#
# Bulk Modulus (GPa) = 38.04679 44.04712 41.04696
# Shear Modulus (GPa) = 20.08378 23.15853 21.62116
#
# Velocity S-wave (km/s) = 3.38855 3.63870 3.51585
# Velocity P-wave (km/s) = 6.08783 6.54492 6.32051
#
# Compressibility (1/GPa) = 0.02628342
#
# Stress axis : x y z
#
# Youngs Moduli (GPa) = 39.75521 39.75567 84.10268
#
# Poissons Ratio (x) = 0.31181 0.42531
# Poissons Ratio (y) = 0.31181 0.42531
# Poissons Ratio (z) = 0.20104 0.20104
#
# Static dielectric constant tensor:
#      x y z
#    x 1.618990 0.000000 0.000000 
#    y 0.000000 1.618990 0.000000 
#    z 0.000000 0.000000 1.637130 
# 
# From -- ./inp_files/3063.got.cif
#   From: 2010.05.17/outbox.cif.g08.bks.cpg/sg121_2_cif.got.tgz:3063.got - 2010.05.20 11:32:06.
