data_PCOD9560355
_publ_section_title
;
Structure prediction by ZEFSAII (Michael W. Deem and Ramdas Pophale) SiO2 
 PCOD9560355
Probable space group: I -4 2 M
;
_chemical_formula_sum "Si O2"
_cell_formula_units_Z 112
_cell_length_a 14.087836
_cell_length_b 14.087836
_cell_length_c 31.856066
_cell_angle_alpha 90.000000
_cell_angle_beta 90.000000
_cell_angle_gamma 90.000000
_cell_volume 6322.381774
_symmetry_space_group_name_H-M "I -4 2 M"
_symmetry_group_IT_number 121
_symmetry_cell_setting 'tetragonal'
loop_
_space_group_symop_operation_xyz
x,y,z
y,-x,-z
-x,-y,z
-y,x,-z
x,-y,-z
-x,y,-z
-y,-x,z
y,x,z
1/2+x,1/2+y,1/2+z
1/2+y,1/2-x,1/2-z
1/2-x,1/2-y,1/2+z
1/2-y,1/2+x,1/2-z
1/2+x,1/2-y,1/2-z
1/2-x,1/2+y,1/2-z
1/2-y,1/2-x,1/2+z
1/2+y,1/2+x,1/2+z
loop_
_atom_site_type_symbol
_atom_site_label
_atom_site_fract_x
_atom_site_fract_y
_atom_site_fract_z
Si Si1 0.343928 0.503671 0.715685
Si Si2 0.031448 0.184505 0.118692
Si Si3 0.887944 0.474355 0.139701
Si Si4 0.516294 0.851175 0.764301
Si Si5 0.885492 0.611429 0.003428
Si Si6 0.314563 0.838790 0.404177
Si Si7 0.140539 0.710017 0.082930
O O1 0.402461 0.597540 0.727465
O O2 0.414662 0.414662 0.721174
O O3 0.321293 0.507663 0.666013
O O4 0.250165 0.490726 0.742705
O O5 0.086226 0.086226 0.108737
O O6 0.111047 0.266144 0.116819
O O7 0.947789 0.217690 0.088109
O O8 0.850659 0.459357 0.186667
O O9 0.830281 0.560242 0.118049
O O10 0.879433 0.380048 0.112154
O O11 0.000000 0.500000 0.141535
O O12 0.416590 0.906306 0.758993
O O13 0.848938 0.671534 0.964159
O O14 0.859991 0.500000 0.000000
O O15 0.846998 0.649634 0.047509
O O16 0.000000 0.616551 0.000000
O O17 0.211903 0.788098 0.401479
O O18 0.233894 0.766106 0.096229
#
# Coordination Sequence:
#
# PCOD9560355 Si02
#       7
#    16  16  16  16  16  16  16
#     4  10  22  40  60  83 116 161 204 240 289 356
#     4  10  20  36  58  86 123 159 196 240 291 354
#     4  12  21  40  63  85 122 154 197 246 298 349
#     4  11  22  37  59  87 120 153 192 250 301 343
#     4  11  20  38  62  87 118 155 191 242 293 344
#     4  11  22  37  62  90 116 153 198 240 291 352
#     4  12  24  37  61  92 119 155 199 243 292 350
#
# _framework density 17.714843999999999
#
# number of rings (size 3 to 8) (size 9 to 14) (size 15 to 20)
#    0.000    1.000    5.714    2.571    0.000    2.571 
#    0.000    0.000    0.000    0.429    0.000    1.000 
#    0.000    0.000    0.000    0.000    0.000    0.000 
#
# Total GULP energy -312846.088582 kJ/mol
# GULP energy per Si atom -5586.537296 kJ/mol
# Density = 1.767452 g / cm^3
# Si number density = 17.714844 Si / 1000 Ang^3
#
#
#
# Elastic Constant Matrix: (Units=GPa)
#
#
# Indices 1 2 3 4 5 6 
#
# 1 65.0663 22.8381 4.9242 0.0000 0.0000 0.0000
# 2 22.8381 65.0650 4.9236 0.0000 0.0000 0.0000
# 3 4.9242 4.9236 59.0681 0.0000 0.0000 0.0000
# 4 0.0000 0.0000 0.0000 8.8416 0.0000 0.0000
# 5 0.0000 0.0000 0.0000 0.0000 8.8408 0.0000
# 6 0.0000 0.0000 0.0000 0.0000 0.0000 20.5985
#
#
#
# Elastic Compliance Matrix: (Units=1/GPa)
#
#
# Indices 1 2 3 4 5 6 
#
# 1 0.017582 -0.006099 -0.000957 0.000000 0.000000 0.000000
# 2 -0.006099 0.017582 -0.000957 0.000000 0.000000 0.000000
# 3 -0.000957 -0.000957 0.017089 0.000000 0.000000 0.000000
# 4 0.000000 0.000000 0.000000 0.113101 0.000000 0.000000
# 5 0.000000 0.000000 0.000000 0.000000 0.113112 0.000000
# 6 0.000000 0.000000 0.000000 0.000000 0.000000 0.048547
#
#
# Mechanical properties :
#
#
# Convention : Reuss Voigt Hill
#
# Bulk Modulus (GPa) = 27.60383 28.28569 27.94476
# Shear Modulus (GPa) = 14.07986 18.09042 16.08514
#
# Velocity S-wave (km/s) = 2.82229 3.19909 3.01658
# Velocity P-wave (km/s) = 5.12216 5.44495 5.28602
#
# Compressibility (1/GPa) = 0.03622685
#
# Stress axis : x y z
#
# Youngs Moduli (GPa) = 56.87605 56.87500 58.51649
#
# Poissons Ratio (x) = 0.34688 0.05602
# Poissons Ratio (y) = 0.34688 0.05601
# Poissons Ratio (z) = 0.05445 0.05444
#
# Static dielectric constant tensor:
#      x y z
#    x 1.599890 0.000000 0.000000 
#    y 0.000000 1.599900 0.000000 
#    z 0.000000 0.000000 1.587480 
# 
# From -- ./inp_files/7762.got.cif
#   From: 2010.05.17/outbox.cif.g08.bks.cpg/sg121_4_cif.got.tgz:7762.got - 2010.05.20 11:32:06.
