data_PCOD9560076
_publ_section_title
;
Structure prediction by ZEFSAII (Michael W. Deem and Ramdas Pophale) SiO2 
 PCOD9560076
Probable space group: I -4 C 2
;
_chemical_formula_sum "Si O2"
_cell_formula_units_Z 56
_cell_length_a 15.000000
_cell_length_b 15.000000
_cell_length_c 24.000000
_cell_angle_alpha 90.000000
_cell_angle_beta 90.000000
_cell_angle_gamma 90.000000
_cell_volume 5400.000000
_symmetry_space_group_name_H-M "I -4 C 2"
_symmetry_group_IT_number 120
_symmetry_cell_setting 'tetragonal'
loop_
_space_group_symop_operation_xyz
x,y,z
y,-x,-z
-x,-y,z
-y,x,-z
y,x,1/2-z
-y,-x,1/2-z
-x,y,1/2+z
x,-y,1/2+z
1/2+x,1/2+y,1/2+z
1/2+y,1/2-x,1/2-z
1/2-x,1/2-y,1/2+z
1/2-y,1/2+x,1/2-z
1/2+y,1/2+x,-z
1/2-y,1/2-x,-z
1/2-x,1/2+y,z
1/2+x,1/2-y,z
loop_
_atom_site_type_symbol
_atom_site_label
_atom_site_fract_x
_atom_site_fract_y
_atom_site_fract_z
Si Si1 0.090736 0.943187 0.811587
Si Si2 0.198767 0.115641 0.806994
Si Si3 0.787514 0.378466 0.640713
Si Si4 0.307823 0.267447 0.555689
Si Si5 0.467159 0.634654 0.998478
Si Si6 0.221334 0.940633 0.606608
Si Si7 0.618183 0.907675 0.750544
O O1 0.098432 0.901569 0.750000
O O2 0.078124 0.863940 0.854717
O O3 0.168248 0.015338 0.820761
O O4 0.000000 0.000000 0.812960
O O5 0.146847 0.146847 0.750000
O O6 0.159934 0.187628 0.850005
O O7 0.304990 0.117055 0.795542
O O8 0.823971 0.322600 0.589400
O O9 0.783331 0.485114 0.634114
O O10 0.845754 0.360084 0.694993
O O11 0.256335 0.243666 0.500000
O O12 0.401351 0.312371 0.538259
O O13 0.251148 0.341372 0.589337
O O14 0.508311 0.692537 0.949630
O O15 0.552467 0.589263 0.027484
O O16 0.515212 0.881400 0.758168
#
# Coordination Sequence:
#
# PCOD9560076 Si02
#       7
#    16  16  16  16  16  16  16
#     4  11  19  34  58  97 133 161 194 254 334 401
#     4  10  20  38  60  92 133 167 207 273 324 383
#     4  11  23  41  64  96 128 170 217 272 328 395
#     4  11  24  42  60  94 131 168 218 274 331 388
#     4   9  20  38  63  93 124 164 212 275 337 391
#     4  11  23  38  67  92 132 173 210 269 336 398
#     4  10  24  45  64  87 131 179 225 265 309 395
#
# _framework density 10.370369999999999
#
# number of rings (size 3 to 8) (size 9 to 14) (size 15 to 20)
#    0.000    1.571    4.286    0.857    8.000    0.000 
#    0.000    0.000    0.000    0.000    0.000    0.000 
#    0.000    0.000    0.000    0.000    0.000    0.000 
#
# Total GULP energy -312533.224860 kJ/mol
# GULP energy per Si atom -5580.950444 kJ/mol
# Density = 1.034677 g / cm^3
# Si number density = 10.370370 Si / 1000 Ang^3
#
#
#
# Elastic Constant Matrix: (Units=GPa)
#
#
# Indices 1 2 3 4 5 6 
#
# 1 49.1220 20.8690 22.2640 0.0000 0.0000 0.0000
# 2 20.8690 49.1206 22.2639 0.0000 0.0000 0.0000
# 3 22.2640 22.2639 64.2852 0.0000 0.0000 0.0000
# 4 0.0000 0.0000 0.0000 18.3617 0.0000 0.0000
# 5 0.0000 0.0000 0.0000 0.0000 18.3610 0.0000
# 6 0.0000 0.0000 0.0000 0.0000 0.0000 27.8834
#
#
#
# Elastic Compliance Matrix: (Units=1/GPa)
#
#
# Indices 1 2 3 4 5 6 
#
# 1 0.026860 -0.008535 -0.006347 0.000000 0.000000 0.000000
# 2 -0.008535 0.026861 -0.006347 0.000000 0.000000 0.000000
# 3 -0.006347 -0.006347 0.019952 0.000000 0.000000 0.000000
# 4 0.000000 0.000000 0.000000 0.054461 0.000000 0.000000
# 5 0.000000 0.000000 0.000000 0.000000 0.054463 0.000000
# 6 0.000000 0.000000 0.000000 0.000000 0.000000 0.035864
#
#
# Mechanical properties :
#
#
# Convention : Reuss Voigt Hill
#
# Bulk Modulus (GPa) = 32.03487 32.59130 32.31308
# Shear Modulus (GPa) = 18.42824 19.39660 18.91242
#
# Velocity S-wave (km/s) = 2.98401 3.06141 3.02296
# Velocity P-wave (km/s) = 5.22985 5.31452 5.27235
#
# Compressibility (1/GPa) = 0.03121599
#
# Stress axis : x y z
#
# Youngs Moduli (GPa) = 37.23011 37.22887 50.12090
#
# Poissons Ratio (x) = 0.31775 0.31809
# Poissons Ratio (y) = 0.31776 0.31811
# Poissons Ratio (z) = 0.23628 0.23628
#
# Static dielectric constant tensor:
#      x y z
#    x 1.738070 0.000000 0.000000 
#    y 0.000000 1.738070 0.000000 
#    z 0.000000 0.000000 1.809690 
# 
# From -- ./inp_files/5926.got.cif
#   From: 2010.05.17/outbox.ucp.g08.bks.cvg/sg120_3_cif.got.tgz:5926.got - 2010.06.11 11:34:49.
