data_PCOD9560725
_publ_section_title
;
Structure prediction by ZEFSAII (Michael W. Deem and Ramdas Pophale) SiO2 
 PCOD9560725
Probable space group: I -4 2 D
;
_chemical_formula_sum "Si O2"
_cell_formula_units_Z 112
_cell_length_a 21.728683
_cell_length_b 21.728683
_cell_length_c 13.441812
_cell_angle_alpha 90.000000
_cell_angle_beta 90.000000
_cell_angle_gamma 90.000000
_cell_volume 6346.358846
_symmetry_space_group_name_H-M "I -4 2 D"
_symmetry_group_IT_number 122
_symmetry_cell_setting 'tetragonal'
loop_
_space_group_symop_operation_xyz
x,y,z
y,-x,-z
-x,-y,z
-y,x,-z
x,1/2-y,1/4-z
-x,1/2+y,1/4-z
-y,1/2-x,1/4+z
y,1/2+x,1/4+z
1/2+x,1/2+y,1/2+z
1/2+y,1/2-x,1/2-z
1/2-x,1/2-y,1/2+z
1/2-y,1/2+x,1/2-z
1/2+x,-y,3/4-z
1/2-x,y,3/4-z
1/2-y,-x,3/4+z
1/2+y,x,3/4+z
loop_
_atom_site_type_symbol
_atom_site_label
_atom_site_fract_x
_atom_site_fract_y
_atom_site_fract_z
Si Si1 0.441837 0.315112 0.669129
Si Si2 0.177990 0.919652 0.399980
Si Si3 0.104155 0.804540 0.326412
Si Si4 0.608085 0.163201 0.838151
Si Si5 0.932055 0.126637 0.131940
Si Si6 0.289564 0.536898 0.111510
Si Si7 0.650508 0.018012 0.550015
O O1 0.464920 0.250000 0.625000
O O2 0.381012 0.335786 0.613194
O O3 0.495354 0.365165 0.650933
O O4 0.430215 0.307367 0.786203
O O5 0.250000 0.912544 0.375000
O O6 0.144072 0.855338 0.382387
O O7 0.175157 0.941195 0.513579
O O8 0.152066 0.968123 0.318229
O O9 0.125974 0.734761 0.338171
O O10 0.099580 0.827495 0.212236
O O11 0.034709 0.803689 0.368268
O O12 0.582252 0.146972 0.729472
O O13 0.552840 0.149350 0.916474
O O14 0.903819 0.059453 0.153793
O O15 0.216270 0.542476 0.092116
#
# Coordination Sequence:
#
# PCOD9560725 Si02
#       7
#    16  16  16  16  16  16  16
#     4  11  22  34  50  75 106 137 165 203 257 310
#     4   9  18  34  55  75 100 132 173 215 250 299
#     4   9  19  33  53  76 100 136 172 202 253 312
#     4  11  20  32  52  78 106 131 166 213 255 299
#     4  10  18  34  55  73 100 135 170 206 251 306
#     4   9  18  35  53  72 102 135 167 208 255 300
#     4   9  19  34  53  77  97 130 175 213 251 295
#
# _framework density 17.647915000000001
#
# number of rings (size 3 to 8) (size 9 to 14) (size 15 to 20)
#    0.000    2.286    0.000    4.714    0.000    2.286 
#    0.000    3.571    0.000    2.143    0.000    0.000 
#    0.000    0.000    0.000    0.000    0.000    0.000 
#
# Total GULP energy -312334.472641 kJ/mol
# GULP energy per Si atom -5577.401297 kJ/mol
# Density = 1.760775 g / cm^3
# Si number density = 17.647915 Si / 1000 Ang^3
#
#
#
# Elastic Constant Matrix: (Units=GPa)
#
#
# Indices 1 2 3 4 5 6 
#
# 1 21.2903 13.6332 8.2400 0.0000 0.0000 0.0000
# 2 13.6332 21.2903 8.2400 0.0000 0.0000 0.0000
# 3 8.2400 8.2400 112.3031 0.0000 0.0000 0.0000
# 4 0.0000 0.0000 0.0000 19.0571 0.0000 0.0000
# 5 0.0000 0.0000 0.0000 0.0000 19.0571 0.0000
# 6 0.0000 0.0000 0.0000 0.0000 0.0000 31.7247
#
#
#
# Elastic Compliance Matrix: (Units=1/GPa)
#
#
# Indices 1 2 3 4 5 6 
#
# 1 0.080129 -0.050468 -0.002176 0.000000 0.000000 0.000000
# 2 -0.050468 0.080129 -0.002176 0.000000 0.000000 0.000000
# 3 -0.002176 -0.002176 0.009224 0.000000 0.000000 0.000000
# 4 0.000000 0.000000 0.000000 0.052474 0.000000 0.000000
# 5 0.000000 0.000000 0.000000 0.000000 0.052474 0.000000
# 6 0.000000 0.000000 0.000000 0.000000 0.000000 0.031521
#
#
# Mechanical properties :
#
#
# Convention : Reuss Voigt Hill
#
# Bulk Modulus (GPa) = 16.71108 23.90113 20.30611
# Shear Modulus (GPa) = 11.48002 22.28583 16.88293
#
# Velocity S-wave (km/s) = 2.55326 3.55745 3.09634
# Velocity P-wave (km/s) = 4.26403 5.51785 4.93095
#
# Compressibility (1/GPa) = 0.05984054
#
# Stress axis : x y z
#
# Youngs Moduli (GPa) = 12.47985 12.47985 108.41477
#
# Poissons Ratio (x) = 0.62984 0.23594
# Poissons Ratio (y) = 0.62984 0.23594
# Poissons Ratio (z) = 0.02716 0.02716
#
# Static dielectric constant tensor:
#      x y z
#    x 1.589530 0.000000 0.000000 
#    y 0.000000 1.589530 0.000000 
#    z 0.000000 0.000000 1.606810 
# 
# From -- ./inp_files/4597.got.cif
#   From: 2010.05.17/outbox.cif.g08.bks.cpg/sg122_3_cif.got.tgz:4597.got - 2010.05.20 11:37:33.
