data_PCOD9560840
_publ_section_title
;
Structure prediction by ZEFSAII (Michael W. Deem and Ramdas Pophale) SiO2 
 PCOD9560840
Probable space group: I -4 2 D
;
_chemical_formula_sum "Si O2"
_cell_formula_units_Z 120
_cell_length_a 27.298108
_cell_length_b 27.298108
_cell_length_c 9.277950
_cell_angle_alpha 90.000000
_cell_angle_beta 90.000000
_cell_angle_gamma 90.000000
_cell_volume 6913.804947
_symmetry_space_group_name_H-M "I -4 2 D"
_symmetry_group_IT_number 122
_symmetry_cell_setting 'tetragonal'
loop_
_space_group_symop_operation_xyz
x,y,z
y,-x,-z
-x,-y,z
-y,x,-z
x,1/2-y,1/4-z
-x,1/2+y,1/4-z
-y,1/2-x,1/4+z
y,1/2+x,1/4+z
1/2+x,1/2+y,1/2+z
1/2+y,1/2-x,1/2-z
1/2-x,1/2-y,1/2+z
1/2-y,1/2+x,1/2-z
1/2+x,-y,3/4-z
1/2-x,y,3/4-z
1/2-y,-x,3/4+z
1/2+y,x,3/4+z
loop_
_atom_site_type_symbol
_atom_site_label
_atom_site_fract_x
_atom_site_fract_y
_atom_site_fract_z
Si Si1 0.644955 0.750000 0.125000
Si Si2 0.662536 0.409500 0.016787
Si Si3 0.082456 0.633073 0.522279
Si Si4 0.119930 0.401586 0.489479
Si Si5 0.757563 0.904627 0.210285
Si Si6 0.834015 0.207252 0.233295
Si Si7 0.024393 0.669300 0.800410
Si Si8 0.445498 0.939549 0.766486
O O1 0.613007 0.715489 0.020128
O O2 0.679069 0.713393 0.213447
O O3 0.631164 0.402258 0.869286
O O4 0.632148 0.381967 0.142486
O O5 0.667214 0.466370 0.054117
O O6 0.088281 0.684709 0.438757
O O7 0.044021 0.644971 0.651305
O O8 0.065858 0.590619 0.412685
O O9 0.165935 0.371451 0.426288
O O10 0.140313 0.450089 0.568631
O O11 0.082832 0.414152 0.363831
O O12 0.750000 0.889065 0.375000
O O13 0.724474 0.953602 0.193792
O O14 0.732770 0.863844 0.112264
O O15 0.821641 0.250000 0.125000
O O16 0.502734 0.934591 0.724390
#
# Coordination Sequence:
#
# PCOD9560840 Si02
#       8
#     8  16  16  16  16  16  16  16
#     4  10  22  32  52  84 108 138 172 228 282 320
#     4  10  20  35  54  79 112 137 175 230 279 317
#     4  10  20  34  55  81 105 142 184 227 269 320
#     4   9  19  36  53  77 106 139 179 218 267 318
#     4   9  18  33  57  80 100 135 190 220 254 323
#     4  10  20  36  55  75 103 142 175 215 264 324
#     4   9  18  33  56  79 102 139 181 225 266 322
#     4  11  22  35  53  79 110 145 180 217 270 329
#
# _framework density 17.356579
#
# number of rings (size 3 to 8) (size 9 to 14) (size 15 to 20)
#    0.000    2.267    0.000    4.800    2.800    1.600 
#    0.000    0.000    0.000    8.800    0.000    0.000 
#    0.000    0.000    0.000    0.000    0.000    0.000 
#
# Total GULP energy -334611.977025 kJ/mol
# GULP energy per Si atom -5576.866284 kJ/mol
# Density = 1.731707 g / cm^3
# Si number density = 17.356579 Si / 1000 Ang^3
#
#
#
# Elastic Constant Matrix: (Units=GPa)
#
#
# Indices 1 2 3 4 5 6 
#
# 1 98.5803 34.1999 14.1077 0.0000 0.0000 0.0000
# 2 34.1999 98.5803 14.1077 0.0000 0.0000 0.0000
# 3 14.1077 14.1077 29.4479 0.0000 0.0000 0.0000
# 4 0.0000 0.0000 0.0000 20.5117 0.0000 0.0000
# 5 0.0000 0.0000 0.0000 0.0000 20.5117 0.0000
# 6 0.0000 0.0000 0.0000 0.0000 0.0000 33.4442
#
#
#
# Elastic Compliance Matrix: (Units=1/GPa)
#
#
# Indices 1 2 3 4 5 6 
#
# 1 0.011959 -0.003574 -0.004017 0.000000 0.000000 0.000000
# 2 -0.003574 0.011959 -0.004017 0.000000 0.000000 0.000000
# 3 -0.004017 -0.004017 0.037807 0.000000 0.000000 0.000000
# 4 0.000000 0.000000 0.000000 0.048753 0.000000 0.000000
# 5 0.000000 0.000000 0.000000 0.000000 0.048753 0.000000
# 6 0.000000 0.000000 0.000000 0.000000 0.000000 0.029901
#
#
# Mechanical properties :
#
#
# Convention : Reuss Voigt Hill
#
# Bulk Modulus (GPa) = 25.96799 39.04882 32.50840
# Shear Modulus (GPa) = 22.20423 25.83974 24.02198
#
# Velocity S-wave (km/s) = 3.58061 3.86263 3.72429
# Velocity P-wave (km/s) = 5.66465 6.51460 6.10444
#
# Compressibility (1/GPa) = 0.03850895
#
# Stress axis : x y z
#
# Youngs Moduli (GPa) = 83.62073 83.62073 26.45005
#
# Poissons Ratio (x) = 0.29885 0.10625
# Poissons Ratio (y) = 0.29885 0.10625
# Poissons Ratio (z) = 0.33590 0.33590
#
# Static dielectric constant tensor:
#      x y z
#    x 1.564530 0.000000 0.000000 
#    y 0.000000 1.564530 0.000000 
#    z 0.000000 0.000000 1.575880 
# 
# From -- ./inp_files/3111.got.cif
#   From: 2010.05.17/outbox.cif.g08.bks.cpg/sg122_2_cif.got.tgz:3111.got - 2010.05.20 11:37:33.
