data_PCOD9560175
_publ_section_title
;
Structure prediction by ZEFSAII (Michael W. Deem and Ramdas Pophale) SiO2 
 PCOD9560175
Probable space group: I -4 2 M
;
_chemical_formula_sum "Si O2"
_cell_formula_units_Z 48
_cell_length_a 11.335996
_cell_length_b 11.335996
_cell_length_c 17.316210
_cell_angle_alpha 90.000000
_cell_angle_beta 90.000000
_cell_angle_gamma 90.000000
_cell_volume 2225.216195
_symmetry_space_group_name_H-M "I -4 2 M"
_symmetry_group_IT_number 121
_symmetry_cell_setting 'tetragonal'
loop_
_space_group_symop_operation_xyz
x,y,z
y,-x,-z
-x,-y,z
-y,x,-z
x,-y,-z
-x,y,-z
-y,-x,z
y,x,z
1/2+x,1/2+y,1/2+z
1/2+y,1/2-x,1/2-z
1/2-x,1/2-y,1/2+z
1/2-y,1/2+x,1/2-z
1/2+x,1/2-y,1/2-z
1/2-x,1/2+y,1/2-z
1/2-y,1/2-x,1/2+z
1/2+y,1/2+x,1/2+z
loop_
_atom_site_type_symbol
_atom_site_label
_atom_site_fract_x
_atom_site_fract_y
_atom_site_fract_z
Si Si1 0.142175 0.486842 0.846519
Si Si2 0.559918 0.747249 0.314997
Si Si3 0.303913 0.885737 0.945546
O O1 0.212249 0.532900 0.772298
O O2 0.149343 0.346208 0.850121
O O3 0.167368 0.570222 0.919357
O O4 0.000000 0.500000 0.834995
O O5 0.622266 0.622266 0.317300
O O6 0.442830 0.752744 0.366363
O O7 0.211519 0.788482 0.974369
O O8 0.318773 0.000000 0.000000
#
# Coordination Sequence:
#
# PCOD9560175 Si02
#       3
#    16  16  16
#     4  10  18  36  57  81 113 163 203 237 282 361
#     4  11  20  34  58  86 118 158 201 246 298 358
#     4  11  23  39  59  87 123 158 197 251 310 360
#
# _framework density 21.570937000000001
#
# number of rings (size 3 to 8) (size 9 to 14) (size 15 to 20)
#    0.000    1.333    6.667    2.000    0.000    8.333 
#    0.000    0.000    0.000    3.000    0.000    0.000 
#    0.000   26.667    0.000    0.000    0.000    0.000 
#
# Total GULP energy -133906.870454 kJ/mol
# GULP energy per Si atom -5579.452936 kJ/mol
# Density = 2.152184 g / cm^3
# Si number density = 21.570937 Si / 1000 Ang^3
#
#
#
# Elastic Constant Matrix: (Units=GPa)
#
#
# Indices 1 2 3 4 5 6 
#
# 1 35.1845 12.9214 16.8253 0.0000 0.0000 0.0000
# 2 12.9214 35.1849 16.8251 0.0000 0.0000 0.0000
# 3 16.8253 16.8251 97.7267 0.0000 0.0000 0.0000
# 4 0.0000 0.0000 0.0000 25.1599 0.0000 0.0000
# 5 0.0000 0.0000 0.0000 0.0000 25.1601 0.0000
# 6 0.0000 0.0000 0.0000 0.0000 0.0000 30.6930
#
#
#
# Elastic Compliance Matrix: (Units=1/GPa)
#
#
# Indices 1 2 3 4 5 6 
#
# 1 0.034276 -0.010642 -0.004069 0.000000 0.000000 0.000000
# 2 -0.010642 0.034275 -0.004069 0.000000 0.000000 0.000000
# 3 -0.004069 -0.004069 0.011634 0.000000 0.000000 0.000000
# 4 0.000000 0.000000 0.000000 0.039746 0.000000 0.000000
# 5 0.000000 0.000000 0.000000 0.000000 0.039745 0.000000
# 6 0.000000 0.000000 0.000000 0.000000 0.000000 0.032581
#
#
# Mechanical properties :
#
#
# Convention : Reuss Voigt Hill
#
# Bulk Modulus (GPa) = 23.46026 29.02663 26.24344
# Shear Modulus (GPa) = 20.48981 24.30422 22.39702
#
# Velocity S-wave (km/s) = 3.08536 3.36029 3.22576
# Velocity P-wave (km/s) = 4.85716 5.34238 5.10554
#
# Compressibility (1/GPa) = 0.04262528
#
# Stress axis : x y z
#
# Youngs Moduli (GPa) = 29.17531 29.17572 85.95735
#
# Poissons Ratio (x) = 0.31048 0.34976
# Poissons Ratio (y) = 0.31048 0.34974
# Poissons Ratio (z) = 0.11871 0.11871
#
# Static dielectric constant tensor:
#      x y z
#    x 1.822630 0.000000 0.000000 
#    y 0.000000 1.822630 0.000000 
#    z 0.000000 0.000000 1.868650 
# 
# From -- ./inp_files/4893.got.cif
#   From: 2010.05.17/outbox.cif.g08.bks.cpg/sg121_3_cif.got.tgz:4893.got - 2010.05.20 11:32:06.
