data_PCOD9560680
_publ_section_title
;
Structure prediction by ZEFSAII (Michael W. Deem and Ramdas Pophale) SiO2 
 PCOD9560680
Probable space group: I -4 2 D
;
_chemical_formula_sum "Si O2"
_cell_formula_units_Z 64
_cell_length_a 11.973256
_cell_length_b 11.973256
_cell_length_c 23.291825
_cell_angle_alpha 90.000000
_cell_angle_beta 90.000000
_cell_angle_gamma 90.000000
_cell_volume 3339.089462
_symmetry_space_group_name_H-M "I -4 2 D"
_symmetry_group_IT_number 122
_symmetry_cell_setting 'tetragonal'
loop_
_space_group_symop_operation_xyz
x,y,z
y,-x,-z
-x,-y,z
-y,x,-z
x,1/2-y,1/4-z
-x,1/2+y,1/4-z
-y,1/2-x,1/4+z
y,1/2+x,1/4+z
1/2+x,1/2+y,1/2+z
1/2+y,1/2-x,1/2-z
1/2-x,1/2-y,1/2+z
1/2-y,1/2+x,1/2-z
1/2+x,-y,3/4-z
1/2-x,y,3/4-z
1/2-y,-x,3/4+z
1/2+y,x,3/4+z
loop_
_atom_site_type_symbol
_atom_site_label
_atom_site_fract_x
_atom_site_fract_y
_atom_site_fract_z
Si Si1 0.243079 0.043039 0.941232
Si Si2 0.105828 0.666133 0.417124
Si Si3 0.500000 0.000000 0.824229
Si Si4 0.621269 0.056426 0.482798
Si Si5 0.133368 0.250000 0.625000
O O1 0.250000 0.087538 0.875000
O O2 0.113017 0.040603 0.956296
O O3 0.294825 0.918117 0.936347
O O4 0.322437 0.103671 0.986956
O O5 0.155102 0.782825 0.398195
O O6 0.042508 0.599362 0.366375
O O7 0.021123 0.676954 0.469322
O O8 0.694898 0.065077 0.426346
O O9 0.500000 0.000000 0.471783
#
# Coordination Sequence:
#
# PCOD9560680 Si02
#       5
#    16  16   8  16   8
#     4   9  15  33  63  92 130 167 199 270 342 388
#     4  10  18  38  63  92 127 168 220 270 324 393
#     4  10  14  32  65  94 136 158 205 272 348 402
#     4  10  22  44  65  88 136 175 220 278 327 391
#     4  12  24  42  66  92 128 180 228 276 322 390
#
# _framework density 19.166902
#
# number of rings (size 3 to 8) (size 9 to 14) (size 15 to 20)
#    0.000    2.000   10.000    0.000    0.000    0.000 
#   13.500    1.250    0.000    0.000    0.000    7.000 
#    0.000    0.000    0.000    0.000    0.000    0.000 
#
# Total GULP energy -178619.174245 kJ/mol
# GULP energy per Si atom -5581.849195 kJ/mol
# Density = 1.912328 g / cm^3
# Si number density = 19.166902 Si / 1000 Ang^3
#
#
#
# Elastic Constant Matrix: (Units=GPa)
#
#
# Indices 1 2 3 4 5 6 
#
# 1 106.3483 31.3176 53.6980 0.0000 0.0000 0.0000
# 2 31.3176 106.3483 53.6980 0.0000 0.0000 0.0000
# 3 53.6980 53.6980 120.1851 0.0000 0.0000 0.0000
# 4 0.0000 0.0000 0.0000 23.7621 0.0000 0.0000
# 5 0.0000 0.0000 0.0000 0.0000 23.7621 0.0000
# 6 0.0000 0.0000 0.0000 0.0000 0.0000 14.3410
#
#
#
# Elastic Compliance Matrix: (Units=1/GPa)
#
#
# Indices 1 2 3 4 5 6 
#
# 1 0.012239 -0.001089 -0.004982 0.000000 0.000000 0.000000
# 2 -0.001089 0.012239 -0.004982 0.000000 0.000000 0.000000
# 3 -0.004982 -0.004982 0.012772 0.000000 0.000000 0.000000
# 4 0.000000 0.000000 0.000000 0.042084 0.000000 0.000000
# 5 0.000000 0.000000 0.000000 0.000000 0.042084 0.000000
# 6 0.000000 0.000000 0.000000 0.000000 0.000000 0.069730
#
#
# Mechanical properties :
#
#
# Convention : Reuss Voigt Hill
#
# Bulk Modulus (GPa) = 66.02654 67.81211 66.91933
# Shear Modulus (GPa) = 22.90401 25.31756 24.11079
#
# Velocity S-wave (km/s) = 3.46059 3.63836 3.55059
# Velocity P-wave (km/s) = 7.10567 7.28744 7.19713
#
# Compressibility (1/GPa) = 0.01514542
#
# Stress axis : x y z
#
# Youngs Moduli (GPa) = 81.70476 81.70476 78.29417
#
# Poissons Ratio (x) = 0.08895 0.39006
# Poissons Ratio (y) = 0.08895 0.39006
# Poissons Ratio (z) = 0.40705 0.40705
#
# Static dielectric constant tensor:
#      x y z
#    x 1.665990 0.000000 0.000000 
#    y 0.000000 1.665990 0.000000 
#    z 0.000000 0.000000 1.722430 
# 
# From -- ./inp_files/7886.got.cif
#   From: 2010.05.17/outbox.cif.g08.bks.cpg/sg122_4_cif.got.tgz:7886.got - 2010.05.20 11:37:33.
