data_PCOD9560451
_publ_section_title
;
Structure prediction by ZEFSAII (Michael W. Deem and Ramdas Pophale) SiO2 
 PCOD9560451
Probable space group: I -4 2 M
;
_chemical_formula_sum "Si O2"
_cell_formula_units_Z 60
_cell_length_a 15.589736
_cell_length_b 15.589736
_cell_length_c 13.901785
_cell_angle_alpha 90.000000
_cell_angle_beta 90.000000
_cell_angle_gamma 90.000000
_cell_volume 3378.687999
_symmetry_space_group_name_H-M "I -4 2 M"
_symmetry_group_IT_number 121
_symmetry_cell_setting 'tetragonal'
loop_
_space_group_symop_operation_xyz
x,y,z
y,-x,-z
-x,-y,z
-y,x,-z
x,-y,-z
-x,y,-z
-y,-x,z
y,x,z
1/2+x,1/2+y,1/2+z
1/2+y,1/2-x,1/2-z
1/2-x,1/2-y,1/2+z
1/2-y,1/2+x,1/2-z
1/2+x,1/2-y,1/2-z
1/2-x,1/2+y,1/2-z
1/2-y,1/2-x,1/2+z
1/2+y,1/2+x,1/2+z
loop_
_atom_site_type_symbol
_atom_site_label
_atom_site_fract_x
_atom_site_fract_y
_atom_site_fract_z
Si Si1 0.000000 0.143495 0.000000
Si Si2 0.000000 0.500000 0.750000
Si Si3 0.361382 0.782420 0.959816
Si Si4 0.466846 0.820978 0.147720
Si Si5 0.906768 0.235629 0.843573
O O1 0.985333 0.200996 0.906698
O O2 0.082226 0.082226 0.988901
O O3 0.918201 0.513810 0.819341
O O4 0.304201 0.695800 0.965591
O O5 0.446765 0.777610 0.894259
O O6 0.301799 0.853833 0.909679
O O7 0.395630 0.812330 0.064111
O O8 0.435675 0.775937 0.244398
O O9 0.843533 0.156468 0.823505
#
# Coordination Sequence:
#
# PCOD9560451 Si02
#       5
#     8   4  16  16  16
#     4   9  20  36  54  81 112 146 196 253 304 356
#     4  12  24  38  56  96 118 164 188 242 312 360
#     4  10  23  40  60  87 119 160 201 246 296 360
#     4  11  23  40  60  87 125 157 199 250 297 366
#     4  10  21  37  59  85 115 155 200 245 300 356
#
# _framework density 17.758372000000001
#
# number of rings (size 3 to 8) (size 9 to 14) (size 15 to 20)
#    0.000    1.733    2.667    0.800    3.733    3.200 
#    0.000    0.000    0.000   12.800    0.000    0.000 
#    0.000    0.000    0.000    0.000    0.000    0.000 
#
# Total GULP energy -167429.429015 kJ/mol
# GULP energy per Si atom -5580.980967 kJ/mol
# Density = 1.771795 g / cm^3
# Si number density = 17.758372 Si / 1000 Ang^3
#
#
#
# Elastic Constant Matrix: (Units=GPa)
#
#
# Indices 1 2 3 4 5 6 
#
# 1 93.1088 47.8450 77.5432 0.0000 0.0000 0.0000
# 2 47.8450 93.1116 77.5442 0.0000 0.0000 0.0000
# 3 77.5432 77.5442 167.3972 0.0000 0.0000 0.0000
# 4 0.0000 0.0000 0.0000 31.2491 0.0000 0.0000
# 5 0.0000 0.0000 0.0000 0.0000 31.2482 0.0000
# 6 0.0000 0.0000 0.0000 0.0000 0.0000 13.0000
#
#
#
# Elastic Compliance Matrix: (Units=1/GPa)
#
#
# Indices 1 2 3 4 5 6 
#
# 1 0.018281 -0.003812 -0.006703 0.000000 0.000000 0.000000
# 2 -0.003812 0.018280 -0.006702 0.000000 0.000000 0.000000
# 3 -0.006703 -0.006702 0.012183 0.000000 0.000000 0.000000
# 4 0.000000 0.000000 0.000000 0.032001 0.000000 0.000000
# 5 0.000000 0.000000 0.000000 0.000000 0.032002 0.000000
# 6 0.000000 0.000000 0.000000 0.000000 0.000000 0.076923
#
#
# Mechanical properties :
#
#
# Convention : Reuss Voigt Hill
#
# Bulk Modulus (GPa) = 69.87448 84.38695 77.13072
# Shear Modulus (GPa) = 21.84611 25.14514 23.49562
#
# Velocity S-wave (km/s) = 3.51121 3.76701 3.64135
# Velocity P-wave (km/s) = 7.47468 8.15740 7.82349
#
# Compressibility (1/GPa) = 0.01431138
#
# Stress axis : x y z
#
# Youngs Moduli (GPa) = 54.70231 54.70409 82.07889
#
# Poissons Ratio (x) = 0.20851 0.55014
# Poissons Ratio (y) = 0.20850 0.55012
# Poissons Ratio (z) = 0.36664 0.36665
#
# Static dielectric constant tensor:
#      x y z
#    x 1.617390 0.000000 0.000000 
#    y 0.000000 1.617390 0.000000 
#    z 0.000000 0.000000 1.574480 
# 
# From -- ./inp_files/4085.got.cif
#   From: 2010.05.17/outbox.cif.g08.bks.cpg/sg121_3_cif.got.tgz:4085.got - 2010.05.20 11:32:06.
