data_PCOD9560707
_publ_section_title
;
Structure prediction by ZEFSAII (Michael W. Deem and Ramdas Pophale) SiO2 
 PCOD9560707
Probable space group: I -4 2 D
;
_chemical_formula_sum "Si O2"
_cell_formula_units_Z 120
_cell_length_a 27.641145
_cell_length_b 27.641145
_cell_length_c 7.876413
_cell_angle_alpha 90.000000
_cell_angle_beta 90.000000
_cell_angle_gamma 90.000000
_cell_volume 6017.838642
_symmetry_space_group_name_H-M "I -4 2 D"
_symmetry_group_IT_number 122
_symmetry_cell_setting 'tetragonal'
loop_
_space_group_symop_operation_xyz
x,y,z
y,-x,-z
-x,-y,z
-y,x,-z
x,1/2-y,1/4-z
-x,1/2+y,1/4-z
-y,1/2-x,1/4+z
y,1/2+x,1/4+z
1/2+x,1/2+y,1/2+z
1/2+y,1/2-x,1/2-z
1/2-x,1/2-y,1/2+z
1/2-y,1/2+x,1/2-z
1/2+x,-y,3/4-z
1/2-x,y,3/4-z
1/2-y,-x,3/4+z
1/2+y,x,3/4+z
loop_
_atom_site_type_symbol
_atom_site_label
_atom_site_fract_x
_atom_site_fract_y
_atom_site_fract_z
Si Si1 0.874801 0.348181 0.550398
Si Si2 0.373241 0.250000 0.125000
Si Si3 0.356989 0.613402 0.853272
Si Si4 0.791529 0.593799 0.498277
Si Si5 0.084591 0.394655 0.243356
Si Si6 0.695967 0.729178 0.813695
Si Si7 0.354900 0.483784 0.463870
Si Si8 0.964717 0.218731 0.765575
O O1 0.876550 0.387331 0.703409
O O2 0.869615 0.373250 0.366688
O O3 0.828465 0.313889 0.567167
O O4 0.924160 0.317980 0.555468
O O5 0.400043 0.301006 0.133475
O O6 0.340757 0.249281 0.295240
O O7 0.366242 0.670646 0.810177
O O8 0.381337 0.586465 0.693763
O O9 0.750000 0.614594 0.375000
O O10 0.824830 0.551824 0.411381
O O11 0.758990 0.566167 0.634335
O O12 0.100134 0.450608 0.226111
O O13 0.034506 0.377500 0.162183
O O14 0.687956 0.750000 0.625000
O O15 0.750000 0.739709 0.875000
O O16 0.314639 0.494616 0.607501
O O17 0.991731 0.250000 0.625000
#
# Coordination Sequence:
#
# PCOD9560707 Si02
#       8
#    16   8  16  16  16  16  16  16
#     4  10  21  35  57  81 109 155 187 236 299 335
#     4  10  22  34  46  78 114 156 204 218 282 342
#     4  10  20  37  55  80 119 154 193 238 288 345
#     4   9  18  33  57  85 111 151 196 243 283 328
#     4  10  21  43  60  84 115 144 191 248 308 367
#     4  11  21  32  46  74 110 155 197 237 262 325
#     4   9  21  38  61  87 113 151 189 241 309 354
#     4  10  17  33  58  87 113 140 197 243 272 339
#
# _framework density 19.940712999999999
#
# number of rings (size 3 to 8) (size 9 to 14) (size 15 to 20)
#    0.000    2.133    2.000    2.000    1.867    0.800 
#    3.600    8.667    0.000    0.000    0.000    3.733 
#    0.000    0.000    0.000    0.000    0.000    0.000 
#
# Total GULP energy -334190.236839 kJ/mol
# GULP energy per Si atom -5569.837281 kJ/mol
# Density = 1.989533 g / cm^3
# Si number density = 19.940713 Si / 1000 Ang^3
#
#
#
# Elastic Constant Matrix: (Units=GPa)
#
#
# Indices 1 2 3 4 5 6 
#
# 1 57.2662 14.0530 2.5086 0.0000 0.0000 0.0000
# 2 14.0530 57.2662 2.5086 0.0000 0.0000 0.0000
# 3 2.5086 2.5086 87.5138 0.0000 0.0000 0.0000
# 4 0.0000 0.0000 0.0000 14.5529 0.0000 0.0000
# 5 0.0000 0.0000 0.0000 0.0000 14.5529 0.0000
# 6 0.0000 0.0000 0.0000 0.0000 0.0000 6.7934
#
#
#
# Elastic Compliance Matrix: (Units=1/GPa)
#
#
# Indices 1 2 3 4 5 6 
#
# 1 0.018595 -0.004546 -0.000403 0.000000 0.000000 0.000000
# 2 -0.004546 0.018595 -0.000403 0.000000 0.000000 0.000000
# 3 -0.000403 -0.000403 0.011450 0.000000 0.000000 0.000000
# 4 0.000000 0.000000 0.000000 0.068715 0.000000 0.000000
# 5 0.000000 0.000000 0.000000 0.000000 0.068715 0.000000
# 6 0.000000 0.000000 0.000000 0.000000 0.000000 0.147203
#
#
# Mechanical properties :
#
#
# Convention : Reuss Voigt Hill
#
# Bulk Modulus (GPa) = 26.35844 26.68740 26.52292
# Shear Modulus (GPa) = 14.02046 19.37822 16.69934
#
# Velocity S-wave (km/s) = 2.65449 3.12074 2.89701
# Velocity P-wave (km/s) = 4.75838 5.13788 4.95177
#
# Compressibility (1/GPa) = 0.03793851
#
# Stress axis : x y z
#
# Youngs Moduli (GPa) = 53.77658 53.77658 87.33730
#
# Poissons Ratio (x) = 0.24445 0.03517
# Poissons Ratio (y) = 0.24445 0.03517
# Poissons Ratio (z) = 0.02166 0.02166
#
# Static dielectric constant tensor:
#      x y z
#    x 1.688220 0.000000 0.000000 
#    y 0.000000 1.688220 0.000000 
#    z 0.000000 0.000000 1.807510 
# 
# From -- ./inp_files/3133.got.cif
#   From: 2010.05.17/outbox.cif.g08.bks.cpg/sg122_2_cif.got.tgz:3133.got - 2010.05.20 11:37:33.
