data_PCOD9560847
_publ_section_title
;
Structure prediction by ZEFSAII (Michael W. Deem and Ramdas Pophale) SiO2 
 PCOD9560847
Probable space group: I -4 2 D
;
_chemical_formula_sum "Si O2"
_cell_formula_units_Z 120
_cell_length_a 17.267996
_cell_length_b 17.267996
_cell_length_c 20.229939
_cell_angle_alpha 90.000000
_cell_angle_beta 90.000000
_cell_angle_gamma 90.000000
_cell_volume 6032.237776
_symmetry_space_group_name_H-M "I -4 2 D"
_symmetry_group_IT_number 122
_symmetry_cell_setting 'tetragonal'
loop_
_space_group_symop_operation_xyz
x,y,z
y,-x,-z
-x,-y,z
-y,x,-z
x,1/2-y,1/4-z
-x,1/2+y,1/4-z
-y,1/2-x,1/4+z
y,1/2+x,1/4+z
1/2+x,1/2+y,1/2+z
1/2+y,1/2-x,1/2-z
1/2-x,1/2-y,1/2+z
1/2-y,1/2+x,1/2-z
1/2+x,-y,3/4-z
1/2-x,y,3/4-z
1/2-y,-x,3/4+z
1/2+y,x,3/4+z
loop_
_atom_site_type_symbol
_atom_site_label
_atom_site_fract_x
_atom_site_fract_y
_atom_site_fract_z
Si Si1 0.296271 0.750000 0.625000
Si Si2 0.415288 0.320133 0.673730
Si Si3 0.677020 0.127033 0.070926
Si Si4 0.432165 0.607961 0.986923
Si Si5 0.855218 0.590734 0.449709
Si Si6 0.458794 0.752758 0.054689
Si Si7 0.329013 0.041946 0.098639
Si Si8 0.514507 0.173162 0.917999
O O1 0.243170 0.677334 0.604947
O O2 0.350945 0.785994 0.568571
O O3 0.392233 0.250000 0.625000
O O4 0.396236 0.293597 0.748096
O O5 0.506894 0.335720 0.669442
O O6 0.374451 0.404755 0.667999
O O7 0.603955 0.181567 0.064443
O O8 0.645343 0.047432 0.101086
O O9 0.415694 0.635204 0.912328
O O10 0.524580 0.601732 0.998520
O O11 0.410713 0.675147 0.037717
O O12 0.855315 0.578593 0.529384
O O13 0.937155 0.620741 0.419331
O O14 0.502821 0.750000 0.125000
O O15 0.498255 0.776788 0.985834
O O16 0.236865 0.029469 0.110772
#
# Coordination Sequence:
#
# PCOD9560847 Si02
#       8
#     8  16  16  16  16  16  16  16
#     4  12  22  38  66  92 120 168 220 262 334 394
#     4  10  22  41  62  91 125 164 212 268 331 396
#     4  10  21  37  61  86 121 163 204 261 314 389
#     4  10  22  37  56  85 122 159 202 254 303 376
#     4  11  23  40  64  93 123 170 217 275 331 404
#     4  10  20  35  59  83 117 160 202 250 306 379
#     4  10  22  41  60  90 128 162 214 264 329 390
#     4  10  22  40  62  92 125 165 213 267 327 401
#
# _framework density 19.893115999999999
#
# number of rings (size 3 to 8) (size 9 to 14) (size 15 to 20)
#    0.000    1.733    2.667    1.200    3.733    0.000 
#    4.800    0.000    0.000    0.000    0.000    0.000 
#    0.000    0.000    0.000    0.000    0.000    0.000 
#
# Total GULP energy -334292.721076 kJ/mol
# GULP energy per Si atom -5571.545351 kJ/mol
# Density = 1.984784 g / cm^3
# Si number density = 19.893116 Si / 1000 Ang^3
#
#
#
# Elastic Constant Matrix: (Units=GPa)
#
#
# Indices 1 2 3 4 5 6 
#
# 1 58.7591 5.3331 8.2290 0.0000 0.0000 0.0000
# 2 5.3331 58.7591 8.2290 0.0000 0.0000 0.0000
# 3 8.2290 8.2290 57.5955 0.0000 0.0000 0.0000
# 4 0.0000 0.0000 0.0000 23.2533 0.0000 0.0000
# 5 0.0000 0.0000 0.0000 0.0000 23.2533 0.0000
# 6 0.0000 0.0000 0.0000 0.0000 0.0000 16.3942
#
#
#
# Elastic Compliance Matrix: (Units=1/GPa)
#
#
# Indices 1 2 3 4 5 6 
#
# 1 0.017457 -0.001260 -0.002314 0.000000 0.000000 0.000000
# 2 -0.001260 0.017457 -0.002314 0.000000 0.000000 0.000000
# 3 -0.002314 -0.002314 0.018024 0.000000 0.000000 0.000000
# 4 0.000000 0.000000 0.000000 0.043005 0.000000 0.000000
# 5 0.000000 0.000000 0.000000 0.000000 0.043005 0.000000
# 6 0.000000 0.000000 0.000000 0.000000 0.000000 0.060997
#
#
# Mechanical properties :
#
#
# Convention : Reuss Voigt Hill
#
# Bulk Modulus (GPa) = 24.29498 24.29953 24.29725
# Shear Modulus (GPa) = 22.17865 22.80165 22.49015
#
# Velocity S-wave (km/s) = 3.34262 3.38924 3.36601
# Velocity P-wave (km/s) = 5.20929 5.24953 5.22945
#
# Compressibility (1/GPa) = 0.04116077
#
# Stress axis : x y z
#
# Youngs Moduli (GPa) = 57.28325 57.28326 55.48240
#
# Poissons Ratio (x) = 0.07220 0.12839
# Poissons Ratio (y) = 0.07220 0.12839
# Poissons Ratio (z) = 0.13256 0.13256
#
# Static dielectric constant tensor:
#      x y z
#    x 1.729570 0.000000 0.000000 
#    y 0.000000 1.729570 0.000000 
#    z 0.000000 0.000000 1.784510 
# 
# From -- ./inp_files/7486.got.cif
#   From: 2010.05.17/outbox.cif.g08.bks.cpg/sg122_4_cif.got.tgz:7486.got - 2010.05.20 11:37:33.
