data_PCOD9560858
_publ_section_title
;
Structure prediction by ZEFSAII (Michael W. Deem and Ramdas Pophale) SiO2 
 PCOD9560858
Probable space group: I -4 2 D
;
_chemical_formula_sum "Si O2"
_cell_formula_units_Z 56
_cell_length_a 12.714980
_cell_length_b 12.714980
_cell_length_c 19.019136
_cell_angle_alpha 90.000000
_cell_angle_beta 90.000000
_cell_angle_gamma 90.000000
_cell_volume 3074.837342
_symmetry_space_group_name_H-M "I -4 2 D"
_symmetry_group_IT_number 122
_symmetry_cell_setting 'tetragonal'
loop_
_space_group_symop_operation_xyz
x,y,z
y,-x,-z
-x,-y,z
-y,x,-z
x,1/2-y,1/4-z
-x,1/2+y,1/4-z
-y,1/2-x,1/4+z
y,1/2+x,1/4+z
1/2+x,1/2+y,1/2+z
1/2+y,1/2-x,1/2-z
1/2-x,1/2-y,1/2+z
1/2-y,1/2+x,1/2-z
1/2+x,-y,3/4-z
1/2-x,y,3/4-z
1/2-y,-x,3/4+z
1/2+y,x,3/4+z
loop_
_atom_site_type_symbol
_atom_site_label
_atom_site_fract_x
_atom_site_fract_y
_atom_site_fract_z
Si Si1 0.821213 0.351479 0.583911
Si Si2 0.725410 0.691576 0.050867
Si Si3 0.000000 0.000000 0.719294
Si Si4 0.549773 0.786619 0.957140
O O1 0.869053 0.250000 0.625000
O O2 0.780007 0.312409 0.508548
O O3 0.908750 0.441637 0.574609
O O4 0.729240 0.390138 0.634313
O O5 0.738704 0.750000 0.125000
O O6 0.740504 0.566381 0.054545
O O7 0.614015 0.722847 0.016514
O O8 0.955084 0.906076 0.766924
#
# Coordination Sequence:
#
# PCOD9560858 Si02
#       4
#    16  16   8  16
#     4   9  20  37  57  83 113 147 183 225 277 326
#     4  10  21  37  57  83 113 145 184 230 277 324
#     4  10  20  36  58  84 114 142 184 232 274 326
#     4  10  21  36  57  83 111 146 184 228 277 326
#
# _framework density 18.212344999999999
#
# number of rings (size 3 to 8) (size 9 to 14) (size 15 to 20)
#    0.000    2.286    0.000    1.714    0.000   16.571 
#    0.000   22.857    0.000    1.714    0.000    0.000 
#    0.000    0.000    0.000    0.000    0.000    0.000 
#
# Total GULP energy -156083.764490 kJ/mol
# GULP energy per Si atom -5574.420160 kJ/mol
# Density = 1.817089 g / cm^3
# Si number density = 18.212345 Si / 1000 Ang^3
#
#
#
# Elastic Constant Matrix: (Units=GPa)
#
#
# Indices 1 2 3 4 5 6 
#
# 1 90.0559 75.7790 51.3072 0.0000 0.0000 0.0000
# 2 75.7790 90.0559 51.3072 0.0000 0.0000 0.0000
# 3 51.3072 51.3072 142.6571 0.0000 0.0000 0.0000
# 4 0.0000 0.0000 0.0000 24.0206 0.0000 0.0000
# 5 0.0000 0.0000 0.0000 0.0000 24.0206 0.0000
# 6 0.0000 0.0000 0.0000 0.0000 0.0000 26.9836
#
#
#
# Elastic Compliance Matrix: (Units=1/GPa)
#
#
# Indices 1 2 3 4 5 6 
#
# 1 0.038900 -0.031143 -0.002790 0.000000 0.000000 0.000000
# 2 -0.031143 0.038900 -0.002790 0.000000 0.000000 0.000000
# 3 -0.002790 -0.002790 0.009016 0.000000 0.000000 0.000000
# 4 0.000000 0.000000 0.000000 0.041631 0.000000 0.000000
# 5 0.000000 0.000000 0.000000 0.000000 0.041631 0.000000
# 6 0.000000 0.000000 0.000000 0.000000 0.000000 0.037060
#
#
# Mechanical properties :
#
#
# Convention : Reuss Voigt Hill
#
# Bulk Modulus (GPa) = 74.79118 75.50619 75.14869
# Shear Modulus (GPa) = 17.54149 24.63000 21.08575
#
# Velocity S-wave (km/s) = 3.10686 3.68146 3.40630
# Velocity P-wave (km/s) = 7.35020 7.72138 7.53807
#
# Compressibility (1/GPa) = 0.01337056
#
# Stress axis : x y z
#
# Youngs Moduli (GPa) = 25.70725 25.70725 110.90946
#
# Poissons Ratio (x) = 0.80061 0.30939
# Poissons Ratio (y) = 0.80061 0.30939
# Poissons Ratio (z) = 0.07171 0.07171
#
# Static dielectric constant tensor:
#      x y z
#    x 1.634940 0.000000 0.000000 
#    y 0.000000 1.634940 0.000000 
#    z 0.000000 0.000000 1.639300 
# 
# From -- ./inp_files/6793.got.cif
#   From: 2010.05.17/outbox.cif.g08.bks.cpg/sg122_4_cif.got.tgz:6793.got - 2010.05.20 11:37:33.
