data_PCOD9560637
_publ_section_title
;
Structure prediction by ZEFSAII (Michael W. Deem and Ramdas Pophale) SiO2 
 PCOD9560637
Probable space group: I -4 2 M
;
_chemical_formula_sum "Si O2"
_cell_formula_units_Z 84
_cell_length_a 11.236422
_cell_length_b 11.236422
_cell_length_c 33.371796
_cell_angle_alpha 90.000000
_cell_angle_beta 90.000000
_cell_angle_gamma 90.000000
_cell_volume 4213.428833
_symmetry_space_group_name_H-M "I -4 2 M"
_symmetry_group_IT_number 121
_symmetry_cell_setting 'tetragonal'
loop_
_space_group_symop_operation_xyz
x,y,z
y,-x,-z
-x,-y,z
-y,x,-z
x,-y,-z
-x,y,-z
-y,-x,z
y,x,z
1/2+x,1/2+y,1/2+z
1/2+y,1/2-x,1/2-z
1/2-x,1/2-y,1/2+z
1/2-y,1/2+x,1/2-z
1/2+x,1/2-y,1/2-z
1/2-x,1/2+y,1/2-z
1/2-y,1/2-x,1/2+z
1/2+y,1/2+x,1/2+z
loop_
_atom_site_type_symbol
_atom_site_label
_atom_site_fract_x
_atom_site_fract_y
_atom_site_fract_z
Si Si1 0.500000 0.500000 0.190967
Si Si2 0.648721 0.851576 0.439929
Si Si3 0.799420 0.000000 0.500000
Si Si4 0.799774 0.000000 0.000000
Si Si5 0.720182 0.027317 0.293029
Si Si6 0.169777 0.368651 0.349781
Si Si7 0.560086 0.747046 0.704207
O O1 0.503300 0.646741 0.192074
O O2 0.750327 0.750327 0.437428
O O3 0.542974 0.787920 0.464566
O O4 0.614427 0.879807 0.394436
O O5 0.712416 0.958272 0.464152
O O6 0.888506 0.111495 0.490642
O O7 0.888643 0.888643 0.009568
O O8 0.662351 0.154599 0.300934
O O9 0.640897 0.933148 0.316993
O O10 0.722487 0.008110 0.245264
O O11 0.250413 0.250413 0.348699
O O12 0.250308 0.476352 0.334243
O O13 0.619869 0.619869 0.710370
#
# Coordination Sequence:
#
# PCOD9560637 Si02
#       7
#     4  16   8   8  16  16  16
#     4  12  24  40  72  88 116 169 224 261 308 380
#     4   9  20  40  64  93 124 160 207 257 312 377
#     4   9  18  39  66  94 126 167 208 255 318 386
#     4   9  18  37  66  90 122 163 200 247 316 384
#     4  12  24  43  61  90 123 168 216 262 315 370
#     4  11  24  42  64  92 130 168 208 264 324 375
#     4  12  25  40  64  90 127 169 215 265 315 374
#
# _framework density 19.936257000000001
#
# number of rings (size 3 to 8) (size 9 to 14) (size 15 to 20)
#    0.000    1.333    4.762    0.571    1.333    1.524 
#    8.571    1.905    0.000    0.000    0.000    0.000 
#    0.000    0.000    0.000    0.000    0.000    0.000 
#
# Total GULP energy -233860.853088 kJ/mol
# GULP energy per Si atom -5568.115550 kJ/mol
# Density = 1.989088 g / cm^3
# Si number density = 19.936257 Si / 1000 Ang^3
#
#
#
# Elastic Constant Matrix: (Units=GPa)
#
#
# Indices 1 2 3 4 5 6 
#
# 1 53.0912 20.8075 30.7899 0.0000 0.0000 0.0000
# 2 20.8075 53.0910 30.7899 0.0000 0.0000 0.0000
# 3 30.7899 30.7899 132.0105 0.0000 0.0000 0.0000
# 4 0.0000 0.0000 0.0000 24.7774 0.0000 0.0000
# 5 0.0000 0.0000 0.0000 0.0000 24.7774 0.0000
# 6 0.0000 0.0000 0.0000 0.0000 0.0000 24.3461
#
#
#
# Elastic Compliance Matrix: (Units=1/GPa)
#
#
# Indices 1 2 3 4 5 6 
#
# 1 0.023886 -0.007089 -0.003918 0.000000 0.000000 0.000000
# 2 -0.007089 0.023886 -0.003918 0.000000 0.000000 0.000000
# 3 -0.003918 -0.003918 0.009403 0.000000 0.000000 0.000000
# 4 0.000000 0.000000 0.000000 0.040359 0.000000 0.000000
# 5 0.000000 0.000000 0.000000 0.000000 0.040359 0.000000
# 6 0.000000 0.000000 0.000000 0.000000 0.000000 0.041074
#
#
# Mechanical properties :
#
#
# Convention : Reuss Voigt Hill
#
# Bulk Modulus (GPa) = 36.59600 44.77413 40.68507
# Shear Modulus (GPa) = 22.94363 25.16722 24.05543
#
# Velocity S-wave (km/s) = 3.39610 3.55686 3.47741
# Velocity P-wave (km/s) = 5.81157 6.27501 6.04773
#
# Compressibility (1/GPa) = 0.02732539
#
# Stress axis : x y z
#
# Youngs Moduli (GPa) = 41.86556 41.86541 106.35329
#
# Poissons Ratio (x) = 0.29680 0.41665
# Poissons Ratio (y) = 0.29680 0.41665
# Poissons Ratio (z) = 0.16401 0.16401
#
# Static dielectric constant tensor:
#      x y z
#    x 1.674780 0.000000 0.000000 
#    y 0.000000 1.674780 0.000000 
#    z 0.000000 0.000000 1.678650 
# 
# From -- ./inp_files/8260.got.cif
#   From: 2010.05.17/outbox.cif.g08.bks.cpg/sg121_5_cif.got.tgz:8260.got - 2010.05.20 11:32:06.
