data_PCOD9560446
_publ_section_title
;
Structure prediction by ZEFSAII (Michael W. Deem and Ramdas Pophale) SiO2 
 PCOD9560446
Probable space group: I -4 2 M
;
_chemical_formula_sum "Si O2"
_cell_formula_units_Z 80
_cell_length_a 13.466719
_cell_length_b 13.466719
_cell_length_c 24.955110
_cell_angle_alpha 90.000000
_cell_angle_beta 90.000000
_cell_angle_gamma 90.000000
_cell_volume 4525.672101
_symmetry_space_group_name_H-M "I -4 2 M"
_symmetry_group_IT_number 121
_symmetry_cell_setting 'tetragonal'
loop_
_space_group_symop_operation_xyz
x,y,z
y,-x,-z
-x,-y,z
-y,x,-z
x,-y,-z
-x,y,-z
-y,-x,z
y,x,z
1/2+x,1/2+y,1/2+z
1/2+y,1/2-x,1/2-z
1/2-x,1/2-y,1/2+z
1/2-y,1/2+x,1/2-z
1/2+x,1/2-y,1/2-z
1/2-x,1/2+y,1/2-z
1/2-y,1/2-x,1/2+z
1/2+y,1/2+x,1/2+z
loop_
_atom_site_type_symbol
_atom_site_label
_atom_site_fract_x
_atom_site_fract_y
_atom_site_fract_z
Si Si1 0.158781 0.680508 0.894232
Si Si2 0.391211 0.049384 0.884268
Si Si3 0.584028 0.745200 0.200591
Si Si4 0.134223 0.702235 0.712066
Si Si5 0.220774 0.613790 0.512679
O O1 0.217838 0.782163 0.883332
O O2 0.217927 0.597459 0.860770
O O3 0.045314 0.680336 0.875723
O O4 0.153547 0.668476 0.958397
O O5 0.383793 0.121705 0.834219
O O6 0.354348 0.104675 0.937743
O O7 0.500000 0.000000 0.890544
O O8 0.641652 0.641652 0.206568
O O9 0.644688 0.825425 0.235913
O O10 0.471406 0.745053 0.219454
O O11 0.218044 0.781957 0.696827
O O12 0.253475 0.500000 0.500000
O O13 0.313076 0.686925 0.524052
#
# Coordination Sequence:
#
# PCOD9560446 Si02
#       5
#    16  16  16  16  16
#     4   9  18  34  53  78 110 146 184 230 282 331
#     4  11  20  34  56  83 111 147 189 236 283 335
#     4  10  21  37  57  81 112 148 187 230 281 333
#     4  11  23  37  57  85 115 147 188 235 280 335
#     4   9  19  33  52  78 114 146 185 234 281 335
#
# _framework density 17.676932000000001
#
# number of rings (size 3 to 8) (size 9 to 14) (size 15 to 20)
#    0.000    2.000    2.000    1.800    0.000    4.200 
#    0.000    0.000    0.000    3.000    0.000    5.600 
#    0.000    4.800    0.000    0.000    0.000    0.000 
#
# Total GULP energy -222999.828853 kJ/mol
# GULP energy per Si atom -5574.995721 kJ/mol
# Density = 1.763670 g / cm^3
# Si number density = 17.676932 Si / 1000 Ang^3
#
#
#
# Elastic Constant Matrix: (Units=GPa)
#
#
# Indices 1 2 3 4 5 6 
#
# 1 52.2828 12.8717 23.4446 0.0000 0.0000 0.0000
# 2 12.8717 52.2930 23.4458 0.0000 0.0000 0.0000
# 3 23.4446 23.4458 63.5506 0.0000 0.0000 0.0000
# 4 0.0000 0.0000 0.0000 26.6785 0.0000 0.0000
# 5 0.0000 0.0000 0.0000 0.0000 26.6787 0.0000
# 6 0.0000 0.0000 0.0000 0.0000 0.0000 25.8086
#
#
#
# Elastic Compliance Matrix: (Units=1/GPa)
#
#
# Indices 1 2 3 4 5 6 
#
# 1 0.023135 -0.002238 -0.007709 0.000000 0.000000 0.000000
# 2 -0.002238 0.023130 -0.007708 0.000000 0.000000 0.000000
# 3 -0.007709 -0.007708 0.021423 0.000000 0.000000 0.000000
# 4 0.000000 0.000000 0.000000 0.037483 0.000000 0.000000
# 5 0.000000 0.000000 0.000000 0.000000 0.037483 0.000000
# 6 0.000000 0.000000 0.000000 0.000000 0.000000 0.038747
#
#
# Mechanical properties :
#
#
# Convention : Reuss Voigt Hill
#
# Bulk Modulus (GPa) = 30.88522 31.96118 31.42320
# Shear Modulus (GPa) = 21.97779 23.05744 22.51762
#
# Velocity S-wave (km/s) = 3.52988 3.61554 3.57296
# Velocity P-wave (km/s) = 5.84152 5.96234 5.90224
#
# Compressibility (1/GPa) = 0.03237794
#
# Stress axis : x y z
#
# Youngs Moduli (GPa) = 43.22533 43.23456 46.67889
#
# Poissons Ratio (x) = 0.09676 0.35984
# Poissons Ratio (y) = 0.09674 0.35978
# Poissons Ratio (z) = 0.33322 0.33323
#
# Static dielectric constant tensor:
#      x y z
#    x 1.598530 0.000000 0.000000 
#    y 0.000000 1.598530 0.000000 
#    z 0.000000 0.000000 1.627890 
# 
# From -- ./inp_files/7028.got.cif
#   From: 2010.05.17/outbox.cif.g08.bks.cpg/sg121_4_cif.got.tgz:7028.got - 2010.05.20 11:32:06.
