data_PCOD9560022
_publ_section_title
;
Structure prediction by ZEFSAII (Michael W. Deem and Ramdas Pophale) SiO2 
 PCOD9560022
Probable space group: I -4 C 2
;
_chemical_formula_sum "Si O2"
_cell_formula_units_Z 64
_cell_length_a 13.379406
_cell_length_b 13.379406
_cell_length_c 16.030056
_cell_angle_alpha 90.000000
_cell_angle_beta 90.000000
_cell_angle_gamma 90.000000
_cell_volume 2869.516358
_symmetry_space_group_name_H-M "I -4 C 2"
_symmetry_group_IT_number 120
_symmetry_cell_setting 'tetragonal'
loop_
_space_group_symop_operation_xyz
x,y,z
y,-x,-z
-x,-y,z
-y,x,-z
y,x,1/2-z
-y,-x,1/2-z
-x,y,1/2+z
x,-y,1/2+z
1/2+x,1/2+y,1/2+z
1/2+y,1/2-x,1/2-z
1/2-x,1/2-y,1/2+z
1/2-y,1/2+x,1/2-z
1/2+y,1/2+x,-z
1/2-y,1/2-x,-z
1/2-x,1/2+y,z
1/2+x,1/2-y,z
loop_
_atom_site_type_symbol
_atom_site_label
_atom_site_fract_x
_atom_site_fract_y
_atom_site_fract_z
Si Si1 0.000000 0.000000 0.500000
Si Si2 0.000000 0.500000 0.750000
Si Si3 0.777165 0.222836 0.750000
Si Si4 0.620594 0.879407 0.500000
Si Si5 0.607336 0.107336 0.500000
Si Si6 0.178035 0.908770 0.893617
Si Si7 0.076612 0.696835 0.171768
O O1 0.917797 0.937911 0.447321
O O2 0.985934 0.598144 0.694010
O O3 0.834928 0.180385 0.829327
O O4 0.658945 0.207697 0.743004
O O5 0.506091 0.877825 0.465567
O O6 0.721049 0.880486 0.444868
O O7 0.679958 0.120251 0.421501
O O8 0.209601 0.004123 0.837709
#
# Coordination Sequence:
#
# PCOD9560022 Si02
#       7
#     4   4   8   8   8  16  16
#     4  12  32  50  72 100 156 206 240 288 364 454
#     4  12  20  46  72 112 144 162 240 312 376 394
#     4  12  28  41  74 109 144 190 236 302 368 431
#     4   9  20  41  75 105 125 177 236 294 342 420
#     4   9  20  39  73 103 139 167 230 301 358 415
#     4  11  27  49  70 105 144 196 240 297 359 441
#     4  11  24  44  72 107 137 183 233 306 357 428
#
# _framework density 22.303411000000001
#
# number of rings (size 3 to 8) (size 9 to 14) (size 15 to 20)
#    0.000    1.250    2.500    3.000   10.500    2.500 
#    0.000    0.000    0.000    0.000    0.000    0.000 
#    0.000    0.000    0.000    0.000    0.000    0.000 
#
# Total GULP energy -178590.481407 kJ/mol
# GULP energy per Si atom -5580.952544 kJ/mol
# Density = 2.225265 g / cm^3
# Si number density = 22.303411 Si / 1000 Ang^3
#
#
#
# Elastic Constant Matrix: (Units=GPa)
#
#
# Indices 1 2 3 4 5 6 
#
# 1 48.2627 39.9891 18.9799 0.0000 0.0000 0.0000
# 2 39.9891 48.2650 18.9803 0.0000 0.0000 0.0000
# 3 18.9799 18.9803 42.5989 0.0000 0.0000 0.0000
# 4 0.0000 0.0000 0.0000 15.9422 0.0000 0.0000
# 5 0.0000 0.0000 0.0000 0.0000 15.9427 0.0000
# 6 0.0000 0.0000 0.0000 0.0000 0.0000 23.4216
#
#
#
# Elastic Compliance Matrix: (Units=1/GPa)
#
#
# Indices 1 2 3 4 5 6 
#
# 1 0.067435 -0.053416 -0.006246 0.000000 0.000000 0.000000
# 2 -0.053416 0.067432 -0.006245 0.000000 0.000000 0.000000
# 3 -0.006246 -0.006245 0.029040 0.000000 0.000000 0.000000
# 4 0.000000 0.000000 0.000000 0.062727 0.000000 0.000000
# 5 0.000000 0.000000 0.000000 0.000000 0.062725 0.000000
# 6 0.000000 0.000000 0.000000 0.000000 0.000000 0.042696
#
#
# Mechanical properties :
#
#
# Convention : Reuss Voigt Hill
#
# Bulk Modulus (GPa) = 31.15942 32.78058 31.97000
# Shear Modulus (GPa) = 10.53595 15.13978 12.83786
#
# Velocity S-wave (km/s) = 2.17582 2.60822 2.40177
# Velocity P-wave (km/s) = 4.50702 4.87852 4.69644
#
# Compressibility (1/GPa) = 0.03209302
#
# Stress axis : x y z
#
# Youngs Moduli (GPa) = 14.82909 14.82982 34.43496
#
# Poissons Ratio (x) = 0.79215 0.21507
# Poissons Ratio (y) = 0.79211 0.21506
# Poissons Ratio (z) = 0.09262 0.09262
#
# Static dielectric constant tensor:
#      x y z
#    x 1.829330 0.000000 0.000000 
#    y 0.000000 1.829320 0.000000 
#    z 0.000000 0.000000 1.874480 
# 
# From -- ./inp_files/4237.got.cif
#   From: 2010.05.17/outbox.cif.g08.bks.cpg/sg120_3_cif.got.tgz:4237.got - 2010.05.20 11:28:13.
