data_PCOD9560172
_publ_section_title
;
Structure prediction by ZEFSAII (Michael W. Deem and Ramdas Pophale) SiO2 
 PCOD9560172
Probable space group: I -4 2 M
;
_chemical_formula_sum "Si O2"
_cell_formula_units_Z 112
_cell_length_a 30.231687
_cell_length_b 30.231687
_cell_length_c 5.807006
_cell_angle_alpha 90.000000
_cell_angle_beta 90.000000
_cell_angle_gamma 90.000000
_cell_volume 5307.341581
_symmetry_space_group_name_H-M "I -4 2 M"
_symmetry_group_IT_number 121
_symmetry_cell_setting 'tetragonal'
loop_
_space_group_symop_operation_xyz
x,y,z
y,-x,-z
-x,-y,z
-y,x,-z
x,-y,-z
-x,y,-z
-y,-x,z
y,x,z
1/2+x,1/2+y,1/2+z
1/2+y,1/2-x,1/2-z
1/2-x,1/2-y,1/2+z
1/2-y,1/2+x,1/2-z
1/2+x,1/2-y,1/2-z
1/2-x,1/2+y,1/2-z
1/2-y,1/2-x,1/2+z
1/2+y,1/2+x,1/2+z
loop_
_atom_site_type_symbol
_atom_site_label
_atom_site_fract_x
_atom_site_fract_y
_atom_site_fract_z
Si Si1 0.400448 0.328332 0.177920
Si Si2 0.754327 0.890414 0.348865
Si Si3 0.194143 0.451304 0.558173
Si Si4 0.084919 0.609455 0.788793
Si Si5 0.816150 0.372179 0.767409
Si Si6 0.333136 0.735259 0.542434
Si Si7 0.898638 0.026074 0.247836
O O1 0.366100 0.366100 0.100282
O O2 0.371431 0.295487 0.340455
O O3 0.442592 0.354887 0.270088
O O4 0.412389 0.295566 0.973279
O O5 0.714396 0.876714 0.512332
O O6 0.733436 0.925229 0.176492
O O7 0.768772 0.845632 0.223429
O O8 0.207562 0.500000 0.500000
O O9 0.148621 0.450862 0.704327
O O10 0.183343 0.421699 0.336773
O O11 0.084279 0.584869 0.539185
O O12 0.132228 0.635793 0.805483
O O13 0.786402 0.339665 0.611291
O O14 0.286610 0.713391 0.601311
O O15 0.941112 0.058889 0.260553
O O16 0.896868 0.000000 0.500000
O O17 0.901599 0.000000 0.000000
#
# Coordination Sequence:
#
# PCOD9560172 Si02
#       7
#    16  16  16  16  16  16  16
#     4   9  20  37  56  81 113 152 197 246 308 381
#     4  10  18  35  54  84 115 161 197 246 307 369
#     4  10  21  36  55  88 126 161 205 256 303 367
#     4  10  19  37  62  85 115 167 206 243 301 364
#     4   9  19  35  56  83 117 163 203 252 313 367
#     4   9  18  33  57  83 113 156 209 256 305 367
#     4  11  25  44  65  88 114 148 195 251 312 380
#
# _framework density 21.102841999999999
#
# number of rings (size 3 to 8) (size 9 to 14) (size 15 to 20)
#    0.000    2.286    1.429    0.857    2.000    2.000 
#    7.714    0.000    0.000    8.571    0.000    0.000 
#    0.000   27.429    0.000    0.000    0.000    0.000 
#
# Total GULP energy -311908.815009 kJ/mol
# GULP energy per Si atom -5569.800268 kJ/mol
# Density = 2.105481 g / cm^3
# Si number density = 21.102842 Si / 1000 Ang^3
#
#
#
# Elastic Constant Matrix: (Units=GPa)
#
#
# Indices 1 2 3 4 5 6 
#
# 1 22.1109 20.7734 11.9801 0.0000 0.0000 0.0000
# 2 20.7734 22.1114 11.9800 0.0000 0.0000 0.0000
# 3 11.9801 11.9800 85.3638 0.0000 0.0000 0.0000
# 4 0.0000 0.0000 0.0000 17.6832 0.0000 0.0000
# 5 0.0000 0.0000 0.0000 0.0000 17.6835 0.0000
# 6 0.0000 0.0000 0.0000 0.0000 0.0000 19.8165
#
#
#
# Elastic Compliance Matrix: (Units=1/GPa)
#
#
# Indices 1 2 3 4 5 6 
#
# 1 0.386408 -0.361101 -0.003552 0.000000 0.000000 0.000000
# 2 -0.361101 0.386399 -0.003550 0.000000 0.000000 0.000000
# 3 -0.003552 -0.003550 0.012711 0.000000 0.000000 0.000000
# 4 0.000000 0.000000 0.000000 0.056551 0.000000 0.000000
# 5 0.000000 0.000000 0.000000 0.000000 0.056550 0.000000
# 6 0.000000 0.000000 0.000000 0.000000 0.000000 0.050463
#
#
# Mechanical properties :
#
#
# Convention : Reuss Voigt Hill
#
# Bulk Modulus (GPa) = 20.36155 24.33924 22.35039
# Shear Modulus (GPa) = 2.93796 16.69348 9.81572
#
# Velocity S-wave (km/s) = 1.18120 2.81562 2.15904
# Velocity P-wave (km/s) = 3.39558 4.70414 4.10237
#
# Compressibility (1/GPa) = 0.04911218
#
# Stress axis : x y z
#
# Youngs Moduli (GPa) = 2.58794 2.58800 78.67040
#
# Poissons Ratio (x) = 0.93453 0.27943
# Poissons Ratio (y) = 0.93451 0.27928
# Poissons Ratio (z) = 0.00919 0.00919
#
# Static dielectric constant tensor:
#      x y z
#    x 1.751450 0.000000 0.000000 
#    y 0.000000 1.751450 0.000000 
#    z 0.000000 0.000000 1.925670 
# 
# From -- ./inp_files/724.got.cif
#   From: 2010.05.17/outbox.cif.g08.bks.cpg/sg121_1_cif.got.tgz:724.got - 2010.05.20 11:32:06.
