data_PCOD9560358
_publ_section_title
;
Structure prediction by ZEFSAII (Michael W. Deem and Ramdas Pophale) SiO2 
 PCOD9560358
Probable space group: I -4 2 M
;
_chemical_formula_sum "Si O2"
_cell_formula_units_Z 56
_cell_length_a 13.613726
_cell_length_b 13.613726
_cell_length_c 14.541827
_cell_angle_alpha 90.000000
_cell_angle_beta 90.000000
_cell_angle_gamma 90.000000
_cell_volume 2695.088212
_symmetry_space_group_name_H-M "I -4 2 M"
_symmetry_group_IT_number 121
_symmetry_cell_setting 'tetragonal'
loop_
_space_group_symop_operation_xyz
x,y,z
y,-x,-z
-x,-y,z
-y,x,-z
x,-y,-z
-x,y,-z
-y,-x,z
y,x,z
1/2+x,1/2+y,1/2+z
1/2+y,1/2-x,1/2-z
1/2-x,1/2-y,1/2+z
1/2-y,1/2+x,1/2-z
1/2+x,1/2-y,1/2-z
1/2-x,1/2+y,1/2-z
1/2-y,1/2-x,1/2+z
1/2+y,1/2+x,1/2+z
loop_
_atom_site_type_symbol
_atom_site_label
_atom_site_fract_x
_atom_site_fract_y
_atom_site_fract_z
Si Si1 0.538726 0.304867 0.134556
Si Si2 0.689784 0.000000 0.000000
Si Si3 0.789417 0.360414 0.973167
Si Si4 0.998770 0.838616 0.160584
O O1 0.585496 0.414505 0.120708
O O2 0.612411 0.235504 0.078373
O O3 0.532892 0.290235 0.243178
O O4 0.435665 0.275415 0.087744
O O5 0.631085 0.905491 0.035803
O O6 0.761131 0.971633 0.916046
O O7 0.747814 0.252187 0.952989
O O8 0.088816 0.911185 0.181877
O O9 0.909357 0.909357 0.128308
#
# Coordination Sequence:
#
# PCOD9560358 Si02
#       4
#    16   8  16  16
#     4   9  20  38  61  88 113 146 200 257 303 342
#     4  12  24  36  54  86 128 166 196 225 282 367
#     4  10  21  38  61  88 120 157 195 245 300 348
#     4  10  20  36  59  86 118 157 201 248 291 339
#
# _framework density 20.77854
#
# number of rings (size 3 to 8) (size 9 to 14) (size 15 to 20)
#    0.000    2.000    0.000    3.429    0.000    8.571 
#    0.000   11.429    0.000    6.857    0.000    0.000 
#    0.000    0.000    0.000    0.000    0.000    0.000 
#
# Total GULP energy -156085.360572 kJ/mol
# GULP energy per Si atom -5574.477163 kJ/mol
# Density = 2.073125 g / cm^3
# Si number density = 20.778540 Si / 1000 Ang^3
#
#
#
# Elastic Constant Matrix: (Units=GPa)
#
#
# Indices 1 2 3 4 5 6 
#
# 1 71.3099 28.2090 9.0787 0.0000 0.0000 0.0000
# 2 28.2090 71.3110 9.0779 0.0000 0.0000 0.0000
# 3 9.0787 9.0779 71.0102 0.0000 0.0000 0.0000
# 4 0.0000 0.0000 0.0000 15.3339 0.0000 0.0000
# 5 0.0000 0.0000 0.0000 0.0000 15.3337 0.0000
# 6 0.0000 0.0000 0.0000 0.0000 0.0000 23.1707
#
#
#
# Elastic Compliance Matrix: (Units=1/GPa)
#
#
# Indices 1 2 3 4 5 6 
#
# 1 0.016745 -0.006456 -0.001315 0.000000 0.000000 0.000000
# 2 -0.006456 0.016745 -0.001315 0.000000 0.000000 0.000000
# 3 -0.001315 -0.001315 0.014419 0.000000 0.000000 0.000000
# 4 0.000000 0.000000 0.000000 0.065215 0.000000 0.000000
# 5 0.000000 0.000000 0.000000 0.000000 0.065216 0.000000
# 6 0.000000 0.000000 0.000000 0.000000 0.000000 0.043158
#
#
# Mechanical properties :
#
#
# Convention : Reuss Voigt Hill
#
# Bulk Modulus (GPa) = 33.63143 34.04026 33.83585
# Shear Modulus (GPa) = 20.03347 21.91869 20.97608
#
# Velocity S-wave (km/s) = 3.10843 3.25140 3.18072
# Velocity P-wave (km/s) = 5.39481 5.52390 5.45973
#
# Compressibility (1/GPa) = 0.02973409
#
# Stress axis : x y z
#
# Youngs Moduli (GPa) = 59.72003 59.72110 69.35393
#
# Poissons Ratio (x) = 0.38558 0.09123
# Poissons Ratio (y) = 0.38558 0.09121
# Poissons Ratio (z) = 0.07856 0.07854
#
# Static dielectric constant tensor:
#      x y z
#    x 1.768450 0.000000 0.000000 
#    y 0.000000 1.768450 0.000000 
#    z 0.000000 0.000000 1.707850 
# 
# From -- ./inp_files/4078.got.cif
#   From: 2010.05.17/outbox.cif.g08.bks.cpg/sg121_3_cif.got.tgz:4078.got - 2010.05.20 11:32:06.
