data_PCOD9560385
_publ_section_title
;
Structure prediction by ZEFSAII (Michael W. Deem and Ramdas Pophale) SiO2 
 PCOD9560385
Probable space group: I -4 2 M
;
_chemical_formula_sum "Si O2"
_cell_formula_units_Z 116
_cell_length_a 17.991104
_cell_length_b 17.991104
_cell_length_c 18.352835
_cell_angle_alpha 90.000000
_cell_angle_beta 90.000000
_cell_angle_gamma 90.000000
_cell_volume 5940.442387
_symmetry_space_group_name_H-M "I -4 2 M"
_symmetry_group_IT_number 121
_symmetry_cell_setting 'tetragonal'
loop_
_space_group_symop_operation_xyz
x,y,z
y,-x,-z
-x,-y,z
-y,x,-z
x,-y,-z
-x,y,-z
-y,-x,z
y,x,z
1/2+x,1/2+y,1/2+z
1/2+y,1/2-x,1/2-z
1/2-x,1/2-y,1/2+z
1/2-y,1/2+x,1/2-z
1/2+x,1/2-y,1/2-z
1/2-x,1/2+y,1/2-z
1/2-y,1/2-x,1/2+z
1/2+y,1/2+x,1/2+z
loop_
_atom_site_type_symbol
_atom_site_label
_atom_site_fract_x
_atom_site_fract_y
_atom_site_fract_z
Si Si1 0.402078 0.855568 0.922583
Si Si2 0.540900 0.340725 0.574587
Si Si3 0.370501 0.246122 0.207499
Si Si4 0.664676 0.492157 0.268368
Si Si5 0.574870 0.138643 0.091083
Si Si6 0.995474 0.332615 0.083188
Si Si7 0.259028 0.139254 0.290634
Si Si8 0.000000 0.000000 0.713167
O O1 0.390785 0.784335 0.872159
O O2 0.487844 0.879089 0.912752
O O3 0.346841 0.920200 0.893432
O O4 0.394512 0.843617 0.009546
O O5 0.500000 0.363608 0.500000
O O6 0.622698 0.377303 0.574087
O O7 0.501858 0.365668 0.649296
O O8 0.533589 0.251462 0.579121
O O9 0.313845 0.313845 0.201515
O O10 0.441840 0.277247 0.250407
O O11 0.325946 0.181099 0.249371
O O12 0.710008 0.416189 0.258525
O O13 0.592397 0.499080 0.217955
O O14 0.617683 0.066291 0.120830
O O15 0.591848 0.206601 0.143936
O O16 0.000000 0.361568 0.000000
O O17 0.203835 0.203835 0.317679
#
# Coordination Sequence:
#
# PCOD9560385 Si02
#       8
#    16  16  16  16  16  16  16   4
#     4  10  20  38  64  92 121 165 211 258 318 375
#     4  11  24  38  61  89 123 163 207 260 305 371
#     4  11  23  40  62  90 125 166 207 265 325 377
#     4  12  23  43  61  88 124 164 214 257 318 387
#     4  10  20  37  64  91 122 164 209 260 315 379
#     4   9  19  37  58  89 126 162 198 246 314 381
#     4  11  24  39  62  91 125 165 210 266 319 384
#     4  12  24  40  69  84 113 184 208 246 324 392
#
# _framework density 19.527165
#
# number of rings (size 3 to 8) (size 9 to 14) (size 15 to 20)
#    0.000    1.379    3.448    2.069    0.966    4.000 
#    0.000    6.897    0.000    0.000    0.000    0.966 
#    0.000    0.000    0.000    0.000    0.000    0.000 
#
# Total GULP energy -323009.407449 kJ/mol
# GULP energy per Si atom -5569.127715 kJ/mol
# Density = 1.948272 g / cm^3
# Si number density = 19.527165 Si / 1000 Ang^3
#
#
#
# Elastic Constant Matrix: (Units=GPa)
#
#
# Indices 1 2 3 4 5 6 
#
# 1 95.3355 31.0421 21.0422 0.0000 0.0000 0.0000
# 2 31.0421 95.3356 21.0419 0.0000 0.0000 0.0000
# 3 21.0422 21.0419 58.4692 0.0000 0.0000 0.0000
# 4 0.0000 0.0000 0.0000 12.9865 0.0000 0.0000
# 5 0.0000 0.0000 0.0000 0.0000 12.9847 0.0000
# 6 0.0000 0.0000 0.0000 0.0000 0.0000 45.8906
#
#
#
# Elastic Compliance Matrix: (Units=1/GPa)
#
#
# Indices 1 2 3 4 5 6 
#
# 1 0.012272 -0.003282 -0.003235 0.000000 0.000000 0.000000
# 2 -0.003282 0.012272 -0.003235 0.000000 0.000000 0.000000
# 3 -0.003235 -0.003235 0.019432 0.000000 0.000000 0.000000
# 4 0.000000 0.000000 0.000000 0.077003 0.000000 0.000000
# 5 0.000000 0.000000 0.000000 0.000000 0.077014 0.000000
# 6 0.000000 0.000000 0.000000 0.000000 0.000000 0.021791
#
#
# Mechanical properties :
#
#
# Convention : Reuss Voigt Hill
#
# Bulk Modulus (GPa) = 40.86553 43.93250 42.39901
# Shear Modulus (GPa) = 20.20652 26.10666 23.15659
#
# Velocity S-wave (km/s) = 3.22031 3.66039 3.44738
# Velocity P-wave (km/s) = 5.89916 6.35701 6.13236
#
# Compressibility (1/GPa) = 0.02447050
#
# Stress axis : x y z
#
# Youngs Moduli (GPa) = 81.48663 81.48696 51.46217
#
# Poissons Ratio (x) = 0.26742 0.16650
# Poissons Ratio (y) = 0.26742 0.16650
# Poissons Ratio (z) = 0.26365 0.26364
#
# Static dielectric constant tensor:
#      x y z
#    x 1.695230 0.000000 0.000000 
#    y 0.000000 1.695230 0.000000 
#    z 0.000000 0.000000 1.704240 
# 
# From -- ./inp_files/5537.got.cif
#   From: 2010.05.17/outbox.cif.g08.bks.cpg/sg121_3_cif.got.tgz:5537.got - 2010.05.20 11:32:06.
