data_PCOD9560802
_publ_section_title
;
Structure prediction by ZEFSAII (Michael W. Deem and Ramdas Pophale) SiO2 
 PCOD9560802
Probable space group: I -4 2 D
;
_chemical_formula_sum "Si O2"
_cell_formula_units_Z 112
_cell_length_a 23.331854
_cell_length_b 23.331854
_cell_length_c 12.470383
_cell_angle_alpha 90.000000
_cell_angle_beta 90.000000
_cell_angle_gamma 90.000000
_cell_volume 6788.569872
_symmetry_space_group_name_H-M "I -4 2 D"
_symmetry_group_IT_number 122
_symmetry_cell_setting 'tetragonal'
loop_
_space_group_symop_operation_xyz
x,y,z
y,-x,-z
-x,-y,z
-y,x,-z
x,1/2-y,1/4-z
-x,1/2+y,1/4-z
-y,1/2-x,1/4+z
y,1/2+x,1/4+z
1/2+x,1/2+y,1/2+z
1/2+y,1/2-x,1/2-z
1/2-x,1/2-y,1/2+z
1/2-y,1/2+x,1/2-z
1/2+x,-y,3/4-z
1/2-x,y,3/4-z
1/2-y,-x,3/4+z
1/2+y,x,3/4+z
loop_
_atom_site_type_symbol
_atom_site_label
_atom_site_fract_x
_atom_site_fract_y
_atom_site_fract_z
Si Si1 0.672918 0.119801 0.484969
Si Si2 0.408174 0.029711 0.744958
Si Si3 0.988141 0.337180 0.460404
Si Si4 0.816558 0.908002 0.405932
Si Si5 0.814414 0.934082 0.826973
Si Si6 0.513148 0.203771 0.350337
Si Si7 0.885470 0.804666 0.480696
O O1 0.653562 0.055202 0.514799
O O2 0.627599 0.164338 0.532710
O O3 0.737233 0.128228 0.530325
O O4 0.679569 0.121621 0.356195
O O5 0.464133 0.069805 0.748481
O O6 0.361152 0.044799 0.835760
O O7 0.378779 0.035157 0.629834
O O8 0.950797 0.342032 0.567493
O O9 0.983146 0.272389 0.415615
O O10 0.750000 0.902039 0.375000
O O11 0.821491 0.938929 0.520945
O O12 0.846164 0.846748 0.412343
O O13 0.750000 0.931580 0.875000
O O14 0.812823 0.975090 0.722542
O O15 0.450990 0.186742 0.305913
#
# Coordination Sequence:
#
# PCOD9560802 Si02
#       7
#    16  16  16  16  16  16  16
#     4  10  20  37  61  81 114 151 187 234 287 344
#     4  11  24  39  56  80 115 155 192 232 285 342
#     4  10  19  38  56  80 113 146 187 231 283 338
#     4  10  20  34  59  84 114 144 183 237 290 337
#     4  12  23  38  60  84 115 156 195 236 279 351
#     4  10  20  35  57  86 108 144 190 234 284 337
#     4  10  20  36  59  88 112 143 187 243 293 334
#
# _framework density 16.49832
#
# number of rings (size 3 to 8) (size 9 to 14) (size 15 to 20)
#    0.000    1.571    5.714    0.000    2.000    0.571 
#    0.000    0.000    0.000    2.143    0.000    0.000 
#    0.000    0.000    0.000    0.000    0.000    0.000 
#
# Total GULP energy -312340.915540 kJ/mol
# GULP energy per Si atom -5577.516349 kJ/mol
# Density = 1.646077 g / cm^3
# Si number density = 16.498320 Si / 1000 Ang^3
#
#
#
# Elastic Constant Matrix: (Units=GPa)
#
#
# Indices 1 2 3 4 5 6 
#
# 1 83.4288 53.7052 50.3248 0.0000 0.0000 0.0000
# 2 53.7052 83.4288 50.3248 0.0000 0.0000 0.0000
# 3 50.3248 50.3248 92.5188 0.0000 0.0000 0.0000
# 4 0.0000 0.0000 0.0000 24.5572 0.0000 0.0000
# 5 0.0000 0.0000 0.0000 0.0000 24.5572 0.0000
# 6 0.0000 0.0000 0.0000 0.0000 0.0000 21.1837
#
#
#
# Elastic Compliance Matrix: (Units=1/GPa)
#
#
# Indices 1 2 3 4 5 6 
#
# 1 0.022891 -0.010753 -0.006602 0.000000 0.000000 0.000000
# 2 -0.010753 0.022891 -0.006602 0.000000 0.000000 0.000000
# 3 -0.006602 -0.006602 0.017991 0.000000 0.000000 0.000000
# 4 0.000000 0.000000 0.000000 0.040721 0.000000 0.000000
# 5 0.000000 0.000000 0.000000 0.000000 0.040721 0.000000
# 6 0.000000 0.000000 0.000000 0.000000 0.000000 0.047206
#
#
# Mechanical properties :
#
#
# Convention : Reuss Voigt Hill
#
# Bulk Modulus (GPa) = 63.06074 63.12067 63.09071
# Shear Modulus (GPa) = 20.35649 21.06104 20.70877
#
# Velocity S-wave (km/s) = 3.51643 3.57677 3.54673
# Velocity P-wave (km/s) = 7.40220 7.44309 7.42267
#
# Compressibility (1/GPa) = 0.01585773
#
# Stress axis : x y z
#
# Youngs Moduli (GPa) = 43.68596 43.68596 55.58282
#
# Poissons Ratio (x) = 0.46974 0.36698
# Poissons Ratio (y) = 0.46974 0.36698
# Poissons Ratio (z) = 0.28843 0.28843
#
# Static dielectric constant tensor:
#      x y z
#    x 1.544910 0.000000 0.000000 
#    y 0.000000 1.544910 0.000000 
#    z 0.000000 0.000000 1.541880 
# 
# From -- ./inp_files/4602.got.cif
#   From: 2010.05.17/outbox.cif.g08.bks.cpg/sg122_3_cif.got.tgz:4602.got - 2010.05.20 11:37:33.
