data_PCOD9560110
_publ_section_title
;
Structure prediction by ZEFSAII (Michael W. Deem and Ramdas Pophale) SiO2 
 PCOD9560110
Probable space group: I -4 2 M
;
_chemical_formula_sum "Si O2"
_cell_formula_units_Z 96
_cell_length_a 15.237954
_cell_length_b 15.237954
_cell_length_c 19.860492
_cell_angle_alpha 90.000000
_cell_angle_beta 90.000000
_cell_angle_gamma 90.000000
_cell_volume 4611.511748
_symmetry_space_group_name_H-M "I -4 2 M"
_symmetry_group_IT_number 121
_symmetry_cell_setting 'tetragonal'
loop_
_space_group_symop_operation_xyz
x,y,z
y,-x,-z
-x,-y,z
-y,x,-z
x,-y,-z
-x,y,-z
-y,-x,z
y,x,z
1/2+x,1/2+y,1/2+z
1/2+y,1/2-x,1/2-z
1/2-x,1/2-y,1/2+z
1/2-y,1/2+x,1/2-z
1/2+x,1/2-y,1/2-z
1/2-x,1/2+y,1/2-z
1/2-y,1/2-x,1/2+z
1/2+y,1/2+x,1/2+z
loop_
_atom_site_type_symbol
_atom_site_label
_atom_site_fract_x
_atom_site_fract_y
_atom_site_fract_z
Si Si1 0.181412 0.670656 0.602395
Si Si2 0.060090 0.796781 0.676189
Si Si3 0.098391 0.247485 0.765069
Si Si4 0.816460 0.328182 0.353826
Si Si5 0.093729 0.755830 0.974950
Si Si6 0.699189 0.439536 0.940057
O O1 0.244808 0.755192 0.594857
O O2 0.095005 0.710169 0.637132
O O3 0.226077 0.608709 0.658005
O O4 0.183565 0.625323 0.530043
O O5 0.141239 0.858762 0.694695
O O6 0.997954 0.775444 0.738893
O O7 0.999268 0.840886 0.619167
O O8 0.164427 0.164427 0.753018
O O9 0.135094 0.326842 0.717706
O O10 0.729236 0.270765 0.342335
O O11 0.786971 0.407858 0.400754
O O12 0.880313 0.270722 0.402073
O O13 0.166449 0.833552 0.975450
O O14 0.000000 0.788634 0.000000
O O15 0.626214 0.373787 0.968657
O O16 0.733054 0.500000 0.000000
#
# Coordination Sequence:
#
# PCOD9560110 Si02
#       6
#    16  16  16  16  16  16
#     4   9  19  35  52  73 102 139 177 208 250 309
#     4  10  19  31  51  75 100 132 168 209 256 307
#     4   9  18  33  53  77 106 136 169 213 259 308
#     4   8  16  31  49  69  95 133 172 200 240 303
#     4  10  20  35  56  78 102 133 172 219 263 305
#     4  10  18  27  44  72 105 135 160 193 242 304
#
# _framework density 20.817468000000002
#
# number of rings (size 3 to 8) (size 9 to 14) (size 15 to 20)
#    0.000    2.667    0.000    3.000    0.000    6.333 
#    0.000    2.500    0.000   20.000    0.000    0.000 
#    0.000    0.000    0.000    0.000    0.000    0.000 
#
# Total GULP energy -267620.757193 kJ/mol
# GULP energy per Si atom -5575.432442 kJ/mol
# Density = 2.077009 g / cm^3
# Si number density = 20.817468 Si / 1000 Ang^3
#
#
#
# Elastic Constant Matrix: (Units=GPa)
#
#
# Indices 1 2 3 4 5 6 
#
# 1 37.3535 24.1725 5.1951 0.0000 0.0000 0.0000
# 2 24.1725 37.3457 5.1942 0.0000 0.0000 0.0000
# 3 5.1951 5.1942 65.2894 0.0000 0.0000 0.0000
# 4 0.0000 0.0000 0.0000 23.0809 0.0000 0.0000
# 5 0.0000 0.0000 0.0000 0.0000 23.0815 0.0000
# 6 0.0000 0.0000 0.0000 0.0000 0.0000 12.3543
#
#
#
# Elastic Compliance Matrix: (Units=1/GPa)
#
#
# Indices 1 2 3 4 5 6 
#
# 1 0.046178 -0.029707 -0.001311 0.000000 0.000000 0.000000
# 2 -0.029707 0.046187 -0.001311 0.000000 0.000000 0.000000
# 3 -0.001311 -0.001311 0.015525 0.000000 0.000000 0.000000
# 4 0.000000 0.000000 0.000000 0.043326 0.000000 0.000000
# 5 0.000000 0.000000 0.000000 0.000000 0.043325 0.000000
# 6 0.000000 0.000000 0.000000 0.000000 0.000000 0.080944
#
#
# Mechanical properties :
#
#
# Convention : Reuss Voigt Hill
#
# Bulk Modulus (GPa) = 23.13050 23.23467 23.18258
# Shear Modulus (GPa) = 14.10228 18.73179 16.41704
#
# Velocity S-wave (km/s) = 2.60556 3.00294 2.81128
# Velocity P-wave (km/s) = 4.49301 4.81756 4.65812
#
# Compressibility (1/GPa) = 0.04323297
#
# Stress axis : x y z
#
# Youngs Moduli (GPa) = 21.65546 21.65097 64.41217
#
# Poissons Ratio (x) = 0.64318 0.08444
# Poissons Ratio (y) = 0.64332 0.08443
# Poissons Ratio (z) = 0.02839 0.02838
#
# Static dielectric constant tensor:
#      x y z
#    x 1.763450 0.000000 0.000000 
#    y 0.000000 1.763440 0.000000 
#    z 0.000000 0.000000 1.775150 
# 
# From -- ./inp_files/6409.got.cif
#   From: 2010.05.17/outbox.cif.g08.bks.cpg/sg121_4_cif.got.tgz:6409.got - 2010.05.20 11:32:06.
