data_PCOD9560319
_publ_section_title
;
Structure prediction by ZEFSAII (Michael W. Deem and Ramdas Pophale) SiO2 
 PCOD9560319
Probable space group: I -4 2 M
;
_chemical_formula_sum "Si O2"
_cell_formula_units_Z 106
_cell_length_a 20.929130
_cell_length_b 20.929130
_cell_length_c 13.916523
_cell_angle_alpha 90.000000
_cell_angle_beta 90.000000
_cell_angle_gamma 90.000000
_cell_volume 6095.833452
_symmetry_space_group_name_H-M "I -4 2 M"
_symmetry_group_IT_number 121
_symmetry_cell_setting 'tetragonal'
loop_
_space_group_symop_operation_xyz
x,y,z
y,-x,-z
-x,-y,z
-y,x,-z
x,-y,-z
-x,y,-z
-y,-x,z
y,x,z
1/2+x,1/2+y,1/2+z
1/2+y,1/2-x,1/2-z
1/2-x,1/2-y,1/2+z
1/2-y,1/2+x,1/2-z
1/2+x,1/2-y,1/2-z
1/2-x,1/2+y,1/2-z
1/2-y,1/2-x,1/2+z
1/2+y,1/2+x,1/2+z
loop_
_atom_site_type_symbol
_atom_site_label
_atom_site_fract_x
_atom_site_fract_y
_atom_site_fract_z
Si Si1 0.000000 0.000000 0.500000
Si Si2 0.324321 0.981641 0.771145
Si Si3 0.051941 0.195504 0.749908
Si Si4 0.448525 0.551476 0.813945
Si Si5 0.870945 0.616226 0.340275
Si Si6 0.574139 0.678001 0.473560
Si Si7 0.815944 0.388659 0.449607
Si Si8 0.274594 0.829897 0.305747
O O1 0.957720 0.957720 0.571887
O O2 0.354863 0.939174 0.687395
O O3 0.331160 0.942775 0.870683
O O4 0.249506 0.996921 0.751852
O O5 0.359526 0.048793 0.786802
O O6 0.036032 0.124180 0.715657
O O7 0.076202 0.188971 0.859276
O O8 0.110076 0.226498 0.690432
O O9 0.500000 0.500000 0.772488
O O10 0.856025 0.607685 0.452253
O O11 0.817888 0.661165 0.289472
O O12 0.500000 0.669233 0.500000
O O13 0.617519 0.617519 0.499299
O O14 0.600903 0.741970 0.522499
O O15 0.827785 0.322144 0.395687
O O16 0.233675 0.766325 0.300430
#
# Coordination Sequence:
#
# PCOD9560319 Si02
#       8
#     2  16  16   8  16  16  16  16
#     4   8  24  48  64  84 106 180 216 256 308 356
#     4  10  21  39  61  87 120 165 199 256 310 370
#     4  11  20  40  62  85 123 163 201 248 317 363
#     4  10  22  44  68  85 116 167 214 251 304 373
#     4  10  21  37  60  85 120 160 204 247 307 370
#     4  12  22  36  59  89 126 168 197 246 315 379
#     4  11  20  38  59  90 123 157 202 253 316 373
#     4  10  20  34  57  86 116 156 199 251 297 372
#
# _framework density 17.388926000000001
#
# number of rings (size 3 to 8) (size 9 to 14) (size 15 to 20)
#    0.226    1.208    6.038    0.906    0.000    1.660 
#    2.717    6.792    0.000    5.434    0.000    0.000 
#    0.000    0.000    0.000    0.000    0.000    0.000 
#
# Total GULP energy -295616.790375 kJ/mol
# GULP energy per Si atom -5577.675290 kJ/mol
# Density = 1.734935 g / cm^3
# Si number density = 17.388926 Si / 1000 Ang^3
#
#
#
# Elastic Constant Matrix: (Units=GPa)
#
#
# Indices 1 2 3 4 5 6 
#
# 1 103.7312 59.2043 38.3461 0.0000 0.0000 0.0000
# 2 59.2043 103.7359 38.3482 0.0000 0.0000 0.0000
# 3 38.3461 38.3482 66.5407 0.0000 0.0000 0.0000
# 4 0.0000 0.0000 0.0000 24.2556 0.0000 0.0000
# 5 0.0000 0.0000 0.0000 0.0000 24.2535 0.0000
# 6 0.0000 0.0000 0.0000 0.0000 0.0000 34.8434
#
#
#
# Elastic Compliance Matrix: (Units=1/GPa)
#
#
# Indices 1 2 3 4 5 6 
#
# 1 0.015440 -0.007018 -0.004853 0.000000 0.000000 0.000000
# 2 -0.007018 0.015439 -0.004854 0.000000 0.000000 0.000000
# 3 -0.004853 -0.004854 0.020622 0.000000 0.000000 0.000000
# 4 0.000000 0.000000 0.000000 0.041228 0.000000 0.000000
# 5 0.000000 0.000000 0.000000 0.000000 0.041231 0.000000
# 6 0.000000 0.000000 0.000000 0.000000 0.000000 0.028700
#
#
# Mechanical properties :
#
#
# Convention : Reuss Voigt Hill
#
# Bulk Modulus (GPa) = 55.39478 60.64499 58.01989
# Shear Modulus (GPa) = 24.73696 25.87778 25.30737
#
# Velocity S-wave (km/s) = 3.77579 3.86187 3.81907
# Velocity P-wave (km/s) = 7.13683 7.40519 7.27224
#
# Compressibility (1/GPa) = 0.01805224
#
# Stress axis : x y z
#
# Youngs Moduli (GPa) = 64.76807 64.76989 48.49082
#
# Poissons Ratio (x) = 0.45453 0.23534
# Poissons Ratio (y) = 0.45452 0.23536
# Poissons Ratio (z) = 0.31434 0.31437
#
# Static dielectric constant tensor:
#      x y z
#    x 1.599030 0.000000 0.000000 
#    y 0.000000 1.599030 0.000000 
#    z 0.000000 0.000000 1.581320 
# 
# From -- ./inp_files/4598.got.cif
#   From: 2010.05.17/outbox.cif.g08.bks.cpg/sg121_3_cif.got.tgz:4598.got - 2010.05.20 11:32:06.
