data_PCOD9560683
_publ_section_title
;
Structure prediction by ZEFSAII (Michael W. Deem and Ramdas Pophale) SiO2 
 PCOD9560683
Probable space group: I -4 2 D
;
_chemical_formula_sum "Si O2"
_cell_formula_units_Z 128
_cell_length_a 20.251713
_cell_length_b 20.251713
_cell_length_c 14.572198
_cell_angle_alpha 90.000000
_cell_angle_beta 90.000000
_cell_angle_gamma 90.000000
_cell_volume 5976.522953
_symmetry_space_group_name_H-M "I -4 2 D"
_symmetry_group_IT_number 122
_symmetry_cell_setting 'tetragonal'
loop_
_space_group_symop_operation_xyz
x,y,z
y,-x,-z
-x,-y,z
-y,x,-z
x,1/2-y,1/4-z
-x,1/2+y,1/4-z
-y,1/2-x,1/4+z
y,1/2+x,1/4+z
1/2+x,1/2+y,1/2+z
1/2+y,1/2-x,1/2-z
1/2-x,1/2-y,1/2+z
1/2-y,1/2+x,1/2-z
1/2+x,-y,3/4-z
1/2-x,y,3/4-z
1/2-y,-x,3/4+z
1/2+y,x,3/4+z
loop_
_atom_site_type_symbol
_atom_site_label
_atom_site_fract_x
_atom_site_fract_y
_atom_site_fract_z
Si Si1 0.728042 0.484091 0.552810
Si Si2 0.571547 0.129251 0.891246
Si Si3 0.646558 0.491553 0.314679
Si Si4 0.175423 0.930246 0.544771
Si Si5 0.906423 0.323306 0.590227
Si Si6 0.420000 0.124864 0.900684
Si Si7 0.335231 0.566108 0.849072
Si Si8 0.576360 0.985182 0.127177
O O1 0.685824 0.551066 0.568313
O O2 0.778090 0.485253 0.468815
O O3 0.773101 0.470814 0.642896
O O4 0.674764 0.425254 0.565459
O O5 0.618667 0.067324 0.873022
O O6 0.602033 0.163854 0.981621
O O7 0.496933 0.101062 0.911374
O O8 0.627656 0.562704 0.355409
O O9 0.604569 0.486716 0.219351
O O10 0.142198 0.870242 0.600868
O O11 0.202669 0.915317 0.443379
O O12 0.114287 0.981182 0.539690
O O13 0.893432 0.250000 0.625000
O O14 0.985874 0.333758 0.599755
O O15 0.408174 0.166142 0.994200
O O16 0.408621 0.591043 0.874133
O O17 0.500000 0.000000 0.130433
#
# Coordination Sequence:
#
# PCOD9560683 Si02
#       8
#    16  16  16  16  16  16  16  16
#     4   9  19  27  41  60  75 110 165 201 238 294
#     4   9  16  29  41  58  78 112 157 205 240 289
#     4  10  15  29  45  55  85 114 150 208 244 277
#     4  11  19  27  35  51  73 102 143 196 241 282
#     4  11  19  27  36  49  75 107 140 193 246 270
#     4   8  18  27  40  60  75 108 158 201 233 295
#     4  10  18  25  35  47  68  95 131 193 234 254
#     4  10  16  24  35  51  65  96 143 184 234 258
#
# _framework density 21.417135999999999
#
# number of rings (size 3 to 8) (size 9 to 14) (size 15 to 20)
#    0.750    1.500    3.750    3.375    0.000    2.000 
#    0.000    0.000    0.000    0.000    0.000    0.000 
#    0.000    0.000    0.000    0.000    9.500    0.875 
#
# Total GULP energy -356373.340623 kJ/mol
# GULP energy per Si atom -5568.333447 kJ/mol
# Density = 2.136839 g / cm^3
# Si number density = 21.417136 Si / 1000 Ang^3
#
#
#
# Elastic Constant Matrix: (Units=GPa)
#
#
# Indices 1 2 3 4 5 6 
#
# 1 94.5330 25.3993 24.1315 0.0000 0.0000 0.0000
# 2 25.3993 94.5330 24.1315 0.0000 0.0000 0.0000
# 3 24.1315 24.1315 75.0508 0.0000 0.0000 0.0000
# 4 0.0000 0.0000 0.0000 -37.5870 0.0000 0.0000
# 5 0.0000 0.0000 0.0000 0.0000 -37.5870 0.0000
# 6 0.0000 0.0000 0.0000 0.0000 0.0000 1.5063
#
#
#
# Elastic Compliance Matrix: (Units=1/GPa)
#
#
# Indices 1 2 3 4 5 6 
#
# 1 0.012021 -0.002444 -0.003079 0.000000 0.000000 0.000000
# 2 -0.002444 0.012021 -0.003079 0.000000 0.000000 0.000000
# 3 -0.003079 -0.003079 0.015305 0.000000 0.000000 0.000000
# 4 0.000000 0.000000 0.000000 -0.026605 0.000000 0.000000
# 5 0.000000 0.000000 0.000000 0.000000 -0.026605 0.000000
# 6 0.000000 0.000000 0.000000 0.000000 0.000000 0.663890
#
#
# Mechanical properties :
#
#
# Convention : Reuss Voigt Hill
#
# Bulk Modulus (GPa) = 45.16426 45.71571 45.43998
# Shear Modulus (GPa) = 7.41167 -2.03659 2.68754
#
# Velocity S-wave (km/s) = 1.86229 -0.97621 1.12142
# Velocity P-wave (km/s) = 5.07522 4.48565 4.78952
#
# Compressibility (1/GPa) = 0.02214140
#
# Stress axis : x y z
#
# Youngs Moduli (GPa) = 83.18779 83.18779 65.33980
#
# Poissons Ratio (x) = 0.20329 0.20121
# Poissons Ratio (y) = 0.20329 0.20121
# Poissons Ratio (z) = 0.25617 0.25617
#
# Static dielectric constant tensor:
#      x y z
#    x 1.839070 0.000000 0.000000 
#    y 0.000000 1.839070 0.000000 
#    z 0.000000 0.000000 1.866890 
# 
# From -- ./inp_files/8244.got.cif
#   From: 2010.05.17/outbox.cif.g08.bks.cpg/sg122_5_cif.got.tgz:8244.got - 2010.05.20 11:37:33.
