data_PCOD9560135
_publ_section_title
;
Structure prediction by ZEFSAII (Michael W. Deem and Ramdas Pophale) SiO2 
 PCOD9560135
Probable space group: I -4 2 M
;
_chemical_formula_sum "Si O2"
_cell_formula_units_Z 120
_cell_length_a 21.358588
_cell_length_b 21.358588
_cell_length_c 14.733677
_cell_angle_alpha 90.000000
_cell_angle_beta 90.000000
_cell_angle_gamma 90.000000
_cell_volume 6721.345522
_symmetry_space_group_name_H-M "I -4 2 M"
_symmetry_group_IT_number 121
_symmetry_cell_setting 'tetragonal'
loop_
_space_group_symop_operation_xyz
x,y,z
y,-x,-z
-x,-y,z
-y,x,-z
x,-y,-z
-x,y,-z
-y,-x,z
y,x,z
1/2+x,1/2+y,1/2+z
1/2+y,1/2-x,1/2-z
1/2-x,1/2-y,1/2+z
1/2-y,1/2+x,1/2-z
1/2+x,1/2-y,1/2-z
1/2-x,1/2+y,1/2-z
1/2-y,1/2-x,1/2+z
1/2+y,1/2+x,1/2+z
loop_
_atom_site_type_symbol
_atom_site_label
_atom_site_fract_x
_atom_site_fract_y
_atom_site_fract_z
Si Si1 0.785528 0.435998 0.224524
Si Si2 0.142358 0.243265 0.965274
Si Si3 0.946799 0.427067 0.788365
Si Si4 0.326995 0.771696 0.902855
Si Si5 0.397298 0.500000 0.500000
Si Si6 0.538972 0.828147 0.091069
Si Si7 0.800494 0.696871 0.308519
Si Si8 0.683001 0.424243 0.379772
O O1 0.854632 0.433711 0.269490
O O2 0.789306 0.496165 0.161202
O O3 0.782837 0.370727 0.170447
O O4 0.729228 0.434856 0.296347
O O5 0.178330 0.178330 0.945688
O O6 0.186217 0.285008 0.030478
O O7 0.085882 0.224815 0.029615
O O8 0.138270 0.279705 0.870597
O O9 0.932974 0.477199 0.706130
O O10 0.896723 0.446450 0.865159
O O11 0.298377 0.701624 0.910297
O O12 0.398036 0.788699 0.924295
O O13 0.315701 0.792907 0.798365
O O14 0.440732 0.559269 0.519052
O O15 0.359370 0.517782 0.409682
O O16 0.500000 0.837103 0.000000
O O17 0.753302 0.753302 0.331511
O O18 0.637341 0.362660 0.366441
#
# Coordination Sequence:
#
# PCOD9560135 Si02
#       8
#    16  16  16  16   8  16  16  16
#     4  11  20  33  56  78 108 145 190 231 281 337
#     4   9  17  29  51  78 104 138 181 221 268 339
#     4   9  19  37  55  72 107 152 187 229 280 324
#     4  10  19  35  54  79 118 150 181 234 301 345
#     4   9  20  38  58  82 116 153 188 238 300 355
#     4  11  22  36  56  82 112 150 199 243 278 339
#     4  10  18  30  52  80 111 148 178 222 293 346
#     4  10  19  35  56  80 112 146 187 239 288 348
#
# _framework density 17.853567999999999
#
# number of rings (size 3 to 8) (size 9 to 14) (size 15 to 20)
#    0.000    2.067    2.667    1.200    0.000    1.067 
#    0.000    8.000    2.933    0.000    0.000    0.000 
#    0.000    2.400    0.000    0.000    0.000    0.000 
#
# Total GULP energy -334055.273031 kJ/mol
# GULP energy per Si atom -5567.587884 kJ/mol
# Density = 1.781293 g / cm^3
# Si number density = 17.853568 Si / 1000 Ang^3
#
#
#
# Elastic Constant Matrix: (Units=GPa)
#
#
# Indices 1 2 3 4 5 6 
#
# 1 82.5030 41.3414 25.0909 0.0000 0.0000 0.0000
# 2 41.3414 82.5030 25.0916 0.0000 0.0000 0.0000
# 3 25.0909 25.0916 55.9425 0.0000 0.0000 0.0000
# 4 0.0000 0.0000 0.0000 20.8040 0.0000 0.0000
# 5 0.0000 0.0000 0.0000 0.0000 20.8031 0.0000
# 6 0.0000 0.0000 0.0000 0.0000 0.0000 10.6577
#
#
#
# Elastic Compliance Matrix: (Units=1/GPa)
#
#
# Indices 1 2 3 4 5 6 
#
# 1 0.017081 -0.007213 -0.004426 0.000000 0.000000 0.000000
# 2 -0.007213 0.017081 -0.004426 0.000000 0.000000 0.000000
# 3 -0.004426 -0.004426 0.021846 0.000000 0.000000 0.000000
# 4 0.000000 0.000000 0.000000 0.048068 0.000000 0.000000
# 5 0.000000 0.000000 0.000000 0.000000 0.048070 0.000000
# 6 0.000000 0.000000 0.000000 0.000000 0.000000 0.093829
#
#
# Mechanical properties :
#
#
# Convention : Reuss Voigt Hill
#
# Bulk Modulus (GPa) = 41.87973 44.88848 43.38411
# Shear Modulus (GPa) = 17.47860 19.08128 18.27994
#
# Velocity S-wave (km/s) = 3.13229 3.27274 3.20329
# Velocity P-wave (km/s) = 6.04896 6.28318 6.16718
#
# Compressibility (1/GPa) = 0.02387790
#
# Stress axis : x y z
#
# Youngs Moduli (GPa) = 58.54381 58.54334 45.77538
#
# Poissons Ratio (x) = 0.42228 0.20260
# Poissons Ratio (y) = 0.42229 0.20261
# Poissons Ratio (z) = 0.25911 0.25912
#
# Static dielectric constant tensor:
#      x y z
#    x 1.652810 0.000000 0.000000 
#    y 0.000000 1.652810 0.000000 
#    z 0.000000 0.000000 1.636350 
# 
# From -- ./inp_files/4603.got.cif
#   From: 2010.05.17/outbox.cif.g08.bks.cpg/sg121_3_cif.got.tgz:4603.got - 2010.05.20 11:32:06.
