data_PCOD9560393
_publ_section_title
;
Structure prediction by ZEFSAII (Michael W. Deem and Ramdas Pophale) SiO2 
 PCOD9560393
Probable space group: I -4 2 M
;
_chemical_formula_sum "Si O2"
_cell_formula_units_Z 96
_cell_length_a 14.652359
_cell_length_b 14.652359
_cell_length_c 24.033399
_cell_angle_alpha 90.000000
_cell_angle_beta 90.000000
_cell_angle_gamma 90.000000
_cell_volume 5159.769468
_symmetry_space_group_name_H-M "I -4 2 M"
_symmetry_group_IT_number 121
_symmetry_cell_setting 'tetragonal'
loop_
_space_group_symop_operation_xyz
x,y,z
y,-x,-z
-x,-y,z
-y,x,-z
x,-y,-z
-x,y,-z
-y,-x,z
y,x,z
1/2+x,1/2+y,1/2+z
1/2+y,1/2-x,1/2-z
1/2-x,1/2-y,1/2+z
1/2-y,1/2+x,1/2-z
1/2+x,1/2-y,1/2-z
1/2-x,1/2+y,1/2-z
1/2-y,1/2-x,1/2+z
1/2+y,1/2+x,1/2+z
loop_
_atom_site_type_symbol
_atom_site_label
_atom_site_fract_x
_atom_site_fract_y
_atom_site_fract_z
Si Si1 0.323096 0.172896 0.032847
Si Si2 0.106745 0.254656 0.353931
Si Si3 0.963997 0.183519 0.441498
Si Si4 0.580396 0.732561 0.638174
Si Si5 0.148724 0.539487 0.252163
Si Si6 0.610425 0.235800 0.580830
O O1 0.259387 0.259387 0.017521
O O2 0.420218 0.218223 0.043082
O O3 0.289077 0.134921 0.091366
O O4 0.306730 0.104656 0.981453
O O5 0.186167 0.186167 0.334745
O O6 0.048523 0.289568 0.302404
O O7 0.157247 0.340203 0.383029
O O8 0.043922 0.202267 0.398205
O O9 0.885835 0.114166 0.419990
O O10 0.000000 0.146729 0.500000
O O11 0.638867 0.638867 0.646780
O O12 0.567427 0.791057 0.694352
O O13 0.480958 0.726980 0.609424
O O14 0.107161 0.437803 0.255366
O O15 0.679631 0.320370 0.578202
#
# Coordination Sequence:
#
# PCOD9560393 Si02
#       6
#    16  16  16  16  16  16
#     4   9  19  36  59  89 124 160 197 246 307 366
#     4  11  22  39  61  86 124 167 204 251 317 372
#     4  11  21  36  60  91 125 163 206 252 306 372
#     4  11  22  39  63  90 121 158 206 256 309 369
#     4  11  23  41  63  87 119 157 210 263 306 369
#     4  10  20  38  61  87 123 161 200 248 310 374
#
# _framework density 18.605481999999999
#
# number of rings (size 3 to 8) (size 9 to 14) (size 15 to 20)
#    0.000    1.500    3.333    2.500    0.000    1.500 
#    0.000    1.667    0.000    5.000    0.000    0.000 
#    0.000    0.000    0.000    0.000    0.000    0.000 
#
# Total GULP energy -267653.545332 kJ/mol
# GULP energy per Si atom -5576.115528 kJ/mol
# Density = 1.856313 g / cm^3
# Si number density = 18.605482 Si / 1000 Ang^3
#
#
#
# Elastic Constant Matrix: (Units=GPa)
#
#
# Indices 1 2 3 4 5 6 
#
# 1 65.5504 16.0905 18.2861 0.0000 0.0000 0.0000
# 2 16.0905 65.5538 18.2860 0.0000 0.0000 0.0000
# 3 18.2861 18.2860 78.9796 0.0000 0.0000 0.0000
# 4 0.0000 0.0000 0.0000 27.9914 0.0000 0.0000
# 5 0.0000 0.0000 0.0000 0.0000 27.9923 0.0000
# 6 0.0000 0.0000 0.0000 0.0000 0.0000 29.7313
#
#
#
# Elastic Compliance Matrix: (Units=1/GPa)
#
#
# Indices 1 2 3 4 5 6 
#
# 1 0.016942 -0.003276 -0.003164 0.000000 0.000000 0.000000
# 2 -0.003276 0.016941 -0.003164 0.000000 0.000000 0.000000
# 3 -0.003164 -0.003164 0.014127 0.000000 0.000000 0.000000
# 4 0.000000 0.000000 0.000000 0.035725 0.000000 0.000000
# 5 0.000000 0.000000 0.000000 0.000000 0.035724 0.000000
# 6 0.000000 0.000000 0.000000 0.000000 0.000000 0.033635
#
#
# Mechanical properties :
#
#
# Convention : Reuss Voigt Hill
#
# Bulk Modulus (GPa) = 34.71958 35.04543 34.88251
# Shear Modulus (GPa) = 27.48720 27.63775 27.56247
#
# Velocity S-wave (km/s) = 3.84783 3.85835 3.85309
# Velocity P-wave (km/s) = 6.20020 6.22303 6.21163
#
# Compressibility (1/GPa) = 0.02880219
#
# Stress axis : x y z
#
# Youngs Moduli (GPa) = 59.02405 59.02732 70.78835
#
# Poissons Ratio (x) = 0.19337 0.22399
# Poissons Ratio (y) = 0.19336 0.22397
# Poissons Ratio (z) = 0.18676 0.18676
#
# Static dielectric constant tensor:
#      x y z
#    x 1.650910 0.000000 0.000000 
#    y 0.000000 1.650920 0.000000 
#    z 0.000000 0.000000 1.638800 
# 
# From -- ./inp_files/6389.got.cif
#   From: 2010.05.17/outbox.cif.g08.bks.cpg/sg121_4_cif.got.tgz:6389.got - 2010.05.20 11:32:06.
