data_PCOD9560548
_publ_section_title
;
Structure prediction by ZEFSAII (Michael W. Deem and Ramdas Pophale) SiO2 
 PCOD9560548
Probable space group: I -4 2 M
;
_chemical_formula_sum "Si O2"
_cell_formula_units_Z 88
_cell_length_a 12.560058
_cell_length_b 12.560058
_cell_length_c 27.439592
_cell_angle_alpha 90.000000
_cell_angle_beta 90.000000
_cell_angle_gamma 90.000000
_cell_volume 4328.734399
_symmetry_space_group_name_H-M "I -4 2 M"
_symmetry_group_IT_number 121
_symmetry_cell_setting 'tetragonal'
loop_
_space_group_symop_operation_xyz
x,y,z
y,-x,-z
-x,-y,z
-y,x,-z
x,-y,-z
-x,y,-z
-y,-x,z
y,x,z
1/2+x,1/2+y,1/2+z
1/2+y,1/2-x,1/2-z
1/2-x,1/2-y,1/2+z
1/2-y,1/2+x,1/2-z
1/2+x,1/2-y,1/2-z
1/2-x,1/2+y,1/2-z
1/2-y,1/2-x,1/2+z
1/2+y,1/2+x,1/2+z
loop_
_atom_site_type_symbol
_atom_site_label
_atom_site_fract_x
_atom_site_fract_y
_atom_site_fract_z
Si Si1 0.558145 0.270266 0.051322
Si Si2 0.321532 0.500000 0.500000
Si Si3 0.875362 0.513609 0.679219
Si Si4 0.502273 0.678802 0.752526
Si Si5 0.746775 0.075629 0.352245
Si Si6 0.722491 0.103482 0.087457
O O1 0.616830 0.383170 0.057859
O O2 0.480961 0.247212 0.096071
O O3 0.648268 0.180542 0.055684
O O4 0.500000 0.267101 0.000000
O O5 0.397089 0.602912 0.497683
O O6 0.257125 0.511132 0.550173
O O7 0.785501 0.496560 0.720240
O O8 0.872826 0.634635 0.661052
O O9 0.841644 0.438364 0.634077
O O10 0.000000 0.500000 0.693102
O O11 0.399076 0.600925 0.745624
O O12 0.605347 0.605347 0.741788
O O13 0.503056 0.717387 0.808593
O O14 0.833763 0.166238 0.353443
O O15 0.826077 0.173924 0.102521
#
# Coordination Sequence:
#
# PCOD9560548 Si02
#       6
#    16   8  16  16  16  16
#     4  11  24  43  67  95 129 174 221 271 327 391
#     4   9  20  38  63  94 130 174 221 279 342 396
#     4  12  25  42  66 101 136 176 219 270 336 400
#     4  10  24  47  73  98 131 177 227 279 335 400
#     4  11  25  43  67 101 134 171 217 273 334 393
#     4  10  23  42  64  93 132 174 222 275 329 395
#
# _framework density 20.329267000000002
#
# number of rings (size 3 to 8) (size 9 to 14) (size 15 to 20)
#    0.000    1.364    1.818    2.182    5.091    3.455 
#    0.000    1.818    0.000    0.000    0.000    0.000 
#    0.000    0.000    0.000    0.000    0.000    0.000 
#
# Total GULP energy -245878.307956 kJ/mol
# GULP energy per Si atom -5588.143363 kJ/mol
# Density = 2.028300 g / cm^3
# Si number density = 20.329267 Si / 1000 Ang^3
#
#
#
# Elastic Constant Matrix: (Units=GPa)
#
#
# Indices 1 2 3 4 5 6 
#
# 1 81.2960 11.4544 45.3880 0.0000 0.0000 0.0000
# 2 11.4544 81.3029 45.3884 0.0000 0.0000 0.0000
# 3 45.3880 45.3884 126.1977 0.0000 0.0000 0.0000
# 4 0.0000 0.0000 0.0000 26.0678 0.0000 0.0000
# 5 0.0000 0.0000 0.0000 0.0000 26.0665 0.0000
# 6 0.0000 0.0000 0.0000 0.0000 0.0000 19.7337
#
#
#
# Elastic Compliance Matrix: (Units=1/GPa)
#
#
# Indices 1 2 3 4 5 6 
#
# 1 0.015478 0.001160 -0.005984 0.000000 0.000000 0.000000
# 2 0.001160 0.015477 -0.005984 0.000000 0.000000 0.000000
# 3 -0.005984 -0.005984 0.012228 0.000000 0.000000 0.000000
# 4 0.000000 0.000000 0.000000 0.038361 0.000000 0.000000
# 5 0.000000 0.000000 0.000000 0.000000 0.038363 0.000000
# 6 0.000000 0.000000 0.000000 0.000000 0.000000 0.050675
#
#
# Mechanical properties :
#
#
# Convention : Reuss Voigt Hill
#
# Bulk Modulus (GPa) = 46.36498 54.80646 50.58572
# Shear Modulus (GPa) = 25.07682 26.81133 25.94408
#
# Velocity S-wave (km/s) = 3.51598 3.63554 3.57626
# Velocity P-wave (km/s) = 6.27211 6.68138 6.47997
#
# Compressibility (1/GPa) = 0.02156800
#
# Stress axis : x y z
#
# Youngs Moduli (GPa) = 64.60692 64.61346 81.77718
#
# Poissons Ratio (x) = -0.07495 0.48936
# Poissons Ratio (y) = -0.07495 0.48932
# Poissons Ratio (z) = 0.38661 0.38662
#
# Static dielectric constant tensor:
#      x y z
#    x 1.722950 0.000000 0.000000 
#    y 0.000000 1.722950 0.000000 
#    z 0.000000 0.000000 1.698530 
# 
# From -- ./inp_files/8159.got.cif
#   From: 2010.05.17/outbox.cif.g08.bks.cpg/sg121_5_cif.got.tgz:8159.got - 2010.05.20 11:32:06.
