data_PCOD9560428
_publ_section_title
;
Structure prediction by ZEFSAII (Michael W. Deem and Ramdas Pophale) SiO2 
 PCOD9560428
Probable space group: I -4 2 M
;
_chemical_formula_sum "Si O2"
_cell_formula_units_Z 80
_cell_length_a 18.631669
_cell_length_b 18.631669
_cell_length_c 13.774655
_cell_angle_alpha 90.000000
_cell_angle_beta 90.000000
_cell_angle_gamma 90.000000
_cell_volume 4781.721198
_symmetry_space_group_name_H-M "I -4 2 M"
_symmetry_group_IT_number 121
_symmetry_cell_setting 'tetragonal'
loop_
_space_group_symop_operation_xyz
x,y,z
y,-x,-z
-x,-y,z
-y,x,-z
x,-y,-z
-x,y,-z
-y,-x,z
y,x,z
1/2+x,1/2+y,1/2+z
1/2+y,1/2-x,1/2-z
1/2-x,1/2-y,1/2+z
1/2-y,1/2+x,1/2-z
1/2+x,1/2-y,1/2-z
1/2-x,1/2+y,1/2-z
1/2-y,1/2-x,1/2+z
1/2+y,1/2+x,1/2+z
loop_
_atom_site_type_symbol
_atom_site_label
_atom_site_fract_x
_atom_site_fract_y
_atom_site_fract_z
Si Si1 0.206953 0.582426 0.013144
Si Si2 0.503051 0.821242 0.727362
Si Si3 0.744547 0.857853 0.274985
Si Si4 0.754572 0.867478 0.691401
Si Si5 0.443974 0.065111 0.892173
O O1 0.234961 0.615748 0.113900
O O2 0.120094 0.575351 0.021211
O O3 0.232850 0.500000 0.000000
O O4 0.231502 0.628184 0.921293
O O5 0.575182 0.777416 0.708156
O O6 0.445280 0.764804 0.767132
O O7 0.523734 0.880775 0.810095
O O8 0.469375 0.869689 0.643765
O O9 0.821439 0.821439 0.260206
O O10 0.685817 0.797790 0.249626
O O11 0.833847 0.833847 0.699397
O O12 0.500000 0.000000 0.902715
#
# Coordination Sequence:
#
# PCOD9560428 Si02
#       5
#    16  16  16  16  16
#     4  11  21  33  52  80 109 143 186 215 272 324
#     4  11  17  34  53  76 105 140 179 219 273 325
#     4  10  21  36  55  74 107 147 185 225 271 323
#     4  11  21  36  53  76 108 149 185 223 267 328
#     4  11  18  30  52  78 113 141 173 219 275 335
#
# _framework density 16.730378000000002
#
# number of rings (size 3 to 8) (size 9 to 14) (size 15 to 20)
#    0.000    1.200   10.000    0.600    0.000    0.400 
#    0.000    0.000    0.000    0.600    0.000    1.400 
#    0.000    0.000    0.000    0.600    0.000    0.000 
#
# Total GULP energy -222968.926412 kJ/mol
# GULP energy per Si atom -5574.223160 kJ/mol
# Density = 1.669230 g / cm^3
# Si number density = 16.730378 Si / 1000 Ang^3
#
#
#
# Elastic Constant Matrix: (Units=GPa)
#
#
# Indices 1 2 3 4 5 6 
#
# 1 77.3273 53.0258 3.1037 0.0000 0.0000 0.0000
# 2 53.0258 77.3273 3.1037 0.0000 0.0000 0.0000
# 3 3.1037 3.1037 29.4969 0.0000 0.0000 0.0000
# 4 0.0000 0.0000 0.0000 17.9438 0.0000 0.0000
# 5 0.0000 0.0000 0.0000 0.0000 17.9438 0.0000
# 6 0.0000 0.0000 0.0000 0.0000 0.0000 49.8066
#
#
#
# Elastic Compliance Matrix: (Units=1/GPa)
#
#
# Indices 1 2 3 4 5 6 
#
# 1 0.024430 -0.016720 -0.000811 0.000000 0.000000 0.000000
# 2 -0.016720 0.024430 -0.000811 0.000000 0.000000 0.000000
# 3 -0.000811 -0.000811 0.034073 0.000000 0.000000 0.000000
# 4 0.000000 0.000000 0.000000 0.055730 0.000000 0.000000
# 5 0.000000 0.000000 0.000000 0.000000 0.055730 0.000000
# 6 0.000000 0.000000 0.000000 0.000000 0.000000 0.020078
#
#
# Mechanical properties :
#
#
# Convention : Reuss Voigt Hill
#
# Bulk Modulus (GPa) = 21.62267 33.62422 27.62345
# Shear Modulus (GPa) = 18.75680 25.46670 22.11175
#
# Velocity S-wave (km/s) = 3.35195 3.90575 3.63940
# Velocity P-wave (km/s) = 5.28517 6.36248 5.84868
#
# Compressibility (1/GPa) = 0.04624775
#
# Stress axis : x y z
#
# Youngs Moduli (GPa) = 40.93346 40.93346 29.34906
#
# Poissons Ratio (x) = 0.68440 0.02381
# Poissons Ratio (y) = 0.68440 0.02381
# Poissons Ratio (z) = 0.03321 0.03321
#
# Static dielectric constant tensor:
#      x y z
#    x 1.589790 0.000000 0.000000 
#    y 0.000000 1.589790 0.000000 
#    z 0.000000 0.000000 1.636400 
# 
# From -- ./inp_files/4230.got.cif
#   From: 2010.05.17/outbox.cif.g08.bks.cpg/sg121_3_cif.got.tgz:4230.got - 2010.05.20 11:32:06.
