data_PCOD9560737
_publ_section_title
;
Structure prediction by ZEFSAII (Michael W. Deem and Ramdas Pophale) SiO2 
 PCOD9560737
Probable space group: I -4 2 D
;
_chemical_formula_sum "Si O2"
_cell_formula_units_Z 96
_cell_length_a 12.711713
_cell_length_b 12.711713
_cell_length_c 21.020836
_cell_angle_alpha 90.000000
_cell_angle_beta 90.000000
_cell_angle_gamma 90.000000
_cell_volume 3396.707436
_symmetry_space_group_name_H-M "I -4 2 D"
_symmetry_group_IT_number 122
_symmetry_cell_setting 'tetragonal'
loop_
_space_group_symop_operation_xyz
x,y,z
y,-x,-z
-x,-y,z
-y,x,-z
x,1/2-y,1/4-z
-x,1/2+y,1/4-z
-y,1/2-x,1/4+z
y,1/2+x,1/4+z
1/2+x,1/2+y,1/2+z
1/2+y,1/2-x,1/2-z
1/2-x,1/2-y,1/2+z
1/2-y,1/2+x,1/2-z
1/2+x,-y,3/4-z
1/2-x,y,3/4-z
1/2-y,-x,3/4+z
1/2+y,x,3/4+z
loop_
_atom_site_type_symbol
_atom_site_label
_atom_site_fract_x
_atom_site_fract_y
_atom_site_fract_z
Si Si1 0.669641 0.177803 0.498411
Si Si2 0.986569 0.878543 0.165965
Si Si3 0.622393 0.907186 0.779146
Si Si4 0.136983 0.109069 0.358153
Si Si5 0.123863 0.396521 0.639075
Si Si6 0.944621 0.207696 0.781214
O O1 0.550767 0.178432 0.528999
O O2 0.690055 0.299805 0.515231
O O3 0.667132 0.160265 0.423233
O O4 0.713986 0.072809 0.532646
O O5 0.861113 0.878820 0.166799
O O6 0.041032 0.860404 0.098400
O O7 0.000000 0.000000 0.182745
O O8 0.500512 0.872431 0.773382
O O9 0.250000 0.161836 0.375000
O O10 0.151320 0.076653 0.285046
O O11 0.018300 0.148561 0.368485
O O12 0.130628 0.998291 0.396501
O O13 0.179984 0.391527 0.707280
#
# Coordination Sequence:
#
# PCOD9560737 Si02
#       6
#    16  16  16  16  16  16
#     4  10  21  37  60  90 123 165 215 256 314 383
#     4  10  18  36  57  79 120 168 203 246 311 378
#     4  11  21  35  54  87 129 166 210 258 309 380
#     4  10  22  43  66  94 128 166 220 267 328 402
#     4  10  21  42  67  93 127 168 209 273 330 387
#     4  10  21  40  67  91 125 171 212 263 332 388
#
# _framework density 28.262664999999998
#
# number of rings (size 3 to 8) (size 9 to 14) (size 15 to 20)
#    0.000    1.833    3.333    1.500    2.333    1.333 
#    3.000    6.667    0.000    0.000    0.000    0.000 
#    0.000    0.000    0.000    0.000    0.000    0.000 
#
# Total GULP energy -268232.011821 kJ/mol
# GULP energy per Si atom -5588.166913 kJ/mol
# Density = 2.819834 g / cm^3
# Si number density = 28.262665 Si / 1000 Ang^3
#
#
#
# Elastic Constant Matrix: (Units=GPa)
#
#
# Indices 1 2 3 4 5 6 
#
# 1 109.7693 -0.5407 23.2146 0.0000 0.0000 0.0000
# 2 -0.5407 109.7693 23.2146 0.0000 0.0000 0.0000
# 3 23.2146 23.2146 108.2578 0.0000 0.0000 0.0000
# 4 0.0000 0.0000 0.0000 42.0583 0.0000 0.0000
# 5 0.0000 0.0000 0.0000 0.0000 42.0583 0.0000
# 6 0.0000 0.0000 0.0000 0.0000 0.0000 31.9780
#
#
#
# Elastic Compliance Matrix: (Units=1/GPa)
#
#
# Indices 1 2 3 4 5 6 
#
# 1 0.009569 0.000504 -0.002160 0.000000 0.000000 0.000000
# 2 0.000504 0.009569 -0.002160 0.000000 0.000000 0.000000
# 3 -0.002160 -0.002160 0.010164 0.000000 0.000000 0.000000
# 4 0.000000 0.000000 0.000000 0.023777 0.000000 0.000000
# 5 0.000000 0.000000 0.000000 0.000000 0.023777 0.000000
# 6 0.000000 0.000000 0.000000 0.000000 0.000000 0.031271
#
#
# Mechanical properties :
#
#
# Convention : Reuss Voigt Hill
#
# Bulk Modulus (GPa) = 46.14715 46.61928 46.38322
# Shear Modulus (GPa) = 40.65618 42.01278 41.33448
#
# Velocity S-wave (km/s) = 3.79689 3.85971 3.82843
# Velocity P-wave (km/s) = 5.96533 6.03274 5.99913
#
# Compressibility (1/GPa) = 0.02166981
#
# Stress axis : x y z
#
# Youngs Moduli (GPa) = 104.50051 104.50051 98.39008
#
# Poissons Ratio (x) = -0.05266 0.21253
# Poissons Ratio (y) = -0.05266 0.21253
# Poissons Ratio (z) = 0.22573 0.22573
#
# Static dielectric constant tensor:
#      x y z
#    x 2.407080 0.000000 0.000000 
#    y 0.000000 2.407080 0.000000 
#    z 0.000000 0.000000 2.091750 
# 
# From -- ./inp_files/7277.got.cif
#   From: 2010.05.17/outbox.cif.g08.bks.cpg/sg122_4_cif.got.tgz:7277.got - 2010.05.20 11:37:33.
