data_PCOD9560739
_publ_section_title
;
Structure prediction by ZEFSAII (Michael W. Deem and Ramdas Pophale) SiO2 
 PCOD9560739
Probable space group: I -4 2 D
;
_chemical_formula_sum "Si O2"
_cell_formula_units_Z 64
_cell_length_a 10.744089
_cell_length_b 10.744089
_cell_length_c 30.826637
_cell_angle_alpha 90.000000
_cell_angle_beta 90.000000
_cell_angle_gamma 90.000000
_cell_volume 3558.486666
_symmetry_space_group_name_H-M "I -4 2 D"
_symmetry_group_IT_number 122
_symmetry_cell_setting 'tetragonal'
loop_
_space_group_symop_operation_xyz
x,y,z
y,-x,-z
-x,-y,z
-y,x,-z
x,1/2-y,1/4-z
-x,1/2+y,1/4-z
-y,1/2-x,1/4+z
y,1/2+x,1/4+z
1/2+x,1/2+y,1/2+z
1/2+y,1/2-x,1/2-z
1/2-x,1/2-y,1/2+z
1/2-y,1/2+x,1/2-z
1/2+x,-y,3/4-z
1/2-x,y,3/4-z
1/2-y,-x,3/4+z
1/2+y,x,3/4+z
loop_
_atom_site_type_symbol
_atom_site_label
_atom_site_fract_x
_atom_site_fract_y
_atom_site_fract_z
Si Si1 0.714974 0.425719 0.711228
Si Si2 0.040426 0.630753 0.655653
Si Si3 0.803931 0.201469 0.459501
Si Si4 0.250000 0.635853 0.375000
Si Si5 0.500000 0.000000 0.898482
O O1 0.832407 0.390652 0.681296
O O2 0.711911 0.330595 0.751221
O O3 0.736376 0.568465 0.726608
O O4 0.598195 0.432551 0.679923
O O5 0.049114 0.750000 0.625000
O O6 0.000000 0.500000 0.633077
O O7 0.931252 0.656250 0.689890
O O8 0.756294 0.281196 0.418754
O O9 0.382467 0.562403 0.376219
#
# Coordination Sequence:
#
# PCOD9560739 Si02
#       5
#    16  16  16   8   8
#     4  10  20  36  60  85 120 152 197 249 309 355
#     4  10  20  34  58  92 117 145 191 254 311 354
#     4  10  18  36  61  90 114 146 191 262 312 344
#     4  10  22  42  62  84 126 164 204 248 304 372
#     4  10  24  42  56  85 126 176 200 239 300 378
#
# _framework density 17.985174000000001
#
# number of rings (size 3 to 8) (size 9 to 14) (size 15 to 20)
#    0.000    2.000    3.750    0.000    1.750    0.000 
#    2.250    5.000    0.000    0.000    0.000    0.000 
#    0.000    0.000    0.000    0.000    0.000    0.000 
#
# Total GULP energy -178242.966368 kJ/mol
# GULP energy per Si atom -5570.092699 kJ/mol
# Density = 1.794424 g / cm^3
# Si number density = 17.985174 Si / 1000 Ang^3
#
#
#
# Elastic Constant Matrix: (Units=GPa)
#
#
# Indices 1 2 3 4 5 6 
#
# 1 93.2764 29.6069 43.4691 0.0000 0.0000 0.0000
# 2 29.6069 93.2764 43.4691 0.0000 0.0000 0.0000
# 3 43.4691 43.4691 75.8962 0.0000 0.0000 0.0000
# 4 0.0000 0.0000 0.0000 43.0656 0.0000 0.0000
# 5 0.0000 0.0000 0.0000 0.0000 43.0656 0.0000
# 6 0.0000 0.0000 0.0000 0.0000 0.0000 29.6069
#
#
#
# Elastic Compliance Matrix: (Units=1/GPa)
#
#
# Indices 1 2 3 4 5 6 
#
# 1 0.014694 -0.001012 -0.007836 0.000000 0.000000 0.000000
# 2 -0.001012 0.014694 -0.007836 0.000000 0.000000 0.000000
# 3 -0.007836 -0.007836 0.022152 0.000000 0.000000 0.000000
# 4 0.000000 0.000000 0.000000 0.023220 0.000000 0.000000
# 5 0.000000 0.000000 0.000000 0.000000 0.023220 0.000000
# 6 0.000000 0.000000 0.000000 0.000000 0.000000 0.033776
#
#
# Mechanical properties :
#
#
# Convention : Reuss Voigt Hill
#
# Bulk Modulus (GPa) = 55.03264 55.05993 55.04629
# Shear Modulus (GPa) = 29.20853 32.87452 31.04152
#
# Velocity S-wave (km/s) = 4.03430 4.28000 4.15896
# Velocity P-wave (km/s) = 7.23644 7.42327 7.33045
#
# Compressibility (1/GPa) = 0.01817103
#
# Stress axis : x y z
#
# Youngs Moduli (GPa) = 68.05519 68.05520 45.14232
#
# Poissons Ratio (x) = 0.06888 0.35374
# Poissons Ratio (y) = 0.06888 0.35374
# Poissons Ratio (z) = 0.53329 0.53329
#
# Static dielectric constant tensor:
#      x y z
#    x 1.637000 0.000000 0.000000 
#    y 0.000000 1.637000 0.000000 
#    z 0.000000 0.000000 1.612290 
# 
# From -- ./inp_files/7868.got.cif
#   From: 2010.05.17/outbox.cif.g08.bks.cpg/sg122_4_cif.got.tgz:7868.got - 2010.05.20 11:37:33.
