data_PCOD9560005
_publ_section_title
;
Structure prediction by ZEFSAII (Michael W. Deem and Ramdas Pophale) SiO2 
 PCOD9560005
Probable space group: I -4 C 2
;
_chemical_formula_sum "Si O2"
_cell_formula_units_Z 112
_cell_length_a 13.743432
_cell_length_b 13.743432
_cell_length_c 25.083296
_cell_angle_alpha 90.000000
_cell_angle_beta 90.000000
_cell_angle_gamma 90.000000
_cell_volume 4737.781187
_symmetry_space_group_name_H-M "I -4 C 2"
_symmetry_group_IT_number 120
_symmetry_cell_setting 'tetragonal'
loop_
_space_group_symop_operation_xyz
x,y,z
y,-x,-z
-x,-y,z
-y,x,-z
y,x,1/2-z
-y,-x,1/2-z
-x,y,1/2+z
x,-y,1/2+z
1/2+x,1/2+y,1/2+z
1/2+y,1/2-x,1/2-z
1/2-x,1/2-y,1/2+z
1/2-y,1/2+x,1/2-z
1/2+y,1/2+x,-z
1/2-y,1/2-x,-z
1/2-x,1/2+y,z
1/2+x,1/2-y,z
loop_
_atom_site_type_symbol
_atom_site_label
_atom_site_fract_x
_atom_site_fract_y
_atom_site_fract_z
Si Si1 0.433441 0.134652 0.740556
Si Si2 0.418166 0.361874 0.005615
Si Si3 0.238828 0.945808 0.858760
Si Si4 0.726329 0.199958 0.673911
Si Si5 0.754206 0.457604 0.096468
Si Si6 0.923386 0.587910 0.062956
Si Si7 0.126724 0.122485 0.623869
O O1 0.529949 0.111408 0.775105
O O2 0.475224 0.190753 0.689923
O O3 0.352055 0.197503 0.771036
O O4 0.365901 0.343037 0.061723
O O5 0.378667 0.466232 0.985494
O O6 0.411871 0.282567 0.959160
O O7 0.206191 0.838617 0.842472
O O8 0.309265 0.949099 0.910278
O O9 0.146979 0.015676 0.862924
O O10 0.684685 0.306601 0.663437
O O11 0.689322 0.123269 0.629661
O O12 0.824352 0.548666 0.087882
O O13 0.662842 0.511712 0.124664
O O14 0.000000 0.500000 0.071297
O O15 0.905468 0.594533 0.000000
#
# Coordination Sequence:
#
# PCOD9560005 Si02
#       7
#    16  16  16  16  16  16  16
#     4  11  25  45  73 100 133 183 232 289 349 411
#     4   9  19  37  63  96 137 186 230 268 331 415
#     4  12  24  44  71  99 138 177 231 282 347 415
#     4  12  25  44  69 103 132 180 232 288 348 413
#     4  11  23  42  65  96 137 180 226 281 344 408
#     4  11  24  41  65 101 143 182 228 287 342 409
#     4  11  23  43  65  99 137 179 226 284 338 409
#
# _framework density 23.639756999999999
#
# number of rings (size 3 to 8) (size 9 to 14) (size 15 to 20)
#    0.000    1.000    2.857    3.857    2.000    4.571 
#    0.000    0.714    0.000    1.714    0.000    0.000 
#    0.000    0.000    0.000    0.000    0.000    0.000 
#
# Total GULP energy -313162.251535 kJ/mol
# GULP energy per Si atom -5592.183063 kJ/mol
# Density = 2.358595 g / cm^3
# Si number density = 23.639757 Si / 1000 Ang^3
#
#
#
# Elastic Constant Matrix: (Units=GPa)
#
#
# Indices 1 2 3 4 5 6 
#
# 1 69.9948 10.2549 13.1132 0.0000 0.0000 0.0000
# 2 10.2549 69.9944 13.1134 0.0000 0.0000 0.0000
# 3 13.1132 13.1134 68.0116 0.0000 0.0000 0.0000
# 4 0.0000 0.0000 0.0000 27.8138 0.0000 0.0000
# 5 0.0000 0.0000 0.0000 0.0000 27.8139 0.0000
# 6 0.0000 0.0000 0.0000 0.0000 0.0000 39.0275
#
#
#
# Elastic Compliance Matrix: (Units=1/GPa)
#
#
# Indices 1 2 3 4 5 6 
#
# 1 0.015019 -0.001720 -0.002564 0.000000 0.000000 0.000000
# 2 -0.001720 0.015019 -0.002564 0.000000 0.000000 0.000000
# 3 -0.002564 -0.002564 0.015692 0.000000 0.000000 0.000000
# 4 0.000000 0.000000 0.000000 0.035953 0.000000 0.000000
# 5 0.000000 0.000000 0.000000 0.000000 0.035953 0.000000
# 6 0.000000 0.000000 0.000000 0.000000 0.000000 0.025623
#
#
# Mechanical properties :
#
#
# Convention : Reuss Voigt Hill
#
# Bulk Modulus (GPa) = 31.21716 31.21820 31.21768
# Shear Modulus (GPa) = 29.82669 30.36566 30.09618
#
# Velocity S-wave (km/s) = 3.55592 3.58790 3.57195
# Velocity P-wave (km/s) = 5.48575 5.51349 5.49964
#
# Compressibility (1/GPa) = 0.03203366
#
# Stress axis : x y z
#
# Youngs Moduli (GPa) = 66.58154 66.58110 63.72594
#
# Poissons Ratio (x) = 0.11452 0.16340
# Poissons Ratio (y) = 0.11452 0.16341
# Poissons Ratio (z) = 0.17073 0.17073
#
# Static dielectric constant tensor:
#      x y z
#    x 1.915700 0.000000 0.000000 
#    y 0.000000 1.915700 0.000000 
#    z 0.000000 0.000000 1.939910 
# 
# From -- ./inp_files/5945.got.cif
#   From: 2010.05.17/outbox.cif.g08.bks.cpg/sg120_3_cif.got.tgz:5945.got - 2010.05.20 11:28:13.
