data_PCOD9560079
_publ_section_title
;
Structure prediction by ZEFSAII (Michael W. Deem and Ramdas Pophale) SiO2 
 PCOD9560079
Probable space group: I -4 C 2
;
_chemical_formula_sum "Si O2"
_cell_formula_units_Z 58
_cell_length_a 18.000000
_cell_length_b 18.000000
_cell_length_c 18.000000
_cell_angle_alpha 90.000000
_cell_angle_beta 90.000000
_cell_angle_gamma 90.000000
_cell_volume 5832.000000
_symmetry_space_group_name_H-M "I -4 C 2"
_symmetry_group_IT_number 120
_symmetry_cell_setting 'tetragonal'
loop_
_space_group_symop_operation_xyz
x,y,z
y,-x,-z
-x,-y,z
-y,x,-z
y,x,1/2-z
-y,-x,1/2-z
-x,y,1/2+z
x,-y,1/2+z
1/2+x,1/2+y,1/2+z
1/2+y,1/2-x,1/2-z
1/2-x,1/2-y,1/2+z
1/2-y,1/2+x,1/2-z
1/2+y,1/2+x,-z
1/2-y,1/2-x,-z
1/2-x,1/2+y,z
1/2+x,1/2-y,z
loop_
_atom_site_type_symbol
_atom_site_label
_atom_site_fract_x
_atom_site_fract_y
_atom_site_fract_z
Si Si1 0.668767 0.273906 0.171242
Si Si2 0.941517 0.559163 0.888655
Si Si3 0.722183 0.851112 0.070299
Si Si4 0.469489 0.769225 0.111436
Si Si5 0.000000 0.500000 0.250000
Si Si6 0.718102 0.974322 0.548979
Si Si7 0.121915 0.255241 0.666039
Si Si8 0.129957 0.245558 0.831972
O O1 0.705799 0.294202 0.250000
O O2 0.701050 0.327461 0.108337
O O3 0.580912 0.270587 0.172039
O O4 0.690146 0.189506 0.148408
O O5 0.858579 0.528223 0.882615
O O6 0.948768 0.634388 0.933306
O O7 0.000000 0.500000 0.920223
O O8 0.971733 0.564916 0.803996
O O9 0.663059 0.827168 0.133523
O O10 0.718535 0.936909 0.050177
O O11 0.699394 0.800607 0.000000
O O12 0.551626 0.739501 0.117054
O O13 0.441299 0.755663 0.028652
O O14 0.764903 0.937672 0.613783
O O15 0.100694 0.265493 0.751036
O O16 0.176390 0.185387 0.665959
#
# Coordination Sequence:
#
# PCOD9560079 Si02
#       8
#    16  16  16  16   4  16  16  16
#     4  11  24  42  62  91 121 165 217 263 305 368
#     4  10  23  35  53  84 131 164 206 242 307 366
#     4  11  23  40  62  89 129 165 207 250 315 376
#     4  12  25  37  62  91 124 161 207 262 321 373
#     4   8  24  36  46  76 116 180 194 244 288 368
#     4  12  25  36  59  92 124 169 202 251 317 379
#     4  10  22  41  64  88 123 164 207 262 307 375
#     4  10  22  41  63  88 123 165 215 258 308 365
#
# _framework density 9.9451300000000007
#
# number of rings (size 3 to 8) (size 9 to 14) (size 15 to 20)
#    0.414    0.828    5.517    1.241    7.724    0.552 
#    0.000    0.000    0.000    0.828    0.000    1.931 
#    0.000    0.000    0.000    0.000    0.000    0.000 
#
# Total GULP energy -323129.909887 kJ/mol
# GULP energy per Si atom -5571.205343 kJ/mol
# Density = 0.992249 g / cm^3
# Si number density = 9.945130 Si / 1000 Ang^3
#
#
#
# Elastic Constant Matrix: (Units=GPa)
#
#
# Indices 1 2 3 4 5 6 
#
# 1 67.5733 -19.5887 40.2492 0.0000 0.0000 0.0000
# 2 -19.5887 67.5757 40.2488 0.0000 0.0000 0.0000
# 3 40.2492 40.2488 55.3711 0.0000 0.0000 0.0000
# 4 0.0000 0.0000 0.0000 18.1069 0.0000 0.0000
# 5 0.0000 0.0000 0.0000 0.0000 18.1057 0.0000
# 6 0.0000 0.0000 0.0000 0.0000 0.0000 8.3421
#
#
#
# Elastic Compliance Matrix: (Units=1/GPa)
#
#
# Indices 1 2 3 4 5 6 
#
# 1 -0.041758 -0.053229 0.069046 0.000000 0.000000 0.000000
# 2 -0.053229 -0.041755 0.069044 0.000000 0.000000 0.000000
# 3 0.069046 0.069044 -0.082317 0.000000 0.000000 0.000000
# 4 0.000000 0.000000 0.000000 0.055228 0.000000 0.000000
# 5 0.000000 0.000000 0.000000 0.000000 0.055231 0.000000
# 6 0.000000 0.000000 0.000000 0.000000 0.000000 0.119873
#
#
# Mechanical properties :
#
#
# Convention : Reuss Voigt Hill
#
# Bulk Modulus (GPa) = 257.02284 34.70430 145.86357
# Shear Modulus (GPa) = -48.11338 17.55166 -15.28086
#
# Velocity S-wave (km/s) = -4.92361 2.97379 -2.77475
# Velocity P-wave (km/s) = 9.85791 5.41082 7.95158
#
# Compressibility (1/GPa) = 0.00389070
#
# Stress axis : x y z
#
# Youngs Moduli (GPa) = -23.94741 -23.94927 -12.14821
#
# Poissons Ratio (x) = -1.27480 0.83878
# Poissons Ratio (y) = -1.27470 0.83876
# Poissons Ratio (z) = 1.65347 1.65354
#
# Static dielectric constant tensor:
#      x y z
#    x 1.736350 0.000000 0.000000 
#    y 0.000000 1.736350 0.000000 
#    z 0.000000 0.000000 1.676760 
# 
# From -- ./inp_files/4573.got.cif
#   From: 2010.05.17/outbox.ucp.g08.bks.cvg/sg120_3_cif.got.tgz:4573.got - 2010.06.11 11:34:49.
