data_PCOD9560654
_publ_section_title
;
Structure prediction by ZEFSAII (Michael W. Deem and Ramdas Pophale) SiO2 
 PCOD9560654
Probable space group: I -4 2 M
;
_chemical_formula_sum "Si O2"
_cell_formula_units_Z 104
_cell_length_a 19.331488
_cell_length_b 19.331488
_cell_length_c 17.994125
_cell_angle_alpha 90.000000
_cell_angle_beta 90.000000
_cell_angle_gamma 90.000000
_cell_volume 6724.520184
_symmetry_space_group_name_H-M "I -4 2 M"
_symmetry_group_IT_number 121
_symmetry_cell_setting 'tetragonal'
loop_
_space_group_symop_operation_xyz
x,y,z
y,-x,-z
-x,-y,z
-y,x,-z
x,-y,-z
-x,y,-z
-y,-x,z
y,x,z
1/2+x,1/2+y,1/2+z
1/2+y,1/2-x,1/2-z
1/2-x,1/2-y,1/2+z
1/2-y,1/2+x,1/2-z
1/2+x,1/2-y,1/2-z
1/2-x,1/2+y,1/2-z
1/2-y,1/2-x,1/2+z
1/2+y,1/2+x,1/2+z
loop_
_atom_site_type_symbol
_atom_site_label
_atom_site_fract_x
_atom_site_fract_y
_atom_site_fract_z
Si Si1 0.178873 0.500000 0.000000
Si Si2 0.374280 0.125718 0.750001
Si Si3 0.000000 0.584731 0.645310
Si Si4 0.077150 0.193983 0.000001
Si Si5 0.347204 0.767476 0.372906
Si Si6 0.767474 0.652795 0.372905
Si Si7 0.848691 0.736210 0.499998
O O1 0.125807 0.499998 0.068703
O O2 0.226016 0.569075 0.000002
O O3 0.388155 0.065752 0.690790
O O4 0.434245 0.111846 0.809215
O O5 0.373774 0.195092 0.700681
O O6 0.304905 0.126223 0.799319
O O7 0.000000 0.500000 0.640064
O O8 0.133711 0.133711 0.000002
O O9 0.092789 0.239282 0.926805
O O10 0.907211 0.239283 0.926803
O O11 0.000000 0.167414 0.000000
O O12 0.295769 0.704231 0.354392
O O13 0.303280 0.818519 0.427097
O O14 0.704228 0.704228 0.354390
O O15 0.818518 0.696721 0.427094
O O16 0.811824 0.811824 0.499999
#
# Coordination Sequence:
#
# PCOD9560654 Si02
#       7
#     8  16  16  16  16  16  16
#     4  12  21  40  56  71 102 154 172 196 272 309
#     4  12  20  34  50  72 106 140 164 218 252 284
#     4  12  25  36  46  76 115 141 179 204 236 316
#     4   9  19  34  51  75 101 132 174 215 257 322
#     4   9  19  34  52  75 100 129 173 216 256 302
#     4   9  19  34  52  75 100 129 173 216 256 302
#     4   9  18  34  54  76  99 128 176 218 244 307
#
# _framework density 15.465788
#
# number of rings (size 3 to 8) (size 9 to 14) (size 15 to 20)
#    0.000    1.846    4.615    2.538    2.154    0.154 
#    0.000    0.000    0.000    0.231    0.000    0.000 
#    0.000    0.000    0.000    0.000    0.000    0.000 
#
# Total GULP energy -289630.100995 kJ/mol
# GULP energy per Si atom -5569.809635 kJ/mol
# Density = 1.543059 g / cm^3
# Si number density = 15.465788 Si / 1000 Ang^3
#
#
#
# Elastic Constant Matrix: (Units=GPa)
#
#
# Indices 1 2 3 4 5 6 
#
# 1 73.5964 29.4704 37.0543 0.0000 0.0000 0.0000
# 2 29.4704 73.5963 37.0542 0.0000 0.0000 0.0000
# 3 37.0543 37.0542 103.4147 0.0000 0.0000 0.0000
# 4 0.0000 0.0000 0.0000 22.7116 0.0000 0.0000
# 5 0.0000 0.0000 0.0000 0.0000 22.7118 0.0000
# 6 0.0000 0.0000 0.0000 0.0000 0.0000 15.6566
#
#
#
# Elastic Compliance Matrix: (Units=1/GPa)
#
#
# Indices 1 2 3 4 5 6 
#
# 1 0.017866 -0.004796 -0.004683 0.000000 0.000000 0.000000
# 2 -0.004796 0.017866 -0.004683 0.000000 0.000000 0.000000
# 3 -0.004683 -0.004683 0.013026 0.000000 0.000000 0.000000
# 4 0.000000 0.000000 0.000000 0.044030 0.000000 0.000000
# 5 0.000000 0.000000 0.000000 0.000000 0.044030 0.000000
# 6 0.000000 0.000000 0.000000 0.000000 0.000000 0.063871
#
#
# Mechanical properties :
#
#
# Convention : Reuss Voigt Hill
#
# Bulk Modulus (GPa) = 48.94001 50.86279 49.90140
# Shear Modulus (GPa) = 21.20220 22.01790 21.61005
#
# Velocity S-wave (km/s) = 3.70660 3.77722 3.74208
# Velocity P-wave (km/s) = 7.07328 7.20985 7.14189
#
# Compressibility (1/GPa) = 0.02043318
#
# Stress axis : x y z
#
# Youngs Moduli (GPa) = 55.97218 55.97212 76.77150
#
# Poissons Ratio (x) = 0.26846 0.35952
# Poissons Ratio (y) = 0.26846 0.35952
# Poissons Ratio (z) = 0.26212 0.26211
#
# Static dielectric constant tensor:
#      x y z
#    x 1.522240 0.000000 0.000000 
#    y 0.000000 1.522240 0.000000 
#    z 0.000000 0.000000 1.540520 
# 
# From -- ./inp_files/5469.got.cif
#   From: 2010.05.17/outbox.cif.g08.bks.cpg/sg121_3_cif.got.tgz:5469.got - 2010.05.20 11:32:06.
