data_PCOD9560363
_publ_section_title
;
Structure prediction by ZEFSAII (Michael W. Deem and Ramdas Pophale) SiO2 
 PCOD9560363
Probable space group: I -4 2 M
;
_chemical_formula_sum "Si O2"
_cell_formula_units_Z 96
_cell_length_a 14.435442
_cell_length_b 14.435442
_cell_length_c 20.597753
_cell_angle_alpha 90.000000
_cell_angle_beta 90.000000
_cell_angle_gamma 90.000000
_cell_volume 4292.200672
_symmetry_space_group_name_H-M "I -4 2 M"
_symmetry_group_IT_number 121
_symmetry_cell_setting 'tetragonal'
loop_
_space_group_symop_operation_xyz
x,y,z
y,-x,-z
-x,-y,z
-y,x,-z
x,-y,-z
-x,y,-z
-y,-x,z
y,x,z
1/2+x,1/2+y,1/2+z
1/2+y,1/2-x,1/2-z
1/2-x,1/2-y,1/2+z
1/2-y,1/2+x,1/2-z
1/2+x,1/2-y,1/2-z
1/2-x,1/2+y,1/2-z
1/2-y,1/2-x,1/2+z
1/2+y,1/2+x,1/2+z
loop_
_atom_site_type_symbol
_atom_site_label
_atom_site_fract_x
_atom_site_fract_y
_atom_site_fract_z
Si Si1 0.132655 0.289905 0.744503
Si Si2 0.217934 0.625613 0.135334
Si Si3 0.635275 0.105465 0.498947
Si Si4 0.848910 0.006892 0.802259
Si Si5 0.916859 0.233389 0.385809
Si Si6 0.785969 0.933597 0.055935
O O1 0.215401 0.215401 0.750047
O O2 0.158513 0.365746 0.798207
O O3 0.039172 0.235094 0.763838
O O4 0.123413 0.306803 0.667622
O O5 0.294512 0.705489 0.134721
O O6 0.266306 0.526374 0.125615
O O7 0.152830 0.638853 0.072131
O O8 0.730993 0.101243 0.458121
O O9 0.575618 0.177668 0.458133
O O10 0.601416 0.000000 0.500000
O O11 0.928602 0.928602 0.805091
O O12 0.813154 0.028511 0.874152
O O13 0.899538 0.100463 0.776493
O O14 0.862540 0.137461 0.374223
O O15 0.833126 0.833126 0.049152
O O16 0.825376 0.000000 0.000000
#
# Coordination Sequence:
#
# PCOD9560363 Si02
#       6
#    16  16  16  16  16  16
#     4   9  19  36  56  81 115 152 189 230 284 350
#     4  10  20  36  60  85 113 152 192 235 292 352
#     4  10  22  40  59  81 112 153 200 243 285 338
#     4   9  18  32  52  82 118 152 187 231 284 345
#     4  10  21  37  58  84 113 145 190 247 294 341
#     4  11  21  33  55  84 115 150 187 233 288 349
#
# _framework density 22.366147999999999
#
# number of rings (size 3 to 8) (size 9 to 14) (size 15 to 20)
#    0.000    2.167    0.000    3.000    0.000    4.833 
#    0.000    5.000    0.000    5.500    0.000    0.000 
#    0.000    0.000    0.000    0.000    0.000    0.167 
#
# Total GULP energy -268048.081399 kJ/mol
# GULP energy per Si atom -5584.335029 kJ/mol
# Density = 2.231524 g / cm^3
# Si number density = 22.366148 Si / 1000 Ang^3
#
#
#
# Elastic Constant Matrix: (Units=GPa)
#
#
# Indices 1 2 3 4 5 6 
#
# 1 71.0952 17.5642 19.5362 0.0000 0.0000 0.0000
# 2 17.5642 71.0947 19.5362 0.0000 0.0000 0.0000
# 3 19.5362 19.5362 94.6615 0.0000 0.0000 0.0000
# 4 0.0000 0.0000 0.0000 22.4512 0.0000 0.0000
# 5 0.0000 0.0000 0.0000 0.0000 22.4519 0.0000
# 6 0.0000 0.0000 0.0000 0.0000 0.0000 12.8766
#
#
#
# Elastic Compliance Matrix: (Units=1/GPa)
#
#
# Indices 1 2 3 4 5 6 
#
# 1 0.015544 -0.003137 -0.002561 0.000000 0.000000 0.000000
# 2 -0.003137 0.015544 -0.002561 0.000000 0.000000 0.000000
# 3 -0.002561 -0.002561 0.011621 0.000000 0.000000 0.000000
# 4 0.000000 0.000000 0.000000 0.044541 0.000000 0.000000
# 5 0.000000 0.000000 0.000000 0.000000 0.044540 0.000000
# 6 0.000000 0.000000 0.000000 0.000000 0.000000 0.077660
#
#
# Mechanical properties :
#
#
# Convention : Reuss Voigt Hill
#
# Bulk Modulus (GPa) = 38.17744 38.90272 38.54008
# Shear Modulus (GPa) = 21.30404 23.57027 22.43715
#
# Velocity S-wave (km/s) = 3.08963 3.24981 3.17073
# Velocity P-wave (km/s) = 5.46206 5.61364 5.53837
#
# Compressibility (1/GPa) = 0.02619348
#
# Stress axis : x y z
#
# Youngs Moduli (GPa) = 64.33271 64.33218 86.05184
#
# Poissons Ratio (x) = 0.20178 0.22035
# Poissons Ratio (y) = 0.20179 0.22035
# Poissons Ratio (z) = 0.16473 0.16474
#
# Static dielectric constant tensor:
#      x y z
#    x 1.843640 0.000000 0.000000 
#    y 0.000000 1.843650 0.000000 
#    z 0.000000 0.000000 1.864280 
# 
# From -- ./inp_files/6453.got.cif
#   From: 2010.05.17/outbox.cif.g08.bks.cpg/sg121_4_cif.got.tgz:6453.got - 2010.05.20 11:32:06.
