data_PCOD9560498
_publ_section_title
;
Structure prediction by ZEFSAII (Michael W. Deem and Ramdas Pophale) SiO2 
 PCOD9560498
Probable space group: I -4 2 M
;
_chemical_formula_sum "Si O2"
_cell_formula_units_Z 112
_cell_length_a 16.101122
_cell_length_b 16.101122
_cell_length_c 21.877022
_cell_angle_alpha 90.000000
_cell_angle_beta 90.000000
_cell_angle_gamma 90.000000
_cell_volume 5671.533282
_symmetry_space_group_name_H-M "I -4 2 M"
_symmetry_group_IT_number 121
_symmetry_cell_setting 'tetragonal'
loop_
_space_group_symop_operation_xyz
x,y,z
y,-x,-z
-x,-y,z
-y,x,-z
x,-y,-z
-x,y,-z
-y,-x,z
y,x,z
1/2+x,1/2+y,1/2+z
1/2+y,1/2-x,1/2-z
1/2-x,1/2-y,1/2+z
1/2-y,1/2+x,1/2-z
1/2+x,1/2-y,1/2-z
1/2-x,1/2+y,1/2-z
1/2-y,1/2-x,1/2+z
1/2+y,1/2+x,1/2+z
loop_
_atom_site_type_symbol
_atom_site_label
_atom_site_fract_x
_atom_site_fract_y
_atom_site_fract_z
Si Si1 0.588016 0.119778 0.464728
Si Si2 0.318417 0.180492 0.419190
Si Si3 0.685374 0.998316 0.382324
Si Si4 0.129950 0.998855 0.572764
Si Si5 0.206943 0.923714 0.161378
Si Si6 0.744258 0.608593 0.641549
Si Si7 0.774054 0.360097 0.788305
O O1 0.500000 0.112907 0.500000
O O2 0.658182 0.144322 0.514471
O O3 0.615788 0.037896 0.426961
O O4 0.589640 0.192448 0.413884
O O5 0.231825 0.231825 0.417992
O O6 0.388402 0.245397 0.397862
O O7 0.325100 0.100173 0.375167
O O8 0.774804 0.006008 0.413462
O O9 0.697834 0.056775 0.323661
O O10 0.075122 0.075122 0.597052
O O11 0.122322 0.000000 0.500000
O O12 0.085170 0.914831 0.595267
O O13 0.116032 0.883969 0.162191
O O14 0.255579 0.884536 0.219033
O O15 0.207501 0.021838 0.163120
O O16 0.673263 0.673263 0.621811
O O17 0.795549 0.652897 0.695957
O O18 0.690318 0.309683 0.810028
#
# Coordination Sequence:
#
# PCOD9560498 Si02
#       7
#    16  16  16  16  16  16  16
#     4  11  22  41  60  88 125 157 204 257 310 364
#     4  11  23  38  59  86 120 159 198 250 309 363
#     4  11  22  34  58  86 117 159 199 239 294 366
#     4   9  17  30  49  77 115 152 188 232 277 336
#     4  10  22  41  62  88 122 153 198 260 305 356
#     4  10  21  41  69  90 117 163 206 250 308 373
#     4   9  21  40  61  88 121 159 200 247 298 356
#
# _framework density 19.747745999999999
#
# number of rings (size 3 to 8) (size 9 to 14) (size 15 to 20)
#    0.000    1.857    1.429    3.000    2.000    4.286 
#    0.000    0.714    0.000    1.714    0.000    0.000 
#    0.000    0.000    0.000    0.000    0.000    0.000 
#
# Total GULP energy -312326.037877 kJ/mol
# GULP energy per Si atom -5577.250676 kJ/mol
# Density = 1.970280 g / cm^3
# Si number density = 19.747746 Si / 1000 Ang^3
#
#
#
# Elastic Constant Matrix: (Units=GPa)
#
#
# Indices 1 2 3 4 5 6 
#
# 1 326.5398 -176.9796 5.8235 0.0000 0.0000 0.0000
# 2 -176.9796 326.5788 5.8374 0.0000 0.0000 0.0000
# 3 5.8235 5.8374 29.3750 0.0000 0.0000 0.0000
# 4 0.0000 0.0000 0.0000 17.7148 0.0000 0.0000
# 5 0.0000 0.0000 0.0000 0.0000 17.7167 0.0000
# 6 0.0000 0.0000 0.0000 0.0000 0.0000 22.3781
#
#
#
# Elastic Compliance Matrix: (Units=1/GPa)
#
#
# Indices 1 2 3 4 5 6 
#
# 1 0.004388 0.002402 -0.001347 0.000000 0.000000 0.000000
# 2 0.002402 0.004388 -0.001348 0.000000 0.000000 0.000000
# 3 -0.001347 -0.001348 0.034578 0.000000 0.000000 0.000000
# 4 0.000000 0.000000 0.000000 0.056450 0.000000 0.000000
# 5 0.000000 0.000000 0.000000 0.000000 0.056444 0.000000
# 6 0.000000 0.000000 0.000000 0.000000 0.000000 0.044687
#
#
# Mechanical properties :
#
#
# Convention : Reuss Voigt Hill
#
# Bulk Modulus (GPa) = 23.38233 39.09513 31.23873
# Shear Modulus (GPa) = 23.17207 68.08273 45.62740
#
# Velocity S-wave (km/s) = 3.42921 5.87801 4.81199
# Velocity P-wave (km/s) = 5.24839 8.11839 6.83571
#
# Compressibility (1/GPa) = 0.04276735
#
# Stress axis : x y z
#
# Youngs Moduli (GPa) = 227.87185 227.89530 28.92050
#
# Poissons Ratio (x) = -0.54746 0.03897
# Poissons Ratio (y) = -0.54741 0.03899
# Poissons Ratio (z) = 0.30703 0.30725
#
# Static dielectric constant tensor:
#      x y z
#    x 1.713640 0.000000 0.000000 
#    y 0.000000 1.713640 0.000000 
#    z 0.000000 0.000000 1.683980 
# 
# From -- ./inp_files/7207.got.cif
#   From: 2010.05.17/outbox.cif.g08.bks.cpg/sg121_4_cif.got.tgz:7207.got - 2010.05.20 11:32:06.
