data_PCOD9560967
_publ_section_title
;
Structure prediction by ZEFSAII (Michael W. Deem and Ramdas Pophale) SiO2 
 PCOD9560967
Probable space group: I -4 2 D
;
_chemical_formula_sum "Si O2"
_cell_formula_units_Z 72
_cell_length_a 10.203836
_cell_length_b 10.203836
_cell_length_c 24.249600
_cell_angle_alpha 90.000000
_cell_angle_beta 90.000000
_cell_angle_gamma 90.000000
_cell_volume 2524.826379
_symmetry_space_group_name_H-M "I -4 2 D"
_symmetry_group_IT_number 122
_symmetry_cell_setting 'tetragonal'
loop_
_space_group_symop_operation_xyz
x,y,z
y,-x,-z
-x,-y,z
-y,x,-z
x,1/2-y,1/4-z
-x,1/2+y,1/4-z
-y,1/2-x,1/4+z
y,1/2+x,1/4+z
1/2+x,1/2+y,1/2+z
1/2+y,1/2-x,1/2-z
1/2-x,1/2-y,1/2+z
1/2-y,1/2+x,1/2-z
1/2+x,-y,3/4-z
1/2-x,y,3/4-z
1/2-y,-x,3/4+z
1/2+y,x,3/4+z
loop_
_atom_site_type_symbol
_atom_site_label
_atom_site_fract_x
_atom_site_fract_y
_atom_site_fract_z
Si Si1 0.099065 0.882785 0.834245
Si Si2 0.817133 0.906990 0.488758
Si Si3 0.250000 0.400268 0.875000
Si Si4 0.614203 0.346115 0.843211
Si Si5 0.020049 0.791917 0.012183
O O1 0.092268 0.808932 0.775392
O O2 0.038845 0.768153 0.874402
O O3 0.238451 0.957827 0.818976
O O4 0.000000 0.000000 0.841000
O O5 0.940966 0.853504 0.522665
O O6 0.797208 0.835904 0.430956
O O7 0.367049 0.498852 0.854351
O O8 0.750000 0.298824 0.875000
O O9 0.582936 0.315534 0.779635
O O10 0.131962 0.901260 0.018177
#
# Coordination Sequence:
#
# PCOD9560967 Si02
#       5
#    16  16   8  16  16
#     4  12  26  40  71 101 141 181 241 294 361 438
#     4  11  24  46  72 103 143 187 242 304 364 432
#     4  10  20  44  76  92 148 182 230 294 366 416
#     4  10  21  43  68  99 142 180 232 292 350 431
#     4  11  24  44  71  97 137 186 237 290 362 432
#
# _framework density 28.51681
#
# number of rings (size 3 to 8) (size 9 to 14) (size 15 to 20)
#    0.667    0.444    4.444    1.333    6.222    1.778 
#    4.000    0.000    2.444    0.000    0.000    0.000 
#    0.000    0.000    0.000    0.000    0.000    0.000 
#
# Total GULP energy -200831.148065 kJ/mol
# GULP energy per Si atom -5578.643002 kJ/mol
# Density = 2.845190 g / cm^3
# Si number density = 28.516810 Si / 1000 Ang^3
#
#
#
# Elastic Constant Matrix: (Units=GPa)
#
#
# Indices 1 2 3 4 5 6 
#
# 1 63.4383 -7.3881 -7.7392 0.0000 0.0000 0.0000
# 2 -7.3881 63.4383 -7.7392 0.0000 0.0000 0.0000
# 3 -7.7392 -7.7392 155.5470 0.0000 0.0000 0.0000
# 4 0.0000 0.0000 0.0000 -9.1522 0.0000 0.0000
# 5 0.0000 0.0000 0.0000 0.0000 -9.1522 0.0000
# 6 0.0000 0.0000 0.0000 0.0000 0.0000 50.7591
#
#
#
# Elastic Compliance Matrix: (Units=1/GPa)
#
#
# Indices 1 2 3 4 5 6 
#
# 1 0.016104 0.001985 0.000900 0.000000 0.000000 0.000000
# 2 0.001985 0.016104 0.000900 0.000000 0.000000 0.000000
# 3 0.000900 0.000900 0.006518 0.000000 0.000000 0.000000
# 4 0.000000 0.000000 0.000000 -0.109263 0.000000 0.000000
# 5 0.000000 0.000000 0.000000 0.000000 -0.109263 0.000000
# 6 0.000000 0.000000 0.000000 0.000000 0.000000 0.019701
#
#
# Mechanical properties :
#
#
# Convention : Reuss Voigt Hill
#
# Bulk Modulus (GPa) = 21.59919 26.29897 23.94908
# Shear Modulus (GPa) = -32.84377 26.84360 -3.00008
#
# Velocity S-wave (km/s) = -3.39740 3.07143 -1.02680
# Velocity P-wave (km/s) = 2.79270 4.67125 2.64777
#
# Compressibility (1/GPa) = 0.04629804
#
# Stress axis : x y z
#
# Youngs Moduli (GPa) = 62.09500 62.09500 153.40985
#
# Poissons Ratio (x) = -0.12328 -0.13808
# Poissons Ratio (y) = -0.12328 -0.13808
# Poissons Ratio (z) = -0.05589 -0.05589
#
# Static dielectric constant tensor:
#      x y z
#    x 2.608090 0.000000 0.000000 
#    y 0.000000 2.608090 0.000000 
#    z 0.000000 0.000000 2.174580 
# 
# From -- ./inp_files/8644.got.cif
#   From: 2010.05.17/outbox.cif.g08.bks.cpg/sg122_5_cif.got.tgz:8644.got - 2010.05.20 11:37:33.
