data_PCOD9560124
_publ_section_title
;
Structure prediction by ZEFSAII (Michael W. Deem and Ramdas Pophale) SiO2 
 PCOD9560124
Probable space group: I -4 2 M
;
_chemical_formula_sum "Si O2"
_cell_formula_units_Z 80
_cell_length_a 13.363941
_cell_length_b 13.363941
_cell_length_c 26.447285
_cell_angle_alpha 90.000000
_cell_angle_beta 90.000000
_cell_angle_gamma 90.000000
_cell_volume 4723.350724
_symmetry_space_group_name_H-M "I -4 2 M"
_symmetry_group_IT_number 121
_symmetry_cell_setting 'tetragonal'
loop_
_space_group_symop_operation_xyz
x,y,z
y,-x,-z
-x,-y,z
-y,x,-z
x,-y,-z
-x,y,-z
-y,-x,z
y,x,z
1/2+x,1/2+y,1/2+z
1/2+y,1/2-x,1/2-z
1/2-x,1/2-y,1/2+z
1/2-y,1/2+x,1/2-z
1/2+x,1/2-y,1/2-z
1/2-x,1/2+y,1/2-z
1/2-y,1/2-x,1/2+z
1/2+y,1/2+x,1/2+z
loop_
_atom_site_type_symbol
_atom_site_label
_atom_site_fract_x
_atom_site_fract_y
_atom_site_fract_z
Si Si1 0.104908 0.550167 0.447036
Si Si2 0.718415 0.554914 0.050228
Si Si3 0.285381 0.447841 0.159775
Si Si4 0.023791 0.332963 0.248102
Si Si5 0.276683 0.114127 0.144441
O O1 0.134366 0.500000 0.500000
O O2 0.080544 0.665852 0.457326
O O3 0.186909 0.548595 0.403010
O O4 0.000000 0.500000 0.429992
O O5 0.656307 0.656307 0.056205
O O6 0.705320 0.500985 0.104572
O O7 0.682156 0.500000 0.000000
O O8 0.386930 0.386930 0.171799
O O9 0.243686 0.514156 0.205315
O O10 0.198719 0.363598 0.151316
O O11 0.107185 0.418850 0.257746
O O12 0.052425 0.278160 0.196253
O O13 0.174501 0.174501 0.135994
#
# Coordination Sequence:
#
# PCOD9560124 Si02
#       5
#    16  16  16  16  16
#     4  10  18  29  51  78  98 129 171 215 256 297
#     4  10  19  32  49  73 108 142 170 207 257 316
#     4   8  16  30  47  68  99 132 163 205 255 300
#     4   9  17  26  47  75  97 127 167 208 244 294
#     4   9  18  30  46  71 105 133 159 206 263 303
#
# _framework density 16.937128000000001
#
# number of rings (size 3 to 8) (size 9 to 14) (size 15 to 20)
#    0.000    2.800    2.000    1.800    8.400    0.200 
#    0.000    1.000    0.000    9.000    0.000    0.000 
#    0.000    3.600    0.000    0.000    0.000    0.000 
#
# Total GULP energy -222708.982414 kJ/mol
# GULP energy per Si atom -5567.724560 kJ/mol
# Density = 1.689858 g / cm^3
# Si number density = 16.937128 Si / 1000 Ang^3
#
#
#
# Elastic Constant Matrix: (Units=GPa)
#
#
# Indices 1 2 3 4 5 6 
#
# 1 43.9602 28.6674 55.4999 0.0000 0.0000 0.0000
# 2 28.6674 43.9602 55.4999 0.0000 0.0000 0.0000
# 3 55.4999 55.4999 184.2715 0.0000 0.0000 0.0000
# 4 0.0000 0.0000 0.0000 5.4174 0.0000 0.0000
# 5 0.0000 0.0000 0.0000 0.0000 5.4174 0.0000
# 6 0.0000 0.0000 0.0000 0.0000 0.0000 13.7815
#
#
#
# Elastic Compliance Matrix: (Units=1/GPa)
#
#
# Indices 1 2 3 4 5 6 
#
# 1 0.045452 -0.019939 -0.007684 0.000000 0.000000 0.000000
# 2 -0.019939 0.045452 -0.007684 0.000000 0.000000 0.000000
# 3 -0.007684 -0.007684 0.010055 0.000000 0.000000 0.000000
# 4 0.000000 0.000000 0.000000 0.184592 0.000000 0.000000
# 5 0.000000 0.000000 0.000000 0.000000 0.184592 0.000000
# 6 0.000000 0.000000 0.000000 0.000000 0.000000 0.072561
#
#
# Mechanical properties :
#
#
# Convention : Reuss Voigt Hill
#
# Bulk Modulus (GPa) = 32.95468 61.28071 47.11770
# Shear Modulus (GPa) = 8.02012 13.75821 10.88916
#
# Velocity S-wave (km/s) = 2.17842 2.85320 2.53833
# Velocity P-wave (km/s) = 5.08199 6.86398 6.03907
#
# Compressibility (1/GPa) = 0.03034470
#
# Stress axis : x y z
#
# Youngs Moduli (GPa) = 22.00141 22.00141 99.44848
#
# Poissons Ratio (x) = 0.43868 0.76417
# Poissons Ratio (y) = 0.43868 0.76417
# Poissons Ratio (z) = 0.16906 0.16906
#
# Static dielectric constant tensor:
#      x y z
#    x 1.568550 0.000000 0.000000 
#    y 0.000000 1.568550 0.000000 
#    z 0.000000 0.000000 1.625910 
# 
# From -- ./inp_files/7009.got.cif
#   From: 2010.05.17/outbox.cif.g08.bks.cpg/sg121_4_cif.got.tgz:7009.got - 2010.05.20 11:32:06.
