data_PCOD9560300
_publ_section_title
;
Structure prediction by ZEFSAII (Michael W. Deem and Ramdas Pophale) SiO2 
 PCOD9560300
Probable space group: I -4 2 M
;
_chemical_formula_sum "Si O2"
_cell_formula_units_Z 112
_cell_length_a 14.367936
_cell_length_b 14.367936
_cell_length_c 29.644850
_cell_angle_alpha 90.000000
_cell_angle_beta 90.000000
_cell_angle_gamma 90.000000
_cell_volume 6119.811239
_symmetry_space_group_name_H-M "I -4 2 M"
_symmetry_group_IT_number 121
_symmetry_cell_setting 'tetragonal'
loop_
_space_group_symop_operation_xyz
x,y,z
y,-x,-z
-x,-y,z
-y,x,-z
x,-y,-z
-x,y,-z
-y,-x,z
y,x,z
1/2+x,1/2+y,1/2+z
1/2+y,1/2-x,1/2-z
1/2-x,1/2-y,1/2+z
1/2-y,1/2+x,1/2-z
1/2+x,1/2-y,1/2-z
1/2-x,1/2+y,1/2-z
1/2-y,1/2-x,1/2+z
1/2+y,1/2+x,1/2+z
loop_
_atom_site_type_symbol
_atom_site_label
_atom_site_fract_x
_atom_site_fract_y
_atom_site_fract_z
Si Si1 0.202802 0.056921 0.928266
Si Si2 0.854357 0.447483 0.752493
Si Si3 0.257379 0.417219 0.889549
Si Si4 0.306489 0.153802 0.479509
Si Si5 0.129438 0.720876 0.164222
Si Si6 0.888445 0.731118 0.652314
Si Si7 0.860323 0.297100 0.928522
O O1 0.099855 0.099855 0.937454
O O2 0.273546 0.121528 0.956631
O O3 0.226579 0.077125 0.876072
O O4 0.233380 0.951291 0.935869
O O5 0.886099 0.553616 0.755529
O O6 0.796019 0.433655 0.707160
O O7 0.806128 0.414748 0.798389
O O8 0.345512 0.345512 0.888363
O O9 0.218121 0.419697 0.940749
O O10 0.176776 0.369638 0.858770
O O11 0.274677 0.519356 0.870556
O O12 0.210942 0.210942 0.486156
O O13 0.347625 0.134146 0.528706
O O14 0.215227 0.784774 0.179141
O O15 0.807855 0.807855 0.655830
O O16 0.852218 0.649118 0.618585
O O17 0.774063 0.225938 0.928963
#
# Coordination Sequence:
#
# PCOD9560300 Si02
#       7
#    16  16  16  16  16  16  16
#     4   9  17  31  54  78 102 141 190 227 267 330
#     4  11  21  34  54  79 107 140 179 226 278 331
#     4   9  18  36  59  79 102 140 188 230 271 330
#     4   8  16  32  54  77 105 143 182 220 273 332
#     4   9  17  33  54  74 100 137 179 224 273 333
#     4  11  23  37  54  81 114 146 183 230 286 337
#     4  10  20  33  49  76 116 149 178 227 282 331
#
# _framework density 18.301217000000001
#
# number of rings (size 3 to 8) (size 9 to 14) (size 15 to 20)
#    0.000    2.429    1.429    3.429    0.000    1.143 
#    0.000    0.000    0.000    6.000    0.000    6.000 
#    0.000    0.000    0.000    0.000    0.000    0.000 
#
# Total GULP energy -311894.740657 kJ/mol
# GULP energy per Si atom -5569.548940 kJ/mol
# Density = 1.825956 g / cm^3
# Si number density = 18.301217 Si / 1000 Ang^3
#
#
#
# Elastic Constant Matrix: (Units=GPa)
#
#
# Indices 1 2 3 4 5 6 
#
# 1 60.0615 2.9722 29.8848 0.0000 0.0000 0.0000
# 2 2.9722 60.0584 29.8855 0.0000 0.0000 0.0000
# 3 29.8848 29.8855 116.0392 0.0000 0.0000 0.0000
# 4 0.0000 0.0000 0.0000 21.0605 0.0000 0.0000
# 5 0.0000 0.0000 0.0000 0.0000 21.0602 0.0000
# 6 0.0000 0.0000 0.0000 0.0000 0.0000 26.5568
#
#
#
# Elastic Compliance Matrix: (Units=1/GPa)
#
#
# Indices 1 2 3 4 5 6 
#
# 1 0.019253 0.001737 -0.005406 0.000000 0.000000 0.000000
# 2 0.001737 0.019255 -0.005406 0.000000 0.000000 0.000000
# 3 -0.005406 -0.005406 0.011402 0.000000 0.000000 0.000000
# 4 0.000000 0.000000 0.000000 0.047482 0.000000 0.000000
# 5 0.000000 0.000000 0.000000 0.000000 0.047483 0.000000
# 6 0.000000 0.000000 0.000000 0.000000 0.000000 0.037655
#
#
# Mechanical properties :
#
#
# Convention : Reuss Voigt Hill
#
# Bulk Modulus (GPa) = 31.48576 40.18267 35.83421
# Shear Modulus (GPa) = 23.66662 25.29661 24.48161
#
# Velocity S-wave (km/s) = 3.59997 3.72188 3.66143
# Velocity P-wave (km/s) = 5.87548 6.36190 6.12352
#
# Compressibility (1/GPa) = 0.03176039
#
# Stress axis : x y z
#
# Youngs Moduli (GPa) = 51.93865 51.93520 87.70050
#
# Poissons Ratio (x) = -0.09022 0.47411
# Poissons Ratio (y) = -0.09023 0.47415
# Poissons Ratio (z) = 0.28078 0.28078
#
# Static dielectric constant tensor:
#      x y z
#    x 1.636620 0.000000 0.000000 
#    y 0.000000 1.636620 0.000000 
#    z 0.000000 0.000000 1.630890 
# 
# From -- ./inp_files/7727.got.cif
#   From: 2010.05.17/outbox.cif.g08.bks.cpg/sg121_4_cif.got.tgz:7727.got - 2010.05.20 11:32:06.
