data_PCOD9560104
_publ_section_title
;
Structure prediction by ZEFSAII (Michael W. Deem and Ramdas Pophale) SiO2 
 PCOD9560104
Probable space group: I -4 2 M
;
_chemical_formula_sum "Si O2"
_cell_formula_units_Z 128
_cell_length_a 24.373458
_cell_length_b 24.373458
_cell_length_c 12.297128
_cell_angle_alpha 90.000000
_cell_angle_beta 90.000000
_cell_angle_gamma 90.000000
_cell_volume 7305.298939
_symmetry_space_group_name_H-M "I -4 2 M"
_symmetry_group_IT_number 121
_symmetry_cell_setting 'tetragonal'
loop_
_space_group_symop_operation_xyz
x,y,z
y,-x,-z
-x,-y,z
-y,x,-z
x,-y,-z
-x,y,-z
-y,-x,z
y,x,z
1/2+x,1/2+y,1/2+z
1/2+y,1/2-x,1/2-z
1/2-x,1/2-y,1/2+z
1/2-y,1/2+x,1/2-z
1/2+x,1/2-y,1/2-z
1/2-x,1/2+y,1/2-z
1/2-y,1/2-x,1/2+z
1/2+y,1/2+x,1/2+z
loop_
_atom_site_type_symbol
_atom_site_label
_atom_site_fract_x
_atom_site_fract_y
_atom_site_fract_z
Si Si1 0.936888 0.851726 0.967809
Si Si2 0.476915 0.183667 0.323708
Si Si3 0.357952 0.268756 0.593836
Si Si4 0.050198 0.352470 0.583521
Si Si5 0.160645 0.586870 0.458458
Si Si6 0.591165 0.680301 0.803145
Si Si7 0.565065 0.270568 0.972848
Si Si8 0.963988 0.190632 0.252468
O O1 0.907666 0.907666 0.004173
O O2 0.936598 0.845994 0.838583
O O3 0.900999 0.803080 0.019797
O O4 0.000000 0.846980 0.000000
O O5 0.470247 0.152361 0.208566
O O6 0.434219 0.165721 0.417285
O O7 0.536335 0.176451 0.379064
O O8 0.468219 0.247559 0.295189
O O9 0.299221 0.299221 0.581613
O O10 0.365423 0.205462 0.563128
O O11 0.379839 0.280183 0.715573
O O12 0.099126 0.395086 0.568147
O O13 0.075557 0.292932 0.552589
O O14 0.000000 0.362554 0.500000
O O15 0.623200 0.623200 0.797087
O O16 0.527015 0.673751 0.774926
O O17 0.595252 0.706165 0.922692
O O18 0.569864 0.305692 0.863636
O O19 0.500000 0.271980 0.000000
#
# Coordination Sequence:
#
# PCOD9560104 Si02
#       8
#    16  16  16  16  16  16  16  16
#     4  11  20  31  49  75 109 144 181 235 285 336
#     4  10  21  37  59  89 106 151 201 227 285 348
#     4  10  20  33  56  88 113 144 190 240 289 343
#     4  10  23  38  60  85 114 147 190 239 285 342
#     4  11  21  37  65  83 115 156 188 237 288 345
#     4  10  18  30  54  80 108 142 184 239 281 326
#     4   8  18  34  52  77 102 139 181 228 270 329
#     4  10  17  34  54  76 110 138 194 238 273 334
#
# _framework density 17.521528
#
# number of rings (size 3 to 8) (size 9 to 14) (size 15 to 20)
#    0.000    2.000    3.750    0.750    1.750    0.625 
#    0.000    1.875    0.000    1.500    0.000    0.000 
#    0.000    0.000    0.000    0.000    0.000    0.000 
#
# Total GULP energy -356838.054830 kJ/mol
# GULP energy per Si atom -5575.594607 kJ/mol
# Density = 1.748165 g / cm^3
# Si number density = 17.521528 Si / 1000 Ang^3
#
#
#
# Elastic Constant Matrix: (Units=GPa)
#
#
# Indices 1 2 3 4 5 6 
#
# 1 56.8950 21.5604 28.8708 0.0000 0.0000 0.0000
# 2 21.5604 56.8950 28.8708 0.0000 0.0000 0.0000
# 3 28.8708 28.8708 134.4712 0.0000 0.0000 0.0000
# 4 0.0000 0.0000 0.0000 14.2653 0.0000 0.0000
# 5 0.0000 0.0000 0.0000 0.0000 14.2653 0.0000
# 6 0.0000 0.0000 0.0000 0.0000 0.0000 23.4957
#
#
#
# Elastic Compliance Matrix: (Units=1/GPa)
#
#
# Indices 1 2 3 4 5 6 
#
# 1 0.021719 -0.006581 -0.003250 0.000000 0.000000 0.000000
# 2 -0.006581 0.021719 -0.003250 0.000000 0.000000 0.000000
# 3 -0.003250 -0.003250 0.008832 0.000000 0.000000 0.000000
# 4 0.000000 0.000000 0.000000 0.070100 0.000000 0.000000
# 5 0.000000 0.000000 0.000000 0.000000 0.070100 0.000000
# 6 0.000000 0.000000 0.000000 0.000000 0.000000 0.042561
#
#
# Mechanical properties :
#
#
# Convention : Reuss Voigt Hill
#
# Bulk Modulus (GPa) = 38.30270 45.20728 41.75499
# Shear Modulus (GPa) = 18.52547 21.66919 20.09733
#
# Velocity S-wave (km/s) = 3.25514 3.52052 3.39042
# Velocity P-wave (km/s) = 6.00298 6.51017 6.26171
#
# Compressibility (1/GPa) = 0.02610782
#
# Stress axis : x y z
#
# Youngs Moduli (GPa) = 46.04158 46.04158 113.22290
#
# Poissons Ratio (x) = 0.30302 0.36799
# Poissons Ratio (y) = 0.30302 0.36799
# Poissons Ratio (z) = 0.14964 0.14964
#
# Static dielectric constant tensor:
#      x y z
#    x 1.588960 0.000000 0.000000 
#    y 0.000000 1.588960 0.000000 
#    z 0.000000 0.000000 1.627320 
# 
# From -- ./inp_files/3563.got.cif
#   From: 2010.05.17/outbox.cif.g08.bks.cpg/sg121_2_cif.got.tgz:3563.got - 2010.05.20 11:32:06.
