data_PCOD9560037
_publ_section_title
;
Structure prediction by ZEFSAII (Michael W. Deem and Ramdas Pophale) SiO2 
 PCOD9560037
Probable space group: I -4 C 2
;
_chemical_formula_sum "Si O2"
_cell_formula_units_Z 80
_cell_length_a 10.969421
_cell_length_b 10.969421
_cell_length_c 27.957030
_cell_angle_alpha 90.000000
_cell_angle_beta 90.000000
_cell_angle_gamma 90.000000
_cell_volume 3364.019015
_symmetry_space_group_name_H-M "I -4 C 2"
_symmetry_group_IT_number 120
_symmetry_cell_setting 'tetragonal'
loop_
_space_group_symop_operation_xyz
x,y,z
y,-x,-z
-x,-y,z
-y,x,-z
y,x,1/2-z
-y,-x,1/2-z
-x,y,1/2+z
x,-y,1/2+z
1/2+x,1/2+y,1/2+z
1/2+y,1/2-x,1/2-z
1/2-x,1/2-y,1/2+z
1/2-y,1/2+x,1/2-z
1/2+y,1/2+x,-z
1/2-y,1/2-x,-z
1/2-x,1/2+y,z
1/2+x,1/2-y,z
loop_
_atom_site_type_symbol
_atom_site_label
_atom_site_fract_x
_atom_site_fract_y
_atom_site_fract_z
Si Si1 0.034891 0.216801 0.118055
Si Si2 0.136679 0.546122 0.647307
Si Si3 0.408648 0.738513 0.531440
Si Si4 0.910818 0.117758 0.303444
Si Si5 0.312112 0.500261 0.569394
O O1 0.127056 0.307223 0.144462
O O2 0.098861 0.094984 0.096162
O O3 0.999620 0.294529 0.070216
O O4 0.930897 0.185483 0.157085
O O5 0.256248 0.524874 0.680300
O O6 0.184363 0.491483 0.596709
O O7 0.000000 0.500000 0.659636
O O8 0.316561 0.816561 0.500000
O O9 0.348207 0.641928 0.567530
O O10 0.480238 0.683093 0.487148
O O11 0.862542 0.137459 0.250000
O O12 0.000000 0.000000 0.301844
#
# Coordination Sequence:
#
# PCOD9560037 Si02
#       5
#    16  16  16  16  16
#     4  12  25  47  76 108 160 211 261 322 415 475
#     4  12  28  48  79 116 158 200 270 346 400 483
#     4  12  24  39  70 107 149 204 264 310 388 470
#     4  11  25  52  85 112 152 209 269 331 416 495
#     4  12  24  43  69 110 149 213 259 319 387 485
#
# _framework density 23.781078000000001
#
# number of rings (size 3 to 8) (size 9 to 14) (size 15 to 20)
#    0.000    0.200    6.000    3.000    2.800    0.000 
#    7.200    2.000    0.000    0.000    0.000    0.000 
#    0.000    0.000    0.000    0.000    0.000    0.000 
#
# Total GULP energy -222826.151081 kJ/mol
# GULP energy per Si atom -5570.653777 kJ/mol
# Density = 2.372695 g / cm^3
# Si number density = 23.781078 Si / 1000 Ang^3
#
#
#
# Elastic Constant Matrix: (Units=GPa)
#
#
# Indices 1 2 3 4 5 6 
#
# 1 99.5203 26.7900 35.7115 0.0000 0.0000 0.0000
# 2 26.7900 99.5201 35.7114 0.0000 0.0000 0.0000
# 3 35.7115 35.7114 170.2440 0.0000 0.0000 0.0000
# 4 0.0000 0.0000 0.0000 17.9526 0.0000 0.0000
# 5 0.0000 0.0000 0.0000 0.0000 17.9526 0.0000
# 6 0.0000 0.0000 0.0000 0.0000 0.0000 35.6205
#
#
#
# Elastic Compliance Matrix: (Units=1/GPa)
#
#
# Indices 1 2 3 4 5 6 
#
# 1 0.011366 -0.002383 -0.001884 0.000000 0.000000 0.000000
# 2 -0.002383 0.011366 -0.001884 0.000000 0.000000 0.000000
# 3 -0.001884 -0.001884 0.006664 0.000000 0.000000 0.000000
# 4 0.000000 0.000000 0.000000 0.055702 0.000000 0.000000
# 5 0.000000 0.000000 0.000000 0.000000 0.055702 0.000000
# 6 0.000000 0.000000 0.000000 0.000000 0.000000 0.028074
#
#
# Mechanical properties :
#
#
# Convention : Reuss Voigt Hill
#
# Bulk Modulus (GPa) = 58.50533 62.85670 60.68101
# Shear Modulus (GPa) = 26.75574 32.37658 29.56616
#
# Velocity S-wave (km/s) = 3.35787 3.69378 3.52982
# Velocity P-wave (km/s) = 6.29990 6.68437 6.49498
#
# Compressibility (1/GPa) = 0.01709246
#
# Stress axis : x y z
#
# Youngs Moduli (GPa) = 87.98213 87.98197 150.05076
#
# Poissons Ratio (x) = 0.20970 0.28273
# Poissons Ratio (y) = 0.20971 0.28273
# Poissons Ratio (z) = 0.16578 0.16578
#
# Static dielectric constant tensor:
#      x y z
#    x 2.426650 0.000000 0.000000 
#    y 0.000000 2.426650 0.000000 
#    z 0.000000 0.000000 1.748130 
# 
# From -- ./inp_files/6502.got.cif
#   From: 2010.05.17/outbox.cif.g08.bks.cpg/sg120_4_cif.got.tgz:6502.got - 2010.05.20 11:28:13.
