data_PCOD9560232
_publ_section_title
;
Structure prediction by ZEFSAII (Michael W. Deem and Ramdas Pophale) SiO2 
 PCOD9560232
Probable space group: I -4 2 M
;
_chemical_formula_sum "Si O2"
_cell_formula_units_Z 96
_cell_length_a 18.352005
_cell_length_b 18.352005
_cell_length_c 15.783828
_cell_angle_alpha 90.000000
_cell_angle_beta 90.000000
_cell_angle_gamma 90.000000
_cell_volume 5315.931516
_symmetry_space_group_name_H-M "I -4 2 M"
_symmetry_group_IT_number 121
_symmetry_cell_setting 'tetragonal'
loop_
_space_group_symop_operation_xyz
x,y,z
y,-x,-z
-x,-y,z
-y,x,-z
x,-y,-z
-x,y,-z
-y,-x,z
y,x,z
1/2+x,1/2+y,1/2+z
1/2+y,1/2-x,1/2-z
1/2-x,1/2-y,1/2+z
1/2-y,1/2+x,1/2-z
1/2+x,1/2-y,1/2-z
1/2-x,1/2+y,1/2-z
1/2-y,1/2-x,1/2+z
1/2+y,1/2+x,1/2+z
loop_
_atom_site_type_symbol
_atom_site_label
_atom_site_fract_x
_atom_site_fract_y
_atom_site_fract_z
Si Si1 0.918399 0.635869 0.843666
Si Si2 0.266650 0.844072 0.400173
Si Si3 0.301765 0.574011 0.233678
Si Si4 0.912587 0.204678 0.228988
Si Si5 0.718220 0.928007 0.442538
Si Si6 0.417978 0.146841 0.672434
O O1 0.906090 0.722232 0.827210
O O2 0.858740 0.600938 0.905305
O O3 0.905929 0.598796 0.751626
O O4 0.003360 0.629851 0.865595
O O5 0.237787 0.762214 0.387535
O O6 0.230237 0.889665 0.323933
O O7 0.246513 0.871228 0.492546
O O8 0.352221 0.857242 0.392475
O O9 0.362469 0.637532 0.239068
O O10 0.325908 0.494342 0.266062
O O11 0.271202 0.564098 0.138127
O O12 0.228284 0.588154 0.288155
O O13 0.855509 0.144492 0.200420
O O14 0.708748 0.000000 0.500000
#
# Coordination Sequence:
#
# PCOD9560232 Si02
#       6
#    16  16  16  16  16  16
#     4   9  20  34  53  73 105 135 177 222 264 315
#     4  10  19  33  53  72 101 137 173 216 262 317
#     4  10  19  34  56  78 106 140 179 227 274 324
#     4   9  18  34  54  76 102 136 178 224 266 315
#     4  11  21  35  51  77 111 142 179 219 270 332
#     4   9  19  35  52  76  99 136 181 223 262 313
#
# _framework density 18.058924000000001
#
# number of rings (size 3 to 8) (size 9 to 14) (size 15 to 20)
#    0.000    2.333    1.667    1.000    2.333    6.000 
#    0.000    0.833    0.000    0.000    0.000    0.000 
#    0.000    0.000    0.000    8.667    0.000    0.000 
#
# Total GULP energy -267444.639676 kJ/mol
# GULP energy per Si atom -5571.763327 kJ/mol
# Density = 1.801782 g / cm^3
# Si number density = 18.058924 Si / 1000 Ang^3
#
#
#
# Elastic Constant Matrix: (Units=GPa)
#
#
# Indices 1 2 3 4 5 6 
#
# 1 88.6216 51.0073 0.1465 0.0000 0.0000 0.0000
# 2 51.0073 88.6184 0.1453 0.0000 0.0000 0.0000
# 3 0.1465 0.1453 28.9058 0.0000 0.0000 0.0000
# 4 0.0000 0.0000 0.0000 13.1320 0.0000 0.0000
# 5 0.0000 0.0000 0.0000 0.0000 13.1323 0.0000
# 6 0.0000 0.0000 0.0000 0.0000 0.0000 19.0265
#
#
#
# Elastic Compliance Matrix: (Units=1/GPa)
#
#
# Indices 1 2 3 4 5 6 
#
# 1 0.016874 -0.009712 -0.000037 0.000000 0.000000 0.000000
# 2 -0.009712 0.016875 -0.000036 0.000000 0.000000 0.000000
# 3 -0.000037 -0.000036 0.034596 0.000000 0.000000 0.000000
# 4 0.000000 0.000000 0.000000 0.076150 0.000000 0.000000
# 5 0.000000 0.000000 0.000000 0.000000 0.076148 0.000000
# 6 0.000000 0.000000 0.000000 0.000000 0.000000 0.052558
#
#
# Mechanical properties :
#
#
# Convention : Reuss Voigt Hill
#
# Bulk Modulus (GPa) = 20.50234 34.30489 27.40361
# Shear Modulus (GPa) = 16.17976 19.38127 17.78052
#
# Velocity S-wave (km/s) = 2.99648 3.27956 3.14121
# Velocity P-wave (km/s) = 4.83213 5.77737 5.32577
#
# Compressibility (1/GPa) = 0.04877493
#
# Stress axis : x y z
#
# Youngs Moduli (GPa) = 59.26245 59.26031 28.90546
#
# Poissons Ratio (x) = 0.57556 0.00106
# Poissons Ratio (y) = 0.57558 0.00103
# Poissons Ratio (z) = 0.00218 0.00211
#
# Static dielectric constant tensor:
#      x y z
#    x 1.634480 0.000000 0.000000 
#    y 0.000000 1.634480 0.000000 
#    z 0.000000 0.000000 1.613760 
# 
# From -- ./inp_files/5411.got.cif
#   From: 2010.05.17/outbox.cif.g08.bks.cpg/sg121_3_cif.got.tgz:5411.got - 2010.05.20 11:32:06.
