data_PCOD9560721
_publ_section_title
;
Structure prediction by ZEFSAII (Michael W. Deem and Ramdas Pophale) SiO2 
 PCOD9560721
Probable space group: I -4 2 D
;
_chemical_formula_sum "Si O2"
_cell_formula_units_Z 96
_cell_length_a 23.834356
_cell_length_b 23.834356
_cell_length_c 10.447074
_cell_angle_alpha 90.000000
_cell_angle_beta 90.000000
_cell_angle_gamma 90.000000
_cell_volume 5934.737504
_symmetry_space_group_name_H-M "I -4 2 D"
_symmetry_group_IT_number 122
_symmetry_cell_setting 'tetragonal'
loop_
_space_group_symop_operation_xyz
x,y,z
y,-x,-z
-x,-y,z
-y,x,-z
x,1/2-y,1/4-z
-x,1/2+y,1/4-z
-y,1/2-x,1/4+z
y,1/2+x,1/4+z
1/2+x,1/2+y,1/2+z
1/2+y,1/2-x,1/2-z
1/2-x,1/2-y,1/2+z
1/2-y,1/2+x,1/2-z
1/2+x,-y,3/4-z
1/2-x,y,3/4-z
1/2-y,-x,3/4+z
1/2+y,x,3/4+z
loop_
_atom_site_type_symbol
_atom_site_label
_atom_site_fract_x
_atom_site_fract_y
_atom_site_fract_z
Si Si1 0.919016 0.682129 0.621113
Si Si2 0.685076 0.015915 0.634798
Si Si3 0.978444 0.820855 0.363304
Si Si4 0.182536 0.594123 0.370799
Si Si5 0.688364 0.893113 0.720153
Si Si6 0.896572 0.321635 0.972453
O O1 0.910437 0.750000 0.625000
O O2 0.959034 0.668392 0.501001
O O3 0.950676 0.664414 0.751092
O O4 0.861020 0.649894 0.592911
O O5 0.752953 0.017653 0.639123
O O6 0.665795 0.055346 0.750593
O O7 0.668709 0.952218 0.661288
O O8 0.936544 0.837254 0.249312
O O9 0.041920 0.839141 0.330538
O O10 0.250000 0.597456 0.375000
O O11 0.156155 0.654422 0.347010
O O12 0.755143 0.888002 0.698108
O O13 0.675287 0.894477 0.872418
#
# Coordination Sequence:
#
# PCOD9560721 Si02
#       6
#    16  16  16  16  16  16
#     4  10  20  34  55  79 108 140 171 214 271 322
#     4   9  17  33  53  76 101 137 183 213 247 311
#     4   9  19  33  52  76 104 139 178 213 255 313
#     4  10  18  32  54  79 105 137 173 216 264 312
#     4  10  19  32  57  82 104 135 180 223 257 308
#     4  10  19  34  55  80 106 139 176 219 265 308
#
# _framework density 16.175948000000002
#
# number of rings (size 3 to 8) (size 9 to 14) (size 15 to 20)
#    0.000    2.333    3.333    0.000    0.000    2.000 
#    0.000    2.500    0.000    6.000    0.000    0.000 
#    0.000    0.000    0.000    0.000    0.000    0.000 
#
# Total GULP energy -267366.082471 kJ/mol
# GULP energy per Si atom -5570.126718 kJ/mol
# Density = 1.613913 g / cm^3
# Si number density = 16.175948 Si / 1000 Ang^3
#
#
#
# Elastic Constant Matrix: (Units=GPa)
#
#
# Indices 1 2 3 4 5 6 
#
# 1 70.6069 42.0072 48.4734 0.0000 0.0000 0.0000
# 2 42.0072 70.6069 48.4734 0.0000 0.0000 0.0000
# 3 48.4734 48.4734 137.6531 0.0000 0.0000 0.0000
# 4 0.0000 0.0000 0.0000 20.8456 0.0000 0.0000
# 5 0.0000 0.0000 0.0000 0.0000 20.8456 0.0000
# 6 0.0000 0.0000 0.0000 0.0000 0.0000 -4.4443
#
#
#
# Elastic Compliance Matrix: (Units=1/GPa)
#
#
# Indices 1 2 3 4 5 6 
#
# 1 0.023854 -0.011111 -0.004487 0.000000 0.000000 0.000000
# 2 -0.011111 0.023854 -0.004487 0.000000 0.000000 0.000000
# 3 -0.004487 -0.004487 0.010425 0.000000 0.000000 0.000000
# 4 0.000000 0.000000 0.000000 0.047972 0.000000 0.000000
# 5 0.000000 0.000000 0.000000 0.000000 0.047972 0.000000
# 6 0.000000 0.000000 0.000000 0.000000 0.000000 -0.225009
#
#
# Mechanical properties :
#
#
# Convention : Reuss Voigt Hill
#
# Bulk Modulus (GPa) = 55.67450 61.86386 58.76918
# Shear Modulus (GPa) = -201.82509 16.77693 -92.52408
#
# Velocity S-wave (km/s) = -11.18211 3.22398 -7.57118
# Velocity P-wave (km/s) = 11.49898 7.22399 6.32615
#
# Compressibility (1/GPa) = 0.01796154
#
# Stress axis : x y z
#
# Youngs Moduli (GPa) = 41.92144 41.92144 95.92352
#
# Poissons Ratio (x) = 0.46580 0.43044
# Poissons Ratio (y) = 0.46580 0.43044
# Poissons Ratio (z) = 0.18811 0.18811
#
# Static dielectric constant tensor:
#      x y z
#    x 1.532140 0.000000 0.000000 
#    y 0.000000 1.532140 0.000000 
#    z 0.000000 0.000000 1.545320 
# 
# From -- ./inp_files/2883.got.cif
#   From: 2010.05.17/outbox.cif.g08.bks.cpg/sg122_2_cif.got.tgz:2883.got - 2010.05.20 11:37:33.
