data_PCOD9560798
_publ_section_title
;
Structure prediction by ZEFSAII (Michael W. Deem and Ramdas Pophale) SiO2 
 PCOD9560798
Probable space group: I -4 2 D
;
_chemical_formula_sum "Si O2"
_cell_formula_units_Z 52
_cell_length_a 12.077760
_cell_length_b 12.077760
_cell_length_c 14.539806
_cell_angle_alpha 90.000000
_cell_angle_beta 90.000000
_cell_angle_gamma 90.000000
_cell_volume 2120.954748
_symmetry_space_group_name_H-M "I -4 2 D"
_symmetry_group_IT_number 122
_symmetry_cell_setting 'tetragonal'
loop_
_space_group_symop_operation_xyz
x,y,z
y,-x,-z
-x,-y,z
-y,x,-z
x,1/2-y,1/4-z
-x,1/2+y,1/4-z
-y,1/2-x,1/4+z
y,1/2+x,1/4+z
1/2+x,1/2+y,1/2+z
1/2+y,1/2-x,1/2-z
1/2-x,1/2-y,1/2+z
1/2-y,1/2+x,1/2-z
1/2+x,-y,3/4-z
1/2-x,y,3/4-z
1/2-y,-x,3/4+z
1/2+y,x,3/4+z
loop_
_atom_site_type_symbol
_atom_site_label
_atom_site_fract_x
_atom_site_fract_y
_atom_site_fract_z
Si Si1 0.500000 0.500000 0.000000
Si Si2 0.406196 0.869691 0.093316
Si Si3 0.631744 0.895321 0.781707
Si Si4 0.630705 0.598869 0.253554
O O1 0.411731 0.559781 0.063698
O O2 0.359779 0.750000 0.125000
O O3 0.531970 0.852123 0.056826
O O4 0.366495 0.965270 0.020397
O O5 0.527958 0.862285 0.722214
O O6 0.610491 0.873174 0.889040
O O7 0.746383 0.854409 0.739505
#
# Coordination Sequence:
#
# PCOD9560798 Si02
#       4
#     4  16  16  16
#     4   8  20  36  52  80 110 148 188 216 280 332
#     4  10  20  38  58  79 118 150 184 237 276 336
#     4  10  19  37  61  80 115 149 182 240 284 330
#     4   9  21  37  55  89 109 145 197 223 285 342
#
# _framework density 24.517261999999999
#
# number of rings (size 3 to 8) (size 9 to 14) (size 15 to 20)
#    0.000    2.769    0.000    3.692    0.000    9.846 
#   16.615    0.000    0.000    0.000    0.000    0.000 
#    0.000    0.000    0.000    0.000    0.000    0.000 
#
# Total GULP energy -144909.164858 kJ/mol
# GULP energy per Si atom -5573.429418 kJ/mol
# Density = 2.446146 g / cm^3
# Si number density = 24.517262 Si / 1000 Ang^3
#
#
#
# Elastic Constant Matrix: (Units=GPa)
#
#
# Indices 1 2 3 4 5 6 
#
# 1 96.3295 -11.2894 11.3297 0.0000 0.0000 0.0000
# 2 -11.2894 96.3295 11.3298 0.0000 0.0000 0.0000
# 3 11.3297 11.3298 63.0379 0.0000 0.0000 0.0000
# 4 0.0000 0.0000 0.0000 25.2665 0.0000 0.0000
# 5 0.0000 0.0000 0.0000 0.0000 25.2664 0.0000
# 6 0.0000 0.0000 0.0000 0.0000 0.0000 -1.3571
#
#
#
# Elastic Compliance Matrix: (Units=1/GPa)
#
#
# Indices 1 2 3 4 5 6 
#
# 1 0.010821 0.001529 -0.002220 0.000000 0.000000 0.000000
# 2 0.001529 0.010821 -0.002220 0.000000 0.000000 0.000000
# 3 -0.002220 -0.002220 0.016661 0.000000 0.000000 0.000000
# 4 0.000000 0.000000 0.000000 0.039578 0.000000 0.000000
# 5 0.000000 0.000000 0.000000 0.000000 0.039578 0.000000
# 6 0.000000 0.000000 0.000000 0.000000 0.000000 -0.736857
#
#
# Mechanical properties :
#
#
# Convention : Reuss Voigt Hill
#
# Bulk Modulus (GPa) = 30.78480 30.93746 30.86113
# Shear Modulus (GPa) = -8.29533 26.12361 8.91414
#
# Velocity S-wave (km/s) = -1.84142 3.26777 1.90886
# Velocity P-wave (km/s) = 2.83946 5.18496 4.18009
#
# Compressibility (1/GPa) = 0.03248357
#
# Stress axis : x y z
#
# Youngs Moduli (GPa) = 92.41001 92.41002 60.01906
#
# Poissons Ratio (x) = -0.14132 0.13323
# Poissons Ratio (y) = -0.14132 0.13323
# Poissons Ratio (z) = 0.20513 0.20513
#
# Static dielectric constant tensor:
#      x y z
#    x 2.023410 0.000000 0.000000 
#    y 0.000000 2.023410 0.000000 
#    z 0.000000 0.000000 1.847550 
# 
# From -- ./inp_files/5077.got.cif
#   From: 2010.05.17/outbox.cif.g08.bks.cpg/sg122_3_cif.got.tgz:5077.got - 2010.05.20 11:37:33.
