data_PCOD9560888
_publ_section_title
;
Structure prediction by ZEFSAII (Michael W. Deem and Ramdas Pophale) SiO2 
 PCOD9560888
Probable space group: I -4 2 D
;
_chemical_formula_sum "Si O2"
_cell_formula_units_Z 64
_cell_length_a 14.139795
_cell_length_b 14.139795
_cell_length_c 12.291490
_cell_angle_alpha 90.000000
_cell_angle_beta 90.000000
_cell_angle_gamma 90.000000
_cell_volume 2457.484336
_symmetry_space_group_name_H-M "I -4 2 D"
_symmetry_group_IT_number 122
_symmetry_cell_setting 'tetragonal'
loop_
_space_group_symop_operation_xyz
x,y,z
y,-x,-z
-x,-y,z
-y,x,-z
x,1/2-y,1/4-z
-x,1/2+y,1/4-z
-y,1/2-x,1/4+z
y,1/2+x,1/4+z
1/2+x,1/2+y,1/2+z
1/2+y,1/2-x,1/2-z
1/2-x,1/2-y,1/2+z
1/2-y,1/2+x,1/2-z
1/2+x,-y,3/4-z
1/2-x,y,3/4-z
1/2-y,-x,3/4+z
1/2+y,x,3/4+z
loop_
_atom_site_type_symbol
_atom_site_label
_atom_site_fract_x
_atom_site_fract_y
_atom_site_fract_z
Si Si1 0.346931 0.303850 0.891406
Si Si2 0.607212 0.497175 0.253638
Si Si3 0.214248 0.448318 0.677707
Si Si4 0.444468 0.853045 0.730795
O O1 0.250000 0.244525 0.875000
O O2 0.396028 0.347161 0.781712
O O3 0.440705 0.261213 0.948924
O O4 0.305861 0.385696 0.969072
O O5 0.500000 0.500000 0.289166
O O6 0.615139 0.549279 0.138481
O O7 0.661611 0.547044 0.350902
O O8 0.284332 0.416460 0.580365
O O9 0.380051 0.945935 0.744241
#
# Coordination Sequence:
#
# PCOD9560888 Si02
#       4
#    16  16  16  16
#     4  10  22  39  67  94 133 174 219 288 344 417
#     4  10  20  37  65  92 132 172 228 276 341 425
#     4  10  23  39  66  97 136 177 230 283 353 417
#     4  11  21  39  66  99 133 182 233 284 348 429
#
# _framework density 26.042894
#
# number of rings (size 3 to 8) (size 9 to 14) (size 15 to 20)
#    1.500    0.250    2.500    3.750    0.000    0.000 
#    0.000    2.500    5.500    0.000    0.000    0.000 
#    0.000    0.000    0.000    0.000    0.000    0.000 
#
# Total GULP energy -178236.564271 kJ/mol
# GULP energy per Si atom -5569.892633 kJ/mol
# Density = 2.598362 g / cm^3
# Si number density = 26.042894 Si / 1000 Ang^3
#
#
#
# Elastic Constant Matrix: (Units=GPa)
#
#
# Indices 1 2 3 4 5 6 
#
# 1 79.6188 23.2819 37.2493 0.0000 0.0000 0.0000
# 2 23.2819 79.6188 37.2493 0.0000 0.0000 0.0000
# 3 37.2493 37.2493 166.2370 0.0000 0.0000 0.0000
# 4 0.0000 0.0000 0.0000 26.9947 0.0000 0.0000
# 5 0.0000 0.0000 0.0000 0.0000 26.9947 0.0000
# 6 0.0000 0.0000 0.0000 0.0000 0.0000 13.9503
#
#
#
# Elastic Compliance Matrix: (Units=1/GPa)
#
#
# Indices 1 2 3 4 5 6 
#
# 1 0.014675 -0.003075 -0.002599 0.000000 0.000000 0.000000
# 2 -0.003075 0.014675 -0.002599 0.000000 0.000000 0.000000
# 3 -0.002599 -0.002599 0.007180 0.000000 0.000000 0.000000
# 4 0.000000 0.000000 0.000000 0.037044 0.000000 0.000000
# 5 0.000000 0.000000 0.000000 0.000000 0.037044 0.000000
# 6 0.000000 0.000000 0.000000 0.000000 0.000000 0.071683
#
#
# Mechanical properties :
#
#
# Convention : Reuss Voigt Hill
#
# Bulk Modulus (GPa) = 50.04191 57.89283 53.96737
# Shear Modulus (GPa) = 24.32965 28.76757 26.54861
#
# Velocity S-wave (km/s) = 3.05981 3.32719 3.19630
# Velocity P-wave (km/s) = 5.63384 6.08591 5.86423
#
# Compressibility (1/GPa) = 0.01998325
#
# Stress axis : x y z
#
# Youngs Moduli (GPa) = 68.14246 68.14246 139.26910
#
# Poissons Ratio (x) = 0.20955 0.36199
# Poissons Ratio (y) = 0.20955 0.36199
# Poissons Ratio (z) = 0.17712 0.17712
#
# Static dielectric constant tensor:
#      x y z
#    x 2.169940 0.000000 0.000000 
#    y 0.000000 2.169940 0.000000 
#    z 0.000000 0.000000 1.989370 
# 
# From -- ./inp_files/5122.got.cif
#   From: 2010.05.17/outbox.cif.g08.bks.cpg/sg122_3_cif.got.tgz:5122.got - 2010.05.20 11:37:33.
