data_PCOD9560074
_publ_section_title
;
Structure prediction by ZEFSAII (Michael W. Deem and Ramdas Pophale) SiO2 
 PCOD9560074
Probable space group: I -4 C 2
;
_chemical_formula_sum "Si O2"
_cell_formula_units_Z 32
_cell_length_a 12.000000
_cell_length_b 12.000000
_cell_length_c 24.000000
_cell_angle_alpha 90.000000
_cell_angle_beta 90.000000
_cell_angle_gamma 90.000000
_cell_volume 3456.000000
_symmetry_space_group_name_H-M "I -4 C 2"
_symmetry_group_IT_number 120
_symmetry_cell_setting 'tetragonal'
loop_
_space_group_symop_operation_xyz
x,y,z
y,-x,-z
-x,-y,z
-y,x,-z
y,x,1/2-z
-y,-x,1/2-z
-x,y,1/2+z
x,-y,1/2+z
1/2+x,1/2+y,1/2+z
1/2+y,1/2-x,1/2-z
1/2-x,1/2-y,1/2+z
1/2-y,1/2+x,1/2-z
1/2+y,1/2+x,-z
1/2-y,1/2-x,-z
1/2-x,1/2+y,z
1/2+x,1/2-y,z
loop_
_atom_site_type_symbol
_atom_site_label
_atom_site_fract_x
_atom_site_fract_y
_atom_site_fract_z
Si Si1 0.500000 0.000000 0.250000
Si Si2 0.839301 0.887169 0.083606
Si Si3 0.500000 0.500000 0.000000
Si Si4 0.971705 0.335039 0.592623
Si Si5 0.153546 0.471632 0.650297
Si Si6 0.642907 0.142907 0.500000
O O1 0.493349 0.108844 0.289409
O O2 0.900209 0.972420 0.042131
O O3 0.737927 0.841896 0.045958
O O4 0.921320 0.786857 0.098865
O O5 0.779946 0.940931 0.137311
O O6 0.072723 0.367865 0.634190
O O7 0.025596 0.346763 0.531670
O O8 0.881180 0.429833 0.607278
#
# Coordination Sequence:
#
# PCOD9560074 Si02
#       6
#     4  16   4  16  16   8
#     4   8  16  44  64  86 104 148 204 260 300 322
#     4  11  22  32  51  82 117 160 188 232 284 354
#     4  12  24  36  48  84 138 160 176 232 292 354
#     4   9  19  34  49  78 111 150 193 230 273 345
#     4   9  21  36  61  79 110 145 200 250 286 345
#     4  10  20  31  50  71 112 162 192 213 274 346
#
# _framework density 9.2592590000000001
#
# number of rings (size 3 to 8) (size 9 to 14) (size 15 to 20)
#    0.000    2.500    2.500    0.000    3.500   10.000 
#    0.000    5.000    0.000    0.000    0.000    7.000 
#    0.000    0.000    0.000    0.000    0.000    0.000 
#
# Total GULP energy -178213.454421 kJ/mol
# GULP energy per Si atom -5569.170451 kJ/mol
# Density = 0.923818 g / cm^3
# Si number density = 9.259259 Si / 1000 Ang^3
#
#
#
# Elastic Constant Matrix: (Units=GPa)
#
#
# Indices 1 2 3 4 5 6 
#
# 1 44.8217 18.1268 18.2579 0.0000 0.0000 0.0000
# 2 18.1268 44.8217 18.2579 0.0000 0.0000 0.0000
# 3 18.2579 18.2579 62.2016 0.0000 0.0000 0.0000
# 4 0.0000 0.0000 0.0000 16.3530 0.0000 0.0000
# 5 0.0000 0.0000 0.0000 0.0000 16.3530 0.0000
# 6 0.0000 0.0000 0.0000 0.0000 0.0000 31.3095
#
#
#
# Elastic Compliance Matrix: (Units=1/GPa)
#
#
# Indices 1 2 3 4 5 6 
#
# 1 0.028303 -0.009157 -0.005620 0.000000 0.000000 0.000000
# 2 -0.009157 0.028303 -0.005620 0.000000 0.000000 0.000000
# 3 -0.005620 -0.005620 0.019376 0.000000 0.000000 0.000000
# 4 0.000000 0.000000 0.000000 0.061151 0.000000 0.000000
# 5 0.000000 0.000000 0.000000 0.000000 0.061151 0.000000
# 6 0.000000 0.000000 0.000000 0.000000 0.000000 0.031939
#
#
# Mechanical properties :
#
#
# Convention : Reuss Voigt Hill
#
# Bulk Modulus (GPa) = 28.41842 29.01447 28.71645
# Shear Modulus (GPa) = 17.68372 19.28330 18.48351
#
# Velocity S-wave (km/s) = 3.09353 3.23042 3.16271
# Velocity P-wave (km/s) = 5.30464 5.44205 5.37378
#
# Compressibility (1/GPa) = 0.03518844
#
# Stress axis : x y z
#
# Youngs Moduli (GPa) = 35.33174 35.33174 51.61049
#
# Poissons Ratio (x) = 0.32354 0.29004
# Poissons Ratio (y) = 0.32354 0.29004
# Poissons Ratio (z) = 0.19856 0.19856
#
# Static dielectric constant tensor:
#      x y z
#    x 1.685170 0.000000 0.000000 
#    y 0.000000 1.685170 0.000000 
#    z 0.000000 0.000000 1.663780 
# 
# From -- ./inp_files/5723.got.cif
#   From: 2010.05.17/outbox.ucp.g08.bks.cvg/sg120_3_cif.got.tgz:5723.got - 2010.06.11 11:34:49.
