data_PCOD9560951
_publ_section_title
;
Structure prediction by ZEFSAII (Michael W. Deem and Ramdas Pophale) SiO2 
 PCOD9560951
Probable space group: I -4 2 D
;
_chemical_formula_sum "Si O2"
_cell_formula_units_Z 128
_cell_length_a 22.300701
_cell_length_b 22.300701
_cell_length_c 11.685470
_cell_angle_alpha 90.000000
_cell_angle_beta 90.000000
_cell_angle_gamma 90.000000
_cell_volume 5811.432724
_symmetry_space_group_name_H-M "I -4 2 D"
_symmetry_group_IT_number 122
_symmetry_cell_setting 'tetragonal'
loop_
_space_group_symop_operation_xyz
x,y,z
y,-x,-z
-x,-y,z
-y,x,-z
x,1/2-y,1/4-z
-x,1/2+y,1/4-z
-y,1/2-x,1/4+z
y,1/2+x,1/4+z
1/2+x,1/2+y,1/2+z
1/2+y,1/2-x,1/2-z
1/2-x,1/2-y,1/2+z
1/2-y,1/2+x,1/2-z
1/2+x,-y,3/4-z
1/2-x,y,3/4-z
1/2-y,-x,3/4+z
1/2+y,x,3/4+z
loop_
_atom_site_type_symbol
_atom_site_label
_atom_site_fract_x
_atom_site_fract_y
_atom_site_fract_z
Si Si1 0.808655 0.491759 0.428264
Si Si2 0.123881 0.932992 0.410140
Si Si3 0.186936 0.199862 0.974300
Si Si4 0.995442 0.890253 0.367783
Si Si5 0.451229 0.616903 0.237609
Si Si6 0.996462 0.095483 0.985208
Si Si7 0.676830 0.142820 0.963029
Si Si8 0.323359 0.192009 0.038953
O O1 0.750000 0.520122 0.375000
O O2 0.841512 0.523633 0.531989
O O3 0.854647 0.486649 0.324881
O O4 0.798085 0.424782 0.477113
O O5 0.141125 0.953333 0.537834
O O6 0.152290 0.873315 0.355425
O O7 0.051900 0.924265 0.419943
O O8 0.137110 0.991887 0.334768
O O9 0.158835 0.194729 0.847158
O O10 0.187558 0.271936 0.995033
O O11 0.148423 0.171403 0.075958
O O12 0.253450 0.176252 0.009128
O O13 0.951728 0.933895 0.295893
O O14 0.470011 0.620078 0.368708
O O15 0.387219 0.650046 0.226962
O O16 0.052743 0.053370 0.957988
O O17 0.320705 0.250000 0.125000
#
# Coordination Sequence:
#
# PCOD9560951 Si02
#       8
#    16  16  16  16  16  16  16  16
#     4  11  23  41  67 102 137 182 229 293 353 427
#     4  12  26  44  70 103 147 190 241 293 355 431
#     4  10  22  47  74 100 139 190 238 302 361 432
#     4  11  24  46  69 101 142 194 230 283 362 436
#     4  11  24  40  69 102 138 186 234 289 351 437
#     4  11  22  39  65 100 140 178 229 286 354 420
#     4  10  20  41  72  97 132 185 241 280 369 423
#     4  11  26  45  74 104 136 187 244 300 356 425
#
# _framework density 22.025549999999999
#
# number of rings (size 3 to 8) (size 9 to 14) (size 15 to 20)
#    0.000    1.125    6.250    1.125    7.000    1.000 
#    4.500    0.000    2.750    0.000    0.000    0.000 
#    0.000    0.000    0.000    0.000    0.000    0.000 
#
# Total GULP energy -356698.715387 kJ/mol
# GULP energy per Si atom -5573.417428 kJ/mol
# Density = 2.197542 g / cm^3
# Si number density = 22.025550 Si / 1000 Ang^3
#
#
#
# Elastic Constant Matrix: (Units=GPa)
#
#
# Indices 1 2 3 4 5 6 
#
# 1 66.8533 36.3957 26.3736 0.0000 0.0000 0.0000
# 2 36.3957 66.8533 26.3736 0.0000 0.0000 0.0000
# 3 26.3736 26.3736 114.6437 0.0000 0.0000 0.0000
# 4 0.0000 0.0000 0.0000 18.8867 0.0000 0.0000
# 5 0.0000 0.0000 0.0000 0.0000 18.8867 0.0000
# 6 0.0000 0.0000 0.0000 0.0000 0.0000 17.6673
#
#
#
# Elastic Compliance Matrix: (Units=1/GPa)
#
#
# Indices 1 2 3 4 5 6 
#
# 1 0.021904 -0.010929 -0.002525 0.000000 0.000000 0.000000
# 2 -0.010929 0.021904 -0.002525 0.000000 0.000000 0.000000
# 3 -0.002525 -0.002525 0.009884 0.000000 0.000000 0.000000
# 4 0.000000 0.000000 0.000000 0.052947 0.000000 0.000000
# 5 0.000000 0.000000 0.000000 0.000000 0.052947 0.000000
# 6 0.000000 0.000000 0.000000 0.000000 0.000000 0.056602
#
#
# Mechanical properties :
#
#
# Convention : Reuss Voigt Hill
#
# Bulk Modulus (GPa) = 46.00782 47.40399 46.70591
# Shear Modulus (GPa) = 19.57790 21.70198 20.63994
#
# Velocity S-wave (km/s) = 2.98463 3.14237 3.06451
# Velocity P-wave (km/s) = 5.72810 5.89364 5.81146
#
# Compressibility (1/GPa) = 0.02173543
#
# Stress axis : x y z
#
# Youngs Moduli (GPa) = 45.65405 45.65405 101.17017
#
# Poissons Ratio (x) = 0.49894 0.25544
# Poissons Ratio (y) = 0.49894 0.25544
# Poissons Ratio (z) = 0.11527 0.11527
#
# Static dielectric constant tensor:
#      x y z
#    x 1.841710 0.000000 0.000000 
#    y 0.000000 1.841710 0.000000 
#    z 0.000000 0.000000 1.848150 
# 
# From -- ./inp_files/4627.got.cif
#   From: 2010.05.17/outbox.cif.g08.bks.cpg/sg122_3_cif.got.tgz:4627.got - 2010.05.20 11:37:33.
