data_PCOD9560773
_publ_section_title
;
Structure prediction by ZEFSAII (Michael W. Deem and Ramdas Pophale) SiO2 
 PCOD9560773
Probable space group: I -4 2 D
;
_chemical_formula_sum "Si O2"
_cell_formula_units_Z 80
_cell_length_a 29.513812
_cell_length_b 29.513812
_cell_length_c 5.458779
_cell_angle_alpha 90.000000
_cell_angle_beta 90.000000
_cell_angle_gamma 90.000000
_cell_volume 4754.951869
_symmetry_space_group_name_H-M "I -4 2 D"
_symmetry_group_IT_number 122
_symmetry_cell_setting 'tetragonal'
loop_
_space_group_symop_operation_xyz
x,y,z
y,-x,-z
-x,-y,z
-y,x,-z
x,1/2-y,1/4-z
-x,1/2+y,1/4-z
-y,1/2-x,1/4+z
y,1/2+x,1/4+z
1/2+x,1/2+y,1/2+z
1/2+y,1/2-x,1/2-z
1/2-x,1/2-y,1/2+z
1/2-y,1/2+x,1/2-z
1/2+x,-y,3/4-z
1/2-x,y,3/4-z
1/2-y,-x,3/4+z
1/2+y,x,3/4+z
loop_
_atom_site_type_symbol
_atom_site_label
_atom_site_fract_x
_atom_site_fract_y
_atom_site_fract_z
Si Si1 0.061759 0.301290 0.235120
Si Si2 0.694989 0.538697 0.381487
Si Si3 0.817389 0.348400 0.512322
Si Si4 0.090301 0.804806 0.617301
Si Si5 0.104416 0.250000 0.625000
Si Si6 0.278154 0.250000 0.625000
O O1 0.063337 0.250000 0.125000
O O2 0.071796 0.288972 0.516104
O O3 0.013122 0.320740 0.169324
O O4 0.105452 0.327396 0.134860
O O5 0.750000 0.537026 0.375000
O O6 0.682254 0.567014 0.623713
O O7 0.682218 0.561038 0.122254
O O8 0.860927 0.328301 0.643283
O O9 0.776757 0.363068 0.691967
O O10 0.794691 0.309476 0.347756
O O11 0.095160 0.750000 0.625000
O O12 0.250000 0.244392 0.375000
#
# Coordination Sequence:
#
# PCOD9560773 Si02
#       6
#    16  16  16  16   8   8
#     4   9  19  33  56  75 100 134 188 233 270 309
#     4   9  20  35  53  74  98 137 176 223 277 325
#     4  11  22  35  51  78 106 149 187 229 257 311
#     4  10  22  35  50  74 110 143 173 213 276 325
#     4  10  19  34  56  76 104 140 192 234 265 304
#     4  12  25  36  50  74 114 158 200 220 251 302
#
# _framework density 16.824566000000001
#
# number of rings (size 3 to 8) (size 9 to 14) (size 15 to 20)
#    0.000    2.000    3.000    1.200   12.600    2.400 
#    0.000    0.000    0.000    0.000    0.000    0.000 
#    0.000    4.800    0.000    0.000    0.000    0.000 
#
# Total GULP energy -222808.706109 kJ/mol
# GULP energy per Si atom -5570.217653 kJ/mol
# Density = 1.678627 g / cm^3
# Si number density = 16.824566 Si / 1000 Ang^3
#
#
#
# Elastic Constant Matrix: (Units=GPa)
#
#
# Indices 1 2 3 4 5 6 
#
# 1 75.2759 28.8216 33.4862 0.0000 0.0000 0.0000
# 2 28.8216 75.2759 33.4862 0.0000 0.0000 0.0000
# 3 33.4862 33.4862 96.3709 0.0000 0.0000 0.0000
# 4 0.0000 0.0000 0.0000 20.9181 0.0000 0.0000
# 5 0.0000 0.0000 0.0000 0.0000 20.9181 0.0000
# 6 0.0000 0.0000 0.0000 0.0000 0.0000 7.2400
#
#
#
# Elastic Compliance Matrix: (Units=1/GPa)
#
#
# Indices 1 2 3 4 5 6 
#
# 1 0.016949 -0.004577 -0.004299 0.000000 0.000000 0.000000
# 2 -0.004577 0.016949 -0.004299 0.000000 0.000000 0.000000
# 3 -0.004299 -0.004299 0.013364 0.000000 0.000000 0.000000
# 4 0.000000 0.000000 0.000000 0.047805 0.000000 0.000000
# 5 0.000000 0.000000 0.000000 0.000000 0.047805 0.000000
# 6 0.000000 0.000000 0.000000 0.000000 0.000000 0.138121
#
#
# Mechanical properties :
#
#
# Convention : Reuss Voigt Hill
#
# Bulk Modulus (GPa) = 47.81818 48.72342 48.27080
# Shear Modulus (GPa) = 15.90753 19.89049 17.89901
#
# Velocity S-wave (km/s) = 3.07823 3.44209 3.26523
# Velocity P-wave (km/s) = 6.41228 6.69476 6.55504
#
# Compressibility (1/GPa) = 0.02091255
#
# Stress axis : x y z
#
# Youngs Moduli (GPa) = 58.99925 58.99925 74.82714
#
# Poissons Ratio (x) = 0.27005 0.32168
# Poissons Ratio (y) = 0.27005 0.32168
# Poissons Ratio (z) = 0.25364 0.25364
#
# Static dielectric constant tensor:
#      x y z
#    x 1.573710 0.000000 0.000000 
#    y 0.000000 1.573710 0.000000 
#    z 0.000000 0.000000 1.727630 
# 
# From -- ./inp_files/1339.got.cif
#   From: 2010.05.17/outbox.cif.g08.bks.cpg/sg122_1_cif.got.tgz:1339.got - 2010.05.20 11:37:33.
