data_PCOD9560786
_publ_section_title
;
Structure prediction by ZEFSAII (Michael W. Deem and Ramdas Pophale) SiO2 
 PCOD9560786
Probable space group: I -4 2 D
;
_chemical_formula_sum "Si O2"
_cell_formula_units_Z 88
_cell_length_a 15.159121
_cell_length_b 15.159121
_cell_length_c 18.416766
_cell_angle_alpha 90.000000
_cell_angle_beta 90.000000
_cell_angle_gamma 90.000000
_cell_volume 4232.153480
_symmetry_space_group_name_H-M "I -4 2 D"
_symmetry_group_IT_number 122
_symmetry_cell_setting 'tetragonal'
loop_
_space_group_symop_operation_xyz
x,y,z
y,-x,-z
-x,-y,z
-y,x,-z
x,1/2-y,1/4-z
-x,1/2+y,1/4-z
-y,1/2-x,1/4+z
y,1/2+x,1/4+z
1/2+x,1/2+y,1/2+z
1/2+y,1/2-x,1/2-z
1/2-x,1/2-y,1/2+z
1/2-y,1/2+x,1/2-z
1/2+x,-y,3/4-z
1/2-x,y,3/4-z
1/2-y,-x,3/4+z
1/2+y,x,3/4+z
loop_
_atom_site_type_symbol
_atom_site_label
_atom_site_fract_x
_atom_site_fract_y
_atom_site_fract_z
Si Si1 0.250000 0.701916 0.375000
Si Si2 0.069173 0.670119 0.183461
Si Si3 0.919450 0.912140 0.158548
Si Si4 0.215559 0.571750 0.120001
Si Si5 0.309872 0.154602 0.014008
Si Si6 0.901567 0.499610 0.572387
O O1 0.172182 0.639462 0.398000
O O2 0.229603 0.763298 0.307830
O O3 0.065178 0.750000 0.125000
O O4 0.162617 0.618941 0.185692
O O5 0.077953 0.733454 0.252828
O O6 0.995070 0.602169 0.154387
O O7 0.962070 0.910098 0.239116
O O8 0.850843 0.992104 0.150613
O O9 0.317298 0.546695 0.137180
O O10 0.197565 0.643137 0.055669
O O11 0.379357 0.102295 0.061864
O O12 0.000000 0.500000 0.605903
#
# Coordination Sequence:
#
# PCOD9560786 Si02
#       6
#     8  16  16  16  16  16
#     4  12  24  40  66  96 138 188 218 286 338 408
#     4  10  19  35  64  99 135 168 211 274 342 414
#     4  12  20  40  68  99 140 174 221 277 354 413
#     4  11  23  40  67 100 134 178 224 284 340 405
#     4  11  23  43  64  96 141 176 232 275 338 409
#     4  12  22  41  70  97 133 184 222 277 343 410
#
# _framework density 20.793195999999998
#
# number of rings (size 3 to 8) (size 9 to 14) (size 15 to 20)
#    0.000    0.727    8.182    1.636    0.000    0.000 
#    0.000    1.818    6.000    0.000    0.000    0.000 
#    0.000    0.000    0.000    0.000    0.000    0.000 
#
# Total GULP energy -244954.008767 kJ/mol
# GULP energy per Si atom -5567.136563 kJ/mol
# Density = 2.074587 g / cm^3
# Si number density = 20.793196 Si / 1000 Ang^3
#
#
#
# Elastic Constant Matrix: (Units=GPa)
#
#
# Indices 1 2 3 4 5 6 
#
# 1 133.5261 61.8789 34.7283 0.0000 0.0000 0.0000
# 2 61.8789 133.5261 34.7283 0.0000 0.0000 0.0000
# 3 34.7283 34.7283 46.3656 0.0000 0.0000 0.0000
# 4 0.0000 0.0000 0.0000 21.2298 0.0000 0.0000
# 5 0.0000 0.0000 0.0000 0.0000 21.2298 0.0000
# 6 0.0000 0.0000 0.0000 0.0000 0.0000 37.0380
#
#
#
# Elastic Compliance Matrix: (Units=1/GPa)
#
#
# Indices 1 2 3 4 5 6 
#
# 1 0.010466 -0.003491 -0.005224 0.000000 0.000000 0.000000
# 2 -0.003491 0.010466 -0.005224 0.000000 0.000000 0.000000
# 3 -0.005224 -0.005224 0.029393 0.000000 0.000000 0.000000
# 4 0.000000 0.000000 0.000000 0.047104 0.000000 0.000000
# 5 0.000000 0.000000 0.000000 0.000000 0.047104 0.000000
# 6 0.000000 0.000000 0.000000 0.000000 0.000000 0.026999
#
#
# Mechanical properties :
#
#
# Convention : Reuss Voigt Hill
#
# Bulk Modulus (GPa) = 44.55049 64.00984 54.28017
# Shear Modulus (GPa) = 24.16720 28.03835 26.10277
#
# Velocity S-wave (km/s) = 3.41290 3.67609 3.54694
# Velocity P-wave (km/s) = 6.08297 6.99064 6.55254
#
# Compressibility (1/GPa) = 0.02244644
#
# Stress axis : x y z
#
# Youngs Moduli (GPa) = 95.54898 95.54898 34.02147
#
# Poissons Ratio (x) = 0.33360 0.17772
# Poissons Ratio (y) = 0.33360 0.17772
# Poissons Ratio (z) = 0.49914 0.49914
#
# Static dielectric constant tensor:
#      x y z
#    x 1.850640 0.000000 0.000000 
#    y 0.000000 1.850640 0.000000 
#    z 0.000000 0.000000 1.845030 
# 
# From -- ./inp_files/7167.got.cif
#   From: 2010.05.17/outbox.cif.g08.bks.cpg/sg122_4_cif.got.tgz:7167.got - 2010.05.20 11:37:33.
