data_PCOD9560188
_publ_section_title
;
Structure prediction by ZEFSAII (Michael W. Deem and Ramdas Pophale) SiO2 
 PCOD9560188
Probable space group: I -4 2 M
;
_chemical_formula_sum "Si O2"
_cell_formula_units_Z 112
_cell_length_a 15.992870
_cell_length_b 15.992870
_cell_length_c 24.426128
_cell_angle_alpha 90.000000
_cell_angle_beta 90.000000
_cell_angle_gamma 90.000000
_cell_volume 6247.516944
_symmetry_space_group_name_H-M "I -4 2 M"
_symmetry_group_IT_number 121
_symmetry_cell_setting 'tetragonal'
loop_
_space_group_symop_operation_xyz
x,y,z
y,-x,-z
-x,-y,z
-y,x,-z
x,-y,-z
-x,y,-z
-y,-x,z
y,x,z
1/2+x,1/2+y,1/2+z
1/2+y,1/2-x,1/2-z
1/2-x,1/2-y,1/2+z
1/2-y,1/2+x,1/2-z
1/2+x,1/2-y,1/2-z
1/2-x,1/2+y,1/2-z
1/2-y,1/2-x,1/2+z
1/2+y,1/2+x,1/2+z
loop_
_atom_site_type_symbol
_atom_site_label
_atom_site_fract_x
_atom_site_fract_y
_atom_site_fract_z
Si Si1 0.688164 0.822577 0.690079
Si Si2 0.462995 0.672340 0.824612
Si Si3 0.615891 0.926162 0.093147
Si Si4 0.379530 0.922304 0.594957
Si Si5 0.320568 0.814378 0.492448
Si Si6 0.625598 0.240686 0.194008
Si Si7 0.059513 0.190085 0.549423
O O1 0.740451 0.740451 0.672012
O O2 0.756240 0.896785 0.692180
O O3 0.617929 0.848952 0.647230
O O4 0.650665 0.803552 0.749542
O O5 0.416009 0.583992 0.815782
O O6 0.550208 0.693539 0.796757
O O7 0.477264 0.683259 0.890131
O O8 0.521683 0.889347 0.082098
O O9 0.677838 0.904591 0.042972
O O10 0.607555 0.025012 0.100786
O O11 0.335863 0.867879 0.547307
O O12 0.326337 0.906371 0.649737
O O13 0.273929 0.726072 0.502287
O O14 0.257303 0.866591 0.453382
O O15 0.705814 0.294187 0.174232
O O16 0.101377 0.101377 0.536649
O O17 0.000000 0.211846 0.500000
#
# Coordination Sequence:
#
# PCOD9560188 Si02
#       7
#    16  16  16  16  16  16  16
#     4  10  21  38  58  79 107 149 198 240 285 343
#     4  10  20  38  59  82 114 155 199 240 286 345
#     4  11  21  36  57  80 113 150 188 232 290 349
#     4  11  23  34  53  87 117 145 183 237 292 345
#     4  11  20  34  54  75 108 147 184 224 274 340
#     4  11  23  38  57  84 117 151 191 241 291 341
#     4  10  19  30  50  76 108 149 185 219 267 332
#
# _framework density 17.927122000000001
#
# number of rings (size 3 to 8) (size 9 to 14) (size 15 to 20)
#    0.000    1.429    2.857    3.429    2.000    3.286 
#    0.000    2.857    0.000    0.000    0.000    0.000 
#    0.000   21.143    0.000    0.000    0.000    0.000 
#
# Total GULP energy -312402.157386 kJ/mol
# GULP energy per Si atom -5578.609953 kJ/mol
# Density = 1.788632 g / cm^3
# Si number density = 17.927122 Si / 1000 Ang^3
#
#
#
# Elastic Constant Matrix: (Units=GPa)
#
#
# Indices 1 2 3 4 5 6 
#
# 1 86.9014 48.0794 39.2920 0.0000 0.0000 0.0000
# 2 48.0794 86.9054 39.2918 0.0000 0.0000 0.0000
# 3 39.2920 39.2918 61.0476 0.0000 0.0000 0.0000
# 4 0.0000 0.0000 0.0000 20.8903 0.0000 0.0000
# 5 0.0000 0.0000 0.0000 0.0000 20.8896 0.0000
# 6 0.0000 0.0000 0.0000 0.0000 0.0000 26.3078
#
#
#
# Elastic Compliance Matrix: (Units=1/GPa)
#
#
# Indices 1 2 3 4 5 6 
#
# 1 0.018803 -0.006955 -0.007626 0.000000 0.000000 0.000000
# 2 -0.006955 0.018802 -0.007625 0.000000 0.000000 0.000000
# 3 -0.007626 -0.007625 0.026197 0.000000 0.000000 0.000000
# 4 0.000000 0.000000 0.000000 0.047869 0.000000 0.000000
# 5 0.000000 0.000000 0.000000 0.000000 0.047871 0.000000
# 6 0.000000 0.000000 0.000000 0.000000 0.000000 0.038011
#
#
# Mechanical properties :
#
#
# Convention : Reuss Voigt Hill
#
# Bulk Modulus (GPa) = 51.57291 54.24232 52.90762
# Shear Modulus (GPa) = 20.12654 20.83028 20.47841
#
# Velocity S-wave (km/s) = 3.35429 3.41243 3.38348
# Velocity P-wave (km/s) = 6.62059 6.77119 6.69631
#
# Compressibility (1/GPa) = 0.01939002
#
# Stress axis : x y z
#
# Youngs Moduli (GPa) = 53.18254 53.18618 38.17282
#
# Poissons Ratio (x) = 0.36990 0.29111
# Poissons Ratio (y) = 0.36987 0.29107
# Poissons Ratio (z) = 0.40557 0.40555
#
# Static dielectric constant tensor:
#      x y z
#    x 1.646750 0.000000 0.000000 
#    y 0.000000 1.646750 0.000000 
#    z 0.000000 0.000000 1.605060 
# 
# From -- ./inp_files/7220.got.cif
#   From: 2010.05.17/outbox.cif.g08.bks.cpg/sg121_4_cif.got.tgz:7220.got - 2010.05.20 11:32:06.
