data_PCOD9560173
_publ_section_title
;
Structure prediction by ZEFSAII (Michael W. Deem and Ramdas Pophale) SiO2 
 PCOD9560173
Probable space group: I -4 2 M
;
_chemical_formula_sum "Si O2"
_cell_formula_units_Z 96
_cell_length_a 15.932793
_cell_length_b 15.932793
_cell_length_c 22.396348
_cell_angle_alpha 90.000000
_cell_angle_beta 90.000000
_cell_angle_gamma 90.000000
_cell_volume 5685.400124
_symmetry_space_group_name_H-M "I -4 2 M"
_symmetry_group_IT_number 121
_symmetry_cell_setting 'tetragonal'
loop_
_space_group_symop_operation_xyz
x,y,z
y,-x,-z
-x,-y,z
-y,x,-z
x,-y,-z
-x,y,-z
-y,-x,z
y,x,z
1/2+x,1/2+y,1/2+z
1/2+y,1/2-x,1/2-z
1/2-x,1/2-y,1/2+z
1/2-y,1/2+x,1/2-z
1/2+x,1/2-y,1/2-z
1/2-x,1/2+y,1/2-z
1/2-y,1/2-x,1/2+z
1/2+y,1/2+x,1/2+z
loop_
_atom_site_type_symbol
_atom_site_label
_atom_site_fract_x
_atom_site_fract_y
_atom_site_fract_z
Si Si1 0.673378 0.191057 0.097468
Si Si2 0.916155 0.775238 0.807530
Si Si3 0.905968 0.664281 0.021104
Si Si4 0.788251 0.517386 0.064401
Si Si5 0.899065 0.758217 0.143412
Si Si6 0.268624 0.127177 0.677289
O O1 0.718464 0.281537 0.101264
O O2 0.709628 0.135546 0.151342
O O3 0.572845 0.193248 0.093312
O O4 0.697320 0.147996 0.034609
O O5 0.861239 0.861239 0.809325
O O6 0.919975 0.742926 0.739556
O O7 0.009626 0.781452 0.832726
O O8 0.865816 0.576501 0.043614
O O9 0.904071 0.730738 0.074428
O O10 0.000000 0.649559 0.000000
O O11 0.750982 0.572149 0.118369
O O12 0.743166 0.500000 0.000000
O O13 0.834712 0.834712 0.151398
O O14 0.857977 0.675149 0.173762
O O15 0.201093 0.201093 0.677372
#
# Coordination Sequence:
#
# PCOD9560173 Si02
#       6
#    16  16  16  16  16  16
#     4  10  20  34  53  78 110 146 186 227 274 329
#     4  10  21  36  54  79 112 147 183 230 274 326
#     4  10  18  35  55  81 113 142 183 234 278 326
#     4   9  20  33  55  82 106 143 182 229 278 326
#     4  10  20  36  59  80 107 149 186 222 274 334
#     4   9  20  38  57  80 111 144 182 227 279 331
#
# _framework density 16.885356000000002
#
# number of rings (size 3 to 8) (size 9 to 14) (size 15 to 20)
#    0.000    2.333    1.667    0.500    2.333    7.333 
#    0.000    0.000    0.000    1.500    0.000    3.500 
#    0.000    0.000    0.000    0.000    0.000    0.000 
#
# Total GULP energy -267238.486504 kJ/mol
# GULP energy per Si atom -5567.468469 kJ/mol
# Density = 1.684692 g / cm^3
# Si number density = 16.885356 Si / 1000 Ang^3
#
#
#
# Elastic Constant Matrix: (Units=GPa)
#
#
# Indices 1 2 3 4 5 6 
#
# 1 52.9946 3.2572 22.5083 0.0000 0.0000 0.0000
# 2 3.2572 52.9930 22.5077 0.0000 0.0000 0.0000
# 3 22.5083 22.5077 91.2470 0.0000 0.0000 0.0000
# 4 0.0000 0.0000 0.0000 24.9683 0.0000 0.0000
# 5 0.0000 0.0000 0.0000 0.0000 24.9695 0.0000
# 6 0.0000 0.0000 0.0000 0.0000 0.0000 1.8371
#
#
#
# Elastic Compliance Matrix: (Units=1/GPa)
#
#
# Indices 1 2 3 4 5 6 
#
# 1 0.021128 0.001022 -0.005464 0.000000 0.000000 0.000000
# 2 0.001022 0.021128 -0.005464 0.000000 0.000000 0.000000
# 3 -0.005464 -0.005464 0.013655 0.000000 0.000000 0.000000
# 4 0.000000 0.000000 0.000000 0.040051 0.000000 0.000000
# 5 0.000000 0.000000 0.000000 0.000000 0.040049 0.000000
# 6 0.000000 0.000000 0.000000 0.000000 0.000000 0.544343
#
#
# Mechanical properties :
#
#
# Convention : Reuss Voigt Hill
#
# Bulk Modulus (GPa) = 27.70111 32.64234 30.17173
# Shear Modulus (GPa) = 7.02053 20.28574 13.65313
#
# Velocity S-wave (km/s) = 2.04127 3.46985 2.84664
# Velocity P-wave (km/s) = 4.69007 5.95205 5.35834
#
# Compressibility (1/GPa) = 0.03609963
#
# Stress axis : x y z
#
# Youngs Moduli (GPa) = 47.33137 47.33004 73.23453
#
# Poissons Ratio (x) = -0.04837 0.40013
# Poissons Ratio (y) = -0.04837 0.40014
# Poissons Ratio (z) = 0.25861 0.25860
#
# Static dielectric constant tensor:
#      x y z
#    x 1.560090 0.000000 0.000000 
#    y 0.000000 1.560090 0.000000 
#    z 0.000000 0.000000 1.594910 
# 
# From -- ./inp_files/6396.got.cif
#   From: 2010.05.17/outbox.cif.g08.bks.cpg/sg121_4_cif.got.tgz:6396.got - 2010.05.20 11:32:06.
