data_PCOD9560952
_publ_section_title
;
Structure prediction by ZEFSAII (Michael W. Deem and Ramdas Pophale) SiO2 
 PCOD9560952
Probable space group: I -4 2 D
;
_chemical_formula_sum "Si O2"
_cell_formula_units_Z 72
_cell_length_a 24.020410
_cell_length_b 24.020410
_cell_length_c 6.271718
_cell_angle_alpha 90.000000
_cell_angle_beta 90.000000
_cell_angle_gamma 90.000000
_cell_volume 3618.656457
_symmetry_space_group_name_H-M "I -4 2 D"
_symmetry_group_IT_number 122
_symmetry_cell_setting 'tetragonal'
loop_
_space_group_symop_operation_xyz
x,y,z
y,-x,-z
-x,-y,z
-y,x,-z
x,1/2-y,1/4-z
-x,1/2+y,1/4-z
-y,1/2-x,1/4+z
y,1/2+x,1/4+z
1/2+x,1/2+y,1/2+z
1/2+y,1/2-x,1/2-z
1/2-x,1/2-y,1/2+z
1/2-y,1/2+x,1/2-z
1/2+x,-y,3/4-z
1/2-x,y,3/4-z
1/2-y,-x,3/4+z
1/2+y,x,3/4+z
loop_
_atom_site_type_symbol
_atom_site_label
_atom_site_fract_x
_atom_site_fract_y
_atom_site_fract_z
Si Si1 0.387934 0.695545 0.519861
Si Si2 0.953331 0.250000 0.625000
Si Si3 0.495309 0.931827 0.043522
Si Si4 0.078464 0.117294 0.030063
Si Si5 0.986284 0.155236 0.337783
O O1 0.360771 0.750000 0.625000
O O2 0.416535 0.717373 0.301964
O O3 0.354910 0.638751 0.482744
O O4 0.433594 0.672632 0.691847
O O5 0.990128 0.204575 0.506299
O O6 0.547516 0.900434 0.936860
O O7 0.442050 0.916004 0.901186
O O8 0.500000 0.000000 0.028410
O O9 0.484511 0.901762 0.271684
O O10 0.036891 0.151744 0.175913
#
# Coordination Sequence:
#
# PCOD9560952 Si02
#       5
#    16   8  16  16  16
#     4  10  22  38  54  75 109 160 204 243 291 353
#     4  10  20  42  56  72 104 168 200 246 296 340
#     4  12  23  33  50  83 126 161 193 223 286 359
#     4  12  21  35  48  83 113 159 198 238 286 359
#     4  11  23  34  55  75 111 162 199 247 284 357
#
# _framework density 19.896888000000001
#
# number of rings (size 3 to 8) (size 9 to 14) (size 15 to 20)
#    0.000    0.889    6.667    0.000    6.222    0.889 
#    0.000    0.000    0.000    0.000    0.000    0.000 
#    0.000    0.000  343.778    0.000    0.000    0.000 
#
# Total GULP energy -200751.551287 kJ/mol
# GULP energy per Si atom -5576.431980 kJ/mol
# Density = 1.985160 g / cm^3
# Si number density = 19.896888 Si / 1000 Ang^3
#
#
#
# Elastic Constant Matrix: (Units=GPa)
#
#
# Indices 1 2 3 4 5 6 
#
# 1 50.3160 -33.6126 10.4041 0.0000 0.0000 0.0000
# 2 -33.6126 50.3160 10.4041 0.0000 0.0000 0.0000
# 3 10.4041 10.4041 105.8186 0.0000 0.0000 0.0000
# 4 0.0000 0.0000 0.0000 36.8045 0.0000 0.0000
# 5 0.0000 0.0000 0.0000 0.0000 36.8045 0.0000
# 6 0.0000 0.0000 0.0000 0.0000 0.0000 13.5666
#
#
#
# Elastic Compliance Matrix: (Units=1/GPa)
#
#
# Indices 1 2 3 4 5 6 
#
# 1 0.040069 0.028155 -0.006708 0.000000 0.000000 0.000000
# 2 0.028155 0.040069 -0.006708 0.000000 0.000000 0.000000
# 3 -0.006708 -0.006708 0.010769 0.000000 0.000000 0.000000
# 4 0.000000 0.000000 0.000000 0.027171 0.000000 0.000000
# 5 0.000000 0.000000 0.000000 0.000000 0.027171 0.000000
# 6 0.000000 0.000000 0.000000 0.000000 0.000000 0.073710
#
#
# Mechanical properties :
#
#
# Convention : Reuss Voigt Hill
#
# Bulk Modulus (GPa) = 8.30660 20.09353 14.20007
# Shear Modulus (GPa) = 21.77603 32.05212 26.91408
#
# Velocity S-wave (km/s) = 3.31183 4.01797 3.68187
# Velocity P-wave (km/s) = 4.33684 5.62550 5.02267
#
# Compressibility (1/GPa) = 0.12038616
#
# Stress axis : x y z
#
# Youngs Moduli (GPa) = 24.95665 24.95665 92.85786
#
# Poissons Ratio (x) = -0.70264 0.62287
# Poissons Ratio (y) = -0.70264 0.62287
# Poissons Ratio (z) = 0.16740 0.16740
#
# Static dielectric constant tensor:
#      x y z
#    x 1.765200 0.000000 0.000000 
#    y 0.000000 1.765200 0.000000 
#    z 0.000000 0.000000 1.793860 
# 
# From -- ./inp_files/1247.got.cif
#   From: 2010.05.17/outbox.cif.g08.bks.cpg/sg122_1_cif.got.tgz:1247.got - 2010.05.20 11:37:33.
