data_PCOD9560023
_publ_section_title
;
Structure prediction by ZEFSAII (Michael W. Deem and Ramdas Pophale) SiO2 
 PCOD9560023
Probable space group: I -4 C 2
;
_chemical_formula_sum "Si O2"
_cell_formula_units_Z 56
_cell_length_a 9.848212
_cell_length_b 9.848212
_cell_length_c 19.829530
_cell_angle_alpha 90.000000
_cell_angle_beta 90.000000
_cell_angle_gamma 90.000000
_cell_volume 1923.212170
_symmetry_space_group_name_H-M "I -4 C 2"
_symmetry_group_IT_number 120
_symmetry_cell_setting 'tetragonal'
loop_
_space_group_symop_operation_xyz
x,y,z
y,-x,-z
-x,-y,z
-y,x,-z
y,x,1/2-z
-y,-x,1/2-z
-x,y,1/2+z
x,-y,1/2+z
1/2+x,1/2+y,1/2+z
1/2+y,1/2-x,1/2-z
1/2-x,1/2-y,1/2+z
1/2-y,1/2+x,1/2-z
1/2+y,1/2+x,-z
1/2-y,1/2-x,-z
1/2-x,1/2+y,z
1/2+x,1/2-y,z
loop_
_atom_site_type_symbol
_atom_site_label
_atom_site_fract_x
_atom_site_fract_y
_atom_site_fract_z
Si Si1 0.804396 0.991925 0.115036
Si Si2 0.773038 0.512612 0.257837
Si Si3 0.500000 0.000000 0.000000
Si Si4 0.000000 0.000000 0.000000
Si Si5 0.293097 0.920980 0.900149
O O1 0.832891 0.005998 0.196001
O O2 0.818990 0.833797 0.094704
O O3 0.660991 0.067227 0.114833
O O4 0.893973 0.057973 0.055056
O O5 0.873887 0.640146 0.250421
O O6 0.745665 0.511350 0.337313
O O7 0.499793 0.852683 0.036761
#
# Coordination Sequence:
#
# PCOD9560023 Si02
#       5
#    16  16   4   4  16
#     4  11  25  46  73 109 158 211 273 342 411 492
#     4   9  19  41  73 106 144 201 268 330 400 487
#     4  12  24  40  74 108 152 208 256 322 408 492
#     4  12  28  44  66 112 168 216 276 350 420 492
#     4  11  24  44  72 107 148 205 270 332 407 489
#
# _framework density 29.117948999999999
#
# number of rings (size 3 to 8) (size 9 to 14) (size 15 to 20)
#    0.000    1.429    0.000    6.000    0.000    8.000 
#    0.000   11.429    0.000    0.000    0.000    0.000 
#    0.000    0.000    0.000    0.000    0.000    0.000 
#
# Total GULP energy -156409.556082 kJ/mol
# GULP energy per Si atom -5586.055574 kJ/mol
# Density = 2.905167 g / cm^3
# Si number density = 29.117949 Si / 1000 Ang^3
#
#
#
# Elastic Constant Matrix: (Units=GPa)
#
#
# Indices 1 2 3 4 5 6 
#
# 1 147.9380 37.8979 77.3030 0.0000 0.0000 0.0000
# 2 37.8979 147.9380 77.3030 0.0000 0.0000 0.0000
# 3 77.3030 77.3030 282.5754 0.0000 0.0000 0.0000
# 4 0.0000 0.0000 0.0000 60.2969 0.0000 0.0000
# 5 0.0000 0.0000 0.0000 0.0000 60.2969 0.0000
# 6 0.0000 0.0000 0.0000 0.0000 0.0000 64.8618
#
#
#
# Elastic Compliance Matrix: (Units=1/GPa)
#
#
# Indices 1 2 3 4 5 6 
#
# 1 0.008027 -0.001060 -0.001906 0.000000 0.000000 0.000000
# 2 -0.001060 0.008027 -0.001906 0.000000 0.000000 0.000000
# 3 -0.001906 -0.001906 0.004582 0.000000 0.000000 0.000000
# 4 0.000000 0.000000 0.000000 0.016585 0.000000 0.000000
# 5 0.000000 0.000000 0.000000 0.000000 0.016585 0.000000
# 6 0.000000 0.000000 0.000000 0.000000 0.000000 0.015417
#
#
# Mechanical properties :
#
#
# Convention : Reuss Voigt Hill
#
# Bulk Modulus (GPa) = 91.81409 107.05102 99.43256
# Shear Modulus (GPa) = 60.53467 62.82095 61.67781
#
# Velocity S-wave (km/s) = 4.56449 4.64989 4.60739
# Velocity P-wave (km/s) = 7.70582 8.10389 7.90736
#
# Compressibility (1/GPa) = 0.01089157
#
# Stress axis : x y z
#
# Youngs Moduli (GPa) = 124.57759 124.57759 218.26323
#
# Poissons Ratio (x) = 0.13211 0.41597
# Poissons Ratio (y) = 0.13211 0.41597
# Poissons Ratio (z) = 0.23742 0.23742
#
# Static dielectric constant tensor:
#      x y z
#    x 2.284220 0.000000 0.000000 
#    y 0.000000 2.284220 0.000000 
#    z 0.000000 0.000000 2.565710 
# 
# From -- ./inp_files/4952.got.cif
#   From: 2010.05.17/outbox.cif.g08.bks.cpg/sg120_3_cif.got.tgz:4952.got - 2010.05.20 11:28:13.
