data_PCOD9560883
_publ_section_title
;
Structure prediction by ZEFSAII (Michael W. Deem and Ramdas Pophale) SiO2 
 PCOD9560883
Probable space group: I -4 2 D
;
_chemical_formula_sum "Si O2"
_cell_formula_units_Z 92
_cell_length_a 22.144278
_cell_length_b 22.144278
_cell_length_c 8.377508
_cell_angle_alpha 90.000000
_cell_angle_beta 90.000000
_cell_angle_gamma 90.000000
_cell_volume 4108.070624
_symmetry_space_group_name_H-M "I -4 2 D"
_symmetry_group_IT_number 122
_symmetry_cell_setting 'tetragonal'
loop_
_space_group_symop_operation_xyz
x,y,z
y,-x,-z
-x,-y,z
-y,x,-z
x,1/2-y,1/4-z
-x,1/2+y,1/4-z
-y,1/2-x,1/4+z
y,1/2+x,1/4+z
1/2+x,1/2+y,1/2+z
1/2+y,1/2-x,1/2-z
1/2-x,1/2-y,1/2+z
1/2-y,1/2+x,1/2-z
1/2+x,-y,3/4-z
1/2-x,y,3/4-z
1/2-y,-x,3/4+z
1/2+y,x,3/4+z
loop_
_atom_site_type_symbol
_atom_site_label
_atom_site_fract_x
_atom_site_fract_y
_atom_site_fract_z
Si Si1 0.387247 0.132792 0.390123
Si Si2 0.480756 0.632616 0.938602
Si Si3 0.659319 0.250000 0.625000
Si Si4 0.000000 0.000000 0.500000
Si Si5 0.562871 0.157305 0.648497
Si Si6 0.754736 0.145994 0.200754
Si Si7 0.930501 0.653272 0.251526
O O1 0.448871 0.148352 0.289777
O O2 0.364304 0.067574 0.331666
O O3 0.341482 0.187263 0.358556
O O4 0.408752 0.137775 0.572115
O O5 0.454661 0.668007 0.786311
O O6 0.486073 0.560423 0.901211
O O7 0.612971 0.204307 0.710073
O O8 0.703336 0.294904 0.718711
O O9 0.596018 0.093009 0.650118
O O10 0.501921 0.160170 0.747272
O O11 0.750000 0.117797 0.375000
O O12 0.788264 0.102382 0.074756
#
# Coordination Sequence:
#
# PCOD9560883 Si02
#       7
#    16  16   8   4  16  16  16
#     4  10  20  37  63  92 131 165 221 266 326 393
#     4   9  19  35  61  93 127 176 206 266 335 388
#     4  10  24  42  64  86 122 172 214 264 342 384
#     4   8  16  32  56  94 136 160 212 262 320 392
#     4  10  22  39  62  90 128 168 216 266 332 394
#     4  11  24  43  65  91 125 169 222 276 323 402
#     4  10  23  38  62  95 126 172 214 269 332 392
#
# _framework density 22.394939000000001
#
# number of rings (size 3 to 8) (size 9 to 14) (size 15 to 20)
#    0.000    2.087    0.000    2.609    4.870   10.087 
#    0.000    0.000    1.913    0.000    0.000    0.000 
#    0.000    0.000    0.000    0.000    0.000    0.000 
#
# Total GULP energy -256507.972047 kJ/mol
# GULP energy per Si atom -5576.260262 kJ/mol
# Density = 2.234397 g / cm^3
# Si number density = 22.394939 Si / 1000 Ang^3
#
#
#
# Elastic Constant Matrix: (Units=GPa)
#
#
# Indices 1 2 3 4 5 6 
#
# 1 94.9328 32.8911 18.1397 0.0000 0.0000 0.0000
# 2 32.8911 94.9328 18.1397 0.0000 0.0000 0.0000
# 3 18.1397 18.1397 40.6493 0.0000 0.0000 0.0000
# 4 0.0000 0.0000 0.0000 22.4356 0.0000 0.0000
# 5 0.0000 0.0000 0.0000 0.0000 22.4356 0.0000
# 6 0.0000 0.0000 0.0000 0.0000 0.0000 30.3812
#
#
#
# Elastic Compliance Matrix: (Units=1/GPa)
#
#
# Indices 1 2 3 4 5 6 
#
# 1 0.012538 -0.003580 -0.003997 0.000000 0.000000 0.000000
# 2 -0.003580 0.012538 -0.003997 0.000000 0.000000 0.000000
# 3 -0.003997 -0.003997 0.028168 0.000000 0.000000 0.000000
# 4 0.000000 0.000000 0.000000 0.044572 0.000000 0.000000
# 5 0.000000 0.000000 0.000000 0.000000 0.044572 0.000000
# 6 0.000000 0.000000 0.000000 0.000000 0.000000 0.032915
#
#
# Mechanical properties :
#
#
# Convention : Reuss Voigt Hill
#
# Bulk Modulus (GPa) = 33.22886 40.98398 37.10642
# Shear Modulus (GPa) = 23.98256 25.80679 24.89468
#
# Velocity S-wave (km/s) = 3.27600 3.39831 3.33771
# Velocity P-wave (km/s) = 5.40180 5.80847 5.60882
#
# Compressibility (1/GPa) = 0.03009432
#
# Stress axis : x y z
#
# Youngs Moduli (GPa) = 79.75750 79.75750 35.50086
#
# Poissons Ratio (x) = 0.28555 0.14191
# Poissons Ratio (y) = 0.28555 0.14191
# Poissons Ratio (z) = 0.31882 0.31882
#
# Static dielectric constant tensor:
#      x y z
#    x 1.859030 0.000000 0.000000 
#    y 0.000000 1.859030 0.000000 
#    z 0.000000 0.000000 1.839120 
# 
# From -- ./inp_files/2960.got.cif
#   From: 2010.05.17/outbox.cif.g08.bks.cpg/sg122_2_cif.got.tgz:2960.got - 2010.05.20 11:37:33.
