data_PCOD9560264
_publ_section_title
;
Structure prediction by ZEFSAII (Michael W. Deem and Ramdas Pophale) SiO2 
 PCOD9560264
Probable space group: I -4 2 M
;
_chemical_formula_sum "Si O2"
_cell_formula_units_Z 112
_cell_length_a 15.084675
_cell_length_b 15.084675
_cell_length_c 24.098471
_cell_angle_alpha 90.000000
_cell_angle_beta 90.000000
_cell_angle_gamma 90.000000
_cell_volume 5483.544899
_symmetry_space_group_name_H-M "I -4 2 M"
_symmetry_group_IT_number 121
_symmetry_cell_setting 'tetragonal'
loop_
_space_group_symop_operation_xyz
x,y,z
y,-x,-z
-x,-y,z
-y,x,-z
x,-y,-z
-x,y,-z
-y,-x,z
y,x,z
1/2+x,1/2+y,1/2+z
1/2+y,1/2-x,1/2-z
1/2-x,1/2-y,1/2+z
1/2-y,1/2+x,1/2-z
1/2+x,1/2-y,1/2-z
1/2-x,1/2+y,1/2-z
1/2-y,1/2-x,1/2+z
1/2+y,1/2+x,1/2+z
loop_
_atom_site_type_symbol
_atom_site_label
_atom_site_fract_x
_atom_site_fract_y
_atom_site_fract_z
Si Si1 0.927789 0.567527 0.371726
Si Si2 0.453314 0.695757 0.274927
Si Si3 0.538626 0.200863 0.940664
Si Si4 0.005713 0.143087 0.891756
Si Si5 0.924368 0.375654 0.740262
Si Si6 0.315779 0.055863 0.054969
Si Si7 0.998225 0.148369 0.650869
O O1 0.896864 0.633314 0.323902
O O2 0.855997 0.502347 0.395390
O O3 0.000000 0.500000 0.346180
O O4 0.975643 0.620806 0.420035
O O5 0.381461 0.618540 0.276818
O O6 0.513745 0.682429 0.329100
O O7 0.404146 0.790551 0.276610
O O8 0.496204 0.687277 0.213675
O O9 0.635359 0.151931 0.945207
O O10 0.525133 0.277642 0.894739
O O11 0.500000 0.230801 0.000000
O O12 0.099477 0.099477 0.909828
O O13 0.957368 0.212215 0.932657
O O14 0.936915 0.063086 0.887011
O O15 0.882768 0.468588 0.757900
O O16 0.338589 0.000000 0.000000
O O17 0.072962 0.072962 0.649245
O O18 0.904161 0.095840 0.640795
#
# Coordination Sequence:
#
# PCOD9560264 Si02
#       7
#    16  16  16  16  16  16  16
#     4  10  19  35  56  87 123 158 195 241 304 366
#     4  10  21  39  62  88 120 159 204 249 301 372
#     4  11  22  39  63  91 122 161 209 256 301 359
#     4  10  23  43  64  87 121 163 205 257 317 374
#     4  11  20  33  56  91 124 160 193 244 310 371
#     4  11  23  40  65  93 118 161 212 256 309 370
#     4  10  22  41  65  91 125 169 207 246 305 374
#
# _framework density 20.424744
#
# number of rings (size 3 to 8) (size 9 to 14) (size 15 to 20)
#    0.000    1.571    4.286    1.286    2.000    3.429 
#    0.000    7.143    0.000    0.000    0.000    0.000 
#    0.000    0.000    0.000    0.000    0.000    0.000 
#
# Total GULP energy -311921.407591 kJ/mol
# GULP energy per Si atom -5570.025136 kJ/mol
# Density = 2.037826 g / cm^3
# Si number density = 20.424744 Si / 1000 Ang^3
#
#
#
# Elastic Constant Matrix: (Units=GPa)
#
#
# Indices 1 2 3 4 5 6 
#
# 1 73.9394 25.8245 25.1139 0.0000 0.0000 0.0000
# 2 25.8245 73.9411 25.1133 0.0000 0.0000 0.0000
# 3 25.1139 25.1133 73.5281 0.0000 0.0000 0.0000
# 4 0.0000 0.0000 0.0000 21.9662 0.0000 0.0000
# 5 0.0000 0.0000 0.0000 0.0000 21.9654 0.0000
# 6 0.0000 0.0000 0.0000 0.0000 0.0000 14.8572
#
#
#
# Elastic Compliance Matrix: (Units=1/GPa)
#
#
# Indices 1 2 3 4 5 6 
#
# 1 0.016444 -0.004339 -0.004135 0.000000 0.000000 0.000000
# 2 -0.004339 0.016444 -0.004134 0.000000 0.000000 0.000000
# 3 -0.004135 -0.004134 0.016425 0.000000 0.000000 0.000000
# 4 0.000000 0.000000 0.000000 0.045524 0.000000 0.000000
# 5 0.000000 0.000000 0.000000 0.000000 0.045526 0.000000
# 6 0.000000 0.000000 0.000000 0.000000 0.000000 0.067308
#
#
# Mechanical properties :
#
#
# Convention : Reuss Voigt Hill
#
# Bulk Modulus (GPa) = 41.49943 41.50134 41.50039
# Shear Modulus (GPa) = 20.75382 21.44822 21.10102
#
# Velocity S-wave (km/s) = 3.19111 3.24405 3.21769
# Velocity P-wave (km/s) = 5.82580 5.86473 5.84530
#
# Compressibility (1/GPa) = 0.02409672
#
# Stress axis : x y z
#
# Youngs Moduli (GPa) = 60.81090 60.81282 60.88448
#
# Poissons Ratio (x) = 0.26387 0.25174
# Poissons Ratio (y) = 0.26386 0.25172
# Poissons Ratio (z) = 0.25143 0.25142
#
# Static dielectric constant tensor:
#      x y z
#    x 1.779940 0.000000 0.000000 
#    y 0.000000 1.779940 0.000000 
#    z 0.000000 0.000000 1.792770 
# 
# From -- ./inp_files/7209.got.cif
#   From: 2010.05.17/outbox.cif.g08.bks.cpg/sg121_4_cif.got.tgz:7209.got - 2010.05.20 11:32:06.
