data_PCOD9560154
_publ_section_title
;
Structure prediction by ZEFSAII (Michael W. Deem and Ramdas Pophale) SiO2 
 PCOD9560154
Probable space group: I -4 2 M
;
_chemical_formula_sum "Si O2"
_cell_formula_units_Z 112
_cell_length_a 32.801739
_cell_length_b 32.801739
_cell_length_c 5.365807
_cell_angle_alpha 90.000000
_cell_angle_beta 90.000000
_cell_angle_gamma 90.000000
_cell_volume 5773.361942
_symmetry_space_group_name_H-M "I -4 2 M"
_symmetry_group_IT_number 121
_symmetry_cell_setting 'tetragonal'
loop_
_space_group_symop_operation_xyz
x,y,z
y,-x,-z
-x,-y,z
-y,x,-z
x,-y,-z
-x,y,-z
-y,-x,z
y,x,z
1/2+x,1/2+y,1/2+z
1/2+y,1/2-x,1/2-z
1/2-x,1/2-y,1/2+z
1/2-y,1/2+x,1/2-z
1/2+x,1/2-y,1/2-z
1/2-x,1/2+y,1/2-z
1/2-y,1/2-x,1/2+z
1/2+y,1/2+x,1/2+z
loop_
_atom_site_type_symbol
_atom_site_label
_atom_site_fract_x
_atom_site_fract_y
_atom_site_fract_z
Si Si1 0.132465 0.571042 0.577730
Si Si2 0.220965 0.843437 0.207356
Si Si3 0.347077 0.814038 0.541634
Si Si4 0.183863 0.119025 0.292500
Si Si5 0.022610 0.182649 0.252015
Si Si6 0.915206 0.977964 0.249625
Si Si7 0.042945 0.388669 0.426814
O O1 0.160446 0.610796 0.554398
O O2 0.084251 0.584269 0.590743
O O3 0.134237 0.542764 0.336184
O O4 0.141195 0.550742 0.841722
O O5 0.202679 0.797322 0.217156
O O6 0.267919 0.848478 0.136277
O O7 0.209500 0.863512 0.472769
O O8 0.198162 0.864660 0.975814
O O9 0.334141 0.817759 0.252374
O O10 0.138556 0.138556 0.332164
O O11 0.189530 0.070715 0.277301
O O12 0.019747 0.133440 0.248495
O O13 0.000000 0.197815 0.500000
O O14 0.000000 0.197360 0.000000
O O15 0.932564 0.932564 0.248789
O O16 0.929630 0.000000 0.500000
O O17 0.929912 0.000000 0.000000
O O18 0.000000 0.409749 0.500000
#
# Coordination Sequence:
#
# PCOD9560154 Si02
#       7
#    16  16  16  16  16  16  16
#     4  10  19  35  53  84 112 152 202 226 296 349
#     4  10  23  38  59  91 117 150 196 235 294 362
#     4  12  21  38  63  86 121 158 186 239 286 356
#     4  10  20  39  60  82 114 152 190 239 296 353
#     4  10  20  34  56  82 104 140 188 236 288 339
#     4  10  20  31  44  67  97 131 177 223 274 342
#     4  10  18  32  56  81 112 149 197 248 275 329
#
# _framework density 19.399443000000002
#
# number of rings (size 3 to 8) (size 9 to 14) (size 15 to 20)
#    0.000    1.714    2.857    3.000    0.000    1.429 
#    0.000    4.286    0.000   29.143    0.000    0.000 
#    0.000    0.000    0.000    0.000    0.000    0.000 
#
# Total GULP energy -311760.775452 kJ/mol
# GULP energy per Si atom -5567.156705 kJ/mol
# Density = 1.935529 g / cm^3
# Si number density = 19.399443 Si / 1000 Ang^3
#
#
#
# Elastic Constant Matrix: (Units=GPa)
#
#
# Indices 1 2 3 4 5 6 
#
# 1 2.9488 84.5011 3.7372 0.0000 0.0000 0.0000
# 2 84.5011 2.9677 3.7513 0.0000 0.0000 0.0000
# 3 3.7372 3.7513 136.2682 0.0000 0.0000 0.0000
# 4 0.0000 0.0000 0.0000 17.5585 0.0000 0.0000
# 5 0.0000 0.0000 0.0000 0.0000 17.5565 0.0000
# 6 0.0000 0.0000 0.0000 0.0000 0.0000 3.9913
#
#
#
# Elastic Compliance Matrix: (Units=1/GPa)
#
#
# Indices 1 2 3 4 5 6 
#
# 1 -0.000403 0.011862 -0.000316 0.000000 0.000000 0.000000
# 2 0.011862 -0.000400 -0.000314 0.000000 0.000000 0.000000
# 3 -0.000316 -0.000314 0.007356 0.000000 0.000000 0.000000
# 4 0.000000 0.000000 0.000000 0.056952 0.000000 0.000000
# 5 0.000000 0.000000 0.000000 0.000000 0.056959 0.000000
# 6 0.000000 0.000000 0.000000 0.000000 0.000000 0.250543
#
#
# Mechanical properties :
#
#
# Convention : Reuss Voigt Hill
#
# Bulk Modulus (GPa) = 34.46157 36.24043 35.35100
# Shear Modulus (GPa) = 13.95806 11.16760 12.56283
#
# Velocity S-wave (km/s) = 2.68528 2.40191 2.54753
# Velocity P-wave (km/s) = 5.23613 5.13945 5.18801
#
# Compressibility (1/GPa) = 0.02901783
#
# Stress axis : x y z
#
# Youngs Moduli (GPa) = -2483.89713 -2499.73017 135.94758
#
# Poissons Ratio (x) = 29.65223 0.04289
# Poissons Ratio (y) = 29.46441 0.04273
# Poissons Ratio (z) = -0.78370 -0.78570
#
# Static dielectric constant tensor:
#      x y z
#    x 1.786290 0.000000 0.000000 
#    y 0.000000 1.786240 0.000000 
#    z 0.000000 0.000000 1.728940 
# 
# From -- ./inp_files/720.got.cif
#   From: 2010.05.17/outbox.cif.g08.bks.cpg/sg121_1_cif.got.tgz:720.got - 2010.05.20 11:32:06.
