data_PCOD9560692
_publ_section_title
;
Structure prediction by ZEFSAII (Michael W. Deem and Ramdas Pophale) SiO2 
 PCOD9560692
Probable space group: I -4 2 D
;
_chemical_formula_sum "Si O2"
_cell_formula_units_Z 120
_cell_length_a 16.459919
_cell_length_b 16.459919
_cell_length_c 17.947316
_cell_angle_alpha 90.000000
_cell_angle_beta 90.000000
_cell_angle_gamma 90.000000
_cell_volume 4862.447183
_symmetry_space_group_name_H-M "I -4 2 D"
_symmetry_group_IT_number 122
_symmetry_cell_setting 'tetragonal'
loop_
_space_group_symop_operation_xyz
x,y,z
y,-x,-z
-x,-y,z
-y,x,-z
x,1/2-y,1/4-z
-x,1/2+y,1/4-z
-y,1/2-x,1/4+z
y,1/2+x,1/4+z
1/2+x,1/2+y,1/2+z
1/2+y,1/2-x,1/2-z
1/2-x,1/2-y,1/2+z
1/2-y,1/2+x,1/2-z
1/2+x,-y,3/4-z
1/2-x,y,3/4-z
1/2-y,-x,3/4+z
1/2+y,x,3/4+z
loop_
_atom_site_type_symbol
_atom_site_label
_atom_site_fract_x
_atom_site_fract_y
_atom_site_fract_z
Si Si1 0.418839 0.295203 0.553318
Si Si2 0.428513 0.943056 0.153433
Si Si3 0.500000 0.000000 0.914230
Si Si4 0.000986 0.804606 0.698135
Si Si5 0.121712 0.092864 0.925256
Si Si6 0.842612 0.503393 0.522930
Si Si7 0.676191 0.167490 0.530198
Si Si8 0.651089 0.285801 0.040414
O O1 0.381429 0.250000 0.625000
O O2 0.507335 0.330703 0.577708
O O3 0.380050 0.367909 0.506562
O O4 0.435409 0.222758 0.495465
O O5 0.470104 0.887631 0.089353
O O6 0.382438 0.878710 0.205599
O O7 0.500000 0.000000 0.180419
O O8 0.365624 0.997869 0.108770
O O9 0.532110 0.929224 0.858463
O O10 0.578506 0.008811 0.968678
O O11 0.981662 0.750000 0.625000
O O12 0.923416 0.812701 0.748772
O O13 0.077414 0.766524 0.741985
O O14 0.160193 0.157370 0.867898
O O15 0.805821 0.591350 0.505032
O O16 0.758080 0.214826 0.510561
O O17 0.656120 0.250000 0.125000
#
# Coordination Sequence:
#
# PCOD9560692 Si02
#       8
#    16  16   8  16  16  16  16  16
#     4  12  24  42  61  99 134 177 220 273 330 403
#     4  10  16  36  61  88 112 160 215 259 308 381
#     4  10  18  37  62  92 122 176 217 266 316 381
#     4   9  20  40  61  88 124 160 211 273 318 378
#     4  11  24  39  66  93 137 176 214 268 331 397
#     4  11  21  34  65  94 123 165 223 266 308 397
#     4  11  20  39  62  92 126 167 213 262 329 395
#     4   9  22  36  59  86 120 168 206 258 331 389
#
# _framework density 24.678930999999999
#
# number of rings (size 3 to 8) (size 9 to 14) (size 15 to 20)
#    0.000    1.867    4.667    2.400    1.867    0.000 
#    4.800    0.000    0.000    0.800    0.000    0.000 
#    0.000    0.000    0.000    0.000    0.000    0.000 
#
# Total GULP energy -335360.976831 kJ/mol
# GULP energy per Si atom -5589.349614 kJ/mol
# Density = 2.462276 g / cm^3
# Si number density = 24.678931 Si / 1000 Ang^3
#
#
#
# Elastic Constant Matrix: (Units=GPa)
#
#
# Indices 1 2 3 4 5 6 
#
# 1 91.6446 16.7386 23.0154 0.0000 0.0000 0.0000
# 2 16.7386 91.6446 23.0154 0.0000 0.0000 0.0000
# 3 23.0154 23.0154 73.1199 0.0000 0.0000 0.0000
# 4 0.0000 0.0000 0.0000 19.5937 0.0000 0.0000
# 5 0.0000 0.0000 0.0000 0.0000 19.5937 0.0000
# 6 0.0000 0.0000 0.0000 0.0000 0.0000 28.2488
#
#
#
# Elastic Compliance Matrix: (Units=1/GPa)
#
#
# Indices 1 2 3 4 5 6 
#
# 1 0.012000 -0.001350 -0.003352 0.000000 0.000000 0.000000
# 2 -0.001350 0.012000 -0.003352 0.000000 0.000000 0.000000
# 3 -0.003352 -0.003352 0.015787 0.000000 0.000000 0.000000
# 4 0.000000 0.000000 0.000000 0.051037 0.000000 0.000000
# 5 0.000000 0.000000 0.000000 0.000000 0.051037 0.000000
# 6 0.000000 0.000000 0.000000 0.000000 0.000000 0.035400
#
#
# Mechanical properties :
#
#
# Convention : Reuss Voigt Hill
#
# Bulk Modulus (GPa) = 42.23356 42.43863 42.33610
# Shear Modulus (GPa) = 24.84325 26.39655 25.61990
#
# Velocity S-wave (km/s) = 3.17623 3.27402 3.22550
# Velocity P-wave (km/s) = 5.53187 5.61479 5.57349
#
# Compressibility (1/GPa) = 0.02367785
#
# Stress axis : x y z
#
# Youngs Moduli (GPa) = 83.33220 83.33220 63.34520
#
# Poissons Ratio (x) = 0.11249 0.21235
# Poissons Ratio (y) = 0.11249 0.21235
# Poissons Ratio (z) = 0.27935 0.27935
#
# Static dielectric constant tensor:
#      x y z
#    x 1.994140 0.000000 0.000000 
#    y 0.000000 1.994140 0.000000 
#    z 0.000000 0.000000 1.973940 
# 
# From -- ./inp_files/7502.got.cif
#   From: 2010.05.17/outbox.cif.g08.bks.cpg/sg122_4_cif.got.tgz:7502.got - 2010.05.20 11:37:33.
