data_PCOD9560215
_publ_section_title
;
Structure prediction by ZEFSAII (Michael W. Deem and Ramdas Pophale) SiO2 
 PCOD9560215
Probable space group: I -4 2 M
;
_chemical_formula_sum "Si O2"
_cell_formula_units_Z 80
_cell_length_a 16.677352
_cell_length_b 16.677352
_cell_length_c 14.625912
_cell_angle_alpha 90.000000
_cell_angle_beta 90.000000
_cell_angle_gamma 90.000000
_cell_volume 4067.964428
_symmetry_space_group_name_H-M "I -4 2 M"
_symmetry_group_IT_number 121
_symmetry_cell_setting 'tetragonal'
loop_
_space_group_symop_operation_xyz
x,y,z
y,-x,-z
-x,-y,z
-y,x,-z
x,-y,-z
-x,y,-z
-y,-x,z
y,x,z
1/2+x,1/2+y,1/2+z
1/2+y,1/2-x,1/2-z
1/2-x,1/2-y,1/2+z
1/2-y,1/2+x,1/2-z
1/2+x,1/2-y,1/2-z
1/2-x,1/2+y,1/2-z
1/2-y,1/2-x,1/2+z
1/2+y,1/2+x,1/2+z
loop_
_atom_site_type_symbol
_atom_site_label
_atom_site_fract_x
_atom_site_fract_y
_atom_site_fract_z
Si Si1 0.942285 0.192635 0.788218
Si Si2 0.309995 0.554278 0.086971
Si Si3 0.666255 0.195438 0.993602
Si Si4 0.903304 0.766309 0.882181
Si Si5 0.808722 0.327764 0.790906
O O1 0.882688 0.117313 0.802032
O O2 0.983529 0.186727 0.687688
O O3 0.886359 0.271211 0.782735
O O4 0.008292 0.200774 0.866161
O O5 0.375487 0.624514 0.091701
O O6 0.226603 0.598283 0.062305
O O7 0.329277 0.500000 0.000000
O O8 0.734690 0.265311 0.992774
O O9 0.712256 0.117553 0.030127
O O10 0.633284 0.188242 0.891227
O O11 0.839875 0.839875 0.881979
O O12 0.883735 0.709314 0.794783
O O13 0.734545 0.265456 0.791242
#
# Coordination Sequence:
#
# PCOD9560215 Si02
#       5
#    16  16  16  16  16
#     4  10  20  33  51  78 112 139 172 226 278 323
#     4  10  19  32  50  78 112 143 178 224 273 329
#     4   9  17  31  52  74  97 135 190 229 257 314
#     4  10  19  33  53  77 106 144 183 220 271 327
#     4   9  17  32  52  74 101 136 180 226 264 309
#
# _framework density 19.665856000000002
#
# number of rings (size 3 to 8) (size 9 to 14) (size 15 to 20)
#    0.000    2.400    2.000    1.200    0.000    3.800 
#    0.000    2.000    0.000    0.600    0.000    7.000 
#    0.000    0.000    0.000    0.000    0.000    0.000 
#
# Total GULP energy -223010.163999 kJ/mol
# GULP energy per Si atom -5575.254100 kJ/mol
# Density = 1.962110 g / cm^3
# Si number density = 19.665856 Si / 1000 Ang^3
#
#
#
# Elastic Constant Matrix: (Units=GPa)
#
#
# Indices 1 2 3 4 5 6 
#
# 1 -7.0683 40.4664 -0.3002 0.0000 0.0000 0.0000
# 2 40.4664 -7.0547 -0.2998 0.0000 0.0000 0.0000
# 3 -0.3002 -0.2998 34.6121 0.0000 0.0000 0.0000
# 4 0.0000 0.0000 0.0000 21.1928 0.0000 0.0000
# 5 0.0000 0.0000 0.0000 0.0000 21.1924 0.0000
# 6 0.0000 0.0000 0.0000 0.0000 0.0000 11.2739
#
#
#
# Elastic Compliance Matrix: (Units=1/GPa)
#
#
# Indices 1 2 3 4 5 6 
#
# 1 0.004446 0.025490 0.000259 0.000000 0.000000 0.000000
# 2 0.025490 0.004454 0.000260 0.000000 0.000000 0.000000
# 3 0.000259 0.000260 0.028896 0.000000 0.000000 0.000000
# 4 0.000000 0.000000 0.000000 0.047186 0.000000 0.000000
# 5 0.000000 0.000000 0.000000 0.000000 0.047187 0.000000
# 6 0.000000 0.000000 0.000000 0.000000 0.000000 0.088700
#
#
# Mechanical properties :
#
#
# Convention : Reuss Voigt Hill
#
# Bulk Modulus (GPa) = 11.13400 11.13577 11.13489
# Shear Modulus (GPa) = 25.15236 9.44001 17.29619
#
# Velocity S-wave (km/s) = 3.58017 2.19331 2.96886
# Velocity P-wave (km/s) = 4.77117 3.47692 4.17451
#
# Compressibility (1/GPa) = 0.08981494
#
# Stress axis : x y z
#
# Youngs Moduli (GPa) = 224.93381 224.50165 34.60674
#
# Poissons Ratio (x) = -5.72262 -0.00898
# Poissons Ratio (y) = -5.73363 -0.00899
# Poissons Ratio (z) = -0.05834 -0.05830
#
# Static dielectric constant tensor:
#      x y z
#    x 1.687590 0.000000 0.000000 
#    y 0.000000 1.687590 0.000000 
#    z 0.000000 0.000000 1.762020 
# 
# From -- ./inp_files/4240.got.cif
#   From: 2010.05.17/outbox.cif.g08.bks.cpg/sg121_3_cif.got.tgz:4240.got - 2010.05.20 11:32:06.
