data_PCOD9560242
_publ_section_title
;
Structure prediction by ZEFSAII (Michael W. Deem and Ramdas Pophale) SiO2 
 PCOD9560242
Probable space group: I -4 2 M
;
_chemical_formula_sum "Si O2"
_cell_formula_units_Z 128
_cell_length_a 24.172570
_cell_length_b 24.172570
_cell_length_c 11.409437
_cell_angle_alpha 90.000000
_cell_angle_beta 90.000000
_cell_angle_gamma 90.000000
_cell_volume 6666.683964
_symmetry_space_group_name_H-M "I -4 2 M"
_symmetry_group_IT_number 121
_symmetry_cell_setting 'tetragonal'
loop_
_space_group_symop_operation_xyz
x,y,z
y,-x,-z
-x,-y,z
-y,x,-z
x,-y,-z
-x,y,-z
-y,-x,z
y,x,z
1/2+x,1/2+y,1/2+z
1/2+y,1/2-x,1/2-z
1/2-x,1/2-y,1/2+z
1/2-y,1/2+x,1/2-z
1/2+x,1/2-y,1/2-z
1/2-x,1/2+y,1/2-z
1/2-y,1/2-x,1/2+z
1/2+y,1/2+x,1/2+z
loop_
_atom_site_type_symbol
_atom_site_label
_atom_site_fract_x
_atom_site_fract_y
_atom_site_fract_z
Si Si1 0.124237 0.031445 0.621315
Si Si2 0.404682 0.891026 0.644940
Si Si3 0.458882 0.243986 0.103310
Si Si4 0.373677 0.287037 0.384955
Si Si5 0.514511 0.157369 0.268707
Si Si6 0.377729 0.468292 0.378150
Si Si7 0.647278 0.797695 0.185226
Si Si8 0.810138 0.610597 0.558047
O O1 0.086980 0.086980 0.626841
O O2 0.116163 0.002524 0.749935
O O3 0.108679 0.000000 0.500000
O O4 0.189966 0.041580 0.612662
O O5 0.470017 0.882255 0.667613
O O6 0.379076 0.950553 0.675118
O O7 0.377232 0.848087 0.737206
O O8 0.389946 0.866578 0.518362
O O9 0.482120 0.209431 0.213317
O O10 0.396758 0.222684 0.089164
O O11 0.500000 0.228911 0.000000
O O12 0.324908 0.324908 0.435669
O O13 0.423529 0.328842 0.357397
O O14 0.349184 0.253833 0.273244
O O15 0.396389 0.240891 0.471799
O O16 0.559451 0.183466 0.355440
O O17 0.366276 0.500000 0.500000
O O18 0.433794 0.433794 0.398028
O O19 0.696244 0.829661 0.120483
#
# Coordination Sequence:
#
# PCOD9560242 Si02
#       8
#    16  16  16  16  16  16  16  16
#     4  10  22  40  62  91 123 161 205 250 309 379
#     4   9  19  33  50  80 112 149 193 243 299 362
#     4  10  19  33  57  80 108 150 198 246 299 357
#     4  10  21  36  55  82 115 150 195 253 312 371
#     4  10  20  34  55  82 116 153 197 250 302 371
#     4  10  22  39  63  93 125 158 199 251 308 375
#     4   9  18  33  52  76 108 146 190 242 298 361
#     4  10  20  34  56  81 112 152 203 251 308 372
#
# _framework density 19.199950000000001
#
# number of rings (size 3 to 8) (size 9 to 14) (size 15 to 20)
#    0.000    2.250    1.250    1.125    1.750    1.500 
#    0.000    1.250    0.000    4.500    0.000    0.000 
#    0.000    0.000    0.000    0.000    0.000    0.000 
#
# Total GULP energy -356277.784688 kJ/mol
# GULP energy per Si atom -5566.840386 kJ/mol
# Density = 1.915625 g / cm^3
# Si number density = 19.199950 Si / 1000 Ang^3
#
#
#
# Elastic Constant Matrix: (Units=GPa)
#
#
# Indices 1 2 3 4 5 6 
#
# 1 54.3398 28.2504 22.4681 0.0000 0.0000 0.0000
# 2 28.2504 54.3398 22.4681 0.0000 0.0000 0.0000
# 3 22.4681 22.4681 84.2838 0.0000 0.0000 0.0000
# 4 0.0000 0.0000 0.0000 26.2688 0.0000 0.0000
# 5 0.0000 0.0000 0.0000 0.0000 26.2688 0.0000
# 6 0.0000 0.0000 0.0000 0.0000 0.0000 16.6470
#
#
#
# Elastic Compliance Matrix: (Units=1/GPa)
#
#
# Indices 1 2 3 4 5 6 
#
# 1 0.026246 -0.012084 -0.003775 0.000000 0.000000 0.000000
# 2 -0.012084 0.026246 -0.003775 0.000000 0.000000 0.000000
# 3 -0.003775 -0.003775 0.013877 0.000000 0.000000 0.000000
# 4 0.000000 0.000000 0.000000 0.038068 0.000000 0.000000
# 5 0.000000 0.000000 0.000000 0.000000 0.038068 0.000000
# 6 0.000000 0.000000 0.000000 0.000000 0.000000 0.060071
#
#
# Mechanical properties :
#
#
# Convention : Reuss Voigt Hill
#
# Bulk Modulus (GPa) = 36.89970 37.70405 37.30188
# Shear Modulus (GPa) = 19.92997 21.82202 20.87600
#
# Velocity S-wave (km/s) = 3.22533 3.37496 3.30099
# Velocity P-wave (km/s) = 5.75593 5.90486 5.83087
#
# Compressibility (1/GPa) = 0.02710049
#
# Stress axis : x y z
#
# Youngs Moduli (GPa) = 38.10123 38.10123 72.05923
#
# Poissons Ratio (x) = 0.46041 0.27204
# Poissons Ratio (y) = 0.46041 0.27204
# Poissons Ratio (z) = 0.14384 0.14384
#
# Static dielectric constant tensor:
#      x y z
#    x 1.667960 0.000000 0.000000 
#    y 0.000000 1.667960 0.000000 
#    z 0.000000 0.000000 1.735970 
# 
# From -- ./inp_files/3562.got.cif
#   From: 2010.05.17/outbox.cif.g08.bks.cpg/sg121_2_cif.got.tgz:3562.got - 2010.05.20 11:32:06.
