data_PCOD9560098
_publ_section_title
;
Structure prediction by ZEFSAII (Michael W. Deem and Ramdas Pophale) SiO2 
 PCOD9560098
Probable space group: I -4 2 M
;
_chemical_formula_sum "Si O2"
_cell_formula_units_Z 112
_cell_length_a 22.414776
_cell_length_b 22.414776
_cell_length_c 9.784810
_cell_angle_alpha 90.000000
_cell_angle_beta 90.000000
_cell_angle_gamma 90.000000
_cell_volume 4916.105602
_symmetry_space_group_name_H-M "I -4 2 M"
_symmetry_group_IT_number 121
_symmetry_cell_setting 'tetragonal'
loop_
_space_group_symop_operation_xyz
x,y,z
y,-x,-z
-x,-y,z
-y,x,-z
x,-y,-z
-x,y,-z
-y,-x,z
y,x,z
1/2+x,1/2+y,1/2+z
1/2+y,1/2-x,1/2-z
1/2-x,1/2-y,1/2+z
1/2-y,1/2+x,1/2-z
1/2+x,1/2-y,1/2-z
1/2-x,1/2+y,1/2-z
1/2-y,1/2-x,1/2+z
1/2+y,1/2+x,1/2+z
loop_
_atom_site_type_symbol
_atom_site_label
_atom_site_fract_x
_atom_site_fract_y
_atom_site_fract_z
Si Si1 0.260611 0.906952 0.175043
Si Si2 0.522917 0.791041 0.792846
Si Si3 0.931310 0.163430 0.957746
Si Si4 0.798427 0.707430 0.649799
Si Si5 0.590925 0.147655 0.458152
Si Si6 0.479412 0.922491 0.820493
Si Si7 0.212515 0.878926 0.678545
O O1 0.249979 0.966147 0.262278
O O2 0.259085 0.847497 0.261286
O O3 0.214809 0.902301 0.051277
O O4 0.326712 0.919254 0.109588
O O5 0.554707 0.810138 0.648722
O O6 0.499393 0.854632 0.841501
O O7 0.571282 0.756287 0.884754
O O8 0.898369 0.101632 0.987187
O O9 0.915734 0.180761 0.801956
O O10 0.000000 0.162037 0.000000
O O11 0.753851 0.753851 0.577304
O O12 0.836200 0.660386 0.562816
O O13 0.757180 0.668045 0.750029
O O14 0.575120 0.080797 0.412175
O O15 0.544353 0.956160 0.819751
O O16 0.160783 0.839218 0.607918
#
# Coordination Sequence:
#
# PCOD9560098 Si02
#       7
#    16  16  16  16  16  16  16
#     4  12  19  31  50  76  98 132 171 207 250 301
#     4  10  17  30  53  70  95 128 172 206 248 297
#     4  11  20  32  50  74  99 130 164 203 250 310
#     4  10  20  31  46  71  97 127 168 212 254 299
#     4  10  19  32  48  69 100 133 165 212 254 297
#     4   9  18  32  50  70  95 133 174 211 250 296
#     4   9  18  33  51  70  95 126 165 206 249 297
#
# _framework density 22.782260000000001
#
# number of rings (size 3 to 8) (size 9 to 14) (size 15 to 20)
#    0.000    1.857    5.714    0.857    0.000    0.714 
#    0.000    0.714    0.000    3.429    0.000    0.000 
#    0.000    0.000    0.000    0.000    0.000    1.429 
#
# Total GULP energy -312253.755779 kJ/mol
# GULP energy per Si atom -5575.959925 kJ/mol
# Density = 2.273041 g / cm^3
# Si number density = 22.782260 Si / 1000 Ang^3
#
#
#
# Elastic Constant Matrix: (Units=GPa)
#
#
# Indices 1 2 3 4 5 6 
#
# 1 78.2009 70.7588 17.4067 0.0000 0.0000 0.0000
# 2 70.7588 78.2193 17.4072 0.0000 0.0000 0.0000
# 3 17.4067 17.4072 31.7500 0.0000 0.0000 0.0000
# 4 0.0000 0.0000 0.0000 11.0023 0.0000 0.0000
# 5 0.0000 0.0000 0.0000 0.0000 11.0019 0.0000
# 6 0.0000 0.0000 0.0000 0.0000 0.0000 53.6422
#
#
#
# Elastic Compliance Matrix: (Units=1/GPa)
#
#
# Indices 1 2 3 4 5 6 
#
# 1 0.070961 -0.063253 -0.004225 0.000000 0.000000 0.000000
# 2 -0.063253 0.070943 -0.004217 0.000000 0.000000 0.000000
# 3 -0.004225 -0.004217 0.036125 0.000000 0.000000 0.000000
# 4 0.000000 0.000000 0.000000 0.090890 0.000000 0.000000
# 5 0.000000 0.000000 0.000000 0.000000 0.090893 0.000000
# 6 0.000000 0.000000 0.000000 0.000000 0.000000 0.018642
#
#
# Mechanical properties :
#
#
# Convention : Reuss Voigt Hill
#
# Bulk Modulus (GPa) = 28.86957 44.36842 36.61899
# Shear Modulus (GPa) = 9.37398 20.63577 15.00487
#
# Velocity S-wave (km/s) = 2.03065 3.01289 2.56915
# Velocity P-wave (km/s) = 4.26585 5.62322 4.99090
#
# Compressibility (1/GPa) = 0.03463855
#
# Stress axis : x y z
#
# Youngs Moduli (GPa) = 14.09215 14.09581 27.68203
#
# Poissons Ratio (x) = 0.89160 0.11696
# Poissons Ratio (y) = 0.89137 0.11674
# Poissons Ratio (z) = 0.05954 0.05944
#
# Static dielectric constant tensor:
#      x y z
#    x 1.904060 0.000000 0.000000 
#    y 0.000000 1.904060 0.000000 
#    z 0.000000 0.000000 1.948170 
# 
# From -- ./inp_files/5622.got.cif
#   From: 2010.05.17/outbox.cif.g08.bks.cpg/sg121_3_cif.got.tgz:5622.got - 2010.05.20 11:32:06.
