data_PCOD9560480
_publ_section_title
;
Structure prediction by ZEFSAII (Michael W. Deem and Ramdas Pophale) SiO2 
 PCOD9560480
Probable space group: I -4 2 M
;
_chemical_formula_sum "Si O2"
_cell_formula_units_Z 80
_cell_length_a 11.700483
_cell_length_b 11.700483
_cell_length_c 27.202658
_cell_angle_alpha 90.000000
_cell_angle_beta 90.000000
_cell_angle_gamma 90.000000
_cell_volume 3724.079310
_symmetry_space_group_name_H-M "I -4 2 M"
_symmetry_group_IT_number 121
_symmetry_cell_setting 'tetragonal'
loop_
_space_group_symop_operation_xyz
x,y,z
y,-x,-z
-x,-y,z
-y,x,-z
x,-y,-z
-x,y,-z
-y,-x,z
y,x,z
1/2+x,1/2+y,1/2+z
1/2+y,1/2-x,1/2-z
1/2-x,1/2-y,1/2+z
1/2-y,1/2+x,1/2-z
1/2+x,1/2-y,1/2-z
1/2-x,1/2+y,1/2-z
1/2-y,1/2-x,1/2+z
1/2+y,1/2+x,1/2+z
loop_
_atom_site_type_symbol
_atom_site_label
_atom_site_fract_x
_atom_site_fract_y
_atom_site_fract_z
Si Si1 0.384549 0.198094 0.533414
Si Si2 0.480064 0.865940 0.093346
Si Si3 0.256148 0.930096 0.310406
Si Si4 0.739809 0.561413 0.392274
Si Si5 0.447631 0.261753 0.707170
O O1 0.500000 0.195027 0.500000
O O2 0.282720 0.282720 0.517454
O O3 0.346044 0.069972 0.549074
O O4 0.436701 0.248676 0.584203
O O5 0.507467 0.787257 0.139347
O O6 0.344384 0.863947 0.085756
O O7 0.500000 0.000000 0.106952
O O8 0.140809 0.859192 0.316330
O O9 0.357935 0.839894 0.301125
O O10 0.245895 0.007612 0.262420
O O11 0.621938 0.621938 0.404644
O O12 0.750457 0.546375 0.333649
O O13 0.380299 0.380299 0.699290
#
# Coordination Sequence:
#
# PCOD9560480 Si02
#       5
#    16  16  16  16  16
#     4  11  23  41  66  97 129 167 212 269 336 401
#     4  10  21  39  61  85 121 166 213 260 320 390
#     4  11  22  36  56  82 116 162 214 265 320 384
#     4  11  23  39  61  92 129 168 212 269 332 393
#     4  11  23  37  57  87 124 170 223 279 337 394
#
# _framework density 21.481819000000002
#
# number of rings (size 3 to 8) (size 9 to 14) (size 15 to 20)
#    0.000    1.200    4.000    3.600    0.000    9.800 
#    0.000    0.000    0.000    1.800    0.000    0.000 
#    0.000   16.000    0.000    0.000    0.000    0.000 
#
# Total GULP energy -223421.713323 kJ/mol
# GULP energy per Si atom -5585.542833 kJ/mol
# Density = 2.143293 g / cm^3
# Si number density = 21.481819 Si / 1000 Ang^3
#
#
#
# Elastic Constant Matrix: (Units=GPa)
#
#
# Indices 1 2 3 4 5 6 
#
# 1 60.2279 38.0744 33.0341 0.0000 0.0000 0.0000
# 2 38.0744 60.2251 33.0346 0.0000 0.0000 0.0000
# 3 33.0341 33.0346 110.4324 0.0000 0.0000 0.0000
# 4 0.0000 0.0000 0.0000 27.5538 0.0000 0.0000
# 5 0.0000 0.0000 0.0000 0.0000 27.5541 0.0000
# 6 0.0000 0.0000 0.0000 0.0000 0.0000 -14.4877
#
#
#
# Elastic Compliance Matrix: (Units=1/GPa)
#
#
# Indices 1 2 3 4 5 6 
#
# 1 0.028937 -0.016205 -0.003808 0.000000 0.000000 0.000000
# 2 -0.016205 0.028938 -0.003809 0.000000 0.000000 0.000000
# 3 -0.003808 -0.003809 0.011334 0.000000 0.000000 0.000000
# 4 0.000000 0.000000 0.000000 0.036293 0.000000 0.000000
# 5 0.000000 0.000000 0.000000 0.000000 0.036292 0.000000
# 6 0.000000 0.000000 0.000000 0.000000 0.000000 -0.069024
#
#
# Mechanical properties :
#
#
# Convention : Reuss Voigt Hill
#
# Bulk Modulus (GPa) = 46.37301 48.79683 47.58492
# Shear Modulus (GPa) = 39.18402 16.57353 27.87877
#
# Velocity S-wave (km/s) = 4.27553 2.78063 3.60639
# Velocity P-wave (km/s) = 6.78288 5.75099 6.28814
#
# Compressibility (1/GPa) = 0.02156427
#
# Stress axis : x y z
#
# Youngs Moduli (GPa) = 34.55819 34.55608 88.22981
#
# Poissons Ratio (x) = 0.55997 0.33602
# Poissons Ratio (y) = 0.56001 0.33609
# Poissons Ratio (z) = 0.13161 0.13163
#
# Static dielectric constant tensor:
#      x y z
#    x 1.777450 0.000000 0.000000 
#    y 0.000000 1.777450 0.000000 
#    z 0.000000 0.000000 1.869260 
# 
# From -- ./inp_files/8081.got.cif
#   From: 2010.05.17/outbox.cif.g08.bks.cpg/sg121_5_cif.got.tgz:8081.got - 2010.05.20 11:32:06.
