data_PCOD9560334
_publ_section_title
;
Structure prediction by ZEFSAII (Michael W. Deem and Ramdas Pophale) SiO2 
 PCOD9560334
Probable space group: I -4 2 M
;
_chemical_formula_sum "Si O2"
_cell_formula_units_Z 76
_cell_length_a 17.300252
_cell_length_b 17.300252
_cell_length_c 13.133508
_cell_angle_alpha 90.000000
_cell_angle_beta 90.000000
_cell_angle_gamma 90.000000
_cell_volume 3930.842124
_symmetry_space_group_name_H-M "I -4 2 M"
_symmetry_group_IT_number 121
_symmetry_cell_setting 'tetragonal'
loop_
_space_group_symop_operation_xyz
x,y,z
y,-x,-z
-x,-y,z
-y,x,-z
x,-y,-z
-x,y,-z
-y,-x,z
y,x,z
1/2+x,1/2+y,1/2+z
1/2+y,1/2-x,1/2-z
1/2-x,1/2-y,1/2+z
1/2-y,1/2+x,1/2-z
1/2+x,1/2-y,1/2-z
1/2-x,1/2+y,1/2-z
1/2-y,1/2-x,1/2+z
1/2+y,1/2+x,1/2+z
loop_
_atom_site_type_symbol
_atom_site_label
_atom_site_fract_x
_atom_site_fract_y
_atom_site_fract_z
Si Si1 0.665685 0.793086 0.825956
Si Si2 0.000000 0.500000 0.000000
Si Si3 0.386116 0.940140 0.268667
Si Si4 0.874372 0.000000 0.000000
Si Si5 0.604854 0.731291 0.616340
Si Si6 0.870615 0.609337 0.007750
O O1 0.744810 0.744810 0.834320
O O2 0.670563 0.883895 0.794450
O O3 0.617536 0.754820 0.733607
O O4 0.621220 0.799017 0.932922
O O5 0.060040 0.561746 0.046740
O O6 0.471939 0.900463 0.265359
O O7 0.357062 0.934530 0.385481
O O8 0.821081 0.968364 0.090544
O O9 0.930117 0.069884 0.032515
O O10 0.680279 0.680279 0.589130
O O11 0.603182 0.806432 0.545445
#
# Coordination Sequence:
#
# PCOD9560334 Si02
#       6
#    16   4  16   8  16  16
#     4  10  21  35  52  78 113 152 190 225 270 336
#     4  12  22  32  52  80 104 136 180 230 280 328
#     4  10  20  35  57  85 113 143 184 233 286 339
#     4   9  17  32  57  85 110 142 186 235 287 334
#     4   9  19  35  54  79 112 148 185 229 281 333
#     4  11  20  33  52  75 109 147 180 220 276 336
#
# _framework density 19.334278999999999
#
# number of rings (size 3 to 8) (size 9 to 14) (size 15 to 20)
#    0.000    2.000    0.000    5.053    0.000    2.526 
#    0.000    1.053    0.000    0.000    0.000    5.895 
#    0.000    0.000    0.000    0.000    0.000   15.789 
#
# Total GULP energy -211660.109227 kJ/mol
# GULP energy per Si atom -5570.002874 kJ/mol
# Density = 1.929027 g / cm^3
# Si number density = 19.334279 Si / 1000 Ang^3
#
#
#
# Elastic Constant Matrix: (Units=GPa)
#
#
# Indices 1 2 3 4 5 6 
#
# 1 100.0503 56.7417 39.6565 0.0000 0.0000 0.0000
# 2 56.7417 100.0496 39.6566 0.0000 0.0000 0.0000
# 3 39.6565 39.6566 108.6779 0.0000 0.0000 0.0000
# 4 0.0000 0.0000 0.0000 19.8587 0.0000 0.0000
# 5 0.0000 0.0000 0.0000 0.0000 19.8587 0.0000
# 6 0.0000 0.0000 0.0000 0.0000 0.0000 40.9879
#
#
#
# Elastic Compliance Matrix: (Units=1/GPa)
#
#
# Indices 1 2 3 4 5 6 
#
# 1 0.015456 -0.007634 -0.002854 0.000000 0.000000 0.000000
# 2 -0.007634 0.015456 -0.002854 0.000000 0.000000 0.000000
# 3 -0.002854 -0.002854 0.011284 0.000000 0.000000 0.000000
# 4 0.000000 0.000000 0.000000 0.050356 0.000000 0.000000
# 5 0.000000 0.000000 0.000000 0.000000 0.050356 0.000000
# 6 0.000000 0.000000 0.000000 0.000000 0.000000 0.024397
#
#
# Mechanical properties :
#
#
# Convention : Reuss Voigt Hill
#
# Bulk Modulus (GPa) = 64.46928 64.54303 64.50616
# Shear Modulus (GPa) = 25.10533 27.65592 26.38063
#
# Velocity S-wave (km/s) = 3.60736 3.78618 3.69785
# Velocity P-wave (km/s) = 7.12515 7.25043 7.18806
#
# Compressibility (1/GPa) = 0.01551126
#
# Stress axis : x y z
#
# Youngs Moduli (GPa) = 64.70022 64.69964 88.61758
#
# Poissons Ratio (x) = 0.49394 0.25292
# Poissons Ratio (y) = 0.49394 0.25293
# Poissons Ratio (z) = 0.18466 0.18466
#
# Static dielectric constant tensor:
#      x y z
#    x 1.695200 0.000000 0.000000 
#    y 0.000000 1.695200 0.000000 
#    z 0.000000 0.000000 1.788260 
# 
# From -- ./inp_files/4311.got.cif
#   From: 2010.05.17/outbox.cif.g08.bks.cpg/sg121_3_cif.got.tgz:4311.got - 2010.05.20 11:32:06.
