data_PCOD9560078
_publ_section_title
;
Structure prediction by ZEFSAII (Michael W. Deem and Ramdas Pophale) SiO2 
 PCOD9560078
Probable space group: I -4 C 2
;
_chemical_formula_sum "Si O2"
_cell_formula_units_Z 58
_cell_length_a 18.000000
_cell_length_b 18.000000
_cell_length_c 18.000000
_cell_angle_alpha 90.000000
_cell_angle_beta 90.000000
_cell_angle_gamma 90.000000
_cell_volume 5832.000000
_symmetry_space_group_name_H-M "I -4 C 2"
_symmetry_group_IT_number 120
_symmetry_cell_setting 'tetragonal'
loop_
_space_group_symop_operation_xyz
x,y,z
y,-x,-z
-x,-y,z
-y,x,-z
y,x,1/2-z
-y,-x,1/2-z
-x,y,1/2+z
x,-y,1/2+z
1/2+x,1/2+y,1/2+z
1/2+y,1/2-x,1/2-z
1/2-x,1/2-y,1/2+z
1/2-y,1/2+x,1/2-z
1/2+y,1/2+x,-z
1/2-y,1/2-x,-z
1/2-x,1/2+y,z
1/2+x,1/2-y,z
loop_
_atom_site_type_symbol
_atom_site_label
_atom_site_fract_x
_atom_site_fract_y
_atom_site_fract_z
Si Si1 0.200548 0.448289 0.546579
Si Si2 0.643001 0.511678 0.093099
Si Si3 0.583159 0.971569 0.635628
Si Si4 0.659211 0.973816 0.284768
Si Si5 0.500000 0.500000 0.500000
Si Si6 0.843911 0.106590 0.331909
Si Si7 0.829609 0.048133 0.757415
Si Si8 0.317488 0.117902 0.883360
O O1 0.281313 0.483520 0.556435
O O2 0.138126 0.507806 0.569818
O O3 0.182479 0.377488 0.600620
O O4 0.189591 0.421977 0.462994
O O5 0.570936 0.481704 0.050956
O O6 0.631103 0.599423 0.104065
O O7 0.649812 0.487144 0.178362
O O8 0.578635 0.886202 0.659745
O O9 0.500000 0.000000 0.620287
O O10 0.614588 0.012725 0.708904
O O11 0.741248 0.944783 0.267025
O O12 0.661436 0.053958 0.324755
O O13 0.862100 0.137900 0.250000
O O14 0.764250 0.137908 0.355915
O O15 0.848851 0.016288 0.318935
O O16 0.875679 0.124322 0.750000
#
# Coordination Sequence:
#
# PCOD9560078 Si02
#       8
#    16  16  16  16   4  16  16  16
#     4  11  23  39  62  94 134 168 209 267 336 404
#     4  11  22  40  63  92 121 169 220 262 324 395
#     4  12  20  37  65  95 123 165 215 274 320 397
#     4  11  20  37  64  91 126 164 216 269 327 387
#     4  12  24  36  66  92 120 180 224 266 320 408
#     4   9  20  40  67  95 126 169 216 276 325 391
#     4  10  21  38  63  93 127 159 217 280 327 381
#     4  10  22  40  61  96 130 171 209 268 340 397
#
# _framework density 9.9451300000000007
#
# number of rings (size 3 to 8) (size 9 to 14) (size 15 to 20)
#    0.000    1.379    4.138    1.655    0.000    3.586 
#    0.000    2.069    0.000    3.310    0.000    0.000 
#    0.000    0.000    0.000    0.000    0.000    0.000 
#
# Total GULP energy -323465.169335 kJ/mol
# GULP energy per Si atom -5576.985678 kJ/mol
# Density = 0.992249 g / cm^3
# Si number density = 9.945130 Si / 1000 Ang^3
#
#
#
# Elastic Constant Matrix: (Units=GPa)
#
#
# Indices 1 2 3 4 5 6 
#
# 1 113.4700 54.9065 17.1144 0.0000 0.0000 0.0000
# 2 54.9065 113.4678 17.1162 0.0000 0.0000 0.0000
# 3 17.1144 17.1162 53.3079 0.0000 0.0000 0.0000
# 4 0.0000 0.0000 0.0000 21.8624 0.0000 0.0000
# 5 0.0000 0.0000 0.0000 0.0000 21.8635 0.0000
# 6 0.0000 0.0000 0.0000 0.0000 0.0000 -13.9219
#
#
#
# Elastic Compliance Matrix: (Units=1/GPa)
#
#
# Indices 1 2 3 4 5 6 
#
# 1 0.011715 -0.005361 -0.002040 0.000000 0.000000 0.000000
# 2 -0.005361 0.011715 -0.002040 0.000000 0.000000 0.000000
# 3 -0.002040 -0.002040 0.020069 0.000000 0.000000 0.000000
# 4 0.000000 0.000000 0.000000 0.045741 0.000000 0.000000
# 5 0.000000 0.000000 0.000000 0.000000 0.045738 0.000000
# 6 0.000000 0.000000 0.000000 0.000000 0.000000 -0.071829
#
#
# Mechanical properties :
#
#
# Convention : Reuss Voigt Hill
#
# Bulk Modulus (GPa) = 40.62303 50.94666 45.78485
# Shear Modulus (GPa) = 55.41052 18.70138 37.05595
#
# Velocity S-wave (km/s) = 5.28380 3.06964 4.32095
# Velocity P-wave (km/s) = 7.59557 6.18329 6.92552
#
# Compressibility (1/GPa) = 0.02461658
#
# Stress axis : x y z
#
# Youngs Moduli (GPa) = 85.36323 85.36060 49.82837
#
# Poissons Ratio (x) = 0.45762 0.10163
# Poissons Ratio (y) = 0.45763 0.10167
# Poissons Ratio (z) = 0.17411 0.17416
#
# Static dielectric constant tensor:
#      x y z
#    x 1.766160 0.000000 0.000000 
#    y 0.000000 1.766150 0.000000 
#    z 0.000000 0.000000 1.696450 
# 
# From -- ./inp_files/4597.got.cif
#   From: 2010.05.17/outbox.ucp.g08.bks.cvg/sg120_3_cif.got.tgz:4597.got - 2010.06.11 11:34:49.
