data_PCOD9560755
_publ_section_title
;
Structure prediction by ZEFSAII (Michael W. Deem and Ramdas Pophale) SiO2 
 PCOD9560755
Probable space group: I -4 2 D
;
_chemical_formula_sum "Si O2"
_cell_formula_units_Z 64
_cell_length_a 10.997650
_cell_length_b 10.997650
_cell_length_c 22.994056
_cell_angle_alpha 90.000000
_cell_angle_beta 90.000000
_cell_angle_gamma 90.000000
_cell_volume 2781.092110
_symmetry_space_group_name_H-M "I -4 2 D"
_symmetry_group_IT_number 122
_symmetry_cell_setting 'tetragonal'
loop_
_space_group_symop_operation_xyz
x,y,z
y,-x,-z
-x,-y,z
-y,x,-z
x,1/2-y,1/4-z
-x,1/2+y,1/4-z
-y,1/2-x,1/4+z
y,1/2+x,1/4+z
1/2+x,1/2+y,1/2+z
1/2+y,1/2-x,1/2-z
1/2-x,1/2-y,1/2+z
1/2-y,1/2+x,1/2-z
1/2+x,-y,3/4-z
1/2-x,y,3/4-z
1/2-y,-x,3/4+z
1/2+y,x,3/4+z
loop_
_atom_site_type_symbol
_atom_site_label
_atom_site_fract_x
_atom_site_fract_y
_atom_site_fract_z
Si Si1 0.734891 0.906686 0.808819
Si Si2 0.642870 0.528322 0.192760
Si Si3 0.000000 0.500000 0.750000
Si Si4 0.500000 0.500000 0.500000
Si Si5 0.164829 0.885103 0.579649
Si Si6 0.250000 0.932885 0.375000
O O1 0.750000 0.952187 0.875000
O O2 0.805981 0.976755 0.757353
O O3 0.596189 0.926528 0.789166
O O4 0.797121 0.772013 0.809295
O O5 0.500000 0.500000 0.195133
O O6 0.695926 0.440472 0.142802
O O7 0.647574 0.663008 0.164977
O O8 0.125590 0.507612 0.713285
O O9 0.032740 0.822329 0.586753
#
# Coordination Sequence:
#
# PCOD9560755 Si02
#       6
#    16  16   4   4  16   8
#     4  12  27  49  75 102 152 200 262 313 374 454
#     4  10  23  44  74 111 150 190 252 312 396 455
#     4  12  20  40  74 120 148 184 244 306 408 452
#     4  12  32  56  70 112 148 212 264 318 372 480
#     4  11  22  41  73 107 151 191 241 321 375 457
#     4  10  18  42  70 110 156 188 232 306 390 456
#
# _framework density 23.012542
#
# number of rings (size 3 to 8) (size 9 to 14) (size 15 to 20)
#    0.000    1.000    5.000    3.000    5.250    0.000 
#    2.250    0.000    0.000    0.000    0.000    0.000 
#    0.000    0.000    0.000    0.000    0.000    0.000 
#
# Total GULP energy -178593.517423 kJ/mol
# GULP energy per Si atom -5581.047419 kJ/mol
# Density = 2.296016 g / cm^3
# Si number density = 23.012542 Si / 1000 Ang^3
#
#
#
# Elastic Constant Matrix: (Units=GPa)
#
#
# Indices 1 2 3 4 5 6 
#
# 1 96.1804 39.2473 61.8635 0.0000 0.0000 0.0000
# 2 39.2473 96.1804 61.8635 0.0000 0.0000 0.0000
# 3 61.8635 61.8635 188.1807 0.0000 0.0000 0.0000
# 4 0.0000 0.0000 0.0000 41.8875 0.0000 0.0000
# 5 0.0000 0.0000 0.0000 0.0000 41.8875 0.0000
# 6 0.0000 0.0000 0.0000 0.0000 0.0000 28.5420
#
#
#
# Elastic Compliance Matrix: (Units=1/GPa)
#
#
# Indices 1 2 3 4 5 6 
#
# 1 0.014059 -0.003505 -0.003470 0.000000 0.000000 0.000000
# 2 -0.003505 0.014059 -0.003470 0.000000 0.000000 0.000000
# 3 -0.003470 -0.003470 0.007595 0.000000 0.000000 0.000000
# 4 0.000000 0.000000 0.000000 0.023873 0.000000 0.000000
# 5 0.000000 0.000000 0.000000 0.000000 0.023873 0.000000
# 6 0.000000 0.000000 0.000000 0.000000 0.000000 0.035036
#
#
# Mechanical properties :
#
#
# Convention : Reuss Voigt Hill
#
# Bulk Modulus (GPa) = 67.45487 78.49891 72.97689
# Shear Modulus (GPa) = 34.64363 36.96789 35.80576
#
# Velocity S-wave (km/s) = 3.88419 4.01237 3.94880
# Velocity P-wave (km/s) = 7.03504 7.45995 7.25061
#
# Compressibility (1/GPa) = 0.01482473
#
# Stress axis : x y z
#
# Youngs Moduli (GPa) = 71.12821 71.12821 131.66200
#
# Poissons Ratio (x) = 0.24933 0.45680
# Poissons Ratio (y) = 0.24933 0.45680
# Poissons Ratio (z) = 0.24678 0.24678
#
# Static dielectric constant tensor:
#      x y z
#    x 1.922510 0.000000 0.000000 
#    y 0.000000 1.922510 0.000000 
#    z 0.000000 0.000000 2.084500 
# 
# From -- ./inp_files/7923.got.cif
#   From: 2010.05.17/outbox.cif.g08.bks.cpg/sg122_4_cif.got.tgz:7923.got - 2010.05.20 11:37:33.
