data_PCOD9560621
_publ_section_title
;
Structure prediction by ZEFSAII (Michael W. Deem and Ramdas Pophale) SiO2 
 PCOD9560621
Probable space group: I -4 2 M
;
_chemical_formula_sum "Si O2"
_cell_formula_units_Z 80
_cell_length_a 11.245219
_cell_length_b 11.245219
_cell_length_c 31.960476
_cell_angle_alpha 90.000000
_cell_angle_beta 90.000000
_cell_angle_gamma 90.000000
_cell_volume 4041.560406
_symmetry_space_group_name_H-M "I -4 2 M"
_symmetry_group_IT_number 121
_symmetry_cell_setting 'tetragonal'
loop_
_space_group_symop_operation_xyz
x,y,z
y,-x,-z
-x,-y,z
-y,x,-z
x,-y,-z
-x,y,-z
-y,-x,z
y,x,z
1/2+x,1/2+y,1/2+z
1/2+y,1/2-x,1/2-z
1/2-x,1/2-y,1/2+z
1/2-y,1/2+x,1/2-z
1/2+x,1/2-y,1/2-z
1/2-x,1/2+y,1/2-z
1/2-y,1/2-x,1/2+z
1/2+y,1/2+x,1/2+z
loop_
_atom_site_type_symbol
_atom_site_label
_atom_site_fract_x
_atom_site_fract_y
_atom_site_fract_z
Si Si1 0.066434 0.739890 0.193680
Si Si2 0.679671 0.140197 0.004741
Si Si3 0.234246 0.045343 0.282900
Si Si4 0.333967 0.859564 0.346684
Si Si5 0.506569 0.856751 0.069181
O O1 0.147835 0.852166 0.179154
O O2 0.159296 0.639098 0.208860
O O3 0.990139 0.776377 0.234409
O O4 0.970219 0.680154 0.162431
O O5 0.809874 0.190127 0.002461
O O6 0.617477 0.179228 0.048023
O O7 0.602785 0.184222 0.965266
O O8 0.676227 0.000000 0.000000
O O9 0.113360 0.113360 0.296166
O O10 0.274294 0.928276 0.307806
O O11 0.258348 0.741652 0.355390
O O12 0.321385 0.950653 0.385246
O O13 0.500000 0.000000 0.069622
#
# Coordination Sequence:
#
# PCOD9560621 Si02
#       5
#    16  16  16  16  16
#     4  11  23  40  61  85 116 161 215 267 321 383
#     4   9  18  35  61  90 119 153 192 238 298 365
#     4  11  23  39  59  84 115 157 209 261 318 383
#     4  12  24  38  60  89 121 161 207 262 322 378
#     4   9  19  37  59  83 115 158 201 239 289 362
#
# _framework density 19.794333000000002
#
# number of rings (size 3 to 8) (size 9 to 14) (size 15 to 20)
#    0.000    1.600    2.000    4.800    0.000    3.800 
#    0.000    6.000    0.000   14.400    0.000    0.000 
#    0.000    0.000    0.000    0.000    0.000    0.000 
#
# Total GULP energy -223046.043781 kJ/mol
# GULP energy per Si atom -5576.151095 kJ/mol
# Density = 1.974928 g / cm^3
# Si number density = 19.794333 Si / 1000 Ang^3
#
#
#
# Elastic Constant Matrix: (Units=GPa)
#
#
# Indices 1 2 3 4 5 6 
#
# 1 57.6945 39.4446 9.7476 0.0000 0.0000 0.0000
# 2 39.4446 57.7005 9.7486 0.0000 0.0000 0.0000
# 3 9.7476 9.7486 77.6880 0.0000 0.0000 0.0000
# 4 0.0000 0.0000 0.0000 9.1597 0.0000 0.0000
# 5 0.0000 0.0000 0.0000 0.0000 9.1606 0.0000
# 6 0.0000 0.0000 0.0000 0.0000 0.0000 33.2540
#
#
#
# Elastic Compliance Matrix: (Units=1/GPa)
#
#
# Indices 1 2 3 4 5 6 
#
# 1 0.032675 -0.022113 -0.001325 0.000000 0.000000 0.000000
# 2 -0.022113 0.032671 -0.001325 0.000000 0.000000 0.000000
# 3 -0.001325 -0.001325 0.013205 0.000000 0.000000 0.000000
# 4 0.000000 0.000000 0.000000 0.109174 0.000000 0.000000
# 5 0.000000 0.000000 0.000000 0.000000 0.109164 0.000000
# 6 0.000000 0.000000 0.000000 0.000000 0.000000 0.030072
#
#
# Mechanical properties :
#
#
# Convention : Reuss Voigt Hill
#
# Bulk Modulus (GPa) = 34.45357 34.55162 34.50259
# Shear Modulus (GPa) = 12.94798 19.25766 16.10282
#
# Velocity S-wave (km/s) = 2.56036 3.12250 2.85530
# Velocity P-wave (km/s) = 5.11705 5.52206 5.32341
#
# Compressibility (1/GPa) = 0.02902457
#
# Stress axis : x y z
#
# Youngs Moduli (GPa) = 30.60480 30.60795 75.73158
#
# Poissons Ratio (x) = 0.67683 0.10034
# Poissons Ratio (y) = 0.67676 0.10036
# Poissons Ratio (z) = 0.04055 0.04056
#
# Static dielectric constant tensor:
#      x y z
#    x 1.698770 0.000000 0.000000 
#    y 0.000000 1.698760 0.000000 
#    z 0.000000 0.000000 1.732990 
# 
# From -- ./inp_files/8072.got.cif
#   From: 2010.05.17/outbox.cif.g08.bks.cpg/sg121_5_cif.got.tgz:8072.got - 2010.05.20 11:32:06.
