data_PCOD9560132
_publ_section_title
;
Structure prediction by ZEFSAII (Michael W. Deem and Ramdas Pophale) SiO2 
 PCOD9560132
Probable space group: I -4 2 M
;
_chemical_formula_sum "Si O2"
_cell_formula_units_Z 96
_cell_length_a 21.952360
_cell_length_b 21.952360
_cell_length_c 13.030311
_cell_angle_alpha 90.000000
_cell_angle_beta 90.000000
_cell_angle_gamma 90.000000
_cell_volume 6279.386480
_symmetry_space_group_name_H-M "I -4 2 M"
_symmetry_group_IT_number 121
_symmetry_cell_setting 'tetragonal'
loop_
_space_group_symop_operation_xyz
x,y,z
y,-x,-z
-x,-y,z
-y,x,-z
x,-y,-z
-x,y,-z
-y,-x,z
y,x,z
1/2+x,1/2+y,1/2+z
1/2+y,1/2-x,1/2-z
1/2-x,1/2-y,1/2+z
1/2-y,1/2+x,1/2-z
1/2+x,1/2-y,1/2-z
1/2-x,1/2+y,1/2-z
1/2-y,1/2-x,1/2+z
1/2+y,1/2+x,1/2+z
loop_
_atom_site_type_symbol
_atom_site_label
_atom_site_fract_x
_atom_site_fract_y
_atom_site_fract_z
Si Si1 0.961308 0.688976 0.595930
Si Si2 0.785567 0.398617 0.595717
Si Si3 0.238324 0.661927 0.812324
Si Si4 0.763269 0.859803 0.121001
Si Si5 0.066152 0.602012 0.965616
Si Si6 0.206588 0.474373 0.690817
O O1 0.899822 0.726876 0.622431
O O2 0.942135 0.619392 0.570476
O O3 0.000000 0.712821 0.500000
O O4 0.002574 0.689447 0.697323
O O5 0.775753 0.356340 0.694295
O O6 0.747881 0.376807 0.497753
O O7 0.855513 0.405721 0.556423
O O8 0.768899 0.467079 0.629330
O O9 0.303205 0.696796 0.821194
O O10 0.187912 0.710355 0.848926
O O11 0.826692 0.826692 0.135897
O O12 0.754154 0.919794 0.188140
O O13 0.050608 0.648656 0.872936
O O14 0.000000 0.576951 0.000000
#
# Coordination Sequence:
#
# PCOD9560132 Si02
#       6
#    16  16  16  16  16  16
#     4  11  22  33  50  69 102 137 172 211 254 288
#     4   9  17  32  51  69  99 132 163 203 251 295
#     4  10  20  33  50  74  98 128 168 208 257 306
#     4  10  18  30  51  75  96 124 166 208 257 305
#     4   9  18  34  50  68  96 133 177 211 237 287
#     4   9  19  32  50  69 100 133 164 212 250 295
#
# _framework density 15.288119
#
# number of rings (size 3 to 8) (size 9 to 14) (size 15 to 20)
#    0.000    2.333    3.333    2.000    2.333    1.667 
#    0.000    0.833    0.000    0.000    0.000    0.000 
#    0.000   43.000    0.000    0.000    0.000    0.000 
#
# Total GULP energy -267451.829982 kJ/mol
# GULP energy per Si atom -5571.913125 kJ/mol
# Density = 1.525332 g / cm^3
# Si number density = 15.288119 Si / 1000 Ang^3
#
#
#
# Elastic Constant Matrix: (Units=GPa)
#
#
# Indices 1 2 3 4 5 6 
#
# 1 83.8310 56.5112 55.8978 0.0000 0.0000 0.0000
# 2 56.5112 83.8342 55.8973 0.0000 0.0000 0.0000
# 3 55.8978 55.8973 78.1431 0.0000 0.0000 0.0000
# 4 0.0000 0.0000 0.0000 14.6193 0.0000 0.0000
# 5 0.0000 0.0000 0.0000 0.0000 14.6180 0.0000
# 6 0.0000 0.0000 0.0000 0.0000 0.0000 30.6886
#
#
#
# Elastic Compliance Matrix: (Units=1/GPa)
#
#
# Indices 1 2 3 4 5 6 
#
# 1 0.026584 -0.010019 -0.011849 0.000000 0.000000 0.000000
# 2 -0.010019 0.026581 -0.011847 0.000000 0.000000 0.000000
# 3 -0.011849 -0.011847 0.029748 0.000000 0.000000 0.000000
# 4 0.000000 0.000000 0.000000 0.068403 0.000000 0.000000
# 5 0.000000 0.000000 0.000000 0.000000 0.068409 0.000000
# 6 0.000000 0.000000 0.000000 0.000000 0.000000 0.032585
#
#
# Mechanical properties :
#
#
# Convention : Reuss Voigt Hill
#
# Bulk Modulus (GPa) = 64.59256 64.71343 64.65300
# Shear Modulus (GPa) = 15.38933 17.15198 16.27065
#
# Velocity S-wave (km/s) = 3.17617 3.35313 3.26585
# Velocity P-wave (km/s) = 7.46945 7.57710 7.52347
#
# Compressibility (1/GPa) = 0.01548166
#
# Stress axis : x y z
#
# Youngs Moduli (GPa) = 37.61722 37.62058 33.61626
#
# Poissons Ratio (x) = 0.37692 0.39832
# Poissons Ratio (y) = 0.37689 0.39826
# Poissons Ratio (z) = 0.44573 0.44570
#
# Static dielectric constant tensor:
#      x y z
#    x 1.514610 0.000000 0.000000 
#    y 0.000000 1.514600 0.000000 
#    z 0.000000 0.000000 1.518860 
# 
# From -- ./inp_files/3297.got.cif
#   From: 2010.05.17/outbox.cif.g08.bks.cpg/sg121_2_cif.got.tgz:3297.got - 2010.05.20 11:32:06.
