data_PCOD9560516
_publ_section_title
;
Structure prediction by ZEFSAII (Michael W. Deem and Ramdas Pophale) SiO2 
 PCOD9560516
Probable space group: I -4 2 M
;
_chemical_formula_sum "Si O2"
_cell_formula_units_Z 96
_cell_length_a 14.486360
_cell_length_b 14.486360
_cell_length_c 20.907287
_cell_angle_alpha 90.000000
_cell_angle_beta 90.000000
_cell_angle_gamma 90.000000
_cell_volume 4387.490895
_symmetry_space_group_name_H-M "I -4 2 M"
_symmetry_group_IT_number 121
_symmetry_cell_setting 'tetragonal'
loop_
_space_group_symop_operation_xyz
x,y,z
y,-x,-z
-x,-y,z
-y,x,-z
x,-y,-z
-x,y,-z
-y,-x,z
y,x,z
1/2+x,1/2+y,1/2+z
1/2+y,1/2-x,1/2-z
1/2-x,1/2-y,1/2+z
1/2-y,1/2+x,1/2-z
1/2+x,1/2-y,1/2-z
1/2-x,1/2+y,1/2-z
1/2-y,1/2-x,1/2+z
1/2+y,1/2+x,1/2+z
loop_
_atom_site_type_symbol
_atom_site_label
_atom_site_fract_x
_atom_site_fract_y
_atom_site_fract_z
Si Si1 0.995941 0.148523 0.431169
Si Si2 0.365035 0.209663 0.743748
Si Si3 0.070292 0.427794 0.642824
Si Si4 0.955689 0.276449 0.068109
Si Si5 0.006483 0.850281 0.186616
Si Si6 0.095121 0.684730 0.613260
O O1 0.062768 0.062768 0.441824
O O2 0.055368 0.212333 0.385161
O O3 0.000000 0.198852 0.500000
O O4 0.895957 0.104044 0.414547
O O5 0.278027 0.278027 0.736754
O O6 0.367290 0.126977 0.692901
O O7 0.457091 0.270778 0.728425
O O8 0.368080 0.169153 0.814853
O O9 0.143060 0.481147 0.599214
O O10 0.000000 0.500000 0.675688
O O11 0.999389 0.369981 0.600610
O O12 0.962268 0.194476 0.119513
O O13 0.853840 0.324002 0.067723
O O14 0.000000 0.252040 0.000000
O O15 0.093621 0.906380 0.215332
O O16 0.926289 0.926289 0.175602
#
# Coordination Sequence:
#
# PCOD9560516 Si02
#       6
#    16  16  16  16  16  16
#     4   9  20  39  58  80 115 153 192 242 299 362
#     4  10  22  39  58  90 127 154 199 263 313 366
#     4   9  22  37  60  84 117 162 201 243 308 374
#     4  10  23  40  59  91 127 158 208 266 312 368
#     4   9  20  41  65  89 124 170 211 255 318 386
#     4  11  23  35  63  88 116 159 207 250 310 375
#
# _framework density 21.880386000000001
#
# number of rings (size 3 to 8) (size 9 to 14) (size 15 to 20)
#    0.000    2.333    0.000    1.000    9.333    5.667 
#    0.000    2.500    0.000    0.000    0.000    0.000 
#    0.000    0.000    0.000    0.000    0.000    0.000 
#
# Total GULP energy -267429.980524 kJ/mol
# GULP energy per Si atom -5571.457928 kJ/mol
# Density = 2.183058 g / cm^3
# Si number density = 21.880386 Si / 1000 Ang^3
#
#
#
# Elastic Constant Matrix: (Units=GPa)
#
#
# Indices 1 2 3 4 5 6 
#
# 1 60.8512 10.0493 -4.6293 0.0000 0.0000 0.0000
# 2 10.0493 60.8523 -4.6296 0.0000 0.0000 0.0000
# 3 -4.6293 -4.6296 40.9202 0.0000 0.0000 0.0000
# 4 0.0000 0.0000 0.0000 19.9979 0.0000 0.0000
# 5 0.0000 0.0000 0.0000 0.0000 19.9982 0.0000
# 6 0.0000 0.0000 0.0000 0.0000 0.0000 31.6394
#
#
#
# Elastic Compliance Matrix: (Units=1/GPa)
#
#
# Indices 1 2 3 4 5 6 
#
# 1 0.017000 -0.002684 0.001620 0.000000 0.000000 0.000000
# 2 -0.002684 0.017000 0.001620 0.000000 0.000000 0.000000
# 3 0.001620 0.001620 0.024804 0.000000 0.000000 0.000000
# 4 0.000000 0.000000 0.000000 0.050005 0.000000 0.000000
# 5 0.000000 0.000000 0.000000 0.000000 0.050005 0.000000
# 6 0.000000 0.000000 0.000000 0.000000 0.000000 0.031606
#
#
# Mechanical properties :
#
#
# Convention : Reuss Voigt Hill
#
# Bulk Modulus (GPa) = 16.69059 18.24493 17.46776
# Shear Modulus (GPa) = 23.89128 25.11599 24.50364
#
# Velocity S-wave (km/s) = 3.30798 3.39171 3.35011
# Velocity P-wave (km/s) = 4.71540 4.86773 4.79217
#
# Compressibility (1/GPa) = 0.05991398
#
# Stress axis : x y z
#
# Youngs Moduli (GPa) = 58.82349 58.82448 40.31563
#
# Poissons Ratio (x) = 0.15790 -0.06529
# Poissons Ratio (y) = 0.15789 -0.06530
# Poissons Ratio (z) = -0.09527 -0.09528
#
# Static dielectric constant tensor:
#      x y z
#    x 1.880660 0.000000 0.000000 
#    y 0.000000 1.880660 0.000000 
#    z 0.000000 0.000000 1.861990 
# 
# From -- ./inp_files/6431.got.cif
#   From: 2010.05.17/outbox.cif.g08.bks.cpg/sg121_4_cif.got.tgz:6431.got - 2010.05.20 11:32:06.
