data_PCOD9560536
_publ_section_title
;
Structure prediction by ZEFSAII (Michael W. Deem and Ramdas Pophale) SiO2 
 PCOD9560536
Probable space group: I -4 2 M
;
_chemical_formula_sum "Si O2"
_cell_formula_units_Z 112
_cell_length_a 14.845265
_cell_length_b 14.845265
_cell_length_c 27.995414
_cell_angle_alpha 90.000000
_cell_angle_beta 90.000000
_cell_angle_gamma 90.000000
_cell_volume 6169.682330
_symmetry_space_group_name_H-M "I -4 2 M"
_symmetry_group_IT_number 121
_symmetry_cell_setting 'tetragonal'
loop_
_space_group_symop_operation_xyz
x,y,z
y,-x,-z
-x,-y,z
-y,x,-z
x,-y,-z
-x,y,-z
-y,-x,z
y,x,z
1/2+x,1/2+y,1/2+z
1/2+y,1/2-x,1/2-z
1/2-x,1/2-y,1/2+z
1/2-y,1/2+x,1/2-z
1/2+x,1/2-y,1/2-z
1/2-x,1/2+y,1/2-z
1/2-y,1/2-x,1/2+z
1/2+y,1/2+x,1/2+z
loop_
_atom_site_type_symbol
_atom_site_label
_atom_site_fract_x
_atom_site_fract_y
_atom_site_fract_z
Si Si1 0.527708 0.853679 0.745840
Si Si2 0.576565 0.423436 0.679928
Si Si3 0.811295 0.337764 0.097635
Si Si4 0.329297 0.821531 0.893247
Si Si5 0.733139 0.991876 0.855964
Si Si6 0.998721 0.746030 0.338946
Si Si7 0.107171 0.256454 0.503607
Si Si8 0.575719 0.575719 0.208025
O O1 0.600219 0.932118 0.743407
O O2 0.518496 0.802436 0.696464
O O3 0.547054 0.793078 0.791364
O O4 0.500000 0.500000 0.680252
O O5 0.539302 0.335469 0.652847
O O6 0.598912 0.401089 0.736216
O O7 0.751197 0.248804 0.104897
O O8 0.908004 0.322342 0.122033
O O9 0.758745 0.421889 0.121141
O O10 0.815081 0.358911 0.041380
O O11 0.255607 0.744394 0.881678
O O12 0.415903 0.810184 0.858798
O O13 0.365113 0.802491 0.946601
O O14 0.283628 0.918880 0.887220
O O15 0.036964 0.841151 0.321934
O O16 0.162287 0.162287 0.500907
O O17 0.000000 0.243937 0.500000
O O18 0.500000 0.500000 0.210930
#
# Coordination Sequence:
#
# PCOD9560536 Si02
#       8
#    16   8  16  16  16  16  16   8
#     4  11  22  35  55  89 125 159 205 253 305 380
#     4  11  24  42  62  89 128 167 221 266 305 379
#     4  11  24  41  64  91 124 164 209 259 316 376
#     4  11  24  41  64  92 126 164 210 264 321 377
#     4  12  23  41  65  90 122 171 213 260 323 371
#     4  12  21  38  61  88 128 165 204 255 312 377
#     4  10  22  43  65  95 129 161 207 262 311 379
#     4  11  24  38  58  91 132 173 209 260 313 373
#
# _framework density 18.153283999999999
#
# number of rings (size 3 to 8) (size 9 to 14) (size 15 to 20)
#    0.000    0.857    7.143    0.857    0.000    1.286 
#    0.000    2.143    0.000    0.000    0.000    0.000 
#    0.000    0.000    0.000    0.000    0.000    0.000 
#
# Total GULP energy -312623.020047 kJ/mol
# GULP energy per Si atom -5582.553929 kJ/mol
# Density = 1.811197 g / cm^3
# Si number density = 18.153284 Si / 1000 Ang^3
#
#
#
# Elastic Constant Matrix: (Units=GPa)
#
#
# Indices 1 2 3 4 5 6 
#
# 1 61.8193 15.0285 26.2421 0.0000 0.0000 0.0000
# 2 15.0285 61.8253 26.2403 0.0000 0.0000 0.0000
# 3 26.2421 26.2403 96.6976 0.0000 0.0000 0.0000
# 4 0.0000 0.0000 0.0000 24.7047 0.0000 0.0000
# 5 0.0000 0.0000 0.0000 0.0000 24.7045 0.0000
# 6 0.0000 0.0000 0.0000 0.0000 0.0000 43.1307
#
#
#
# Elastic Compliance Matrix: (Units=1/GPa)
#
#
# Indices 1 2 3 4 5 6 
#
# 1 0.018673 -0.002699 -0.004335 0.000000 0.000000 0.000000
# 2 -0.002699 0.018670 -0.004334 0.000000 0.000000 0.000000
# 3 -0.004335 -0.004334 0.012694 0.000000 0.000000 0.000000
# 4 0.000000 0.000000 0.000000 0.040478 0.000000 0.000000
# 5 0.000000 0.000000 0.000000 0.000000 0.040478 0.000000
# 6 0.000000 0.000000 0.000000 0.000000 0.000000 0.023185
#
#
# Mechanical properties :
#
#
# Convention : Reuss Voigt Hill
#
# Bulk Modulus (GPa) = 36.62901 39.48490 38.05696
# Shear Modulus (GPa) = 26.87958 28.69672 27.78815
#
# Velocity S-wave (km/s) = 3.85216 3.98024 3.91673
# Velocity P-wave (km/s) = 6.32511 6.55142 6.43926
#
# Compressibility (1/GPa) = 0.02730076
#
# Stress axis : x y z
#
# Youngs Moduli (GPa) = 53.55464 53.56152 78.77710
#
# Poissons Ratio (x) = 0.14456 0.34150
# Poissons Ratio (y) = 0.14455 0.34142
# Poissons Ratio (z) = 0.23216 0.23213
#
# Static dielectric constant tensor:
#      x y z
#    x 1.606580 0.000000 0.000000 
#    y 0.000000 1.606580 0.000000 
#    z 0.000000 0.000000 1.605620 
# 
# From -- ./inp_files/7772.got.cif
#   From: 2010.05.17/outbox.cif.g08.bks.cpg/sg121_4_cif.got.tgz:7772.got - 2010.05.20 11:32:06.
