data_PCOD9560549
_publ_section_title
;
Structure prediction by ZEFSAII (Michael W. Deem and Ramdas Pophale) SiO2 
 PCOD9560549
Probable space group: I -4 2 M
;
_chemical_formula_sum "Si O2"
_cell_formula_units_Z 40
_cell_length_a 13.407740
_cell_length_b 13.407740
_cell_length_c 9.519012
_cell_angle_alpha 90.000000
_cell_angle_beta 90.000000
_cell_angle_gamma 90.000000
_cell_volume 1711.208913
_symmetry_space_group_name_H-M "I -4 2 M"
_symmetry_group_IT_number 121
_symmetry_cell_setting 'tetragonal'
loop_
_space_group_symop_operation_xyz
x,y,z
y,-x,-z
-x,-y,z
-y,x,-z
x,-y,-z
-x,y,-z
-y,-x,z
y,x,z
1/2+x,1/2+y,1/2+z
1/2+y,1/2-x,1/2-z
1/2-x,1/2-y,1/2+z
1/2-y,1/2+x,1/2-z
1/2+x,1/2-y,1/2-z
1/2-x,1/2+y,1/2-z
1/2-y,1/2-x,1/2+z
1/2+y,1/2+x,1/2+z
loop_
_atom_site_type_symbol
_atom_site_label
_atom_site_fract_x
_atom_site_fract_y
_atom_site_fract_z
Si Si1 0.688873 0.475346 0.710119
Si Si2 0.211101 0.639516 0.486189
Si Si3 0.290729 0.000000 0.500000
O O1 0.580790 0.419211 0.700991
O O2 0.763526 0.392598 0.645195
O O3 0.720011 0.568529 0.610598
O O4 0.719352 0.508350 0.864838
O O5 0.248626 0.751375 0.462615
O O6 0.094273 0.639073 0.469506
#
# Coordination Sequence:
#
# PCOD9560549 Si02
#       3
#    16  16   8
#     4  10  23  42  66  98 135 179 232 289 351 418
#     4  10  23  44  66  93 139 191 232 282 358 435
#     4  12  22  37  68 103 138 182 240 301 348 403
#
# _framework density 23.375288000000001
#
# number of rings (size 3 to 8) (size 9 to 14) (size 15 to 20)
#    0.000    1.600    0.000    3.600    0.000   10.400 
#    0.000   12.000    0.000    5.400    0.000    0.000 
#    0.000    0.000    0.000    0.000    0.000    0.000 
#
# Total GULP energy -111458.687412 kJ/mol
# GULP energy per Si atom -5572.934371 kJ/mol
# Density = 2.332208 g / cm^3
# Si number density = 23.375288 Si / 1000 Ang^3
#
#
#
# Elastic Constant Matrix: (Units=GPa)
#
#
# Indices 1 2 3 4 5 6 
#
# 1 64.6571 115.5165 27.9778 0.0000 0.0000 0.0000
# 2 115.5165 64.6439 27.9769 0.0000 0.0000 0.0000
# 3 27.9778 27.9769 168.2784 0.0000 0.0000 0.0000
# 4 0.0000 0.0000 0.0000 15.6838 0.0000 0.0000
# 5 0.0000 0.0000 0.0000 0.0000 15.6852 0.0000
# 6 0.0000 0.0000 0.0000 0.0000 0.0000 33.4343
#
#
#
# Elastic Compliance Matrix: (Units=1/GPa)
#
#
# Indices 1 2 3 4 5 6 
#
# 1 -0.006903 0.012756 -0.000973 0.000000 0.000000 0.000000
# 2 0.012756 -0.006904 -0.000973 0.000000 0.000000 0.000000
# 3 -0.000973 -0.000973 0.006266 0.000000 0.000000 0.000000
# 4 0.000000 0.000000 0.000000 0.063760 0.000000 0.000000
# 5 0.000000 0.000000 0.000000 0.000000 0.063754 0.000000
# 6 0.000000 0.000000 0.000000 0.000000 0.000000 0.029909
#
#
# Mechanical properties :
#
#
# Convention : Reuss Voigt Hill
#
# Bulk Modulus (GPa) = 71.02700 71.16909 71.09804
# Shear Modulus (GPa) = 37.60648 21.36788 29.48718
#
# Velocity S-wave (km/s) = 4.01535 3.02673 3.55557
# Velocity P-wave (km/s) = 7.20756 6.53660 6.88026
#
# Compressibility (1/GPa) = 0.01407915
#
# Stress axis : x y z
#
# Youngs Moduli (GPa) = -144.87077 -144.83978 159.58938
#
# Poissons Ratio (x) = 1.84758 0.15530
# Poissons Ratio (y) = 1.84798 0.15527
# Poissons Ratio (z) = -0.14097 -0.14092
#
# Static dielectric constant tensor:
#      x y z
#    x 1.887590 0.000000 0.000000 
#    y 0.000000 1.887600 0.000000 
#    z 0.000000 0.000000 1.908110 
# 
# From -- ./inp_files/1015.got.cif
#   From: 2010.05.17/outbox.cif.g08.bks.cpg/sg121_1_cif.got.tgz:1015.got - 2010.05.20 11:32:06.
