data_PCOD9560356
_publ_section_title
;
Structure prediction by ZEFSAII (Michael W. Deem and Ramdas Pophale) SiO2 
 PCOD9560356
Probable space group: I -4 2 M
;
_chemical_formula_sum "Si O2"
_cell_formula_units_Z 88
_cell_length_a 11.796273
_cell_length_b 11.796273
_cell_length_c 28.774604
_cell_angle_alpha 90.000000
_cell_angle_beta 90.000000
_cell_angle_gamma 90.000000
_cell_volume 4004.045327
_symmetry_space_group_name_H-M "I -4 2 M"
_symmetry_group_IT_number 121
_symmetry_cell_setting 'tetragonal'
loop_
_space_group_symop_operation_xyz
x,y,z
y,-x,-z
-x,-y,z
-y,x,-z
x,-y,-z
-x,y,-z
-y,-x,z
y,x,z
1/2+x,1/2+y,1/2+z
1/2+y,1/2-x,1/2-z
1/2-x,1/2-y,1/2+z
1/2-y,1/2+x,1/2-z
1/2+x,1/2-y,1/2-z
1/2-x,1/2+y,1/2-z
1/2-y,1/2-x,1/2+z
1/2+y,1/2+x,1/2+z
loop_
_atom_site_type_symbol
_atom_site_label
_atom_site_fract_x
_atom_site_fract_y
_atom_site_fract_z
Si Si1 0.494380 0.320173 0.062904
Si Si2 0.309406 0.500000 0.500000
Si Si3 0.874603 0.497106 0.664359
Si Si4 0.504886 0.688893 0.742432
Si Si5 0.744144 0.074362 0.338462
Si Si6 0.605181 0.085322 0.063932
O O1 0.581831 0.418170 0.051696
O O2 0.369349 0.369349 0.049305
O O3 0.485797 0.303511 0.118481
O O4 0.554030 0.204541 0.046979
O O5 0.394861 0.605140 0.487634
O O6 0.220666 0.544375 0.539237
O O7 0.777428 0.482079 0.701563
O O8 0.874892 0.625182 0.644770
O O9 0.872319 0.415350 0.619819
O O10 0.000000 0.500000 0.686516
O O11 0.408677 0.591324 0.741584
O O12 0.623980 0.623980 0.736603
O O13 0.501099 0.752204 0.792134
O O14 0.818005 0.181996 0.325100
O O15 0.500000 0.000000 0.056547
#
# Coordination Sequence:
#
# PCOD9560356 Si02
#       6
#    16   8  16  16  16  16
#     4  10  20  37  65  97 128 168 217 268 326 390
#     4  11  27  48  74 106 137 175 218 264 336 421
#     4  11  23  39  58  91 127 166 216 266 322 391
#     4  10  23  40  58  85 123 172 225 278 330 381
#     4  10  20  36  58  87 123 167 219 271 325 379
#     4  11  23  45  68  98 135 171 215 274 333 400
#
# _framework density 21.977772999999999
#
# number of rings (size 3 to 8) (size 9 to 14) (size 15 to 20)
#    0.000    1.545    3.636    1.909    2.545    5.818 
#    0.000    1.818    0.000    0.000    0.000    2.545 
#    0.000    0.000    0.000    0.000    0.000    0.000 
#
# Total GULP energy -245395.248606 kJ/mol
# GULP energy per Si atom -5577.164741 kJ/mol
# Density = 2.192775 g / cm^3
# Si number density = 21.977773 Si / 1000 Ang^3
#
#
#
# Elastic Constant Matrix: (Units=GPa)
#
#
# Indices 1 2 3 4 5 6 
#
# 1 126.4629 35.5878 30.7494 0.0000 0.0000 0.0000
# 2 35.5878 126.4619 30.7487 0.0000 0.0000 0.0000
# 3 30.7494 30.7487 121.7568 0.0000 0.0000 0.0000
# 4 0.0000 0.0000 0.0000 -81.5158 0.0000 0.0000
# 5 0.0000 0.0000 0.0000 0.0000 -80.7123 0.0000
# 6 0.0000 0.0000 0.0000 0.0000 0.0000 28.9087
#
#
#
# Elastic Compliance Matrix: (Units=1/GPa)
#
#
# Indices 1 2 3 4 5 6 
#
# 1 0.008915 -0.002090 -0.001724 0.000000 0.000000 0.000000
# 2 -0.002090 0.008915 -0.001724 0.000000 0.000000 0.000000
# 3 -0.001724 -0.001724 0.009084 0.000000 0.000000 0.000000
# 4 0.000000 0.000000 0.000000 -0.012268 0.000000 0.000000
# 5 0.000000 0.000000 0.000000 0.000000 -0.012390 0.000000
# 6 0.000000 0.000000 0.000000 0.000000 0.000000 0.034592
#
#
# Mechanical properties :
#
#
# Convention : Reuss Voigt Hill
#
# Bulk Modulus (GPa) = 63.13430 63.20594 63.17012
# Shear Modulus (GPa) = 93.98378 -8.15749 42.91315
#
# Velocity S-wave (km/s) = 6.54644 -1.92867 4.42358
# Velocity P-wave (km/s) = 9.26985 4.88485 7.40918
#
# Compressibility (1/GPa) = 0.01583925
#
# Stress axis : x y z
#
# Youngs Moduli (GPa) = 112.17569 112.17512 110.08754
#
# Poissons Ratio (x) = 0.23440 0.18975
# Poissons Ratio (y) = 0.23440 0.18975
# Poissons Ratio (z) = 0.19335 0.19335
#
# Static dielectric constant tensor:
#      x y z
#    x 2.121570 0.000000 0.000000 
#    y 0.000000 2.119180 0.000000 
#    z 0.000000 0.000000 1.822620 
# 
# From -- ./inp_files/8160.got.cif
#   From: 2010.05.17/outbox.cif.g08.bks.cpg/sg121_5_cif.got.tgz:8160.got - 2010.05.20 11:32:06.
