data_PCOD9560959
_publ_section_title
;
Structure prediction by ZEFSAII (Michael W. Deem and Ramdas Pophale) SiO2 
 PCOD9560959
Probable space group: I -4 2 D
;
_chemical_formula_sum "Si O2"
_cell_formula_units_Z 108
_cell_length_a 14.660410
_cell_length_b 14.660410
_cell_length_c 21.048009
_cell_angle_alpha 90.000000
_cell_angle_beta 90.000000
_cell_angle_gamma 90.000000
_cell_volume 4523.798509
_symmetry_space_group_name_H-M "I -4 2 D"
_symmetry_group_IT_number 122
_symmetry_cell_setting 'tetragonal'
loop_
_space_group_symop_operation_xyz
x,y,z
y,-x,-z
-x,-y,z
-y,x,-z
x,1/2-y,1/4-z
-x,1/2+y,1/4-z
-y,1/2-x,1/4+z
y,1/2+x,1/4+z
1/2+x,1/2+y,1/2+z
1/2+y,1/2-x,1/2-z
1/2-x,1/2-y,1/2+z
1/2-y,1/2+x,1/2-z
1/2+x,-y,3/4-z
1/2-x,y,3/4-z
1/2-y,-x,3/4+z
1/2+y,x,3/4+z
loop_
_atom_site_type_symbol
_atom_site_label
_atom_site_fract_x
_atom_site_fract_y
_atom_site_fract_z
Si Si1 0.923681 0.154457 0.214497
Si Si2 0.500000 0.000000 0.750000
Si Si3 0.000000 0.500000 0.963098
Si Si4 0.936603 0.809623 0.034048
Si Si5 0.730649 0.479352 0.673453
Si Si6 0.257686 0.337053 0.159793
Si Si7 0.838270 0.737955 0.911476
Si Si8 0.801743 0.539428 0.938480
O O1 0.001055 0.088614 0.242982
O O2 0.862291 0.085176 0.171950
O O3 0.864059 0.191682 0.274408
O O4 0.983279 0.241739 0.194986
O O5 0.473216 0.088222 0.710028
O O6 0.904147 0.501850 0.928983
O O7 0.842543 0.803783 0.070429
O O8 0.902711 0.792294 0.960805
O O9 0.741465 0.572927 0.633858
O O10 0.799095 0.407350 0.642251
O O11 0.739265 0.499231 0.747307
O O12 0.301957 0.250000 0.125000
O O13 0.750000 0.780857 0.875000
O O14 0.802166 0.648966 0.947237
O O15 0.750000 0.518786 0.875000
#
# Coordination Sequence:
#
# PCOD9560959 Si02
#       8
#    16   4   8  16  16  16  16  16
#     4  11  24  45  73 103 150 196 257 314 381 456
#     4  12  24  40  70  92 152 184 246 292 392 458
#     4  10  20  42  73  97 142 191 241 310 366 462
#     4  12  23  48  66 103 150 200 243 327 375 456
#     4  11  24  46  73 108 142 204 253 305 391 464
#     4  12  26  47  74 111 154 199 254 325 387 463
#     4  11  22  43  74 102 142 199 251 310 382 453
#     4  10  22  42  72 108 143 192 251 317 375 450
#
# _framework density 23.873742
#
# number of rings (size 3 to 8) (size 9 to 14) (size 15 to 20)
#    0.000    0.889    4.444    1.778    2.074    3.556 
#    5.333    5.926    0.000    0.889    0.000    0.000 
#    0.000    0.000    0.000    0.000    0.000    0.000 
#
# Total GULP energy -301570.499921 kJ/mol
# GULP energy per Si atom -5584.638887 kJ/mol
# Density = 2.381940 g / cm^3
# Si number density = 23.873742 Si / 1000 Ang^3
#
#
#
# Elastic Constant Matrix: (Units=GPa)
#
#
# Indices 1 2 3 4 5 6 
#
# 1 103.7077 3.1110 32.7732 0.0000 0.0000 0.0000
# 2 3.1110 103.7077 32.7732 0.0000 0.0000 0.0000
# 3 32.7732 32.7732 113.2871 0.0000 0.0000 0.0000
# 4 0.0000 0.0000 0.0000 23.6198 0.0000 0.0000
# 5 0.0000 0.0000 0.0000 0.0000 23.6198 0.0000
# 6 0.0000 0.0000 0.0000 0.0000 0.0000 11.1648
#
#
#
# Elastic Compliance Matrix: (Units=1/GPa)
#
#
# Indices 1 2 3 4 5 6 
#
# 1 0.010661 0.000721 -0.003293 0.000000 0.000000 0.000000
# 2 0.000721 0.010661 -0.003293 0.000000 0.000000 0.000000
# 3 -0.003293 -0.003293 0.010732 0.000000 0.000000 0.000000
# 4 0.000000 0.000000 0.000000 0.042337 0.000000 0.000000
# 5 0.000000 0.000000 0.000000 0.000000 0.042337 0.000000
# 6 0.000000 0.000000 0.000000 0.000000 0.000000 0.089567
#
#
# Mechanical properties :
#
#
# Convention : Reuss Voigt Hill
#
# Bulk Modulus (GPa) = 49.19927 50.89082 50.04504
# Shear Modulus (GPa) = 22.24180 28.48387 25.36284
#
# Velocity S-wave (km/s) = 3.05559 3.45788 3.26294
# Velocity P-wave (km/s) = 5.75341 6.10782 5.93326
#
# Compressibility (1/GPa) = 0.02032551
#
# Stress axis : x y z
#
# Youngs Moduli (GPa) = 93.79597 93.79597 93.17667
#
# Poissons Ratio (x) = -0.06760 0.30681
# Poissons Ratio (y) = -0.06760 0.30681
# Poissons Ratio (z) = 0.30885 0.30885
#
# Static dielectric constant tensor:
#      x y z
#    x 1.978140 0.000000 0.000000 
#    y 0.000000 1.978140 0.000000 
#    z 0.000000 0.000000 1.947090 
# 
# From -- ./inp_files/8182.got.cif
#   From: 2010.05.17/outbox.cif.g08.bks.cpg/sg122_5_cif.got.tgz:8182.got - 2010.05.20 11:37:33.
