data_PCOD9560008
_publ_section_title
;
Structure prediction by ZEFSAII (Michael W. Deem and Ramdas Pophale) SiO2 
 PCOD9560008
Probable space group: I -4 C 2
;
_chemical_formula_sum "Si O2"
_cell_formula_units_Z 96
_cell_length_a 14.791449
_cell_length_b 14.791449
_cell_length_c 19.037096
_cell_angle_alpha 90.000000
_cell_angle_beta 90.000000
_cell_angle_gamma 90.000000
_cell_volume 4165.068428
_symmetry_space_group_name_H-M "I -4 C 2"
_symmetry_group_IT_number 120
_symmetry_cell_setting 'tetragonal'
loop_
_space_group_symop_operation_xyz
x,y,z
y,-x,-z
-x,-y,z
-y,x,-z
y,x,1/2-z
-y,-x,1/2-z
-x,y,1/2+z
x,-y,1/2+z
1/2+x,1/2+y,1/2+z
1/2+y,1/2-x,1/2-z
1/2-x,1/2-y,1/2+z
1/2-y,1/2+x,1/2-z
1/2+y,1/2+x,-z
1/2-y,1/2-x,-z
1/2-x,1/2+y,z
1/2+x,1/2-y,z
loop_
_atom_site_type_symbol
_atom_site_label
_atom_site_fract_x
_atom_site_fract_y
_atom_site_fract_z
Si Si1 0.085640 0.065138 0.164632
Si Si2 0.133957 0.508976 0.233843
Si Si3 0.107330 0.674266 0.400465
Si Si4 0.432457 0.747895 0.438167
Si Si5 0.532275 0.758257 0.643283
Si Si6 0.257158 0.657133 0.913619
O O1 0.082125 0.082125 0.250000
O O2 0.174862 0.035587 0.120853
O O3 0.073489 0.161972 0.128429
O O4 0.000000 0.000000 0.150761
O O5 0.057926 0.580728 0.212237
O O6 0.166021 0.444556 0.173394
O O7 0.212901 0.554789 0.276806
O O8 0.166303 0.582622 0.403199
O O9 0.176549 0.758228 0.403077
O O10 0.022011 0.691929 0.450674
O O11 0.393080 0.715809 0.513211
O O12 0.345550 0.805152 0.412523
O O13 0.425180 0.742003 0.640424
#
# Coordination Sequence:
#
# PCOD9560008 Si02
#       6
#    16  16  16  16  16  16
#     4  11  24  45  70 101 141 182 235 299 359 426
#     4   9  19  37  66 104 140 176 232 294 357 423
#     4  11  23  44  68  97 140 185 227 301 347 421
#     4  11  25  45  66 100 144 178 240 297 345 424
#     4  11  23  42  69 100 131 186 232 280 361 425
#     4  11  26  43  68 103 137 191 238 284 358 425
#
# _framework density 23.048843000000002
#
# number of rings (size 3 to 8) (size 9 to 14) (size 15 to 20)
#    0.000    1.333    1.667    3.000    2.333    6.000 
#    0.000    1.667    0.000    0.000    0.000    0.000 
#    0.000    0.000    0.000    0.000    0.000    0.000 
#
# Total GULP energy -267474.991955 kJ/mol
# GULP energy per Si atom -5572.395666 kJ/mol
# Density = 2.299638 g / cm^3
# Si number density = 23.048843 Si / 1000 Ang^3
#
#
#
# Elastic Constant Matrix: (Units=GPa)
#
#
# Indices 1 2 3 4 5 6 
#
# 1 100.5251 24.5216 19.5997 0.0000 0.0000 0.0000
# 2 24.5216 100.5251 19.5996 0.0000 0.0000 0.0000
# 3 19.5997 19.5996 76.4518 0.0000 0.0000 0.0000
# 4 0.0000 0.0000 0.0000 9.7026 0.0000 0.0000
# 5 0.0000 0.0000 0.0000 0.0000 9.7026 0.0000
# 6 0.0000 0.0000 0.0000 0.0000 0.0000 45.0977
#
#
#
# Elastic Compliance Matrix: (Units=1/GPa)
#
#
# Indices 1 2 3 4 5 6 
#
# 1 0.010927 -0.002231 -0.002229 0.000000 0.000000 0.000000
# 2 -0.002231 0.010927 -0.002229 0.000000 0.000000 0.000000
# 3 -0.002229 -0.002229 0.014223 0.000000 0.000000 0.000000
# 4 0.000000 0.000000 0.000000 0.103065 0.000000 0.000000
# 5 0.000000 0.000000 0.000000 0.000000 0.103065 0.000000
# 6 0.000000 0.000000 0.000000 0.000000 0.000000 0.022174
#
#
# Mechanical properties :
#
#
# Convention : Reuss Voigt Hill
#
# Bulk Modulus (GPa) = 44.05752 44.99376 44.52564
# Shear Modulus (GPa) = 17.52384 27.15264 22.33824
#
# Velocity S-wave (km/s) = 2.76033 3.43599 3.11653
# Velocity P-wave (km/s) = 5.41439 5.94179 5.68421
#
# Compressibility (1/GPa) = 0.02269760
#
# Stress axis : x y z
#
# Youngs Moduli (GPa) = 91.52003 91.52003 70.30773
#
# Poissons Ratio (x) = 0.20416 0.15674
# Poissons Ratio (y) = 0.20416 0.15674
# Poissons Ratio (z) = 0.20403 0.20403
#
# Static dielectric constant tensor:
#      x y z
#    x 1.889730 0.000000 0.000000 
#    y 0.000000 1.889730 0.000000 
#    z 0.000000 0.000000 1.948610 
# 
# From -- ./inp_files/5348.got.cif
#   From: 2010.05.17/outbox.cif.g08.bks.cpg/sg120_3_cif.got.tgz:5348.got - 2010.05.20 11:28:13.
