data_PCOD9560081
_publ_section_title
;
Structure prediction by ZEFSAII (Michael W. Deem and Ramdas Pophale) SiO2 
 PCOD9560081
Probable space group: I -4 C 2
;
_chemical_formula_sum "Si O2"
_cell_formula_units_Z 32
_cell_length_a 12.000000
_cell_length_b 12.000000
_cell_length_c 21.000000
_cell_angle_alpha 90.000000
_cell_angle_beta 90.000000
_cell_angle_gamma 90.000000
_cell_volume 3024.000000
_symmetry_space_group_name_H-M "I -4 C 2"
_symmetry_group_IT_number 120
_symmetry_cell_setting 'tetragonal'
loop_
_space_group_symop_operation_xyz
x,y,z
y,-x,-z
-x,-y,z
-y,x,-z
y,x,1/2-z
-y,-x,1/2-z
-x,y,1/2+z
x,-y,1/2+z
1/2+x,1/2+y,1/2+z
1/2+y,1/2-x,1/2-z
1/2-x,1/2-y,1/2+z
1/2-y,1/2+x,1/2-z
1/2+y,1/2+x,-z
1/2-y,1/2-x,-z
1/2-x,1/2+y,z
1/2+x,1/2-y,z
loop_
_atom_site_type_symbol
_atom_site_label
_atom_site_fract_x
_atom_site_fract_y
_atom_site_fract_z
Si Si1 0.240775 0.925391 0.713231
Si Si2 0.490552 0.669050 0.917986
Si Si3 0.368658 0.032960 0.832302
Si Si4 0.517640 0.299688 0.057859
O O1 0.144176 0.855825 0.750000
O O2 0.203430 0.009642 0.656509
O O3 0.333860 0.853977 0.675541
O O4 0.310815 0.982266 0.769700
O O5 0.388570 0.582870 0.929243
O O6 0.615688 0.618605 0.926080
O O7 0.480560 0.739519 0.983876
O O8 0.302030 0.990333 0.893708
O O9 0.500000 0.000000 0.835341
#
# Coordination Sequence:
#
# PCOD9560081 Si02
#       4
#    16  16  16  16
#     4  12  24  41  66  94 131 178 224 275 336 404
#     4   9  20  41  70 102 130 163 232 288 333 389
#     4  12  25  44  63  95 142 178 213 273 339 411
#     4   9  20  42  69  99 133 170 219 292 336 392
#
# _framework density 10.582011
#
# number of rings (size 3 to 8) (size 9 to 14) (size 15 to 20)
#    0.000    1.500    5.000    1.500    3.500    1.000 
#    0.000    3.750    0.000    0.000    0.000    0.000 
#    0.000    0.000    0.000    0.000    0.000    0.000 
#
# Total GULP energy -178319.979906 kJ/mol
# GULP energy per Si atom -5572.499372 kJ/mol
# Density = 1.055793 g / cm^3
# Si number density = 10.582011 Si / 1000 Ang^3
#
#
#
# Elastic Constant Matrix: (Units=GPa)
#
#
# Indices 1 2 3 4 5 6 
#
# 1 52.3699 -4.3883 31.4781 0.0000 0.0000 0.0000
# 2 -4.3883 52.3684 31.4787 0.0000 0.0000 0.0000
# 3 31.4781 31.4787 184.1092 0.0000 0.0000 0.0000
# 4 0.0000 0.0000 0.0000 32.0855 0.0000 0.0000
# 5 0.0000 0.0000 0.0000 0.0000 32.0860 0.0000
# 6 0.0000 0.0000 0.0000 0.0000 0.0000 13.2899
#
#
#
# Elastic Compliance Matrix: (Units=1/GPa)
#
#
# Indices 1 2 3 4 5 6 
#
# 1 0.022244 0.004625 -0.004594 0.000000 0.000000 0.000000
# 2 0.004625 0.022245 -0.004594 0.000000 0.000000 0.000000
# 3 -0.004594 -0.004594 0.007003 0.000000 0.000000 0.000000
# 4 0.000000 0.000000 0.000000 0.031167 0.000000 0.000000
# 5 0.000000 0.000000 0.000000 0.000000 0.031166 0.000000
# 6 0.000000 0.000000 0.000000 0.000000 0.000000 0.075245
#
#
# Mechanical properties :
#
#
# Convention : Reuss Voigt Hill
#
# Bulk Modulus (GPa) = 23.60411 45.10938 34.35674
# Shear Modulus (GPa) = 23.54971 30.84418 27.19695
#
# Velocity S-wave (km/s) = 3.33937 3.82172 3.58866
# Velocity P-wave (km/s) = 5.10350 6.39019 5.78274
#
# Compressibility (1/GPa) = 0.04236551
#
# Stress axis : x y z
#
# Youngs Moduli (GPa) = 44.95623 44.95460 142.80561
#
# Poissons Ratio (x) = -0.20793 0.65605
# Poissons Ratio (y) = -0.20794 0.65608
# Poissons Ratio (z) = 0.20653 0.20653
#
# Static dielectric constant tensor:
#      x y z
#    x 1.801310 0.000000 0.000000 
#    y 0.000000 1.801310 0.000000 
#    z 0.000000 0.000000 1.794390 
# 
# From -- ./inp_files/5017.got.cif
#   From: 2010.05.17/outbox.ucp.g08.bks.cvg/sg120_3_cif.got.tgz:5017.got - 2010.06.11 11:34:49.
