data_PCOD9560211
_publ_section_title
;
Structure prediction by ZEFSAII (Michael W. Deem and Ramdas Pophale) SiO2 
 PCOD9560211
Probable space group: I -4 2 M
;
_chemical_formula_sum "Si O2"
_cell_formula_units_Z 88
_cell_length_a 15.196914
_cell_length_b 15.196914
_cell_length_c 20.488666
_cell_angle_alpha 90.000000
_cell_angle_beta 90.000000
_cell_angle_gamma 90.000000
_cell_volume 4731.779456
_symmetry_space_group_name_H-M "I -4 2 M"
_symmetry_group_IT_number 121
_symmetry_cell_setting 'tetragonal'
loop_
_space_group_symop_operation_xyz
x,y,z
y,-x,-z
-x,-y,z
-y,x,-z
x,-y,-z
-x,y,-z
-y,-x,z
y,x,z
1/2+x,1/2+y,1/2+z
1/2+y,1/2-x,1/2-z
1/2-x,1/2-y,1/2+z
1/2-y,1/2+x,1/2-z
1/2+x,1/2-y,1/2-z
1/2-x,1/2+y,1/2-z
1/2-y,1/2-x,1/2+z
1/2+y,1/2+x,1/2+z
loop_
_atom_site_type_symbol
_atom_site_label
_atom_site_fract_x
_atom_site_fract_y
_atom_site_fract_z
Si Si1 0.864667 0.281083 0.637692
Si Si2 0.605198 0.895078 0.993133
Si Si3 0.831747 0.309422 0.873856
Si Si4 0.950402 0.812404 0.635387
Si Si5 0.500000 0.363693 0.000000
Si Si6 0.116861 0.583311 0.258049
O O1 0.783256 0.216745 0.627301
O O2 0.874459 0.345088 0.574946
O O3 0.857342 0.339337 0.702534
O O4 0.951566 0.219859 0.650936
O O5 0.500000 0.884627 0.000000
O O6 0.659540 0.854279 0.053367
O O7 0.622268 0.000000 0.000000
O O8 0.785467 0.214534 0.872608
O O9 0.759675 0.378641 0.846026
O O10 0.911552 0.326166 0.824073
O O11 0.907914 0.907914 0.653272
O O12 0.953191 0.811951 0.556246
O O13 0.427754 0.427754 0.967747
O O14 0.110961 0.484026 0.230935
#
# Coordination Sequence:
#
# PCOD9560211 Si02
#       6
#    16  16  16  16   8  16
#     4  12  23  37  57  86 115 146 196 241 281 341
#     4  11  21  37  58  83 114 149 188 230 280 333
#     4  11  21  36  56  81 114 147 184 229 284 338
#     4  10  19  32  49  75 114 151 183 220 273 338
#     4   9  16  26  42  66  99 140 172 198 247 318
#     4  11  22  40  60  80 109 149 193 235 292 347
#
# _framework density 18.597656000000001
#
# number of rings (size 3 to 8) (size 9 to 14) (size 15 to 20)
#    0.000    1.182    3.636    3.818    0.000    5.455 
#    0.000    0.000    0.000    0.000    0.000    0.000 
#    0.000   27.636    0.000    0.000    0.000    0.000 
#
# Total GULP energy -245218.588486 kJ/mol
# GULP energy per Si atom -5573.149738 kJ/mol
# Density = 1.855533 g / cm^3
# Si number density = 18.597656 Si / 1000 Ang^3
#
#
#
# Elastic Constant Matrix: (Units=GPa)
#
#
# Indices 1 2 3 4 5 6 
#
# 1 63.1685 26.9167 2.0164 0.0000 0.0000 0.0000
# 2 26.9167 63.1702 2.0178 0.0000 0.0000 0.0000
# 3 2.0164 2.0178 57.4259 0.0000 0.0000 0.0000
# 4 0.0000 0.0000 0.0000 23.7963 0.0000 0.0000
# 5 0.0000 0.0000 0.0000 0.0000 23.7959 0.0000
# 6 0.0000 0.0000 0.0000 0.0000 0.0000 26.0615
#
#
#
# Elastic Compliance Matrix: (Units=1/GPa)
#
#
# Indices 1 2 3 4 5 6 
#
# 1 0.019351 -0.008233 -0.000390 0.000000 0.000000 0.000000
# 2 -0.008233 0.019351 -0.000391 0.000000 0.000000 0.000000
# 3 -0.000390 -0.000391 0.017441 0.000000 0.000000 0.000000
# 4 0.000000 0.000000 0.000000 0.042023 0.000000 0.000000
# 5 0.000000 0.000000 0.000000 0.000000 0.042024 0.000000
# 6 0.000000 0.000000 0.000000 0.000000 0.000000 0.038371
#
#
# Mechanical properties :
#
#
# Convention : Reuss Voigt Hill
#
# Bulk Modulus (GPa) = 26.23632 27.29624 26.76628
# Shear Modulus (GPa) = 23.88975 24.91833 24.40404
#
# Velocity S-wave (km/s) = 3.58796 3.66439 3.62637
# Velocity P-wave (km/s) = 5.59487 5.71076 5.65311
#
# Compressibility (1/GPa) = 0.03811510
#
# Stress axis : x y z
#
# Youngs Moduli (GPa) = 51.67601 51.67729 57.33557
#
# Poissons Ratio (x) = 0.42546 0.02237
# Poissons Ratio (y) = 0.42545 0.02241
# Poissons Ratio (z) = 0.02016 0.02020
#
# Static dielectric constant tensor:
#      x y z
#    x 1.699690 0.000000 0.000000 
#    y 0.000000 1.699690 0.000000 
#    z 0.000000 0.000000 1.642440 
# 
# From -- ./inp_files/6345.got.cif
#   From: 2010.05.17/outbox.cif.g08.bks.cpg/sg121_4_cif.got.tgz:6345.got - 2010.05.20 11:32:06.
