data_PCOD9560107
_publ_section_title
;
Structure prediction by ZEFSAII (Michael W. Deem and Ramdas Pophale) SiO2 
 PCOD9560107
Probable space group: I -4 2 M
;
_chemical_formula_sum "Si O2"
_cell_formula_units_Z 112
_cell_length_a 18.597588
_cell_length_b 18.597588
_cell_length_c 19.658161
_cell_angle_alpha 90.000000
_cell_angle_beta 90.000000
_cell_angle_gamma 90.000000
_cell_volume 6799.173638
_symmetry_space_group_name_H-M "I -4 2 M"
_symmetry_group_IT_number 121
_symmetry_cell_setting 'tetragonal'
loop_
_space_group_symop_operation_xyz
x,y,z
y,-x,-z
-x,-y,z
-y,x,-z
x,-y,-z
-x,y,-z
-y,-x,z
y,x,z
1/2+x,1/2+y,1/2+z
1/2+y,1/2-x,1/2-z
1/2-x,1/2-y,1/2+z
1/2-y,1/2+x,1/2-z
1/2+x,1/2-y,1/2-z
1/2-x,1/2+y,1/2-z
1/2-y,1/2-x,1/2+z
1/2+y,1/2+x,1/2+z
loop_
_atom_site_type_symbol
_atom_site_label
_atom_site_fract_x
_atom_site_fract_y
_atom_site_fract_z
Si Si1 0.534635 0.256340 0.248063
Si Si2 0.317265 0.438142 0.445453
Si Si3 0.863562 0.746980 0.757397
Si Si4 0.205720 0.329040 0.490985
Si Si5 0.503953 0.386651 0.318208
Si Si6 0.772587 0.651800 0.860991
Si Si7 0.777593 0.658608 0.647017
O O1 0.449589 0.239372 0.251860
O O2 0.534962 0.342494 0.256026
O O3 0.577927 0.233756 0.180697
O O4 0.584098 0.228881 0.311377
O O5 0.325858 0.500000 0.500000
O O6 0.379164 0.379164 0.455570
O O7 0.242543 0.398516 0.457323
O O8 0.330898 0.470901 0.371588
O O9 0.827058 0.827058 0.762561
O O10 0.829555 0.702157 0.820057
O O11 0.828838 0.710025 0.691006
O O12 0.266027 0.266027 0.490793
O O13 0.146194 0.299480 0.438774
O O14 0.193633 0.346781 0.570096
O O15 0.566704 0.433297 0.352576
O O16 0.442740 0.442740 0.298534
O O17 0.698280 0.698280 0.858105
O O18 0.699839 0.699839 0.645336
#
# Coordination Sequence:
#
# PCOD9560107 Si02
#       7
#    16  16  16  16  16  16  16
#     4  11  18  29  49  69  90 124 166 199 236 287
#     4  10  18  26  39  62  95 132 162 189 227 283
#     4   9  18  32  49  72 101 129 158 197 243 287
#     4   9  17  30  46  64  87 120 162 203 240 278
#     4  10  19  27  37  61  99 134 160 190 229 280
#     4   9  18  32  49  68  93 125 162 203 244 289
#     4   9  18  32  50  70  95 126 161 202 244 289
#
# _framework density 16.472588999999999
#
# number of rings (size 3 to 8) (size 9 to 14) (size 15 to 20)
#    0.000    2.429    0.000    4.714    0.000    4.143 
#    0.000    0.714    0.000    6.857    0.000    0.000 
#    0.000   10.286    0.000   31.714    0.000    0.286 
#
# Total GULP energy -311786.656073 kJ/mol
# GULP energy per Si atom -5567.618858 kJ/mol
# Density = 1.643510 g / cm^3
# Si number density = 16.472589 Si / 1000 Ang^3
#
#
#
# Elastic Constant Matrix: (Units=GPa)
#
#
# Indices 1 2 3 4 5 6 
#
# 1 77.1835 23.1695 37.1196 0.0000 0.0000 0.0000
# 2 23.1695 77.1848 37.1199 0.0000 0.0000 0.0000
# 3 37.1196 37.1199 100.8240 0.0000 0.0000 0.0000
# 4 0.0000 0.0000 0.0000 12.8770 0.0000 0.0000
# 5 0.0000 0.0000 0.0000 0.0000 12.8769 0.0000
# 6 0.0000 0.0000 0.0000 0.0000 0.0000 -20.2911
#
#
#
# Elastic Compliance Matrix: (Units=1/GPa)
#
#
# Indices 1 2 3 4 5 6 
#
# 1 0.016104 -0.002409 -0.005042 0.000000 0.000000 0.000000
# 2 -0.002409 0.016104 -0.005042 0.000000 0.000000 0.000000
# 3 -0.005042 -0.005042 0.013631 0.000000 0.000000 0.000000
# 4 0.000000 0.000000 0.000000 0.077658 0.000000 0.000000
# 5 0.000000 0.000000 0.000000 0.000000 0.077658 0.000000
# 6 0.000000 0.000000 0.000000 0.000000 0.000000 -0.049283
#
#
# Mechanical properties :
#
#
# Convention : Reuss Voigt Hill
#
# Bulk Modulus (GPa) = 47.95584 50.00115 48.97849
# Shear Modulus (GPa) = 27.20201 11.61143 19.40672
#
# Velocity S-wave (km/s) = 4.06809 2.65786 3.43610
# Velocity P-wave (km/s) = 7.15832 6.31182 6.74835
#
# Compressibility (1/GPa) = 0.02085252
#
# Stress axis : x y z
#
# Youngs Moduli (GPa) = 62.09561 62.09664 73.36357
#
# Poissons Ratio (x) = 0.14962 0.36989
# Poissons Ratio (y) = 0.14962 0.36989
# Poissons Ratio (z) = 0.31308 0.31308
#
# Static dielectric constant tensor:
#      x y z
#    x 1.572170 0.000000 0.000000 
#    y 0.000000 1.572170 0.000000 
#    z 0.000000 0.000000 1.630320 
# 
# From -- ./inp_files/6598.got.cif
#   From: 2010.05.17/outbox.cif.g08.bks.cpg/sg121_4_cif.got.tgz:6598.got - 2010.05.20 11:32:06.
