data_PCOD9560216
_publ_section_title
;
Structure prediction by ZEFSAII (Michael W. Deem and Ramdas Pophale) SiO2 
 PCOD9560216
Probable space group: I -4 2 M
;
_chemical_formula_sum "Si O2"
_cell_formula_units_Z 96
_cell_length_a 23.193114
_cell_length_b 23.193114
_cell_length_c 10.229405
_cell_angle_alpha 90.000000
_cell_angle_beta 90.000000
_cell_angle_gamma 90.000000
_cell_volume 5502.607031
_symmetry_space_group_name_H-M "I -4 2 M"
_symmetry_group_IT_number 121
_symmetry_cell_setting 'tetragonal'
loop_
_space_group_symop_operation_xyz
x,y,z
y,-x,-z
-x,-y,z
-y,x,-z
x,-y,-z
-x,y,-z
-y,-x,z
y,x,z
1/2+x,1/2+y,1/2+z
1/2+y,1/2-x,1/2-z
1/2-x,1/2-y,1/2+z
1/2-y,1/2+x,1/2-z
1/2+x,1/2-y,1/2-z
1/2-x,1/2+y,1/2-z
1/2-y,1/2-x,1/2+z
1/2+y,1/2+x,1/2+z
loop_
_atom_site_type_symbol
_atom_site_label
_atom_site_fract_x
_atom_site_fract_y
_atom_site_fract_z
Si Si1 0.292704 0.562874 0.610234
Si Si2 0.233413 0.857231 0.343462
Si Si3 0.561889 0.651876 0.653954
Si Si4 0.865505 0.649205 0.237087
Si Si5 0.131942 0.224254 0.358155
Si Si6 0.063330 0.343332 0.967102
O O1 0.296003 0.604245 0.733259
O O2 0.319795 0.587596 0.477876
O O3 0.329188 0.504929 0.642722
O O4 0.224263 0.555082 0.577157
O O5 0.206058 0.793943 0.338136
O O6 0.300390 0.856128 0.313183
O O7 0.222580 0.880689 0.488232
O O8 0.586154 0.586154 0.658319
O O9 0.588247 0.685032 0.776915
O O10 0.871366 0.710757 0.308028
O O11 0.872682 0.599302 0.348008
O O12 0.903327 0.650744 0.105188
O O13 0.194809 0.194809 0.338828
O O14 0.000000 0.366869 0.000000
#
# Coordination Sequence:
#
# PCOD9560216 Si02
#       6
#    16  16  16  16  16  16
#     4  10  19  35  55  80 118 158 195 241 286 344
#     4  10  21  33  50  81 117 152 188 237 299 357
#     4  10  19  33  56  82 113 156 200 241 285 338
#     4  11  20  36  56  82 116 151 191 234 289 361
#     4  10  19  32  50  81 117 146 185 235 294 354
#     4  11  21  38  60  85 116 151 194 235 289 352
#
# _framework density 17.446275
#
# number of rings (size 3 to 8) (size 9 to 14) (size 15 to 20)
#    0.000    1.667    5.000    1.000    0.000    0.667 
#    0.000    0.833    0.000   10.000    0.000    0.000 
#    0.000   20.000    0.000    0.000    0.000    0.000 
#
# Total GULP energy -267259.250256 kJ/mol
# GULP energy per Si atom -5567.901047 kJ/mol
# Density = 1.740657 g / cm^3
# Si number density = 17.446275 Si / 1000 Ang^3
#
#
#
# Elastic Constant Matrix: (Units=GPa)
#
#
# Indices 1 2 3 4 5 6 
#
# 1 50.0413 11.0157 26.2459 0.0000 0.0000 0.0000
# 2 11.0157 50.0469 26.2502 0.0000 0.0000 0.0000
# 3 26.2459 26.2502 135.1688 0.0000 0.0000 0.0000
# 4 0.0000 0.0000 0.0000 27.0195 0.0000 0.0000
# 5 0.0000 0.0000 0.0000 0.0000 27.0185 0.0000
# 6 0.0000 0.0000 0.0000 0.0000 0.0000 16.4772
#
#
#
# Elastic Compliance Matrix: (Units=1/GPa)
#
#
# Indices 1 2 3 4 5 6 
#
# 1 0.022642 -0.002981 -0.003817 0.000000 0.000000 0.000000
# 2 -0.002981 0.022640 -0.003818 0.000000 0.000000 0.000000
# 3 -0.003817 -0.003818 0.008881 0.000000 0.000000 0.000000
# 4 0.000000 0.000000 0.000000 0.037010 0.000000 0.000000
# 5 0.000000 0.000000 0.000000 0.000000 0.037012 0.000000
# 6 0.000000 0.000000 0.000000 0.000000 0.000000 0.060690
#
#
# Mechanical properties :
#
#
# Convention : Reuss Voigt Hill
#
# Bulk Modulus (GPa) = 30.36795 40.25339 35.31067
# Shear Modulus (GPa) = 22.61579 25.55273 24.08426
#
# Velocity S-wave (km/s) = 3.60434 3.83123 3.71951
# Velocity P-wave (km/s) = 5.89627 6.53406 6.22334
#
# Compressibility (1/GPa) = 0.03292946
#
# Stress axis : x y z
#
# Youngs Moduli (GPa) = 44.16575 44.16960 112.60210
#
# Poissons Ratio (x) = 0.13169 0.42985
# Poissons Ratio (y) = 0.13168 0.42990
# Poissons Ratio (z) = 0.16860 0.16863
#
# Static dielectric constant tensor:
#      x y z
#    x 1.602720 0.000000 0.000000 
#    y 0.000000 1.602720 0.000000 
#    z 0.000000 0.000000 1.591820 
# 
# From -- ./inp_files/1970.got.cif
#   From: 2010.05.17/outbox.cif.g08.bks.cpg/sg121_1_cif.got.tgz:1970.got - 2010.05.20 11:32:06.
