data_PCOD9560779
_publ_section_title
;
Structure prediction by ZEFSAII (Michael W. Deem and Ramdas Pophale) SiO2 
 PCOD9560779
Probable space group: I -4 2 D
;
_chemical_formula_sum "Si O2"
_cell_formula_units_Z 72
_cell_length_a 27.718206
_cell_length_b 27.718206
_cell_length_c 4.941364
_cell_angle_alpha 90.000000
_cell_angle_beta 90.000000
_cell_angle_gamma 90.000000
_cell_volume 3796.444742
_symmetry_space_group_name_H-M "I -4 2 D"
_symmetry_group_IT_number 122
_symmetry_cell_setting 'tetragonal'
loop_
_space_group_symop_operation_xyz
x,y,z
y,-x,-z
-x,-y,z
-y,x,-z
x,1/2-y,1/4-z
-x,1/2+y,1/4-z
-y,1/2-x,1/4+z
y,1/2+x,1/4+z
1/2+x,1/2+y,1/2+z
1/2+y,1/2-x,1/2-z
1/2-x,1/2-y,1/2+z
1/2-y,1/2+x,1/2-z
1/2+x,-y,3/4-z
1/2-x,y,3/4-z
1/2-y,-x,3/4+z
1/2+y,x,3/4+z
loop_
_atom_site_type_symbol
_atom_site_label
_atom_site_fract_x
_atom_site_fract_y
_atom_site_fract_z
Si Si1 0.284164 0.250000 0.625000
Si Si2 0.909518 0.424717 0.579968
Si Si3 0.466090 0.889723 0.573027
Si Si4 0.164209 0.152304 0.243985
Si Si5 0.904648 0.198520 0.258431
O O1 0.250000 0.266727 0.375000
O O2 0.317035 0.293234 0.740301
O O3 0.899426 0.478322 0.481082
O O4 0.948352 0.400544 0.375914
O O5 0.862217 0.390376 0.572883
O O6 0.933286 0.422613 0.875240
O O7 0.451582 0.835164 0.494622
O O8 0.196463 0.120373 0.449769
O O9 0.172260 0.132921 0.942032
O O10 0.913611 0.250000 0.125000
#
# Coordination Sequence:
#
# PCOD9560779 Si02
#       5
#     8  16  16  16  16
#     4  12  22  34  56  84 108 146 184 212 276 330
#     4  10  21  37  54  80 110 139 182 223 276 312
#     4  10  21  35  56  79 108 142 177 227 268 323
#     4  10  21  35  53  78 112 138 172 232 263 311
#     4  10  19  35  55  77 104 142 182 217 260 314
#
# _framework density 18.965111
#
# number of rings (size 3 to 8) (size 9 to 14) (size 15 to 20)
#    0.000    1.778    0.000    5.333    0.000    2.667 
#    2.000    0.000    0.000    0.000    0.000    0.000 
#    0.000    0.000    0.000    0.000    0.000    0.000 
#
# Total GULP energy -200926.961125 kJ/mol
# GULP energy per Si atom -5581.304476 kJ/mol
# Density = 1.892195 g / cm^3
# Si number density = 18.965111 Si / 1000 Ang^3
#
#
#
# Elastic Constant Matrix: (Units=GPa)
#
#
# Indices 1 2 3 4 5 6 
#
# 1 90.2424 49.7021 -6.6362 0.0000 0.0000 0.0000
# 2 49.7021 90.2424 -6.6362 0.0000 0.0000 0.0000
# 3 -6.6362 -6.6362 71.8162 0.0000 0.0000 0.0000
# 4 0.0000 0.0000 0.0000 20.1178 0.0000 0.0000
# 5 0.0000 0.0000 0.0000 0.0000 20.1178 0.0000
# 6 0.0000 0.0000 0.0000 0.0000 0.0000 5.6772
#
#
#
# Elastic Compliance Matrix: (Units=1/GPa)
#
#
# Indices 1 2 3 4 5 6 
#
# 1 0.015938 -0.008729 0.000666 0.000000 0.000000 0.000000
# 2 -0.008729 0.015938 0.000666 0.000000 0.000000 0.000000
# 3 0.000666 0.000666 0.014048 0.000000 0.000000 0.000000
# 4 0.000000 0.000000 0.000000 0.049707 0.000000 0.000000
# 5 0.000000 0.000000 0.000000 0.000000 0.049707 0.000000
# 6 0.000000 0.000000 0.000000 0.000000 0.000000 0.176145
#
#
# Mechanical properties :
#
#
# Convention : Reuss Voigt Hill
#
# Bulk Modulus (GPa) = 32.12354 36.12894 34.12624
# Shear Modulus (GPa) = 14.42367 23.57396 18.99882
#
# Velocity S-wave (km/s) = 2.76078 3.52947 3.16852
# Velocity P-wave (km/s) = 5.20937 5.97504 5.60529
#
# Compressibility (1/GPa) = 0.03112982
#
# Stress axis : x y z
#
# Youngs Moduli (GPa) = 62.74374 62.74374 71.18684
#
# Poissons Ratio (x) = 0.54769 -0.04742
# Poissons Ratio (y) = 0.54769 -0.04742
# Poissons Ratio (z) = -0.04180 -0.04180
#
# Static dielectric constant tensor:
#      x y z
#    x 1.658720 0.000000 0.000000 
#    y 0.000000 1.658720 0.000000 
#    z 0.000000 0.000000 1.657230 
# 
# From -- ./inp_files/1227.got.cif
#   From: 2010.05.17/outbox.cif.g08.bks.cpg/sg122_1_cif.got.tgz:1227.got - 2010.05.20 11:37:33.
