data_PCOD9560109
_publ_section_title
;
Structure prediction by ZEFSAII (Michael W. Deem and Ramdas Pophale) SiO2 
 PCOD9560109
Probable space group: I -4 2 M
;
_chemical_formula_sum "Si O2"
_cell_formula_units_Z 112
_cell_length_a 15.545371
_cell_length_b 15.545371
_cell_length_c 19.136580
_cell_angle_alpha 90.000000
_cell_angle_beta 90.000000
_cell_angle_gamma 90.000000
_cell_volume 4624.518357
_symmetry_space_group_name_H-M "I -4 2 M"
_symmetry_group_IT_number 121
_symmetry_cell_setting 'tetragonal'
loop_
_space_group_symop_operation_xyz
x,y,z
y,-x,-z
-x,-y,z
-y,x,-z
x,-y,-z
-x,y,-z
-y,-x,z
y,x,z
1/2+x,1/2+y,1/2+z
1/2+y,1/2-x,1/2-z
1/2-x,1/2-y,1/2+z
1/2-y,1/2+x,1/2-z
1/2+x,1/2-y,1/2-z
1/2-x,1/2+y,1/2-z
1/2-y,1/2-x,1/2+z
1/2+y,1/2+x,1/2+z
loop_
_atom_site_type_symbol
_atom_site_label
_atom_site_fract_x
_atom_site_fract_y
_atom_site_fract_z
Si Si1 0.506311 0.359705 0.796846
Si Si2 0.058319 0.591574 0.794371
Si Si3 0.684561 0.080362 0.114657
Si Si4 0.475012 0.340316 0.581787
Si Si5 0.572026 0.709406 0.055965
Si Si6 0.224401 0.366214 0.776727
Si Si7 0.206323 0.344001 0.530186
O O1 0.591105 0.408896 0.766777
O O2 0.433341 0.433341 0.801300
O O3 0.532215 0.327175 0.873553
O O4 0.456114 0.276893 0.766844
O O5 0.095503 0.497080 0.780019
O O6 0.135716 0.655966 0.785014
O O7 0.996744 0.624810 0.855148
O O8 0.657214 0.167057 0.155272
O O9 0.671432 0.098776 0.033103
O O10 0.786551 0.051895 0.118688
O O11 0.500000 0.357347 0.500000
O O12 0.426862 0.426862 0.609591
O O13 0.402280 0.267068 0.577357
O O14 0.634741 0.634741 0.027138
O O15 0.500000 0.729629 0.000000
O O16 0.630304 0.793035 0.066877
O O17 0.294331 0.294331 0.770264
O O18 0.271379 0.271379 0.499585
#
# Coordination Sequence:
#
# PCOD9560109 Si02
#       7
#    16  16  16  16  16  16  16
#     4   9  18  32  50  74 107 148 189 227 270 320
#     4   9  20  38  57  78 104 137 179 229 282 336
#     4  10  19  34  57  80 105 140 180 223 276 336
#     4   9  19  35  55  80 110 142 177 221 274 334
#     4  10  18  27  43  69 101 138 179 217 257 313
#     4  10  20  36  57  79 107 144 184 230 283 335
#     4   9  18  33  51  75 109 144 178 220 273 334
#
# _framework density 24.218737000000001
#
# number of rings (size 3 to 8) (size 9 to 14) (size 15 to 20)
#    0.000    2.571    0.000    1.714    0.000    5.429 
#    0.000    6.429    0.000    3.000    0.000    2.000 
#    0.000    0.000    0.000    0.000    0.000    0.000 
#
# Total GULP energy -312153.203769 kJ/mol
# GULP energy per Si atom -5574.164353 kJ/mol
# Density = 2.416361 g / cm^3
# Si number density = 24.218737 Si / 1000 Ang^3
#
#
#
# Elastic Constant Matrix: (Units=GPa)
#
#
# Indices 1 2 3 4 5 6 
#
# 1 86.9794 23.8650 20.2976 0.0000 0.0000 0.0000
# 2 23.8650 86.9811 20.2977 0.0000 0.0000 0.0000
# 3 20.2976 20.2977 49.8942 0.0000 0.0000 0.0000
# 4 0.0000 0.0000 0.0000 20.9910 0.0000 0.0000
# 5 0.0000 0.0000 0.0000 0.0000 20.9910 0.0000
# 6 0.0000 0.0000 0.0000 0.0000 0.0000 -54.4994
#
#
#
# Elastic Compliance Matrix: (Units=1/GPa)
#
#
# Indices 1 2 3 4 5 6 
#
# 1 0.013223 -0.002622 -0.004313 0.000000 0.000000 0.000000
# 2 -0.002622 0.013222 -0.004313 0.000000 0.000000 0.000000
# 3 -0.004313 -0.004313 0.023551 0.000000 0.000000 0.000000
# 4 0.000000 0.000000 0.000000 0.047640 0.000000 0.000000
# 5 0.000000 0.000000 0.000000 0.000000 0.047640 0.000000
# 6 0.000000 0.000000 0.000000 0.000000 0.000000 -0.018349
#
#
# Mechanical properties :
#
#
# Convention : Reuss Voigt Hill
#
# Bulk Modulus (GPa) = 36.36000 39.19728 37.77864
# Shear Modulus (GPa) = 31.52829 8.12281 19.82555
#
# Velocity S-wave (km/s) = 3.61198 1.83336 2.86423
# Velocity P-wave (km/s) = 5.69570 4.54988 5.15473
#
# Compressibility (1/GPa) = 0.02750275
#
# Stress axis : x y z
#
# Youngs Moduli (GPa) = 75.62771 75.62932 42.46054
#
# Poissons Ratio (x) = 0.19826 0.18312
# Poissons Ratio (y) = 0.19826 0.18311
# Poissons Ratio (z) = 0.32616 0.32616
#
# Static dielectric constant tensor:
#      x y z
#    x 2.038860 0.000000 0.000000 
#    y 0.000000 2.038860 0.000000 
#    z 0.000000 0.000000 1.989070 
# 
# From -- ./inp_files/7215.got.cif
#   From: 2010.05.17/outbox.cif.g08.bks.cpg/sg121_4_cif.got.tgz:7215.got - 2010.05.20 11:32:06.
