data_PCOD9560727
_publ_section_title
;
Structure prediction by ZEFSAII (Michael W. Deem and Ramdas Pophale) SiO2 
 PCOD9560727
Probable space group: I -4 2 D
;
_chemical_formula_sum "Si O2"
_cell_formula_units_Z 96
_cell_length_a 18.214342
_cell_length_b 18.214342
_cell_length_c 16.666082
_cell_angle_alpha 90.000000
_cell_angle_beta 90.000000
_cell_angle_gamma 90.000000
_cell_volume 5529.176938
_symmetry_space_group_name_H-M "I -4 2 D"
_symmetry_group_IT_number 122
_symmetry_cell_setting 'tetragonal'
loop_
_space_group_symop_operation_xyz
x,y,z
y,-x,-z
-x,-y,z
-y,x,-z
x,1/2-y,1/4-z
-x,1/2+y,1/4-z
-y,1/2-x,1/4+z
y,1/2+x,1/4+z
1/2+x,1/2+y,1/2+z
1/2+y,1/2-x,1/2-z
1/2-x,1/2-y,1/2+z
1/2-y,1/2+x,1/2-z
1/2+x,-y,3/4-z
1/2-x,y,3/4-z
1/2-y,-x,3/4+z
1/2+y,x,3/4+z
loop_
_atom_site_type_symbol
_atom_site_label
_atom_site_fract_x
_atom_site_fract_y
_atom_site_fract_z
Si Si1 0.803214 0.295539 0.941516
Si Si2 0.828643 0.053763 0.894857
Si Si3 0.830832 0.895669 0.838975
Si Si4 0.438680 0.204211 0.823661
Si Si5 0.087428 0.690987 0.404941
Si Si6 0.198050 0.307830 0.952128
O O1 0.750000 0.332756 0.875000
O O2 0.862308 0.248098 0.893357
O O3 0.850358 0.340172 0.006824
O O4 0.751273 0.240629 0.992164
O O5 0.750000 0.091704 0.875000
O O6 0.892899 0.111339 0.881960
O O7 0.836910 0.983436 0.837633
O O8 0.816169 0.029143 0.986386
O O9 0.750000 0.879890 0.875000
O O10 0.889409 0.864275 0.900319
O O11 0.504112 0.212355 0.886901
O O12 0.381213 0.272049 0.818647
O O13 0.118365 0.689931 0.495435
O O14 0.250000 0.318197 0.875000
#
# Coordination Sequence:
#
# PCOD9560727 Si02
#       6
#    16  16  16  16  16  16
#     4  10  18  34  55  80 103 139 194 231 276 337
#     4  11  19  32  53  80 118 144 180 224 284 358
#     4  11  20  33  53  79 109 151 185 232 284 347
#     4  12  20  33  53  81 112 151 189 222 288 357
#     4  11  22  33  53  85 112 147 185 232 297 351
#     4  11  20  37  59  78 108 146 195 249 283 333
#
# _framework density 17.362438999999998
#
# number of rings (size 3 to 8) (size 9 to 14) (size 15 to 20)
#    0.000    1.000    6.667    3.500    0.000    0.667 
#    0.000    2.500    0.000    0.000    0.000    0.000 
#    0.000    0.000    0.000    0.000    0.000    0.000 
#
# Total GULP energy -267664.641263 kJ/mol
# GULP energy per Si atom -5576.346693 kJ/mol
# Density = 1.732292 g / cm^3
# Si number density = 17.362439 Si / 1000 Ang^3
#
#
#
# Elastic Constant Matrix: (Units=GPa)
#
#
# Indices 1 2 3 4 5 6 
#
# 1 63.4690 19.0150 38.3563 0.0000 0.0000 0.0000
# 2 19.0150 63.4690 38.3563 0.0000 0.0000 0.0000
# 3 38.3563 38.3563 71.4012 0.0000 0.0000 0.0000
# 4 0.0000 0.0000 0.0000 30.6502 0.0000 0.0000
# 5 0.0000 0.0000 0.0000 0.0000 30.6502 0.0000
# 6 0.0000 0.0000 0.0000 0.0000 0.0000 9.9246
#
#
#
# Elastic Compliance Matrix: (Units=1/GPa)
#
#
# Indices 1 2 3 4 5 6 
#
# 1 0.023362 0.000866 -0.013015 0.000000 0.000000 0.000000
# 2 0.000866 0.023362 -0.013015 0.000000 0.000000 0.000000
# 3 -0.013015 -0.013015 0.027989 0.000000 0.000000 0.000000
# 4 0.000000 0.000000 0.000000 0.032626 0.000000 0.000000
# 5 0.000000 0.000000 0.000000 0.000000 0.032626 0.000000
# 6 0.000000 0.000000 0.000000 0.000000 0.000000 0.100759
#
#
# Mechanical properties :
#
#
# Convention : Reuss Voigt Hill
#
# Bulk Modulus (GPa) = 41.01026 43.31049 42.16037
# Shear Modulus (GPa) = 16.71237 21.08578 18.89908
#
# Velocity S-wave (km/s) = 3.10588 3.48867 3.30283
# Velocity P-wave (km/s) = 6.04428 6.42082 6.23539
#
# Compressibility (1/GPa) = 0.02438414
#
# Stress axis : x y z
#
# Youngs Moduli (GPa) = 42.80531 42.80531 35.72873
#
# Poissons Ratio (x) = -0.03709 0.46501
# Poissons Ratio (y) = -0.03709 0.46501
# Poissons Ratio (z) = 0.55712 0.55712
#
# Static dielectric constant tensor:
#      x y z
#    x 1.592810 0.000000 0.000000 
#    y 0.000000 1.592810 0.000000 
#    z 0.000000 0.000000 1.643070 
# 
# From -- ./inp_files/6326.got.cif
#   From: 2010.05.17/outbox.cif.g08.bks.cpg/sg122_4_cif.got.tgz:6326.got - 2010.05.20 11:37:33.
