data_PCOD9560741
_publ_section_title
;
Structure prediction by ZEFSAII (Michael W. Deem and Ramdas Pophale) SiO2 
 PCOD9560741
Probable space group: I -4 2 D
;
_chemical_formula_sum "Si O2"
_cell_formula_units_Z 120
_cell_length_a 17.388964
_cell_length_b 17.388964
_cell_length_c 21.465455
_cell_angle_alpha 90.000000
_cell_angle_beta 90.000000
_cell_angle_gamma 90.000000
_cell_volume 6490.639902
_symmetry_space_group_name_H-M "I -4 2 D"
_symmetry_group_IT_number 122
_symmetry_cell_setting 'tetragonal'
loop_
_space_group_symop_operation_xyz
x,y,z
y,-x,-z
-x,-y,z
-y,x,-z
x,1/2-y,1/4-z
-x,1/2+y,1/4-z
-y,1/2-x,1/4+z
y,1/2+x,1/4+z
1/2+x,1/2+y,1/2+z
1/2+y,1/2-x,1/2-z
1/2-x,1/2-y,1/2+z
1/2-y,1/2+x,1/2-z
1/2+x,-y,3/4-z
1/2-x,y,3/4-z
1/2-y,-x,3/4+z
1/2+y,x,3/4+z
loop_
_atom_site_type_symbol
_atom_site_label
_atom_site_fract_x
_atom_site_fract_y
_atom_site_fract_z
Si Si1 0.898848 0.402494 0.597606
Si Si2 0.447980 0.268087 0.259705
Si Si3 0.541869 0.081213 0.959674
Si Si4 0.578497 0.910849 0.672430
Si Si5 0.608097 0.997234 0.214172
Si Si6 0.596185 0.095825 0.692493
Si Si7 0.250000 0.499278 0.875000
Si Si8 0.763012 0.340083 0.116197
O O1 0.918695 0.424146 0.527095
O O2 0.913576 0.471756 0.645994
O O3 0.945994 0.326871 0.621392
O O4 0.809546 0.380698 0.601673
O O5 0.481872 0.349630 0.280498
O O6 0.504857 0.199647 0.282297
O O7 0.449028 0.257855 0.186109
O O8 0.367705 0.257748 0.294693
O O9 0.595308 0.101327 0.900030
O O10 0.500000 0.000000 0.945592
O O11 0.490944 0.880287 0.676907
O O12 0.616267 0.879942 0.736293
O O13 0.588338 0.003064 0.685150
O O14 0.577616 0.063296 0.262348
O O15 0.658517 0.129430 0.646158
O O16 0.757091 0.250000 0.125000
#
# Coordination Sequence:
#
# PCOD9560741 Si02
#       8
#    16  16  16  16  16  16   8  16
#     4  10  22  34  55  82 114 156 186 244 288 354
#     4  10  21  34  59  80 115 153 190 239 298 355
#     4  11  20  34  57  84 113 144 197 246 294 347
#     4   9  16  34  59  81 107 142 197 235 291 336
#     4  10  20  34  55  81 111 150 202 238 280 345
#     4   9  17  33  60  82 104 149 188 239 283 359
#     4  10  18  38  54  82 108 156 196 228 294 350
#     4  11  21  38  58  83 118 154 194 232 305 364
#
# _framework density 18.488161999999999
#
# number of rings (size 3 to 8) (size 9 to 14) (size 15 to 20)
#    0.000    2.000    4.667    0.800    1.867    0.000 
#    0.000    6.000    5.867    0.000    0.000    0.000 
#    0.000    0.000    0.000    0.000    0.000    0.000 
#
# Total GULP energy -334084.832731 kJ/mol
# GULP energy per Si atom -5568.080546 kJ/mol
# Density = 1.844608 g / cm^3
# Si number density = 18.488162 Si / 1000 Ang^3
#
#
#
# Elastic Constant Matrix: (Units=GPa)
#
#
# Indices 1 2 3 4 5 6 
#
# 1 49.0470 -2.1991 9.6458 0.0000 0.0000 0.0000
# 2 -2.1991 49.0470 9.6458 0.0000 0.0000 0.0000
# 3 9.6458 9.6458 155.2434 0.0000 0.0000 0.0000
# 4 0.0000 0.0000 0.0000 21.5825 0.0000 0.0000
# 5 0.0000 0.0000 0.0000 0.0000 21.5825 0.0000
# 6 0.0000 0.0000 0.0000 0.0000 0.0000 15.0408
#
#
#
# Elastic Compliance Matrix: (Units=1/GPa)
#
#
# Indices 1 2 3 4 5 6 
#
# 1 0.020710 0.001196 -0.001361 0.000000 0.000000 0.000000
# 2 0.001196 0.020710 -0.001361 0.000000 0.000000 0.000000
# 3 -0.001361 -0.001361 0.006611 0.000000 0.000000 0.000000
# 4 0.000000 0.000000 0.000000 0.046334 0.000000 0.000000
# 5 0.000000 0.000000 0.000000 0.000000 0.046334 0.000000
# 6 0.000000 0.000000 0.000000 0.000000 0.000000 0.066486
#
#
# Mechanical properties :
#
#
# Convention : Reuss Voigt Hill
#
# Bulk Modulus (GPa) = 22.23281 31.94693 27.08987
# Shear Modulus (GPa) = 22.19966 27.39083 24.79524
#
# Velocity S-wave (km/s) = 3.46894 3.85324 3.66613
# Velocity P-wave (km/s) = 5.30059 6.09211 5.71008
#
# Compressibility (1/GPa) = 0.04497857
#
# Stress axis : x y z
#
# Youngs Moduli (GPa) = 48.28602 48.28602 151.27126
#
# Poissons Ratio (x) = -0.05776 0.20590
# Poissons Ratio (y) = -0.05776 0.20590
# Poissons Ratio (z) = 0.06572 0.06572
#
# Static dielectric constant tensor:
#      x y z
#    x 1.637870 0.000000 0.000000 
#    y 0.000000 1.637870 0.000000 
#    z 0.000000 0.000000 1.689120 
# 
# From -- ./inp_files/7491.got.cif
#   From: 2010.05.17/outbox.cif.g08.bks.cpg/sg122_4_cif.got.tgz:7491.got - 2010.05.20 11:37:33.
