data_PCOD9560398
_publ_section_title
;
Structure prediction by ZEFSAII (Michael W. Deem and Ramdas Pophale) SiO2 
 PCOD9560398
Probable space group: I -4 2 M
;
_chemical_formula_sum "Si O2"
_cell_formula_units_Z 88
_cell_length_a 12.922519
_cell_length_b 12.922519
_cell_length_c 27.835290
_cell_angle_alpha 90.000000
_cell_angle_beta 90.000000
_cell_angle_gamma 90.000000
_cell_volume 4648.256755
_symmetry_space_group_name_H-M "I -4 2 M"
_symmetry_group_IT_number 121
_symmetry_cell_setting 'tetragonal'
loop_
_space_group_symop_operation_xyz
x,y,z
y,-x,-z
-x,-y,z
-y,x,-z
x,-y,-z
-x,y,-z
-y,-x,z
y,x,z
1/2+x,1/2+y,1/2+z
1/2+y,1/2-x,1/2-z
1/2-x,1/2-y,1/2+z
1/2-y,1/2+x,1/2-z
1/2+x,1/2-y,1/2-z
1/2-x,1/2+y,1/2-z
1/2-y,1/2-x,1/2+z
1/2+y,1/2+x,1/2+z
loop_
_atom_site_type_symbol
_atom_site_label
_atom_site_fract_x
_atom_site_fract_y
_atom_site_fract_z
Si Si1 0.001125 0.827785 0.390065
Si Si2 0.263163 0.567224 0.785090
Si Si3 0.523711 0.120034 0.943219
Si Si4 0.244776 0.579519 0.408603
Si Si5 0.763205 0.411194 0.301454
Si Si6 0.000000 0.172133 0.000000
O O1 0.910232 0.910232 0.397379
O O2 0.011016 0.797934 0.333901
O O3 0.975801 0.721616 0.418303
O O4 0.108764 0.891237 0.402161
O O5 0.356438 0.643563 0.770584
O O6 0.238107 0.490997 0.741833
O O7 0.165535 0.639406 0.797460
O O8 0.642737 0.135046 0.927760
O O9 0.500000 0.000000 0.927774
O O10 0.500000 0.123729 0.000000
O O11 0.338289 0.661712 0.406192
O O12 0.232709 0.539035 0.354571
O O13 0.265941 0.497218 0.450500
O O14 0.661426 0.338575 0.298235
O O15 0.099040 0.099040 0.001510
#
# Coordination Sequence:
#
# PCOD9560398 Si02
#       6
#    16  16  16  16  16   8
#     4  10  21  40  66  92 124 165 208 263 321 372
#     4  10  21  39  60  88 122 157 204 253 305 369
#     4  11  23  38  58  89 123 158 205 252 308 375
#     4  10  20  39  60  79 115 158 194 238 301 364
#     4  10  21  37  60  86 115 158 199 239 301 366
#     4   9  18  32  55  86 114 148 197 244 286 347
#
# _framework density 18.931830000000001
#
# number of rings (size 3 to 8) (size 9 to 14) (size 15 to 20)
#    0.000    1.909    1.818    2.182    0.000    5.091 
#    0.000    3.636    0.000    0.000    0.000    0.000 
#    0.000    0.000    0.000    0.000    0.000    0.000 
#
# Total GULP energy -245202.652302 kJ/mol
# GULP energy per Si atom -5572.787552 kJ/mol
# Density = 1.888874 g / cm^3
# Si number density = 18.931830 Si / 1000 Ang^3
#
#
#
# Elastic Constant Matrix: (Units=GPa)
#
#
# Indices 1 2 3 4 5 6 
#
# 1 77.9059 15.0603 44.3922 0.0000 0.0000 0.0000
# 2 15.0603 77.9073 44.3919 0.0000 0.0000 0.0000
# 3 44.3922 44.3919 113.7187 0.0000 0.0000 0.0000
# 4 0.0000 0.0000 0.0000 29.4411 0.0000 0.0000
# 5 0.0000 0.0000 0.0000 0.0000 29.4401 0.0000
# 6 0.0000 0.0000 0.0000 0.0000 0.0000 18.0868
#
#
#
# Elastic Compliance Matrix: (Units=1/GPa)
#
#
# Indices 1 2 3 4 5 6 
#
# 1 0.016531 0.000619 -0.006695 0.000000 0.000000 0.000000
# 2 0.000619 0.016531 -0.006695 0.000000 0.000000 0.000000
# 3 -0.006695 -0.006695 0.014021 0.000000 0.000000 0.000000
# 4 0.000000 0.000000 0.000000 0.033966 0.000000 0.000000
# 5 0.000000 0.000000 0.000000 0.000000 0.033967 0.000000
# 6 0.000000 0.000000 0.000000 0.000000 0.000000 0.055289
#
#
# Mechanical properties :
#
#
# Convention : Reuss Voigt Hill
#
# Bulk Modulus (GPa) = 46.42219 53.02450 49.72335
# Shear Modulus (GPa) = 24.62732 26.43943 25.53338
#
# Velocity S-wave (km/s) = 3.61063 3.74111 3.67645
# Velocity P-wave (km/s) = 6.47736 6.83595 6.65907
#
# Compressibility (1/GPa) = 0.02154142
#
# Stress axis : x y z
#
# Youngs Moduli (GPa) = 60.49161 60.49331 71.32401
#
# Poissons Ratio (x) = -0.03746 0.47751
# Poissons Ratio (y) = -0.03745 0.47750
# Poissons Ratio (z) = 0.40499 0.40499
#
# Static dielectric constant tensor:
#      x y z
#    x 1.694740 0.000000 0.000000 
#    y 0.000000 1.694730 0.000000 
#    z 0.000000 0.000000 1.671140 
# 
# From -- ./inp_files/8233.got.cif
#   From: 2010.05.17/outbox.cif.g08.bks.cpg/sg121_5_cif.got.tgz:8233.got - 2010.05.20 11:32:06.
