data_PCOD9560047
_publ_section_title
;
Structure prediction by ZEFSAII (Michael W. Deem and Ramdas Pophale) SiO2 
 PCOD9560047
Probable space group: I -4 C 2
;
_chemical_formula_sum "Si O2"
_cell_formula_units_Z 36
_cell_length_a 8.718923
_cell_length_b 8.718923
_cell_length_c 18.846197
_cell_angle_alpha 90.000000
_cell_angle_beta 90.000000
_cell_angle_gamma 90.000000
_cell_volume 1432.680702
_symmetry_space_group_name_H-M "I -4 C 2"
_symmetry_group_IT_number 120
_symmetry_cell_setting 'tetragonal'
loop_
_space_group_symop_operation_xyz
x,y,z
y,-x,-z
-x,-y,z
-y,x,-z
y,x,1/2-z
-y,-x,1/2-z
-x,y,1/2+z
x,-y,1/2+z
1/2+x,1/2+y,1/2+z
1/2+y,1/2-x,1/2-z
1/2-x,1/2-y,1/2+z
1/2-y,1/2+x,1/2-z
1/2+y,1/2+x,-z
1/2-y,1/2-x,-z
1/2-x,1/2+y,z
1/2+x,1/2-y,z
loop_
_atom_site_type_symbol
_atom_site_label
_atom_site_fract_x
_atom_site_fract_y
_atom_site_fract_z
Si Si1 0.000000 0.000000 0.000000
Si Si2 0.651461 0.609238 0.829714
Si Si3 0.192936 0.396899 0.425951
O O1 0.131719 0.088708 0.955704
O O2 0.500000 0.500000 0.826898
O O3 0.670887 0.670887 0.750000
O O4 0.798303 0.521758 0.863193
O O5 0.638790 0.746755 0.885067
O O6 0.103365 0.396636 0.500000
#
# Coordination Sequence:
#
# PCOD9560047 Si02
#       3
#     4  16  16
#     4  12  24  48  78 124 152 204 270 332 392 476
#     4  11  27  48  78 110 162 207 263 330 405 484
#     4  12  23  47  84 110 158 206 265 330 396 481
#
# _framework density 25.127718000000002
#
# number of rings (size 3 to 8) (size 9 to 14) (size 15 to 20)
#    0.000    0.444    6.667    0.000    6.222    0.000 
#    0.000   15.556    0.000    0.000    0.000    0.000 
#    0.000    0.000    0.000    0.000    0.000    0.000 
#
# Total GULP energy -100323.703644 kJ/mol
# GULP energy per Si atom -5573.539091 kJ/mol
# Density = 2.507053 g / cm^3
# Si number density = 25.127718 Si / 1000 Ang^3
#
#
#
# Elastic Constant Matrix: (Units=GPa)
#
#
# Indices 1 2 3 4 5 6 
#
# 1 55.1127 107.0214 71.2284 0.0000 0.0000 0.0000
# 2 107.0214 55.1097 71.2267 0.0000 0.0000 0.0000
# 3 71.2284 71.2267 278.6600 0.0000 0.0000 0.0000
# 4 0.0000 0.0000 0.0000 -81.7101 0.0000 0.0000
# 5 0.0000 0.0000 0.0000 0.0000 -81.6906 0.0000
# 6 0.0000 0.0000 0.0000 0.0000 0.0000 37.8757
#
#
#
# Elastic Compliance Matrix: (Units=1/GPa)
#
#
# Indices 1 2 3 4 5 6 
#
# 1 -0.005655 0.013609 -0.002033 0.000000 0.000000 0.000000
# 2 0.013609 -0.005655 -0.002033 0.000000 0.000000 0.000000
# 3 -0.002033 -0.002033 0.004628 0.000000 0.000000 0.000000
# 4 0.000000 0.000000 0.000000 -0.012238 0.000000 0.000000
# 5 0.000000 0.000000 0.000000 0.000000 -0.012241 0.000000
# 6 0.000000 0.000000 0.000000 0.000000 0.000000 0.026402
#
#
# Mechanical properties :
#
#
# Convention : Reuss Voigt Hill
#
# Bulk Modulus (GPa) = 80.62076 98.64837 89.63457
# Shear Modulus (GPa) = -253.67212 -15.81128 -134.74170
#
# Velocity S-wave (km/s) = -10.05844 -2.51118 -7.33070
# Velocity P-wave (km/s) = 10.13619 5.56201 5.99192
#
# Compressibility (1/GPa) = 0.01240375
#
# Stress axis : x y z
#
# Youngs Moduli (GPa) = -176.84200 -176.83161 216.07703
#
# Poissons Ratio (x) = 2.40652 0.43931
# Poissons Ratio (y) = 2.40666 0.43932
# Poissons Ratio (z) = -0.35954 -0.35953
#
# Static dielectric constant tensor:
#      x y z
#    x 2.641040 0.000000 0.000000 
#    y 0.000000 2.641090 0.000000 
#    z 0.000000 0.000000 2.052450 
# 
# From -- ./inp_files/4763.got.cif
#   From: 2010.05.17/outbox.cif.g08.bks.cpg/sg120_3_cif.got.tgz:4763.got - 2010.05.20 11:28:13.
