data_PCOD9560752
_publ_section_title
;
Structure prediction by ZEFSAII (Michael W. Deem and Ramdas Pophale) SiO2 
 PCOD9560752
Probable space group: I -4 2 D
;
_chemical_formula_sum "Si O2"
_cell_formula_units_Z 52
_cell_length_a 20.599766
_cell_length_b 20.599766
_cell_length_c 4.769793
_cell_angle_alpha 90.000000
_cell_angle_beta 90.000000
_cell_angle_gamma 90.000000
_cell_volume 2024.063373
_symmetry_space_group_name_H-M "I -4 2 D"
_symmetry_group_IT_number 122
_symmetry_cell_setting 'tetragonal'
loop_
_space_group_symop_operation_xyz
x,y,z
y,-x,-z
-x,-y,z
-y,x,-z
x,1/2-y,1/4-z
-x,1/2+y,1/4-z
-y,1/2-x,1/4+z
y,1/2+x,1/4+z
1/2+x,1/2+y,1/2+z
1/2+y,1/2-x,1/2-z
1/2-x,1/2-y,1/2+z
1/2-y,1/2+x,1/2-z
1/2+x,-y,3/4-z
1/2-x,y,3/4-z
1/2-y,-x,3/4+z
1/2+y,x,3/4+z
loop_
_atom_site_type_symbol
_atom_site_label
_atom_site_fract_x
_atom_site_fract_y
_atom_site_fract_z
Si Si1 0.570126 0.889853 0.938539
Si Si2 0.000000 0.500000 0.750000
Si Si3 0.689765 0.404803 0.170197
Si Si4 0.125190 0.706589 0.857930
O O1 0.574326 0.870524 0.617003
O O2 0.560096 0.824554 0.126790
O O3 0.643521 0.911787 0.023382
O O4 0.520267 0.941710 0.046401
O O5 0.750000 0.412483 0.375000
O O6 0.682283 0.329560 0.069324
O O7 0.090231 0.750000 0.625000
O O8 0.143594 0.750000 0.125000
#
# Coordination Sequence:
#
# PCOD9560752 Si02
#       4
#    16   4  16  16
#     4  10  24  41  70 100 138 195 240 303 349 447
#     4  12  28  54  72  98 140 206 268 302 384 426
#     4  10  21  42  66 107 147 180 233 292 370 444
#     4  10  18  39  64 102 144 180 230 282 363 439
#
# _framework density 25.690897
#
# number of rings (size 3 to 8) (size 9 to 14) (size 15 to 20)
#    1.846    0.000    3.077    0.923    0.000    3.692 
#    5.538    4.615    0.000    0.000    0.000    0.000 
#    0.000    0.000    0.000    0.000    0.000    0.000 
#
# Total GULP energy -145059.869856 kJ/mol
# GULP energy per Si atom -5579.225764 kJ/mol
# Density = 2.563242 g / cm^3
# Si number density = 25.690897 Si / 1000 Ang^3
#
#
#
# Elastic Constant Matrix: (Units=GPa)
#
#
# Indices 1 2 3 4 5 6 
#
# 1 89.7590 30.8003 36.8252 0.0000 0.0000 0.0000
# 2 30.8003 89.7590 36.8252 0.0000 0.0000 0.0000
# 3 36.8252 36.8252 201.1092 0.0000 0.0000 0.0000
# 4 0.0000 0.0000 0.0000 22.6362 0.0000 0.0000
# 5 0.0000 0.0000 0.0000 0.0000 22.6362 0.0000
# 6 0.0000 0.0000 0.0000 0.0000 0.0000 10.8706
#
#
#
# Elastic Compliance Matrix: (Units=1/GPa)
#
#
# Indices 1 2 3 4 5 6 
#
# 1 0.013150 -0.003811 -0.001710 0.000000 0.000000 0.000000
# 2 -0.003811 0.013150 -0.001710 0.000000 0.000000 0.000000
# 3 -0.001710 -0.001710 0.005599 0.000000 0.000000 0.000000
# 4 0.000000 0.000000 0.000000 0.044177 0.000000 0.000000
# 5 0.000000 0.000000 0.000000 0.000000 0.044177 0.000000
# 6 0.000000 0.000000 0.000000 0.000000 0.000000 0.091991
#
#
# Mechanical properties :
#
#
# Convention : Reuss Voigt Hill
#
# Bulk Modulus (GPa) = 57.34946 65.50320 61.42633
# Shear Modulus (GPa) = 21.50363 29.64037 25.57200
#
# Velocity S-wave (km/s) = 2.89626 3.40035 3.15837
# Velocity P-wave (km/s) = 5.79273 6.40066 6.10427
#
# Compressibility (1/GPa) = 0.01743696
#
# Stress axis : x y z
#
# Youngs Moduli (GPa) = 76.04442 76.04442 178.61242
#
# Poissons Ratio (x) = 0.28979 0.30545
# Poissons Ratio (y) = 0.28979 0.30545
# Poissons Ratio (z) = 0.13005 0.13005
#
# Static dielectric constant tensor:
#      x y z
#    x 2.090150 0.000000 0.000000 
#    y 0.000000 2.090150 0.000000 
#    z 0.000000 0.000000 1.940460 
# 
# From -- ./inp_files/806.got.cif
#   From: 2010.05.17/outbox.cif.g08.bks.cpg/sg122_1_cif.got.tgz:806.got - 2010.05.20 11:37:33.
