data_PCOD9560658
_publ_section_title
;
Structure prediction by ZEFSAII (Michael W. Deem and Ramdas Pophale) SiO2 
 PCOD9560658
Probable space group: I -4 2 M
;
_chemical_formula_sum "Si O2"
_cell_formula_units_Z 64
_cell_length_a 10.800599
_cell_length_b 10.800599
_cell_length_c 28.911379
_cell_angle_alpha 90.000000
_cell_angle_beta 90.000000
_cell_angle_gamma 90.000000
_cell_volume 3372.597324
_symmetry_space_group_name_H-M "I -4 2 M"
_symmetry_group_IT_number 121
_symmetry_cell_setting 'tetragonal'
loop_
_space_group_symop_operation_xyz
x,y,z
y,-x,-z
-x,-y,z
-y,x,-z
x,-y,-z
-x,y,-z
-y,-x,z
y,x,z
1/2+x,1/2+y,1/2+z
1/2+y,1/2-x,1/2-z
1/2-x,1/2-y,1/2+z
1/2-y,1/2+x,1/2-z
1/2+x,1/2-y,1/2-z
1/2-x,1/2+y,1/2-z
1/2-y,1/2-x,1/2+z
1/2+y,1/2+x,1/2+z
loop_
_atom_site_type_symbol
_atom_site_label
_atom_site_fract_x
_atom_site_fract_y
_atom_site_fract_z
Si Si1 0.122133 0.426671 0.133290
Si Si2 0.494362 0.298938 0.320682
Si Si3 0.503482 0.707971 0.782710
Si Si4 0.995411 0.796665 0.449803
O O1 0.067123 0.291806 0.145274
O O2 0.189278 0.481655 0.178743
O O3 0.216149 0.450140 0.091609
O O4 0.000000 0.500000 0.121404
O O5 0.587778 0.412223 0.313001
O O6 0.363295 0.363295 0.334450
O O7 0.484160 0.241166 0.269296
O O8 0.396462 0.603539 0.789107
O O9 0.633903 0.633903 0.787197
O O10 0.861951 0.861951 0.439946
O O11 0.000000 0.731249 0.500000
O O12 0.091013 0.908988 0.455697
#
# Coordination Sequence:
#
# PCOD9560658 Si02
#       4
#    16  16  16  16
#     4  12  24  32  52  84 119 151 185 229 293 346
#     4   9  20  37  53  73 108 156 198 229 270 335
#     4   9  19  36  56  76 103 147 201 247 284 328
#     4   9  19  39  66  90 110 139 187 244 298 349
#
# _framework density 18.976474
#
# number of rings (size 3 to 8) (size 9 to 14) (size 15 to 20)
#    0.000    2.250    0.000    5.250    3.500    4.500 
#    0.000    0.000    0.000    0.000    0.000    0.000 
#    0.000    8.000    0.000    0.000    0.000    0.250 
#
# Total GULP energy -178304.939044 kJ/mol
# GULP energy per Si atom -5572.029345 kJ/mol
# Density = 1.893328 g / cm^3
# Si number density = 18.976474 Si / 1000 Ang^3
#
#
#
# Elastic Constant Matrix: (Units=GPa)
#
#
# Indices 1 2 3 4 5 6 
#
# 1 61.1620 14.7263 43.7953 0.0000 0.0000 0.0000
# 2 14.7263 61.1617 43.7949 0.0000 0.0000 0.0000
# 3 43.7953 43.7949 118.4327 0.0000 0.0000 0.0000
# 4 0.0000 0.0000 0.0000 -0.4410 0.0000 0.0000
# 5 0.0000 0.0000 0.0000 0.0000 -0.4384 0.0000
# 6 0.0000 0.0000 0.0000 0.0000 0.0000 24.6061
#
#
#
# Elastic Compliance Matrix: (Units=1/GPa)
#
#
# Indices 1 2 3 4 5 6 
#
# 1 0.022262 0.000727 -0.008501 0.000000 0.000000 0.000000
# 2 0.000727 0.022262 -0.008501 0.000000 0.000000 0.000000
# 3 -0.008501 -0.008501 0.014731 0.000000 0.000000 0.000000
# 4 0.000000 0.000000 0.000000 -2.267478 0.000002 0.000000
# 5 0.000000 0.000000 0.000000 0.000002 -2.281038 0.000000
# 6 0.000000 0.000000 0.000000 0.000000 0.000000 0.040640
#
#
# Mechanical properties :
#
#
# Convention : Reuss Voigt Hill
#
# Bulk Modulus (GPa) = 37.44638 49.48770 43.46704
# Shear Modulus (GPa) = -1.13452 13.97467 6.42008
#
# Velocity S-wave (km/s) = -0.77405 2.71665 1.84134
# Velocity P-wave (km/s) = 4.35626 5.99794 5.24177
#
# Compressibility (1/GPa) = 0.02670485
#
# Stress axis : x y z
#
# Youngs Moduli (GPa) = 44.91892 44.91900 67.88437
#
# Poissons Ratio (x) = -0.03266 0.57710
# Poissons Ratio (y) = -0.03266 0.57710
# Poissons Ratio (z) = 0.38187 0.38186
#
# Static dielectric constant tensor:
#      x y z
#    x 1.338430 0.000000 0.000000 
#    y 0.000000 1.339420 0.000000 
#    z 0.000000 0.000000 1.686110 
# 
# From -- ./inp_files/6911.got.cif
#   From: 2010.05.17/outbox.cif.g08.bks.cpg/sg121_4_cif.got.tgz:6911.got - 2010.05.20 11:32:06.
