data_PCOD9560382
_publ_section_title
;
Structure prediction by ZEFSAII (Michael W. Deem and Ramdas Pophale) SiO2 
 PCOD9560382
Probable space group: I -4 2 M
;
_chemical_formula_sum "Si O2"
_cell_formula_units_Z 88
_cell_length_a 17.562208
_cell_length_b 17.562208
_cell_length_c 12.412870
_cell_angle_alpha 90.000000
_cell_angle_beta 90.000000
_cell_angle_gamma 90.000000
_cell_volume 3828.515767
_symmetry_space_group_name_H-M "I -4 2 M"
_symmetry_group_IT_number 121
_symmetry_cell_setting 'tetragonal'
loop_
_space_group_symop_operation_xyz
x,y,z
y,-x,-z
-x,-y,z
-y,x,-z
x,-y,-z
-x,y,-z
-y,-x,z
y,x,z
1/2+x,1/2+y,1/2+z
1/2+y,1/2-x,1/2-z
1/2-x,1/2-y,1/2+z
1/2-y,1/2+x,1/2-z
1/2+x,1/2-y,1/2-z
1/2-x,1/2+y,1/2-z
1/2-y,1/2-x,1/2+z
1/2+y,1/2+x,1/2+z
loop_
_atom_site_type_symbol
_atom_site_label
_atom_site_fract_x
_atom_site_fract_y
_atom_site_fract_z
Si Si1 0.629724 0.370277 0.652294
Si Si2 0.808948 0.500000 0.500000
Si Si3 0.000000 0.775549 0.500000
Si Si4 0.400426 0.772950 0.183994
Si Si5 0.844138 0.844138 0.594408
Si Si6 0.752898 0.752898 0.942671
Si Si7 0.532690 0.902663 0.700285
Si Si8 0.950392 0.828672 0.128502
O O1 0.649906 0.350095 0.776978
O O2 0.683449 0.316552 0.578122
O O3 0.539531 0.351623 0.637269
O O4 0.865743 0.513123 0.398933
O O5 0.746311 0.443143 0.447625
O O6 0.032671 0.726479 0.597083
O O7 0.073445 0.821991 0.456055
O O8 0.322517 0.777778 0.121001
O O9 0.405660 0.841876 0.265399
O O10 0.418755 0.699008 0.256130
O O11 0.780925 0.780925 0.555625
O O12 0.480990 0.921416 0.805587
O O13 0.900184 0.900184 0.092280
#
# Coordination Sequence:
#
# PCOD9560382 Si02
#       8
#     8   8   8  16   8   8  16  16
#     4  12  25  44  72 104 136 195 258 312 366 449
#     4  10  26  47  71 104 146 194 236 296 374 432
#     4  10  20  37  62  97 140 188 238 308 368 436
#     4  10  21  40  65  98 143 190 235 298 374 439
#     4  10  22  42  65 100 144 187 247 306 382 437
#     4  10  24  43  64 101 147 189 249 306 382 440
#     4  10  24  45  72 106 143 184 242 303 362 440
#     4  11  24  47  68 101 143 192 245 304 364 441
#
# _framework density 22.985409000000001
#
# number of rings (size 3 to 8) (size 9 to 14) (size 15 to 20)
#    0.000    1.636    2.727    0.273    6.364    3.091 
#   11.455    0.000    0.000    0.000    0.000    0.000 
#    0.000    0.000    0.000    0.000    0.000    0.000 
#
# Total GULP energy -245125.416128 kJ/mol
# GULP energy per Si atom -5571.032185 kJ/mol
# Density = 2.293309 g / cm^3
# Si number density = 22.985409 Si / 1000 Ang^3
#
#
#
# Elastic Constant Matrix: (Units=GPa)
#
#
# Indices 1 2 3 4 5 6 
#
# 1 141.6486 50.1700 40.9862 0.0000 0.0000 0.0000
# 2 50.1700 141.6519 40.9874 0.0000 0.0000 0.0000
# 3 40.9862 40.9874 108.1905 0.0000 0.0000 0.0000
# 4 0.0000 0.0000 0.0000 26.8452 0.0000 0.0000
# 5 0.0000 0.0000 0.0000 0.0000 26.8446 0.0000
# 6 0.0000 0.0000 0.0000 0.0000 0.0000 31.2053
#
#
#
# Elastic Compliance Matrix: (Units=1/GPa)
#
#
# Indices 1 2 3 4 5 6 
#
# 1 0.008576 -0.002356 -0.002356 0.000000 0.000000 0.000000
# 2 -0.002356 0.008576 -0.002357 0.000000 0.000000 0.000000
# 3 -0.002356 -0.002357 0.011028 0.000000 0.000000 0.000000
# 4 0.000000 0.000000 0.000000 0.037251 0.000000 0.000000
# 5 0.000000 0.000000 0.000000 0.000000 0.037251 0.000000
# 6 0.000000 0.000000 0.000000 0.000000 0.000000 0.032046
#
#
# Mechanical properties :
#
#
# Convention : Reuss Voigt Hill
#
# Bulk Modulus (GPa) = 71.20984 72.86424 72.03704
# Shear Modulus (GPa) = 32.56358 34.26885 33.41621
#
# Velocity S-wave (km/s) = 3.76800 3.86540 3.81701
# Velocity P-wave (km/s) = 7.06952 7.18963 7.12983
#
# Compressibility (1/GPa) = 0.01404300
#
# Stress axis : x y z
#
# Youngs Moduli (GPa) = 116.60637 116.60851 90.67490
#
# Poissons Ratio (x) = 0.27468 0.21367
# Poissons Ratio (y) = 0.27467 0.21368
# Poissons Ratio (z) = 0.27478 0.27479
#
# Static dielectric constant tensor:
#      x y z
#    x 1.894840 0.000000 0.000000 
#    y 0.000000 1.894840 0.000000 
#    z 0.000000 0.000000 1.901820 
# 
# From -- ./inp_files/4441.got.cif
#   From: 2010.05.17/outbox.cif.g08.bks.cpg/sg121_3_cif.got.tgz:4441.got - 2010.05.20 11:32:06.
