data_PCOD9560709
_publ_section_title
;
Structure prediction by ZEFSAII (Michael W. Deem and Ramdas Pophale) SiO2 
 PCOD9560709
Probable space group: I -4 2 D
;
_chemical_formula_sum "Si O2"
_cell_formula_units_Z 112
_cell_length_a 14.087577
_cell_length_b 14.087577
_cell_length_c 30.453047
_cell_angle_alpha 90.000000
_cell_angle_beta 90.000000
_cell_angle_gamma 90.000000
_cell_volume 6043.706401
_symmetry_space_group_name_H-M "I -4 2 D"
_symmetry_group_IT_number 122
_symmetry_cell_setting 'tetragonal'
loop_
_space_group_symop_operation_xyz
x,y,z
y,-x,-z
-x,-y,z
-y,x,-z
x,1/2-y,1/4-z
-x,1/2+y,1/4-z
-y,1/2-x,1/4+z
y,1/2+x,1/4+z
1/2+x,1/2+y,1/2+z
1/2+y,1/2-x,1/2-z
1/2-x,1/2-y,1/2+z
1/2-y,1/2+x,1/2-z
1/2+x,-y,3/4-z
1/2-x,y,3/4-z
1/2-y,-x,3/4+z
1/2+y,x,3/4+z
loop_
_atom_site_type_symbol
_atom_site_label
_atom_site_fract_x
_atom_site_fract_y
_atom_site_fract_z
Si Si1 0.126012 0.429017 0.946025
Si Si2 0.691643 0.300542 0.742772
Si Si3 0.367584 0.407860 0.175033
Si Si4 0.996200 0.772547 0.397033
Si Si5 0.110246 0.502989 0.041526
Si Si6 0.820011 0.737898 0.336380
Si Si7 0.877135 0.417147 0.732668
O O1 0.144291 0.531755 0.925720
O O2 0.191442 0.349267 0.925305
O O3 0.016257 0.396224 0.938922
O O4 0.133066 0.444212 0.997782
O O5 0.639011 0.297440 0.789530
O O6 0.638855 0.387986 0.718235
O O7 0.690187 0.210651 0.709802
O O8 0.798459 0.341722 0.748598
O O9 0.326102 0.419690 0.127129
O O10 0.032079 0.680088 0.421469
O O11 0.922621 0.735614 0.359601
O O12 0.946000 0.842064 0.433145
O O13 0.000000 0.500000 0.051573
O O14 0.750000 0.707087 0.375000
O O15 0.877496 0.516131 0.760676
#
# Coordination Sequence:
#
# PCOD9560709 Si02
#       7
#    16  16  16  16  16  16  16
#     4   9  18  31  58  78 107 148 188 218 284 355
#     4  10  20  34  58  81 111 149 196 241 286 343
#     4   9  18  37  54  82 106 145 191 234 282 343
#     4  10  22  35  58  83 114 149 194 243 286 355
#     4  10  17  34  58  82 102 150 192 232 283 347
#     4  11  20  33  54  86 112 143 195 238 282 341
#     4  10  22  35  52  79 121 156 184 228 289 341
#
# _framework density 18.531675
#
# number of rings (size 3 to 8) (size 9 to 14) (size 15 to 20)
#    0.000    2.143    5.714    0.000    6.000    4.571 
#    0.000    0.714    6.286    0.000    0.000    0.000 
#    0.000    0.000    0.000    0.000    0.000    0.000 
#
# Total GULP energy -311806.642792 kJ/mol
# GULP energy per Si atom -5567.975764 kJ/mol
# Density = 1.848950 g / cm^3
# Si number density = 18.531675 Si / 1000 Ang^3
#
#
#
# Elastic Constant Matrix: (Units=GPa)
#
#
# Indices 1 2 3 4 5 6 
#
# 1 42.8080 -4.3843 19.5432 0.0000 0.0000 0.0000
# 2 -4.3843 42.8080 19.5432 0.0000 0.0000 0.0000
# 3 19.5432 19.5432 84.1372 0.0000 0.0000 0.0000
# 4 0.0000 0.0000 0.0000 29.7033 0.0000 0.0000
# 5 0.0000 0.0000 0.0000 0.0000 29.7033 0.0000
# 6 0.0000 0.0000 0.0000 0.0000 0.0000 13.6568
#
#
#
# Elastic Compliance Matrix: (Units=1/GPa)
#
#
# Indices 1 2 3 4 5 6 
#
# 1 0.027634 0.006444 -0.007915 0.000000 0.000000 0.000000
# 2 0.006444 0.027634 -0.007915 0.000000 0.000000 0.000000
# 3 -0.007915 -0.007915 0.015563 0.000000 0.000000 0.000000
# 4 0.000000 0.000000 0.000000 0.033666 0.000000 0.000000
# 5 0.000000 0.000000 0.000000 0.000000 0.033666 0.000000
# 6 0.000000 0.000000 0.000000 0.000000 0.000000 0.073224
#
#
# Mechanical properties :
#
#
# Convention : Reuss Voigt Hill
#
# Bulk Modulus (GPa) = 19.21011 26.57304 22.89158
# Shear Modulus (GPa) = 20.20101 23.61610 21.90855
#
# Velocity S-wave (km/s) = 3.30522 3.57370 3.44208
# Velocity P-wave (km/s) = 4.99545 5.60346 5.30817
#
# Compressibility (1/GPa) = 0.05205591
#
# Stress axis : x y z
#
# Youngs Moduli (GPa) = 36.18760 36.18760 64.25691
#
# Poissons Ratio (x) = -0.23319 0.50862
# Poissons Ratio (y) = -0.23319 0.50862
# Poissons Ratio (z) = 0.28644 0.28644
#
# Static dielectric constant tensor:
#      x y z
#    x 1.677980 0.000000 0.000000 
#    y 0.000000 1.677980 0.000000 
#    z 0.000000 0.000000 1.702750 
# 
# From -- ./inp_files/9696.got.cif
#   From: 2010.05.17/outbox.cif.g08.bks.cpg/sg122_5_cif.got.tgz:9696.got - 2010.05.20 11:37:33.
