data_PCOD9560484
_publ_section_title
;
Structure prediction by ZEFSAII (Michael W. Deem and Ramdas Pophale) SiO2 
 PCOD9560484
Probable space group: I -4 2 M
;
_chemical_formula_sum "Si O2"
_cell_formula_units_Z 84
_cell_length_a 11.407762
_cell_length_b 11.407762
_cell_length_c 31.098107
_cell_angle_alpha 90.000000
_cell_angle_beta 90.000000
_cell_angle_gamma 90.000000
_cell_volume 4047.015403
_symmetry_space_group_name_H-M "I -4 2 M"
_symmetry_group_IT_number 121
_symmetry_cell_setting 'tetragonal'
loop_
_space_group_symop_operation_xyz
x,y,z
y,-x,-z
-x,-y,z
-y,x,-z
x,-y,-z
-x,y,-z
-y,-x,z
y,x,z
1/2+x,1/2+y,1/2+z
1/2+y,1/2-x,1/2-z
1/2-x,1/2-y,1/2+z
1/2-y,1/2+x,1/2-z
1/2+x,1/2-y,1/2-z
1/2-x,1/2+y,1/2-z
1/2-y,1/2-x,1/2+z
1/2+y,1/2+x,1/2+z
loop_
_atom_site_type_symbol
_atom_site_label
_atom_site_fract_x
_atom_site_fract_y
_atom_site_fract_z
Si Si1 0.724932 0.002524 0.112183
Si Si2 0.997693 0.193110 0.739279
Si Si3 0.850535 0.331947 0.458878
Si Si4 0.000000 0.000000 0.132842
Si Si5 0.642084 0.835324 0.687374
Si Si6 0.878619 0.696323 0.443050
O O1 0.679561 0.126937 0.095967
O O2 0.719315 0.924671 0.069151
O O3 0.855285 0.001149 0.130764
O O4 0.642062 0.941168 0.147212
O O5 0.104305 0.104305 0.753672
O O6 0.055793 0.285355 0.706553
O O7 0.937390 0.270366 0.776536
O O8 0.895228 0.104773 0.722966
O O9 0.793456 0.206545 0.451125
O O10 0.842049 0.353946 0.509907
O O11 0.983665 0.324730 0.443630
O O12 0.741055 0.741055 0.673774
O O13 0.828489 0.828489 0.442379
#
# Coordination Sequence:
#
# PCOD9560484 Si02
#       6
#    16  16  16   4  16  16
#     4  12  22  40  63  95 131 167 210 264 330 391
#     4   9  20  39  64  90 122 165 213 266 324 395
#     4  10  21  41  62  88 128 175 217 267 321 375
#     4  12  24  36  65 100 132 160 212 264 328 404
#     4  10  21  39  65  92 125 164 210 262 327 390
#     4  10  22  39  63  92 127 169 221 268 318 382
#
# _framework density 20.756036999999999
#
# number of rings (size 3 to 8) (size 9 to 14) (size 15 to 20)
#    0.000    1.714    2.857    1.143    1.333    2.286 
#    6.857    4.762    0.000    2.286    0.000    0.000 
#    0.000    0.000    0.000    0.000    0.000    0.000 
#
# Total GULP energy -233828.636774 kJ/mol
# GULP energy per Si atom -5567.348495 kJ/mol
# Density = 2.070880 g / cm^3
# Si number density = 20.756037 Si / 1000 Ang^3
#
#
#
# Elastic Constant Matrix: (Units=GPa)
#
#
# Indices 1 2 3 4 5 6 
#
# 1 95.2974 12.5934 33.7308 0.0000 0.0000 0.0000
# 2 12.5934 95.2992 33.7309 0.0000 0.0000 0.0000
# 3 33.7308 33.7309 49.1276 0.0000 0.0000 0.0000
# 4 0.0000 0.0000 0.0000 13.9943 0.0000 0.0000
# 5 0.0000 0.0000 0.0000 0.0000 13.9936 0.0000
# 6 0.0000 0.0000 0.0000 0.0000 0.0000 27.7756
#
#
#
# Elastic Compliance Matrix: (Units=1/GPa)
#
#
# Indices 1 2 3 4 5 6 
#
# 1 0.014166 0.002075 -0.011151 0.000000 0.000000 0.000000
# 2 0.002075 0.014166 -0.011151 0.000000 0.000000 0.000000
# 3 -0.011151 -0.011151 0.035668 0.000000 0.000000 0.000000
# 4 0.000000 0.000000 0.000000 0.071458 0.000000 0.000000
# 5 0.000000 0.000000 0.000000 0.000000 0.071461 0.000000
# 6 0.000000 0.000000 0.000000 0.000000 0.000000 0.036003
#
#
# Mechanical properties :
#
#
# Convention : Reuss Voigt Hill
#
# Bulk Modulus (GPa) = 42.47082 44.42605 43.44843
# Shear Modulus (GPa) = 17.16889 21.79730 19.48309
#
# Velocity S-wave (km/s) = 2.87919 3.24414 3.06710
# Velocity P-wave (km/s) = 5.61777 5.95676 5.78974
#
# Compressibility (1/GPa) = 0.02354558
#
# Stress axis : x y z
#
# Youngs Moduli (GPa) = 70.59049 70.59201 28.03668
#
# Poissons Ratio (x) = -0.14647 0.31264
# Poissons Ratio (y) = -0.14647 0.31263
# Poissons Ratio (z) = 0.78716 0.78716
#
# Static dielectric constant tensor:
#      x y z
#    x 1.755830 0.000000 0.000000 
#    y 0.000000 1.755830 0.000000 
#    z 0.000000 0.000000 1.754680 
# 
# From -- ./inp_files/8182.got.cif
#   From: 2010.05.17/outbox.cif.g08.bks.cpg/sg121_5_cif.got.tgz:8182.got - 2010.05.20 11:32:06.
