data_PCOD9560670
_publ_section_title
;
Structure prediction by ZEFSAII (Michael W. Deem and Ramdas Pophale) SiO2 
 PCOD9560670
Probable space group: I -4 2 M
;
_chemical_formula_sum "Si O2"
_cell_formula_units_Z 56
_cell_length_a 26.608106
_cell_length_b 26.608106
_cell_length_c 5.324640
_cell_angle_alpha 90.000000
_cell_angle_beta 90.000000
_cell_angle_gamma 90.000000
_cell_volume 3769.798822
_symmetry_space_group_name_H-M "I -4 2 M"
_symmetry_group_IT_number 121
_symmetry_cell_setting 'tetragonal'
loop_
_space_group_symop_operation_xyz
x,y,z
y,-x,-z
-x,-y,z
-y,x,-z
x,-y,-z
-x,y,-z
-y,-x,z
y,x,z
1/2+x,1/2+y,1/2+z
1/2+y,1/2-x,1/2-z
1/2-x,1/2-y,1/2+z
1/2-y,1/2+x,1/2-z
1/2+x,1/2-y,1/2-z
1/2-x,1/2+y,1/2-z
1/2-y,1/2-x,1/2+z
1/2+y,1/2+x,1/2+z
loop_
_atom_site_type_symbol
_atom_site_label
_atom_site_fract_x
_atom_site_fract_y
_atom_site_fract_z
Si Si1 0.934639 0.151109 0.686625
Si Si2 0.813768 0.272775 0.263474
Si Si3 0.000000 0.917701 0.000000
Si Si4 0.895662 0.191186 0.190452
O O1 0.888506 0.111495 0.674108
O O2 0.981248 0.116983 0.773942
O O3 0.932293 0.179862 0.423962
O O4 0.922933 0.187136 0.923149
O O5 0.770342 0.229659 0.264856
O O6 0.807607 0.301731 0.525087
O O7 0.865429 0.242556 0.231614
O O8 0.953834 0.953834 0.924182
O O9 0.853236 0.146765 0.187464
#
# Coordination Sequence:
#
# PCOD9560670 Si02
#       4
#    16  16   8  16
#     4   9  17  28  40  52  67  87 110 142 184 224
#     4   9  15  22  34  52  71  89 107 125 147 188
#     4   9  18  32  46  58  70  88 122 166 206 242
#     4   9  16  26  38  52  70  89 107 129 165 212
#
# _framework density 14.854903
#
# number of rings (size 3 to 8) (size 9 to 14) (size 15 to 20)
#    0.000    3.000    0.000    1.714    0.000    8.000 
#    0.000    4.286    0.000   12.000    0.000    0.000 
#    0.000    0.000    0.000    0.000    0.000    0.000 
#
# Total GULP energy -156099.290836 kJ/mol
# GULP energy per Si atom -5574.974673 kJ/mol
# Density = 1.482109 g / cm^3
# Si number density = 14.854903 Si / 1000 Ang^3
#
#
#
# Elastic Constant Matrix: (Units=GPa)
#
#
# Indices 1 2 3 4 5 6 
#
# 1 30.0507 27.0522 13.1892 0.0000 0.0000 0.0000
# 2 27.0522 30.0508 13.1891 0.0000 0.0000 0.0000
# 3 13.1892 13.1891 76.0135 0.0000 0.0000 0.0000
# 4 0.0000 0.0000 0.0000 12.3529 0.0000 0.0000
# 5 0.0000 0.0000 0.0000 0.0000 12.3532 0.0000
# 6 0.0000 0.0000 0.0000 0.0000 0.0000 23.0687
#
#
#
# Elastic Compliance Matrix: (Units=1/GPa)
#
#
# Indices 1 2 3 4 5 6 
#
# 1 0.176264 -0.157225 -0.003304 0.000000 0.000000 0.000000
# 2 -0.157225 0.176263 -0.003303 0.000000 0.000000 0.000000
# 3 -0.003304 -0.003303 0.014302 0.000000 0.000000 0.000000
# 4 0.000000 0.000000 0.000000 0.080952 0.000000 0.000000
# 5 0.000000 0.000000 0.000000 0.000000 0.080951 0.000000
# 6 0.000000 0.000000 0.000000 0.000000 0.000000 0.043349
#
#
# Mechanical properties :
#
#
# Convention : Reuss Voigt Hill
#
# Bulk Modulus (GPa) = 25.53306 26.99734 26.26520
# Shear Modulus (GPa) = 5.47766 15.06726 10.27246
#
# Velocity S-wave (km/s) = 1.92235 3.18826 2.63253
# Velocity P-wave (km/s) = 4.70668 5.63620 5.19229
#
# Compressibility (1/GPa) = 0.03916492
#
# Stress axis : x y z
#
# Youngs Moduli (GPa) = 5.67332 5.67335 69.92084
#
# Poissons Ratio (x) = 0.89199 0.23099
# Poissons Ratio (y) = 0.89199 0.23095
# Poissons Ratio (z) = 0.01874 0.01874
#
# Static dielectric constant tensor:
#      x y z
#    x 1.490170 0.000000 0.000000 
#    y 0.000000 1.490160 0.000000 
#    z 0.000000 0.000000 1.532690 
# 
# From -- ./inp_files/395.got.cif
#   From: 2010.05.17/outbox.cif.g08.bks.cpg/sg121_1_cif.got.tgz:395.got - 2010.05.20 11:32:06.
