data_PCOD9560551
_publ_section_title
;
Structure prediction by ZEFSAII (Michael W. Deem and Ramdas Pophale) SiO2 
 PCOD9560551
Probable space group: I -4 2 M
;
_chemical_formula_sum "Si O2"
_cell_formula_units_Z 52
_cell_length_a 17.171072
_cell_length_b 17.171072
_cell_length_c 9.373598
_cell_angle_alpha 90.000000
_cell_angle_beta 90.000000
_cell_angle_gamma 90.000000
_cell_volume 2763.765192
_symmetry_space_group_name_H-M "I -4 2 M"
_symmetry_group_IT_number 121
_symmetry_cell_setting 'tetragonal'
loop_
_space_group_symop_operation_xyz
x,y,z
y,-x,-z
-x,-y,z
-y,x,-z
x,-y,-z
-x,y,-z
-y,-x,z
y,x,z
1/2+x,1/2+y,1/2+z
1/2+y,1/2-x,1/2-z
1/2-x,1/2-y,1/2+z
1/2-y,1/2+x,1/2-z
1/2+x,1/2-y,1/2-z
1/2-x,1/2+y,1/2-z
1/2-y,1/2-x,1/2+z
1/2+y,1/2+x,1/2+z
loop_
_atom_site_type_symbol
_atom_site_label
_atom_site_fract_x
_atom_site_fract_y
_atom_site_fract_z
Si Si1 0.000000 0.500000 0.500000
Si Si2 0.467580 0.776553 0.342488
Si Si3 0.088266 0.644242 0.372462
Si Si4 0.922490 0.796315 0.429949
O O1 0.949967 0.438810 0.411760
O O2 0.500000 0.760401 0.500000
O O3 0.386994 0.825749 0.344619
O O4 0.538031 0.820964 0.257720
O O5 0.443704 0.707980 0.236425
O O6 0.086022 0.709340 0.498140
O O7 0.846608 0.846608 0.458725
O O8 0.000000 0.830909 0.500000
#
# Coordination Sequence:
#
# PCOD9560551 Si02
#       4
#     4  16  16  16
#     4  12  16  34  58  92 126 158 206 238 276 366
#     4  11  20  34  55  90 127 157 197 246 308 364
#     4  11  20  35  58  90 126 169 199 239 293 377
#     4  10  23  43  61  84 116 159 215 259 306 367
#
# _framework density 18.814912
#
# number of rings (size 3 to 8) (size 9 to 14) (size 15 to 20)
#    0.000    1.231    6.154    3.692    0.000    1.538 
#    0.000    6.154    0.000    0.000    0.000    0.000 
#    0.000    0.000    0.000    0.000    0.000    0.000 
#
# Total GULP energy -144777.609881 kJ/mol
# GULP energy per Si atom -5568.369611 kJ/mol
# Density = 1.877209 g / cm^3
# Si number density = 18.814912 Si / 1000 Ang^3
#
#
#
# Elastic Constant Matrix: (Units=GPa)
#
#
# Indices 1 2 3 4 5 6 
#
# 1 71.3988 43.0171 37.9148 0.0000 0.0000 0.0000
# 2 43.0171 71.3988 37.9148 0.0000 0.0000 0.0000
# 3 37.9148 37.9148 133.4763 0.0000 0.0000 0.0000
# 4 0.0000 0.0000 0.0000 46.9447 0.0000 0.0000
# 5 0.0000 0.0000 0.0000 0.0000 46.9447 0.0000
# 6 0.0000 0.0000 0.0000 0.0000 0.0000 26.2673
#
#
#
# Elastic Compliance Matrix: (Units=1/GPa)
#
#
# Indices 1 2 3 4 5 6 
#
# 1 0.023001 -0.012233 -0.003058 0.000000 0.000000 0.000000
# 2 -0.012233 0.023001 -0.003058 0.000000 0.000000 0.000000
# 3 -0.003058 -0.003058 0.009230 0.000000 0.000000 0.000000
# 4 0.000000 0.000000 0.000000 0.021302 0.000000 0.000000
# 5 0.000000 0.000000 0.000000 0.000000 0.021302 0.000000
# 6 0.000000 0.000000 0.000000 0.000000 0.000000 0.038070
#
#
# Mechanical properties :
#
#
# Convention : Reuss Voigt Hill
#
# Bulk Modulus (GPa) = 53.96708 57.10745 55.53727
# Shear Modulus (GPa) = 27.96712 34.52650 31.24681
#
# Velocity S-wave (km/s) = 3.85961 4.28841 4.07965
# Velocity P-wave (km/s) = 6.97191 7.41207 7.19535
#
# Compressibility (1/GPa) = 0.01852981
#
# Stress axis : x y z
#
# Youngs Moduli (GPa) = 43.47729 43.47729 108.34811
#
# Poissons Ratio (x) = 0.53188 0.33138
# Poissons Ratio (y) = 0.53188 0.33138
# Poissons Ratio (z) = 0.13297 0.13297
#
# Static dielectric constant tensor:
#      x y z
#    x 1.700940 0.000000 0.000000 
#    y 0.000000 1.700940 0.000000 
#    z 0.000000 0.000000 1.804140 
# 
# From -- ./inp_files/1241.got.cif
#   From: 2010.05.17/outbox.cif.g08.bks.cpg/sg121_1_cif.got.tgz:1241.got - 2010.05.20 11:32:06.
