data_PCOD9560270
_publ_section_title
;
Structure prediction by ZEFSAII (Michael W. Deem and Ramdas Pophale) SiO2 
 PCOD9560270
Probable space group: I -4 2 M
;
_chemical_formula_sum "Si O2"
_cell_formula_units_Z 96
_cell_length_a 20.950102
_cell_length_b 20.950102
_cell_length_c 10.666660
_cell_angle_alpha 90.000000
_cell_angle_beta 90.000000
_cell_angle_gamma 90.000000
_cell_volume 4681.669328
_symmetry_space_group_name_H-M "I -4 2 M"
_symmetry_group_IT_number 121
_symmetry_cell_setting 'tetragonal'
loop_
_space_group_symop_operation_xyz
x,y,z
y,-x,-z
-x,-y,z
-y,x,-z
x,-y,-z
-x,y,-z
-y,-x,z
y,x,z
1/2+x,1/2+y,1/2+z
1/2+y,1/2-x,1/2-z
1/2-x,1/2-y,1/2+z
1/2-y,1/2+x,1/2-z
1/2+x,1/2-y,1/2-z
1/2-x,1/2+y,1/2-z
1/2-y,1/2-x,1/2+z
1/2+y,1/2+x,1/2+z
loop_
_atom_site_type_symbol
_atom_site_label
_atom_site_fract_x
_atom_site_fract_y
_atom_site_fract_z
Si Si1 0.436009 0.662463 0.953288
Si Si2 0.296284 0.054033 0.607843
Si Si3 0.806152 0.698896 0.484718
Si Si4 0.794594 0.561144 0.574298
Si Si5 0.097213 0.500293 0.718330
Si Si6 0.776141 0.875517 0.294429
O O1 0.384963 0.615038 0.898538
O O2 0.452378 0.721199 0.864141
O O3 0.500000 0.629055 0.000000
O O4 0.406377 0.694175 0.079906
O O5 0.301866 0.127881 0.565328
O O6 0.344541 0.036098 0.715949
O O7 0.308245 0.000000 0.500000
O O8 0.751956 0.751956 0.522255
O O9 0.785988 0.625680 0.494523
O O10 0.829003 0.720822 0.347161
O O11 0.770805 0.500000 0.500000
O O12 0.868152 0.543372 0.613918
O O13 0.755860 0.575966 0.700467
O O14 0.056651 0.453522 0.810618
O O15 0.831591 0.831591 0.236638
#
# Coordination Sequence:
#
# PCOD9560270 Si02
#       6
#    16  16  16  16  16  16
#     4   9  17  32  59  91 119 154 197 257 326 383
#     4  10  19  35  60  81 116 159 213 260 308 365
#     4  10  21  40  65  90 116 160 217 270 316 367
#     4  12  25  37  59  89 125 160 212 262 312 368
#     4  11  24  38  54  80 128 177 217 248 305 365
#     4   9  20  41  63  84 117 160 204 258 320 375
#
# _framework density 20.505507000000001
#
# number of rings (size 3 to 8) (size 9 to 14) (size 15 to 20)
#    0.000    1.833    1.667    5.000    4.667    0.167 
#    0.000    1.667    0.000    9.000    0.000    0.000 
#    0.000    3.000    0.000    0.000    0.000    0.000 
#
# Total GULP energy -267493.537627 kJ/mol
# GULP energy per Si atom -5572.782034 kJ/mol
# Density = 2.045884 g / cm^3
# Si number density = 20.505507 Si / 1000 Ang^3
#
#
#
# Elastic Constant Matrix: (Units=GPa)
#
#
# Indices 1 2 3 4 5 6 
#
# 1 113.9995 72.6379 29.2505 0.0000 0.0000 0.0000
# 2 72.6379 113.9953 29.2521 0.0000 0.0000 0.0000
# 3 29.2505 29.2521 30.5002 0.0000 0.0000 0.0000
# 4 0.0000 0.0000 0.0000 28.2085 0.0000 0.0000
# 5 0.0000 0.0000 0.0000 0.0000 28.2082 0.0000
# 6 0.0000 0.0000 0.0000 0.0000 0.0000 41.6604
#
#
#
# Elastic Compliance Matrix: (Units=1/GPa)
#
#
# Indices 1 2 3 4 5 6 
#
# 1 0.015919 -0.008259 -0.007346 0.000000 0.000000 0.000000
# 2 -0.008259 0.015920 -0.007349 0.000000 0.000000 0.000000
# 3 -0.007346 -0.007349 0.046880 0.000000 0.000000 0.000000
# 4 0.000000 0.000000 0.000000 0.035450 0.000000 0.000000
# 5 0.000000 0.000000 0.000000 0.000000 0.035451 0.000000
# 6 0.000000 0.000000 0.000000 0.000000 0.000000 0.024004
#
#
# Mechanical properties :
#
#
# Convention : Reuss Voigt Hill
#
# Bulk Modulus (GPa) = 30.47632 57.86401 44.17017
# Shear Modulus (GPa) = 21.69495 28.10572 24.90033
#
# Velocity S-wave (km/s) = 3.25623 3.70624 3.48850
# Velocity P-wave (km/s) = 5.38815 6.82605 6.14927
#
# Compressibility (1/GPa) = 0.03281236
#
# Stress axis : x y z
#
# Youngs Moduli (GPa) = 62.81785 62.81251 21.33108
#
# Poissons Ratio (x) = 0.51874 0.15670
# Poissons Ratio (y) = 0.51878 0.15676
# Poissons Ratio (z) = 0.46147 0.46159
#
# Static dielectric constant tensor:
#      x y z
#    x 1.788270 0.000000 0.000000 
#    y 0.000000 1.788270 0.000000 
#    z 0.000000 0.000000 1.771360 
# 
# From -- ./inp_files/3301.got.cif
#   From: 2010.05.17/outbox.cif.g08.bks.cpg/sg121_2_cif.got.tgz:3301.got - 2010.05.20 11:32:06.
