data_PCOD9560750
_publ_section_title
;
Structure prediction by ZEFSAII (Michael W. Deem and Ramdas Pophale) SiO2 
 PCOD9560750
Probable space group: I -4 2 D
;
_chemical_formula_sum "Si O2"
_cell_formula_units_Z 64
_cell_length_a 11.920902
_cell_length_b 11.920902
_cell_length_c 18.165625
_cell_angle_alpha 90.000000
_cell_angle_beta 90.000000
_cell_angle_gamma 90.000000
_cell_volume 2581.478903
_symmetry_space_group_name_H-M "I -4 2 D"
_symmetry_group_IT_number 122
_symmetry_cell_setting 'tetragonal'
loop_
_space_group_symop_operation_xyz
x,y,z
y,-x,-z
-x,-y,z
-y,x,-z
x,1/2-y,1/4-z
-x,1/2+y,1/4-z
-y,1/2-x,1/4+z
y,1/2+x,1/4+z
1/2+x,1/2+y,1/2+z
1/2+y,1/2-x,1/2-z
1/2-x,1/2-y,1/2+z
1/2-y,1/2+x,1/2-z
1/2+x,-y,3/4-z
1/2-x,y,3/4-z
1/2-y,-x,3/4+z
1/2+y,x,3/4+z
loop_
_atom_site_type_symbol
_atom_site_label
_atom_site_fract_x
_atom_site_fract_y
_atom_site_fract_z
Si Si1 0.220567 0.065147 0.238014
Si Si2 0.750000 0.254609 0.875000
Si Si3 0.326730 0.613998 0.106018
Si Si4 0.937432 0.134643 0.270438
Si Si5 0.112405 0.750000 0.125000
O O1 0.195124 0.165777 0.181572
O O2 0.282355 0.117052 0.310029
O O3 0.315860 0.983919 0.204334
O O4 0.116375 0.979719 0.240060
O O5 0.665504 0.324043 0.822966
O O6 0.372049 0.545201 0.176149
O O7 0.201761 0.648770 0.132166
O O8 0.949072 0.220766 0.201478
#
# Coordination Sequence:
#
# PCOD9560750 Si02
#       5
#    16   8  16  16   8
#     4  10  19  40  62 105 146 184 231 296 363 429
#     4  10  18  39  61  96 148 178 232 294 362 428
#     4  10  22  41  66 103 142 192 232 298 361 428
#     4  10  22  41  67  99 148 189 238 290 369 430
#     4  10  20  45  71 104 142 196 238 294 356 428
#
# _framework density 24.791992
#
# number of rings (size 3 to 8) (size 9 to 14) (size 15 to 20)
#    0.000    2.000    5.000    0.000    0.000    1.500 
#    9.000    1.250    0.000    0.750    0.000    0.000 
#   22.500    3.000    0.000    0.000    0.000    0.000 
#
# Total GULP energy -178344.016396 kJ/mol
# GULP energy per Si atom -5573.250512 kJ/mol
# Density = 2.473556 g / cm^3
# Si number density = 24.791992 Si / 1000 Ang^3
#
#
#
# Elastic Constant Matrix: (Units=GPa)
#
#
# Indices 1 2 3 4 5 6 
#
# 1 580.4119 -396.4178 70.2351 0.0000 0.0000 0.0000
# 2 -396.4178 580.4119 70.2351 0.0000 0.0000 0.0000
# 3 70.2351 70.2351 189.0082 0.0000 0.0000 0.0000
# 4 0.0000 0.0000 0.0000 28.5763 0.0000 0.0000
# 5 0.0000 0.0000 0.0000 0.0000 28.5763 0.0000
# 6 0.0000 0.0000 0.0000 0.0000 0.0000 30.9605
#
#
#
# Elastic Compliance Matrix: (Units=1/GPa)
#
#
# Indices 1 2 3 4 5 6 
#
# 1 0.004306 0.003282 -0.002820 0.000000 0.000000 0.000000
# 2 0.003282 0.004306 -0.002820 0.000000 0.000000 0.000000
# 3 -0.002820 -0.002820 0.007386 0.000000 0.000000 0.000000
# 4 0.000000 0.000000 0.000000 0.034994 0.000000 0.000000
# 5 0.000000 0.000000 0.000000 0.000000 0.034994 0.000000
# 6 0.000000 0.000000 0.000000 0.000000 0.000000 0.032299
#
#
# Mechanical properties :
#
#
# Convention : Reuss Voigt Hill
#
# Bulk Modulus (GPa) = 88.62720 93.10410 90.86565
# Shear Modulus (GPa) = 39.44463 124.67460 82.05962
#
# Velocity S-wave (km/s) = 3.99309 7.09911 5.75944
# Velocity P-wave (km/s) = 7.55550 10.23876 8.99772
#
# Compressibility (1/GPa) = 0.01128322
#
# Stress axis : x y z
#
# Youngs Moduli (GPa) = 232.25504 232.25504 135.38728
#
# Poissons Ratio (x) = -0.76224 0.38172
# Poissons Ratio (y) = -0.76224 0.38172
# Poissons Ratio (z) = 0.65484 0.65484
#
# Static dielectric constant tensor:
#      x y z
#    x 2.085370 0.000000 0.000000 
#    y 0.000000 2.085370 0.000000 
#    z 0.000000 0.000000 2.321720 
# 
# From -- ./inp_files/6083.got.cif
#   From: 2010.05.17/outbox.cif.g08.bks.cpg/sg122_4_cif.got.tgz:6083.got - 2010.05.20 11:37:33.
