data_PCOD9560068
_publ_section_title
;
Structure prediction by ZEFSAII (Michael W. Deem and Ramdas Pophale) SiO2 
 PCOD9560068
Probable space group: I -4 C 2
;
_chemical_formula_sum "Si O2"
_cell_formula_units_Z 48
_cell_length_a 13.828651
_cell_length_b 13.828651
_cell_length_c 9.653574
_cell_angle_alpha 90.000000
_cell_angle_beta 90.000000
_cell_angle_gamma 90.000000
_cell_volume 1846.068291
_symmetry_space_group_name_H-M "I -4 C 2"
_symmetry_group_IT_number 120
_symmetry_cell_setting 'tetragonal'
loop_
_space_group_symop_operation_xyz
x,y,z
y,-x,-z
-x,-y,z
-y,x,-z
y,x,1/2-z
-y,-x,1/2-z
-x,y,1/2+z
x,-y,1/2+z
1/2+x,1/2+y,1/2+z
1/2+y,1/2-x,1/2-z
1/2-x,1/2-y,1/2+z
1/2-y,1/2+x,1/2-z
1/2+y,1/2+x,-z
1/2-y,1/2-x,-z
1/2-x,1/2+y,z
1/2+x,1/2-y,z
loop_
_atom_site_type_symbol
_atom_site_label
_atom_site_fract_x
_atom_site_fract_y
_atom_site_fract_z
Si Si1 0.000000 0.500000 0.250000
Si Si2 0.047703 0.188866 0.439813
Si Si3 0.231437 0.268564 0.000000
Si Si4 0.196183 0.439889 0.832938
Si Si5 0.500000 0.500000 0.750000
O O1 0.905499 0.491920 0.344619
O O2 0.156378 0.203427 0.498888
O O3 0.044532 0.269149 0.321207
O O4 0.981064 0.222052 0.565587
O O5 0.012955 0.091813 0.356657
O O6 0.188087 0.326675 0.868950
#
# Coordination Sequence:
#
# PCOD9560068 Si02
#       5
#     4  16   8  16   4
#     4  12  28  58  80 130 172 238 312 382 472 534
#     4  12  29  51  88 127 175 233 301 381 471 560
#     4  12  26  51  76 127 168 232 290 370 460 562
#     4  12  28  51  87 121 172 234 299 385 450 570
#     4  12  28  58  84 138 180 240 296 388 488 570
#
# _framework density 26.001207999999998
#
# number of rings (size 3 to 8) (size 9 to 14) (size 15 to 20)
#    0.000    0.000    3.333    4.000    4.667    8.667 
#    0.000    0.000    0.000    0.000    0.000    0.000 
#    0.000    0.000    0.000    0.000    0.000    0.000 
#
# Total GULP energy -134408.241592 kJ/mol
# GULP energy per Si atom -5600.343400 kJ/mol
# Density = 2.594203 g / cm^3
# Si number density = 26.001208 Si / 1000 Ang^3
#
#
#
# Elastic Constant Matrix: (Units=GPa)
#
#
# Indices 1 2 3 4 5 6 
#
# 1 237.0658 -16.9170 16.3065 0.0000 0.0000 0.0000
# 2 -16.9170 237.0612 16.3029 0.0000 0.0000 0.0000
# 3 16.3065 16.3029 77.3022 0.0000 0.0000 0.0000
# 4 0.0000 0.0000 0.0000 54.0345 0.0000 0.0000
# 5 0.0000 0.0000 0.0000 0.0000 54.0341 0.0000
# 6 0.0000 0.0000 0.0000 0.0000 0.0000 33.5825
#
#
#
# Elastic Compliance Matrix: (Units=1/GPa)
#
#
# Indices 1 2 3 4 5 6 
#
# 1 0.004313 0.000376 -0.000989 0.000000 0.000000 0.000000
# 2 0.000376 0.004313 -0.000989 0.000000 0.000000 0.000000
# 3 -0.000989 -0.000989 0.013353 0.000000 0.000000 0.000000
# 4 0.000000 0.000000 0.000000 0.018507 0.000000 0.000000
# 5 0.000000 0.000000 0.000000 0.000000 0.018507 0.000000
# 6 0.000000 0.000000 0.000000 0.000000 0.000000 0.029777
#
#
# Mechanical properties :
#
#
# Convention : Reuss Voigt Hill
#
# Bulk Modulus (GPa) = 53.26143 64.75710 59.00926
# Shear Modulus (GPa) = 50.89917 64.04600 57.47259
#
# Velocity S-wave (km/s) = 4.42924 4.96844 4.70657
# Velocity P-wave (km/s) = 6.83274 7.60745 7.23048
#
# Compressibility (1/GPa) = 0.01877531
#
# Stress axis : x y z
#
# Youngs Moduli (GPa) = 231.85239 231.84927 74.88705
#
# Poissons Ratio (x) = -0.08713 0.07407
# Poissons Ratio (y) = -0.08713 0.07406
# Poissons Ratio (z) = 0.22932 0.22928
#
# Static dielectric constant tensor:
#      x y z
#    x 2.058530 0.000000 0.000000 
#    y 0.000000 2.058530 0.000000 
#    z 0.000000 0.000000 1.937100 
# 
# From -- ./inp_files/2161.got.cif
#   From: 2010.05.17/outbox.cif.g08.bks.cpg/sg120_2_cif.got.tgz:2161.got - 2010.05.20 11:28:13.
