data_PCOD9560051
_publ_section_title
;
Structure prediction by ZEFSAII (Michael W. Deem and Ramdas Pophale) SiO2 
 PCOD9560051
Probable space group: I -4 C 2
;
_chemical_formula_sum "Si O2"
_cell_formula_units_Z 48
_cell_length_a 8.954207
_cell_length_b 8.954207
_cell_length_c 25.752827
_cell_angle_alpha 90.000000
_cell_angle_beta 90.000000
_cell_angle_gamma 90.000000
_cell_volume 2064.805605
_symmetry_space_group_name_H-M "I -4 C 2"
_symmetry_group_IT_number 120
_symmetry_cell_setting 'tetragonal'
loop_
_space_group_symop_operation_xyz
x,y,z
y,-x,-z
-x,-y,z
-y,x,-z
y,x,1/2-z
-y,-x,1/2-z
-x,y,1/2+z
x,-y,1/2+z
1/2+x,1/2+y,1/2+z
1/2+y,1/2-x,1/2-z
1/2-x,1/2-y,1/2+z
1/2-y,1/2+x,1/2-z
1/2+y,1/2+x,-z
1/2-y,1/2-x,-z
1/2-x,1/2+y,z
1/2+x,1/2-y,z
loop_
_atom_site_type_symbol
_atom_site_label
_atom_site_fract_x
_atom_site_fract_y
_atom_site_fract_z
Si Si1 0.140412 0.591961 0.626643
Si Si2 0.885820 0.863226 0.309039
Si Si3 0.412544 0.636228 0.960962
O O1 0.098443 0.739348 0.658038
O O2 0.229405 0.477658 0.664199
O O3 0.245480 0.641783 0.579112
O O4 0.000000 0.500000 0.606469
O O5 0.833549 0.833549 0.250000
O O6 0.000000 0.000000 0.307384
O O7 0.500000 0.500000 0.931956
O O8 0.542120 0.694440 0.000643
#
# Coordination Sequence:
#
# PCOD9560051 Si02
#       3
#    16  16  16
#     4  12  24  44  81 109 150 200 261 319 393 466
#     4  11  28  47  74 110 156 199 252 325 390 480
#     4   6  17  42  78  98 154 191 248 298 381 454
#
# _framework density 23.246742000000001
#
# number of rings (size 3 to 8) (size 9 to 14) (size 15 to 20)
#    2.000    0.333    0.000    3.000    9.333    0.000 
#    0.000    1.667   14.667    0.000    0.000    0.000 
#    0.000    0.000    0.000    0.000    0.000    0.000 
#
# Total GULP energy -133970.188563 kJ/mol
# GULP energy per Si atom -5582.091190 kJ/mol
# Density = 2.319383 g / cm^3
# Si number density = 23.246742 Si / 1000 Ang^3
#
#
#
# Elastic Constant Matrix: (Units=GPa)
#
#
# Indices 1 2 3 4 5 6 
#
# 1 69.7892 -0.2832 17.8873 0.0000 0.0000 0.0000
# 2 -0.2832 69.7892 17.8873 0.0000 0.0000 0.0000
# 3 17.8873 17.8873 124.0827 0.0000 0.0000 0.0000
# 4 0.0000 0.0000 0.0000 92.4072 0.0000 0.0000
# 5 0.0000 0.0000 0.0000 0.0000 92.4072 0.0000
# 6 0.0000 0.0000 0.0000 0.0000 0.0000 34.6086
#
#
#
# Elastic Compliance Matrix: (Units=1/GPa)
#
#
# Indices 1 2 3 4 5 6 
#
# 1 0.014906 0.000635 -0.002240 0.000000 0.000000 0.000000
# 2 0.000635 0.014906 -0.002240 0.000000 0.000000 0.000000
# 3 -0.002240 -0.002240 0.008705 0.000000 0.000000 0.000000
# 4 0.000000 0.000000 0.000000 0.010822 0.000000 0.000000
# 5 0.000000 0.000000 0.000000 0.000000 0.010822 0.000000
# 6 0.000000 0.000000 0.000000 0.000000 0.000000 0.028895
#
#
# Mechanical properties :
#
#
# Convention : Reuss Voigt Hill
#
# Bulk Modulus (GPa) = 32.44154 37.18264 34.81209
# Shear Modulus (GPa) = 46.71997 59.09592 52.90794
#
# Velocity S-wave (km/s) = 4.48788 5.04741 4.77585
# Velocity P-wave (km/s) = 6.39064 7.07092 6.73937
#
# Compressibility (1/GPa) = 0.03082468
#
# Stress axis : x y z
#
# Youngs Moduli (GPa) = 67.08879 67.08879 114.87616
#
# Poissons Ratio (x) = -0.04258 0.25735
# Poissons Ratio (y) = -0.04258 0.25735
# Poissons Ratio (z) = 0.15029 0.15029
#
# Static dielectric constant tensor:
#      x y z
#    x 1.848580 0.000000 0.000000 
#    y 0.000000 1.848580 0.000000 
#    z 0.000000 0.000000 1.885670 
# 
# From -- ./inp_files/6374.got.cif
#   From: 2010.05.17/outbox.cif.g08.bks.cpg/sg120_4_cif.got.tgz:6374.got - 2010.05.20 11:28:13.
