data_PCOD9560742
_publ_section_title
;
Structure prediction by ZEFSAII (Michael W. Deem and Ramdas Pophale) SiO2 
 PCOD9560742
Probable space group: I -4 2 D
;
_chemical_formula_sum "Si O2"
_cell_formula_units_Z 100
_cell_length_a 28.970768
_cell_length_b 28.970768
_cell_length_c 6.171074
_cell_angle_alpha 90.000000
_cell_angle_beta 90.000000
_cell_angle_gamma 90.000000
_cell_volume 5179.415723
_symmetry_space_group_name_H-M "I -4 2 D"
_symmetry_group_IT_number 122
_symmetry_cell_setting 'tetragonal'
loop_
_space_group_symop_operation_xyz
x,y,z
y,-x,-z
-x,-y,z
-y,x,-z
x,1/2-y,1/4-z
-x,1/2+y,1/4-z
-y,1/2-x,1/4+z
y,1/2+x,1/4+z
1/2+x,1/2+y,1/2+z
1/2+y,1/2-x,1/2-z
1/2-x,1/2-y,1/2+z
1/2-y,1/2+x,1/2-z
1/2+x,-y,3/4-z
1/2-x,y,3/4-z
1/2-y,-x,3/4+z
1/2+y,x,3/4+z
loop_
_atom_site_type_symbol
_atom_site_label
_atom_site_fract_x
_atom_site_fract_y
_atom_site_fract_z
Si Si1 0.153948 0.408669 0.723226
Si Si2 0.250000 0.859198 0.375000
Si Si3 0.795839 0.306382 0.469731
Si Si4 0.750000 0.620894 0.875000
Si Si5 0.377744 0.332911 0.366482
Si Si6 0.418122 0.092428 0.611600
Si Si7 0.500000 0.500000 0.000000
Si Si8 0.412852 0.022491 0.990882
O O1 0.207999 0.409091 0.781142
O O2 0.148420 0.367068 0.550165
O O3 0.128704 0.452332 0.615770
O O4 0.123219 0.401121 0.939944
O O5 0.221947 0.827786 0.551148
O O6 0.288154 0.891262 0.483826
O O7 0.750000 0.282338 0.375000
O O8 0.841024 0.274617 0.471950
O O9 0.810959 0.346727 0.306522
O O10 0.415663 0.365218 0.471434
O O11 0.467975 0.093598 0.507340
O O12 0.413732 0.045702 0.753028
O O13 0.472044 0.536999 0.854414
#
# Coordination Sequence:
#
# PCOD9560742 Si02
#       8
#    16   8  16   8  16  16   4  16
#     4  11  24  41  63  96 130 175 214 268 331 409
#     4  10  18  38  56  93 130 168 222 283 324 370
#     4  10  22  34  59  96 128 166 227 280 331 368
#     4  12  22  40  60  91 138 178 220 267 322 396
#     4  10  20  38  61  90 128 173 216 274 328 390
#     4  11  22  42  63  99 128 168 213 272 340 412
#     4  12  20  42  72 108 126 152 204 294 352 388
#     4  11  24  39  69 101 133 158 213 275 349 400
#
# _framework density 19.307196000000001
#
# number of rings (size 3 to 8) (size 9 to 14) (size 15 to 20)
#    0.000    1.280    4.800    0.960    1.120    0.640 
#    0.000    0.000    0.000   18.240    0.000    0.000 
#    0.000    0.000    0.000    0.000    0.000    0.000 
#
# Total GULP energy -278586.578822 kJ/mol
# GULP energy per Si atom -5571.731576 kJ/mol
# Density = 1.926325 g / cm^3
# Si number density = 19.307196 Si / 1000 Ang^3
#
#
#
# Elastic Constant Matrix: (Units=GPa)
#
#
# Indices 1 2 3 4 5 6 
#
# 1 80.2560 34.1296 31.8772 0.0000 0.0000 0.0000
# 2 34.1296 80.2560 31.8772 0.0000 0.0000 0.0000
# 3 31.8772 31.8772 87.0037 0.0000 0.0000 0.0000
# 4 0.0000 0.0000 0.0000 28.0278 0.0000 0.0000
# 5 0.0000 0.0000 0.0000 0.0000 28.0278 0.0000
# 6 0.0000 0.0000 0.0000 0.0000 0.0000 11.3064
#
#
#
# Elastic Compliance Matrix: (Units=1/GPa)
#
#
# Indices 1 2 3 4 5 6 
#
# 1 0.016333 -0.005347 -0.004025 0.000000 0.000000 0.000000
# 2 -0.005347 0.016333 -0.004025 0.000000 0.000000 0.000000
# 3 -0.004025 -0.004025 0.014443 0.000000 0.000000 0.000000
# 4 0.000000 0.000000 0.000000 0.035679 0.000000 0.000000
# 5 0.000000 0.000000 0.000000 0.000000 0.035679 0.000000
# 6 0.000000 0.000000 0.000000 0.000000 0.000000 0.088445
#
#
# Mechanical properties :
#
#
# Convention : Reuss Voigt Hill
#
# Bulk Modulus (GPa) = 49.22582 49.25373 49.23977
# Shear Modulus (GPa) = 20.79201 23.44787 22.11994
#
# Velocity S-wave (km/s) = 3.28518 3.48869 3.38847
# Velocity P-wave (km/s) = 6.31992 6.46482 6.39278
#
# Compressibility (1/GPa) = 0.02031454
#
# Stress axis : x y z
#
# Youngs Moduli (GPa) = 61.22693 61.22693 69.23655
#
# Poissons Ratio (x) = 0.32737 0.27868
# Poissons Ratio (y) = 0.32737 0.27868
# Poissons Ratio (z) = 0.24644 0.24644
#
# Static dielectric constant tensor:
#      x y z
#    x 1.675790 0.000000 0.000000 
#    y 0.000000 1.675790 0.000000 
#    z 0.000000 0.000000 1.775810 
# 
# From -- ./inp_files/1508.got.cif
#   From: 2010.05.17/outbox.cif.g08.bks.cpg/sg122_1_cif.got.tgz:1508.got - 2010.05.20 11:37:33.
