data_PCOD9560156
_publ_section_title
;
Structure prediction by ZEFSAII (Michael W. Deem and Ramdas Pophale) SiO2 
 PCOD9560156
Probable space group: I -4 2 M
;
_chemical_formula_sum "Si O2"
_cell_formula_units_Z 42
_cell_length_a 14.873290
_cell_length_b 14.873290
_cell_length_c 8.154652
_cell_angle_alpha 90.000000
_cell_angle_beta 90.000000
_cell_angle_gamma 90.000000
_cell_volume 1803.929348
_symmetry_space_group_name_H-M "I -4 2 M"
_symmetry_group_IT_number 121
_symmetry_cell_setting 'tetragonal'
loop_
_space_group_symop_operation_xyz
x,y,z
y,-x,-z
-x,-y,z
-y,x,-z
x,-y,-z
-x,y,-z
-y,-x,z
y,x,z
1/2+x,1/2+y,1/2+z
1/2+y,1/2-x,1/2-z
1/2-x,1/2-y,1/2+z
1/2-y,1/2+x,1/2-z
1/2+x,1/2-y,1/2-z
1/2-x,1/2+y,1/2-z
1/2-y,1/2-x,1/2+z
1/2+y,1/2+x,1/2+z
loop_
_atom_site_type_symbol
_atom_site_label
_atom_site_fract_x
_atom_site_fract_y
_atom_site_fract_z
Si Si1 0.858801 0.295020 0.082548
Si Si2 0.271240 0.956691 0.732185
Si Si3 0.500000 0.500000 0.500000
Si Si4 0.573297 0.426703 0.199261
O O1 0.774769 0.225232 0.110327
O O2 0.831978 0.399540 0.107383
O O3 0.940734 0.282699 0.211026
O O4 0.898477 0.277812 0.901380
O O5 0.172854 0.949844 0.656861
O O6 0.564205 0.435796 0.397187
O O7 0.500000 0.500000 0.154893
#
# Coordination Sequence:
#
# PCOD9560156 Si02
#       4
#    16  16   2   8
#     4  11  22  41  62  95 127 166 217 262 324 374
#     4  11  23  38  64  91 129 168 208 270 315 381
#     4   8  16  24  56  88 120 134 204 248 296 354
#     4  10  18  32  60  98 118 155 207 266 308 360
#
# _framework density 23.282506999999999
#
# number of rings (size 3 to 8) (size 9 to 14) (size 15 to 20)
#    0.571    0.762    3.810    3.429    0.000    2.286 
#    0.000    3.810    0.000    0.000    0.000    2.667 
#    0.000    0.000    0.000    0.000    0.000    0.000 
#
# Total GULP energy -117229.079547 kJ/mol
# GULP energy per Si atom -5582.337121 kJ/mol
# Density = 2.322951 g / cm^3
# Si number density = 23.282507 Si / 1000 Ang^3
#
#
#
# Elastic Constant Matrix: (Units=GPa)
#
#
# Indices 1 2 3 4 5 6 
#
# 1 94.1516 27.2107 16.8599 0.0000 0.0000 0.0000
# 2 27.2107 94.1499 16.8601 0.0000 0.0000 0.0000
# 3 16.8599 16.8601 92.2550 0.0000 0.0000 0.0000
# 4 0.0000 0.0000 0.0000 77.5884 0.0000 0.0000
# 5 0.0000 0.0000 0.0000 0.0000 77.5965 0.0000
# 6 0.0000 0.0000 0.0000 0.0000 0.0000 45.7692
#
#
#
# Elastic Compliance Matrix: (Units=1/GPa)
#
#
# Indices 1 2 3 4 5 6 
#
# 1 0.011810 -0.003129 -0.001586 0.000000 0.000000 0.000000
# 2 -0.003129 0.011810 -0.001586 0.000000 0.000000 0.000000
# 3 -0.001586 -0.001586 0.011419 0.000000 0.000000 0.000000
# 4 0.000000 0.000000 0.000000 0.012889 0.000000 0.000000
# 5 0.000000 0.000000 0.000000 0.000000 0.012887 0.000000
# 6 0.000000 0.000000 0.000000 0.000000 0.000000 0.021849
#
#
# Mechanical properties :
#
#
# Convention : Reuss Voigt Hill
#
# Bulk Modulus (GPa) = 44.57333 44.71311 44.64322
# Shear Modulus (GPa) = 48.66400 54.83254 51.74827
#
# Velocity S-wave (km/s) = 4.57678 4.85820 4.71959
# Velocity P-wave (km/s) = 6.86406 7.12150 6.99396
#
# Compressibility (1/GPa) = 0.02243494
#
# Stress axis : x y z
#
# Youngs Moduli (GPa) = 84.67706 84.67537 87.57053
#
# Poissons Ratio (x) = 0.26495 0.13892
# Poissons Ratio (y) = 0.26496 0.13893
# Poissons Ratio (z) = 0.13433 0.13433
#
# Static dielectric constant tensor:
#      x y z
#    x 1.885720 0.000000 0.000000 
#    y 0.000000 1.885740 0.000000 
#    z 0.000000 0.000000 2.035990 
# 
# From -- ./inp_files/1041.got.cif
#   From: 2010.05.17/outbox.cif.g08.bks.cpg/sg121_1_cif.got.tgz:1041.got - 2010.05.20 11:32:06.
