data_PCOD9560931
_publ_section_title
;
Structure prediction by ZEFSAII (Michael W. Deem and Ramdas Pophale) SiO2 
 PCOD9560931
Probable space group: I -4 2 D
;
_chemical_formula_sum "Si O2"
_cell_formula_units_Z 80
_cell_length_a 12.569401
_cell_length_b 12.569401
_cell_length_c 24.021124
_cell_angle_alpha 90.000000
_cell_angle_beta 90.000000
_cell_angle_gamma 90.000000
_cell_volume 3795.093573
_symmetry_space_group_name_H-M "I -4 2 D"
_symmetry_group_IT_number 122
_symmetry_cell_setting 'tetragonal'
loop_
_space_group_symop_operation_xyz
x,y,z
y,-x,-z
-x,-y,z
-y,x,-z
x,1/2-y,1/4-z
-x,1/2+y,1/4-z
-y,1/2-x,1/4+z
y,1/2+x,1/4+z
1/2+x,1/2+y,1/2+z
1/2+y,1/2-x,1/2-z
1/2-x,1/2-y,1/2+z
1/2-y,1/2+x,1/2-z
1/2+x,-y,3/4-z
1/2-x,y,3/4-z
1/2-y,-x,3/4+z
1/2+y,x,3/4+z
loop_
_atom_site_type_symbol
_atom_site_label
_atom_site_fract_x
_atom_site_fract_y
_atom_site_fract_z
Si Si1 0.772789 0.681427 0.245623
Si Si2 0.500000 0.000000 0.578728
Si Si3 0.883352 0.971998 0.623067
Si Si4 0.134403 0.199244 0.844765
Si Si5 0.283808 0.250000 0.125000
Si Si6 0.816181 0.469785 0.507345
O O1 0.663073 0.702015 0.278792
O O2 0.776719 0.709071 0.180065
O O3 0.777474 0.554866 0.255788
O O4 0.861767 0.756503 0.271660
O O5 0.596833 0.060582 0.608988
O O6 0.454175 0.096257 0.540559
O O7 0.850377 0.853175 0.606431
O O8 0.800623 0.061921 0.605297
O O9 0.876563 0.979272 0.690251
O O10 0.000000 0.000000 0.603313
O O11 0.250000 0.194192 0.875000
#
# Coordination Sequence:
#
# PCOD9560931 Si02
#       6
#    16   8  16  16   8  16
#     4  10  22  42  65  93 135 170 220 274 324 398
#     4  10  22  42  66  90 131 183 212 268 342 390
#     4  11  23  42  67  97 132 176 219 274 332 394
#     4  11  23  44  68 100 132 171 224 274 332 399
#     4  10  24  44  64  96 128 178 222 266 326 394
#     4  10  20  40  64  92 128 175 217 264 333 391
#
# _framework density 21.079848999999999
#
# number of rings (size 3 to 8) (size 9 to 14) (size 15 to 20)
#    0.000    1.600    3.000    1.200    1.400    0.400 
#   27.000    0.000    0.000    0.000    0.000    0.000 
#    0.000    0.000    0.000    0.000    0.000    0.000 
#
# Total GULP energy -222900.622093 kJ/mol
# GULP energy per Si atom -5572.515552 kJ/mol
# Density = 2.103187 g / cm^3
# Si number density = 21.079849 Si / 1000 Ang^3
#
#
#
# Elastic Constant Matrix: (Units=GPa)
#
#
# Indices 1 2 3 4 5 6 
#
# 1 110.9884 79.3868 5.0071 0.0000 0.0000 0.0000
# 2 79.3868 110.9884 5.0071 0.0000 0.0000 0.0000
# 3 5.0071 5.0071 47.7206 0.0000 0.0000 0.0000
# 4 0.0000 0.0000 0.0000 14.4385 0.0000 0.0000
# 5 0.0000 0.0000 0.0000 0.0000 14.4385 0.0000
# 6 0.0000 0.0000 0.0000 0.0000 0.0000 25.3109
#
#
#
# Elastic Compliance Matrix: (Units=1/GPa)
#
#
# Indices 1 2 3 4 5 6 
#
# 1 0.018463 -0.013181 -0.000554 0.000000 0.000000 0.000000
# 2 -0.013181 0.018463 -0.000554 0.000000 0.000000 0.000000
# 3 -0.000554 -0.000554 0.021072 0.000000 0.000000 0.000000
# 4 0.000000 0.000000 0.000000 0.069259 0.000000 0.000000
# 5 0.000000 0.000000 0.000000 0.000000 0.069259 0.000000
# 6 0.000000 0.000000 0.000000 0.000000 0.000000 0.039509
#
#
# Mechanical properties :
#
#
# Convention : Reuss Voigt Hill
#
# Bulk Modulus (GPa) = 33.99205 49.83327 41.91266
# Shear Modulus (GPa) = 18.22092 22.85733 20.53913
#
# Velocity S-wave (km/s) = 2.94322 3.29648 3.12484
# Velocity P-wave (km/s) = 5.26407 6.17904 5.73982
#
# Compressibility (1/GPa) = 0.02941864
#
# Stress axis : x y z
#
# Youngs Moduli (GPa) = 54.16246 54.16246 47.45724
#
# Poissons Ratio (x) = 0.71392 0.02630
# Poissons Ratio (y) = 0.71392 0.02630
# Poissons Ratio (z) = 0.03002 0.03002
#
# Static dielectric constant tensor:
#      x y z
#    x 1.776210 0.000000 0.000000 
#    y 0.000000 1.776210 0.000000 
#    z 0.000000 0.000000 1.884860 
# 
# From -- ./inp_files/9410.got.cif
#   From: 2010.05.17/outbox.cif.g08.bks.cpg/sg122_5_cif.got.tgz:9410.got - 2010.05.20 11:37:33.
