data_PCOD9560980
_publ_section_title
;
Structure prediction by ZEFSAII (Michael W. Deem and Ramdas Pophale) SiO2 
 PCOD9560980
Probable space group: I -4 2 D
;
_chemical_formula_sum "Si O2"
_cell_formula_units_Z 96
_cell_length_a 17.338970
_cell_length_b 17.338970
_cell_length_c 17.163477
_cell_angle_alpha 90.000000
_cell_angle_beta 90.000000
_cell_angle_gamma 90.000000
_cell_volume 5160.025677
_symmetry_space_group_name_H-M "I -4 2 D"
_symmetry_group_IT_number 122
_symmetry_cell_setting 'tetragonal'
loop_
_space_group_symop_operation_xyz
x,y,z
y,-x,-z
-x,-y,z
-y,x,-z
x,1/2-y,1/4-z
-x,1/2+y,1/4-z
-y,1/2-x,1/4+z
y,1/2+x,1/4+z
1/2+x,1/2+y,1/2+z
1/2+y,1/2-x,1/2-z
1/2-x,1/2-y,1/2+z
1/2-y,1/2+x,1/2-z
1/2+x,-y,3/4-z
1/2-x,y,3/4-z
1/2-y,-x,3/4+z
1/2+y,x,3/4+z
loop_
_atom_site_type_symbol
_atom_site_label
_atom_site_fract_x
_atom_site_fract_y
_atom_site_fract_z
Si Si1 0.474620 0.588240 0.580464
Si Si2 0.307081 0.697292 0.189302
Si Si3 0.723002 0.541179 0.541491
Si Si4 0.415270 0.191715 0.906313
Si Si5 0.809889 0.704873 0.544658
Si Si6 0.813275 0.416685 0.434866
O O1 0.500000 0.500000 0.574158
O O2 0.458210 0.640182 0.503161
O O3 0.395548 0.596299 0.628091
O O4 0.542833 0.626887 0.629021
O O5 0.349833 0.750000 0.125000
O O6 0.247503 0.642337 0.142453
O O7 0.256668 0.754664 0.241119
O O8 0.347543 0.642776 0.252699
O O9 0.714725 0.499499 0.624882
O O10 0.765890 0.622581 0.550110
O O11 0.771858 0.484419 0.484654
O O12 0.389259 0.196537 0.995645
O O13 0.821208 0.750000 0.625000
O O14 0.750000 0.380688 0.375000
#
# Coordination Sequence:
#
# PCOD9560980 Si02
#       6
#    16  16  16  16  16  16
#     4  11  22  33  55  86 125 162 184 228 312 388
#     4   9  18  32  54  81 116 152 198 245 290 349
#     4  10  21  36  57  85 121 156 191 246 305 362
#     4  10  21  35  55  88 126 151 199 249 296 362
#     4  11  21  37  63  85 114 166 211 244 299 356
#     4   9  18  33  52  79 116 157 188 230 296 365
#
# _framework density 18.604558000000001
#
# number of rings (size 3 to 8) (size 9 to 14) (size 15 to 20)
#    0.000    2.000    3.333    0.500    2.333    2.667 
#    0.000    0.000    0.000   10.000    0.000    0.000 
#    0.000    0.000    0.000    0.000    0.000    0.000 
#
# Total GULP energy -267645.691180 kJ/mol
# GULP energy per Si atom -5575.951900 kJ/mol
# Density = 1.856221 g / cm^3
# Si number density = 18.604558 Si / 1000 Ang^3
#
#
#
# Elastic Constant Matrix: (Units=GPa)
#
#
# Indices 1 2 3 4 5 6 
#
# 1 63.4670 25.9676 59.1291 0.0000 0.0000 0.0000
# 2 25.9676 63.4670 59.1291 0.0000 0.0000 0.0000
# 3 59.1291 59.1291 130.2338 0.0000 0.0000 0.0000
# 4 0.0000 0.0000 0.0000 29.0333 0.0000 0.0000
# 5 0.0000 0.0000 0.0000 0.0000 29.0333 0.0000
# 6 0.0000 0.0000 0.0000 0.0000 0.0000 7.7971
#
#
#
# Elastic Compliance Matrix: (Units=1/GPa)
#
#
# Indices 1 2 3 4 5 6 
#
# 1 0.027322 0.000655 -0.012703 0.000000 0.000000 0.000000
# 2 0.000655 0.027322 -0.012703 0.000000 0.000000 0.000000
# 3 -0.012703 -0.012703 0.019213 0.000000 0.000000 0.000000
# 4 0.000000 0.000000 0.000000 0.034443 0.000000 0.000000
# 5 0.000000 0.000000 0.000000 0.000000 0.034443 0.000000
# 6 0.000000 0.000000 0.000000 0.000000 0.000000 0.128253
#
#
# Mechanical properties :
#
#
# Convention : Reuss Voigt Hill
#
# Bulk Modulus (GPa) = 41.05369 60.62435 50.83902
# Shear Modulus (GPa) = 15.21533 20.70221 17.95877
#
# Velocity S-wave (km/s) = 2.86287 3.33941 3.11028
# Velocity P-wave (km/s) = 5.74825 6.89386 6.34696
#
# Compressibility (1/GPa) = 0.02435835
#
# Stress axis : x y z
#
# Youngs Moduli (GPa) = 36.59999 36.59999 52.04821
#
# Poissons Ratio (x) = -0.02398 0.66114
# Poissons Ratio (y) = -0.02398 0.66114
# Poissons Ratio (z) = 0.46491 0.46491
#
# Static dielectric constant tensor:
#      x y z
#    x 1.669830 0.000000 0.000000 
#    y 0.000000 1.669830 0.000000 
#    z 0.000000 0.000000 1.685400 
# 
# From -- ./inp_files/6327.got.cif
#   From: 2010.05.17/outbox.cif.g08.bks.cpg/sg122_4_cif.got.tgz:6327.got - 2010.05.20 11:37:33.
