data_PCOD9560294
_publ_section_title
;
Structure prediction by ZEFSAII (Michael W. Deem and Ramdas Pophale) SiO2 
 PCOD9560294
Probable space group: I -4 2 M
;
_chemical_formula_sum "Si O2"
_cell_formula_units_Z 56
_cell_length_a 26.513598
_cell_length_b 26.513598
_cell_length_c 3.321715
_cell_angle_alpha 90.000000
_cell_angle_beta 90.000000
_cell_angle_gamma 90.000000
_cell_volume 2335.068913
_symmetry_space_group_name_H-M "I -4 2 M"
_symmetry_group_IT_number 121
_symmetry_cell_setting 'tetragonal'
loop_
_space_group_symop_operation_xyz
x,y,z
y,-x,-z
-x,-y,z
-y,x,-z
x,-y,-z
-x,y,-z
-y,-x,z
y,x,z
1/2+x,1/2+y,1/2+z
1/2+y,1/2-x,1/2-z
1/2-x,1/2-y,1/2+z
1/2-y,1/2+x,1/2-z
1/2+x,1/2-y,1/2-z
1/2-x,1/2+y,1/2-z
1/2-y,1/2-x,1/2+z
1/2+y,1/2+x,1/2+z
loop_
_atom_site_type_symbol
_atom_site_label
_atom_site_fract_x
_atom_site_fract_y
_atom_site_fract_z
Si Si1 0.740954 0.939929 1.000000
Si Si2 0.120317 0.561286 0.500000
Si Si3 0.222584 0.222584 0.500000
Si Si4 0.112819 0.196661 0.500000
O O1 0.680865 0.926943 1.000000
O O2 0.752669 0.070797 0.500000
O O3 0.801910 0.905964 1.000000
O O4 0.748308 0.000000 0.000000
O O5 0.111770 0.500000 0.500000
O O6 0.072167 0.608369 0.500000
O O7 0.232132 0.232132 1.000000
O O8 0.162894 0.232054 0.500000
O O9 0.140713 0.140713 0.500000
#
# Coordination Sequence:
#
# PCOD9560294 Si02
#       4
#    16  16   8  16
#     4  11  22  39  58  83 114 152 189 231 282 338
#     4  11  24  39  57  79 105 144 193 243 293 334
#     4  10  20  32  50  78 112 148 181 216 277 332
#     4  10  22  36  56  81 117 146 180 234 264 337
#
# _framework density 23.982161000000001
#
# number of rings (size 3 to 8) (size 9 to 14) (size 15 to 20)
#    0.857    0.571    0.000    6.000    0.000   13.143 
#    0.000    0.000    0.000    0.000    0.000    0.000 
#    0.000   40.000    0.000    0.000    0.000    0.000 
#
# Total GULP energy -155914.318940 kJ/mol
# GULP energy per Si atom -5568.368534 kJ/mol
# Density = 2.392758 g / cm^3
# Si number density = 23.982161 Si / 1000 Ang^3
#
#
#
# Elastic Constant Matrix: (Units=GPa)
#
#
# Indices 1 2 3 4 5 6 
#
# 1 53.5240 185.8062 103.6047 0.0000 0.0000 0.0000
# 2 185.8062 53.5240 103.6047 0.0000 0.0000 0.0000
# 3 103.6047 103.6047 313.3805 0.0000 0.0000 0.0000
# 4 0.0000 0.0000 0.0000 96.5005 0.0000 0.0000
# 5 0.0000 0.0000 0.0000 0.0000 96.5005 0.0000
# 6 0.0000 0.0000 0.0000 0.0000 0.0000 40.6577
#
#
#
# Elastic Compliance Matrix: (Units=1/GPa)
#
#
# Indices 1 2 3 4 5 6 
#
# 1 -0.000853 0.006707 -0.001935 0.000000 0.000000 0.000000
# 2 0.006707 -0.000853 -0.001935 0.000000 0.000000 0.000000
# 3 -0.001935 -0.001935 0.004471 0.000000 0.000000 0.000000
# 4 0.000000 0.000000 0.000000 0.010363 0.000000 0.000000
# 5 0.000000 0.000000 0.000000 0.000000 0.010363 0.000000
# 6 0.000000 0.000000 0.000000 0.000000 0.000000 0.024596
#
#
# Mechanical properties :
#
#
# Convention : Reuss Voigt Hill
#
# Bulk Modulus (GPa) = 118.52294 134.05105 126.28699
# Shear Modulus (GPa) = 110.55588 48.55929 79.55758
#
# Velocity S-wave (km/s) = 6.79701 4.50467 5.76591
# Velocity P-wave (km/s) = 10.54171 9.11447 9.85396
#
# Compressibility (1/GPa) = 0.00843719
#
# Stress axis : x y z
#
# Youngs Moduli (GPa) = -1172.54529 -1172.54529 223.68073
#
# Poissons Ratio (x) = 7.86397 0.43289
# Poissons Ratio (y) = 7.86397 0.43289
# Poissons Ratio (z) = -2.26925 -2.26925
#
# Static dielectric constant tensor:
#      x y z
#    x 1.823410 0.000000 0.000000 
#    y 0.000000 1.823410 0.000000 
#    z 0.000000 0.000000 2.146890 
# 
# From -- ./inp_files/407.got.cif
#   From: 2010.05.17/outbox.cif.g08.bks.cpg/sg121_1_cif.got.tgz:407.got - 2010.05.20 11:32:06.
