data_PCOD9560776
_publ_section_title
;
Structure prediction by ZEFSAII (Michael W. Deem and Ramdas Pophale) SiO2 
 PCOD9560776
Probable space group: I -4 2 D
;
_chemical_formula_sum "Si O2"
_cell_formula_units_Z 64
_cell_length_a 16.773765
_cell_length_b 16.773765
_cell_length_c 10.240845
_cell_angle_alpha 90.000000
_cell_angle_beta 90.000000
_cell_angle_gamma 90.000000
_cell_volume 2881.355877
_symmetry_space_group_name_H-M "I -4 2 D"
_symmetry_group_IT_number 122
_symmetry_cell_setting 'tetragonal'
loop_
_space_group_symop_operation_xyz
x,y,z
y,-x,-z
-x,-y,z
-y,x,-z
x,1/2-y,1/4-z
-x,1/2+y,1/4-z
-y,1/2-x,1/4+z
y,1/2+x,1/4+z
1/2+x,1/2+y,1/2+z
1/2+y,1/2-x,1/2-z
1/2-x,1/2-y,1/2+z
1/2-y,1/2+x,1/2-z
1/2+x,-y,3/4-z
1/2-x,y,3/4-z
1/2-y,-x,3/4+z
1/2+y,x,3/4+z
loop_
_atom_site_type_symbol
_atom_site_label
_atom_site_fract_x
_atom_site_fract_y
_atom_site_fract_z
Si Si1 0.645536 0.721987 0.268052
Si Si2 0.846803 0.990609 0.139195
Si Si3 0.182439 0.878682 0.763172
Si Si4 0.547310 0.362287 0.662473
O O1 0.668048 0.750000 0.125000
O O2 0.549168 0.713452 0.286421
O O3 0.675223 0.631972 0.295570
O O4 0.662188 0.782367 0.385086
O O5 0.845067 0.902266 0.193097
O O6 0.926992 0.044426 0.157514
O O7 0.838783 0.981336 0.982956
O O8 0.250000 0.870575 0.875000
O O9 0.161295 0.973141 0.748231
#
# Coordination Sequence:
#
# PCOD9560776 Si02
#       4
#    16  16  16  16
#     4  10  24  37  53  86 124 154 187 247 292 340
#     4  10  19  34  61  88 117 143 198 243 278 345
#     4  12  19  32  65  90 109 154 197 238 295 343
#     4  10  19  34  61  88 117 143 198 243 278 345
#
# _framework density 22.211765
#
# number of rings (size 3 to 8) (size 9 to 14) (size 15 to 20)
#    1.500    0.000    7.500    0.750    0.000    2.000 
#    0.000    0.000    5.500    9.000    0.000    0.000 
#    0.000    0.000    0.000    0.000    0.000    0.000 
#
# Total GULP energy -178385.774138 kJ/mol
# GULP energy per Si atom -5574.555442 kJ/mol
# Density = 2.216121 g / cm^3
# Si number density = 22.211765 Si / 1000 Ang^3
#
#
#
# Elastic Constant Matrix: (Units=GPa)
#
#
# Indices 1 2 3 4 5 6 
#
# 1 127.7731 -2.6077 32.0876 0.0000 0.0000 0.0000
# 2 -2.6077 127.7731 32.0876 0.0000 0.0000 0.0000
# 3 32.0876 32.0876 123.4754 0.0000 0.0000 0.0000
# 4 0.0000 0.0000 0.0000 -4.7320 0.0000 0.0000
# 5 0.0000 0.0000 0.0000 0.0000 -4.7320 0.0000
# 6 0.0000 0.0000 0.0000 0.0000 0.0000 -105.9180
#
#
#
# Elastic Compliance Matrix: (Units=1/GPa)
#
#
# Indices 1 2 3 4 5 6 
#
# 1 0.008444 0.000774 -0.002395 0.000000 0.000000 0.000000
# 2 0.000774 0.008444 -0.002395 0.000000 0.000000 0.000000
# 3 -0.002395 -0.002395 0.009344 0.000000 0.000000 0.000000
# 4 0.000000 0.000000 0.000000 -0.211329 0.000000 0.000000
# 5 0.000000 0.000000 0.000000 0.000000 -0.211329 0.000000
# 6 0.000000 0.000000 0.000000 0.000000 0.000000 -0.009441
#
#
# Mechanical properties :
#
#
# Convention : Reuss Voigt Hill
#
# Bulk Modulus (GPa) = 54.95283 55.79518 55.37400
# Shear Modulus (GPa) = -12.76262 -1.91277 -7.33770
#
# Velocity S-wave (km/s) = -2.39966 -0.92899 -1.81953
# Velocity P-wave (km/s) = 4.13719 4.90138 4.53541
#
# Compressibility (1/GPa) = 0.01819743
#
# Stress axis : x y z
#
# Youngs Moduli (GPa) = 118.43125 118.43125 107.02335
#
# Poissons Ratio (x) = -0.09165 0.25636
# Poissons Ratio (y) = -0.09165 0.25636
# Poissons Ratio (z) = 0.28369 0.28369
#
# Static dielectric constant tensor:
#      x y z
#    x 1.890890 0.000000 0.000000 
#    y 0.000000 1.890890 0.000000 
#    z 0.000000 0.000000 1.781260 
# 
# From -- ./inp_files/4078.got.cif
#   From: 2010.05.17/outbox.cif.g08.bks.cpg/sg122_3_cif.got.tgz:4078.got - 2010.05.20 11:37:33.
