data_PCOD9560383
_publ_section_title
;
Structure prediction by ZEFSAII (Michael W. Deem and Ramdas Pophale) SiO2 
 PCOD9560383
Probable space group: I -4 2 M
;
_chemical_formula_sum "Si O2"
_cell_formula_units_Z 48
_cell_length_a 16.542586
_cell_length_b 16.542586
_cell_length_c 8.120956
_cell_angle_alpha 90.000000
_cell_angle_beta 90.000000
_cell_angle_gamma 90.000000
_cell_volume 2222.357687
_symmetry_space_group_name_H-M "I -4 2 M"
_symmetry_group_IT_number 121
_symmetry_cell_setting 'tetragonal'
loop_
_space_group_symop_operation_xyz
x,y,z
y,-x,-z
-x,-y,z
-y,x,-z
x,-y,-z
-x,y,-z
-y,-x,z
y,x,z
1/2+x,1/2+y,1/2+z
1/2+y,1/2-x,1/2-z
1/2-x,1/2-y,1/2+z
1/2-y,1/2+x,1/2-z
1/2+x,1/2-y,1/2-z
1/2-x,1/2+y,1/2-z
1/2-y,1/2-x,1/2+z
1/2+y,1/2+x,1/2+z
loop_
_atom_site_type_symbol
_atom_site_label
_atom_site_fract_x
_atom_site_fract_y
_atom_site_fract_z
Si Si1 0.331207 0.461756 0.320971
Si Si2 0.930626 0.718917 0.387744
Si Si3 0.791430 0.665968 0.207800
O O1 0.343407 0.500000 0.500000
O O2 0.410690 0.410690 0.271321
O O3 0.298119 0.528934 0.193510
O O4 0.258073 0.396038 0.323480
O O5 0.885906 0.668178 0.247456
O O6 0.862874 0.731186 0.525632
O O7 0.000000 0.678439 0.500000
O O8 0.754819 0.754819 0.228294
#
# Coordination Sequence:
#
# PCOD9560383 Si02
#       3
#    16  16  16
#     4  10  22  39  60  91 131 174 221 273 333 397
#     4  10  21  37  62  94 127 159 213 278 330 378
#     4  10  20  37  63  89 118 167 225 272 312 381
#
# _framework density 21.598683000000001
#
# number of rings (size 3 to 8) (size 9 to 14) (size 15 to 20)
#    0.000    2.000    0.000    3.000    0.000    7.000 
#    0.000    5.000    0.000   59.000    0.000    2.333 
#    0.000    0.000    0.000    0.000    0.000    0.000 
#
# Total GULP energy -133744.577726 kJ/mol
# GULP energy per Si atom -5572.690739 kJ/mol
# Density = 2.154952 g / cm^3
# Si number density = 21.598683 Si / 1000 Ang^3
#
#
#
# Elastic Constant Matrix: (Units=GPa)
#
#
# Indices 1 2 3 4 5 6 
#
# 1 85.4469 58.0506 56.0728 0.0000 0.0000 0.0000
# 2 58.0506 85.4469 56.0728 0.0000 0.0000 0.0000
# 3 56.0728 56.0728 107.0637 0.0000 0.0000 0.0000
# 4 0.0000 0.0000 0.0000 38.6390 0.0000 0.0000
# 5 0.0000 0.0000 0.0000 0.0000 38.6390 0.0000
# 6 0.0000 0.0000 0.0000 0.0000 0.0000 36.8874
#
#
#
# Elastic Compliance Matrix: (Units=1/GPa)
#
#
# Indices 1 2 3 4 5 6 
#
# 1 0.024149 -0.012352 -0.006179 0.000000 0.000000 0.000000
# 2 -0.012352 0.024149 -0.006179 0.000000 0.000000 0.000000
# 3 -0.006179 -0.006179 0.015812 0.000000 0.000000 0.000000
# 4 0.000000 0.000000 0.000000 0.025881 0.000000 0.000000
# 5 0.000000 0.000000 0.000000 0.000000 0.025881 0.000000
# 6 0.000000 0.000000 0.000000 0.000000 0.000000 0.027110
#
#
# Mechanical properties :
#
#
# Convention : Reuss Voigt Hill
#
# Bulk Modulus (GPa) = 68.06274 68.70556 68.38415
# Shear Modulus (GPa) = 25.34234 30.01717 27.67975
#
# Velocity S-wave (km/s) = 3.42910 3.73200 3.58376
# Velocity P-wave (km/s) = 6.87453 7.10279 6.98959
#
# Compressibility (1/GPa) = 0.01469233
#
# Stress axis : x y z
#
# Youngs Moduli (GPa) = 41.40878 41.40878 63.24192
#
# Poissons Ratio (x) = 0.51148 0.39076
# Poissons Ratio (y) = 0.51148 0.39076
# Poissons Ratio (z) = 0.25586 0.25586
#
# Static dielectric constant tensor:
#      x y z
#    x 1.810890 0.000000 0.000000 
#    y 0.000000 1.810890 0.000000 
#    z 0.000000 0.000000 1.883790 
# 
# From -- ./inp_files/1150.got.cif
#   From: 2010.05.17/outbox.cif.g08.bks.cpg/sg121_1_cif.got.tgz:1150.got - 2010.05.20 11:32:06.
