data_PCOD9560541
_publ_section_title
;
Structure prediction by ZEFSAII (Michael W. Deem and Ramdas Pophale) SiO2 
 PCOD9560541
Probable space group: I -4 2 M
;
_chemical_formula_sum "Si O2"
_cell_formula_units_Z 68
_cell_length_a 12.638211
_cell_length_b 12.638211
_cell_length_c 23.830831
_cell_angle_alpha 90.000000
_cell_angle_beta 90.000000
_cell_angle_gamma 90.000000
_cell_volume 3806.364642
_symmetry_space_group_name_H-M "I -4 2 M"
_symmetry_group_IT_number 121
_symmetry_cell_setting 'tetragonal'
loop_
_space_group_symop_operation_xyz
x,y,z
y,-x,-z
-x,-y,z
-y,x,-z
x,-y,-z
-x,y,-z
-y,-x,z
y,x,z
1/2+x,1/2+y,1/2+z
1/2+y,1/2-x,1/2-z
1/2-x,1/2-y,1/2+z
1/2-y,1/2+x,1/2-z
1/2+x,1/2-y,1/2-z
1/2-x,1/2+y,1/2-z
1/2-y,1/2-x,1/2+z
1/2+y,1/2+x,1/2+z
loop_
_atom_site_type_symbol
_atom_site_label
_atom_site_fract_x
_atom_site_fract_y
_atom_site_fract_z
Si Si1 0.807286 0.192715 0.597172
Si Si2 0.215279 0.215279 0.534464
Si Si3 0.331768 0.668233 0.675909
Si Si4 0.717754 0.449619 0.873125
Si Si5 0.392698 0.607303 0.467880
Si Si6 0.500000 0.500000 0.634381
Si Si7 0.427203 0.840610 0.758673
O O1 0.809739 0.190261 0.529773
O O2 0.722549 0.277452 0.621279
O O3 0.925300 0.218665 0.618645
O O4 0.112623 0.252171 0.570334
O O5 0.304466 0.304466 0.534253
O O6 0.420688 0.579313 0.665505
O O7 0.382370 0.760882 0.712824
O O8 0.600717 0.399284 0.862713
O O9 0.789513 0.419032 0.820248
O O10 0.500000 0.642662 0.500000
O O11 0.428029 0.571972 0.406267
O O12 0.549321 0.865223 0.745413
#
# Coordination Sequence:
#
# PCOD9560541 Si02
#       7
#     8   8   8  16   8   4  16
#     4  12  21  43  62  99 133 169 222 266 326 406
#     4  10  23  38  65  96 133 169 216 265 328 392
#     4  12  24  38  70  92 127 173 214 278 320 399
#     4  10  23  39  66  93 129 174 210 265 336 391
#     4   9  19  42  60  83 125 169 210 269 310 376
#     4  10  25  36  60  98 114 158 223 256 330 370
#     4  11  24  44  63  94 131 167 216 276 332 387
#
# _framework density 17.864816000000001
#
# number of rings (size 3 to 8) (size 9 to 14) (size 15 to 20)
#    0.706    0.824    3.529    2.471    3.294    1.882 
#    2.118    0.000    0.000    1.412    0.000    0.000 
#    0.000    0.000    0.000    0.000    0.000    0.000 
#
# Total GULP energy -189621.996574 kJ/mol
# GULP energy per Si atom -5577.117546 kJ/mol
# Density = 1.782415 g / cm^3
# Si number density = 17.864816 Si / 1000 Ang^3
#
#
#
# Elastic Constant Matrix: (Units=GPa)
#
#
# Indices 1 2 3 4 5 6 
#
# 1 31.8343 115.0873 33.5008 0.0000 0.0000 0.0000
# 2 115.0873 31.8380 33.5065 0.0000 0.0000 0.0000
# 3 33.5008 33.5065 121.0000 0.0000 0.0000 0.0000
# 4 0.0000 0.0000 0.0000 17.2088 0.0000 0.0000
# 5 0.0000 0.0000 0.0000 0.0000 17.2115 0.0000
# 6 0.0000 0.0000 0.0000 0.0000 0.0000 19.6443
#
#
#
# Elastic Compliance Matrix: (Units=1/GPa)
#
#
# Indices 1 2 3 4 5 6 
#
# 1 -0.002111 0.009901 -0.002157 0.000000 0.000000 0.000000
# 2 0.009901 -0.002111 -0.002157 0.000000 0.000000 0.000000
# 3 -0.002157 -0.002157 0.009459 0.000000 0.000000 0.000000
# 4 0.000000 0.000000 0.000000 0.058110 0.000000 0.000000
# 5 0.000000 0.000000 0.000000 0.000000 0.058101 0.000000
# 6 0.000000 0.000000 0.000000 0.000000 0.000000 0.050905
#
#
# Mechanical properties :
#
#
# Convention : Reuss Voigt Hill
#
# Bulk Modulus (GPa) = 60.93451 60.98460 60.95955
# Shear Modulus (GPa) = 30.00319 10.98479 20.49399
#
# Velocity S-wave (km/s) = 4.10256 2.48238 3.39066
# Velocity P-wave (km/s) = 7.52490 6.51361 7.03744
#
# Compressibility (1/GPa) = 0.01641106
#
# Stress axis : x y z
#
# Youngs Moduli (GPa) = -473.72078 -473.73107 105.72004
#
# Poissons Ratio (x) = 4.69037 0.22806
# Poissons Ratio (y) = 4.69027 0.22801
# Poissons Ratio (z) = -1.02193 -1.02169
#
# Static dielectric constant tensor:
#      x y z
#    x 1.606590 0.000000 0.000000 
#    y 0.000000 1.606590 0.000000 
#    z 0.000000 0.000000 1.600990 
# 
# From -- ./inp_files/7612.got.cif
#   From: 2010.05.17/outbox.cif.g08.bks.cpg/sg121_4_cif.got.tgz:7612.got - 2010.05.20 11:32:06.
