data_PCOD9560619
_publ_section_title
;
Structure prediction by ZEFSAII (Michael W. Deem and Ramdas Pophale) SiO2 
 PCOD9560619
Probable space group: I -4 2 M
;
_chemical_formula_sum "Si O2"
_cell_formula_units_Z 68
_cell_length_a 11.329027
_cell_length_b 11.329027
_cell_length_c 25.354990
_cell_angle_alpha 90.000000
_cell_angle_beta 90.000000
_cell_angle_gamma 90.000000
_cell_volume 3254.233168
_symmetry_space_group_name_H-M "I -4 2 M"
_symmetry_group_IT_number 121
_symmetry_cell_setting 'tetragonal'
loop_
_space_group_symop_operation_xyz
x,y,z
y,-x,-z
-x,-y,z
-y,x,-z
x,-y,-z
-x,y,-z
-y,-x,z
y,x,z
1/2+x,1/2+y,1/2+z
1/2+y,1/2-x,1/2-z
1/2-x,1/2-y,1/2+z
1/2-y,1/2+x,1/2-z
1/2+x,1/2-y,1/2-z
1/2-x,1/2+y,1/2-z
1/2-y,1/2-x,1/2+z
1/2+y,1/2+x,1/2+z
loop_
_atom_site_type_symbol
_atom_site_label
_atom_site_fract_x
_atom_site_fract_y
_atom_site_fract_z
Si Si1 0.000000 0.000000 0.827159
Si Si2 0.506008 0.306039 0.562599
Si Si3 0.518120 0.235881 0.710967
Si Si4 0.649146 0.849368 0.132567
Si Si5 0.236300 0.575299 0.175308
O O1 0.144088 0.002276 0.821021
O O2 0.500000 0.284391 0.500000
O O3 0.634454 0.365547 0.574290
O O4 0.413439 0.413439 0.573383
O O5 0.451920 0.194122 0.592946
O O6 0.409808 0.157562 0.690132
O O7 0.499681 0.267718 0.771973
O O8 0.634514 0.165557 0.694342
O O9 0.739366 0.739366 0.128326
O O10 0.514526 0.807319 0.130508
O O11 0.348400 0.651601 0.159045
#
# Coordination Sequence:
#
# PCOD9560619 Si02
#       5
#     4  16  16  16  16
#     4  12  24  36  64  80 109 164 224 265 308 380
#     4   8  16  33  60  94 131 166 208 265 324 384
#     4  12  24  39  55  84 117 165 218 261 311 371
#     4  11  23  36  58  90 126 169 210 253 317 387
#     4  12  25  39  56  80 126 173 220 266 309 364
#
# _framework density 20.895859000000002
#
# number of rings (size 3 to 8) (size 9 to 14) (size 15 to 20)
#    0.000    1.176    5.882    1.412    3.294    0.471 
#    0.000    0.000    0.000    2.824    0.000    0.000 
#    3.529    0.000    0.706    1.882    0.000    0.000 
#
# Total GULP energy -189332.246408 kJ/mol
# GULP energy per Si atom -5568.595483 kJ/mol
# Density = 2.084830 g / cm^3
# Si number density = 20.895859 Si / 1000 Ang^3
#
#
#
# Elastic Constant Matrix: (Units=GPa)
#
#
# Indices 1 2 3 4 5 6 
#
# 1 92.2356 56.2671 33.9336 0.0000 0.0000 0.0000
# 2 56.2671 92.2448 33.9340 0.0000 0.0000 0.0000
# 3 33.9336 33.9340 79.5812 0.0000 0.0000 0.0000
# 4 0.0000 0.0000 0.0000 48.0798 0.0000 0.0000
# 5 0.0000 0.0000 0.0000 0.0000 48.0882 0.0000
# 6 0.0000 0.0000 0.0000 0.0000 0.0000 46.2958
#
#
#
# Elastic Compliance Matrix: (Units=1/GPa)
#
#
# Indices 1 2 3 4 5 6 
#
# 1 0.018082 -0.009718 -0.003567 0.000000 0.000000 0.000000
# 2 -0.009718 0.018080 -0.003566 0.000000 0.000000 0.000000
# 3 -0.003567 -0.003566 0.015607 0.000000 0.000000 0.000000
# 4 0.000000 0.000000 0.000000 0.020799 0.000000 0.000000
# 5 0.000000 0.000000 0.000000 0.000000 0.020795 0.000000
# 6 0.000000 0.000000 0.000000 0.000000 0.000000 0.021600
#
#
# Mechanical properties :
#
#
# Convention : Reuss Voigt Hill
#
# Bulk Modulus (GPa) = 55.34309 56.92568 56.13438
# Shear Modulus (GPa) = 32.32353 37.82124 35.07238
#
# Velocity S-wave (km/s) = 3.93732 4.25901 4.10132
# Velocity P-wave (km/s) = 6.87114 7.17546 7.02495
#
# Compressibility (1/GPa) = 0.01806910
#
# Stress axis : x y z
#
# Youngs Moduli (GPa) = 55.30357 55.30992 64.07350
#
# Poissons Ratio (x) = 0.53748 0.22852
# Poissons Ratio (y) = 0.53742 0.22848
# Poissons Ratio (z) = 0.19724 0.19723
#
# Static dielectric constant tensor:
#      x y z
#    x 1.612930 0.000000 0.000000 
#    y 0.000000 1.612860 0.000000 
#    z 0.000000 0.000000 1.844890 
# 
# From -- ./inp_files/7531.got.cif
#   From: 2010.05.17/outbox.cif.g08.bks.cpg/sg121_4_cif.got.tgz:7531.got - 2010.05.20 11:32:06.
