data_PCOD9560244
_publ_section_title
;
Structure prediction by ZEFSAII (Michael W. Deem and Ramdas Pophale) SiO2 
 PCOD9560244
Probable space group: I -4 2 M
;
_chemical_formula_sum "Si O2"
_cell_formula_units_Z 56
_cell_length_a 10.708331
_cell_length_b 10.708331
_cell_length_c 22.493544
_cell_angle_alpha 90.000000
_cell_angle_beta 90.000000
_cell_angle_gamma 90.000000
_cell_volume 2579.297639
_symmetry_space_group_name_H-M "I -4 2 M"
_symmetry_group_IT_number 121
_symmetry_cell_setting 'tetragonal'
loop_
_space_group_symop_operation_xyz
x,y,z
y,-x,-z
-x,-y,z
-y,x,-z
x,-y,-z
-x,y,-z
-y,-x,z
y,x,z
1/2+x,1/2+y,1/2+z
1/2+y,1/2-x,1/2-z
1/2-x,1/2-y,1/2+z
1/2-y,1/2+x,1/2-z
1/2+x,1/2-y,1/2-z
1/2-x,1/2+y,1/2-z
1/2-y,1/2-x,1/2+z
1/2+y,1/2+x,1/2+z
loop_
_atom_site_type_symbol
_atom_site_label
_atom_site_fract_x
_atom_site_fract_y
_atom_site_fract_z
Si Si1 0.751820 0.562616 0.805275
Si Si2 0.531928 0.267967 0.672598
Si Si3 0.906325 0.381454 0.398235
Si Si4 0.299905 0.500000 0.000000
O O1 0.622945 0.622945 0.827224
O O2 0.737083 0.537572 0.735683
O O3 0.859998 0.663371 0.818637
O O4 0.798922 0.443114 0.840682
O O5 0.602562 0.397439 0.663706
O O6 0.444199 0.224941 0.618576
O O7 0.000000 0.500000 0.404857
O O8 0.931350 0.290070 0.452969
O O9 0.392711 0.607290 0.025295
#
# Coordination Sequence:
#
# PCOD9560244 Si02
#       4
#    16  16  16   8
#     4  10  19  33  57  89 127 172 216 258 316 387
#     4  10  20  34  59  94 131 172 215 262 324 395
#     4  10  21  39  64  90 129 175 215 272 326 387
#     4  11  25  44  66  94 129 177 232 278 328 389
#
# _framework density 21.711334999999998
#
# number of rings (size 3 to 8) (size 9 to 14) (size 15 to 20)
#    0.000    1.857    2.857    1.286    0.000    4.000 
#    0.000    0.000    0.000    0.000    0.000    0.000 
#    0.000    0.000    0.000    0.000    0.000    0.000 
#
# Total GULP energy -156278.339258 kJ/mol
# GULP energy per Si atom -5581.369259 kJ/mol
# Density = 2.166192 g / cm^3
# Si number density = 21.711335 Si / 1000 Ang^3
#
#
#
# Elastic Constant Matrix: (Units=GPa)
#
#
# Indices 1 2 3 4 5 6 
#
# 1 87.4364 75.8684 43.6214 0.0000 0.0000 0.0000
# 2 75.8684 87.4353 43.6216 0.0000 0.0000 0.0000
# 3 43.6214 43.6216 99.1824 0.0000 0.0000 0.0000
# 4 0.0000 0.0000 0.0000 2.0786 0.0000 0.0000
# 5 0.0000 0.0000 0.0000 0.0000 2.0807 0.0000
# 6 0.0000 0.0000 0.0000 0.0000 0.0000 28.6776
#
#
#
# Elastic Compliance Matrix: (Units=1/GPa)
#
#
# Indices 1 2 3 4 5 6 
#
# 1 0.047226 -0.039222 -0.003520 0.000000 0.000000 0.000000
# 2 -0.039222 0.047227 -0.003521 0.000000 0.000000 0.000000
# 3 -0.003520 -0.003521 0.013179 0.000000 0.000000 0.000000
# 4 0.000000 0.000000 0.000000 0.481083 0.000000 0.000000
# 5 0.000000 0.000000 0.000000 0.000000 0.480602 0.000000
# 6 0.000000 0.000000 0.000000 0.000000 0.000000 0.034870
#
#
# Mechanical properties :
#
#
# Convention : Reuss Voigt Hill
#
# Bulk Modulus (GPa) = 66.19850 66.69743 66.44797
# Shear Modulus (GPa) = 4.16060 13.96357 9.06209
#
# Velocity S-wave (km/s) = 1.38582 2.53878 2.04523
# Velocity P-wave (km/s) = 5.75475 6.27540 6.02071
#
# Compressibility (1/GPa) = 0.01510608
#
# Stress axis : x y z
#
# Youngs Moduli (GPa) = 21.17467 21.17426 75.87827
#
# Poissons Ratio (x) = 0.83051 0.26709
# Poissons Ratio (y) = 0.83052 0.26714
# Poissons Ratio (z) = 0.07454 0.07455
#
# Static dielectric constant tensor:
#      x y z
#    x 1.828870 0.000000 0.000000 
#    y 0.000000 1.828870 0.000000 
#    z 0.000000 0.000000 1.754370 
# 
# From -- ./inp_files/6848.got.cif
#   From: 2010.05.17/outbox.cif.g08.bks.cpg/sg121_4_cif.got.tgz:6848.got - 2010.05.20 11:32:06.
