data_PCOD9560718
_publ_section_title
;
Structure prediction by ZEFSAII (Michael W. Deem and Ramdas Pophale) SiO2 
 PCOD9560718
Probable space group: I -4 2 D
;
_chemical_formula_sum "Si O2"
_cell_formula_units_Z 96
_cell_length_a 14.288966
_cell_length_b 14.288966
_cell_length_c 23.891667
_cell_angle_alpha 90.000000
_cell_angle_beta 90.000000
_cell_angle_gamma 90.000000
_cell_volume 4878.070343
_symmetry_space_group_name_H-M "I -4 2 D"
_symmetry_group_IT_number 122
_symmetry_cell_setting 'tetragonal'
loop_
_space_group_symop_operation_xyz
x,y,z
y,-x,-z
-x,-y,z
-y,x,-z
x,1/2-y,1/4-z
-x,1/2+y,1/4-z
-y,1/2-x,1/4+z
y,1/2+x,1/4+z
1/2+x,1/2+y,1/2+z
1/2+y,1/2-x,1/2-z
1/2-x,1/2-y,1/2+z
1/2-y,1/2+x,1/2-z
1/2+x,-y,3/4-z
1/2-x,y,3/4-z
1/2-y,-x,3/4+z
1/2+y,x,3/4+z
loop_
_atom_site_type_symbol
_atom_site_label
_atom_site_fract_x
_atom_site_fract_y
_atom_site_fract_z
Si Si1 0.500000 0.500000 0.587285
Si Si2 0.140423 0.910044 0.822416
Si Si3 0.816838 0.611283 0.446290
Si Si4 0.670901 0.123021 0.677922
Si Si5 0.873032 0.413072 0.938263
Si Si6 0.740266 0.750000 0.125000
Si Si7 0.911203 0.890495 0.305394
O O1 0.444986 0.428420 0.628672
O O2 0.587107 0.448778 0.556301
O O3 0.189676 0.813427 0.838077
O O4 0.094688 0.903697 0.761545
O O5 0.205701 0.001297 0.813251
O O6 0.854643 0.650562 0.387618
O O7 0.718468 0.656049 0.461673
O O8 0.889748 0.629446 0.495437
O O9 0.780871 0.104428 0.683593
O O10 0.815525 0.330977 0.909038
O O11 0.850132 0.521230 0.922821
O O12 0.982586 0.403276 0.924514
#
# Coordination Sequence:
#
# PCOD9560718 Si02
#       7
#     8  16  16  16  16   8  16
#     4  10  18  32  54  85 114 146 182 231 288 356
#     4  10  19  34  56  79 112 148 181 225 291 353
#     4   9  19  35  53  78 110 143 179 224 281 352
#     4  10  18  31  56  81 106 141 186 232 281 335
#     4  10  22  37  52  76 110 146 188 228 274 338
#     4  12  22  34  56  88 112 138 188 252 288 320
#     4  10  20  36  56  76 105 151 191 225 277 349
#
# _framework density 19.679912999999999
#
# number of rings (size 3 to 8) (size 9 to 14) (size 15 to 20)
#    0.000    2.000    0.000    7.000    0.000    1.333 
#    0.000    1.667    0.000    2.000    0.000    2.333 
#    0.000    0.000    0.000    0.000    0.000    0.000 
#
# Total GULP energy -267213.719475 kJ/mol
# GULP energy per Si atom -5566.952489 kJ/mol
# Density = 1.963512 g / cm^3
# Si number density = 19.679913 Si / 1000 Ang^3
#
#
#
# Elastic Constant Matrix: (Units=GPa)
#
#
# Indices 1 2 3 4 5 6 
#
# 1 151.8417 69.9891 27.4704 0.0000 0.0000 0.0000
# 2 69.9891 151.8417 27.4704 0.0000 0.0000 0.0000
# 3 27.4704 27.4704 42.4595 0.0000 0.0000 0.0000
# 4 0.0000 0.0000 0.0000 28.9937 0.0000 0.0000
# 5 0.0000 0.0000 0.0000 0.0000 28.9937 0.0000
# 6 0.0000 0.0000 0.0000 0.0000 0.0000 33.2013
#
#
#
# Elastic Compliance Matrix: (Units=1/GPa)
#
#
# Indices 1 2 3 4 5 6 
#
# 1 0.008793 -0.003424 -0.003473 0.000000 0.000000 0.000000
# 2 -0.003424 0.008793 -0.003473 0.000000 0.000000 0.000000
# 3 -0.003473 -0.003473 0.028046 0.000000 0.000000 0.000000
# 4 0.000000 0.000000 0.000000 0.034490 0.000000 0.000000
# 5 0.000000 0.000000 0.000000 0.000000 0.034490 0.000000
# 6 0.000000 0.000000 0.000000 0.000000 0.000000 0.030119
#
#
# Mechanical properties :
#
#
# Convention : Reuss Voigt Hill
#
# Bulk Modulus (GPa) = 40.17700 66.22251 53.19976
# Shear Modulus (GPa) = 28.77388 32.98527 30.87958
#
# Velocity S-wave (km/s) = 3.82788 4.09845 3.96547
# Velocity P-wave (km/s) = 6.32428 7.49128 6.93238
#
# Compressibility (1/GPa) = 0.02488986
#
# Stress axis : x y z
#
# Youngs Moduli (GPa) = 113.73207 113.73207 35.65590
#
# Poissons Ratio (x) = 0.38947 0.12383
# Poissons Ratio (y) = 0.38947 0.12383
# Poissons Ratio (z) = 0.39500 0.39500
#
# Static dielectric constant tensor:
#      x y z
#    x 1.742030 0.000000 0.000000 
#    y 0.000000 1.742030 0.000000 
#    z 0.000000 0.000000 1.717530 
# 
# From -- ./inp_files/8058.got.cif
#   From: 2010.05.17/outbox.cif.g08.bks.cpg/sg122_5_cif.got.tgz:8058.got - 2010.05.20 11:37:33.
