data_PCOD9560299
_publ_section_title
;
Structure prediction by ZEFSAII (Michael W. Deem and Ramdas Pophale) SiO2 
 PCOD9560299
Probable space group: I -4 2 M
;
_chemical_formula_sum "Si O2"
_cell_formula_units_Z 80
_cell_length_a 17.230225
_cell_length_b 17.230225
_cell_length_c 16.134010
_cell_angle_alpha 90.000000
_cell_angle_beta 90.000000
_cell_angle_gamma 90.000000
_cell_volume 4789.875433
_symmetry_space_group_name_H-M "I -4 2 M"
_symmetry_group_IT_number 121
_symmetry_cell_setting 'tetragonal'
loop_
_space_group_symop_operation_xyz
x,y,z
y,-x,-z
-x,-y,z
-y,x,-z
x,-y,-z
-x,y,-z
-y,-x,z
y,x,z
1/2+x,1/2+y,1/2+z
1/2+y,1/2-x,1/2-z
1/2-x,1/2-y,1/2+z
1/2-y,1/2+x,1/2-z
1/2+x,1/2-y,1/2-z
1/2-x,1/2+y,1/2-z
1/2-y,1/2-x,1/2+z
1/2+y,1/2+x,1/2+z
loop_
_atom_site_type_symbol
_atom_site_label
_atom_site_fract_x
_atom_site_fract_y
_atom_site_fract_z
Si Si1 0.840112 0.278417 0.506995
Si Si2 0.228590 0.899570 0.687801
Si Si3 0.941427 0.392159 0.774975
Si Si4 0.919713 0.585376 0.534887
Si Si5 0.542752 0.668671 0.086857
O O1 0.757568 0.242433 0.488754
O O2 0.865294 0.255695 0.599222
O O3 0.847266 0.368864 0.499968
O O4 0.900670 0.239056 0.442168
O O5 0.162628 0.837373 0.719336
O O6 0.306795 0.916052 0.742018
O O7 0.190893 0.981355 0.657739
O O8 0.904882 0.464860 0.724163
O O9 0.913820 0.412040 0.867283
O O10 0.919349 0.500000 0.500000
O O11 0.000000 0.622003 0.500000
O O12 0.597769 0.597769 0.111735
O O13 0.500000 0.647812 0.000000
#
# Coordination Sequence:
#
# PCOD9560299 Si02
#       5
#    16  16  16  16  16
#     4   9  17  30  48  71 102 135 167 204 246 296
#     4  10  20  33  49  73 106 135 161 203 254 300
#     4  11  21  34  52  72  98 129 166 209 253 301
#     4  11  20  32  52  73  95 125 166 207 249 304
#     4   9  16  27  47  74 104 140 176 206 242 296
#
# _framework density 16.701896000000001
#
# number of rings (size 3 to 8) (size 9 to 14) (size 15 to 20)
#    0.000    2.000    0.000    9.600    0.000    2.200 
#    0.000    1.000    0.000    1.200    0.000    0.000 
#    0.000    0.400    0.000    0.000    0.000    0.000 
#
# Total GULP energy -222675.422862 kJ/mol
# GULP energy per Si atom -5566.885572 kJ/mol
# Density = 1.666388 g / cm^3
# Si number density = 16.701896 Si / 1000 Ang^3
#
#
#
# Elastic Constant Matrix: (Units=GPa)
#
#
# Indices 1 2 3 4 5 6 
#
# 1 90.8307 49.8649 28.4632 0.0000 0.0000 0.0000
# 2 49.8649 90.8270 28.4627 0.0000 0.0000 0.0000
# 3 28.4632 28.4627 61.7542 0.0000 0.0000 0.0000
# 4 0.0000 0.0000 0.0000 57.2934 0.0000 0.0000
# 5 0.0000 0.0000 0.0000 0.0000 57.3001 0.0000
# 6 0.0000 0.0000 0.0000 0.0000 0.0000 22.0207
#
#
#
# Elastic Compliance Matrix: (Units=1/GPa)
#
#
# Indices 1 2 3 4 5 6 
#
# 1 0.016574 -0.007837 -0.004027 0.000000 0.000000 0.000000
# 2 -0.007837 0.016575 -0.004027 0.000000 0.000000 0.000000
# 3 -0.004027 -0.004027 0.019905 0.000000 0.000000 0.000000
# 4 0.000000 0.000000 0.000000 0.017454 0.000000 0.000000
# 5 0.000000 0.000000 0.000000 0.000000 0.017452 0.000000
# 6 0.000000 0.000000 0.000000 0.000000 0.000000 0.045412
#
#
# Mechanical properties :
#
#
# Convention : Reuss Voigt Hill
#
# Bulk Modulus (GPa) = 47.01122 50.77707 48.89414
# Shear Modulus (GPa) = 29.02847 36.43092 32.72969
#
# Velocity S-wave (km/s) = 4.17350 4.67545 4.43158
# Velocity P-wave (km/s) = 7.17164 7.72103 7.45140
#
# Compressibility (1/GPa) = 0.02127152
#
# Stress axis : x y z
#
# Youngs Moduli (GPa) = 60.33553 60.33303 50.23779
#
# Poissons Ratio (x) = 0.47285 0.20230
# Poissons Ratio (y) = 0.47287 0.20231
# Poissons Ratio (z) = 0.24296 0.24296
#
# Static dielectric constant tensor:
#      x y z
#    x 1.597350 0.000000 0.000000 
#    y 0.000000 1.597340 0.000000 
#    z 0.000000 0.000000 1.593020 
# 
# From -- ./inp_files/4257.got.cif
#   From: 2010.05.17/outbox.cif.g08.bks.cpg/sg121_3_cif.got.tgz:4257.got - 2010.05.20 11:32:06.
