data_PCOD9560961
_publ_section_title
;
Structure prediction by ZEFSAII (Michael W. Deem and Ramdas Pophale) SiO2 
 PCOD9560961
Probable space group: I -4 2 D
;
_chemical_formula_sum "Si O2"
_cell_formula_units_Z 96
_cell_length_a 14.170388
_cell_length_b 14.170388
_cell_length_c 21.458148
_cell_angle_alpha 90.000000
_cell_angle_beta 90.000000
_cell_angle_gamma 90.000000
_cell_volume 4308.793888
_symmetry_space_group_name_H-M "I -4 2 D"
_symmetry_group_IT_number 122
_symmetry_cell_setting 'tetragonal'
loop_
_space_group_symop_operation_xyz
x,y,z
y,-x,-z
-x,-y,z
-y,x,-z
x,1/2-y,1/4-z
-x,1/2+y,1/4-z
-y,1/2-x,1/4+z
y,1/2+x,1/4+z
1/2+x,1/2+y,1/2+z
1/2+y,1/2-x,1/2-z
1/2-x,1/2-y,1/2+z
1/2-y,1/2+x,1/2-z
1/2+x,-y,3/4-z
1/2-x,y,3/4-z
1/2-y,-x,3/4+z
1/2+y,x,3/4+z
loop_
_atom_site_type_symbol
_atom_site_label
_atom_site_fract_x
_atom_site_fract_y
_atom_site_fract_z
Si Si1 0.090361 0.069832 0.337959
Si Si2 0.452581 0.814974 0.485475
Si Si3 0.572079 0.881657 0.275827
Si Si4 0.978297 0.680402 0.479822
Si Si5 0.135461 0.682999 0.369296
Si Si6 0.495653 0.374855 0.535703
O O1 0.114177 0.091098 0.408215
O O2 0.049333 0.156603 0.298729
O O3 0.172013 0.026237 0.297186
O O4 0.000000 0.000000 0.340456
O O5 0.407759 0.905678 0.519869
O O6 0.391713 0.765608 0.430303
O O7 0.473765 0.732389 0.533228
O O8 0.457438 0.893819 0.274674
O O9 0.587284 0.772185 0.267938
O O10 0.061464 0.687567 0.427900
O O11 0.250000 0.689316 0.375000
O O12 0.114994 0.579587 0.340162
O O13 0.437892 0.410413 0.473317
#
# Coordination Sequence:
#
# PCOD9560961 Si02
#       6
#    16  16  16  16  16  16
#     4  10  20  43  63  95 134 179 228 293 349 435
#     4  10  22  43  69  99 143 184 242 301 366 448
#     4  11  23  43  69  97 138 185 236 287 366 446
#     4  11  25  41  74 104 142 190 241 305 373 445
#     4  11  23  43  71 107 143 192 248 305 374 458
#     4   9  20  44  69  92 137 191 236 300 373 445
#
# _framework density 22.280017000000001
#
# number of rings (size 3 to 8) (size 9 to 14) (size 15 to 20)
#    0.000    1.667    3.333    1.000    2.333    0.667 
#   30.000    0.000    0.000    0.000    0.000    0.000 
#    0.000    0.000    0.000    0.000    0.000    0.000 
#
# Total GULP energy -267509.623038 kJ/mol
# GULP energy per Si atom -5573.117147 kJ/mol
# Density = 2.222931 g / cm^3
# Si number density = 22.280017 Si / 1000 Ang^3
#
#
#
# Elastic Constant Matrix: (Units=GPa)
#
#
# Indices 1 2 3 4 5 6 
#
# 1 77.0521 4.6836 26.8528 0.0000 0.0000 0.0000
# 2 4.6836 77.0521 26.8527 0.0000 0.0000 0.0000
# 3 26.8528 26.8527 82.8743 0.0000 0.0000 0.0000
# 4 0.0000 0.0000 0.0000 24.1610 0.0000 0.0000
# 5 0.0000 0.0000 0.0000 0.0000 24.1610 0.0000
# 6 0.0000 0.0000 0.0000 0.0000 0.0000 18.8793
#
#
#
# Elastic Compliance Matrix: (Units=1/GPa)
#
#
# Indices 1 2 3 4 5 6 
#
# 1 0.014681 0.000863 -0.005036 0.000000 0.000000 0.000000
# 2 0.000863 0.014681 -0.005036 0.000000 0.000000 0.000000
# 3 -0.005036 -0.005036 0.015330 0.000000 0.000000 0.000000
# 4 0.000000 0.000000 0.000000 0.041389 0.000000 0.000000
# 5 0.000000 0.000000 0.000000 0.000000 0.041389 0.000000
# 6 0.000000 0.000000 0.000000 0.000000 0.000000 0.052968
#
#
# Mechanical properties :
#
#
# Convention : Reuss Voigt Hill
#
# Bulk Modulus (GPa) = 38.06326 39.30629 38.68478
# Shear Modulus (GPa) = 24.08293 25.34623 24.71458
#
# Velocity S-wave (km/s) = 3.29130 3.37652 3.33419
# Velocity P-wave (km/s) = 5.61825 5.73424 5.67654
#
# Compressibility (1/GPa) = 0.02627205
#
# Stress axis : x y z
#
# Youngs Moduli (GPa) = 68.11521 68.11521 65.23037
#
# Poissons Ratio (x) = -0.05877 0.32853
# Poissons Ratio (y) = -0.05877 0.32853
# Poissons Ratio (z) = 0.34306 0.34306
#
# Static dielectric constant tensor:
#      x y z
#    x 1.899030 0.000000 0.000000 
#    y 0.000000 1.899030 0.000000 
#    z 0.000000 0.000000 1.820210 
# 
# From -- ./inp_files/7266.got.cif
#   From: 2010.05.17/outbox.cif.g08.bks.cpg/sg122_4_cif.got.tgz:7266.got - 2010.05.20 11:37:33.
