data_PCOD9560930
_publ_section_title
;
Structure prediction by ZEFSAII (Michael W. Deem and Ramdas Pophale) SiO2 
 PCOD9560930
Probable space group: I -4 2 D
;
_chemical_formula_sum "Si O2"
_cell_formula_units_Z 76
_cell_length_a 14.357143
_cell_length_b 14.357143
_cell_length_c 18.697672
_cell_angle_alpha 90.000000
_cell_angle_beta 90.000000
_cell_angle_gamma 90.000000
_cell_volume 3854.105416
_symmetry_space_group_name_H-M "I -4 2 D"
_symmetry_group_IT_number 122
_symmetry_cell_setting 'tetragonal'
loop_
_space_group_symop_operation_xyz
x,y,z
y,-x,-z
-x,-y,z
-y,x,-z
x,1/2-y,1/4-z
-x,1/2+y,1/4-z
-y,1/2-x,1/4+z
y,1/2+x,1/4+z
1/2+x,1/2+y,1/2+z
1/2+y,1/2-x,1/2-z
1/2-x,1/2-y,1/2+z
1/2-y,1/2+x,1/2-z
1/2+x,-y,3/4-z
1/2-x,y,3/4-z
1/2-y,-x,3/4+z
1/2+y,x,3/4+z
loop_
_atom_site_type_symbol
_atom_site_label
_atom_site_fract_x
_atom_site_fract_y
_atom_site_fract_z
Si Si1 0.607016 0.015463 0.976917
Si Si2 0.744496 0.250000 0.125000
Si Si3 0.087773 0.897669 0.617393
Si Si4 0.750000 0.073842 0.375000
Si Si5 0.219647 0.169492 0.728643
Si Si6 0.629398 0.750000 0.625000
Si Si7 0.500000 0.500000 0.000000
O O1 0.500000 0.000000 0.947909
O O2 0.678554 0.069510 0.924228
O O3 0.663211 0.924233 0.003263
O O4 0.590040 0.069031 0.051291
O O5 0.677864 0.335593 0.107321
O O6 0.802065 0.264729 0.196211
O O7 0.081590 0.974024 0.555319
O O8 0.994723 0.835968 0.610743
O O9 0.765938 0.139898 0.306889
O O10 0.303536 0.182125 0.671980
#
# Coordination Sequence:
#
# PCOD9560930 Si02
#       7
#    16   8  16   8  16   8   4
#     4  12  24  48  71 104 142 191 244 300 360 442
#     4  11  23  39  63  96 126 178 223 281 343 425
#     4  11  22  38  63  99 138 166 224 277 364 427
#     4  10  20  40  64 102 128 180 220 290 360 424
#     4  11  23  42  72  96 140 184 237 296 361 424
#     4  11  27  49  69 104 146 196 251 303 363 437
#     4  12  20  36  60 100 132 172 202 292 348 432
#
# _framework density 19.719232000000002
#
# number of rings (size 3 to 8) (size 9 to 14) (size 15 to 20)
#    0.000    0.842    5.263    1.895    0.000    3.368 
#    3.789    0.000    0.000    0.000    0.000    0.000 
#    0.000    0.000    0.000    0.000    0.000    0.000 
#
# Total GULP energy -211795.507141 kJ/mol
# GULP energy per Si atom -5573.565977 kJ/mol
# Density = 1.967435 g / cm^3
# Si number density = 19.719232 Si / 1000 Ang^3
#
#
#
# Elastic Constant Matrix: (Units=GPa)
#
#
# Indices 1 2 3 4 5 6 
#
# 1 100.3346 54.4294 51.5355 0.0000 0.0000 0.0000
# 2 54.4294 100.3346 51.5355 0.0000 0.0000 0.0000
# 3 51.5355 51.5355 133.1281 0.0000 0.0000 0.0000
# 4 0.0000 0.0000 0.0000 64.3699 0.0000 -0.0001
# 5 0.0000 0.0000 0.0000 0.0000 64.3700 0.0000
# 6 0.0000 0.0000 0.0000 -0.0001 0.0000-1985.3511
#
#
#
# Elastic Compliance Matrix: (Units=1/GPa)
#
#
# Indices 1 2 3 4 5 6 
#
# 1 0.015245 -0.006539 -0.003370 0.000000 0.000000 0.000000
# 2 -0.006539 0.015245 -0.003370 0.000000 0.000000 0.000000
# 3 -0.003370 -0.003370 0.010121 0.000000 0.000000 0.000000
# 4 0.000000 0.000000 0.000000 0.015535 0.000000 0.000000
# 5 0.000000 0.000000 0.000000 0.000000 0.015535 0.000000
# 6 0.000000 0.000000 0.000000 0.000000 0.000000 -0.000504
#
#
# Mechanical properties :
#
#
# Convention : Reuss Voigt Hill
#
# Bulk Modulus (GPa) = 71.16415 72.08868 71.62642
# Shear Modulus (GPa) = 48.81845 -359.56910 -155.37532
#
# Velocity S-wave (km/s) = 4.98102 -13.51814 -8.88622
# Velocity P-wave (km/s) = 8.32152 14.38808 8.29967
#
# Compressibility (1/GPa) = 0.01405202
#
# Stress axis : x y z
#
# Youngs Moduli (GPa) = 65.59535 65.59535 98.80614
#
# Poissons Ratio (x) = 0.42893 0.33299
# Poissons Ratio (y) = 0.42893 0.33299
# Poissons Ratio (z) = 0.22107 0.22107
#
# Static dielectric constant tensor:
#      x y z
#    x 1.634190 0.000000 0.000000 
#    y 0.000000 1.634190 0.000000 
#    z 0.000000 0.000000 1.720530 
# 
# From -- ./inp_files/6203.got.cif
#   From: 2010.05.17/outbox.cif.g08.bks.cpg/sg122_4_cif.got.tgz:6203.got - 2010.05.20 11:37:33.
