data_PCOD9560546
_publ_section_title
;
Structure prediction by ZEFSAII (Michael W. Deem and Ramdas Pophale) SiO2 
 PCOD9560546
Probable space group: I -4 2 M
;
_chemical_formula_sum "Si O2"
_cell_formula_units_Z 96
_cell_length_a 19.473176
_cell_length_b 19.473176
_cell_length_c 11.307939
_cell_angle_alpha 90.000000
_cell_angle_beta 90.000000
_cell_angle_gamma 90.000000
_cell_volume 4288.022299
_symmetry_space_group_name_H-M "I -4 2 M"
_symmetry_group_IT_number 121
_symmetry_cell_setting 'tetragonal'
loop_
_space_group_symop_operation_xyz
x,y,z
y,-x,-z
-x,-y,z
-y,x,-z
x,-y,-z
-x,y,-z
-y,-x,z
y,x,z
1/2+x,1/2+y,1/2+z
1/2+y,1/2-x,1/2-z
1/2-x,1/2-y,1/2+z
1/2-y,1/2+x,1/2-z
1/2+x,1/2-y,1/2-z
1/2-x,1/2+y,1/2-z
1/2-y,1/2-x,1/2+z
1/2+y,1/2+x,1/2+z
loop_
_atom_site_type_symbol
_atom_site_label
_atom_site_fract_x
_atom_site_fract_y
_atom_site_fract_z
Si Si1 0.838041 0.642176 0.590732
Si Si2 0.962596 0.401127 0.276074
Si Si3 0.462777 0.649945 0.749242
Si Si4 0.104497 0.217720 0.270067
Si Si5 0.441245 0.222691 0.398725
Si Si6 0.782240 0.105148 0.467223
O O1 0.911098 0.605892 0.614246
O O2 0.782525 0.615626 0.685129
O O3 0.807564 0.625015 0.463220
O O4 0.855342 0.721963 0.600176
O O5 0.927542 0.461341 0.197529
O O6 0.962564 0.329966 0.204648
O O7 0.423978 0.576023 0.742134
O O8 0.543784 0.664715 0.731419
O O9 0.429639 0.702304 0.654725
O O10 0.447674 0.681924 0.878684
O O11 0.174771 0.174771 0.266485
O O12 0.084840 0.243137 0.402374
O O13 0.500000 0.224061 0.500000
O O14 0.842421 0.157580 0.494285
#
# Coordination Sequence:
#
# PCOD9560546 Si02
#       6
#    16  16  16  16  16  16
#     4  12  23  41  66  94 135 180 226 276 345 409
#     4  11  23  40  61  93 133 178 229 276 332 402
#     4  11  24  45  71  99 135 179 226 287 352 409
#     4  11  24  44  69 100 136 178 230 288 345 413
#     4  12  23  43  64  92 133 175 220 274 340 404
#     4  10  23  41  66  97 128 169 226 280 338 409
#
# _framework density 22.387941999999999
#
# number of rings (size 3 to 8) (size 9 to 14) (size 15 to 20)
#    0.000    0.833    5.000    2.000    0.000    2.333 
#    3.000    0.000    0.000    3.000    0.000    0.000 
#    0.000    0.000    0.000    0.000    0.000    0.000 
#
# Total GULP energy -267946.560826 kJ/mol
# GULP energy per Si atom -5582.220017 kJ/mol
# Density = 2.233699 g / cm^3
# Si number density = 22.387942 Si / 1000 Ang^3
#
#
#
# Elastic Constant Matrix: (Units=GPa)
#
#
# Indices 1 2 3 4 5 6 
#
# 1 43.1345 -10.5285 14.5394 0.0000 0.0000 0.0000
# 2 -10.5285 43.1564 14.5344 0.0000 0.0000 0.0000
# 3 14.5394 14.5344 47.3625 0.0000 0.0000 0.0000
# 4 0.0000 0.0000 0.0000 12.3102 0.0000 0.0000
# 5 0.0000 0.0000 0.0000 0.0000 12.3463 0.0000
# 6 0.0000 0.0000 0.0000 0.0000 0.0000 26.5219
#
#
#
# Elastic Compliance Matrix: (Units=1/GPa)
#
#
# Indices 1 2 3 4 5 6 
#
# 1 0.030428 0.011787 -0.012958 0.000000 0.000000 0.000000
# 2 0.011787 0.030409 -0.012950 0.000000 0.000000 0.000000
# 3 -0.012958 -0.012950 0.029066 0.000000 0.000000 0.000000
# 4 0.000000 0.000000 0.000000 0.081233 0.000000 0.000000
# 5 0.000000 0.000000 0.000000 0.000000 0.080996 0.000000
# 6 0.000000 0.000000 0.000000 0.000000 0.000000 0.037705
#
#
# Mechanical properties :
#
#
# Convention : Reuss Voigt Hill
#
# Bulk Modulus (GPa) = 16.21776 18.97156 17.59466
# Shear Modulus (GPa) = 14.76528 17.90955 16.33742
#
# Velocity S-wave (km/s) = 2.57090 2.83143 2.70430
# Velocity P-wave (km/s) = 4.00904 4.37970 4.19846
#
# Compressibility (1/GPa) = 0.06166079
#
# Stress axis : x y z
#
# Youngs Moduli (GPa) = 32.86414 32.88538 34.40469
#
# Poissons Ratio (x) = -0.38764 0.44582
# Poissons Ratio (y) = -0.38739 0.44555
# Poissons Ratio (z) = 0.42586 0.42587
#
# Static dielectric constant tensor:
#      x y z
#    x 1.835530 0.000000 0.000000 
#    y 0.000000 1.835500 0.000000 
#    z 0.000000 0.000000 1.910980 
# 
# From -- ./inp_files/3293.got.cif
#   From: 2010.05.17/outbox.cif.g08.bks.cpg/sg121_2_cif.got.tgz:3293.got - 2010.05.20 11:32:06.
