data_PCOD9560535
_publ_section_title
;
Structure prediction by ZEFSAII (Michael W. Deem and Ramdas Pophale) SiO2 
 PCOD9560535
Probable space group: I -4 2 M
;
_chemical_formula_sum "Si O2"
_cell_formula_units_Z 34
_cell_length_a 11.757963
_cell_length_b 11.757963
_cell_length_c 12.693160
_cell_angle_alpha 90.000000
_cell_angle_beta 90.000000
_cell_angle_gamma 90.000000
_cell_volume 1754.825485
_symmetry_space_group_name_H-M "I -4 2 M"
_symmetry_group_IT_number 121
_symmetry_cell_setting 'tetragonal'
loop_
_space_group_symop_operation_xyz
x,y,z
y,-x,-z
-x,-y,z
-y,x,-z
x,-y,-z
-x,y,-z
-y,-x,z
y,x,z
1/2+x,1/2+y,1/2+z
1/2+y,1/2-x,1/2-z
1/2-x,1/2-y,1/2+z
1/2-y,1/2+x,1/2-z
1/2+x,1/2-y,1/2-z
1/2-x,1/2+y,1/2-z
1/2-y,1/2-x,1/2+z
1/2+y,1/2+x,1/2+z
loop_
_atom_site_type_symbol
_atom_site_label
_atom_site_fract_x
_atom_site_fract_y
_atom_site_fract_z
Si Si1 0.500000 0.500000 0.500000
Si Si2 0.693722 0.500000 0.000000
Si Si3 0.599539 0.400462 0.349489
Si Si4 0.979372 0.316873 0.722548
O O1 0.600962 0.399039 0.474423
O O2 0.770775 0.502320 0.895554
O O3 0.609628 0.390373 0.999062
O O4 0.500000 0.500000 0.352524
O O5 0.554039 0.291159 0.292190
O O6 0.878755 0.408693 0.733174
#
# Coordination Sequence:
#
# PCOD9560535 Si02
#       4
#     2   8   8  16
#     4   8  24  36  64 102 128 172 232 272 340 414
#     4  11  24  43  72 102 136 189 229 276 352 414
#     4  10  22  43  64  97 134 183 222 278 342 415
#     4  11  26  44  70 102 140 177 233 290 339 411
#
# _framework density 19.375145
#
# number of rings (size 3 to 8) (size 9 to 14) (size 15 to 20)
#    0.706    0.706    2.353    1.412    6.588    7.529 
#    0.000    0.000    0.000    0.000    0.000    0.000 
#    0.000    0.000    0.000    0.000    0.000    0.000 
#
# Total GULP energy -94668.723406 kJ/mol
# GULP energy per Si atom -5568.748436 kJ/mol
# Density = 1.933105 g / cm^3
# Si number density = 19.375145 Si / 1000 Ang^3
#
#
#
# Elastic Constant Matrix: (Units=GPa)
#
#
# Indices 1 2 3 4 5 6 
#
# 1 126.8171 82.2972 64.1357 0.0000 0.0000 0.0000
# 2 82.2972 126.8193 64.1350 0.0000 0.0000 0.0000
# 3 64.1357 64.1350 141.6080 0.0000 0.0000 0.0000
# 4 0.0000 0.0000 0.0000 45.2264 0.0000 0.0000
# 5 0.0000 0.0000 0.0000 0.0000 45.2282 0.0000
# 6 0.0000 0.0000 0.0000 0.0000 0.0000 17.6720
#
#
#
# Elastic Compliance Matrix: (Units=1/GPa)
#
#
# Indices 1 2 3 4 5 6 
#
# 1 0.014542 -0.007920 -0.002999 0.000000 0.000000 0.000000
# 2 -0.007920 0.014541 -0.002999 0.000000 0.000000 0.000000
# 3 -0.002999 -0.002999 0.009778 0.000000 0.000000 0.000000
# 4 0.000000 0.000000 0.000000 0.022111 0.000000 0.000000
# 5 0.000000 0.000000 0.000000 0.000000 0.022110 0.000000
# 6 0.000000 0.000000 0.000000 0.000000 0.000000 0.056587
#
#
# Mechanical properties :
#
#
# Convention : Reuss Voigt Hill
#
# Bulk Modulus (GPa) = 90.69819 90.70890 90.70355
# Shear Modulus (GPa) = 29.20907 33.93710 31.57309
#
# Velocity S-wave (km/s) = 3.88694 4.18973 4.04117
# Velocity P-wave (km/s) = 8.18887 8.38593 8.28799
#
# Compressibility (1/GPa) = 0.01102558
#
# Stress axis : x y z
#
# Youngs Moduli (GPa) = 68.76796 68.76992 102.26757
#
# Poissons Ratio (x) = 0.54465 0.30671
# Poissons Ratio (y) = 0.54463 0.30668
# Poissons Ratio (z) = 0.20624 0.20623
#
# Static dielectric constant tensor:
#      x y z
#    x 1.677310 0.000000 0.000000 
#    y 0.000000 1.677310 0.000000 
#    z 0.000000 0.000000 1.680410 
# 
# From -- ./inp_files/2402.got.cif
#   From: 2010.05.17/outbox.cif.g08.bks.cpg/sg121_2_cif.got.tgz:2402.got - 2010.05.20 11:32:06.
