data_PCOD9560915
_publ_section_title
;
Structure prediction by ZEFSAII (Michael W. Deem and Ramdas Pophale) SiO2 
 PCOD9560915
Probable space group: I -4 2 D
;
_chemical_formula_sum "Si O2"
_cell_formula_units_Z 88
_cell_length_a 15.138627
_cell_length_b 15.138627
_cell_length_c 18.849290
_cell_angle_alpha 90.000000
_cell_angle_beta 90.000000
_cell_angle_gamma 90.000000
_cell_volume 4319.843101
_symmetry_space_group_name_H-M "I -4 2 D"
_symmetry_group_IT_number 122
_symmetry_cell_setting 'tetragonal'
loop_
_space_group_symop_operation_xyz
x,y,z
y,-x,-z
-x,-y,z
-y,x,-z
x,1/2-y,1/4-z
-x,1/2+y,1/4-z
-y,1/2-x,1/4+z
y,1/2+x,1/4+z
1/2+x,1/2+y,1/2+z
1/2+y,1/2-x,1/2-z
1/2-x,1/2-y,1/2+z
1/2-y,1/2+x,1/2-z
1/2+x,-y,3/4-z
1/2-x,y,3/4-z
1/2-y,-x,3/4+z
1/2+y,x,3/4+z
loop_
_atom_site_type_symbol
_atom_site_label
_atom_site_fract_x
_atom_site_fract_y
_atom_site_fract_z
Si Si1 0.339155 0.441939 0.713633
Si Si2 0.853294 0.104336 0.030008
Si Si3 0.938162 0.236629 0.933563
Si Si4 0.240288 0.212987 0.299690
Si Si5 0.384382 0.296765 0.202048
Si Si6 0.500000 0.500000 0.377066
O O1 0.271433 0.458962 0.648865
O O2 0.315974 0.348629 0.747660
O O3 0.323157 0.519940 0.769599
O O4 0.434019 0.448940 0.675841
O O5 0.801381 0.183979 0.067534
O O6 0.782454 0.026409 0.022869
O O7 0.936650 0.062673 0.073436
O O8 0.880631 0.150832 0.957010
O O9 0.884403 0.324024 0.948112
O O10 0.250000 0.165780 0.375000
O O11 0.330538 0.236854 0.258982
O O12 0.385598 0.250000 0.125000
#
# Coordination Sequence:
#
# PCOD9560915 Si02
#       6
#    16  16  16  16  16   8
#     4  11  23  39  67  93 135 169 227 274 323 398
#     4  10  21  37  67  89 138 165 214 263 334 407
#     4  10  20  39  63  95 127 176 209 272 326 400
#     4  11  23  42  65  98 131 182 220 272 339 397
#     4  11  23  43  66  94 131 178 221 280 331 396
#     4  10  22  41  62 104 127 180 208 284 333 404
#
# _framework density 20.371109000000001
#
# number of rings (size 3 to 8) (size 9 to 14) (size 15 to 20)
#    0.000    1.455    1.818    4.909    2.545    0.727 
#    0.000    0.000   12.000    0.545    0.000    0.000 
#    0.000    0.000    0.000    0.000    0.000    0.000 
#
# Total GULP energy -245427.573440 kJ/mol
# GULP energy per Si atom -5577.899396 kJ/mol
# Density = 2.032474 g / cm^3
# Si number density = 20.371109 Si / 1000 Ang^3
#
#
#
# Elastic Constant Matrix: (Units=GPa)
#
#
# Indices 1 2 3 4 5 6 
#
# 1 69.8331 34.6398 20.5169 0.0000 0.0000 0.0000
# 2 34.6398 69.8331 20.5169 0.0000 0.0000 0.0000
# 3 20.5169 20.5169 80.4044 0.0000 0.0000 0.0000
# 4 0.0000 0.0000 0.0000 20.5326 0.0000 0.0000
# 5 0.0000 0.0000 0.0000 0.0000 20.5326 0.0000
# 6 0.0000 0.0000 0.0000 0.0000 0.0000 23.0628
#
#
#
# Elastic Compliance Matrix: (Units=1/GPa)
#
#
# Indices 1 2 3 4 5 6 
#
# 1 0.019526 -0.008888 -0.002715 0.000000 0.000000 0.000000
# 2 -0.008888 0.019526 -0.002715 0.000000 0.000000 0.000000
# 3 -0.002715 -0.002715 0.013822 0.000000 0.000000 0.000000
# 4 0.000000 0.000000 0.000000 0.048703 0.000000 0.000000
# 5 0.000000 0.000000 0.000000 0.000000 0.048703 0.000000
# 6 0.000000 0.000000 0.000000 0.000000 0.000000 0.043360
#
#
# Mechanical properties :
#
#
# Convention : Reuss Voigt Hill
#
# Bulk Modulus (GPa) = 41.25336 41.26866 41.26101
# Shear Modulus (GPa) = 21.70558 22.45207 22.07882
#
# Velocity S-wave (km/s) = 3.26775 3.32347 3.29573
# Velocity P-wave (km/s) = 5.87644 5.91859 5.89755
#
# Compressibility (1/GPa) = 0.02424045
#
# Stress axis : x y z
#
# Youngs Moduli (GPa) = 51.21305 51.21305 72.34598
#
# Poissons Ratio (x) = 0.45519 0.19639
# Poissons Ratio (y) = 0.45519 0.19639
# Poissons Ratio (z) = 0.13902 0.13902
#
# Static dielectric constant tensor:
#      x y z
#    x 1.764340 0.000000 0.000000 
#    y 0.000000 1.764340 0.000000 
#    z 0.000000 0.000000 1.757430 
# 
# From -- ./inp_files/7192.got.cif
#   From: 2010.05.17/outbox.cif.g08.bks.cpg/sg122_4_cif.got.tgz:7192.got - 2010.05.20 11:37:33.
