data_PCOD9560623
_publ_section_title
;
Structure prediction by ZEFSAII (Michael W. Deem and Ramdas Pophale) SiO2 
 PCOD9560623
Probable space group: I -4 2 M
;
_chemical_formula_sum "Si O2"
_cell_formula_units_Z 72
_cell_length_a 21.900802
_cell_length_b 21.900802
_cell_length_c 7.928047
_cell_angle_alpha 90.000000
_cell_angle_beta 90.000000
_cell_angle_gamma 90.000000
_cell_volume 3802.649120
_symmetry_space_group_name_H-M "I -4 2 M"
_symmetry_group_IT_number 121
_symmetry_cell_setting 'tetragonal'
loop_
_space_group_symop_operation_xyz
x,y,z
y,-x,-z
-x,-y,z
-y,x,-z
x,-y,-z
-x,y,-z
-y,-x,z
y,x,z
1/2+x,1/2+y,1/2+z
1/2+y,1/2-x,1/2-z
1/2-x,1/2-y,1/2+z
1/2-y,1/2+x,1/2-z
1/2+x,1/2-y,1/2-z
1/2-x,1/2+y,1/2-z
1/2-y,1/2-x,1/2+z
1/2+y,1/2+x,1/2+z
loop_
_atom_site_type_symbol
_atom_site_label
_atom_site_fract_x
_atom_site_fract_y
_atom_site_fract_z
Si Si1 0.541961 0.712270 0.654459
Si Si2 0.235042 0.000000 0.500000
Si Si3 0.727024 0.727024 0.035624
Si Si4 0.341684 0.065445 0.021916
Si Si5 0.388261 0.194164 0.154948
Si Si6 0.182202 0.182202 0.165160
O O1 0.500000 0.691736 0.500000
O O2 0.546327 0.786025 0.643277
O O3 0.611161 0.692625 0.642830
O O4 0.514111 0.696077 0.834329
O O5 0.276473 0.941868 0.455253
O O6 0.670417 0.761617 0.127557
O O7 0.778952 0.778952 0.031434
O O8 0.704565 0.704565 0.851473
O O9 0.311744 0.089504 0.847517
O O10 0.374788 0.124755 0.096107
O O11 0.376094 0.000000 0.000000
#
# Coordination Sequence:
#
# PCOD9560623 Si02
#       6
#    16   8   8  16  16   8
#     4  11  23  42  61  96 128 170 214 256 330 395
#     4  12  22  42  65  84 130 179 208 270 316 380
#     4  12  24  36  62 106 131 161 206 269 342 388
#     4  11  23  40  61  89 125 171 218 256 317 382
#     4  12  23  39  64  91 132 167 212 265 322 380
#     4  12  24  38  64  99 133 163 218 270 332 402
#
# _framework density 18.934166999999999
#
# number of rings (size 3 to 8) (size 9 to 14) (size 15 to 20)
#    0.000    0.444    8.889    2.667    0.000    0.000 
#    0.000    0.556    0.000    0.333    0.000    0.000 
#    0.000    0.444    0.000    0.000    0.000    0.000 
#
# Total GULP energy -200973.478490 kJ/mol
# GULP energy per Si atom -5582.596625 kJ/mol
# Density = 1.889107 g / cm^3
# Si number density = 18.934167 Si / 1000 Ang^3
#
#
#
# Elastic Constant Matrix: (Units=GPa)
#
#
# Indices 1 2 3 4 5 6 
#
# 1 108.9734 59.0881 32.1726 0.0000 0.0000 0.0000
# 2 59.0881 108.9734 32.1726 0.0000 0.0000 0.0000
# 3 32.1726 32.1726 119.2957 0.0000 0.0000 0.0000
# 4 0.0000 0.0000 0.0000 13.1242 0.0000 0.0000
# 5 0.0000 0.0000 0.0000 0.0000 13.1242 0.0000
# 6 0.0000 0.0000 0.0000 0.0000 0.0000 13.2559
#
#
#
# Elastic Compliance Matrix: (Units=1/GPa)
#
#
# Indices 1 2 3 4 5 6 
#
# 1 0.013341 -0.006705 -0.001789 0.000000 0.000000 0.000000
# 2 -0.006705 0.013341 -0.001789 0.000000 0.000000 0.000000
# 3 -0.001789 -0.001789 0.009348 0.000000 0.000000 0.000000
# 4 0.000000 0.000000 0.000000 0.076195 0.000000 0.000000
# 5 0.000000 0.000000 0.000000 0.000000 0.076195 0.000000
# 6 0.000000 0.000000 0.000000 0.000000 0.000000 0.075438
#
#
# Mechanical properties :
#
#
# Convention : Reuss Voigt Hill
#
# Bulk Modulus (GPa) = 64.68088 64.90100 64.79094
# Shear Modulus (GPa) = 17.26640 22.15479 19.71059
#
# Velocity S-wave (km/s) = 3.02307 3.42438 3.22996
# Velocity P-wave (km/s) = 6.81325 7.07013 6.94288
#
# Compressibility (1/GPa) = 0.01546052
#
# Stress axis : x y z
#
# Youngs Moduli (GPa) = 74.95883 74.95883 106.97783
#
# Poissons Ratio (x) = 0.50262 0.19143
# Poissons Ratio (y) = 0.50262 0.19143
# Poissons Ratio (z) = 0.13414 0.13414
#
# Static dielectric constant tensor:
#      x y z
#    x 1.687610 0.000000 0.000000 
#    y 0.000000 1.687610 0.000000 
#    z 0.000000 0.000000 1.718320 
# 
# From -- ./inp_files/1743.got.cif
#   From: 2010.05.17/outbox.cif.g08.bks.cpg/sg121_1_cif.got.tgz:1743.got - 2010.05.20 11:32:06.
