data_PCOD9560517
_publ_section_title
;
Structure prediction by ZEFSAII (Michael W. Deem and Ramdas Pophale) SiO2 
 PCOD9560517
Probable space group: I -4 2 M
;
_chemical_formula_sum "Si O2"
_cell_formula_units_Z 84
_cell_length_a 23.175578
_cell_length_b 23.175578
_cell_length_c 9.063612
_cell_angle_alpha 90.000000
_cell_angle_beta 90.000000
_cell_angle_gamma 90.000000
_cell_volume 4868.133218
_symmetry_space_group_name_H-M "I -4 2 M"
_symmetry_group_IT_number 121
_symmetry_cell_setting 'tetragonal'
loop_
_space_group_symop_operation_xyz
x,y,z
y,-x,-z
-x,-y,z
-y,x,-z
x,-y,-z
-x,y,-z
-y,-x,z
y,x,z
1/2+x,1/2+y,1/2+z
1/2+y,1/2-x,1/2-z
1/2-x,1/2-y,1/2+z
1/2-y,1/2+x,1/2-z
1/2+x,1/2-y,1/2-z
1/2-x,1/2+y,1/2-z
1/2-y,1/2-x,1/2+z
1/2+y,1/2+x,1/2+z
loop_
_atom_site_type_symbol
_atom_site_label
_atom_site_fract_x
_atom_site_fract_y
_atom_site_fract_z
Si Si1 0.960827 0.793046 0.622877
Si Si2 0.754405 0.341732 0.884678
Si Si3 0.000000 0.000000 0.000000
Si Si4 0.255001 0.841752 0.738019
Si Si5 0.289502 0.544995 0.384993
Si Si6 0.097701 0.097701 0.963198
Si Si7 0.910490 0.910490 0.616857
Si Si8 0.500000 0.500000 0.000000
O O1 0.906147 0.756180 0.673425
O O2 0.933641 0.850932 0.550260
O O3 0.000000 0.762847 0.500000
O O4 0.003258 0.810821 0.753760
O O5 0.697628 0.302373 0.857072
O O6 0.806440 0.307715 0.808997
O O7 0.761937 0.345838 0.061499
O O8 0.950150 0.049851 0.008733
O O9 0.197709 0.802292 0.764609
O O10 0.247576 0.903866 0.813391
O O11 0.261088 0.500000 0.500000
O O12 0.342929 0.575821 0.465715
O O13 0.102843 0.102843 0.787000
O O14 0.959213 0.959213 0.598128
#
# Coordination Sequence:
#
# PCOD9560517 Si02
#       8
#    16  16   2  16  16   8   8   2
#     4  12  23  38  58  82 115 153 198 245 291 340
#     4  10  22  39  60  83 111 149 195 249 299 353
#     4  12  18  36  44  66 104 150 204 244 274 302
#     4  10  22  39  60  83 112 149 198 247 300 350
#     4  12  24  37  58  82 116 158 197 248 288 343
#     4  12  23  36  51  75 111 155 208 246 278 323
#     4  12  23  36  51  77 108 158 207 244 282 331
#     4  12  26  36  52  74 108 162 210 252 296 326
#
# _framework density 17.255075000000001
#
# number of rings (size 3 to 8) (size 9 to 14) (size 15 to 20)
#    0.000    0.762    7.619    0.286    2.667    1.524 
#    0.000    0.000    0.000    0.000    0.000    0.000 
#    0.000    4.571    0.000    0.000    0.000    0.000 
#
# Total GULP energy -234342.708453 kJ/mol
# GULP energy per Si atom -5579.588297 kJ/mol
# Density = 1.721580 g / cm^3
# Si number density = 17.255075 Si / 1000 Ang^3
#
#
#
# Elastic Constant Matrix: (Units=GPa)
#
#
# Indices 1 2 3 4 5 6 
#
# 1 75.0590 38.5595 19.5063 0.0000 0.0000 0.0000
# 2 38.5595 75.0580 19.5061 0.0000 0.0000 0.0000
# 3 19.5063 19.5061 63.8366 0.0000 0.0000 0.0000
# 4 0.0000 0.0000 0.0000 19.2728 0.0000 0.0000
# 5 0.0000 0.0000 0.0000 0.0000 19.2680 0.0000
# 6 0.0000 0.0000 0.0000 0.0000 0.0000 30.1549
#
#
#
# Elastic Compliance Matrix: (Units=1/GPa)
#
#
# Indices 1 2 3 4 5 6 
#
# 1 0.018615 -0.008782 -0.003005 0.000000 0.000000 0.000000
# 2 -0.008782 0.018616 -0.003005 0.000000 0.000000 0.000000
# 3 -0.003005 -0.003005 0.017501 0.000000 0.000000 0.000000
# 4 0.000000 0.000000 0.000000 0.051886 0.000000 0.000000
# 5 0.000000 0.000000 0.000000 0.000000 0.051899 0.000000
# 6 0.000000 0.000000 0.000000 0.000000 0.000000 0.033162
#
#
# Mechanical properties :
#
#
# Convention : Reuss Voigt Hill
#
# Bulk Modulus (GPa) = 39.76325 41.01082 40.38703
# Shear Modulus (GPa) = 21.77255 22.83125 22.30190
#
# Velocity S-wave (km/s) = 3.55604 3.64148 3.59901
# Velocity P-wave (km/s) = 6.32100 6.44201 6.38179
#
# Compressibility (1/GPa) = 0.02514885
#
# Stress axis : x y z
#
# Youngs Moduli (GPa) = 53.71879 53.71808 57.13884
#
# Poissons Ratio (x) = 0.47178 0.17168
# Poissons Ratio (y) = 0.47178 0.17168
# Poissons Ratio (z) = 0.16141 0.16140
#
# Static dielectric constant tensor:
#      x y z
#    x 1.577230 0.000000 0.000000 
#    y 0.000000 1.577230 0.000000 
#    z 0.000000 0.000000 1.627870 
# 
# From -- ./inp_files/1912.got.cif
#   From: 2010.05.17/outbox.cif.g08.bks.cpg/sg121_1_cif.got.tgz:1912.got - 2010.05.20 11:32:06.
