data_PCOD9560901
_publ_section_title
;
Structure prediction by ZEFSAII (Michael W. Deem and Ramdas Pophale) SiO2 
 PCOD9560901
Probable space group: I -4 2 D
;
_chemical_formula_sum "Si O2"
_cell_formula_units_Z 88
_cell_length_a 17.435090
_cell_length_b 17.435090
_cell_length_c 11.411125
_cell_angle_alpha 90.000000
_cell_angle_beta 90.000000
_cell_angle_gamma 90.000000
_cell_volume 3468.780746
_symmetry_space_group_name_H-M "I -4 2 D"
_symmetry_group_IT_number 122
_symmetry_cell_setting 'tetragonal'
loop_
_space_group_symop_operation_xyz
x,y,z
y,-x,-z
-x,-y,z
-y,x,-z
x,1/2-y,1/4-z
-x,1/2+y,1/4-z
-y,1/2-x,1/4+z
y,1/2+x,1/4+z
1/2+x,1/2+y,1/2+z
1/2+y,1/2-x,1/2-z
1/2-x,1/2-y,1/2+z
1/2-y,1/2+x,1/2-z
1/2+x,-y,3/4-z
1/2-x,y,3/4-z
1/2-y,-x,3/4+z
1/2+y,x,3/4+z
loop_
_atom_site_type_symbol
_atom_site_label
_atom_site_fract_x
_atom_site_fract_y
_atom_site_fract_z
Si Si1 0.801457 0.884142 0.226154
Si Si2 0.500000 0.000000 0.750000
Si Si3 0.064656 0.206816 0.794116
Si Si4 0.421075 0.463005 0.262029
Si Si5 0.933659 0.785737 0.228334
Si Si6 0.000000 0.500000 0.750000
Si Si7 0.868067 0.368116 0.744587
O O1 0.863251 0.829427 0.166199
O O2 0.714967 0.863444 0.194034
O O3 0.832635 0.874564 0.360670
O O4 0.807637 0.973763 0.201693
O O5 0.564116 0.975823 0.846740
O O6 0.093530 0.126369 0.744849
O O7 0.087092 0.287943 0.737299
O O8 0.090066 0.223829 0.926769
O O9 0.500000 0.500000 0.205694
O O10 0.351702 0.513744 0.217996
O O11 0.982932 0.750000 0.125000
O O12 0.939284 0.424479 0.764760
#
# Coordination Sequence:
#
# PCOD9560901 Si02
#       7
#    16   4  16  16  16   4  16
#     4  10  21  45  61  91 134 171 207 268 332 390
#     4   8  16  32  66  84 120 160 214 284 304 382
#     4  11  22  41  65  93 132 168 219 270 327 391
#     4  10  20  38  63  90 118 170 217 267 324 383
#     4  11  24  40  63  94 127 173 218 274 327 389
#     4  12  20  40  74 104 124 174 228 264 324 414
#     4  10  23  39  67  97 133 168 210 272 332 393
#
# _framework density 25.369146000000001
#
# number of rings (size 3 to 8) (size 9 to 14) (size 15 to 20)
#    0.545    1.091    3.636    1.091    0.000    4.364 
#    9.818    0.000    0.000    0.000    0.000    0.000 
#    0.000    0.000    0.000    0.000    0.000    0.000 
#
# Total GULP energy -245401.107631 kJ/mol
# GULP energy per Si atom -5577.297901 kJ/mol
# Density = 2.531140 g / cm^3
# Si number density = 25.369146 Si / 1000 Ang^3
#
#
#
# Elastic Constant Matrix: (Units=GPa)
#
#
# Indices 1 2 3 4 5 6 
#
# 1 192.2722 54.9236 31.0302 0.0000 0.0000 0.0000
# 2 54.9236 192.2722 31.0302 0.0000 0.0000 0.0000
# 3 31.0302 31.0302 65.1059 0.0000 0.0000 0.0000
# 4 0.0000 0.0000 0.0000 33.8704 0.0000 0.0000
# 5 0.0000 0.0000 0.0000 0.0000 33.8704 0.0000
# 6 0.0000 0.0000 0.0000 0.0000 0.0000 40.1048
#
#
#
# Elastic Compliance Matrix: (Units=1/GPa)
#
#
# Indices 1 2 3 4 5 6 
#
# 1 0.005938 -0.001343 -0.002190 0.000000 0.000000 0.000000
# 2 -0.001343 0.005938 -0.002190 0.000000 0.000000 0.000000
# 3 -0.002190 -0.002190 0.017447 0.000000 0.000000 0.000000
# 4 0.000000 0.000000 0.000000 0.029524 0.000000 0.000000
# 5 0.000000 0.000000 0.000000 0.000000 0.029524 0.000000
# 6 0.000000 0.000000 0.000000 0.000000 0.000000 0.024935
#
#
# Mechanical properties :
#
#
# Convention : Reuss Voigt Hill
#
# Bulk Modulus (GPa) = 55.93721 75.95759 65.94740
# Shear Modulus (GPa) = 38.25213 43.74686 40.99950
#
# Velocity S-wave (km/s) = 3.88728 4.15711 4.02446
# Velocity P-wave (km/s) = 6.49962 7.28341 6.90265
#
# Compressibility (1/GPa) = 0.01787719
#
# Stress axis : x y z
#
# Youngs Moduli (GPa) = 168.40723 168.40723 57.31552
#
# Poissons Ratio (x) = 0.22613 0.12553
# Poissons Ratio (y) = 0.22613 0.12553
# Poissons Ratio (z) = 0.36883 0.36883
#
# Static dielectric constant tensor:
#      x y z
#    x 2.011840 0.000000 0.000000 
#    y 0.000000 2.011840 0.000000 
#    z 0.000000 0.000000 2.045330 
# 
# From -- ./inp_files/5423.got.cif
#   From: 2010.05.17/outbox.cif.g08.bks.cpg/sg122_3_cif.got.tgz:5423.got - 2010.05.20 11:37:33.
