data_PCOD9560436
_publ_section_title
;
Structure prediction by ZEFSAII (Michael W. Deem and Ramdas Pophale) SiO2 
 PCOD9560436
Probable space group: I -4 2 M
;
_chemical_formula_sum "Si O2"
_cell_formula_units_Z 96
_cell_length_a 20.292960
_cell_length_b 20.292960
_cell_length_c 12.368732
_cell_angle_alpha 90.000000
_cell_angle_beta 90.000000
_cell_angle_gamma 90.000000
_cell_volume 5093.496102
_symmetry_space_group_name_H-M "I -4 2 M"
_symmetry_group_IT_number 121
_symmetry_cell_setting 'tetragonal'
loop_
_space_group_symop_operation_xyz
x,y,z
y,-x,-z
-x,-y,z
-y,x,-z
x,-y,-z
-x,y,-z
-y,-x,z
y,x,z
1/2+x,1/2+y,1/2+z
1/2+y,1/2-x,1/2-z
1/2-x,1/2-y,1/2+z
1/2-y,1/2+x,1/2-z
1/2+x,1/2-y,1/2-z
1/2-x,1/2+y,1/2-z
1/2-y,1/2-x,1/2+z
1/2+y,1/2+x,1/2+z
loop_
_atom_site_type_symbol
_atom_site_label
_atom_site_fract_x
_atom_site_fract_y
_atom_site_fract_z
Si Si1 0.237160 0.134771 0.551941
Si Si2 0.184865 0.565332 0.554869
Si Si3 0.110963 0.000642 0.371816
Si Si4 0.101528 0.314244 0.346334
Si Si5 0.343150 0.240100 0.624281
Si Si6 0.750725 0.023018 0.272718
O O1 0.164429 0.164429 0.550017
O O2 0.259136 0.105799 0.438782
O O3 0.287139 0.193888 0.574183
O O4 0.248682 0.084420 0.647303
O O5 0.153745 0.500000 0.500000
O O6 0.132303 0.618408 0.604371
O O7 0.227957 0.597768 0.458813
O O8 0.233314 0.545330 0.652291
O O9 0.063949 0.936052 0.352694
O O10 0.175493 0.004720 0.295548
O O11 0.130811 0.000000 0.500000
O O12 0.063113 0.063113 0.356691
O O13 0.141419 0.288987 0.242113
O O14 0.026181 0.308417 0.307746
O O15 0.313131 0.313131 0.630877
#
# Coordination Sequence:
#
# PCOD9560436 Si02
#       6
#    16  16  16  16  16  16
#     4  10  21  36  59  93 121 148 198 257 318 375
#     4  11  24  44  62  88 128 171 212 263 324 393
#     4   9  19  36  58  89 129 167 206 257 316 383
#     4  11  22  39  64  89 126 162 207 265 314 372
#     4  10  21  38  62  92 123 159 201 259 320 375
#     4  12  22  37  64  91 121 164 207 257 317 383
#
# _framework density 18.847566
#
# number of rings (size 3 to 8) (size 9 to 14) (size 15 to 20)
#    0.000    1.500    3.333    3.000    0.000    4.667 
#    0.000    0.000    0.000   16.500    0.000    1.167 
#    0.000    0.000    0.000    0.000    0.000    0.000 
#
# Total GULP energy -267552.306392 kJ/mol
# GULP energy per Si atom -5574.006383 kJ/mol
# Density = 1.880467 g / cm^3
# Si number density = 18.847566 Si / 1000 Ang^3
#
#
#
# Elastic Constant Matrix: (Units=GPa)
#
#
# Indices 1 2 3 4 5 6 
#
# 1 88.7317 28.4221 24.2418 0.0000 0.0000 0.0000
# 2 28.4221 88.7322 24.2418 0.0000 0.0000 0.0000
# 3 24.2418 24.2418 97.2196 0.0000 0.0000 0.0000
# 4 0.0000 0.0000 0.0000 9.3489 0.0000 0.0000
# 5 0.0000 0.0000 0.0000 0.0000 9.3491 0.0000
# 6 0.0000 0.0000 0.0000 0.0000 0.0000 -11.5202
#
#
#
# Elastic Compliance Matrix: (Units=1/GPa)
#
#
# Indices 1 2 3 4 5 6 
#
# 1 0.013050 -0.003532 -0.002373 0.000000 0.000000 0.000000
# 2 -0.003532 0.013049 -0.002373 0.000000 0.000000 0.000000
# 3 -0.002373 -0.002373 0.011470 0.000000 0.000000 0.000000
# 4 0.000000 0.000000 0.000000 0.106964 0.000000 0.000000
# 5 0.000000 0.000000 0.000000 0.000000 0.106962 0.000000
# 6 0.000000 0.000000 0.000000 0.000000 0.000000 -0.086804
#
#
# Mechanical properties :
#
#
# Convention : Reuss Voigt Hill
#
# Bulk Modulus (GPa) = 47.59134 47.61055 47.60094
# Shear Modulus (GPa) = 26.56028 14.62076 20.59052
#
# Velocity S-wave (km/s) = 3.75802 2.78823 3.30885
# Velocity P-wave (km/s) = 6.64348 5.97338 6.31732
#
# Compressibility (1/GPa) = 0.02101223
#
# Stress axis : x y z
#
# Youngs Moduli (GPa) = 76.63111 76.63153 87.18731
#
# Poissons Ratio (x) = 0.27063 0.20692
# Poissons Ratio (y) = 0.27063 0.20692
# Poissons Ratio (z) = 0.18187 0.18187
#
# Static dielectric constant tensor:
#      x y z
#    x 1.689820 0.000000 0.000000 
#    y 0.000000 1.689820 0.000000 
#    z 0.000000 0.000000 1.650120 
# 
# From -- ./inp_files/3285.got.cif
#   From: 2010.05.17/outbox.cif.g08.bks.cpg/sg121_2_cif.got.tgz:3285.got - 2010.05.20 11:32:06.
