data_PCOD9560165
_publ_section_title
;
Structure prediction by ZEFSAII (Michael W. Deem and Ramdas Pophale) SiO2 
 PCOD9560165
Probable space group: I -4 2 M
;
_chemical_formula_sum "Si O2"
_cell_formula_units_Z 88
_cell_length_a 17.564183
_cell_length_b 17.564183
_cell_length_c 15.766921
_cell_angle_alpha 90.000000
_cell_angle_beta 90.000000
_cell_angle_gamma 90.000000
_cell_volume 4864.103398
_symmetry_space_group_name_H-M "I -4 2 M"
_symmetry_group_IT_number 121
_symmetry_cell_setting 'tetragonal'
loop_
_space_group_symop_operation_xyz
x,y,z
y,-x,-z
-x,-y,z
-y,x,-z
x,-y,-z
-x,y,-z
-y,-x,z
y,x,z
1/2+x,1/2+y,1/2+z
1/2+y,1/2-x,1/2-z
1/2-x,1/2-y,1/2+z
1/2-y,1/2+x,1/2-z
1/2+x,1/2-y,1/2-z
1/2-x,1/2+y,1/2-z
1/2-y,1/2-x,1/2+z
1/2+y,1/2+x,1/2+z
loop_
_atom_site_type_symbol
_atom_site_label
_atom_site_fract_x
_atom_site_fract_y
_atom_site_fract_z
Si Si1 0.798264 0.607882 0.885034
Si Si2 0.269823 0.504243 0.250504
Si Si3 0.253259 0.746742 0.230630
Si Si4 0.860421 0.139580 0.308558
Si Si5 0.199994 0.439751 0.421845
Si Si6 0.309760 0.690241 0.994029
Si Si7 0.352307 0.647694 0.331954
Si Si8 0.819714 0.819714 0.986129
O O1 0.782024 0.534011 0.828003
O O2 0.782648 0.678095 0.821267
O O3 0.882772 0.626722 0.919381
O O4 0.732668 0.621925 0.955336
O O5 0.330622 0.443700 0.215145
O O6 0.217387 0.476450 0.329573
O O7 0.320017 0.573143 0.287731
O O8 0.191944 0.808057 0.250073
O O9 0.288376 0.711625 0.314808
O O10 0.839492 0.160509 0.404909
O O11 0.194406 0.500000 0.500000
O O12 0.273035 0.385516 0.439353
O O13 0.244282 0.755719 0.991688
O O14 0.357874 0.642127 0.431973
#
# Coordination Sequence:
#
# PCOD9560165 Si02
#       8
#    16  16   8   8  16   8   8   8
#     4   9  20  37  56  91 123 153 207 263 304 354
#     4  11  23  37  60  90 129 162 200 253 312 375
#     4   9  16  33  58  82 112 153 211 245 283 358
#     4  12  21  35  62  91 113 163 212 247 301 381
#     4  11  20  34  61  94 121 161 204 260 310 375
#     4   9  20  36  62  86 111 155 218 272 283 330
#     4  10  19  35  55  87 126 165 182 241 325 352
#     4  10  18  33  59  94 120 146 207 261 296 361
#
# _framework density 18.091721
#
# number of rings (size 3 to 8) (size 9 to 14) (size 15 to 20)
#    0.000    1.818    4.545    1.636    0.000    1.091 
#    0.000    0.000    0.000    1.909    4.727    0.000 
#    0.000    0.000    0.000    0.000    0.000    0.000 
#
# Total GULP energy -245060.612187 kJ/mol
# GULP energy per Si atom -5569.559368 kJ/mol
# Density = 1.805054 g / cm^3
# Si number density = 18.091721 Si / 1000 Ang^3
#
#
#
# Elastic Constant Matrix: (Units=GPa)
#
#
# Indices 1 2 3 4 5 6 
#
# 1 -145.4412 252.7439 32.7198 0.0000 0.0000 0.0000
# 2 252.7439 -145.3821 32.7225 0.0000 0.0000 0.0000
# 3 32.7198 32.7225 109.9303 0.0000 0.0000 0.0000
# 4 0.0000 0.0000 0.0000 -80.3118 0.0000 0.0000
# 5 0.0000 0.0000 0.0000 0.0000 -80.2529 0.0000
# 6 0.0000 0.0000 0.0000 0.0000 0.0000 24.1131
#
#
#
# Elastic Compliance Matrix: (Units=1/GPa)
#
#
# Indices 1 2 3 4 5 6 
#
# 1 0.004435 0.006947 -0.003388 0.000000 0.000000 0.000000
# 2 0.006947 0.004436 -0.003388 0.000000 0.000000 0.000000
# 3 -0.003388 -0.003388 0.011114 0.000000 0.000000 0.000000
# 4 0.000000 0.000000 0.000000 -0.012451 0.000000 0.000000
# 5 0.000000 0.000000 0.000000 0.000000 -0.012461 0.000000
# 6 0.000000 0.000000 0.000000 0.000000 0.000000 0.041471
#
#
# Mechanical properties :
#
#
# Convention : Reuss Voigt Hill
#
# Bulk Modulus (GPa) = 49.19670 50.60882 49.90276
# Shear Modulus (GPa) = 116.34010 -60.56226 27.88892
#
# Velocity S-wave (km/s) = 8.02778 -5.79205 3.93049
# Velocity P-wave (km/s) = 10.63856 4.08610 6.94560
#
# Compressibility (1/GPa) = 0.02032656
#
# Stress axis : x y z
#
# Youngs Moduli (GPa) = 225.49423 225.41063 89.97969
#
# Poissons Ratio (x) = -1.56595 0.30484
# Poissons Ratio (y) = -1.56653 0.30488
# Poissons Ratio (z) = 0.76394 0.76376
#
# Static dielectric constant tensor:
#      x y z
#    x 1.633720 0.000000 0.000000 
#    y 0.000000 1.633700 0.000000 
#    z 0.000000 0.000000 1.666570 
# 
# From -- ./inp_files/4434.got.cif
#   From: 2010.05.17/outbox.cif.g08.bks.cpg/sg121_3_cif.got.tgz:4434.got - 2010.05.20 11:32:06.
