data_PCOD9560214
_publ_section_title
;
Structure prediction by ZEFSAII (Michael W. Deem and Ramdas Pophale) SiO2 
 PCOD9560214
Probable space group: I -4 2 M
;
_chemical_formula_sum "Si O2"
_cell_formula_units_Z 80
_cell_length_a 13.615622
_cell_length_b 13.615622
_cell_length_c 26.001318
_cell_angle_alpha 90.000000
_cell_angle_beta 90.000000
_cell_angle_gamma 90.000000
_cell_volume 4820.258561
_symmetry_space_group_name_H-M "I -4 2 M"
_symmetry_group_IT_number 121
_symmetry_cell_setting 'tetragonal'
loop_
_space_group_symop_operation_xyz
x,y,z
y,-x,-z
-x,-y,z
-y,x,-z
x,-y,-z
-x,y,-z
-y,-x,z
y,x,z
1/2+x,1/2+y,1/2+z
1/2+y,1/2-x,1/2-z
1/2-x,1/2-y,1/2+z
1/2-y,1/2+x,1/2-z
1/2+x,1/2-y,1/2-z
1/2-x,1/2+y,1/2-z
1/2-y,1/2-x,1/2+z
1/2+y,1/2+x,1/2+z
loop_
_atom_site_type_symbol
_atom_site_label
_atom_site_fract_x
_atom_site_fract_y
_atom_site_fract_z
Si Si1 0.706759 0.128346 0.870748
Si Si2 0.078637 0.241993 0.704264
Si Si3 0.610136 0.026639 0.440014
Si Si4 0.739526 0.897256 0.366798
Si Si5 0.740778 0.418649 0.673846
O O1 0.795204 0.204797 0.876677
O O2 0.636354 0.170207 0.825014
O O3 0.638611 0.125378 0.921618
O O4 0.746512 0.021835 0.854738
O O5 0.145686 0.145686 0.695823
O O6 0.069365 0.257000 0.765068
O O7 0.973042 0.232216 0.678113
O O8 0.500000 0.000000 0.421451
O O9 0.614181 0.000000 0.500000
O O10 0.691056 0.961269 0.411534
O O11 0.832546 0.832546 0.382846
O O12 0.656622 0.822776 0.346552
O O13 0.636106 0.363895 0.666347
#
# Coordination Sequence:
#
# PCOD9560214 Si02
#       5
#    16  16  16  16  16
#     4  10  20  35  53  79 110 141 178 224 269 316
#     4   9  19  32  50  76 109 147 185 221 261 312
#     4  10  20  37  59  79 100 131 175 222 270 317
#     4  10  20  34  53  78 108 139 175 220 267 316
#     4  10  19  32  50  77 110 148 185 216 260 316
#
# _framework density 16.596619
#
# number of rings (size 3 to 8) (size 9 to 14) (size 15 to 20)
#    0.000    2.200    2.000    1.200    0.000    4.000 
#    0.000    4.000    0.000    0.000    0.000    2.800 
#    0.000    0.000    0.000    0.000    0.000    0.000 
#
# Total GULP energy -223033.751928 kJ/mol
# GULP energy per Si atom -5575.843798 kJ/mol
# Density = 1.655884 g / cm^3
# Si number density = 16.596619 Si / 1000 Ang^3
#
#
#
# Elastic Constant Matrix: (Units=GPa)
#
#
# Indices 1 2 3 4 5 6 
#
# 1 98.1710 50.5519 36.2667 0.0000 0.0000 0.0000
# 2 50.5519 98.1700 36.2666 0.0000 0.0000 0.0000
# 3 36.2667 36.2666 72.0410 0.0000 0.0000 0.0000
# 4 0.0000 0.0000 0.0000 19.9214 0.0000 0.0000
# 5 0.0000 0.0000 0.0000 0.0000 19.9216 0.0000
# 6 0.0000 0.0000 0.0000 0.0000 0.0000 16.7252
#
#
#
# Elastic Compliance Matrix: (Units=1/GPa)
#
#
# Indices 1 2 3 4 5 6 
#
# 1 0.014956 -0.006044 -0.004486 0.000000 0.000000 0.000000
# 2 -0.006044 0.014956 -0.004487 0.000000 0.000000 0.000000
# 3 -0.004486 -0.004487 0.018398 0.000000 0.000000 0.000000
# 4 0.000000 0.000000 0.000000 0.050197 0.000000 0.000000
# 5 0.000000 0.000000 0.000000 0.000000 0.050197 0.000000
# 6 0.000000 0.000000 0.000000 0.000000 0.000000 0.059790
#
#
# Mechanical properties :
#
#
# Convention : Reuss Voigt Hill
#
# Bulk Modulus (GPa) = 54.71565 57.17249 55.94407
# Shear Modulus (GPa) = 20.43980 21.00008 20.71994
#
# Velocity S-wave (km/s) = 3.51317 3.56100 3.53717
# Velocity P-wave (km/s) = 7.03534 7.17152 7.10376
#
# Compressibility (1/GPa) = 0.01827631
#
# Stress axis : x y z
#
# Youngs Moduli (GPa) = 66.86266 66.86187 54.35337
#
# Poissons Ratio (x) = 0.40412 0.24385
# Poissons Ratio (y) = 0.40412 0.24386
# Poissons Ratio (z) = 0.29998 0.29998
#
# Static dielectric constant tensor:
#      x y z
#    x 1.552880 0.000000 0.000000 
#    y 0.000000 1.552890 0.000000 
#    z 0.000000 0.000000 1.563130 
# 
# From -- ./inp_files/8045.got.cif
#   From: 2010.05.17/outbox.cif.g08.bks.cpg/sg121_5_cif.got.tgz:8045.got - 2010.05.20 11:32:06.
