data_PCOD9560673
_publ_section_title
;
Structure prediction by ZEFSAII (Michael W. Deem and Ramdas Pophale) SiO2 
 PCOD9560673
Probable space group: I -4 2 M
;
_chemical_formula_sum "Si O2"
_cell_formula_units_Z 56
_cell_length_a 10.632717
_cell_length_b 10.632717
_cell_length_c 23.208695
_cell_angle_alpha 90.000000
_cell_angle_beta 90.000000
_cell_angle_gamma 90.000000
_cell_volume 2623.851373
_symmetry_space_group_name_H-M "I -4 2 M"
_symmetry_group_IT_number 121
_symmetry_cell_setting 'tetragonal'
loop_
_space_group_symop_operation_xyz
x,y,z
y,-x,-z
-x,-y,z
-y,x,-z
x,-y,-z
-x,y,-z
-y,-x,z
y,x,z
1/2+x,1/2+y,1/2+z
1/2+y,1/2-x,1/2-z
1/2-x,1/2-y,1/2+z
1/2-y,1/2+x,1/2-z
1/2+x,1/2-y,1/2-z
1/2-x,1/2+y,1/2-z
1/2-y,1/2-x,1/2+z
1/2+y,1/2+x,1/2+z
loop_
_atom_site_type_symbol
_atom_site_label
_atom_site_fract_x
_atom_site_fract_y
_atom_site_fract_z
Si Si1 0.601054 0.185438 0.114468
Si Si2 0.196967 0.006385 0.141477
Si Si3 0.712505 0.500000 0.000000
Si Si4 0.003081 0.705729 0.737643
O O1 0.716421 0.283580 0.112250
O O2 0.666065 0.048047 0.123569
O O3 0.522071 0.229282 0.170384
O O4 0.524913 0.203513 0.056126
O O5 0.094800 0.905201 0.119768
O O6 0.195409 0.999676 0.211173
O O7 0.143452 0.143452 0.124238
O O8 0.619396 0.380605 0.991537
O O9 0.122550 0.620486 0.754557
#
# Coordination Sequence:
#
# PCOD9560673 Si02
#       4
#    16  16   8  16
#     4   9  17  30  49  75 108 141 174 216 264 318
#     4   9  17  29  47  73 105 141 180 222 268 318
#     4   9  18  32  50  75 110 150 188 226 270 322
#     4   9  17  29  47  73 104 135 171 216 267 320
#
# _framework density 21.342670999999999
#
# number of rings (size 3 to 8) (size 9 to 14) (size 15 to 20)
#    0.000    3.000    0.000    0.857    0.000    2.286 
#    0.000    2.857    0.000   13.714    0.000    6.000 
#    0.000   18.286    0.000    3.143    0.000    2.286 
#
# Total GULP energy -155946.301973 kJ/mol
# GULP energy per Si atom -5569.510785 kJ/mol
# Density = 2.129409 g / cm^3
# Si number density = 21.342671 Si / 1000 Ang^3
#
#
#
# Elastic Constant Matrix: (Units=GPa)
#
#
# Indices 1 2 3 4 5 6 
#
# 1 45.5700 20.5242 38.3000 0.0000 0.0000 0.0000
# 2 20.5242 45.5708 38.3004 0.0000 0.0000 0.0000
# 3 38.3000 38.3004 161.3361 0.0000 0.0000 0.0000
# 4 0.0000 0.0000 0.0000 23.6681 0.0000 0.0000
# 5 0.0000 0.0000 0.0000 0.0000 23.6678 0.0000
# 6 0.0000 0.0000 0.0000 0.0000 0.0000 73.0953
#
#
#
# Elastic Compliance Matrix: (Units=1/GPa)
#
#
# Indices 1 2 3 4 5 6 
#
# 1 0.030400 -0.009527 -0.004955 0.000000 0.000000 0.000000
# 2 -0.009527 0.030399 -0.004955 0.000000 0.000000 0.000000
# 3 -0.004955 -0.004955 0.008551 0.000000 0.000000 0.000000
# 4 0.000000 0.000000 0.000000 0.042251 0.000000 0.000000
# 5 0.000000 0.000000 0.000000 0.000000 0.042252 0.000000
# 6 0.000000 0.000000 0.000000 0.000000 0.000000 0.013681
#
#
# Mechanical properties :
#
#
# Convention : Reuss Voigt Hill
#
# Bulk Modulus (GPa) = 32.81305 49.63622 41.22463
# Shear Modulus (GPa) = 23.08775 34.44306 28.76540
#
# Velocity S-wave (km/s) = 3.29259 4.02159 3.67521
# Velocity P-wave (km/s) = 5.46467 6.69862 6.11286
#
# Compressibility (1/GPa) = 0.03047568
#
# Stress axis : x y z
#
# Youngs Moduli (GPa) = 32.89514 32.89574 116.94811
#
# Poissons Ratio (x) = 0.31340 0.57948
# Poissons Ratio (y) = 0.31339 0.57947
# Poissons Ratio (z) = 0.16300 0.16300
#
# Static dielectric constant tensor:
#      x y z
#    x 1.834380 0.000000 0.000000 
#    y 0.000000 1.834380 0.000000 
#    z 0.000000 0.000000 1.756910 
# 
# From -- ./inp_files/5897.got.cif
#   From: 2010.05.17/outbox.cif.g08.bks.cpg/sg121_3_cif.got.tgz:5897.got - 2010.05.20 11:32:06.
