data_PCOD9560585
_publ_section_title
;
Structure prediction by ZEFSAII (Michael W. Deem and Ramdas Pophale) SiO2 
 PCOD9560585
Probable space group: I -4 2 M
;
_chemical_formula_sum "Si O2"
_cell_formula_units_Z 96
_cell_length_a 18.041123
_cell_length_b 18.041123
_cell_length_c 18.041117
_cell_angle_alpha 90.000000
_cell_angle_beta 90.000000
_cell_angle_gamma 90.000000
_cell_volume 5872.060992
_symmetry_space_group_name_H-M "I -4 2 M"
_symmetry_group_IT_number 121
_symmetry_cell_setting 'tetragonal'
loop_
_space_group_symop_operation_xyz
x,y,z
y,-x,-z
-x,-y,z
-y,x,-z
x,-y,-z
-x,y,-z
-y,-x,z
y,x,z
1/2+x,1/2+y,1/2+z
1/2+y,1/2-x,1/2-z
1/2-x,1/2-y,1/2+z
1/2-y,1/2+x,1/2-z
1/2+x,1/2-y,1/2-z
1/2-x,1/2+y,1/2-z
1/2-y,1/2-x,1/2+z
1/2+y,1/2+x,1/2+z
loop_
_atom_site_type_symbol
_atom_site_label
_atom_site_fract_x
_atom_site_fract_y
_atom_site_fract_z
Si Si1 0.653757 0.104170 0.275119
Si Si2 0.851449 0.415228 0.528937
Si Si3 0.415228 0.028938 0.351449
Si Si4 0.148554 0.971060 0.915229
Si Si5 0.224880 0.653759 0.395830
Si Si6 0.224881 0.895831 0.153757
O O1 0.588190 0.095236 0.214829
O O2 0.649132 0.181448 0.318551
O O3 0.729962 0.097003 0.229962
O O4 0.638606 0.038854 0.333565
O O5 0.851229 0.500000 0.500000
O O6 0.927452 0.401589 0.572548
O O7 0.833566 0.361393 0.461145
O O8 0.785170 0.404764 0.588190
O O9 0.500000 0.000000 0.351230
O O10 0.072550 0.927451 0.901592
O O11 0.214831 0.911807 0.904764
O O12 0.166436 0.038852 0.861393
O O13 0.148775 0.000000 0.000000
O O14 0.270035 0.729966 0.402996
O O15 0.181447 0.818554 0.149132
#
# Coordination Sequence:
#
# PCOD9560585 Si02
#       6
#    16  16  16  16  16  16
#     4  11  21  35  52  74 104 140 175 212 254 303
#     4  11  21  33  53  78 105 135 169 210 258 309
#     4  11  21  33  53  78 105 135 169 210 258 309
#     4  11  21  33  53  78 105 135 169 210 258 309
#     4  11  21  35  52  74 104 140 175 212 254 303
#     4  11  21  35  52  74 104 140 175 212 254 303
#
# _framework density 16.348603000000001
#
# number of rings (size 3 to 8) (size 9 to 14) (size 15 to 20)
#    0.000    1.000    5.000    3.500    0.000    3.500 
#    0.000    0.000    0.000    1.000    0.000    0.000 
#    0.000    0.000    0.000    0.000    0.000    1.000 
#
# Total GULP energy -268108.348173 kJ/mol
# GULP energy per Si atom -5585.590587 kJ/mol
# Density = 1.631139 g / cm^3
# Si number density = 16.348603 Si / 1000 Ang^3
#
#
#
# Elastic Constant Matrix: (Units=GPa)
#
#
# Indices 1 2 3 4 5 6 
#
# 1 69.3495 41.3709 41.3708 0.0000 0.0000 0.0000
# 2 41.3709 69.3515 41.3712 0.0000 0.0000 0.0000
# 3 41.3708 41.3712 69.3441 0.0000 0.0000 0.0000
# 4 0.0000 0.0000 0.0000 15.1657 0.0000 0.0000
# 5 0.0000 0.0000 0.0000 0.0000 15.1643 0.0000
# 6 0.0000 0.0000 0.0000 0.0000 0.0000 15.1645
#
#
#
# Elastic Compliance Matrix: (Units=1/GPa)
#
#
# Indices 1 2 3 4 5 6 
#
# 1 0.026020 -0.009721 -0.009724 0.000000 0.000000 0.000000
# 2 -0.009721 0.026019 -0.009723 0.000000 0.000000 0.000000
# 3 -0.009724 -0.009723 0.026023 0.000000 0.000000 0.000000
# 4 0.000000 0.000000 0.000000 0.065938 0.000000 0.000000
# 5 0.000000 0.000000 0.000000 0.000000 0.065944 0.000000
# 6 0.000000 0.000000 0.000000 0.000000 0.000000 0.065943
#
#
# Mechanical properties :
#
#
# Convention : Reuss Voigt Hill
#
# Bulk Modulus (GPa) = 50.69676 50.69676 50.69676
# Shear Modulus (GPa) = 14.67144 14.69440 14.68292
#
# Velocity S-wave (km/s) = 2.99893 3.00128 3.00011
# Velocity P-wave (km/s) = 6.56267 6.56410 6.56338
#
# Compressibility (1/GPa) = 0.01972513
#
# Stress axis : x y z
#
# Youngs Moduli (GPa) = 38.43259 38.43391 38.42758
#
# Poissons Ratio (x) = 0.37362 0.37366
# Poissons Ratio (y) = 0.37361 0.37364
# Poissons Ratio (z) = 0.37370 0.37370
#
# Static dielectric constant tensor:
#      x y z
#    x 1.553570 0.000000 0.000000 
#    y 0.000000 1.553570 0.000000 
#    z 0.000000 0.000000 1.553570 
# 
# From -- ./inp_files/5380.got.cif
#   From: 2010.05.17/outbox.cif.g08.bks.cpg/sg121_3_cif.got.tgz:5380.got - 2010.05.20 11:32:06.
