data_PCOD9560306
_publ_section_title
;
Structure prediction by ZEFSAII (Michael W. Deem and Ramdas Pophale) SiO2 
 PCOD9560306
Probable space group: I -4 2 M
;
_chemical_formula_sum "Si O2"
_cell_formula_units_Z 96
_cell_length_a 17.732912
_cell_length_b 17.732912
_cell_length_c 17.152751
_cell_angle_alpha 90.000000
_cell_angle_beta 90.000000
_cell_angle_gamma 90.000000
_cell_volume 5393.788350
_symmetry_space_group_name_H-M "I -4 2 M"
_symmetry_group_IT_number 121
_symmetry_cell_setting 'tetragonal'
loop_
_space_group_symop_operation_xyz
x,y,z
y,-x,-z
-x,-y,z
-y,x,-z
x,-y,-z
-x,y,-z
-y,-x,z
y,x,z
1/2+x,1/2+y,1/2+z
1/2+y,1/2-x,1/2-z
1/2-x,1/2-y,1/2+z
1/2-y,1/2+x,1/2-z
1/2+x,1/2-y,1/2-z
1/2-x,1/2+y,1/2-z
1/2-y,1/2-x,1/2+z
1/2+y,1/2+x,1/2+z
loop_
_atom_site_type_symbol
_atom_site_label
_atom_site_fract_x
_atom_site_fract_y
_atom_site_fract_z
Si Si1 0.030542 0.583603 0.418711
Si Si2 0.112459 0.764445 0.290745
Si Si3 0.288734 0.589338 0.494918
Si Si4 0.329849 0.203469 0.371776
Si Si5 0.118611 0.313943 0.140111
Si Si6 0.699187 0.957327 0.308835
O O1 0.120051 0.583076 0.412323
O O2 0.000000 0.500000 0.416097
O O3 0.000000 0.618404 0.500000
O O4 0.001033 0.626823 0.342522
O O5 0.155957 0.844044 0.293725
O O6 0.122421 0.729089 0.204182
O O7 0.159235 0.704172 0.342991
O O8 0.023776 0.761902 0.312122
O O9 0.297768 0.500000 0.500000
O O10 0.364305 0.635696 0.515183
O O11 0.224261 0.619729 0.554003
O O12 0.261753 0.388209 0.591338
O O13 0.257491 0.257491 0.374038
O O14 0.300392 0.118395 0.361161
O O15 0.073711 0.308271 0.221282
#
# Coordination Sequence:
#
# PCOD9560306 Si02
#       6
#    16  16  16  16  16  16
#     4  10  22  31  47  77 112 146 170 221 271 333
#     4   9  18  34  52  74 103 140 183 224 274 336
#     4  11  23  37  57  79 107 146 189 234 278 329
#     4   9  19  35  54  76 105 143 185 227 279 338
#     4  10  21  32  52  76 105 143 185 224 272 334
#     4  10  20  33  53  78 106 144 182 229 274 329
#
# _framework density 17.798252000000002
#
# number of rings (size 3 to 8) (size 9 to 14) (size 15 to 20)
#    0.000    2.167    0.000    2.500   11.667    0.833 
#    0.000    0.000    0.000    0.500    0.000    0.000 
#    0.000    0.000    0.000    8.000    0.000    0.000 
#
# Total GULP energy -267509.443471 kJ/mol
# GULP energy per Si atom -5573.113406 kJ/mol
# Density = 1.775774 g / cm^3
# Si number density = 17.798252 Si / 1000 Ang^3
#
#
#
# Elastic Constant Matrix: (Units=GPa)
#
#
# Indices 1 2 3 4 5 6 
#
# 1 99.9691 47.4315 28.9268 0.0000 0.0000 0.0000
# 2 47.4315 99.9689 28.9275 0.0000 0.0000 0.0000
# 3 28.9268 28.9275 73.1719 0.0000 0.0000 0.0000
# 4 0.0000 0.0000 0.0000 18.4751 0.0000 0.0000
# 5 0.0000 0.0000 0.0000 0.0000 18.4749 0.0000
# 6 0.0000 0.0000 0.0000 0.0000 0.0000 20.3263
#
#
#
# Elastic Compliance Matrix: (Units=1/GPa)
#
#
# Indices 1 2 3 4 5 6 
#
# 1 0.013532 -0.005502 -0.003175 0.000000 0.000000 0.000000
# 2 -0.005502 0.013532 -0.003175 0.000000 0.000000 0.000000
# 3 -0.003175 -0.003175 0.016176 0.000000 0.000000 0.000000
# 4 0.000000 0.000000 0.000000 0.054127 0.000000 0.000000
# 5 0.000000 0.000000 0.000000 0.000000 0.054127 0.000000
# 6 0.000000 0.000000 0.000000 0.000000 0.000000 0.049197
#
#
# Mechanical properties :
#
#
# Convention : Reuss Voigt Hill
#
# Bulk Modulus (GPa) = 51.18083 53.74239 52.46161
# Shear Modulus (GPa) = 21.65368 22.64354 22.14861
#
# Velocity S-wave (km/s) = 3.49179 3.57071 3.53147
# Velocity P-wave (km/s) = 6.71382 6.87465 6.79471
#
# Compressibility (1/GPa) = 0.01953856
#
# Stress axis : x y z
#
# Youngs Moduli (GPa) = 73.89846 73.89785 61.81810
#
# Poissons Ratio (x) = 0.40658 0.19624
# Poissons Ratio (y) = 0.40658 0.19626
# Poissons Ratio (z) = 0.23459 0.23461
#
# Static dielectric constant tensor:
#      x y z
#    x 1.623010 0.000000 0.000000 
#    y 0.000000 1.623010 0.000000 
#    z 0.000000 0.000000 1.648080 
# 
# From -- ./inp_files/5398.got.cif
#   From: 2010.05.17/outbox.cif.g08.bks.cpg/sg121_3_cif.got.tgz:5398.got - 2010.05.20 11:32:06.
