data_PCOD9560506
_publ_section_title
;
Structure prediction by ZEFSAII (Michael W. Deem and Ramdas Pophale) SiO2 
 PCOD9560506
Probable space group: I -4 2 M
;
_chemical_formula_sum "Si O2"
_cell_formula_units_Z 104
_cell_length_a 26.478007
_cell_length_b 26.478007
_cell_length_c 8.413375
_cell_angle_alpha 90.000000
_cell_angle_beta 90.000000
_cell_angle_gamma 90.000000
_cell_volume 5898.489789
_symmetry_space_group_name_H-M "I -4 2 M"
_symmetry_group_IT_number 121
_symmetry_cell_setting 'tetragonal'
loop_
_space_group_symop_operation_xyz
x,y,z
y,-x,-z
-x,-y,z
-y,x,-z
x,-y,-z
-x,y,-z
-y,-x,z
y,x,z
1/2+x,1/2+y,1/2+z
1/2+y,1/2-x,1/2-z
1/2-x,1/2-y,1/2+z
1/2-y,1/2+x,1/2-z
1/2+x,1/2-y,1/2-z
1/2-x,1/2+y,1/2-z
1/2-y,1/2-x,1/2+z
1/2+y,1/2+x,1/2+z
loop_
_atom_site_type_symbol
_atom_site_label
_atom_site_fract_x
_atom_site_fract_y
_atom_site_fract_z
Si Si1 0.860879 0.477850 0.825683
Si Si2 0.500000 0.747466 0.500000
Si Si3 0.154579 0.235912 0.550531
Si Si4 0.412024 0.047048 0.083350
Si Si5 0.403618 0.180841 0.529040
Si Si6 0.038416 0.753961 0.346074
Si Si7 0.685066 0.821613 0.287825
O O1 0.911982 0.446392 0.839015
O O2 0.873363 0.522512 0.706584
O O3 0.805653 0.455204 0.801264
O O4 0.855953 0.500000 0.000000
O O5 0.550635 0.779757 0.541045
O O6 0.483727 0.723940 0.676043
O O7 0.182561 0.182561 0.552648
O O8 0.095371 0.231175 0.599385
O O9 0.163865 0.264031 0.381825
O O10 0.184168 0.274364 0.668825
O O11 0.372711 0.074664 0.967937
O O12 0.438968 0.000000 0.000000
O O13 0.358568 0.194086 0.410589
O O14 0.372670 0.171475 0.691747
O O15 0.000000 0.759627 0.500000
#
# Coordination Sequence:
#
# PCOD9560506 Si02
#       7
#    16   8  16  16  16  16  16
#     4  11  24  35  49  65  94 132 181 233 293 336
#     4  12  20  36  56  84 103 140 194 243 282 346
#     4  11  22  38  59  86 118 152 192 242 301 358
#     4  12  24  34  48  64  92 129 183 242 293 346
#     4  11  21  34  55  77  98 140 191 244 290 350
#     4  11  23  41  61  84 112 150 195 241 289 355
#     4  10  22  36  58  79 112 147 189 241 301 360
#
# _framework density 17.631630999999999
#
# number of rings (size 3 to 8) (size 9 to 14) (size 15 to 20)
#    0.000    0.923    3.846    4.154    6.462    1.846 
#    0.000    0.000    0.000    0.000    0.000    0.000 
#    0.000    0.308    0.000    0.000    0.000    0.000 
#
# Total GULP energy -289647.014282 kJ/mol
# GULP energy per Si atom -5570.134890 kJ/mol
# Density = 1.759150 g / cm^3
# Si number density = 17.631631 Si / 1000 Ang^3
#
#
#
# Elastic Constant Matrix: (Units=GPa)
#
#
# Indices 1 2 3 4 5 6 
#
# 1 67.8786 34.2613 15.6912 0.0000 0.0000 0.0000
# 2 34.2613 67.8786 15.6912 0.0000 0.0000 0.0000
# 3 15.6912 15.6912 72.0075 0.0000 0.0000 0.0000
# 4 0.0000 0.0000 0.0000 10.8371 0.0000 0.0000
# 5 0.0000 0.0000 0.0000 0.0000 10.8371 0.0000
# 6 0.0000 0.0000 0.0000 0.0000 0.0000 35.2088
#
#
#
# Elastic Compliance Matrix: (Units=1/GPa)
#
#
# Indices 1 2 3 4 5 6 
#
# 1 0.020120 -0.009627 -0.002287 0.000000 0.000000 0.000000
# 2 -0.009627 0.020120 -0.002287 0.000000 0.000000 0.000000
# 3 -0.002287 -0.002287 0.014884 0.000000 0.000000 0.000000
# 4 0.000000 0.000000 0.000000 0.092276 0.000000 0.000000
# 5 0.000000 0.000000 0.000000 0.000000 0.092276 0.000000
# 6 0.000000 0.000000 0.000000 0.000000 0.000000 0.028402
#
#
# Mechanical properties :
#
#
# Convention : Reuss Voigt Hill
#
# Bulk Modulus (GPa) = 37.41972 37.67243 37.54608
# Shear Modulus (GPa) = 16.37277 20.85132 18.61205
#
# Velocity S-wave (km/s) = 3.05060 3.44264 3.25253
# Velocity P-wave (km/s) = 5.80322 6.10042 5.95368
#
# Compressibility (1/GPa) = 0.02672388
#
# Stress axis : x y z
#
# Youngs Moduli (GPa) = 49.70224 49.70224 67.18639
#
# Poissons Ratio (x) = 0.47847 0.15362
# Poissons Ratio (y) = 0.47847 0.15362
# Poissons Ratio (z) = 0.11365 0.11365
#
# Static dielectric constant tensor:
#      x y z
#    x 1.625250 0.000000 0.000000 
#    y 0.000000 1.625250 0.000000 
#    z 0.000000 0.000000 1.764280 
# 
# From -- ./inp_files/2142.got.cif
#   From: 2010.05.17/outbox.cif.g08.bks.cpg/sg121_2_cif.got.tgz:2142.got - 2010.05.20 11:32:06.
