data_PCOD9560812
_publ_section_title
;
Structure prediction by ZEFSAII (Michael W. Deem and Ramdas Pophale) SiO2 
 PCOD9560812
Probable space group: I -4 2 D
;
_chemical_formula_sum "Si O2"
_cell_formula_units_Z 64
_cell_length_a 9.928487
_cell_length_b 9.928487
_cell_length_c 24.981792
_cell_angle_alpha 90.000000
_cell_angle_beta 90.000000
_cell_angle_gamma 90.000000
_cell_volume 2462.576502
_symmetry_space_group_name_H-M "I -4 2 D"
_symmetry_group_IT_number 122
_symmetry_cell_setting 'tetragonal'
loop_
_space_group_symop_operation_xyz
x,y,z
y,-x,-z
-x,-y,z
-y,x,-z
x,1/2-y,1/4-z
-x,1/2+y,1/4-z
-y,1/2-x,1/4+z
y,1/2+x,1/4+z
1/2+x,1/2+y,1/2+z
1/2+y,1/2-x,1/2-z
1/2-x,1/2-y,1/2+z
1/2-y,1/2+x,1/2-z
1/2+x,-y,3/4-z
1/2-x,y,3/4-z
1/2-y,-x,3/4+z
1/2+y,x,3/4+z
loop_
_atom_site_type_symbol
_atom_site_label
_atom_site_fract_x
_atom_site_fract_y
_atom_site_fract_z
Si Si1 0.520751 0.840536 0.960567
Si Si2 0.610614 0.193363 0.682867
Si Si3 0.982491 0.661943 0.575929
Si Si4 0.089061 0.689892 0.340340
O O1 0.459157 0.799328 0.902986
O O2 0.500000 0.000000 0.959287
O O3 0.682721 0.836936 0.966579
O O4 0.465687 0.790762 0.017688
O O5 0.647821 0.250000 0.625000
O O6 0.681003 0.050922 0.692675
O O7 0.450205 0.162213 0.675659
O O8 0.037869 0.750000 0.625000
O O9 0.820713 0.673179 0.577831
O O10 0.000000 0.500000 0.583030
#
# Coordination Sequence:
#
# PCOD9560812 Si02
#       4
#    16  16  16  16
#     4  10  20  39  66  96 132 176 212 278 355 407
#     4   9  16  33  64 101 125 155 203 269 349 410
#     4  11  27  47  63  91 136 185 239 283 329 416
#     4  10  19  38  66  95 130 161 213 281 343 412
#
# _framework density 25.989039999999999
#
# number of rings (size 3 to 8) (size 9 to 14) (size 15 to 20)
#    0.000    2.000    5.000    0.750    0.000    5.000 
#    9.000    2.500    0.000    0.000    0.000    0.000 
#    0.000    0.000    0.000    0.000    0.000    0.000 
#
# Total GULP energy -178681.880690 kJ/mol
# GULP energy per Si atom -5583.808772 kJ/mol
# Density = 2.592989 g / cm^3
# Si number density = 25.989040 Si / 1000 Ang^3
#
#
#
# Elastic Constant Matrix: (Units=GPa)
#
#
# Indices 1 2 3 4 5 6 
#
# 1 100.7438 18.0640 21.8082 0.0000 0.0000 0.0000
# 2 18.0640 100.7437 21.8082 0.0000 0.0000 0.0000
# 3 21.8082 21.8082 223.1010 0.0000 0.0000 0.0000
# 4 0.0000 0.0000 0.0000 25.8327 0.0000 0.0000
# 5 0.0000 0.0000 0.0000 0.0000 25.8327 0.0000
# 6 0.0000 0.0000 0.0000 0.0000 0.0000 17.7278
#
#
#
# Elastic Compliance Matrix: (Units=1/GPa)
#
#
# Indices 1 2 3 4 5 6 
#
# 1 0.010413 -0.001682 -0.000853 0.000000 0.000000 0.000000
# 2 -0.001682 0.010413 -0.000853 0.000000 0.000000 0.000000
# 3 -0.000853 -0.000853 0.004649 0.000000 0.000000 0.000000
# 4 0.000000 0.000000 0.000000 0.038711 0.000000 0.000000
# 5 0.000000 0.000000 0.000000 0.000000 0.038711 0.000000
# 6 0.000000 0.000000 0.000000 0.000000 0.000000 0.056408
#
#
# Mechanical properties :
#
#
# Convention : Reuss Voigt Hill
#
# Bulk Modulus (GPa) = 53.48716 60.88326 57.18521
# Shear Modulus (GPa) = 29.01677 38.07252 33.54465
#
# Velocity S-wave (km/s) = 3.34503 3.83161 3.59656
# Velocity P-wave (km/s) = 5.96191 6.56143 6.26884
#
# Compressibility (1/GPa) = 0.01869608
#
# Stress axis : x y z
#
# Youngs Moduli (GPa) = 96.03791 96.03791 215.09483
#
# Poissons Ratio (x) = 0.16156 0.18356
# Poissons Ratio (y) = 0.16156 0.18356
# Poissons Ratio (z) = 0.08196 0.08196
#
# Static dielectric constant tensor:
#      x y z
#    x 2.141540 0.000000 0.000000 
#    y 0.000000 2.141540 0.000000 
#    z 0.000000 0.000000 2.194090 
# 
# From -- ./inp_files/7844.got.cif
#   From: 2010.05.17/outbox.cif.g08.bks.cpg/sg122_4_cif.got.tgz:7844.got - 2010.05.20 11:37:33.
