data_PCOD9560809
_publ_section_title
;
Structure prediction by ZEFSAII (Michael W. Deem and Ramdas Pophale) SiO2 
 PCOD9560809
Probable space group: I -4 2 D
;
_chemical_formula_sum "Si O2"
_cell_formula_units_Z 112
_cell_length_a 14.976538
_cell_length_b 14.976538
_cell_length_c 27.001667
_cell_angle_alpha 90.000000
_cell_angle_beta 90.000000
_cell_angle_gamma 90.000000
_cell_volume 6056.384545
_symmetry_space_group_name_H-M "I -4 2 D"
_symmetry_group_IT_number 122
_symmetry_cell_setting 'tetragonal'
loop_
_space_group_symop_operation_xyz
x,y,z
y,-x,-z
-x,-y,z
-y,x,-z
x,1/2-y,1/4-z
-x,1/2+y,1/4-z
-y,1/2-x,1/4+z
y,1/2+x,1/4+z
1/2+x,1/2+y,1/2+z
1/2+y,1/2-x,1/2-z
1/2-x,1/2-y,1/2+z
1/2-y,1/2+x,1/2-z
1/2+x,-y,3/4-z
1/2-x,y,3/4-z
1/2-y,-x,3/4+z
1/2+y,x,3/4+z
loop_
_atom_site_type_symbol
_atom_site_label
_atom_site_fract_x
_atom_site_fract_y
_atom_site_fract_z
Si Si1 0.323615 0.073482 0.476148
Si Si2 0.307520 0.076885 0.802786
Si Si3 0.245882 0.921113 0.022303
Si Si4 0.750000 0.864564 0.375000
Si Si5 0.500000 0.500000 0.266812
Si Si6 0.778326 0.438369 0.635558
Si Si7 0.618766 0.912950 0.906154
Si Si8 0.137538 0.483630 0.728125
O O1 0.356297 0.172477 0.492494
O O2 0.291074 0.079210 0.419660
O O3 0.236758 0.039876 0.504463
O O4 0.411213 0.014000 0.484981
O O5 0.362902 0.157190 0.779555
O O6 0.363571 0.047271 0.851517
O O7 0.214785 0.115282 0.823258
O O8 0.281074 0.998817 0.765325
O O9 0.276969 0.957639 0.076640
O O10 0.665718 0.805695 0.358146
O O11 0.580554 0.517629 0.304692
O O12 0.674602 0.443285 0.652146
O O13 0.847024 0.492564 0.670136
O O14 0.095690 0.569264 0.757105
#
# Coordination Sequence:
#
# PCOD9560809 Si02
#       8
#    16  16  16   8   8  16  16  16
#     4  11  22  41  61  94 126 163 214 271 326 383
#     4  10  21  38  59  91 124 162 212 249 320 384
#     4  10  22  38  63  92 126 170 209 268 317 391
#     4  10  20  40  64  88 120 176 210 266 328 390
#     4  12  22  36  66  95 122 169 214 264 324 398
#     4  10  19  38  65  89 120 168 220 254 325 396
#     4  10  20  36  60  90 121 162 203 253 312 392
#     4  11  23  40  66  97 126 169 218 274 328 394
#
# _framework density 18.492881000000001
#
# number of rings (size 3 to 8) (size 9 to 14) (size 15 to 20)
#    0.000    1.571    4.286    2.571    0.000    2.571 
#    5.143    0.000    0.000    0.000    0.000    0.000 
#    0.000    0.000    0.000    0.000    0.000    0.000 
#
# Total GULP energy -312025.894270 kJ/mol
# GULP energy per Si atom -5571.890969 kJ/mol
# Density = 1.845079 g / cm^3
# Si number density = 18.492881 Si / 1000 Ang^3
#
#
#
# Elastic Constant Matrix: (Units=GPa)
#
#
# Indices 1 2 3 4 5 6 
#
# 1 86.9124 44.2331 58.8706 0.0000 0.0000 0.0000
# 2 44.2331 86.9124 58.8706 0.0000 0.0000 0.0000
# 3 58.8706 58.8706 107.4392 0.0000 0.0000 0.0000
# 4 0.0000 0.0000 0.0000 33.0936 0.0000 0.0000
# 5 0.0000 0.0000 0.0000 0.0000 33.0936 0.0000
# 6 0.0000 0.0000 0.0000 0.0000 0.0000 30.0740
#
#
#
# Elastic Compliance Matrix: (Units=1/GPa)
#
#
# Indices 1 2 3 4 5 6 
#
# 1 0.019219 -0.004211 -0.008224 0.000000 0.000000 0.000000
# 2 -0.004211 0.019219 -0.008224 0.000000 0.000000 0.000000
# 3 -0.008224 -0.008224 0.018320 0.000000 0.000000 0.000000
# 4 0.000000 0.000000 0.000000 0.030217 0.000000 0.000000
# 5 0.000000 0.000000 0.000000 0.000000 0.030217 0.000000
# 6 0.000000 0.000000 0.000000 0.000000 0.000000 0.033251
#
#
# Mechanical properties :
#
#
# Convention : Reuss Voigt Hill
#
# Bulk Modulus (GPa) = 64.76001 67.24582 66.00291
# Shear Modulus (GPa) = 25.39246 27.20489 26.29868
#
# Velocity S-wave (km/s) = 3.70955 3.83965 3.77516
# Velocity P-wave (km/s) = 7.31044 7.48995 7.40074
#
# Compressibility (1/GPa) = 0.01544163
#
# Stress axis : x y z
#
# Youngs Moduli (GPa) = 52.03072 52.03072 54.58572
#
# Poissons Ratio (x) = 0.21911 0.44890
# Poissons Ratio (y) = 0.21911 0.44890
# Poissons Ratio (z) = 0.42788 0.42788
#
# Static dielectric constant tensor:
#      x y z
#    x 1.658230 0.000000 0.000000 
#    y 0.000000 1.658230 0.000000 
#    z 0.000000 0.000000 1.684170 
# 
# From -- ./inp_files/8828.got.cif
#   From: 2010.05.17/outbox.cif.g08.bks.cpg/sg122_5_cif.got.tgz:8828.got - 2010.05.20 11:37:33.
