data_PCOD9560905
_publ_section_title
;
Structure prediction by ZEFSAII (Michael W. Deem and Ramdas Pophale) SiO2 
 PCOD9560905
Probable space group: I -4 2 D
;
_chemical_formula_sum "Si O2"
_cell_formula_units_Z 96
_cell_length_a 19.399666
_cell_length_b 19.399666
_cell_length_c 11.564947
_cell_angle_alpha 90.000000
_cell_angle_beta 90.000000
_cell_angle_gamma 90.000000
_cell_volume 4352.433582
_symmetry_space_group_name_H-M "I -4 2 D"
_symmetry_group_IT_number 122
_symmetry_cell_setting 'tetragonal'
loop_
_space_group_symop_operation_xyz
x,y,z
y,-x,-z
-x,-y,z
-y,x,-z
x,1/2-y,1/4-z
-x,1/2+y,1/4-z
-y,1/2-x,1/4+z
y,1/2+x,1/4+z
1/2+x,1/2+y,1/2+z
1/2+y,1/2-x,1/2-z
1/2-x,1/2-y,1/2+z
1/2-y,1/2+x,1/2-z
1/2+x,-y,3/4-z
1/2-x,y,3/4-z
1/2-y,-x,3/4+z
1/2+y,x,3/4+z
loop_
_atom_site_type_symbol
_atom_site_label
_atom_site_fract_x
_atom_site_fract_y
_atom_site_fract_z
Si Si1 0.034120 0.716816 0.941951
Si Si2 0.329884 0.929534 0.887007
Si Si3 0.320518 0.840683 0.425403
Si Si4 0.966507 0.072726 0.721698
Si Si5 0.981485 0.821765 0.552929
Si Si6 0.560958 0.844672 0.862837
O O1 0.115777 0.710762 0.934903
O O2 0.000741 0.679222 0.830592
O O3 0.998188 0.790019 0.922845
O O4 0.006920 0.684882 0.062244
O O5 0.250000 0.901295 0.875000
O O6 0.363597 0.912971 0.763414
O O7 0.390737 0.912447 0.976782
O O8 0.250000 0.809752 0.375000
O O9 0.314020 0.881762 0.548667
O O10 0.337218 0.902016 0.334170
O O11 0.972990 0.121455 0.612848
O O12 0.022118 0.096733 0.818120
O O13 0.000000 0.000000 0.688291
O O14 0.994383 0.750000 0.625000
#
# Coordination Sequence:
#
# PCOD9560905 Si02
#       6
#    16  16  16  16  16  16
#     4  11  21  39  63  90 125 178 214 264 355 404
#     4  10  24  38  59  91 126 169 215 278 333 403
#     4  10  20  38  64  90 120 172 218 271 328 415
#     4  11  23  38  62  96 123 174 223 276 338 403
#     4  10  20  41  61  87 136 172 208 284 350 402
#     4  10  22  42  60  88 137 166 217 280 345 392
#
# _framework density 22.056628
#
# number of rings (size 3 to 8) (size 9 to 14) (size 15 to 20)
#    0.000    1.667    5.000    2.000    7.000    0.000 
#    0.000    0.833    0.000    1.000    0.000    0.000 
#    0.000    0.000    0.000    0.000    0.000    0.000 
#
# Total GULP energy -267217.065725 kJ/mol
# GULP energy per Si atom -5567.022203 kJ/mol
# Density = 2.200643 g / cm^3
# Si number density = 22.056628 Si / 1000 Ang^3
#
#
#
# Elastic Constant Matrix: (Units=GPa)
#
#
# Indices 1 2 3 4 5 6 
#
# 1 36.9668 0.3346 9.4818 0.0000 0.0000 0.0000
# 2 0.3346 36.9668 9.4818 0.0000 0.0000 0.0000
# 3 9.4818 9.4818 103.8426 0.0000 0.0000 0.0000
# 4 0.0000 0.0000 0.0000 7.8409 0.0000 0.0000
# 5 0.0000 0.0000 0.0000 0.0000 7.8409 0.0000
# 6 0.0000 0.0000 0.0000 0.0000 0.0000 28.4132
#
#
#
# Elastic Compliance Matrix: (Units=1/GPa)
#
#
# Indices 1 2 3 4 5 6 
#
# 1 0.027706 0.000408 -0.002567 0.000000 0.000000 0.000000
# 2 0.000408 0.027706 -0.002567 0.000000 0.000000 0.000000
# 3 -0.002567 -0.002567 0.010099 0.000000 0.000000 0.000000
# 4 0.000000 0.000000 0.000000 0.127536 0.000000 0.000000
# 5 0.000000 0.000000 0.000000 0.000000 0.127536 0.000000
# 6 0.000000 0.000000 0.000000 0.000000 0.000000 0.035195
#
#
# Mechanical properties :
#
#
# Convention : Reuss Voigt Hill
#
# Bulk Modulus (GPa) = 17.83868 24.04139 20.94004
# Shear Modulus (GPa) = 13.02364 19.38420 16.20392
#
# Velocity S-wave (km/s) = 2.43258 2.96774 2.71338
# Velocity P-wave (km/s) = 3.99940 4.76096 4.39670
#
# Compressibility (1/GPa) = 0.05605797
#
# Stress axis : x y z
#
# Youngs Moduli (GPa) = 36.09321 36.09321 99.02221
#
# Poissons Ratio (x) = -0.01471 0.25419
# Poissons Ratio (y) = -0.01471 0.25419
# Poissons Ratio (z) = 0.09265 0.09265
#
# Static dielectric constant tensor:
#      x y z
#    x 1.901260 0.000000 0.000000 
#    y 0.000000 1.901260 0.000000 
#    z 0.000000 0.000000 1.841350 
# 
# From -- ./inp_files/4445.got.cif
#   From: 2010.05.17/outbox.cif.g08.bks.cpg/sg122_3_cif.got.tgz:4445.got - 2010.05.20 11:37:33.
