data_PCOD9560445
_publ_section_title
;
Structure prediction by ZEFSAII (Michael W. Deem and Ramdas Pophale) SiO2 
 PCOD9560445
Probable space group: I -4 2 M
;
_chemical_formula_sum "Si O2"
_cell_formula_units_Z 120
_cell_length_a 27.719264
_cell_length_b 27.719264
_cell_length_c 8.052250
_cell_angle_alpha 90.000000
_cell_angle_beta 90.000000
_cell_angle_gamma 90.000000
_cell_volume 6187.007458
_symmetry_space_group_name_H-M "I -4 2 M"
_symmetry_group_IT_number 121
_symmetry_cell_setting 'tetragonal'
loop_
_space_group_symop_operation_xyz
x,y,z
y,-x,-z
-x,-y,z
-y,x,-z
x,-y,-z
-x,y,-z
-y,-x,z
y,x,z
1/2+x,1/2+y,1/2+z
1/2+y,1/2-x,1/2-z
1/2-x,1/2-y,1/2+z
1/2-y,1/2+x,1/2-z
1/2+x,1/2-y,1/2-z
1/2-x,1/2+y,1/2-z
1/2-y,1/2-x,1/2+z
1/2+y,1/2+x,1/2+z
loop_
_atom_site_type_symbol
_atom_site_label
_atom_site_fract_x
_atom_site_fract_y
_atom_site_fract_z
Si Si1 0.355000 0.899105 0.712343
Si Si2 0.425953 0.500000 0.500000
Si Si3 0.148366 0.073766 0.969033
Si Si4 0.931545 0.742587 0.394706
Si Si5 0.220928 0.855876 0.848704
Si Si6 0.033663 0.235681 0.757147
Si Si7 0.533145 0.056532 0.161066
Si Si8 0.892240 0.694696 0.939517
O O1 0.314700 0.923127 0.594148
O O2 0.403855 0.926745 0.678531
O O3 0.364550 0.842612 0.679096
O O4 0.335986 0.907329 0.898608
O O5 0.463537 0.536464 0.591988
O O6 0.387205 0.461926 0.571098
O O7 0.111941 0.111941 0.880002
O O8 0.185326 0.045025 0.850343
O O9 0.181316 0.106328 0.084734
O O10 0.881304 0.760557 0.317899
O O11 0.944285 0.764595 0.571926
O O12 0.976749 0.753639 0.270756
O O13 0.195152 0.804848 0.828576
O O14 0.263725 0.857819 0.983734
O O15 0.062574 0.277755 0.855584
O O16 0.442412 0.995445 0.185583
O O17 0.500000 0.063437 0.000000
#
# Coordination Sequence:
#
# PCOD9560445 Si02
#       8
#    16   8  16  16  16  16  16  16
#     4  11  23  38  60  83 113 150 194 235 296 348
#     4   9  16  26  46  80 118 152 188 228 273 330
#     4   9  17  31  54  81 112 150 192 235 284 340
#     4  10  22  36  57  85 114 151 192 240 290 353
#     4   9  19  37  58  83 113 148 192 243 295 349
#     4  10  21  37  56  83 119 148 193 243 292 344
#     4  11  24  40  56  82 116 152 193 234 282 349
#     4  10  22  39  60  86 113 148 193 241 291 356
#
# _framework density 19.395482999999999
#
# number of rings (size 3 to 8) (size 9 to 14) (size 15 to 20)
#    0.000    2.067    0.000    3.200    3.733    4.800 
#    0.000    2.667    0.000    4.000    0.000    0.000 
#    0.000    4.267    0.000    0.000    0.000    0.000 
#
# Total GULP energy -334055.254915 kJ/mol
# GULP energy per Si atom -5567.587582 kJ/mol
# Density = 1.935134 g / cm^3
# Si number density = 19.395483 Si / 1000 Ang^3
#
#
#
# Elastic Constant Matrix: (Units=GPa)
#
#
# Indices 1 2 3 4 5 6 
#
# 1 0.1202 146.3893 16.7701 0.0000 0.0000 0.0000
# 2 146.3893 0.1187 16.7711 0.0000 0.0000 0.0000
# 3 16.7701 16.7711 67.4910 0.0000 0.0000 0.0000
# 4 0.0000 0.0000 0.0000 16.8387 0.0000 0.0000
# 5 0.0000 0.0000 0.0000 0.0000 16.8395 0.0000
# 6 0.0000 0.0000 0.0000 0.0000 0.0000 39.6532
#
#
#
# Elastic Compliance Matrix: (Units=1/GPa)
#
#
# Indices 1 2 3 4 5 6 
#
# 1 0.000200 0.007037 -0.001798 0.000000 0.000000 0.000000
# 2 0.007037 0.000200 -0.001798 0.000000 0.000000 0.000000
# 3 -0.001798 -0.001798 0.015711 0.000000 0.000000 0.000000
# 4 0.000000 0.000000 0.000000 0.059387 0.000000 0.000000
# 5 0.000000 0.000000 0.000000 0.000000 0.059384 0.000000
# 6 0.000000 0.000000 0.000000 0.000000 0.000000 0.025219
#
#
# Mechanical properties :
#
#
# Convention : Reuss Voigt Hill
#
# Bulk Modulus (GPa) = 43.49418 47.51010 45.50214
# Shear Modulus (GPa) = 31.07827 7.18626 19.13227
#
# Velocity S-wave (km/s) = 4.00727 1.92696 3.14415
# Velocity P-wave (km/s) = 6.62454 5.43134 6.05740
#
# Compressibility (1/GPa) = 0.02299158
#
# Stress axis : x y z
#
# Youngs Moduli (GPa) = 4991.77828 4994.22181 63.65163
#
# Poissons Ratio (x) = -35.14414 0.11447
# Poissons Ratio (y) = -35.12694 0.11446
# Poissons Ratio (z) = 8.97728 8.98109
#
# Static dielectric constant tensor:
#      x y z
#    x 1.708220 0.000000 0.000000 
#    y 0.000000 1.708210 0.000000 
#    z 0.000000 0.000000 1.702080 
# 
# From -- ./inp_files/2194.got.cif
#   From: 2010.05.17/outbox.cif.g08.bks.cpg/sg121_2_cif.got.tgz:2194.got - 2010.05.20 11:32:06.
