data_PCOD9560807
_publ_section_title
;
Structure prediction by ZEFSAII (Michael W. Deem and Ramdas Pophale) SiO2 
 PCOD9560807
Probable space group: I -4 2 D
;
_chemical_formula_sum "Si O2"
_cell_formula_units_Z 116
_cell_length_a 18.490787
_cell_length_b 18.490787
_cell_length_c 17.575250
_cell_angle_alpha 90.000000
_cell_angle_beta 90.000000
_cell_angle_gamma 90.000000
_cell_volume 6009.139735
_symmetry_space_group_name_H-M "I -4 2 D"
_symmetry_group_IT_number 122
_symmetry_cell_setting 'tetragonal'
loop_
_space_group_symop_operation_xyz
x,y,z
y,-x,-z
-x,-y,z
-y,x,-z
x,1/2-y,1/4-z
-x,1/2+y,1/4-z
-y,1/2-x,1/4+z
y,1/2+x,1/4+z
1/2+x,1/2+y,1/2+z
1/2+y,1/2-x,1/2-z
1/2-x,1/2-y,1/2+z
1/2-y,1/2+x,1/2-z
1/2+x,-y,3/4-z
1/2-x,y,3/4-z
1/2-y,-x,3/4+z
1/2+y,x,3/4+z
loop_
_atom_site_type_symbol
_atom_site_label
_atom_site_fract_x
_atom_site_fract_y
_atom_site_fract_z
Si Si1 0.895055 0.101644 0.248038
Si Si2 0.260345 0.122934 0.288001
Si Si3 0.444811 0.869784 0.330862
Si Si4 0.687605 0.779145 0.920419
Si Si5 0.760656 0.041513 0.653097
Si Si6 0.552942 0.358252 0.318029
Si Si7 0.500000 0.000000 0.250000
Si Si8 0.178198 0.973122 0.822894
O O1 0.914229 0.121941 0.334197
O O2 0.820811 0.143696 0.234119
O O3 0.950642 0.137003 0.187671
O O4 0.890657 0.016428 0.227708
O O5 0.250000 0.095352 0.375000
O O6 0.326136 0.094837 0.235903
O O7 0.273502 0.208320 0.296773
O O8 0.191433 0.097565 0.240408
O O9 0.518809 0.825456 0.345999
O O10 0.452043 0.950248 0.302122
O O11 0.750000 0.821498 0.875000
O O12 0.623470 0.760114 0.862772
O O13 0.790282 0.038626 0.738038
O O14 0.694948 0.985629 0.631068
O O15 0.613514 0.416458 0.344376
O O16 0.250000 0.971877 0.875000
#
# Coordination Sequence:
#
# PCOD9560807 Si02
#       8
#    16  16  16  16  16  16   4  16
#     4  10  23  40  63  86 132 165 219 273 338 400
#     4  10  21  38  61  89 130 164 216 258 323 391
#     4  10  23  37  55  93 123 167 209 261 313 398
#     4  10  19  38  63  89 118 172 202 273 324 383
#     4   9  21  42  58  89 132 153 218 262 321 400
#     4  10  22  42  63  93 124 177 206 274 337 398
#     4  12  24  32  60  92 120 168 206 256 312 384
#     4  11  22  41  65  94 120 170 218 272 335 407
#
# _framework density 19.303927000000002
#
# number of rings (size 3 to 8) (size 9 to 14) (size 15 to 20)
#    0.000    1.931    0.000    3.310    5.793    0.552 
#   19.862    0.000    0.000    0.000    0.000    0.000 
#    0.000    0.000    0.000    0.000    0.000    0.000 
#
# Total GULP energy -322902.607955 kJ/mol
# GULP energy per Si atom -5567.286344 kJ/mol
# Density = 1.925999 g / cm^3
# Si number density = 19.303927 Si / 1000 Ang^3
#
#
#
# Elastic Constant Matrix: (Units=GPa)
#
#
# Indices 1 2 3 4 5 6 
#
# 1 94.5586 34.7647 29.0834 0.0000 0.0000 0.0000
# 2 34.7647 94.5586 29.0834 0.0000 0.0000 0.0000
# 3 29.0834 29.0834 54.6877 0.0000 0.0000 0.0000
# 4 0.0000 0.0000 0.0000 11.0076 0.0000 0.0000
# 5 0.0000 0.0000 0.0000 0.0000 11.0076 0.0000
# 6 0.0000 0.0000 0.0000 0.0000 0.0000 28.5964
#
#
#
# Elastic Compliance Matrix: (Units=1/GPa)
#
#
# Indices 1 2 3 4 5 6 
#
# 1 0.013444 -0.003280 -0.005405 0.000000 0.000000 0.000000
# 2 -0.003280 0.013444 -0.005405 0.000000 0.000000 0.000000
# 3 -0.005405 -0.005405 0.024035 0.000000 0.000000 0.000000
# 4 0.000000 0.000000 0.000000 0.090846 0.000000 0.000000
# 5 0.000000 0.000000 0.000000 0.000000 0.090846 0.000000
# 6 0.000000 0.000000 0.000000 0.000000 0.000000 0.034969
#
#
# Mechanical properties :
#
#
# Convention : Reuss Voigt Hill
#
# Bulk Modulus (GPa) = 43.97255 47.74087 45.85671
# Shear Modulus (GPa) = 16.48285 20.18056 18.33170
#
# Velocity S-wave (km/s) = 2.92526 3.23679 3.08496
# Velocity P-wave (km/s) = 5.85133 6.22527 6.04119
#
# Compressibility (1/GPa) = 0.02274146
#
# Stress axis : x y z
#
# Youngs Moduli (GPa) = 74.38325 74.38325 41.60662
#
# Poissons Ratio (x) = 0.24399 0.22489
# Poissons Ratio (y) = 0.24399 0.22489
# Poissons Ratio (z) = 0.40205 0.40205
#
# Static dielectric constant tensor:
#      x y z
#    x 1.719880 0.000000 0.000000 
#    y 0.000000 1.719880 0.000000 
#    z 0.000000 0.000000 1.745870 
# 
# From -- ./inp_files/6437.got.cif
#   From: 2010.05.17/outbox.cif.g08.bks.cpg/sg122_4_cif.got.tgz:6437.got - 2010.05.20 11:37:33.
