data_PCOD9560876
_publ_section_title
;
Structure prediction by ZEFSAII (Michael W. Deem and Ramdas Pophale) SiO2 
 PCOD9560876
Probable space group: I -4 2 D
;
_chemical_formula_sum "Si O2"
_cell_formula_units_Z 60
_cell_length_a 12.616416
_cell_length_b 12.616416
_cell_length_c 20.060614
_cell_angle_alpha 90.000000
_cell_angle_beta 90.000000
_cell_angle_gamma 90.000000
_cell_volume 3193.127224
_symmetry_space_group_name_H-M "I -4 2 D"
_symmetry_group_IT_number 122
_symmetry_cell_setting 'tetragonal'
loop_
_space_group_symop_operation_xyz
x,y,z
y,-x,-z
-x,-y,z
-y,x,-z
x,1/2-y,1/4-z
-x,1/2+y,1/4-z
-y,1/2-x,1/4+z
y,1/2+x,1/4+z
1/2+x,1/2+y,1/2+z
1/2+y,1/2-x,1/2-z
1/2-x,1/2-y,1/2+z
1/2-y,1/2+x,1/2-z
1/2+x,-y,3/4-z
1/2-x,y,3/4-z
1/2-y,-x,3/4+z
1/2+y,x,3/4+z
loop_
_atom_site_type_symbol
_atom_site_label
_atom_site_fract_x
_atom_site_fract_y
_atom_site_fract_z
Si Si1 0.375779 0.872409 0.143652
Si Si2 0.063019 0.859723 0.036743
Si Si3 0.500000 0.000000 0.250000
Si Si4 0.131604 0.875455 0.184106
Si Si5 0.500000 0.500000 0.786633
O O1 0.392474 0.750000 0.125000
O O2 0.253721 0.886505 0.163960
O O3 0.450263 0.909049 0.204067
O O4 0.409495 0.949192 0.083127
O O5 0.065947 0.888120 0.115235
O O6 0.110221 0.742033 0.036630
O O7 0.946144 0.869134 0.004705
O O8 0.091880 0.956242 0.239234
#
# Coordination Sequence:
#
# PCOD9560876 Si02
#       5
#    16  16   4  16   8
#     4  11  22  43  61  89 120 157 199 252 300 357
#     4  10  20  37  61  87 124 153 194 251 301 348
#     4  10  24  40  68  84 118 160 194 252 302 360
#     4  11  22  38  62  91 118 163 196 251 300 356
#     4  11  24  37  65  88 119 160 206 240 303 370
#
# _framework density 18.790355999999999
#
# number of rings (size 3 to 8) (size 9 to 14) (size 15 to 20)
#    0.000    1.333    2.667    4.800    0.000    0.000 
#    0.000    0.000    5.867    0.000    0.000    0.000 
#    0.000    0.000    0.000    0.000    0.000    0.000 
#
# Total GULP energy -167526.779029 kJ/mol
# GULP energy per Si atom -5584.225968 kJ/mol
# Density = 1.874759 g / cm^3
# Si number density = 18.790356 Si / 1000 Ang^3
#
#
#
# Elastic Constant Matrix: (Units=GPa)
#
#
# Indices 1 2 3 4 5 6 
#
# 1 128.2831 57.4184 63.9543 0.0000 0.0000 0.0000
# 2 57.4184 128.2831 63.9543 0.0000 0.0000 0.0000
# 3 63.9543 63.9543 123.1320 0.0000 0.0000 0.0000
# 4 0.0000 0.0000 0.0000 27.1936 0.0000 0.0000
# 5 0.0000 0.0000 0.0000 0.0000 27.1936 0.0000
# 6 0.0000 0.0000 0.0000 0.0000 0.0000 27.7489
#
#
#
# Elastic Compliance Matrix: (Units=1/GPa)
#
#
# Indices 1 2 3 4 5 6 
#
# 1 0.011248 -0.002863 -0.004355 0.000000 0.000000 0.000000
# 2 -0.002863 0.011248 -0.004355 0.000000 0.000000 0.000000
# 3 -0.004355 -0.004355 0.012645 0.000000 0.000000 0.000000
# 4 0.000000 0.000000 0.000000 0.036773 0.000000 0.000000
# 5 0.000000 0.000000 0.000000 0.000000 0.036773 0.000000
# 6 0.000000 0.000000 0.000000 0.000000 0.000000 0.036037
#
#
# Mechanical properties :
#
#
# Convention : Reuss Voigt Hill
#
# Bulk Modulus (GPa) = 83.37002 83.37244 83.37123
# Shear Modulus (GPa) = 29.09174 29.38531 29.23853
#
# Velocity S-wave (km/s) = 3.93902 3.95885 3.94895
# Velocity P-wave (km/s) = 8.07172 8.08472 8.07822
#
# Compressibility (1/GPa) = 0.01199472
#
# Stress axis : x y z
#
# Youngs Moduli (GPa) = 88.90468 88.90468 79.08119
#
# Poissons Ratio (x) = 0.25457 0.34439
# Poissons Ratio (y) = 0.25457 0.34439
# Poissons Ratio (z) = 0.38717 0.38717
#
# Static dielectric constant tensor:
#      x y z
#    x 1.640360 0.000000 0.000000 
#    y 0.000000 1.640360 0.000000 
#    z 0.000000 0.000000 1.645840 
# 
# From -- ./inp_files/6942.got.cif
#   From: 2010.05.17/outbox.cif.g08.bks.cpg/sg122_4_cif.got.tgz:6942.got - 2010.05.20 11:37:33.
