data_PCOD9560758
_publ_section_title
;
Structure prediction by ZEFSAII (Michael W. Deem and Ramdas Pophale) SiO2 
 PCOD9560758
Probable space group: I -4 2 D
;
_chemical_formula_sum "Si O2"
_cell_formula_units_Z 80
_cell_length_a 25.136094
_cell_length_b 25.136094
_cell_length_c 5.523182
_cell_angle_alpha 90.000000
_cell_angle_beta 90.000000
_cell_angle_gamma 90.000000
_cell_volume 3489.674645
_symmetry_space_group_name_H-M "I -4 2 D"
_symmetry_group_IT_number 122
_symmetry_cell_setting 'tetragonal'
loop_
_space_group_symop_operation_xyz
x,y,z
y,-x,-z
-x,-y,z
-y,x,-z
x,1/2-y,1/4-z
-x,1/2+y,1/4-z
-y,1/2-x,1/4+z
y,1/2+x,1/4+z
1/2+x,1/2+y,1/2+z
1/2+y,1/2-x,1/2-z
1/2-x,1/2-y,1/2+z
1/2-y,1/2+x,1/2-z
1/2+x,-y,3/4-z
1/2-x,y,3/4-z
1/2-y,-x,3/4+z
1/2+y,x,3/4+z
loop_
_atom_site_type_symbol
_atom_site_label
_atom_site_fract_x
_atom_site_fract_y
_atom_site_fract_z
Si Si1 0.922469 0.734105 0.874846
Si Si2 0.647324 0.335785 0.153247
Si Si3 0.069750 0.413527 0.427369
Si Si4 0.604160 0.543079 0.822462
Si Si5 0.673753 0.163200 0.596432
O O1 0.951108 0.750000 0.625000
O O2 0.895462 0.675820 0.893273
O O3 0.870585 0.772508 0.864338
O O4 0.950864 0.750000 0.125000
O O5 0.584670 0.347216 0.164719
O O6 0.666073 0.309038 0.399211
O O7 0.667299 0.308939 0.909153
O O8 0.078794 0.452568 0.658422
O O9 0.119455 0.373757 0.413822
O O10 0.016736 0.381925 0.499681
O O11 0.067854 0.438983 0.158779
#
# Coordination Sequence:
#
# PCOD9560758 Si02
#       5
#    16  16  16  16  16
#     4   8  12  20  34  48  60  72  88 116 158 196
#     4   8  14  23  34  47  60  74  94 123 160 193
#     4  10  19  28  36  46  61  82 109 138 166 194
#     4  10  19  28  36  46  61  82 109 138 166 194
#     4   8  14  23  34  47  60  74  94 123 160 193
#
# _framework density 22.924772999999998
#
# number of rings (size 3 to 8) (size 9 to 14) (size 15 to 20)
#    0.000    3.200    0.000    1.200    0.000    2.400 
#    0.000    0.000    0.000    0.000    0.000    0.000 
#    0.000    0.000    0.000    0.000    0.000    0.000 
#
# Total GULP energy -222700.557026 kJ/mol
# GULP energy per Si atom -5567.513926 kJ/mol
# Density = 2.287259 g / cm^3
# Si number density = 22.924773 Si / 1000 Ang^3
#
#
#
# Elastic Constant Matrix: (Units=GPa)
#
#
# Indices 1 2 3 4 5 6 
#
# 1 47.3598 -9.0015 15.4211 0.0000 0.0000 0.0000
# 2 -9.0015 47.3598 15.4211 0.0000 0.0000 0.0000
# 3 15.4211 15.4211 255.0194 0.0000 0.0000 0.0000
# 4 0.0000 0.0000 0.0000 -98.0353 0.0000 0.0000
# 5 0.0000 0.0000 0.0000 0.0000 -98.0353 0.0000
# 6 0.0000 0.0000 0.0000 0.0000 0.0000 -391.5782
#
#
#
# Elastic Compliance Matrix: (Units=1/GPa)
#
#
# Indices 1 2 3 4 5 6 
#
# 1 0.022572 0.004830 -0.001657 0.000000 0.000000 0.000000
# 2 0.004830 0.022572 -0.001657 0.000000 0.000000 0.000000
# 3 -0.001657 -0.001657 0.004122 0.000000 0.000000 0.000000
# 4 0.000000 0.000000 0.000000 -0.010200 0.000000 0.000000
# 5 0.000000 0.000000 0.000000 0.000000 -0.010200 0.000000
# 6 0.000000 0.000000 0.000000 0.000000 0.000000 -0.002554
#
#
# Mechanical properties :
#
#
# Convention : Reuss Voigt Hill
#
# Bulk Modulus (GPa) = 19.12110 43.71336 31.41723
# Shear Modulus (GPa) = 122.81010 -95.66989 13.57010
#
# Velocity S-wave (km/s) = 7.32716 -6.46705 2.43562
# Velocity P-wave (km/s) = 8.94102 6.05426 4.65230
#
# Compressibility (1/GPa) = 0.05229825
#
# Stress axis : x y z
#
# Youngs Moduli (GPa) = 44.30170 44.30170 242.61994
#
# Poissons Ratio (x) = -0.21397 0.40203
# Poissons Ratio (y) = -0.21397 0.40203
# Poissons Ratio (z) = 0.07341 0.07341
#
# Static dielectric constant tensor:
#      x y z
#    x 1.805520 0.000000 0.000000 
#    y 0.000000 1.805520 0.000000 
#    z 0.000000 0.000000 2.088010 
# 
# From -- ./inp_files/1292.got.cif
#   From: 2010.05.17/outbox.cif.g08.bks.cpg/sg122_1_cif.got.tgz:1292.got - 2010.05.20 11:37:33.
