data_PCOD9561095
_publ_section_title
;
Structure prediction by ZEFSAII (Michael W. Deem and Ramdas Pophale) SiO2 
 PCOD9561095
Probable space group: I -4 2 D
;
_chemical_formula_sum "Si O2"
_cell_formula_units_Z 88
_cell_length_a 16.765237
_cell_length_b 16.765237
_cell_length_c 14.273681
_cell_angle_alpha 90.000000
_cell_angle_beta 90.000000
_cell_angle_gamma 90.000000
_cell_volume 4011.948790
_symmetry_space_group_name_H-M "I -4 2 D"
_symmetry_group_IT_number 122
_symmetry_cell_setting 'tetragonal'
loop_
_space_group_symop_operation_xyz
x,y,z
y,-x,-z
-x,-y,z
-y,x,-z
x,1/2-y,1/4-z
-x,1/2+y,1/4-z
-y,1/2-x,1/4+z
y,1/2+x,1/4+z
1/2+x,1/2+y,1/2+z
1/2+y,1/2-x,1/2-z
1/2-x,1/2-y,1/2+z
1/2-y,1/2+x,1/2-z
1/2+x,-y,3/4-z
1/2-x,y,3/4-z
1/2-y,-x,3/4+z
1/2+y,x,3/4+z
loop_
_atom_site_type_symbol
_atom_site_label
_atom_site_fract_x
_atom_site_fract_y
_atom_site_fract_z
Si Si1 0.104952 0.144803 0.296060
Si Si2 0.751662 0.252769 0.486899
Si Si3 0.817691 0.087674 0.507112
Si Si4 0.912661 0.522110 0.404964
Si Si5 0.967665 0.854752 0.686108
Si Si6 0.609179 0.250000 0.625000
O O1 0.163553 0.217093 0.274916
O O2 0.055203 0.162907 0.390276
O O3 0.054746 0.125676 0.203958
O O4 0.149910 0.062659 0.316902
O O5 0.750000 0.252583 0.375000
O O6 0.813127 0.183290 0.515773
O O7 0.666994 0.236399 0.535736
O O8 0.870875 0.062460 0.419219
O O9 0.729056 0.063947 0.474707
O O10 0.939826 0.578921 0.490760
O O11 0.834214 0.562579 0.357271
O O12 0.000000 0.500000 0.359282
#
# Coordination Sequence:
#
# PCOD9561095 Si02
#       6
#    16  16  16  16  16   8
#     4  11  25  38  67  95 135 170 236 278 345 425
#     4  12  23  42  68 101 130 178 235 282 351 424
#     4  11  21  38  62  97 130 173 213 273 349 413
#     4  10  23  44  65  98 140 184 235 295 351 428
#     4  10  22  40  61  98 138 174 215 286 343 417
#     4  12  22  46  74  94 150 190 236 298 368 424
#
# _framework density 21.934476
#
# number of rings (size 3 to 8) (size 9 to 14) (size 15 to 20)
#    0.000    1.091    5.455    0.000    8.909    1.455 
#    0.000    0.000    0.000    0.000    0.000    0.000 
#    0.000    0.000    0.000    0.000    0.000    0.000 
#
# Total GULP energy -245549.528178 kJ/mol
# GULP energy per Si atom -5580.671095 kJ/mol
# Density = 2.188455 g / cm^3
# Si number density = 21.934476 Si / 1000 Ang^3
#
#
#
# Elastic Constant Matrix: (Units=GPa)
#
#
# Indices 1 2 3 4 5 6 
#
# 1 61.1264 33.5242 10.1081 0.0000 0.0000 0.0000
# 2 33.5242 61.1264 10.1081 0.0000 0.0000 0.0000
# 3 10.1081 10.1081 87.8512 0.0000 0.0000 0.0000
# 4 0.0000 0.0000 0.0000 15.7718 0.0000 0.0000
# 5 0.0000 0.0000 0.0000 0.0000 15.7718 0.0000
# 6 0.0000 0.0000 0.0000 0.0000 0.0000 35.9728
#
#
#
# Elastic Compliance Matrix: (Units=1/GPa)
#
#
# Indices 1 2 3 4 5 6 
#
# 1 0.023530 -0.012699 -0.001246 0.000000 0.000000 0.000000
# 2 -0.012699 0.023530 -0.001246 0.000000 0.000000 0.000000
# 3 -0.001246 -0.001246 0.011670 0.000000 0.000000 0.000000
# 4 0.000000 0.000000 0.000000 0.063404 0.000000 0.000000
# 5 0.000000 0.000000 0.000000 0.000000 0.063404 0.000000
# 6 0.000000 0.000000 0.000000 0.000000 0.000000 0.027799
#
#
# Mechanical properties :
#
#
# Convention : Reuss Voigt Hill
#
# Bulk Modulus (GPa) = 35.27661 35.28719 35.28190
# Shear Modulus (GPa) = 19.74963 23.92752 21.83857
#
# Velocity S-wave (km/s) = 3.00391 3.30641 3.15878
# Velocity P-wave (km/s) = 5.30556 5.54066 5.42438
#
# Compressibility (1/GPa) = 0.02834740
#
# Stress axis : x y z
#
# Youngs Moduli (GPa) = 42.49866 42.49866 85.69222
#
# Poissons Ratio (x) = 0.53968 0.10679
# Poissons Ratio (y) = 0.53968 0.10679
# Poissons Ratio (z) = 0.05296 0.05296
#
# Static dielectric constant tensor:
#      x y z
#    x 1.852030 0.000000 0.000000 
#    y 0.000000 1.852030 0.000000 
#    z 0.000000 0.000000 1.847890 
# 
# From -- ./inp_files/5383.got.cif
#   From: 2010.05.17/outbox.cif.g08.bks.cpg/sg122_3_cif.got.tgz:5383.got - 2010.05.20 11:37:33.
