data_PCOD9561350
_publ_section_title
;
Structure prediction by ZEFSAII (Michael W. Deem and Ramdas Pophale) SiO2 
 PCOD9561350
Probable space group: I -4 2 D
;
_chemical_formula_sum "Si O2"
_cell_formula_units_Z 56
_cell_length_a 24.373588
_cell_length_b 24.373588
_cell_length_c 4.969971
_cell_angle_alpha 90.000000
_cell_angle_beta 90.000000
_cell_angle_gamma 90.000000
_cell_volume 2952.519578
_symmetry_space_group_name_H-M "I -4 2 D"
_symmetry_group_IT_number 122
_symmetry_cell_setting 'tetragonal'
loop_
_space_group_symop_operation_xyz
x,y,z
y,-x,-z
-x,-y,z
-y,x,-z
x,1/2-y,1/4-z
-x,1/2+y,1/4-z
-y,1/2-x,1/4+z
y,1/2+x,1/4+z
1/2+x,1/2+y,1/2+z
1/2+y,1/2-x,1/2-z
1/2-x,1/2-y,1/2+z
1/2-y,1/2+x,1/2-z
1/2+x,-y,3/4-z
1/2-x,y,3/4-z
1/2-y,-x,3/4+z
1/2+y,x,3/4+z
loop_
_atom_site_type_symbol
_atom_site_label
_atom_site_fract_x
_atom_site_fract_y
_atom_site_fract_z
Si Si1 0.065104 0.311795 0.033299
Si Si2 0.868825 0.845264 0.728122
Si Si3 0.250000 0.714427 0.875000
Si Si4 0.788860 0.558460 0.611119
O O1 0.078874 0.250000 0.125000
O O2 0.096089 0.350212 0.248699
O O3 0.089469 0.323604 0.744111
O O4 0.999539 0.311964 0.998545
O O5 0.822432 0.798392 0.748348
O O6 0.838646 0.899216 0.617359
O O7 0.227869 0.750000 0.625000
O O8 0.750000 0.581182 0.375000
O O9 0.750000 0.551477 0.875000
#
# Coordination Sequence:
#
# PCOD9561350 Si02
#       4
#    16  16   8  16
#     4  11  21  39  60  85 116 163 210 244 299 377
#     4  12  22  38  61  87 122 160 202 250 308 366
#     4  12  22  34  54  88 126 154 186 238 316 382
#     4  11  23  40  61  89 122 158 207 256 301 369
#
# _framework density 18.966850999999998
#
# number of rings (size 3 to 8) (size 9 to 14) (size 15 to 20)
#    0.000    0.571    2.857    8.571    0.000    0.000 
#    0.000    0.000    0.000    5.143    0.000    0.000 
#    0.000    0.000    0.000    0.000    0.000    0.000 
#
# Total GULP energy -156383.170482 kJ/mol
# GULP energy per Si atom -5585.113232 kJ/mol
# Density = 1.892368 g / cm^3
# Si number density = 18.966851 Si / 1000 Ang^3
#
#
#
# Elastic Constant Matrix: (Units=GPa)
#
#
# Indices 1 2 3 4 5 6 
#
# 1 69.3951 30.8136 -0.4981 0.0000 0.0000 0.0000
# 2 30.8136 69.3951 -0.4981 0.0000 0.0000 0.0000
# 3 -0.4981 -0.4981 77.0090 0.0000 0.0000 0.0000
# 4 0.0000 0.0000 0.0000 17.6039 0.0000 0.0000
# 5 0.0000 0.0000 0.0000 0.0000 17.6039 0.0000
# 6 0.0000 0.0000 0.0000 0.0000 0.0000 -17.5342
#
#
#
# Elastic Compliance Matrix: (Units=1/GPa)
#
#
# Indices 1 2 3 4 5 6 
#
# 1 0.017949 -0.007970 0.000065 0.000000 0.000000 0.000000
# 2 -0.007970 0.017949 0.000065 0.000000 0.000000 0.000000
# 3 0.000065 0.000065 0.012986 0.000000 0.000000 0.000000
# 4 0.000000 0.000000 0.000000 0.056806 0.000000 0.000000
# 5 0.000000 0.000000 0.000000 0.000000 0.056806 0.000000
# 6 0.000000 0.000000 0.000000 0.000000 0.000000 -0.057031
#
#
# Mechanical properties :
#
#
# Convention : Reuss Voigt Hill
#
# Bulk Modulus (GPa) = 30.11669 30.60376 30.36023
# Shear Modulus (GPa) = 37.81742 15.93351 26.87546
#
# Velocity S-wave (km/s) = 4.47012 2.90154 3.76835
# Velocity P-wave (km/s) = 6.52347 5.23409 5.91403
#
# Compressibility (1/GPa) = 0.03320418
#
# Stress axis : x y z
#
# Youngs Moduli (GPa) = 55.71191 55.71191 77.00401
#
# Poissons Ratio (x) = 0.44401 -0.00497
# Poissons Ratio (y) = 0.44401 -0.00497
# Poissons Ratio (z) = -0.00360 -0.00360
#
# Static dielectric constant tensor:
#      x y z
#    x 1.668920 0.000000 0.000000 
#    y 0.000000 1.668920 0.000000 
#    z 0.000000 0.000000 1.765490 
# 
# From -- ./inp_files/999.got.cif
#   From: 2010.05.17/outbox.cif.g08.bks.cpg/sg122_1_cif.got.tgz:999.got - 2010.05.20 11:37:33.
