data_PCOD9561820
_publ_section_title
;
Structure prediction by ZEFSAII (Michael W. Deem and Ramdas Pophale) SiO2 
 PCOD9561820
Probable space group: P 4/M M M
;
_chemical_formula_sum "Si O2"
_cell_formula_units_Z 128
_cell_length_a 18.124229
_cell_length_b 18.124229
_cell_length_c 23.259841
_cell_angle_alpha 90.000000
_cell_angle_beta 90.000000
_cell_angle_gamma 90.000000
_cell_volume 7640.571134
_symmetry_space_group_name_H-M "P 4/M M M"
_symmetry_group_IT_number 123
_symmetry_cell_setting 'tetragonal'
loop_
_space_group_symop_operation_xyz
x,y,z
-y,x,z
-x,-y,z
y,-x,z
x,-y,-z
-x,y,-z
y,x,-z
-y,-x,-z
-x,-y,-z
y,-x,-z
x,y,-z
-y,x,-z
-x,y,z
x,-y,z
-y,-x,z
y,x,z
loop_
_atom_site_type_symbol
_atom_site_label
_atom_site_fract_x
_atom_site_fract_y
_atom_site_fract_z
Si Si1 0.289313 0.411081 0.841972
Si Si2 0.917298 0.665552 0.674798
Si Si3 0.799378 0.327101 0.064514
Si Si4 0.295783 0.413090 0.596604
Si Si5 0.702726 0.825898 0.565095
Si Si6 0.586425 0.227051 0.280775
Si Si7 0.079840 0.802219 0.760679
Si Si8 0.913581 0.790776 0.897163
O O1 0.300583 0.500000 0.842738
O O2 0.364608 0.364608 0.852716
O O3 0.228431 0.386051 0.888891
O O4 0.258456 0.385398 0.779575
O O5 0.888360 0.693052 0.612864
O O6 0.852558 0.615154 0.700012
O O7 0.920168 0.732482 0.719671
O O8 0.000000 0.633655 0.670597
O O9 0.736603 0.263398 0.066154
O O10 0.874292 0.282151 0.077889
O O11 0.802176 0.357818 0.000000
O O12 0.296010 0.500000 0.583893
O O13 0.370674 0.370674 0.580588
O O14 0.228048 0.368649 0.568270
O O15 0.281002 0.402326 0.664974
O O16 0.710701 0.853405 0.500000
O O17 0.772107 0.772107 0.578597
O O18 0.500000 0.220100 0.272378
O O19 0.144313 0.855687 0.742637
O O20 0.089775 0.782898 0.827786
O O21 0.000000 0.839783 0.756324
O O22 0.862195 0.862195 0.912148
O O23 0.000000 0.798870 0.913356
#
# Coordination Sequence:
#
# PCOD9561820 Si02
#       8
#    16  16  16  16  16  16  16  16
#     4  10  20  34  54  78 102 129 161 199 244 294
#     4  10  19  30  48  72  94 119 156 202 241 272
#     4   9  18  32  49  69  95 130 169 204 241 292
#     4   9  17  29  46  68  93 121 153 189 230 280
#     4   9  18  32  48  65  89 124 160 193 237 292
#     4   9  18  32  48  68  96 127 155 184 228 287
#     4   9  17  28  43  66  94 121 150 185 228 278
#     4   9  17  29  47  72 101 133 169 210 255 301
#
# _framework density 16.752675
#
# number of rings (size 3 to 8) (size 9 to 14) (size 15 to 20)
#    0.000    2.750    0.000    1.500    0.000    4.250 
#    0.000    1.250    0.000    3.375    0.000    9.625 
#    0.000    0.000    0.000   11.625    0.000    0.125 
#
# Total GULP energy -712690.400307 kJ/mol
# GULP energy per Si atom -5567.893752 kJ/mol
# Density = 1.671454 g / cm^3
# Si number density = 16.752675 Si / 1000 Ang^3
#
#
#
# Elastic Constant Matrix: (Units=GPa)
#
#
# Indices 1 2 3 4 5 6 
#
# 1 -76.6640 162.3297 14.3712 0.0000 0.0000 0.0000
# 2 162.3297 -76.6640 14.3712 0.0000 0.0000 0.0000
# 3 14.3712 14.3712 59.7135 0.0000 0.0000 0.0000
# 4 0.0000 0.0000 0.0000 4.9229 0.0000 0.0000
# 5 0.0000 0.0000 0.0000 0.0000 4.9229 0.0000
# 6 0.0000 0.0000 0.0000 0.0000 0.0000 30.0201
#
#
#
# Elastic Compliance Matrix: (Units=1/GPa)
#
#
# Indices 1 2 3 4 5 6 
#
# 1 0.004257 0.008441 -0.003056 0.000000 0.000000 0.000000
# 2 0.008441 0.004257 -0.003056 0.000000 0.000000 0.000000
# 3 -0.003056 -0.003056 0.018218 0.000000 0.000000 0.000000
# 4 0.000000 0.000000 0.000000 0.203133 0.000000 0.000000
# 5 0.000000 0.000000 0.000000 0.000000 0.203133 0.000000
# 6 0.000000 0.000000 0.000000 0.000000 0.000000 0.033311
#
#
# Mechanical properties :
#
#
# Convention : Reuss Voigt Hill
#
# Bulk Modulus (GPa) = 31.85692 32.05884 31.95788
# Shear Modulus (GPa) = 10.59066 -11.00592 -0.20763
#
# Velocity S-wave (km/s) = 2.51704 -2.56591 -0.35243
# Velocity P-wave (km/s) = 5.24449 3.22483 4.35340
#
# Compressibility (1/GPa) = 0.03139035
#
# Stress axis : x y z
#
# Youngs Moduli (GPa) = 234.89427 234.89427 54.89173
#
# Poissons Ratio (x) = -1.98285 0.16776
# Poissons Ratio (y) = -1.98285 0.16776
# Poissons Ratio (z) = 0.71788 0.71788
#
# Static dielectric constant tensor:
#      x y z
#    x 1.578810 0.000000 0.000000 
#    y 0.000000 1.578810 0.000000 
#    z 0.000000 0.000000 1.594050 
# 
# From -- ./inp_files/7691.got.cif
#   From: 2010.05.17/outbox.cif.g08.bks.cpg/sg123_4_cif.got.tgz:7691.got - 2010.05.20 11:43:04.
