data_PCOD9561061
_publ_section_title
;
Structure prediction by ZEFSAII (Michael W. Deem and Ramdas Pophale) SiO2 
 PCOD9561061
Probable space group: I -4 2 D
;
_chemical_formula_sum "Si O2"
_cell_formula_units_Z 84
_cell_length_a 21.057464
_cell_length_b 21.057464
_cell_length_c 10.440197
_cell_angle_alpha 90.000000
_cell_angle_beta 90.000000
_cell_angle_gamma 90.000000
_cell_volume 4629.358642
_symmetry_space_group_name_H-M "I -4 2 D"
_symmetry_group_IT_number 122
_symmetry_cell_setting 'tetragonal'
loop_
_space_group_symop_operation_xyz
x,y,z
y,-x,-z
-x,-y,z
-y,x,-z
x,1/2-y,1/4-z
-x,1/2+y,1/4-z
-y,1/2-x,1/4+z
y,1/2+x,1/4+z
1/2+x,1/2+y,1/2+z
1/2+y,1/2-x,1/2-z
1/2-x,1/2-y,1/2+z
1/2-y,1/2+x,1/2-z
1/2+x,-y,3/4-z
1/2-x,y,3/4-z
1/2-y,-x,3/4+z
1/2+y,x,3/4+z
loop_
_atom_site_type_symbol
_atom_site_label
_atom_site_fract_x
_atom_site_fract_y
_atom_site_fract_z
Si Si1 0.326729 0.474861 0.378309
Si Si2 0.489205 0.869904 0.346014
Si Si3 0.604308 0.134834 0.123176
Si Si4 0.621106 0.383781 0.412759
Si Si5 0.700872 0.250000 0.125000
Si Si6 0.250000 0.695950 0.375000
Si Si7 0.000000 0.500000 0.750000
O O1 0.250000 0.479634 0.375000
O O2 0.343370 0.464166 0.228955
O O3 0.354827 0.420543 0.471901
O O4 0.359891 0.541739 0.419926
O O5 0.453088 0.847665 0.218542
O O6 0.565731 0.865722 0.342882
O O7 0.475568 0.945065 0.340766
O O8 0.656539 0.188703 0.138485
O O9 0.585854 0.128265 0.973704
O O10 0.687936 0.346985 0.397519
O O11 0.741354 0.261049 0.250926
#
# Coordination Sequence:
#
# PCOD9561061 Si02
#       7
#    16  16  16  16   8   8   4
#     4  11  24  39  62  92 121 164 203 254 312 375
#     4   9  19  36  61  86 116 147 200 247 307 355
#     4   9  20  38  58  85 115 157 190 259 297 365
#     4  10  23  42  63  86 129 155 201 257 316 362
#     4  10  22  36  58  80 118 162 206 230 312 362
#     4  10  22  42  56  84 120 164 196 260 292 374
#     4   8  16  36  60  82 116 148 184 254 300 348
#
# _framework density 18.145061999999999
#
# number of rings (size 3 to 8) (size 9 to 14) (size 15 to 20)
#    0.000    2.286    0.952    0.000    6.667    6.476 
#    0.000    0.952    0.000    0.000    0.000    0.000 
#    0.000    0.000    0.000    0.000    0.000    0.000 
#
# Total GULP energy -233931.790197 kJ/mol
# GULP energy per Si atom -5569.804528 kJ/mol
# Density = 1.810376 g / cm^3
# Si number density = 18.145062 Si / 1000 Ang^3
#
#
#
# Elastic Constant Matrix: (Units=GPa)
#
#
# Indices 1 2 3 4 5 6 
#
# 1 79.8677 24.6533 76.6483 0.0000 0.0000 0.0000
# 2 24.6533 79.8677 76.6483 0.0000 0.0000 0.0000
# 3 76.6483 76.6483 153.6806 0.0000 0.0000 0.0000
# 4 0.0000 0.0000 0.0000 32.1723 0.0000 0.0000
# 5 0.0000 0.0000 0.0000 0.0000 32.1723 0.0000
# 6 0.0000 0.0000 0.0000 0.0000 0.0000 9.1616
#
#
#
# Elastic Compliance Matrix: (Units=1/GPa)
#
#
# Indices 1 2 3 4 5 6 
#
# 1 0.026872 0.008761 -0.017772 0.000000 0.000000 0.000000
# 2 0.008761 0.026872 -0.017772 0.000000 0.000000 0.000000
# 3 -0.017772 -0.017772 0.024234 0.000000 0.000000 0.000000
# 4 0.000000 0.000000 0.000000 0.031083 0.000000 0.000000
# 5 0.000000 0.000000 0.000000 0.000000 0.031083 0.000000
# 6 0.000000 0.000000 0.000000 0.000000 0.000000 0.109151
#
#
# Mechanical properties :
#
#
# Convention : Reuss Voigt Hill
#
# Bulk Modulus (GPa) = 40.96267 74.36839 57.66553
# Shear Modulus (GPa) = 16.07729 23.73231 19.90480
#
# Velocity S-wave (km/s) = 2.97987 3.62044 3.31566
# Velocity P-wave (km/s) = 5.87058 7.65188 6.81964
#
# Compressibility (1/GPa) = 0.02441247
#
# Stress axis : x y z
#
# Youngs Moduli (GPa) = 37.21356 37.21356 41.26369
#
# Poissons Ratio (x) = -0.32602 0.73333
# Poissons Ratio (y) = -0.32602 0.73333
# Poissons Ratio (z) = 0.66135 0.66135
#
# Static dielectric constant tensor:
#      x y z
#    x 1.636810 0.000000 0.000000 
#    y 0.000000 1.636810 0.000000 
#    z 0.000000 0.000000 1.715520 
# 
# From -- ./inp_files/4424.got.cif
#   From: 2010.05.17/outbox.cif.g08.bks.cpg/sg122_3_cif.got.tgz:4424.got - 2010.05.20 11:37:33.
