data_PCOD9561238
_publ_section_title
;
Structure prediction by ZEFSAII (Michael W. Deem and Ramdas Pophale) SiO2 
 PCOD9561238
Probable space group: I -4 2 D
;
_chemical_formula_sum "Si O2"
_cell_formula_units_Z 40
_cell_length_a 11.157989
_cell_length_b 11.157989
_cell_length_c 12.136954
_cell_angle_alpha 90.000000
_cell_angle_beta 90.000000
_cell_angle_gamma 90.000000
_cell_volume 1511.059494
_symmetry_space_group_name_H-M "I -4 2 D"
_symmetry_group_IT_number 122
_symmetry_cell_setting 'tetragonal'
loop_
_space_group_symop_operation_xyz
x,y,z
y,-x,-z
-x,-y,z
-y,x,-z
x,1/2-y,1/4-z
-x,1/2+y,1/4-z
-y,1/2-x,1/4+z
y,1/2+x,1/4+z
1/2+x,1/2+y,1/2+z
1/2+y,1/2-x,1/2-z
1/2-x,1/2-y,1/2+z
1/2-y,1/2+x,1/2-z
1/2+x,-y,3/4-z
1/2-x,y,3/4-z
1/2-y,-x,3/4+z
1/2+y,x,3/4+z
loop_
_atom_site_type_symbol
_atom_site_label
_atom_site_fract_x
_atom_site_fract_y
_atom_site_fract_z
Si Si1 0.250000 0.980121 0.375000
Si Si2 0.596395 0.349116 0.484472
Si Si3 0.200437 0.914778 0.616530
O O1 0.133480 0.067502 0.366912
O O2 0.233470 0.911570 0.488702
O O3 0.482155 0.376182 0.566062
O O4 0.715718 0.336409 0.552961
O O5 0.547708 0.245207 0.406484
#
# Coordination Sequence:
#
# PCOD9561238 Si02
#       3
#     8  16  16
#     4  12  28  48  68 114 150 184 230 332 398 414
#     4   7  16  46  71 101 124 200 254 277 310 472
#     4  10  23  49  71 106 147 193 241 306 376 449
#
# _framework density 26.471492999999999
#
# number of rings (size 3 to 8) (size 9 to 14) (size 15 to 20)
#    2.400    0.400    0.000    0.000    0.000    5.600 
#   28.800    0.000    0.000    0.000    0.000    0.000 
#    0.000    0.000    0.000    0.000    0.000    0.000 
#
# Total GULP energy -111389.565926 kJ/mol
# GULP energy per Si atom -5569.478296 kJ/mol
# Density = 2.641124 g / cm^3
# Si number density = 26.471493 Si / 1000 Ang^3
#
#
#
# Elastic Constant Matrix: (Units=GPa)
#
#
# Indices 1 2 3 4 5 6 
#
# 1 109.7997 31.7938 49.4638 0.0000 0.0000 0.0000
# 2 31.7938 109.7997 49.4637 0.0000 0.0000 0.0000
# 3 49.4638 49.4637 105.0745 0.0000 0.0000 0.0000
# 4 0.0000 0.0000 0.0000 48.4138 0.0000 0.0000
# 5 0.0000 0.0000 0.0000 0.0000 48.4138 0.0000
# 6 0.0000 0.0000 0.0000 0.0000 0.0000 43.9077
#
#
#
# Elastic Compliance Matrix: (Units=1/GPa)
#
#
# Indices 1 2 3 4 5 6 
#
# 1 0.011672 -0.001148 -0.004954 0.000000 0.000000 0.000000
# 2 -0.001148 0.011672 -0.004954 0.000000 0.000000 0.000000
# 3 -0.004954 -0.004954 0.014181 0.000000 0.000000 0.000000
# 4 0.000000 0.000000 0.000000 0.020655 0.000000 0.000000
# 5 0.000000 0.000000 0.000000 0.000000 0.020655 0.000000
# 6 0.000000 0.000000 0.000000 0.000000 0.000000 0.022775
#
#
# Mechanical properties :
#
#
# Convention : Reuss Voigt Hill
#
# Bulk Modulus (GPa) = 64.88208 65.12405 65.00307
# Shear Modulus (GPa) = 38.80193 41.07725 39.93959
#
# Velocity S-wave (km/s) = 3.83273 3.94350 3.88851
# Velocity P-wave (km/s) = 6.64453 6.73721 6.69103
#
# Compressibility (1/GPa) = 0.01541258
#
# Stress axis : x y z
#
# Youngs Moduli (GPa) = 85.67784 85.67784 70.51550
#
# Poissons Ratio (x) = 0.09835 0.34934
# Poissons Ratio (y) = 0.09835 0.34934
# Poissons Ratio (z) = 0.42445 0.42445
#
# Static dielectric constant tensor:
#      x y z
#    x 2.225100 0.000000 0.000000 
#    y 0.000000 2.225100 0.000000 
#    z 0.000000 0.000000 1.969790 
# 
# From -- ./inp_files/3695.got.cif
#   From: 2010.05.17/outbox.cif.g08.bks.cpg/sg122_2_cif.got.tgz:3695.got - 2010.05.20 11:37:33.
