data_PCOD9561189
_publ_section_title
;
Structure prediction by ZEFSAII (Michael W. Deem and Ramdas Pophale) SiO2 
 PCOD9561189
Probable space group: I -4 2 D
;
_chemical_formula_sum "Si O2"
_cell_formula_units_Z 60
_cell_length_a 10.299097
_cell_length_b 10.299097
_cell_length_c 22.559250
_cell_angle_alpha 90.000000
_cell_angle_beta 90.000000
_cell_angle_gamma 90.000000
_cell_volume 2392.891208
_symmetry_space_group_name_H-M "I -4 2 D"
_symmetry_group_IT_number 122
_symmetry_cell_setting 'tetragonal'
loop_
_space_group_symop_operation_xyz
x,y,z
y,-x,-z
-x,-y,z
-y,x,-z
x,1/2-y,1/4-z
-x,1/2+y,1/4-z
-y,1/2-x,1/4+z
y,1/2+x,1/4+z
1/2+x,1/2+y,1/2+z
1/2+y,1/2-x,1/2-z
1/2-x,1/2-y,1/2+z
1/2-y,1/2+x,1/2-z
1/2+x,-y,3/4-z
1/2-x,y,3/4-z
1/2-y,-x,3/4+z
1/2+y,x,3/4+z
loop_
_atom_site_type_symbol
_atom_site_label
_atom_site_fract_x
_atom_site_fract_y
_atom_site_fract_z
Si Si1 0.000000 0.500000 0.750000
Si Si2 0.412550 0.353861 0.460674
Si Si3 0.391634 0.656115 0.352071
Si Si4 0.750000 0.092815 0.375000
Si Si5 0.087756 0.784513 0.723127
O O1 0.935704 0.371058 0.721225
O O2 0.337616 0.477624 0.487771
O O3 0.495123 0.365189 0.399999
O O4 0.316645 0.234838 0.456900
O O5 0.250000 0.601025 0.375000
O O6 0.353861 0.808642 0.347514
O O7 0.434933 0.638571 0.284590
O O8 0.827256 0.009923 0.327584
#
# Coordination Sequence:
#
# PCOD9561189 Si02
#       5
#     4  16  16   8  16
#     4  12  24  48  72 116 152 204 268 344 406 484
#     4  11  25  49  75 107 161 215 268 331 408 505
#     4  10  22  49  72 107 153 207 268 334 407 495
#     4  10  24  42  72 114 146 192 262 338 404 482
#     4  12  25  44  77 115 157 206 269 339 420 485
#
# _framework density 25.074269999999999
#
# number of rings (size 3 to 8) (size 9 to 14) (size 15 to 20)
#    0.800    0.267    5.333    0.000    3.733    1.067 
#    0.000   13.333    0.000    0.000    0.000    0.000 
#    0.000    0.000    0.000    0.000    0.000    0.000 
#
# Total GULP energy -167332.083301 kJ/mol
# GULP energy per Si atom -5577.736110 kJ/mol
# Density = 2.501720 g / cm^3
# Si number density = 25.074270 Si / 1000 Ang^3
#
#
#
# Elastic Constant Matrix: (Units=GPa)
#
#
# Indices 1 2 3 4 5 6 
#
# 1 94.4853 40.9729 8.5675 0.0000 0.0000 0.0000
# 2 40.9729 94.4853 8.5675 0.0000 0.0000 0.0000
# 3 8.5675 8.5675 156.6070 0.0000 0.0000 0.0000
# 4 0.0000 0.0000 0.0000 19.4922 0.0000 0.0000
# 5 0.0000 0.0000 0.0000 0.0000 19.4922 0.0000
# 6 0.0000 0.0000 0.0000 0.0000 0.0000 51.3849
#
#
#
# Elastic Compliance Matrix: (Units=1/GPa)
#
#
# Indices 1 2 3 4 5 6 
#
# 1 0.013061 -0.005627 -0.000407 0.000000 0.000000 0.000000
# 2 -0.005627 0.013061 -0.000407 0.000000 0.000000 0.000000
# 3 -0.000407 -0.000407 0.006430 0.000000 0.000000 0.000000
# 4 0.000000 0.000000 0.000000 0.051303 0.000000 0.000000
# 5 0.000000 0.000000 0.000000 0.000000 0.051303 0.000000
# 6 0.000000 0.000000 0.000000 0.000000 0.000000 0.019461
#
#
# Mechanical properties :
#
#
# Convention : Reuss Voigt Hill
#
# Bulk Modulus (GPa) = 50.83683 51.31037 51.07360
# Shear Modulus (GPa) = 28.72668 37.23850 32.98259
#
# Velocity S-wave (km/s) = 3.38844 3.85792 3.63077
# Velocity P-wave (km/s) = 5.96885 6.35236 6.16359
#
# Compressibility (1/GPa) = 0.01967078
#
# Stress axis : x y z
#
# Youngs Moduli (GPa) = 76.56654 76.56655 155.52328
#
# Poissons Ratio (x) = 0.43082 0.06325
# Poissons Ratio (y) = 0.43082 0.06325
# Poissons Ratio (z) = 0.03114 0.03114
#
# Static dielectric constant tensor:
#      x y z
#    x 2.019870 0.000000 0.000000 
#    y 0.000000 2.019870 0.000000 
#    z 0.000000 0.000000 2.028530 
# 
# From -- ./inp_files/7792.got.cif
#   From: 2010.05.17/outbox.cif.g08.bks.cpg/sg122_4_cif.got.tgz:7792.got - 2010.05.20 11:37:33.
