data_PCOD9561209
_publ_section_title
;
Structure prediction by ZEFSAII (Michael W. Deem and Ramdas Pophale) SiO2 
 PCOD9561209
Probable space group: I -4 2 D
;
_chemical_formula_sum "Si O2"
_cell_formula_units_Z 112
_cell_length_a 30.450344
_cell_length_b 30.450344
_cell_length_c 5.070036
_cell_angle_alpha 90.000000
_cell_angle_beta 90.000000
_cell_angle_gamma 90.000000
_cell_volume 4701.056270
_symmetry_space_group_name_H-M "I -4 2 D"
_symmetry_group_IT_number 122
_symmetry_cell_setting 'tetragonal'
loop_
_space_group_symop_operation_xyz
x,y,z
y,-x,-z
-x,-y,z
-y,x,-z
x,1/2-y,1/4-z
-x,1/2+y,1/4-z
-y,1/2-x,1/4+z
y,1/2+x,1/4+z
1/2+x,1/2+y,1/2+z
1/2+y,1/2-x,1/2-z
1/2-x,1/2-y,1/2+z
1/2-y,1/2+x,1/2-z
1/2+x,-y,3/4-z
1/2-x,y,3/4-z
1/2-y,-x,3/4+z
1/2+y,x,3/4+z
loop_
_atom_site_type_symbol
_atom_site_label
_atom_site_fract_x
_atom_site_fract_y
_atom_site_fract_z
Si Si1 0.902756 0.916332 0.101698
Si Si2 0.673139 0.385680 0.053549
Si Si3 0.369543 0.834338 0.599559
Si Si4 0.298239 0.703664 0.257880
Si Si5 0.750000 0.541356 0.875000
Si Si6 0.250000 0.408725 0.375000
Si Si7 0.478165 0.181392 0.413062
Si Si8 0.987331 0.622793 0.416581
O O1 0.889695 0.874494 0.292547
O O2 0.948372 0.906912 0.954222
O O3 0.860807 0.913566 0.910351
O O4 0.901107 0.965919 0.202462
O O5 0.700265 0.340877 0.091442
O O6 0.658577 0.375893 0.756183
O O7 0.699322 0.428326 0.140579
O O8 0.336996 0.808786 0.794070
O O9 0.386284 0.790170 0.459377
O O10 0.250000 0.708408 0.375000
O O11 0.307850 0.750000 0.125000
O O12 0.728105 0.567166 0.627889
O O13 0.784670 0.511920 0.712222
O O14 0.488057 0.162933 0.703059
O O15 0.475921 0.141274 0.204167
#
# Coordination Sequence:
#
# PCOD9561209 Si02
#       8
#    16  16  16  16   8   8  16  16
#     4  10  23  42  68  99 138 177 231 279 350 407
#     4  10  24  45  71  96 132 187 228 286 350 424
#     4  11  23  44  68  95 133 178 227 284 346 420
#     4  11  27  44  66  99 136 181 235 291 353 424
#     4  12  26  44  64 103 136 177 222 296 342 414
#     4  12  28  40  70 103 136 175 230 280 352 402
#     4  11  24  45  67 101 138 178 234 280 357 412
#     4  11  24  42  70 100 138 185 226 288 339 423
#
# _framework density 23.824435000000001
#
# number of rings (size 3 to 8) (size 9 to 14) (size 15 to 20)
#    0.000    1.143    1.429    3.429   12.000    1.429 
#    1.286    0.000    0.000    1.714    0.000    0.000 
#    0.000    0.000    0.000    0.000    0.000    0.000 
#
# Total GULP energy -311790.398584 kJ/mol
# GULP energy per Si atom -5567.685689 kJ/mol
# Density = 2.377021 g / cm^3
# Si number density = 23.824435 Si / 1000 Ang^3
#
#
#
# Elastic Constant Matrix: (Units=GPa)
#
#
# Indices 1 2 3 4 5 6 
#
# 1 92.9943 10.6185 1.8786 0.0000 0.0000 0.0000
# 2 10.6185 92.9943 1.8786 0.0000 0.0000 0.0000
# 3 1.8786 1.8786 58.0842 0.0000 0.0000 0.0000
# 4 0.0000 0.0000 0.0000 -23.9132 0.0000 0.0000
# 5 0.0000 0.0000 0.0000 0.0000 -23.9132 0.0000
# 6 0.0000 0.0000 0.0000 0.0000 0.0000 29.3710
#
#
#
# Elastic Compliance Matrix: (Units=1/GPa)
#
#
# Indices 1 2 3 4 5 6 
#
# 1 0.010901 -0.001238 -0.000313 0.000000 0.000000 0.000000
# 2 -0.001238 0.010901 -0.000313 0.000000 0.000000 0.000000
# 3 -0.000313 -0.000313 0.017237 0.000000 0.000000 0.000000
# 4 0.000000 0.000000 0.000000 -0.041818 0.000000 0.000000
# 5 0.000000 0.000000 0.000000 0.000000 -0.041818 0.000000
# 6 0.000000 0.000000 0.000000 0.000000 0.000000 0.034047
#
#
# Mechanical properties :
#
#
# Convention : Reuss Voigt Hill
#
# Bulk Modulus (GPa) = 28.31912 30.31380 29.31646
# Shear Modulus (GPa) = 1010.56851 11.62204 511.09528
#
# Velocity S-wave (km/s) = 20.61781 2.21106 14.66258
# Velocity P-wave (km/s) = 24.05627 4.38974 17.29124
#
# Compressibility (1/GPa) = 0.03531184
#
# Stress axis : x y z
#
# Youngs Moduli (GPa) = 91.73408 91.73408 58.01606
#
# Poissons Ratio (x) = 0.11361 0.01813
# Poissons Ratio (y) = 0.11361 0.01813
# Poissons Ratio (z) = 0.02867 0.02867
#
# Static dielectric constant tensor:
#      x y z
#    x 2.275880 0.000000 0.000000 
#    y 0.000000 2.275880 0.000000 
#    z 0.000000 0.000000 1.769290 
# 
# From -- ./inp_files/1565.got.cif
#   From: 2010.05.17/outbox.cif.g08.bks.cpg/sg122_1_cif.got.tgz:1565.got - 2010.05.20 11:37:33.
