data_PCOD9561821
_publ_section_title
;
Structure prediction by ZEFSAII (Michael W. Deem and Ramdas Pophale) SiO2 
 PCOD9561821
Probable space group: P 4/M M M
;
_chemical_formula_sum "Si O2"
_cell_formula_units_Z 120
_cell_length_a 28.284757
_cell_length_b 28.284757
_cell_length_c 7.543896
_cell_angle_alpha 90.000000
_cell_angle_beta 90.000000
_cell_angle_gamma 90.000000
_cell_volume 6035.324095
_symmetry_space_group_name_H-M "P 4/M M M"
_symmetry_group_IT_number 123
_symmetry_cell_setting 'tetragonal'
loop_
_space_group_symop_operation_xyz
x,y,z
-y,x,z
-x,-y,z
y,-x,z
x,-y,-z
-x,y,-z
y,x,-z
-y,-x,-z
-x,-y,-z
y,-x,-z
x,y,-z
-y,x,-z
-x,y,z
x,-y,z
-y,-x,z
y,x,z
loop_
_atom_site_type_symbol
_atom_site_label
_atom_site_fract_x
_atom_site_fract_y
_atom_site_fract_z
Si Si1 0.942646 0.500000 0.705883
Si Si2 0.446525 0.370013 0.717329
Si Si3 0.699366 0.775665 0.202130
Si Si4 0.395028 0.944673 0.282874
Si Si5 0.692748 0.881604 0.296744
Si Si6 0.703824 0.376740 0.298460
Si Si7 0.204446 0.869568 0.291481
Si Si8 0.053009 0.126755 0.214506
O O1 0.927358 0.500000 0.500000
O O2 0.929555 0.447987 0.779165
O O3 0.000000 0.500000 0.708207
O O4 0.445286 0.369089 0.500000
O O5 0.500000 0.375969 0.773743
O O6 0.413134 0.413134 0.773761
O O7 0.423616 0.320332 0.775863
O O8 0.741708 0.741708 0.275917
O O9 0.687568 0.824772 0.295190
O O10 0.652169 0.744166 0.202561
O O11 0.712100 0.786850 0.000000
O O12 0.396822 0.943416 0.500000
O O13 0.352055 0.910633 0.222926
O O14 0.387132 0.000000 0.234416
O O15 0.696142 0.898600 0.500000
O O16 0.745258 0.885477 0.214200
O O17 0.719978 0.385082 0.500000
O O18 0.659765 0.340236 0.305764
O O19 0.212579 0.859452 0.500000
O O20 0.176688 0.823313 0.217905
O O21 0.168088 0.912465 0.276231
O O22 0.077766 0.077766 0.267189
O O23 0.000000 0.131709 0.279483
O O24 0.052527 0.128333 0.000000
#
# Coordination Sequence:
#
# PCOD9561821 Si02
#       8
#     8  16  16  16  16  16  16  16
#     4   7  10  20  40  64  91 119 143 173 213 253
#     4   8  13  21  36  61  91 121 153 190 233 279
#     4  10  20  32  47  67  90 118 153 192 232 274
#     4   8  14  25  43  69  97 122 149 181 217 258
#     4  10  19  30  48  73  97 120 149 186 226 268
#     4   8  14  26  44  63  84 113 149 188 227 268
#     4   9  18  31  45  63  90 123 154 184 225 279
#     4   9  18  32  49  68  90 119 156 196 236 276
#
# _framework density 19.882943999999998
#
# number of rings (size 3 to 8) (size 9 to 14) (size 15 to 20)
#    0.000    3.267    0.000    2.400    0.000    2.933 
#    0.000    4.000    1.467    0.800    0.000    1.867 
#    0.000    1.600    0.000    5.200    0.000    5.333 
#
# Total GULP energy -668014.623662 kJ/mol
# GULP energy per Si atom -5566.788531 kJ/mol
# Density = 1.983769 g / cm^3
# Si number density = 19.882944 Si / 1000 Ang^3
#
#
#
# Elastic Constant Matrix: (Units=GPa)
#
#
# Indices 1 2 3 4 5 6 
#
# 1 96.0437 117.5906 4.3338 0.0000 0.0000 0.0000
# 2 117.5906 96.0437 4.3338 0.0000 0.0000 0.0000
# 3 4.3338 4.3338 47.8094 0.0000 0.0000 0.0000
# 4 0.0000 0.0000 0.0000 -2.9871 0.0000 0.0000
# 5 0.0000 0.0000 0.0000 0.0000 -2.9871 0.0000
# 6 0.0000 0.0000 0.0000 0.0000 0.0000 32.5506
#
#
#
# Elastic Compliance Matrix: (Units=1/GPa)
#
#
# Indices 1 2 3 4 5 6 
#
# 1 -0.020856 0.025554 -0.000426 0.000000 0.000000 0.000000
# 2 0.025554 -0.020856 -0.000426 0.000000 0.000000 0.000000
# 3 -0.000426 -0.000426 0.020994 0.000000 0.000000 0.000000
# 4 0.000000 0.000000 0.000000 -0.334778 0.000000 0.000000
# 5 0.000000 0.000000 0.000000 0.000000 -0.334778 0.000000
# 6 0.000000 0.000000 0.000000 0.000000 0.000000 0.030721
#
#
# Mechanical properties :
#
#
# Convention : Reuss Voigt Hill
#
# Bulk Modulus (GPa) = 34.85969 54.71257 44.78613
# Shear Modulus (GPa) = -7.14904 12.89120 2.87108
#
# Velocity S-wave (km/s) = -1.89825 2.54904 1.20297
# Velocity P-wave (km/s) = 3.57296 6.02001 4.95008
#
# Compressibility (1/GPa) = 0.02868643
#
# Stress axis : x y z
#
# Youngs Moduli (GPa) = -47.94773 -47.94773 47.63362
#
# Poissons Ratio (x) = 1.22527 0.02029
# Poissons Ratio (y) = 1.22527 0.02029
# Poissons Ratio (z) = -0.02042 -0.02042
#
# Static dielectric constant tensor:
#      x y z
#    x 1.709000 0.000000 0.000000 
#    y 0.000000 1.709000 0.000000 
#    z 0.000000 0.000000 1.785960 
# 
# From -- ./inp_files/2006.got.cif
#   From: 2010.05.17/outbox.cif.g08.bks.cpg/sg123_2_cif.got.tgz:2006.got - 2010.05.20 11:43:04.
