data_PCOD9561125
_publ_section_title
;
Structure prediction by ZEFSAII (Michael W. Deem and Ramdas Pophale) SiO2 
 PCOD9561125
Probable space group: I -4 2 D
;
_chemical_formula_sum "Si O2"
_cell_formula_units_Z 80
_cell_length_a 13.531946
_cell_length_b 13.531946
_cell_length_c 19.173476
_cell_angle_alpha 90.000000
_cell_angle_beta 90.000000
_cell_angle_gamma 90.000000
_cell_volume 3510.923497
_symmetry_space_group_name_H-M "I -4 2 D"
_symmetry_group_IT_number 122
_symmetry_cell_setting 'tetragonal'
loop_
_space_group_symop_operation_xyz
x,y,z
y,-x,-z
-x,-y,z
-y,x,-z
x,1/2-y,1/4-z
-x,1/2+y,1/4-z
-y,1/2-x,1/4+z
y,1/2+x,1/4+z
1/2+x,1/2+y,1/2+z
1/2+y,1/2-x,1/2-z
1/2-x,1/2-y,1/2+z
1/2-y,1/2+x,1/2-z
1/2+x,-y,3/4-z
1/2-x,y,3/4-z
1/2-y,-x,3/4+z
1/2+y,x,3/4+z
loop_
_atom_site_type_symbol
_atom_site_label
_atom_site_fract_x
_atom_site_fract_y
_atom_site_fract_z
Si Si1 0.645317 0.624367 0.412913
Si Si2 0.069198 0.762758 0.550921
Si Si3 0.707874 0.077164 0.805458
Si Si4 0.946693 0.797755 0.415430
Si Si5 0.463540 0.108006 0.473798
O O1 0.750000 0.640782 0.375000
O O2 0.630692 0.506821 0.420438
O O3 0.640455 0.666131 0.492037
O O4 0.567876 0.689202 0.368209
O O5 0.013274 0.750000 0.625000
O O6 0.155610 0.839661 0.568204
O O7 0.107017 0.655292 0.529423
O O8 0.005340 0.799480 0.486800
O O9 0.750000 0.129017 0.875000
O O10 0.800228 0.014273 0.773513
O O11 0.996023 0.864335 0.354800
O O12 0.500000 0.000000 0.494126
#
# Coordination Sequence:
#
# PCOD9561125 Si02
#       5
#    16  16  16  16  16
#     4  10  22  44  67  96 139 180 223 293 340 403
#     4  10  23  40  65 102 134 179 228 280 350 418
#     4  10  23  42  67  98 133 180 233 278 350 417
#     4  10  22  41  68  94 142 178 223 290 345 416
#     4  10  23  42  63  99 132 174 233 282 343 419
#
# _framework density 22.786028000000002
#
# number of rings (size 3 to 8) (size 9 to 14) (size 15 to 20)
#    0.000    2.000    0.000    3.000   11.200    3.600 
#    0.000    4.000    0.000    0.000    0.000    0.000 
#    0.000    0.000    0.000    0.000    0.000    0.000 
#
# Total GULP energy -223374.963507 kJ/mol
# GULP energy per Si atom -5584.374088 kJ/mol
# Density = 2.273417 g / cm^3
# Si number density = 22.786028 Si / 1000 Ang^3
#
#
#
# Elastic Constant Matrix: (Units=GPa)
#
#
# Indices 1 2 3 4 5 6 
#
# 1 65.7465 5.7475 28.3709 0.0000 0.0000 0.0000
# 2 5.7475 65.7465 28.3709 0.0000 0.0000 0.0000
# 3 28.3709 28.3709 164.2383 0.0000 0.0000 0.0000
# 4 0.0000 0.0000 0.0000 33.7809 0.0000 0.0000
# 5 0.0000 0.0000 0.0000 0.0000 33.7809 0.0000
# 6 0.0000 0.0000 0.0000 0.0000 0.0000 19.8349
#
#
#
# Elastic Compliance Matrix: (Units=1/GPa)
#
#
# Indices 1 2 3 4 5 6 
#
# 1 0.016438 -0.000229 -0.002800 0.000000 0.000000 0.000000
# 2 -0.000229 0.016438 -0.002800 0.000000 0.000000 0.000000
# 3 -0.002800 -0.002800 0.007056 0.000000 0.000000 0.000000
# 4 0.000000 0.000000 0.000000 0.029603 0.000000 0.000000
# 5 0.000000 0.000000 0.000000 0.000000 0.029603 0.000000
# 6 0.000000 0.000000 0.000000 0.000000 0.000000 0.050416
#
#
# Mechanical properties :
#
#
# Convention : Reuss Voigt Hill
#
# Bulk Modulus (GPa) = 35.36716 46.74555 41.05636
# Shear Modulus (GPa) = 29.30206 33.02881 31.16543
#
# Velocity S-wave (km/s) = 3.58993 3.81139 3.70231
# Velocity P-wave (km/s) = 5.72176 6.31890 6.02773
#
# Compressibility (1/GPa) = 0.02827481
#
# Stress axis : x y z
#
# Youngs Moduli (GPa) = 60.83383 60.83383 141.72144
#
# Poissons Ratio (x) = 0.01391 0.39683
# Poissons Ratio (y) = 0.01391 0.39683
# Poissons Ratio (z) = 0.17034 0.17034
#
# Static dielectric constant tensor:
#      x y z
#    x 1.882800 0.000000 0.000000 
#    y 0.000000 1.882800 0.000000 
#    z 0.000000 0.000000 1.879270 
# 
# From -- ./inp_files/7064.got.cif
#   From: 2010.05.17/outbox.cif.g08.bks.cpg/sg122_4_cif.got.tgz:7064.got - 2010.05.20 11:37:33.
