data_PCOD9561806
_publ_section_title
;
Structure prediction by ZEFSAII (Michael W. Deem and Ramdas Pophale) SiO2 
 PCOD9561806
Probable space group: P 4/M M M
;
_chemical_formula_sum "Si O2"
_cell_formula_units_Z 80
_cell_length_a 18.791951
_cell_length_b 18.791951
_cell_length_c 13.813532
_cell_angle_alpha 90.000000
_cell_angle_beta 90.000000
_cell_angle_gamma 90.000000
_cell_volume 4878.075085
_symmetry_space_group_name_H-M "P 4/M M M"
_symmetry_group_IT_number 123
_symmetry_cell_setting 'tetragonal'
loop_
_space_group_symop_operation_xyz
x,y,z
-y,x,z
-x,-y,z
y,-x,z
x,-y,-z
-x,y,-z
y,x,-z
-y,-x,-z
-x,-y,-z
y,-x,-z
x,y,-z
-y,x,-z
-x,y,z
x,-y,z
-y,-x,z
y,x,z
loop_
_atom_site_type_symbol
_atom_site_label
_atom_site_fract_x
_atom_site_fract_y
_atom_site_fract_z
Si Si1 0.220283 0.585378 0.606791
Si Si2 0.801833 0.919007 0.613813
Si Si3 0.918323 0.351851 0.700132
Si Si4 0.415575 0.700211 0.802853
Si Si5 0.145344 0.415506 0.110743
O O1 0.239775 0.612407 0.500000
O O2 0.220450 0.500000 0.604714
O O3 0.141083 0.609699 0.635239
O O4 0.272794 0.604517 0.694509
O O5 0.781936 0.910250 0.500000
O O6 0.861807 0.861807 0.636957
O O7 0.731630 0.910423 0.677823
O O8 0.828170 0.000000 0.624827
O O9 0.898889 0.372435 0.809938
O O10 0.000000 0.371788 0.678133
O O11 0.500000 0.682826 0.805087
O O12 0.365329 0.634672 0.830055
O O13 0.404611 0.770551 0.868295
O O14 0.132273 0.500000 0.126350
O O15 0.128464 0.398031 0.000000
#
# Coordination Sequence:
#
# PCOD9561806 Si02
#       5
#    16  16  16  16  16
#     4   9  18  31  45  63  91 128 162 186 217 269
#     4   9  18  32  49  70  97 127 157 190 228 270
#     4  10  19  30  46  71  99 121 149 192 234 269
#     4   9  18  32  49  69  92 118 152 195 238 279
#     4   9  19  35  51  67  91 124 158 190 228 277
#
# _framework density 16.399910999999999
#
# number of rings (size 3 to 8) (size 9 to 14) (size 15 to 20)
#    0.000    2.800    0.000    2.400    0.000    7.600 
#    0.000    3.000    0.000    0.000    0.000    5.600 
#    0.000    0.000    0.000    4.400    0.000    0.200 
#
# Total GULP energy -445773.398043 kJ/mol
# GULP energy per Si atom -5572.167476 kJ/mol
# Density = 1.636258 g / cm^3
# Si number density = 16.399911 Si / 1000 Ang^3
#
#
#
# Elastic Constant Matrix: (Units=GPa)
#
#
# Indices 1 2 3 4 5 6 
#
# 1 40.7606 29.9796 6.4801 0.0000 0.0000 0.0000
# 2 29.9796 40.7606 6.4801 0.0000 0.0000 0.0000
# 3 6.4801 6.4801 57.6486 0.0000 0.0000 0.0000
# 4 0.0000 0.0000 0.0000 9.8963 0.0000 0.0000
# 5 0.0000 0.0000 0.0000 0.0000 9.8963 0.0000
# 6 0.0000 0.0000 0.0000 0.0000 0.0000 33.7943
#
#
#
# Elastic Compliance Matrix: (Units=1/GPa)
#
#
# Indices 1 2 3 4 5 6 
#
# 1 0.053595 -0.039161 -0.001622 0.000000 0.000000 0.000000
# 2 -0.039161 0.053595 -0.001622 0.000000 0.000000 0.000000
# 3 -0.001622 -0.001622 0.017711 0.000000 0.000000 0.000000
# 4 0.000000 0.000000 0.000000 0.101048 0.000000 0.000000
# 5 0.000000 0.000000 0.000000 0.000000 0.101048 0.000000
# 6 0.000000 0.000000 0.000000 0.000000 0.000000 0.029591
#
#
# Mechanical properties :
#
#
# Convention : Reuss Voigt Hill
#
# Bulk Modulus (GPa) = 24.94483 25.00549 24.97516
# Shear Modulus (GPa) = 10.99475 17.13270 14.06372
#
# Velocity S-wave (km/s) = 2.59205 3.23566 2.93157
# Velocity P-wave (km/s) = 4.91952 5.40738 5.16921
#
# Compressibility (1/GPa) = 0.04008847
#
# Stress axis : x y z
#
# Youngs Moduli (GPa) = 18.65858 18.65858 56.46144
#
# Poissons Ratio (x) = 0.73069 0.09160
# Poissons Ratio (y) = 0.73069 0.09160
# Poissons Ratio (z) = 0.03027 0.03027
#
# Static dielectric constant tensor:
#      x y z
#    x 1.535680 0.000000 0.000000 
#    y 0.000000 1.535680 0.000000 
#    z 0.000000 0.000000 1.569070 
# 
# From -- ./inp_files/3903.got.cif
#   From: 2010.05.17/outbox.cif.g08.bks.cpg/sg123_2_cif.got.tgz:3903.got - 2010.05.20 11:43:04.
