data_PCOD9561685
_publ_section_title
;
Structure prediction by ZEFSAII (Michael W. Deem and Ramdas Pophale) SiO2 
 PCOD9561685
Probable space group: P 4/M M M
;
_chemical_formula_sum "Si O2"
_cell_formula_units_Z 72
_cell_length_a 22.366834
_cell_length_b 22.366834
_cell_length_c 7.349653
_cell_angle_alpha 90.000000
_cell_angle_beta 90.000000
_cell_angle_gamma 90.000000
_cell_volume 3676.849589
_symmetry_space_group_name_H-M "P 4/M M M"
_symmetry_group_IT_number 123
_symmetry_cell_setting 'tetragonal'
loop_
_space_group_symop_operation_xyz
x,y,z
-y,x,z
-x,-y,z
y,-x,z
x,-y,-z
-x,y,-z
y,x,-z
-y,-x,-z
-x,-y,-z
y,-x,-z
x,y,-z
-y,x,-z
-x,y,z
x,-y,z
-y,-x,z
y,x,z
loop_
_atom_site_type_symbol
_atom_site_label
_atom_site_fract_x
_atom_site_fract_y
_atom_site_fract_z
Si Si1 0.930477 0.273023 0.784972
Si Si2 0.279663 0.279663 0.796686
Si Si3 0.185274 0.500000 0.205087
Si Si4 0.624326 0.375675 0.720067
Si Si5 0.677619 0.500000 0.280221
Si Si6 0.170871 0.928656 0.500000
Si Si7 0.171844 0.363863 0.220992
O O1 0.915032 0.213812 0.671795
O O2 0.889094 0.329141 0.737044
O O3 0.000000 0.286225 0.748057
O O4 0.923180 0.261962 0.000000
O O5 0.329935 0.329935 0.805017
O O6 0.317583 0.224066 0.714923
O O7 0.260102 0.260102 0.000000
O O8 0.256816 0.500000 0.199779
O O9 0.171698 0.433319 0.284845
O O10 0.159495 0.500000 0.000000
O O11 0.629474 0.370527 0.500000
O O12 0.642183 0.441597 0.772655
O O13 0.684654 0.500000 0.500000
O O14 0.112694 0.887306 0.500000
O O15 0.157347 0.000000 0.500000
O O16 0.179601 0.367614 0.000000
#
# Coordination Sequence:
#
# PCOD9561685 Si02
#       7
#    16   8   8   8   8   8  16
#     4   9  19  38  60  82 116 155 189 230 276 324
#     4  10  18  30  49  73  99 126 162 215 268 315
#     4  10  18  32  52  73 102 135 169 217 277 331
#     4  10  20  33  46  64  92 124 166 212 265 327
#     4  10  20  33  46  63  91 125 164 213 266 324
#     4  10  22  39  60  91 121 153 193 228 274 330
#     4   9  18  31  51  79 105 135 176 220 273 328
#
# _framework density 19.581980999999999
#
# number of rings (size 3 to 8) (size 9 to 14) (size 15 to 20)
#    0.000    2.444    2.222    0.000    1.556    0.778 
#    4.000    1.667    0.000    3.333    0.000    7.000 
#    0.000    0.000    0.000    0.000    0.000    0.000 
#
# Total GULP energy -401312.001834 kJ/mol
# GULP energy per Si atom -5573.777803 kJ/mol
# Density = 1.953741 g / cm^3
# Si number density = 19.581981 Si / 1000 Ang^3
#
#
#
# Elastic Constant Matrix: (Units=GPa)
#
#
# Indices 1 2 3 4 5 6 
#
# 1 153.5440 68.7552 28.1654 0.0000 0.0000 0.0000
# 2 68.7552 153.5193 28.1608 0.0000 0.0000 0.0000
# 3 28.1654 28.1608 67.6027 0.0000 0.0000 0.0000
# 4 0.0000 0.0000 0.0000 11.1140 0.0000 0.0000
# 5 0.0000 0.0000 0.0000 0.0000 11.1140 0.0000
# 6 0.0000 0.0000 0.0000 0.0000 0.0000 61.8294
#
#
#
# Elastic Compliance Matrix: (Units=1/GPa)
#
#
# Indices 1 2 3 4 5 6 
#
# 1 0.008412 -0.003383 -0.002095 0.000000 0.000000 0.000000
# 2 -0.003383 0.008413 -0.002095 0.000000 0.000000 0.000000
# 3 -0.002095 -0.002095 0.016538 0.000000 0.000000 0.000000
# 4 0.000000 0.000000 0.000000 0.089977 0.000000 0.000000
# 5 0.000000 0.000000 0.000000 0.000000 0.089976 0.000000
# 6 0.000000 0.000000 0.000000 0.000000 0.000000 0.016174
#
#
# Mechanical properties :
#
#
# Convention : Reuss Voigt Hill
#
# Bulk Modulus (GPa) = 54.89657 69.42542 62.16100
# Shear Modulus (GPa) = 19.94338 33.45046 26.69692
#
# Velocity S-wave (km/s) = 3.19479 4.13755 3.69635
# Velocity P-wave (km/s) = 6.45786 7.63914 7.07321
#
# Compressibility (1/GPa) = 0.01821607
#
# Stress axis : x y z
#
# Youngs Moduli (GPa) = 118.87690 118.85943 60.46629
#
# Poissons Ratio (x) = 0.40211 0.12671
# Poissons Ratio (y) = 0.40217 0.12669
# Poissons Ratio (z) = 0.24910 0.24903
#
# Static dielectric constant tensor:
#      x y z
#    x 1.657450 0.000000 0.000000 
#    y 0.000000 1.657450 0.000000 
#    z 0.000000 0.000000 1.764570 
# 
# From -- ./inp_files/1253.got.cif
#   From: 2010.05.17/outbox.cif.g08.bks.cpg/sg123_1_cif.got.tgz:1253.got - 2010.05.20 11:43:04.
