data_PCOD9561688
_publ_section_title
;
Structure prediction by ZEFSAII (Michael W. Deem and Ramdas Pophale) SiO2 
 PCOD9561688
Probable space group: P 4/M M M
;
_chemical_formula_sum "Si O2"
_cell_formula_units_Z 92
_cell_length_a 24.466570
_cell_length_b 24.466570
_cell_length_c 7.793034
_cell_angle_alpha 90.000000
_cell_angle_beta 90.000000
_cell_angle_gamma 90.000000
_cell_volume 4665.011833
_symmetry_space_group_name_H-M "P 4/M M M"
_symmetry_group_IT_number 123
_symmetry_cell_setting 'tetragonal'
loop_
_space_group_symop_operation_xyz
x,y,z
-y,x,z
-x,-y,z
y,-x,z
x,-y,-z
-x,y,-z
y,x,-z
-y,-x,-z
-x,-y,-z
y,-x,-z
x,y,-z
-y,x,-z
-x,y,z
x,-y,z
-y,-x,z
y,x,z
loop_
_atom_site_type_symbol
_atom_site_label
_atom_site_fract_x
_atom_site_fract_y
_atom_site_fract_z
Si Si1 0.718472 0.872288 0.792736
Si Si2 0.252427 0.747573 0.794385
Si Si3 0.142903 0.597995 0.796520
Si Si4 0.265855 0.562103 0.294702
Si Si5 0.659642 0.340359 0.699185
Si Si6 0.146376 0.000000 0.000000
Si Si7 0.500000 0.937476 0.294860
Si Si8 0.082952 0.829286 0.307084
O O1 0.733650 0.809716 0.752193
O O2 0.656429 0.878572 0.732111
O O3 0.764294 0.910867 0.713912
O O4 0.721470 0.879337 0.000000
O O5 0.293895 0.706106 0.707063
O O6 0.259102 0.740898 0.000000
O O7 0.203551 0.582624 0.732190
O O8 0.098401 0.551948 0.759563
O O9 0.149431 0.603486 0.000000
O O10 0.273329 0.560013 0.500000
O O11 0.270914 0.500000 0.227369
O O12 0.310648 0.605560 0.225903
O O13 0.647249 0.352751 0.500000
O O14 0.148654 0.046720 0.152609
O O15 0.500000 0.940030 0.500000
O O16 0.500000 0.000000 0.228616
O O17 0.063448 0.842101 0.500000
O O18 0.142144 0.857857 0.290227
#
# Coordination Sequence:
#
# PCOD9561688 Si02
#       8
#    16   8  16  16   8   4   8  16
#     4  10  20  36  58  88 126 166 202 254 320 382
#     4  10  18  30  54  82 121 155 189 236 309 383
#     4  11  22  36  60  88 117 155 205 259 312 370
#     4  10  20  34  53  78 113 153 194 245 307 368
#     4  10  20  32  50  81 116 152 194 250 308 366
#     4  12  24  44  68  95 142 175 216 262 310 386
#     4  11  25  45  61  77 111 165 218 263 308 351
#     4  11  24  42  69  99 130 174 219 264 326 392
#
# _framework density 19.721278999999999
#
# number of rings (size 3 to 8) (size 9 to 14) (size 15 to 20)
#    0.000    1.478    4.348    1.304    0.000    2.783 
#    1.565    0.000    0.000    2.348    0.000    6.696 
#    0.000    0.000    0.000    2.348    0.000    2.609 
#
# Total GULP energy -512459.726201 kJ/mol
# GULP energy per Si atom -5570.214415 kJ/mol
# Density = 1.967639 g / cm^3
# Si number density = 19.721279 Si / 1000 Ang^3
#
#
#
# Elastic Constant Matrix: (Units=GPa)
#
#
# Indices 1 2 3 4 5 6 
#
# 1 101.8107 31.3810 13.8957 0.0000 0.0000 0.0000
# 2 31.3810 101.8112 13.8958 0.0000 0.0000 0.0000
# 3 13.8957 13.8958 75.0865 0.0000 0.0000 0.0000
# 4 0.0000 0.0000 0.0000 12.8022 0.0000 0.0000
# 5 0.0000 0.0000 0.0000 0.0000 12.8023 0.0000
# 6 0.0000 0.0000 0.0000 0.0000 0.0000 -28.5082
#
#
#
# Elastic Compliance Matrix: (Units=1/GPa)
#
#
# Indices 1 2 3 4 5 6 
#
# 1 0.011004 -0.003194 -0.001445 0.000000 0.000000 0.000000
# 2 -0.003194 0.011004 -0.001445 0.000000 0.000000 0.000000
# 3 -0.001445 -0.001445 0.013853 0.000000 0.000000 0.000000
# 4 0.000000 0.000000 0.000000 0.078112 0.000000 0.000000
# 5 0.000000 0.000000 0.000000 0.000000 0.078111 0.000000
# 6 0.000000 0.000000 0.000000 0.000000 0.000000 -0.035078
#
#
# Mechanical properties :
#
#
# Convention : Reuss Voigt Hill
#
# Bulk Modulus (GPa) = 42.21025 44.11704 43.16365
# Shear Modulus (GPa) = 28.23688 14.05497 21.14592
#
# Velocity S-wave (km/s) = 3.78802 2.67250 3.27806
# Velocity P-wave (km/s) = 6.37040 5.65171 6.02179
#
# Compressibility (1/GPa) = 0.02369093
#
# Stress axis : x y z
#
# Youngs Moduli (GPa) = 90.87573 90.87614 72.18707
#
# Poissons Ratio (x) = 0.29030 0.10433
# Poissons Ratio (y) = 0.29030 0.10433
# Poissons Ratio (z) = 0.13134 0.13134
#
# Static dielectric constant tensor:
#      x y z
#    x 1.701260 0.000000 0.000000 
#    y 0.000000 1.701260 0.000000 
#    z 0.000000 0.000000 1.718520 
# 
# From -- ./inp_files/1747.got.cif
#   From: 2010.05.17/outbox.cif.g08.bks.cpg/sg123_1_cif.got.tgz:1747.got - 2010.05.20 11:43:04.
