data_PCOD9561842
_publ_section_title
;
Structure prediction by ZEFSAII (Michael W. Deem and Ramdas Pophale) SiO2 
 PCOD9561842
Probable space group: P 4/M M M
;
_chemical_formula_sum "Si O2"
_cell_formula_units_Z 96
_cell_length_a 20.847214
_cell_length_b 20.847214
_cell_length_c 13.277095
_cell_angle_alpha 90.000000
_cell_angle_beta 90.000000
_cell_angle_gamma 90.000000
_cell_volume 5770.309552
_symmetry_space_group_name_H-M "P 4/M M M"
_symmetry_group_IT_number 123
_symmetry_cell_setting 'tetragonal'
loop_
_space_group_symop_operation_xyz
x,y,z
-y,x,z
-x,-y,z
y,-x,z
x,-y,-z
-x,y,-z
y,x,-z
-y,-x,-z
-x,-y,-z
y,-x,-z
x,y,-z
-y,x,-z
-x,y,z
x,-y,z
-y,-x,z
y,x,z
loop_
_atom_site_type_symbol
_atom_site_label
_atom_site_fract_x
_atom_site_fract_y
_atom_site_fract_z
Si Si1 0.768451 0.121634 0.388656
Si Si2 0.753980 0.353829 0.000000
Si Si3 0.228631 0.662782 0.615085
Si Si4 0.753286 0.862315 0.000000
Si Si5 0.423292 0.206535 0.801638
Si Si6 0.069896 0.577935 0.117864
Si Si7 0.183070 0.073125 0.817214
O O1 0.766753 0.090940 0.500000
O O2 0.824887 0.175114 0.391161
O O3 0.704004 0.163177 0.374168
O O4 0.785014 0.078943 0.292897
O O5 0.817307 0.308602 0.000000
O O6 0.757098 0.396412 0.100305
O O7 0.693399 0.306602 0.000000
O O8 0.231383 0.638735 0.500000
O O9 0.286380 0.713621 0.628672
O O10 0.230862 0.609321 0.700112
O O11 0.765113 0.904315 0.099481
O O12 0.811470 0.811470 0.000000
O O13 0.500000 0.210375 0.798260
O O14 0.403561 0.132021 0.819520
O O15 0.068957 0.500000 0.118876
O O16 0.000000 0.600716 0.153630
O O17 0.076565 0.595923 0.000000
O O18 0.122874 0.122874 0.821602
O O19 0.163179 0.000000 0.836884
#
# Coordination Sequence:
#
# PCOD9561842 Si02
#       7
#    16   8  16   8  16  16  16
#     4   8  15  30  51  69  85 114 157 200 242 287
#     4  11  21  34  52  72  99 133 165 202 252 299
#     4   9  18  34  54  73  97 132 170 206 249 298
#     4   9  19  34  49  64  85 119 162 202 240 283
#     4  11  20  31  50  78 109 135 165 204 246 295
#     4   8  14  27  45  63  90 130 168 196 229 282
#     4  10  19  31  47  67  94 125 158 201 252 302
#
# _framework density 16.636887999999999
#
# number of rings (size 3 to 8) (size 9 to 14) (size 15 to 20)
#    0.000    2.667    0.833    3.500    0.000    3.500 
#    0.000    4.167    0.000    3.000    0.000    4.667 
#    0.000   13.667    0.000    7.333    0.000    0.000 
#
# Total GULP energy -535039.213405 kJ/mol
# GULP energy per Si atom -5573.325140 kJ/mol
# Density = 1.659902 g / cm^3
# Si number density = 16.636888 Si / 1000 Ang^3
#
#
#
# Elastic Constant Matrix: (Units=GPa)
#
#
# Indices 1 2 3 4 5 6 
#
# 1 66.7906 15.2904 43.6661 0.0000 0.0000 0.0000
# 2 15.2904 66.7901 43.6661 0.0000 0.0000 0.0000
# 3 43.6661 43.6661 114.1531 0.0000 0.0000 0.0000
# 4 0.0000 0.0000 0.0000 12.7824 0.0000 0.0000
# 5 0.0000 0.0000 0.0000 0.0000 12.7822 0.0000
# 6 0.0000 0.0000 0.0000 0.0000 0.0000 18.2822
#
#
#
# Elastic Compliance Matrix: (Units=1/GPa)
#
#
# Indices 1 2 3 4 5 6 
#
# 1 0.019981 0.000564 -0.007859 0.000000 0.000000 0.000000
# 2 0.000564 0.019981 -0.007859 0.000000 0.000000 0.000000
# 3 -0.007859 -0.007859 0.014773 0.000000 0.000000 0.000000
# 4 0.000000 0.000000 0.000000 0.078233 0.000000 0.000000
# 5 0.000000 0.000000 0.000000 0.000000 0.078234 0.000000
# 6 0.000000 0.000000 0.000000 0.000000 0.000000 0.054698
#
#
# Mechanical properties :
#
#
# Convention : Reuss Voigt Hill
#
# Bulk Modulus (GPa) = 40.93875 50.33099 45.63487
# Shear Modulus (GPa) = 16.42847 18.44343 17.43595
#
# Velocity S-wave (km/s) = 3.14582 3.33316 3.24084
# Velocity P-wave (km/s) = 6.15268 6.71800 6.44155
#
# Compressibility (1/GPa) = 0.02442674
#
# Stress axis : x y z
#
# Youngs Moduli (GPa) = 50.04746 50.04695 67.69320
#
# Poissons Ratio (x) = -0.02821 0.53199
# Poissons Ratio (y) = -0.02821 0.53199
# Poissons Ratio (z) = 0.39331 0.39331
#
# Static dielectric constant tensor:
#      x y z
#    x 1.557250 0.000000 0.000000 
#    y 0.000000 1.557250 0.000000 
#    z 0.000000 0.000000 1.567690 
# 
# From -- ./inp_files/3205.got.cif
#   From: 2010.05.17/outbox.cif.g08.bks.cpg/sg123_2_cif.got.tgz:3205.got - 2010.05.20 11:43:04.
