data_PCOD9561027
_publ_section_title
;
Structure prediction by ZEFSAII (Michael W. Deem and Ramdas Pophale) SiO2 
 PCOD9561027
Probable space group: I -4 2 D
;
_chemical_formula_sum "Si O2"
_cell_formula_units_Z 48
_cell_length_a 18.667963
_cell_length_b 18.667963
_cell_length_c 4.966409
_cell_angle_alpha 90.000000
_cell_angle_beta 90.000000
_cell_angle_gamma 90.000000
_cell_volume 1730.757990
_symmetry_space_group_name_H-M "I -4 2 D"
_symmetry_group_IT_number 122
_symmetry_cell_setting 'tetragonal'
loop_
_space_group_symop_operation_xyz
x,y,z
y,-x,-z
-x,-y,z
-y,x,-z
x,1/2-y,1/4-z
-x,1/2+y,1/4-z
-y,1/2-x,1/4+z
y,1/2+x,1/4+z
1/2+x,1/2+y,1/2+z
1/2+y,1/2-x,1/2-z
1/2-x,1/2-y,1/2+z
1/2-y,1/2+x,1/2-z
1/2+x,-y,3/4-z
1/2-x,y,3/4-z
1/2-y,-x,3/4+z
1/2+y,x,3/4+z
loop_
_atom_site_type_symbol
_atom_site_label
_atom_site_fract_x
_atom_site_fract_y
_atom_site_fract_z
Si Si1 0.659738 0.641448 0.102871
Si Si2 0.669409 0.750000 0.625000
Si Si3 0.893637 0.468449 0.162058
Si Si4 0.750000 0.974972 0.875000
O O1 0.672857 0.697023 0.349299
O O2 0.669157 0.680432 0.822911
O O3 0.578506 0.613243 0.144831
O O4 0.712205 0.574989 0.155530
O O5 0.951473 0.424763 0.340013
O O6 0.812829 0.475066 0.266979
#
# Coordination Sequence:
#
# PCOD9561027 Si02
#       4
#    16   8  16   8
#     4  10  22  43  73 106 147 197 250 314 391 469
#     4  10  23  44  70 106 148 194 253 314 383 472
#     4   9  19  41  73 110 151 201 259 323 393 474
#     4  10  21  40  74 112 152 200 255 320 395 476
#
# _framework density 27.733512999999999
#
# number of rings (size 3 to 8) (size 9 to 14) (size 15 to 20)
#    0.000    2.333    0.000    1.000    0.000    4.000 
#    0.000   33.333    0.000   28.000    0.000    0.000 
#    0.000    0.000    0.000    0.000    0.000    0.000 
#
# Total GULP energy -133784.312248 kJ/mol
# GULP energy per Si atom -5574.346344 kJ/mol
# Density = 2.767039 g / cm^3
# Si number density = 27.733513 Si / 1000 Ang^3
#
#
#
# Elastic Constant Matrix: (Units=GPa)
#
#
# Indices 1 2 3 4 5 6 
#
# 1 198.3853 53.8793 60.8918 0.0000 0.0000 0.0000
# 2 53.8793 198.3853 60.8918 0.0000 0.0000 0.0000
# 3 60.8918 60.8918 255.1597 0.0000 0.0000 0.0000
# 4 0.0000 0.0000 0.0000 19.7845 0.0000 0.0000
# 5 0.0000 0.0000 0.0000 0.0000 19.7845 0.0000
# 6 0.0000 0.0000 0.0000 0.0000 0.0000 -49.0690
#
#
#
# Elastic Compliance Matrix: (Units=1/GPa)
#
#
# Indices 1 2 3 4 5 6 
#
# 1 0.005700 -0.001220 -0.001069 0.000000 0.000000 0.000000
# 2 -0.001220 0.005700 -0.001069 0.000000 0.000000 0.000000
# 3 -0.001069 -0.001069 0.004429 0.000000 0.000000 0.000000
# 4 0.000000 0.000000 0.000000 0.050545 0.000000 0.000000
# 5 0.000000 0.000000 0.000000 0.000000 0.050545 0.000000
# 6 0.000000 0.000000 0.000000 0.000000 0.000000 -0.020379
#
#
# Mechanical properties :
#
#
# Convention : Reuss Voigt Hill
#
# Bulk Modulus (GPa) = 109.73081 111.47289 110.60185
# Shear Modulus (GPa) = 47.03950 29.85119 38.44534
#
# Velocity S-wave (km/s) = 4.12287 3.28435 3.72727
# Velocity P-wave (km/s) = 7.89406 7.39352 7.64788
#
# Compressibility (1/GPa) = 0.00911321
#
# Stress axis : x y z
#
# Youngs Moduli (GPa) = 175.43288 175.43288 225.76352
#
# Poissons Ratio (x) = 0.21402 0.24138
# Poissons Ratio (y) = 0.21402 0.24138
# Poissons Ratio (z) = 0.18757 0.18757
#
# Static dielectric constant tensor:
#      x y z
#    x 2.284550 0.000000 0.000000 
#    y 0.000000 2.284550 0.000000 
#    z 0.000000 0.000000 2.084000 
# 
# From -- ./inp_files/2089.got.cif
#   From: 2010.05.17/outbox.cif.g08.bks.cpg/sg122_2_cif.got.tgz:2089.got - 2010.05.20 11:37:33.
