data_PCOD9561990
_publ_section_title
;
Structure prediction by ZEFSAII (Michael W. Deem and Ramdas Pophale) SiO2 
 PCOD9561990
Probable space group: P 4/M M M
;
_chemical_formula_sum "Si O2"
_cell_formula_units_Z 64
_cell_length_a 22.325217
_cell_length_b 22.325217
_cell_length_c 7.396366
_cell_angle_alpha 90.000000
_cell_angle_beta 90.000000
_cell_angle_gamma 90.000000
_cell_volume 3686.462083
_symmetry_space_group_name_H-M "P 4/M M M"
_symmetry_group_IT_number 123
_symmetry_cell_setting 'tetragonal'
loop_
_space_group_symop_operation_xyz
x,y,z
-y,x,z
-x,-y,z
y,-x,z
x,-y,-z
-x,y,-z
y,x,-z
-y,-x,-z
-x,-y,-z
y,-x,-z
x,y,-z
-y,x,-z
-x,y,z
x,-y,z
-y,-x,z
y,x,z
loop_
_atom_site_type_symbol
_atom_site_label
_atom_site_fract_x
_atom_site_fract_y
_atom_site_fract_z
Si Si1 0.108456 0.433816 0.500000
Si Si2 0.205242 0.600677 0.786772
Si Si3 0.264653 0.166600 0.786414
Si Si4 0.338004 0.433778 0.220437
Si Si5 0.068969 0.701874 0.500000
O O1 0.079412 0.500000 0.500000
O O2 0.152193 0.428183 0.327275
O O3 0.072043 0.371234 0.500000
O O4 0.201828 0.672517 0.761188
O O5 0.269699 0.577649 0.725569
O O6 0.198163 0.588288 0.000000
O O7 0.209433 0.209433 0.732604
O O8 0.273143 0.106665 0.670346
O O9 0.258979 0.153787 0.000000
O O10 0.357397 0.500000 0.275116
O O11 0.382444 0.382444 0.283758
O O12 0.337928 0.431870 0.000000
O O13 0.000000 0.720096 0.500000
#
# Coordination Sequence:
#
# PCOD9561990 Si02
#       5
#     8  16  16  16   8
#     4  10  20  32  48  69  91 124 169 206 240 284
#     4   9  17  30  48  69  91 113 146 200 257 297
#     4   9  17  31  53  77  99 125 159 201 247 291
#     4   9  16  25  38  56  80 111 144 182 233 291
#     4  10  21  34  48  71 105 140 169 199 237 284
#
# _framework density 17.360818999999999
#
# number of rings (size 3 to 8) (size 9 to 14) (size 15 to 20)
#    0.000    2.750    0.000    1.875    0.000    5.500 
#    0.000    3.125    0.000    0.000    0.000    7.000 
#    0.000    7.000    0.000   11.250    0.000    0.000 
#
# Total GULP energy -357000.880582 kJ/mol
# GULP energy per Si atom -5578.138759 kJ/mol
# Density = 1.732131 g / cm^3
# Si number density = 17.360819 Si / 1000 Ang^3
#
#
#
# Elastic Constant Matrix: (Units=GPa)
#
#
# Indices 1 2 3 4 5 6 
#
# 1 77.9216 33.4950 26.8924 0.0000 0.0000 0.0000
# 2 33.4950 77.9216 26.8924 0.0000 0.0000 0.0000
# 3 26.8924 26.8924 65.4808 0.0000 0.0000 0.0000
# 4 0.0000 0.0000 0.0000 -9.6984 0.0000 0.0000
# 5 0.0000 0.0000 0.0000 0.0000 -9.6984 0.0000
# 6 0.0000 0.0000 0.0000 0.0000 0.0000 2.2502
#
#
#
# Elastic Compliance Matrix: (Units=1/GPa)
#
#
# Indices 1 2 3 4 5 6 
#
# 1 0.016852 -0.005657 -0.004598 0.000000 0.000000 0.000000
# 2 -0.005657 0.016852 -0.004598 0.000000 0.000000 0.000000
# 3 -0.004598 -0.004598 0.019048 0.000000 0.000000 0.000000
# 4 0.000000 0.000000 0.000000 -0.103109 0.000000 0.000000
# 5 0.000000 0.000000 0.000000 0.000000 -0.103109 0.000000
# 6 0.000000 0.000000 0.000000 0.000000 0.000000 0.444404
#
#
# Mechanical properties :
#
#
# Convention : Reuss Voigt Hill
#
# Bulk Modulus (GPa) = 43.38926 43.98706 43.68816
# Shear Modulus (GPa) = 15.22888 5.50695 10.36792
#
# Velocity S-wave (km/s) = 2.96497 1.78296 2.44642
# Velocity P-wave (km/s) = 6.06368 5.44340 5.76189
#
# Compressibility (1/GPa) = 0.02304718
#
# Stress axis : x y z
#
# Youngs Moduli (GPa) = 59.34053 59.34053 52.49890
#
# Poissons Ratio (x) = 0.33570 0.24137
# Poissons Ratio (y) = 0.33570 0.24137
# Poissons Ratio (z) = 0.27282 0.27282
#
# Static dielectric constant tensor:
#      x y z
#    x 1.565290 0.000000 0.000000 
#    y 0.000000 1.565290 0.000000 
#    z 0.000000 0.000000 1.642640 
# 
# From -- ./inp_files/928.got.cif
#   From: 2010.05.17/outbox.cif.g08.bks.cpg/sg123_1_cif.got.tgz:928.got - 2010.05.20 11:43:04.
