data_PCOD9561944
_publ_section_title
;
Structure prediction by ZEFSAII (Michael W. Deem and Ramdas Pophale) SiO2 
 PCOD9561944
Probable space group: P 4/M M M
;
_chemical_formula_sum "Si O2"
_cell_formula_units_Z 72
_cell_length_a 20.487532
_cell_length_b 20.487532
_cell_length_c 7.260782
_cell_angle_alpha 90.000000
_cell_angle_beta 90.000000
_cell_angle_gamma 90.000000
_cell_volume 3047.633140
_symmetry_space_group_name_H-M "P 4/M M M"
_symmetry_group_IT_number 123
_symmetry_cell_setting 'tetragonal'
loop_
_space_group_symop_operation_xyz
x,y,z
-y,x,z
-x,-y,z
y,-x,z
x,-y,-z
-x,y,-z
y,x,-z
-y,-x,-z
-x,-y,-z
y,-x,-z
x,y,-z
-y,x,-z
-x,y,z
x,-y,z
-y,-x,z
y,x,z
loop_
_atom_site_type_symbol
_atom_site_label
_atom_site_fract_x
_atom_site_fract_y
_atom_site_fract_z
Si Si1 0.500000 0.752519 0.720633
Si Si2 0.575946 0.000000 0.224366
Si Si3 0.071009 0.175245 0.224152
Si Si4 0.250653 0.355729 0.286744
Si Si5 0.319298 0.106918 0.778003
Si Si6 0.398072 0.500000 0.721982
O O1 0.500000 0.767232 0.500000
O O2 0.572564 0.769585 0.790272
O O3 0.500000 0.676085 0.765111
O O4 0.618494 0.936524 0.282137
O O5 0.500000 0.000000 0.283741
O O6 0.574746 0.000000 0.000000
O O7 0.130000 0.130000 0.287140
O O8 0.077135 0.250461 0.281372
O O9 0.000000 0.149491 0.277854
O O10 0.073271 0.175810 0.000000
O O11 0.269373 0.368342 0.500000
O O12 0.309983 0.309983 0.212548
O O13 0.182289 0.318667 0.279789
O O14 0.321025 0.105733 0.000000
O O15 0.436910 0.436910 0.786803
O O16 0.401609 0.500000 0.500000
#
# Coordination Sequence:
#
# PCOD9561944 Si02
#       6
#     8   8  16  16  16   8
#     4   9  17  30  46  64  94 132 166 203 254 306
#     4   9  18  32  53  79 106 136 172 215 261 309
#     4   9  16  27  45  70  98 127 159 197 241 290
#     4  10  21  35  51  74 105 138 172 214 264 314
#     4  10  19  34  55  77 101 133 173 212 253 305
#     4   8  12  19  36  61  84 111 153 199 240 289
#
# _framework density 23.624891000000002
#
# number of rings (size 3 to 8) (size 9 to 14) (size 15 to 20)
#    0.000    2.667    1.111    1.667    1.556    4.222 
#    0.000    1.667    0.000    0.667    0.000    0.000 
#    0.000    0.000    0.000   11.111    0.000   11.111 
#
# Total GULP energy -401597.257937 kJ/mol
# GULP energy per Si atom -5577.739694 kJ/mol
# Density = 2.357112 g / cm^3
# Si number density = 23.624891 Si / 1000 Ang^3
#
#
#
# Elastic Constant Matrix: (Units=GPa)
#
#
# Indices 1 2 3 4 5 6 
#
# 1 132.2597 58.3773 -0.1135 0.0000 0.0000 0.0000
# 2 58.3773 132.2597 -0.1135 0.0000 0.0000 0.0000
# 3 -0.1135 -0.1135 102.8944 0.0000 0.0000 0.0000
# 4 0.0000 0.0000 0.0000 -2.0613 0.0000 0.0000
# 5 0.0000 0.0000 0.0000 0.0000 -2.0613 0.0000
# 6 0.0000 0.0000 0.0000 0.0000 0.0000 68.5252
#
#
#
# Elastic Compliance Matrix: (Units=1/GPa)
#
#
# Indices 1 2 3 4 5 6 
#
# 1 0.009390 -0.004145 0.000006 0.000000 0.000000 0.000000
# 2 -0.004145 0.009390 0.000006 0.000000 0.000000 0.000000
# 3 0.000006 0.000006 0.009719 0.000000 0.000000 0.000000
# 4 0.000000 0.000000 0.000000 -0.485132 0.000000 0.000000
# 5 0.000000 0.000000 0.000000 0.000000 -0.485132 0.000000
# 6 0.000000 0.000000 0.000000 0.000000 0.000000 0.014593
#
#
# Mechanical properties :
#
#
# Convention : Reuss Voigt Hill
#
# Bulk Modulus (GPa) = 49.42415 53.74602 51.58509
# Shear Modulus (GPa) = -5.48149 33.49810 14.00830
#
# Velocity S-wave (km/s) = -1.52488 3.76961 2.43769
# Velocity P-wave (km/s) = 4.22675 6.46109 5.45945
#
# Compressibility (1/GPa) = 0.02023302
#
# Stress axis : x y z
#
# Youngs Moduli (GPa) = 106.49290 106.49290 102.89430
#
# Poissons Ratio (x) = 0.44138 -0.00060
# Poissons Ratio (y) = 0.44138 -0.00060
# Poissons Ratio (z) = -0.00062 -0.00062
#
# Static dielectric constant tensor:
#      x y z
#    x 1.879550 0.000000 0.000000 
#    y 0.000000 1.879550 0.000000 
#    z 0.000000 0.000000 2.014770 
# 
# From -- ./inp_files/1227.got.cif
#   From: 2010.05.17/outbox.cif.g08.bks.cpg/sg123_1_cif.got.tgz:1227.got - 2010.05.20 11:43:04.
