data_PCOD9561995
_publ_section_title
;
Structure prediction by ZEFSAII (Michael W. Deem and Ramdas Pophale) SiO2 
 PCOD9561995
Probable space group: P 4/M M M
;
_chemical_formula_sum "Si O2"
_cell_formula_units_Z 96
_cell_length_a 24.039625
_cell_length_b 24.039625
_cell_length_c 7.288782
_cell_angle_alpha 90.000000
_cell_angle_beta 90.000000
_cell_angle_gamma 90.000000
_cell_volume 4212.213140
_symmetry_space_group_name_H-M "P 4/M M M"
_symmetry_group_IT_number 123
_symmetry_cell_setting 'tetragonal'
loop_
_space_group_symop_operation_xyz
x,y,z
-y,x,z
-x,-y,z
y,-x,z
x,-y,-z
-x,y,-z
y,x,-z
-y,-x,-z
-x,-y,-z
y,-x,-z
x,y,-z
-y,x,-z
-x,y,z
x,-y,z
-y,-x,z
y,x,z
loop_
_atom_site_type_symbol
_atom_site_label
_atom_site_fract_x
_atom_site_fract_y
_atom_site_fract_z
Si Si1 0.652928 0.739390 0.778243
Si Si2 0.067408 0.274120 0.291428
Si Si3 0.153751 0.935961 0.724415
Si Si4 0.937126 0.396712 0.722044
Si Si5 0.646435 0.561559 0.777798
Si Si6 0.560711 0.180213 0.213972
O O1 0.711686 0.711686 0.714392
O O2 0.606095 0.693422 0.731978
O O3 0.619313 0.794358 0.713837
O O4 0.659056 0.743685 0.000000
O O5 0.088972 0.275797 0.500000
O O6 0.084336 0.214731 0.211842
O O7 0.077755 0.334426 0.208773
O O8 0.000000 0.270689 0.299748
O O9 0.155537 0.936042 0.500000
O O10 0.104813 0.895188 0.781256
O O11 0.144873 0.000000 0.779931
O O12 0.938992 0.394335 0.500000
O O13 0.886302 0.435447 0.773854
O O14 0.000000 0.411327 0.781282
O O15 0.656679 0.500000 0.709746
O O16 0.587834 0.587834 0.720801
O O17 0.646579 0.559541 0.000000
O O18 0.500000 0.197935 0.290262
O O19 0.559346 0.196656 0.000000
#
# Coordination Sequence:
#
# PCOD9561995 Si02
#       6
#    16  16  16  16  16  16
#     4   8  14  26  43  60  81 114 152 183 214 259
#     4   7  11  22  38  52  68  97 139 179 210 248
#     4   8  12  17  27  46  74 108 144 182 226 276
#     4   9  18  33  51  68  89 121 158 193 233 286
#     4   8  12  17  27  45  70 101 136 172 208 247
#     4  10  20  32  48  72  99 124 152 190 233 274
#
# _framework density 22.790870000000002
#
# number of rings (size 3 to 8) (size 9 to 14) (size 15 to 20)
#    0.000    3.667    0.000    3.500    0.000    3.333 
#    0.000    4.167    0.000    1.500    0.000    0.000 
#    0.000    0.000    0.000    0.000    0.000    0.167 
#
# Total GULP energy -534487.838790 kJ/mol
# GULP energy per Si atom -5567.581654 kJ/mol
# Density = 2.273900 g / cm^3
# Si number density = 22.790870 Si / 1000 Ang^3
#
#
#
# Elastic Constant Matrix: (Units=GPa)
#
#
# Indices 1 2 3 4 5 6 
#
# 1 100.6575 41.0833 -1.7215 0.0000 0.0000 0.0000
# 2 41.0833 100.6575 -1.7215 0.0000 0.0000 0.0000
# 3 -1.7215 -1.7215 94.3803 0.0000 0.0000 0.0000
# 4 0.0000 0.0000 0.0000 -7.8820 0.0000 0.0000
# 5 0.0000 0.0000 0.0000 0.0000 -7.8820 0.0000
# 6 0.0000 0.0000 0.0000 0.0000 0.0000 19.3421
#
#
#
# Elastic Compliance Matrix: (Units=1/GPa)
#
#
# Indices 1 2 3 4 5 6 
#
# 1 0.011922 -0.004864 0.000129 0.000000 0.000000 0.000000
# 2 -0.004864 0.011922 0.000129 0.000000 0.000000 0.000000
# 3 0.000129 0.000129 0.010600 0.000000 0.000000 0.000000
# 4 0.000000 0.000000 0.000000 -0.126872 0.000000 0.000000
# 5 0.000000 0.000000 0.000000 0.000000 -0.126872 0.000000
# 6 0.000000 0.000000 0.000000 0.000000 0.000000 0.051701
#
#
# Mechanical properties :
#
#
# Convention : Reuss Voigt Hill
#
# Bulk Modulus (GPa) = 39.63281 41.21954 40.42618
# Shear Modulus (GPa) = -33.33868 17.91931 -7.70969
#
# Velocity S-wave (km/s) = -3.82882 2.80706 -1.84123
# Velocity P-wave (km/s) = 1.45566 5.35083 3.64091
#
# Compressibility (1/GPa) = 0.02523162
#
# Stress axis : x y z
#
# Youngs Moduli (GPa) = 83.87838 83.87838 94.33850
#
# Poissons Ratio (x) = 0.40796 -0.01215
# Poissons Ratio (y) = 0.40796 -0.01215
# Poissons Ratio (z) = -0.01080 -0.01080
#
# Static dielectric constant tensor:
#      x y z
#    x 1.862290 0.000000 0.000000 
#    y 0.000000 1.862290 0.000000 
#    z 0.000000 0.000000 2.246390 
# 
# From -- ./inp_files/1629.got.cif
#   From: 2010.05.17/outbox.cif.g08.bks.cpg/sg123_1_cif.got.tgz:1629.got - 2010.05.20 11:43:04.
