data_PCOD9561771
_publ_section_title
;
Structure prediction by ZEFSAII (Michael W. Deem and Ramdas Pophale) SiO2 
 PCOD9561771
Probable space group: P 4/M M M
;
_chemical_formula_sum "Si O2"
_cell_formula_units_Z 88
_cell_length_a 14.211292
_cell_length_b 14.211292
_cell_length_c 27.986985
_cell_angle_alpha 90.000000
_cell_angle_beta 90.000000
_cell_angle_gamma 90.000000
_cell_volume 5652.274449
_symmetry_space_group_name_H-M "P 4/M M M"
_symmetry_group_IT_number 123
_symmetry_cell_setting 'tetragonal'
loop_
_space_group_symop_operation_xyz
x,y,z
-y,x,z
-x,-y,z
y,-x,z
x,-y,-z
-x,y,-z
y,x,-z
-y,-x,-z
-x,-y,-z
y,-x,-z
x,y,-z
-y,x,-z
-x,y,z
x,-y,z
-y,-x,z
y,x,z
loop_
_atom_site_type_symbol
_atom_site_label
_atom_site_fract_x
_atom_site_fract_y
_atom_site_fract_z
Si Si1 0.609567 0.763458 0.442904
Si Si2 0.732223 0.111671 0.625483
Si Si3 0.766302 0.388551 0.186537
Si Si4 0.609381 0.889465 0.280204
Si Si5 0.111892 0.266480 0.000000
Si Si6 0.610738 0.889221 0.906661
O O1 0.614229 0.778607 0.500000
O O2 0.500000 0.757447 0.429204
O O3 0.667702 0.667702 0.432404
O O4 0.663798 0.845811 0.415112
O O5 0.828064 0.171937 0.624294
O O6 0.678416 0.128531 0.675654
O O7 0.746514 0.000000 0.619795
O O8 0.746681 0.500000 0.185638
O O9 0.673197 0.326804 0.186875
O O10 0.826934 0.369084 0.234105
O O11 0.827694 0.365805 0.139582
O O12 0.500000 0.872281 0.294220
O O13 0.616452 0.000000 0.267538
O O14 0.134111 0.327296 0.047222
O O15 0.172427 0.172427 0.000000
O O16 0.000000 0.248551 0.000000
O O17 0.500000 0.875856 0.917751
O O18 0.623682 0.000000 0.895692
#
# Coordination Sequence:
#
# PCOD9561771 Si02
#       6
#    16  16  16  16   8  16
#     4   9  18  32  50  73  99 125 154 189 230 277
#     4  10  20  33  49  69  94 124 158 196 235 275
#     4  10  19  30  45  65  91 121 149 179 216 261
#     4   9  17  30  49  71  91 113 146 188 232 274
#     4  10  19  30  45  65  90 118 145 175 214 263
#     4   9  17  30  48  68  87 109 143 187 228 259
#
# _framework density 15.568953
#
# number of rings (size 3 to 8) (size 9 to 14) (size 15 to 20)
#    0.000    2.545    0.000    2.455    0.000    5.364 
#    0.000    1.818    0.000    0.000    0.000    5.091 
#    0.000   19.636    0.000    0.000    0.000    0.000 
#
# Total GULP energy -490601.111929 kJ/mol
# GULP energy per Si atom -5575.012636 kJ/mol
# Density = 1.553352 g / cm^3
# Si number density = 15.568953 Si / 1000 Ang^3
#
#
#
# Elastic Constant Matrix: (Units=GPa)
#
#
# Indices 1 2 3 4 5 6 
#
# 1 95.5639 69.5656 60.9341 0.0000 0.0000 0.0000
# 2 69.5656 95.5639 60.9341 0.0000 0.0000 0.0000
# 3 60.9341 60.9341 77.6742 0.0000 0.0000 0.0000
# 4 0.0000 0.0000 0.0000 18.5826 0.0000 0.0000
# 5 0.0000 0.0000 0.0000 0.0000 18.5826 0.0000
# 6 0.0000 0.0000 0.0000 0.0000 0.0000 24.7349
#
#
#
# Elastic Compliance Matrix: (Units=1/GPa)
#
#
# Indices 1 2 3 4 5 6 
#
# 1 0.026424 -0.012041 -0.011283 0.000000 0.000000 0.000000
# 2 -0.012041 0.026424 -0.011283 0.000000 0.000000 0.000000
# 3 -0.011283 -0.011283 0.030577 0.000000 0.000000 0.000000
# 4 0.000000 0.000000 0.000000 0.053814 0.000000 0.000000
# 5 0.000000 0.000000 0.000000 0.000000 0.053814 0.000000
# 6 0.000000 0.000000 0.000000 0.000000 0.000000 0.040429
#
#
# Mechanical properties :
#
#
# Convention : Reuss Voigt Hill
#
# Bulk Modulus (GPa) = 70.37097 72.40774 71.38936
# Shear Modulus (GPa) = 16.37025 17.53788 16.95407
#
# Velocity S-wave (km/s) = 3.24615 3.35993 3.30353
# Velocity P-wave (km/s) = 7.70374 7.85244 7.77845
#
# Compressibility (1/GPa) = 0.01421041
#
# Stress axis : x y z
#
# Youngs Moduli (GPa) = 37.84490 37.84490 32.70385
#
# Poissons Ratio (x) = 0.45567 0.36901
# Poissons Ratio (y) = 0.45567 0.36901
# Poissons Ratio (z) = 0.42702 0.42702
#
# Static dielectric constant tensor:
#      x y z
#    x 1.497660 0.000000 0.000000 
#    y 0.000000 1.497660 0.000000 
#    z 0.000000 0.000000 1.507450 
# 
# From -- ./inp_files/7248.got.cif
#   From: 2010.05.17/outbox.cif.g08.bks.cpg/sg123_4_cif.got.tgz:7248.got - 2010.05.20 11:43:04.
