data_PCOD9561600
_publ_section_title
;
Structure prediction by ZEFSAII (Michael W. Deem and Ramdas Pophale) SiO2 
 PCOD9561600
Probable space group: P 4/M M M
;
_chemical_formula_sum "Si O2"
_cell_formula_units_Z 80
_cell_length_a 23.274441
_cell_length_b 23.274441
_cell_length_c 7.240484
_cell_angle_alpha 90.000000
_cell_angle_beta 90.000000
_cell_angle_gamma 90.000000
_cell_volume 3922.167315
_symmetry_space_group_name_H-M "P 4/M M M"
_symmetry_group_IT_number 123
_symmetry_cell_setting 'tetragonal'
loop_
_space_group_symop_operation_xyz
x,y,z
-y,x,z
-x,-y,z
y,-x,z
x,-y,-z
-x,y,-z
y,x,-z
-y,-x,-z
-x,-y,-z
y,-x,-z
x,y,-z
-y,x,-z
-x,y,z
x,-y,z
-y,-x,z
y,x,z
loop_
_atom_site_type_symbol
_atom_site_label
_atom_site_fract_x
_atom_site_fract_y
_atom_site_fract_z
Si Si1 0.725546 0.815966 0.224388
Si Si2 0.723706 0.370199 0.224765
Si Si3 0.069699 0.439485 0.216112
Si Si4 0.934846 0.686653 0.225586
Si Si5 0.407376 0.500000 0.722890
Si Si6 0.276365 0.500000 0.205493
O O1 0.780870 0.780870 0.284396
O O2 0.670353 0.777340 0.277179
O O3 0.725616 0.881934 0.282501
O O4 0.724377 0.815917 0.000000
O O5 0.665326 0.334675 0.280328
O O6 0.733810 0.436072 0.287903
O O7 0.721209 0.372890 0.000000
O O8 0.091015 0.500000 0.294786
O O9 0.083857 0.377200 0.289282
O O10 0.000000 0.440776 0.224180
O O11 0.085748 0.439367 0.000000
O O12 0.000000 0.699189 0.285356
O O13 0.936940 0.685120 0.000000
O O14 0.444623 0.444623 0.774901
O O15 0.402235 0.500000 0.500000
O O16 0.345293 0.500000 0.806050
O O17 0.249514 0.500000 0.000000
#
# Coordination Sequence:
#
# PCOD9561600 Si02
#       6
#    16  16  16  16   8   8
#     4   8  13  21  29  36  52  77  99 124 162 196
#     4   8  14  23  32  43  60  80 104 135 168 201
#     4   7   9  13  19  27  40  56  73  97 129 161
#     4   8  12  17  25  36  48  65  93 124 150 186
#     4   9  18  30  40  52  72  93 111 140 190 242
#     4  10  17  25  39  56  69  86 118 155 180 204
#
# _framework density 20.396885999999999
#
# number of rings (size 3 to 8) (size 9 to 14) (size 15 to 20)
#    0.000    3.900    0.000    3.900    0.000    1.200 
#    1.800    0.500    0.000    0.000    0.000    0.000 
#    0.000    0.400    0.000    5.600    0.000    2.000 
#
# Total GULP energy -445513.582102 kJ/mol
# GULP energy per Si atom -5568.919776 kJ/mol
# Density = 2.035046 g / cm^3
# Si number density = 20.396886 Si / 1000 Ang^3
#
#
#
# Elastic Constant Matrix: (Units=GPa)
#
#
# Indices 1 2 3 4 5 6 
#
# 1 134.3296 69.9180 3.1032 0.0000 0.0000 0.0000
# 2 69.9180 134.3296 3.1032 0.0000 0.0000 0.0000
# 3 3.1032 3.1032 90.4132 0.0000 0.0000 0.0000
# 4 0.0000 0.0000 0.0000 -35.0060 0.0000 0.0000
# 5 0.0000 0.0000 0.0000 0.0000 -35.0060 0.0000
# 6 0.0000 0.0000 0.0000 0.0000 0.0000 24.9382
#
#
#
# Elastic Compliance Matrix: (Units=1/GPa)
#
#
# Indices 1 2 3 4 5 6 
#
# 1 0.010213 -0.005312 -0.000168 0.000000 0.000000 0.000000
# 2 -0.005312 0.010213 -0.000168 0.000000 0.000000 0.000000
# 3 -0.000168 -0.000168 0.011072 0.000000 0.000000 0.000000
# 4 0.000000 0.000000 0.000000 -0.028567 0.000000 0.000000
# 5 0.000000 0.000000 0.000000 0.000000 -0.028567 0.000000
# 6 0.000000 0.000000 0.000000 0.000000 0.000000 0.040099
#
#
# Mechanical properties :
#
#
# Convention : Reuss Voigt Hill
#
# Bulk Modulus (GPa) = 49.50186 56.81348 53.15767
# Shear Modulus (GPa) = 153.87129 9.84848 81.85988
#
# Velocity S-wave (km/s) = 8.69496 2.19975 6.34197
# Velocity P-wave (km/s) = 11.18594 5.86228 8.93005
#
# Compressibility (1/GPa) = 0.02020126
#
# Stress axis : x y z
#
# Youngs Moduli (GPa) = 97.91314 97.91314 90.31892
#
# Poissons Ratio (x) = 0.52012 0.01519
# Poissons Ratio (y) = 0.52012 0.01519
# Poissons Ratio (z) = 0.01647 0.01647
#
# Static dielectric constant tensor:
#      x y z
#    x 1.720670 0.000000 0.000000 
#    y 0.000000 1.720670 0.000000 
#    z 0.000000 0.000000 1.813240 
# 
# From -- ./inp_files/1506.got.cif
#   From: 2010.05.17/outbox.cif.g08.bks.cpg/sg123_1_cif.got.tgz:1506.got - 2010.05.20 11:43:04.
