data_PCOD9561521
_publ_section_title
;
Structure prediction by ZEFSAII (Michael W. Deem and Ramdas Pophale) SiO2 
 PCOD9561521
Probable space group: I -4 2 D
;
_chemical_formula_sum "Si O2"
_cell_formula_units_Z 60
_cell_length_a 17.858967
_cell_length_b 17.858967
_cell_length_c 9.415071
_cell_angle_alpha 90.000000
_cell_angle_beta 90.000000
_cell_angle_gamma 90.000000
_cell_volume 3002.868187
_symmetry_space_group_name_H-M "I -4 2 D"
_symmetry_group_IT_number 122
_symmetry_cell_setting 'tetragonal'
loop_
_space_group_symop_operation_xyz
x,y,z
y,-x,-z
-x,-y,z
-y,x,-z
x,1/2-y,1/4-z
-x,1/2+y,1/4-z
-y,1/2-x,1/4+z
y,1/2+x,1/4+z
1/2+x,1/2+y,1/2+z
1/2+y,1/2-x,1/2-z
1/2-x,1/2-y,1/2+z
1/2-y,1/2+x,1/2-z
1/2+x,-y,3/4-z
1/2-x,y,3/4-z
1/2-y,-x,3/4+z
1/2+y,x,3/4+z
loop_
_atom_site_type_symbol
_atom_site_label
_atom_site_fract_x
_atom_site_fract_y
_atom_site_fract_z
Si Si1 0.847923 0.960623 0.633600
Si Si2 0.796456 0.382810 0.519390
Si Si3 0.750000 0.906764 0.375000
Si Si4 0.500000 0.500000 0.000000
Si Si5 0.199026 0.817190 0.237096
O O1 0.794390 0.953480 0.494563
O O2 0.831828 0.885317 0.719259
O O3 0.834859 0.036279 0.721946
O O4 0.934176 0.960787 0.587130
O O5 0.750000 0.372642 0.375000
O O6 0.854440 0.314593 0.551593
O O7 0.738267 0.383049 0.650164
O O8 0.200990 0.750000 0.125000
O O9 0.250000 0.802788 0.375000
#
# Coordination Sequence:
#
# PCOD9561521 Si02
#       5
#    16  16   8   4  16
#     4  12  26  42  70 100 135 185 231 288 345 422
#     4  12  26  44  70 105 139 178 233 293 345 418
#     4  12  24  44  72 102 136 186 234 282 362 424
#     4  12  24  48  60 102 140 180 232 282 356 420
#     4  12  22  42  70 102 135 181 230 288 347 416
#
# _framework density 19.980896999999999
#
# number of rings (size 3 to 8) (size 9 to 14) (size 15 to 20)
#    0.000    0.000    6.667    3.200    5.600    0.000 
#    0.000    0.000    0.000    0.000    0.000    0.000 
#    0.000    0.000    0.000    0.000    0.000    0.000 
#
# Total GULP energy -167705.418756 kJ/mol
# GULP energy per Si atom -5590.180625 kJ/mol
# Density = 1.993542 g / cm^3
# Si number density = 19.980897 Si / 1000 Ang^3
#
#
#
# Elastic Constant Matrix: (Units=GPa)
#
#
# Indices 1 2 3 4 5 6 
#
# 1 126.3612 29.2048 40.8984 0.0000 0.0000 0.0000
# 2 29.2048 126.3612 40.8984 0.0000 0.0000 0.0000
# 3 40.8984 40.8984 118.7824 0.0000 0.0000 0.0000
# 4 0.0000 0.0000 0.0000 32.3130 0.0000 0.0000
# 5 0.0000 0.0000 0.0000 0.0000 32.3130 0.0000
# 6 0.0000 0.0000 0.0000 0.0000 0.0000 3.5294
#
#
#
# Elastic Compliance Matrix: (Units=1/GPa)
#
#
# Indices 1 2 3 4 5 6 
#
# 1 0.009071 -0.001222 -0.002703 0.000000 0.000000 0.000000
# 2 -0.001222 0.009071 -0.002703 0.000000 0.000000 0.000000
# 3 -0.002703 -0.002703 0.010280 0.000000 0.000000 0.000000
# 4 0.000000 0.000000 0.000000 0.030947 0.000000 0.000000
# 5 0.000000 0.000000 0.000000 0.000000 0.030947 0.000000
# 6 0.000000 0.000000 0.000000 0.000000 0.000000 0.283330
#
#
# Mechanical properties :
#
#
# Convention : Reuss Voigt Hill
#
# Bulk Modulus (GPa) = 65.92895 65.94534 65.93714
# Shear Modulus (GPa) = 12.75652 30.99796 21.87724
#
# Velocity S-wave (km/s) = 2.52947 3.94303 3.31253
# Velocity P-wave (km/s) = 6.44970 7.33524 6.90668
#
# Compressibility (1/GPa) = 0.01516784
#
# Stress axis : x y z
#
# Youngs Moduli (GPa) = 110.24237 110.24237 97.27797
#
# Poissons Ratio (x) = 0.13469 0.26290
# Poissons Ratio (y) = 0.13469 0.26290
# Poissons Ratio (z) = 0.29794 0.29794
#
# Static dielectric constant tensor:
#      x y z
#    x 1.718320 0.000000 0.000000 
#    y 0.000000 1.718320 0.000000 
#    z 0.000000 0.000000 1.703720 
# 
# From -- ./inp_files/2316.got.cif
#   From: 2010.05.17/outbox.cif.g08.bks.cpg/sg122_2_cif.got.tgz:2316.got - 2010.05.20 11:37:33.
