data_PCOD9561060
_publ_section_title
;
Structure prediction by ZEFSAII (Michael W. Deem and Ramdas Pophale) SiO2 
 PCOD9561060
Probable space group: I -4 2 D
;
_chemical_formula_sum "Si O2"
_cell_formula_units_Z 32
_cell_length_a 8.325418
_cell_length_b 8.325418
_cell_length_c 24.217767
_cell_angle_alpha 90.000000
_cell_angle_beta 90.000000
_cell_angle_gamma 90.000000
_cell_volume 1678.596031
_symmetry_space_group_name_H-M "I -4 2 D"
_symmetry_group_IT_number 122
_symmetry_cell_setting 'tetragonal'
loop_
_space_group_symop_operation_xyz
x,y,z
y,-x,-z
-x,-y,z
-y,x,-z
x,1/2-y,1/4-z
-x,1/2+y,1/4-z
-y,1/2-x,1/4+z
y,1/2+x,1/4+z
1/2+x,1/2+y,1/2+z
1/2+y,1/2-x,1/2-z
1/2-x,1/2-y,1/2+z
1/2-y,1/2+x,1/2-z
1/2+x,-y,3/4-z
1/2-x,y,3/4-z
1/2-y,-x,3/4+z
1/2+y,x,3/4+z
loop_
_atom_site_type_symbol
_atom_site_label
_atom_site_fract_x
_atom_site_fract_y
_atom_site_fract_z
Si Si1 0.903679 0.252619 0.739807
Si Si2 0.000000 0.000000 0.177248
Si Si3 0.750000 0.737134 0.375000
O O1 0.805208 0.409333 0.759641
O O2 0.844388 0.212917 0.678541
O O3 0.888205 0.106002 0.782183
O O4 0.876992 0.102119 0.141121
#
# Coordination Sequence:
#
# PCOD9561060 Si02
#       3
#    16   8   8
#     4   9  20  38  57  81 112 151 191 222 281 362
#     4  10  22  36  57  88 111 140 192 242 280 328
#     4  10  22  38  58  80 114 154 182 236 290 328
#
# _framework density 19.063549999999999
#
# number of rings (size 3 to 8) (size 9 to 14) (size 15 to 20)
#    0.000    2.500    0.000    0.000    0.000   18.000 
#    0.000    0.000    0.000    0.000    0.000    0.000 
#    0.000    0.000    0.000    0.000    0.000    0.000 
#
# Total GULP energy -89308.343872 kJ/mol
# GULP energy per Si atom -5581.771492 kJ/mol
# Density = 1.902016 g / cm^3
# Si number density = 19.063550 Si / 1000 Ang^3
#
#
#
# Elastic Constant Matrix: (Units=GPa)
#
#
# Indices 1 2 3 4 5 6 
#
# 1 63.4598 22.9897 67.7405 0.0000 0.0000 0.0000
# 2 22.9897 63.4598 67.7405 0.0000 0.0000 0.0000
# 3 67.7405 67.7405 180.1438 0.0000 0.0000 0.0000
# 4 0.0000 0.0000 0.0000 26.8030 0.0000 0.0000
# 5 0.0000 0.0000 0.0000 0.0000 26.8030 0.0000
# 6 0.0000 0.0000 0.0000 0.0000 0.0000 11.3080
#
#
#
# Elastic Compliance Matrix: (Units=1/GPa)
#
#
# Indices 1 2 3 4 5 6 
#
# 1 0.026438 0.001728 -0.010591 0.000000 0.000000 0.000000
# 2 0.001728 0.026438 -0.010591 0.000000 0.000000 0.000000
# 3 -0.010591 -0.010591 0.013517 0.000000 0.000000 0.000000
# 4 0.000000 0.000000 0.000000 0.037309 0.000000 0.000000
# 5 0.000000 0.000000 0.000000 0.000000 0.037309 0.000000
# 6 0.000000 0.000000 0.000000 0.000000 0.000000 0.088433
#
#
# Mechanical properties :
#
#
# Convention : Reuss Voigt Hill
#
# Bulk Modulus (GPa) = 36.38625 69.33384 52.86005
# Shear Modulus (GPa) = 18.01715 22.88901 20.45308
#
# Velocity S-wave (km/s) = 3.07760 3.46883 3.27905
# Velocity P-wave (km/s) = 5.63534 7.24517 6.49036
#
# Compressibility (1/GPa) = 0.02748291
#
# Stress axis : x y z
#
# Youngs Moduli (GPa) = 37.82468 37.82468 73.98308
#
# Poissons Ratio (x) = -0.06537 0.78358
# Poissons Ratio (y) = -0.06537 0.78358
# Poissons Ratio (z) = 0.40062 0.40062
#
# Static dielectric constant tensor:
#      x y z
#    x 1.669690 0.000000 0.000000 
#    y 0.000000 1.669690 0.000000 
#    z 0.000000 0.000000 1.640940 
# 
# From -- ./inp_files/6552.got.cif
#   From: 2010.05.17/outbox.cif.g08.bks.cpg/sg122_4_cif.got.tgz:6552.got - 2010.05.20 11:37:33.
