data_PCOD9561135
_publ_section_title
;
Structure prediction by ZEFSAII (Michael W. Deem and Ramdas Pophale) SiO2 
 PCOD9561135
Probable space group: I -4 2 D
;
_chemical_formula_sum "Si O2"
_cell_formula_units_Z 96
_cell_length_a 15.008340
_cell_length_b 15.008340
_cell_length_c 19.834753
_cell_angle_alpha 90.000000
_cell_angle_beta 90.000000
_cell_angle_gamma 90.000000
_cell_volume 4467.783460
_symmetry_space_group_name_H-M "I -4 2 D"
_symmetry_group_IT_number 122
_symmetry_cell_setting 'tetragonal'
loop_
_space_group_symop_operation_xyz
x,y,z
y,-x,-z
-x,-y,z
-y,x,-z
x,1/2-y,1/4-z
-x,1/2+y,1/4-z
-y,1/2-x,1/4+z
y,1/2+x,1/4+z
1/2+x,1/2+y,1/2+z
1/2+y,1/2-x,1/2-z
1/2-x,1/2-y,1/2+z
1/2-y,1/2+x,1/2-z
1/2+x,-y,3/4-z
1/2-x,y,3/4-z
1/2-y,-x,3/4+z
1/2+y,x,3/4+z
loop_
_atom_site_type_symbol
_atom_site_label
_atom_site_fract_x
_atom_site_fract_y
_atom_site_fract_z
Si Si1 0.000000 0.000000 0.728547
Si Si2 0.948498 0.163671 0.820619
Si Si3 0.600007 0.708004 0.981718
Si Si4 0.196431 0.269639 0.985418
Si Si5 0.900102 0.606058 0.886956
Si Si6 0.250000 0.534468 0.875000
Si Si7 0.900795 0.909883 0.028480
O O1 0.989112 0.082355 0.777904
O O2 0.917426 0.009941 0.676624
O O3 0.850831 0.187015 0.789844
O O4 0.939515 0.132929 0.897790
O O5 0.019155 0.241441 0.805801
O O6 0.596873 0.613916 0.943255
O O7 0.699651 0.744039 0.970126
O O8 0.587124 0.712635 0.061419
O O9 0.152562 0.178453 0.009119
O O10 0.143274 0.307195 0.920782
O O11 0.828961 0.528421 0.901490
O O12 0.006481 0.888386 0.022468
#
# Coordination Sequence:
#
# PCOD9561135 Si02
#       7
#     8  16  16  16  16   8  16
#     4  10  22  42  66  94 142 178 228 294 360 410
#     4  11  24  44  67 107 144 183 241 307 345 448
#     4  12  24  42  76  97 144 190 228 295 372 419
#     4  11  24  46  73 106 145 189 243 298 366 435
#     4  11  23  46  66 102 144 186 238 302 350 436
#     4  12  24  46  64 110 140 182 246 294 348 456
#     4  11  25  46  70 104 141 189 246 298 358 432
#
# _framework density 21.487165999999998
#
# number of rings (size 3 to 8) (size 9 to 14) (size 15 to 20)
#    0.000    0.833    5.000    2.500    2.333    6.667 
#    0.000    5.000    0.000    0.000    0.000    0.000 
#    0.000    0.000    0.000    0.000    0.000    0.000 
#
# Total GULP energy -267976.565854 kJ/mol
# GULP energy per Si atom -5582.845122 kJ/mol
# Density = 2.143826 g / cm^3
# Si number density = 21.487166 Si / 1000 Ang^3
#
#
#
# Elastic Constant Matrix: (Units=GPa)
#
#
# Indices 1 2 3 4 5 6 
#
# 1 74.9846 36.4106 23.4988 0.0000 0.0000 0.0000
# 2 36.4106 74.9846 23.4988 0.0000 0.0000 0.0000
# 3 23.4988 23.4988 137.8821 0.0000 0.0000 0.0000
# 4 0.0000 0.0000 0.0000 14.9343 0.0000 0.0000
# 5 0.0000 0.0000 0.0000 0.0000 14.9343 0.0000
# 6 0.0000 0.0000 0.0000 0.0000 0.0000 27.1750
#
#
#
# Elastic Compliance Matrix: (Units=1/GPa)
#
#
# Indices 1 2 3 4 5 6 
#
# 1 0.017798 -0.008126 -0.001648 0.000000 0.000000 0.000000
# 2 -0.008126 0.017798 -0.001648 0.000000 0.000000 0.000000
# 3 -0.001648 -0.001648 0.007814 0.000000 0.000000 0.000000
# 4 0.000000 0.000000 0.000000 0.066960 0.000000 0.000000
# 5 0.000000 0.000000 0.000000 0.000000 0.066960 0.000000
# 6 0.000000 0.000000 0.000000 0.000000 0.000000 0.036799
#
#
# Mechanical properties :
#
#
# Convention : Reuss Voigt Hill
#
# Bulk Modulus (GPa) = 48.62469 50.51863 49.57166
# Shear Modulus (GPa) = 20.50606 25.03826 22.77216
#
# Velocity S-wave (km/s) = 3.09259 3.41730 3.25899
# Velocity P-wave (km/s) = 5.95239 6.25561 6.10588
#
# Compressibility (1/GPa) = 0.02056568
#
# Stress axis : x y z
#
# Youngs Moduli (GPa) = 56.18490 56.18490 127.96798
#
# Poissons Ratio (x) = 0.45655 0.21095
# Poissons Ratio (y) = 0.45655 0.21095
# Poissons Ratio (z) = 0.09262 0.09262
#
# Static dielectric constant tensor:
#      x y z
#    x 1.868670 0.000000 0.000000 
#    y 0.000000 1.868670 0.000000 
#    z 0.000000 0.000000 1.831060 
# 
# From -- ./inp_files/7335.got.cif
#   From: 2010.05.17/outbox.cif.g08.bks.cpg/sg122_4_cif.got.tgz:7335.got - 2010.05.20 11:37:33.
