data_PCOD9561911
_publ_section_title
;
Structure prediction by ZEFSAII (Michael W. Deem and Ramdas Pophale) SiO2 
 PCOD9561911
Probable space group: P 4/M M M
;
_chemical_formula_sum "Si O2"
_cell_formula_units_Z 84
_cell_length_a 12.949558
_cell_length_b 12.949558
_cell_length_c 29.356531
_cell_angle_alpha 90.000000
_cell_angle_beta 90.000000
_cell_angle_gamma 90.000000
_cell_volume 4922.827578
_symmetry_space_group_name_H-M "P 4/M M M"
_symmetry_group_IT_number 123
_symmetry_cell_setting 'tetragonal'
loop_
_space_group_symop_operation_xyz
x,y,z
-y,x,z
-x,-y,z
y,-x,z
x,-y,-z
-x,y,-z
y,x,-z
-y,-x,-z
-x,-y,-z
y,-x,-z
x,y,-z
-y,x,-z
-x,y,z
x,-y,z
-y,-x,z
y,x,z
loop_
_atom_site_type_symbol
_atom_site_label
_atom_site_fract_x
_atom_site_fract_y
_atom_site_fract_z
Si Si1 0.620405 0.787818 0.128571
Si Si2 0.710054 0.115997 0.500000
Si Si3 0.000000 0.817645 0.000000
Si Si4 0.878224 0.287370 0.676464
Si Si5 0.790052 0.616603 0.588122
Si Si6 0.623247 0.000000 0.071285
Si Si7 0.881068 0.623298 0.773941
O O1 0.500000 0.754918 0.125610
O O2 0.699900 0.699900 0.112686
O O3 0.629316 0.895040 0.100809
O O4 0.644727 0.815236 0.181197
O O5 0.804012 0.195989 0.500000
O O6 0.644588 0.137904 0.545404
O O7 0.748435 0.000000 0.500000
O O8 0.000000 0.729666 0.959299
O O9 0.101597 0.898404 0.000000
O O10 0.818239 0.181762 0.667206
O O11 0.847003 0.364083 0.635963
O O12 0.846810 0.328182 0.726327
O O13 0.000000 0.273492 0.676532
O O14 0.754995 0.500000 0.584456
O O15 0.694257 0.694257 0.586458
O O16 0.500000 0.000000 0.053330
O O17 0.881584 0.500000 0.768079
O O18 0.000000 0.655883 0.782486
#
# Coordination Sequence:
#
# PCOD9561911 Si02
#       7
#    16   8   4  16  16   8  16
#     4  10  19  32  52  77 107 141 179 222 267 316
#     4  10  21  36  54  76 102 130 163 202 244 294
#     4  11  23  38  58  86 117 145 176 224 282 323
#     4  10  20  32  48  71  99 132 170 211 254 302
#     4  10  21  36  53  75  99 125 161 204 253 308
#     4  10  20  37  58  81 107 145 189 223 261 314
#     4   9  16  29  49  73  98 131 175 216 256 303
#
# _framework density 17.063364
#
# number of rings (size 3 to 8) (size 9 to 14) (size 15 to 20)
#    0.000    2.143    0.952    2.714    0.000    3.333 
#    0.000    0.000    0.000    5.143    0.000    2.667 
#    0.000    6.857    0.000    0.000    0.000    0.000 
#
# Total GULP energy -467770.772951 kJ/mol
# GULP energy per Si atom -5568.699678 kJ/mol
# Density = 1.702453 g / cm^3
# Si number density = 17.063364 Si / 1000 Ang^3
#
#
#
# Elastic Constant Matrix: (Units=GPa)
#
#
# Indices 1 2 3 4 5 6 
#
# 1 97.9200 33.5323 37.7586 0.0000 0.0000 0.0000
# 2 33.5323 97.9372 37.7623 0.0000 0.0000 0.0000
# 3 37.7586 37.7623 86.9512 0.0000 0.0000 0.0000
# 4 0.0000 0.0000 0.0000 19.3037 0.0000 0.0000
# 5 0.0000 0.0000 0.0000 0.0000 19.3042 0.0000
# 6 0.0000 0.0000 0.0000 0.0000 0.0000 18.9197
#
#
#
# Elastic Compliance Matrix: (Units=1/GPa)
#
#
# Indices 1 2 3 4 5 6 
#
# 1 0.012833 -0.002697 -0.004402 0.000000 0.000000 0.000000
# 2 -0.002697 0.012831 -0.004401 0.000000 0.000000 0.000000
# 3 -0.004402 -0.004401 0.015324 0.000000 0.000000 0.000000
# 4 0.000000 0.000000 0.000000 0.051804 0.000000 0.000000
# 5 0.000000 0.000000 0.000000 0.000000 0.051802 0.000000
# 6 0.000000 0.000000 0.000000 0.000000 0.000000 0.052855
#
#
# Mechanical properties :
#
#
# Convention : Reuss Voigt Hill
#
# Bulk Modulus (GPa) = 55.59161 55.65720 55.62440
# Shear Modulus (GPa) = 22.08050 23.08920 22.58485
#
# Velocity S-wave (km/s) = 3.60116 3.68250 3.64206
# Velocity P-wave (km/s) = 7.06692 7.12530 7.09617
#
# Compressibility (1/GPa) = 0.01798833
#
# Stress axis : x y z
#
# Youngs Moduli (GPa) = 77.92287 77.93622 65.25879
#
# Poissons Ratio (x) = 0.21017 0.28725
# Poissons Ratio (y) = 0.21014 0.28723
# Poissons Ratio (z) = 0.34299 0.34303
#
# Static dielectric constant tensor:
#      x y z
#    x 1.560940 0.000000 0.000000 
#    y 0.000000 1.560940 0.000000 
#    z 0.000000 0.000000 1.602400 
# 
# From -- ./inp_files/8556.got.cif
#   From: 2010.05.17/outbox.cif.g08.bks.cpg/sg123_5_cif.got.tgz:8556.got - 2010.05.20 11:43:04.
