data_PCOD9561500
_publ_section_title
;
Structure prediction by ZEFSAII (Michael W. Deem and Ramdas Pophale) SiO2 
 PCOD9561500
Probable space group: I -4 2 D
;
_chemical_formula_sum "Si O2"
_cell_formula_units_Z 60
_cell_length_a 10.076242
_cell_length_b 10.076242
_cell_length_c 22.008944
_cell_angle_alpha 90.000000
_cell_angle_beta 90.000000
_cell_angle_gamma 90.000000
_cell_volume 2234.582453
_symmetry_space_group_name_H-M "I -4 2 D"
_symmetry_group_IT_number 122
_symmetry_cell_setting 'tetragonal'
loop_
_space_group_symop_operation_xyz
x,y,z
y,-x,-z
-x,-y,z
-y,x,-z
x,1/2-y,1/4-z
-x,1/2+y,1/4-z
-y,1/2-x,1/4+z
y,1/2+x,1/4+z
1/2+x,1/2+y,1/2+z
1/2+y,1/2-x,1/2-z
1/2-x,1/2-y,1/2+z
1/2-y,1/2+x,1/2-z
1/2+x,-y,3/4-z
1/2-x,y,3/4-z
1/2-y,-x,3/4+z
1/2+y,x,3/4+z
loop_
_atom_site_type_symbol
_atom_site_label
_atom_site_fract_x
_atom_site_fract_y
_atom_site_fract_z
Si Si1 0.642602 0.520415 0.769826
Si Si2 0.971543 0.747689 0.843811
Si Si3 0.684982 0.104074 0.726529
Si Si4 0.750000 0.353881 0.875000
Si Si5 0.500000 0.000000 0.250000
O O1 0.500000 0.500000 0.800767
O O2 0.639720 0.447358 0.705755
O O3 0.665335 0.674117 0.753116
O O4 0.738351 0.451058 0.817360
O O5 0.119775 0.733893 0.869947
O O6 0.891816 0.786308 0.904006
O O7 0.963545 0.619806 0.797737
O O8 0.548544 0.170615 0.749298
#
# Coordination Sequence:
#
# PCOD9561500 Si02
#       5
#    16  16  16   8   4
#     4  12  27  46  76 116 150 206 262 332 410 488
#     4  12  25  47  77 113 156 204 263 336 403 475
#     4  11  27  52  73 111 161 214 266 323 398 498
#     4  12  24  48  76 114 158 198 268 328 416 480
#     4  12  24  48  84 128 156 200 280 354 424 480
#
# _framework density 26.850655
#
# number of rings (size 3 to 8) (size 9 to 14) (size 15 to 20)
#    0.000    0.267    5.333    3.200    3.733    0.000 
#    0.000    0.000    0.000    0.000    0.000    0.000 
#    0.000    0.000    0.000    0.000    0.000    0.000 
#
# Total GULP energy -167687.496804 kJ/mol
# GULP energy per Si atom -5589.583227 kJ/mol
# Density = 2.678954 g / cm^3
# Si number density = 26.850655 Si / 1000 Ang^3
#
#
#
# Elastic Constant Matrix: (Units=GPa)
#
#
# Indices 1 2 3 4 5 6 
#
# 1 115.3521 -4.3126 29.8908 0.0000 0.0000 0.0000
# 2 -4.3126 115.3521 29.8908 0.0000 0.0000 0.0000
# 3 29.8908 29.8908 226.5655 0.0000 0.0000 0.0000
# 4 0.0000 0.0000 0.0000 43.6743 0.0000 0.0000
# 5 0.0000 0.0000 0.0000 0.0000 43.6743 0.0000
# 6 0.0000 0.0000 0.0000 0.0000 0.0000 41.4460
#
#
#
# Elastic Compliance Matrix: (Units=1/GPa)
#
#
# Indices 1 2 3 4 5 6 
#
# 1 0.009026 0.000669 -0.001279 0.000000 0.000000 0.000000
# 2 0.000669 0.009026 -0.001279 0.000000 0.000000 0.000000
# 3 -0.001279 -0.001279 0.004751 0.000000 0.000000 0.000000
# 4 0.000000 0.000000 0.000000 0.022897 0.000000 0.000000
# 5 0.000000 0.000000 0.000000 0.000000 0.022897 0.000000
# 6 0.000000 0.000000 0.000000 0.000000 0.000000 0.024128
#
#
# Mechanical properties :
#
#
# Convention : Reuss Voigt Hill
#
# Bulk Modulus (GPa) = 52.56505 63.13420 57.84962
# Shear Modulus (GPa) = 48.61774 52.54564 50.58169
#
# Velocity S-wave (km/s) = 4.25982 4.42855 4.34500
# Velocity P-wave (km/s) = 6.61922 7.05079 6.83841
#
# Compressibility (1/GPa) = 0.01902405
#
# Stress axis : x y z
#
# Youngs Moduli (GPa) = 110.79677 110.79677 210.47284
#
# Poissons Ratio (x) = -0.07411 0.26919
# Poissons Ratio (y) = -0.07411 0.26919
# Poissons Ratio (z) = 0.14171 0.14171
#
# Static dielectric constant tensor:
#      x y z
#    x 2.217300 0.000000 0.000000 
#    y 0.000000 2.217300 0.000000 
#    z 0.000000 0.000000 2.083150 
# 
# From -- ./inp_files/6950.got.cif
#   From: 2010.05.17/outbox.cif.g08.bks.cpg/sg122_4_cif.got.tgz:6950.got - 2010.05.20 11:37:33.
