data_PCOD9561292
_publ_section_title
;
Structure prediction by ZEFSAII (Michael W. Deem and Ramdas Pophale) SiO2 
 PCOD9561292
Probable space group: I -4 2 D
;
_chemical_formula_sum "Si O2"
_cell_formula_units_Z 52
_cell_length_a 19.050278
_cell_length_b 19.050278
_cell_length_c 4.959232
_cell_angle_alpha 90.000000
_cell_angle_beta 90.000000
_cell_angle_gamma 90.000000
_cell_volume 1799.770218
_symmetry_space_group_name_H-M "I -4 2 D"
_symmetry_group_IT_number 122
_symmetry_cell_setting 'tetragonal'
loop_
_space_group_symop_operation_xyz
x,y,z
y,-x,-z
-x,-y,z
-y,x,-z
x,1/2-y,1/4-z
-x,1/2+y,1/4-z
-y,1/2-x,1/4+z
y,1/2+x,1/4+z
1/2+x,1/2+y,1/2+z
1/2+y,1/2-x,1/2-z
1/2-x,1/2-y,1/2+z
1/2-y,1/2+x,1/2-z
1/2+x,-y,3/4-z
1/2-x,y,3/4-z
1/2-y,-x,3/4+z
1/2+y,x,3/4+z
loop_
_atom_site_type_symbol
_atom_site_label
_atom_site_fract_x
_atom_site_fract_y
_atom_site_fract_z
Si Si1 0.500000 0.500000 0.000000
Si Si2 0.123328 0.650636 0.718214
Si Si3 0.797163 0.750000 0.125000
Si Si4 0.250000 0.041157 0.875000
Si Si5 0.872497 0.023808 0.185492
O O1 0.453581 0.541987 0.773225
O O2 0.183063 0.666015 0.501851
O O3 0.157451 0.591047 0.906882
O O4 0.055988 0.624301 0.549693
O O5 0.089535 0.714861 0.891612
O O6 0.750000 0.725698 0.375000
O O7 0.315557 0.991436 0.794370
#
# Coordination Sequence:
#
# PCOD9561292 Si02
#       5
#     4  16   8   8  16
#     4   8  20  48  86 128 180 250 310 396 474 564
#     4  11  28  54  84 130 178 244 308 389 471 567
#     4  12  30  57  90 128 184 245 310 386 478 575
#     4  12  26  53  88 136 188 237 312 398 470 583
#     4  10  24  51  86 124 180 241 313 385 468 564
#
# _framework density 28.892575999999998
#
# number of rings (size 3 to 8) (size 9 to 14) (size 15 to 20)
#    0.000    1.231    0.000    2.769    8.615    8.615 
#   11.077    1.538    0.000    0.000    0.000    0.000 
#    0.000    0.000    0.000    0.000    0.000    0.000 
#
# Total GULP energy -144969.870344 kJ/mol
# GULP energy per Si atom -5575.764244 kJ/mol
# Density = 2.882681 g / cm^3
# Si number density = 28.892576 Si / 1000 Ang^3
#
#
#
# Elastic Constant Matrix: (Units=GPa)
#
#
# Indices 1 2 3 4 5 6 
#
# 1 155.2423 20.1587 55.8055 0.0000 0.0000 0.0000
# 2 20.1587 155.2423 55.8055 0.0000 0.0000 0.0000
# 3 55.8055 55.8055 155.3499 0.0000 0.0000 0.0000
# 4 0.0000 0.0000 0.0000 59.2530 0.0000 0.0000
# 5 0.0000 0.0000 0.0000 0.0000 59.2530 0.0000
# 6 0.0000 0.0000 0.0000 0.0000 0.0000 8.5762
#
#
#
# Elastic Compliance Matrix: (Units=1/GPa)
#
#
# Indices 1 2 3 4 5 6 
#
# 1 0.007397 -0.000006 -0.002655 0.000000 0.000000 0.000000
# 2 -0.000006 0.007397 -0.002655 0.000000 0.000000 0.000000
# 3 -0.002655 -0.002655 0.008344 0.000000 0.000000 0.000000
# 4 0.000000 0.000000 0.000000 0.016877 0.000000 0.000000
# 5 0.000000 0.000000 0.000000 0.000000 0.016877 0.000000
# 6 0.000000 0.000000 0.000000 0.000000 0.000000 0.116602
#
#
# Mechanical properties :
#
#
# Convention : Reuss Voigt Hill
#
# Bulk Modulus (GPa) = 79.96091 81.04158 80.50124
# Shear Modulus (GPa) = 26.55418 47.68742 37.12080
#
# Velocity S-wave (km/s) = 3.03490 4.06705 3.58828
# Velocity P-wave (km/s) = 6.32583 7.08270 6.71494
#
# Compressibility (1/GPa) = 0.01250611
#
# Stress axis : x y z
#
# Youngs Moduli (GPa) = 135.19551 135.19551 119.83976
#
# Poissons Ratio (x) = 0.00083 0.31816
# Poissons Ratio (y) = 0.00083 0.31816
# Poissons Ratio (z) = 0.35893 0.35893
#
# Static dielectric constant tensor:
#      x y z
#    x 2.443520 0.000000 0.000000 
#    y 0.000000 2.443520 0.000000 
#    z 0.000000 0.000000 2.429070 
# 
# From -- ./inp_files/774.got.cif
#   From: 2010.05.17/outbox.cif.g08.bks.cpg/sg122_1_cif.got.tgz:774.got - 2010.05.20 11:37:33.
