data_PCOD9561811
_publ_section_title
;
Structure prediction by ZEFSAII (Michael W. Deem and Ramdas Pophale) SiO2 
 PCOD9561811
Probable space group: P 4/M M M
;
_chemical_formula_sum "Si O2"
_cell_formula_units_Z 96
_cell_length_a 25.714383
_cell_length_b 25.714383
_cell_length_c 9.311087
_cell_angle_alpha 90.000000
_cell_angle_beta 90.000000
_cell_angle_gamma 90.000000
_cell_volume 6156.765337
_symmetry_space_group_name_H-M "P 4/M M M"
_symmetry_group_IT_number 123
_symmetry_cell_setting 'tetragonal'
loop_
_space_group_symop_operation_xyz
x,y,z
-y,x,z
-x,-y,z
y,-x,z
x,-y,-z
-x,y,-z
y,x,-z
-y,-x,-z
-x,-y,-z
y,-x,-z
x,y,-z
-y,x,-z
-x,y,z
x,-y,z
-y,-x,z
y,x,z
loop_
_atom_site_type_symbol
_atom_site_label
_atom_site_fract_x
_atom_site_fract_y
_atom_site_fract_z
Si Si1 0.753510 0.438536 0.670313
Si Si2 0.942510 0.756997 0.333192
Si Si3 0.645978 0.439742 0.830174
Si Si4 0.753789 0.838362 0.172180
Si Si5 0.631406 0.838201 0.171675
Si Si6 0.941838 0.630818 0.666240
O O1 0.754290 0.428763 0.500000
O O2 0.764302 0.500000 0.693669
O O3 0.696694 0.428108 0.736451
O O4 0.795164 0.403238 0.751195
O O5 0.936924 0.772213 0.500000
O O6 0.892201 0.772572 0.243136
O O7 0.943150 0.693875 0.329942
O O8 0.000000 0.774157 0.282108
O O9 0.631262 0.500000 0.806405
O O10 0.599157 0.400844 0.797214
O O11 0.658812 0.434206 0.000000
O O12 0.790270 0.790270 0.216101
O O13 0.692777 0.830353 0.208155
O O14 0.756461 0.843360 0.000000
O O15 0.615199 0.894854 0.231377
O O16 0.626117 0.835680 0.000000
O O17 0.931870 0.615936 0.500000
O O18 0.000000 0.612776 0.706313
#
# Coordination Sequence:
#
# PCOD9561811 Si02
#       6
#    16  16  16  16  16  16
#     4  10  21  36  52  69  91 121 158 196 229 267
#     4   8  14  25  41  61  85 115 152 189 222 260
#     4   9  18  33  53  76 100 124 150 183 225 272
#     4   9  18  30  42  62  94 125 151 182 221 266
#     4  10  19  30  47  69  92 121 155 191 233 277
#     4   8  14  26  44  65  90 119 150 186 228 274
#
# _framework density 15.592603
#
# number of rings (size 3 to 8) (size 9 to 14) (size 15 to 20)
#    0.000    3.000    0.000    2.000    0.000    3.833 
#    0.000    5.833    0.000    0.500    0.000    5.833 
#    0.000    0.333    0.000    3.667    0.000    3.000 
#
# Total GULP energy -534575.438725 kJ/mol
# GULP energy per Si atom -5568.494153 kJ/mol
# Density = 1.555711 g / cm^3
# Si number density = 15.592603 Si / 1000 Ang^3
#
#
#
# Elastic Constant Matrix: (Units=GPa)
#
#
# Indices 1 2 3 4 5 6 
#
# 1 91.4499 78.8370 62.9840 0.0000 0.0000 0.0000
# 2 78.8370 91.4499 62.9840 0.0000 0.0000 0.0000
# 3 62.9840 62.9840 63.9921 0.0000 0.0000 0.0000
# 4 0.0000 0.0000 0.0000 23.9492 0.0000 0.0000
# 5 0.0000 0.0000 0.0000 0.0000 23.9492 0.0000
# 6 0.0000 0.0000 0.0000 0.0000 0.0000 -4.8604
#
#
#
# Elastic Compliance Matrix: (Units=1/GPa)
#
#
# Indices 1 2 3 4 5 6 
#
# 1 0.050440 -0.028843 -0.021257 0.000000 0.000000 0.000000
# 2 -0.028843 0.050440 -0.021257 0.000000 0.000000 0.000000
# 3 -0.021257 -0.021257 0.057470 0.000000 0.000000 0.000000
# 4 0.000000 0.000000 0.000000 0.041755 0.000000 0.000000
# 5 0.000000 0.000000 0.000000 0.000000 0.041755 0.000000
# 6 0.000000 0.000000 0.000000 0.000000 0.000000 -0.205743
#
#
# Mechanical properties :
#
#
# Convention : Reuss Voigt Hill
#
# Bulk Modulus (GPa) = 63.94820 72.94465 68.44642
# Shear Modulus (GPa) = 27.16736 11.41338 19.29037
#
# Velocity S-wave (km/s) = 4.17864 2.70844 3.52113
# Velocity P-wave (km/s) = 8.02386 7.52755 7.77966
#
# Compressibility (1/GPa) = 0.01563766
#
# Stress axis : x y z
#
# Youngs Moduli (GPa) = 19.82544 19.82544 17.40025
#
# Poissons Ratio (x) = 0.57183 0.36987
# Poissons Ratio (y) = 0.57183 0.36987
# Poissons Ratio (z) = 0.42142 0.42142
#
# Static dielectric constant tensor:
#      x y z
#    x 1.512990 0.000000 0.000000 
#    y 0.000000 1.512990 0.000000 
#    z 0.000000 0.000000 1.518820 
# 
# From -- ./inp_files/1572.got.cif
#   From: 2010.05.17/outbox.cif.g08.bks.cpg/sg123_1_cif.got.tgz:1572.got - 2010.05.20 11:43:04.
