data_PCOD9561336
_publ_section_title
;
Structure prediction by ZEFSAII (Michael W. Deem and Ramdas Pophale) SiO2 
 PCOD9561336
Probable space group: I -4 2 D
;
_chemical_formula_sum "Si O2"
_cell_formula_units_Z 96
_cell_length_a 16.224533
_cell_length_b 16.224533
_cell_length_c 18.078464
_cell_angle_alpha 90.000000
_cell_angle_beta 90.000000
_cell_angle_gamma 90.000000
_cell_volume 4758.892987
_symmetry_space_group_name_H-M "I -4 2 D"
_symmetry_group_IT_number 122
_symmetry_cell_setting 'tetragonal'
loop_
_space_group_symop_operation_xyz
x,y,z
y,-x,-z
-x,-y,z
-y,x,-z
x,1/2-y,1/4-z
-x,1/2+y,1/4-z
-y,1/2-x,1/4+z
y,1/2+x,1/4+z
1/2+x,1/2+y,1/2+z
1/2+y,1/2-x,1/2-z
1/2-x,1/2-y,1/2+z
1/2-y,1/2+x,1/2-z
1/2+x,-y,3/4-z
1/2-x,y,3/4-z
1/2-y,-x,3/4+z
1/2+y,x,3/4+z
loop_
_atom_site_type_symbol
_atom_site_label
_atom_site_fract_x
_atom_site_fract_y
_atom_site_fract_z
Si Si1 0.841690 0.060060 0.182500
Si Si2 0.368175 0.721721 0.443314
Si Si3 0.192028 0.489599 0.448656
Si Si4 0.058585 0.391273 0.270287
Si Si5 0.241365 0.789947 0.549766
Si Si6 0.381207 0.672446 0.275502
O O1 0.921710 0.118511 0.193602
O O2 0.757041 0.113099 0.186857
O O3 0.839368 0.979474 0.233131
O O4 0.855460 0.032428 0.097940
O O5 0.449667 0.755907 0.484066
O O6 0.347547 0.632025 0.478110
O O7 0.295165 0.776080 0.476336
O O8 0.370575 0.714847 0.356036
O O9 0.250000 0.489783 0.375000
O O10 0.093075 0.483287 0.284246
O O11 0.081196 0.340604 0.032063
O O12 0.279390 0.750000 0.625000
O O13 0.160429 0.734884 0.533464
#
# Coordination Sequence:
#
# PCOD9561336 Si02
#       6
#    16  16  16  16  16  16
#     4  11  22  41  60  91 141 174 208 270 329 396
#     4  11  21  37  59  94 134 169 201 263 320 414
#     4  11  22  37  61  98 145 175 202 247 338 429
#     4  11  20  29  57  97 139 172 190 225 330 439
#     4  11  24  43  62  87 126 175 226 275 337 376
#     4  12  26  37  66  99 126 175 235 268 322 417
#
# _framework density 20.17276
#
# number of rings (size 3 to 8) (size 9 to 14) (size 15 to 20)
#    0.000    0.833    5.000    4.000    7.000    0.000 
#    0.000    3.333    0.000    0.500    0.000    0.000 
#    0.000    0.000    0.000    0.000    0.000    0.000 
#
# Total GULP energy -267600.101659 kJ/mol
# GULP energy per Si atom -5575.002118 kJ/mol
# Density = 2.012685 g / cm^3
# Si number density = 20.172760 Si / 1000 Ang^3
#
#
#
# Elastic Constant Matrix: (Units=GPa)
#
#
# Indices 1 2 3 4 5 6 
#
# 1 113.7667 51.3610 21.7365 0.0000 0.0000 0.0000
# 2 51.3610 113.7667 21.7365 0.0000 0.0000 0.0000
# 3 21.7365 21.7365 58.7949 0.0000 0.0000 0.0000
# 4 0.0000 0.0000 0.0000 32.1009 0.0000 0.0000
# 5 0.0000 0.0000 0.0000 0.0000 32.1008 0.0000
# 6 0.0000 0.0000 0.0000 0.0000 0.0000 34.5498
#
#
#
# Elastic Compliance Matrix: (Units=1/GPa)
#
#
# Indices 1 2 3 4 5 6 
#
# 1 0.011367 -0.004658 -0.002480 0.000000 0.000000 0.000000
# 2 -0.004658 0.011367 -0.002480 0.000000 0.000000 0.000000
# 3 -0.002480 -0.002480 0.018842 0.000000 0.000000 0.000000
# 4 0.000000 0.000000 0.000000 0.031152 0.000000 0.000000
# 5 0.000000 0.000000 0.000000 0.000000 0.031152 0.000000
# 6 0.000000 0.000000 0.000000 0.000000 0.000000 0.028944
#
#
# Mechanical properties :
#
#
# Convention : Reuss Voigt Hill
#
# Bulk Modulus (GPa) = 44.76500 52.88845 48.82673
# Shear Modulus (GPa) = 31.34690 32.51658 31.93174
#
# Velocity S-wave (km/s) = 3.94626 4.01921 3.98290
# Velocity P-wave (km/s) = 6.55766 6.91472 6.73856
#
# Compressibility (1/GPa) = 0.02233888
#
# Stress axis : x y z
#
# Youngs Moduli (GPa) = 87.97755 87.97756 53.07233
#
# Poissons Ratio (x) = 0.40977 0.13163
# Poissons Ratio (y) = 0.40977 0.13163
# Poissons Ratio (z) = 0.21821 0.21821
#
# Static dielectric constant tensor:
#      x y z
#    x 1.817280 0.000000 0.000000 
#    y 0.000000 1.817280 0.000000 
#    z 0.000000 0.000000 1.696510 
# 
# From -- ./inp_files/6296.got.cif
#   From: 2010.05.17/outbox.cif.g08.bks.cpg/sg122_4_cif.got.tgz:6296.got - 2010.05.20 11:37:33.
