data_PCOD9561391
_publ_section_title
;
Structure prediction by ZEFSAII (Michael W. Deem and Ramdas Pophale) SiO2 
 PCOD9561391
Probable space group: I -4 2 D
;
_chemical_formula_sum "Si O2"
_cell_formula_units_Z 88
_cell_length_a 10.993872
_cell_length_b 10.993872
_cell_length_c 30.043067
_cell_angle_alpha 90.000000
_cell_angle_beta 90.000000
_cell_angle_gamma 90.000000
_cell_volume 3631.161949
_symmetry_space_group_name_H-M "I -4 2 D"
_symmetry_group_IT_number 122
_symmetry_cell_setting 'tetragonal'
loop_
_space_group_symop_operation_xyz
x,y,z
y,-x,-z
-x,-y,z
-y,x,-z
x,1/2-y,1/4-z
-x,1/2+y,1/4-z
-y,1/2-x,1/4+z
y,1/2+x,1/4+z
1/2+x,1/2+y,1/2+z
1/2+y,1/2-x,1/2-z
1/2-x,1/2-y,1/2+z
1/2-y,1/2+x,1/2-z
1/2+x,-y,3/4-z
1/2-x,y,3/4-z
1/2-y,-x,3/4+z
1/2+y,x,3/4+z
loop_
_atom_site_type_symbol
_atom_site_label
_atom_site_fract_x
_atom_site_fract_y
_atom_site_fract_z
Si Si1 0.475379 0.193088 0.369151
Si Si2 0.435154 0.631958 0.601772
Si Si3 0.850681 0.866791 0.993225
Si Si4 0.516327 0.250000 0.125000
Si Si5 0.486771 0.308129 0.984348
Si Si6 0.173230 0.855143 0.301913
O O1 0.415776 0.325603 0.369153
O O2 0.369584 0.096324 0.378140
O O3 0.516325 0.188406 0.317853
O O4 0.566690 0.173066 0.411364
O O5 0.500000 0.500000 0.590228
O O6 0.499330 0.750000 0.625000
O O7 0.367088 0.684066 0.558052
O O8 0.774234 0.796957 0.030004
O O9 0.991140 0.833700 0.995281
O O10 0.429627 0.237425 0.167015
O O11 0.372104 0.399972 0.990939
O O12 0.443820 0.180558 0.007747
#
# Coordination Sequence:
#
# PCOD9561391 Si02
#       6
#    16  16  16   8  16  16
#     4  12  25  49  79 110 164 216 269 353 428 502
#     4  12  25  50  84 117 160 218 278 355 431 513
#     4  11  22  49  76 108 158 206 266 337 422 499
#     4  12  26  48  72 114 156 208 276 340 412 510
#     4  11  25  48  72 108 159 210 271 352 419 499
#     4  12  25  44  80 115 148 222 280 326 421 515
#
# _framework density 24.234665
#
# number of rings (size 3 to 8) (size 9 to 14) (size 15 to 20)
#    0.000    0.364    6.364    2.727    2.545    0.000 
#   16.364    3.636    0.000    0.000    0.000    0.000 
#    0.000    0.000    0.000    0.000    0.000    0.000 
#
# Total GULP energy -245057.169682 kJ/mol
# GULP energy per Si atom -5569.481129 kJ/mol
# Density = 2.417951 g / cm^3
# Si number density = 24.234665 Si / 1000 Ang^3
#
#
#
# Elastic Constant Matrix: (Units=GPa)
#
#
# Indices 1 2 3 4 5 6 
#
# 1 56.8470 32.2264 31.2860 0.0000 0.0000 0.0000
# 2 32.2264 56.8470 31.2860 0.0000 0.0000 0.0000
# 3 31.2860 31.2860 134.0898 0.0000 0.0000 0.0000
# 4 0.0000 0.0000 0.0000 44.3501 0.0000 0.0000
# 5 0.0000 0.0000 0.0000 0.0000 44.3501 0.0000
# 6 0.0000 0.0000 0.0000 0.0000 0.0000 9.8510
#
#
#
# Elastic Compliance Matrix: (Units=1/GPa)
#
#
# Indices 1 2 3 4 5 6 
#
# 1 0.027022 -0.013594 -0.003133 0.000000 0.000000 0.000000
# 2 -0.013594 0.027022 -0.003133 0.000000 0.000000 0.000000
# 3 -0.003133 -0.003133 0.008920 0.000000 0.000000 0.000000
# 4 0.000000 0.000000 0.000000 0.022548 0.000000 0.000000
# 5 0.000000 0.000000 0.000000 0.000000 0.022548 0.000000
# 6 0.000000 0.000000 0.000000 0.000000 0.000000 0.101513
#
#
# Mechanical properties :
#
#
# Convention : Reuss Voigt Hill
#
# Bulk Modulus (GPa) = 43.02377 48.59784 45.81081
# Shear Modulus (GPa) = 19.45219 29.90926 24.68073
#
# Velocity S-wave (km/s) = 2.83620 3.51686 3.19471
# Velocity P-wave (km/s) = 5.34012 6.04877 5.70546
#
# Compressibility (1/GPa) = 0.02324296
#
# Stress axis : x y z
#
# Youngs Moduli (GPa) = 37.00689 37.00689 112.11207
#
# Poissons Ratio (x) = 0.50309 0.35124
# Poissons Ratio (y) = 0.50309 0.35124
# Poissons Ratio (z) = 0.11594 0.11594
#
# Static dielectric constant tensor:
#      x y z
#    x 1.980890 0.000000 0.000000 
#    y 0.000000 1.980890 0.000000 
#    z 0.000000 0.000000 2.030160 
# 
# From -- ./inp_files/9505.got.cif
#   From: 2010.05.17/outbox.cif.g08.bks.cpg/sg122_5_cif.got.tgz:9505.got - 2010.05.20 11:37:33.
