data_PCOD9561033
_publ_section_title
;
Structure prediction by ZEFSAII (Michael W. Deem and Ramdas Pophale) SiO2 
 PCOD9561033
Probable space group: I -4 2 D
;
_chemical_formula_sum "Si O2"
_cell_formula_units_Z 96
_cell_length_a 14.873068
_cell_length_b 14.873068
_cell_length_c 19.495566
_cell_angle_alpha 90.000000
_cell_angle_beta 90.000000
_cell_angle_gamma 90.000000
_cell_volume 4312.578122
_symmetry_space_group_name_H-M "I -4 2 D"
_symmetry_group_IT_number 122
_symmetry_cell_setting 'tetragonal'
loop_
_space_group_symop_operation_xyz
x,y,z
y,-x,-z
-x,-y,z
-y,x,-z
x,1/2-y,1/4-z
-x,1/2+y,1/4-z
-y,1/2-x,1/4+z
y,1/2+x,1/4+z
1/2+x,1/2+y,1/2+z
1/2+y,1/2-x,1/2-z
1/2-x,1/2-y,1/2+z
1/2-y,1/2+x,1/2-z
1/2+x,-y,3/4-z
1/2-x,y,3/4-z
1/2-y,-x,3/4+z
1/2+y,x,3/4+z
loop_
_atom_site_type_symbol
_atom_site_label
_atom_site_fract_x
_atom_site_fract_y
_atom_site_fract_z
Si Si1 0.268178 0.011952 0.701221
Si Si2 0.521842 0.734560 0.306658
Si Si3 0.717072 0.645263 0.769298
Si Si4 0.909190 0.110125 0.602156
Si Si5 0.854588 0.798395 0.051705
Si Si6 0.936778 0.918633 0.699976
O O1 0.332860 0.097529 0.701607
O O2 0.165906 0.050148 0.693393
O O3 0.294850 0.954239 0.633525
O O4 0.277212 0.950595 0.767665
O O5 0.416509 0.713645 0.297479
O O6 0.543911 0.841682 0.310570
O O7 0.560843 0.671880 0.245993
O O8 0.800855 0.603296 0.808311
O O9 0.635911 0.631352 0.822667
O O10 0.718641 0.747062 0.746374
O O11 0.012626 0.094721 0.625720
O O12 0.850364 0.750000 0.125000
O O13 0.000000 0.000000 0.730500
#
# Coordination Sequence:
#
# PCOD9561033 Si02
#       6
#    16  16  16  16  16  16
#     4  12  26  46  70 104 140 189 248 303 366 447
#     4  11  21  41  67  97 138 185 233 289 362 430
#     4  10  21  41  67  97 141 183 224 299 359 429
#     4  10  21  41  67 102 140 180 239 287 357 451
#     4  12  26  48  72 101 146 192 249 309 371 438
#     4  11  23  43  72 102 144 193 238 301 375 445
#
# _framework density 22.260465
#
# number of rings (size 3 to 8) (size 9 to 14) (size 15 to 20)
#    0.000    1.000    5.000    2.000    0.000    3.000 
#    9.000    0.000    0.000    0.000    0.000    0.000 
#    0.000    0.000    0.000    0.000    0.000    0.000 
#
# Total GULP energy -267247.107421 kJ/mol
# GULP energy per Si atom -5567.648071 kJ/mol
# Density = 2.220980 g / cm^3
# Si number density = 22.260465 Si / 1000 Ang^3
#
#
#
# Elastic Constant Matrix: (Units=GPa)
#
#
# Indices 1 2 3 4 5 6 
#
# 1 102.2441 43.6792 40.0395 0.0000 0.0000 0.0000
# 2 43.6792 102.2441 40.0395 0.0000 0.0000 0.0000
# 3 40.0395 40.0395 85.5204 0.0000 0.0000 0.0000
# 4 0.0000 0.0000 0.0000 34.8260 0.0000 0.0000
# 5 0.0000 0.0000 0.0000 0.0000 34.8260 0.0000
# 6 0.0000 0.0000 0.0000 0.0000 0.0000 35.0325
#
#
#
# Elastic Compliance Matrix: (Units=1/GPa)
#
#
# Indices 1 2 3 4 5 6 
#
# 1 0.013149 -0.003926 -0.004318 0.000000 0.000000 0.000000
# 2 -0.003926 0.013149 -0.004318 0.000000 0.000000 0.000000
# 3 -0.004318 -0.004318 0.015736 0.000000 0.000000 0.000000
# 4 0.000000 0.000000 0.000000 0.028714 0.000000 0.000000
# 5 0.000000 0.000000 0.000000 0.000000 0.028714 0.000000
# 6 0.000000 0.000000 0.000000 0.000000 0.000000 0.028545
#
#
# Mechanical properties :
#
#
# Convention : Reuss Voigt Hill
#
# Bulk Modulus (GPa) = 59.13735 59.72500 59.43118
# Shear Modulus (GPa) = 31.49259 32.02026 31.75643
#
# Velocity S-wave (km/s) = 3.76537 3.79679 3.78111
# Velocity P-wave (km/s) = 6.74743 6.79037 6.76893
#
# Compressibility (1/GPa) = 0.01690979
#
# Stress axis : x y z
#
# Youngs Moduli (GPa) = 76.05282 76.05282 63.54772
#
# Poissons Ratio (x) = 0.29861 0.27439
# Poissons Ratio (y) = 0.29861 0.27439
# Poissons Ratio (z) = 0.32838 0.32838
#
# Static dielectric constant tensor:
#      x y z
#    x 1.883490 0.000000 0.000000 
#    y 0.000000 1.883490 0.000000 
#    z 0.000000 0.000000 1.854550 
# 
# From -- ./inp_files/7296.got.cif
#   From: 2010.05.17/outbox.cif.g08.bks.cpg/sg122_4_cif.got.tgz:7296.got - 2010.05.20 11:37:33.
