data_PCOD9561532
_publ_section_title
;
Structure prediction by ZEFSAII (Michael W. Deem and Ramdas Pophale) SiO2 
 PCOD9561532
Probable space group: I -4 2 D
;
_chemical_formula_sum "Si O2"
_cell_formula_units_Z 72
_cell_length_a 13.865003
_cell_length_b 13.865003
_cell_length_c 17.168710
_cell_angle_alpha 90.000000
_cell_angle_beta 90.000000
_cell_angle_gamma 90.000000
_cell_volume 3300.483764
_symmetry_space_group_name_H-M "I -4 2 D"
_symmetry_group_IT_number 122
_symmetry_cell_setting 'tetragonal'
loop_
_space_group_symop_operation_xyz
x,y,z
y,-x,-z
-x,-y,z
-y,x,-z
x,1/2-y,1/4-z
-x,1/2+y,1/4-z
-y,1/2-x,1/4+z
y,1/2+x,1/4+z
1/2+x,1/2+y,1/2+z
1/2+y,1/2-x,1/2-z
1/2-x,1/2-y,1/2+z
1/2-y,1/2+x,1/2-z
1/2+x,-y,3/4-z
1/2-x,y,3/4-z
1/2-y,-x,3/4+z
1/2+y,x,3/4+z
loop_
_atom_site_type_symbol
_atom_site_label
_atom_site_fract_x
_atom_site_fract_y
_atom_site_fract_z
Si Si1 0.643436 0.285015 0.979721
Si Si2 0.688626 0.832202 0.796807
Si Si3 0.558921 0.750000 0.125000
Si Si4 0.087518 0.433433 0.872010
Si Si5 0.486655 0.737679 0.413909
O O1 0.696289 0.370590 0.933379
O O2 0.570387 0.236090 0.918393
O O3 0.726926 0.215253 0.011530
O O4 0.597619 0.343755 0.051170
O O5 0.750000 0.844910 0.875000
O O6 0.576680 0.833251 0.821806
O O7 0.718773 0.910116 0.732204
O O8 0.497884 0.834365 0.082103
O O9 0.000000 0.500000 0.845186
O O10 0.037086 0.343364 0.912948
#
# Coordination Sequence:
#
# PCOD9561532 Si02
#       5
#    16  16   8  16  16
#     4  12  24  47  73 109 152 193 257 333 407 461
#     4  12  27  52  74 110 157 213 266 330 409 491
#     4  12  24  38  70 108 144 184 244 328 392 456
#     4  12  24  41  72 113 146 186 253 323 405 473
#     4  12  27  47  77 107 157 208 262 331 402 496
#
# _framework density 21.814983999999999
#
# number of rings (size 3 to 8) (size 9 to 14) (size 15 to 20)
#    0.000    0.000    6.667    2.667    3.111    2.222 
#    4.000    0.000    0.000    0.000    0.000    0.000 
#    0.000    0.000    0.000    0.000    0.000    0.000 
#
# Total GULP energy -201294.803281 kJ/mol
# GULP energy per Si atom -5591.522313 kJ/mol
# Density = 2.176533 g / cm^3
# Si number density = 21.814984 Si / 1000 Ang^3
#
#
#
# Elastic Constant Matrix: (Units=GPa)
#
#
# Indices 1 2 3 4 5 6 
#
# 1 128.1164 59.5905 81.8008 0.0000 0.0000 0.0000
# 2 59.5905 128.1164 81.8008 0.0000 0.0000 0.0000
# 3 81.8008 81.8008 135.7793 0.0000 0.0000 0.0000
# 4 0.0000 0.0000 0.0000 29.9944 0.0000 0.0000
# 5 0.0000 0.0000 0.0000 0.0000 29.9944 0.0000
# 6 0.0000 0.0000 0.0000 0.0000 0.0000 21.5535
#
#
#
# Elastic Compliance Matrix: (Units=1/GPa)
#
#
# Indices 1 2 3 4 5 6 
#
# 1 0.012905 -0.001688 -0.006758 0.000000 0.000000 0.000000
# 2 -0.001688 0.012905 -0.006758 0.000000 0.000000 0.000000
# 3 -0.006758 -0.006758 0.015508 0.000000 0.000000 0.000000
# 4 0.000000 0.000000 0.000000 0.033340 0.000000 0.000000
# 5 0.000000 0.000000 0.000000 0.000000 0.033340 0.000000
# 6 0.000000 0.000000 0.000000 0.000000 0.000000 0.046396
#
#
# Mechanical properties :
#
#
# Convention : Reuss Voigt Hill
#
# Bulk Modulus (GPa) = 91.65347 93.15512 92.40429
# Shear Modulus (GPa) = 26.53382 27.56313 27.04848
#
# Velocity S-wave (km/s) = 3.49135 3.55842 3.52505
# Velocity P-wave (km/s) = 7.63923 7.72517 7.68232
#
# Compressibility (1/GPa) = 0.01091066
#
# Stress axis : x y z
#
# Youngs Moduli (GPa) = 77.48707 77.48707 64.48338
#
# Poissons Ratio (x) = 0.13077 0.43579
# Poissons Ratio (y) = 0.13077 0.43579
# Poissons Ratio (z) = 0.52367 0.52367
#
# Static dielectric constant tensor:
#      x y z
#    x 1.880450 0.000000 0.000000 
#    y 0.000000 1.880450 0.000000 
#    z 0.000000 0.000000 1.830230 
# 
# From -- ./inp_files/6126.got.cif
#   From: 2010.05.17/outbox.cif.g08.bks.cpg/sg122_4_cif.got.tgz:6126.got - 2010.05.20 11:37:33.
