data_PCOD9561138
_publ_section_title
;
Structure prediction by ZEFSAII (Michael W. Deem and Ramdas Pophale) SiO2 
 PCOD9561138
Probable space group: I -4 2 D
;
_chemical_formula_sum "Si O2"
_cell_formula_units_Z 88
_cell_length_a 12.445835
_cell_length_b 12.445835
_cell_length_c 29.194419
_cell_angle_alpha 90.000000
_cell_angle_beta 90.000000
_cell_angle_gamma 90.000000
_cell_volume 4522.180728
_symmetry_space_group_name_H-M "I -4 2 D"
_symmetry_group_IT_number 122
_symmetry_cell_setting 'tetragonal'
loop_
_space_group_symop_operation_xyz
x,y,z
y,-x,-z
-x,-y,z
-y,x,-z
x,1/2-y,1/4-z
-x,1/2+y,1/4-z
-y,1/2-x,1/4+z
y,1/2+x,1/4+z
1/2+x,1/2+y,1/2+z
1/2+y,1/2-x,1/2-z
1/2-x,1/2-y,1/2+z
1/2-y,1/2+x,1/2-z
1/2+x,-y,3/4-z
1/2-x,y,3/4-z
1/2-y,-x,3/4+z
1/2+y,x,3/4+z
loop_
_atom_site_type_symbol
_atom_site_label
_atom_site_fract_x
_atom_site_fract_y
_atom_site_fract_z
Si Si1 0.364293 0.814872 0.901234
Si Si2 0.000000 0.000000 0.889034
Si Si3 0.953641 0.752131 0.703206
Si Si4 0.749046 0.813050 0.254493
Si Si5 0.101239 0.116575 0.973373
Si Si6 0.086216 0.907075 0.371020
O O1 0.250000 0.807571 0.875000
O O2 0.422617 0.925427 0.890493
O O3 0.339360 0.797214 0.954335
O O4 0.437997 0.716890 0.882292
O O5 0.070508 0.074073 0.923225
O O6 0.874671 0.720094 0.744595
O O7 0.913328 0.860612 0.679064
O O8 0.937018 0.667375 0.662217
O O9 0.077428 0.755821 0.717044
O O10 0.816999 0.714867 0.275015
O O11 0.987646 0.144223 0.998422
O O12 0.000000 0.000000 0.372742
#
# Coordination Sequence:
#
# PCOD9561138 Si02
#       6
#    16   8  16  16  16  16
#     4  11  21  45  64  88 133 170 207 258 331 381
#     4  10  23  40  66  94 118 176 206 256 322 381
#     4  10  24  40  63  94 126 168 208 261 321 366
#     4  11  23  41  63  96 128 163 214 264 312 379
#     4   9  20  39  65  88 122 165 208 258 320 371
#     4  10  22  42  67  89 125 175 211 254 321 391
#
# _framework density 19.459636
#
# number of rings (size 3 to 8) (size 9 to 14) (size 15 to 20)
#    0.000    2.000    3.636    2.182    7.636    0.000 
#    8.182    0.000    0.000    0.000    0.000    0.000 
#    0.000    0.000    0.000    0.000    0.000    0.000 
#
# Total GULP energy -245563.414968 kJ/mol
# GULP energy per Si atom -5580.986704 kJ/mol
# Density = 1.941535 g / cm^3
# Si number density = 19.459636 Si / 1000 Ang^3
#
#
#
# Elastic Constant Matrix: (Units=GPa)
#
#
# Indices 1 2 3 4 5 6 
#
# 1 85.0373 48.6463 8.7639 0.0000 0.0000 0.0000
# 2 48.6463 85.0373 8.7639 0.0000 0.0000 0.0000
# 3 8.7639 8.7639 26.8368 0.0000 0.0000 0.0000
# 4 0.0000 0.0000 0.0000 7.9818 0.0000 0.0000
# 5 0.0000 0.0000 0.0000 0.0000 7.9818 0.0000
# 6 0.0000 0.0000 0.0000 0.0000 0.0000 41.2206
#
#
#
# Elastic Compliance Matrix: (Units=1/GPa)
#
#
# Indices 1 2 3 4 5 6 
#
# 1 0.017647 -0.009832 -0.002552 0.000000 0.000000 0.000000
# 2 -0.009832 0.017647 -0.002552 0.000000 0.000000 0.000000
# 3 -0.002552 -0.002552 0.038929 0.000000 0.000000 0.000000
# 4 0.000000 0.000000 0.000000 0.125285 0.000000 0.000000
# 5 0.000000 0.000000 0.000000 0.000000 0.125285 0.000000
# 6 0.000000 0.000000 0.000000 0.000000 0.000000 0.024260
#
#
# Mechanical properties :
#
#
# Convention : Reuss Voigt Hill
#
# Bulk Modulus (GPa) = 22.54755 36.58440 29.56597
# Shear Modulus (GPa) = 12.69971 20.15266 16.42618
#
# Velocity S-wave (km/s) = 2.55741 3.22159 2.90852
# Velocity P-wave (km/s) = 4.50915 5.71656 5.14838
#
# Compressibility (1/GPa) = 0.04435073
#
# Stress axis : x y z
#
# Youngs Moduli (GPa) = 56.66642 56.66642 25.68776
#
# Poissons Ratio (x) = 0.55715 0.06556
# Poissons Ratio (y) = 0.55715 0.06556
# Poissons Ratio (z) = 0.14462 0.14462
#
# Static dielectric constant tensor:
#      x y z
#    x 1.706710 0.000000 0.000000 
#    y 0.000000 1.706710 0.000000 
#    z 0.000000 0.000000 1.664420 
# 
# From -- ./inp_files/9526.got.cif
#   From: 2010.05.17/outbox.cif.g08.bks.cpg/sg122_5_cif.got.tgz:9526.got - 2010.05.20 11:37:33.
