data_PCOD9561638
_publ_section_title
;
Structure prediction by ZEFSAII (Michael W. Deem and Ramdas Pophale) SiO2 
 PCOD9561638
Probable space group: P 4/M M M
;
_chemical_formula_sum "Si O2"
_cell_formula_units_Z 112
_cell_length_a 18.067188
_cell_length_b 18.067188
_cell_length_c 22.204273
_cell_angle_alpha 90.000000
_cell_angle_beta 90.000000
_cell_angle_gamma 90.000000
_cell_volume 7247.991672
_symmetry_space_group_name_H-M "P 4/M M M"
_symmetry_group_IT_number 123
_symmetry_cell_setting 'tetragonal'
loop_
_space_group_symop_operation_xyz
x,y,z
-y,x,z
-x,-y,z
y,-x,z
x,-y,-z
-x,y,-z
y,x,-z
-y,-x,-z
-x,-y,-z
y,-x,-z
x,y,-z
-y,x,-z
-x,y,z
x,-y,z
-y,-x,z
y,x,z
loop_
_atom_site_type_symbol
_atom_site_label
_atom_site_fract_x
_atom_site_fract_y
_atom_site_fract_z
Si Si1 0.585198 0.704728 0.878090
Si Si2 0.584554 0.222945 0.250843
Si Si3 0.585682 0.914476 0.572513
Si Si4 0.351330 0.917548 0.810367
Si Si5 0.812965 0.304099 0.646412
Si Si6 0.587371 0.867415 0.068815
Si Si7 0.209141 0.087625 0.736281
O O1 0.500000 0.681619 0.885184
O O2 0.642438 0.642438 0.896538
O O3 0.596967 0.725251 0.807412
O O4 0.595533 0.780442 0.915343
O O5 0.500000 0.232456 0.271276
O O6 0.596886 0.141044 0.223277
O O7 0.644069 0.227504 0.303831
O O8 0.589797 0.910537 0.500000
O O9 0.500000 0.899434 0.589852
O O10 0.641931 0.857196 0.602213
O O11 0.602281 0.000000 0.589893
O O12 0.366183 0.909627 0.880948
O O13 0.266523 0.902257 0.791786
O O14 0.368646 0.000000 0.789438
O O15 0.752035 0.247966 0.619767
O O16 0.873527 0.253765 0.681506
O O17 0.500000 0.885133 0.076646
O O18 0.607602 0.882443 0.000000
O O19 0.134392 0.134392 0.744976
O O20 0.197370 0.000000 0.727133
#
# Coordination Sequence:
#
# PCOD9561638 Si02
#       7
#    16  16  16  16  16  16  16
#     4   9  17  29  43  58  78 103 134 172 208 244
#     4   9  17  28  42  61  86 116 143 167 205 255
#     4   9  18  32  48  66  91 123 155 185 218 259
#     4   9  17  28  42  63  88 109 135 174 211 245
#     4  10  18  28  45  68  93 118 146 181 218 256
#     4   9  18  30  42  58  81 110 139 164 200 253
#     4   9  18  31  46  65  88 113 142 177 216 258
#
# _framework density 15.452557000000001
#
# number of rings (size 3 to 8) (size 9 to 14) (size 15 to 20)
#    0.000    2.857    0.000    3.000    0.000    6.286 
#    0.000    0.714    0.000    0.000    0.000    2.000 
#    0.000    2.571    0.000   22.714    0.000    0.000 
#
# Total GULP energy -623865.496879 kJ/mol
# GULP energy per Si atom -5570.227651 kJ/mol
# Density = 1.541739 g / cm^3
# Si number density = 15.452557 Si / 1000 Ang^3
#
#
#
# Elastic Constant Matrix: (Units=GPa)
#
#
# Indices 1 2 3 4 5 6 
#
# 1 63.2323 46.1837 19.5904 0.0000 0.0000 0.0000
# 2 46.1837 63.2323 19.5904 0.0000 0.0000 0.0000
# 3 19.5904 19.5904 39.9003 0.0000 0.0000 0.0000
# 4 0.0000 0.0000 0.0000 12.9762 0.0000 0.0000
# 5 0.0000 0.0000 0.0000 0.0000 12.9762 0.0000
# 6 0.0000 0.0000 0.0000 0.0000 0.0000 18.0127
#
#
#
# Elastic Compliance Matrix: (Units=1/GPa)
#
#
# Indices 1 2 3 4 5 6 
#
# 1 0.034872 -0.023783 -0.005445 0.000000 0.000000 0.000000
# 2 -0.023783 0.034872 -0.005445 0.000000 0.000000 0.000000
# 3 -0.005445 -0.005445 0.030409 0.000000 0.000000 0.000000
# 4 0.000000 0.000000 0.000000 0.077064 0.000000 0.000000
# 5 0.000000 0.000000 0.000000 0.000000 0.077064 0.000000
# 6 0.000000 0.000000 0.000000 0.000000 0.000000 0.055516
#
#
# Mechanical properties :
#
#
# Convention : Reuss Voigt Hill
#
# Bulk Modulus (GPa) = 32.45829 37.45487 34.95658
# Shear Modulus (GPa) = 12.83987 14.19308 13.51647
#
# Velocity S-wave (km/s) = 2.88570 3.03395 2.96075
# Velocity P-wave (km/s) = 5.67043 6.04685 5.86166
#
# Compressibility (1/GPa) = 0.03080877
#
# Stress axis : x y z
#
# Youngs Moduli (GPa) = 28.67598 28.67598 32.88524
#
# Poissons Ratio (x) = 0.68201 0.17904
# Poissons Ratio (y) = 0.68201 0.17904
# Poissons Ratio (z) = 0.15613 0.15613
#
# Static dielectric constant tensor:
#      x y z
#    x 1.510680 0.000000 0.000000 
#    y 0.000000 1.510680 0.000000 
#    z 0.000000 0.000000 1.519780 
# 
# From -- ./inp_files/6660.got.cif
#   From: 2010.05.17/outbox.cif.g08.bks.cpg/sg123_4_cif.got.tgz:6660.got - 2010.05.20 11:43:04.
