data_PCOD9561068
_publ_section_title
;
Structure prediction by ZEFSAII (Michael W. Deem and Ramdas Pophale) SiO2 
 PCOD9561068
Probable space group: I -4 2 D
;
_chemical_formula_sum "Si O2"
_cell_formula_units_Z 80
_cell_length_a 15.969299
_cell_length_b 15.969299
_cell_length_c 16.723850
_cell_angle_alpha 90.000000
_cell_angle_beta 90.000000
_cell_angle_gamma 90.000000
_cell_volume 4264.891318
_symmetry_space_group_name_H-M "I -4 2 D"
_symmetry_group_IT_number 122
_symmetry_cell_setting 'tetragonal'
loop_
_space_group_symop_operation_xyz
x,y,z
y,-x,-z
-x,-y,z
-y,x,-z
x,1/2-y,1/4-z
-x,1/2+y,1/4-z
-y,1/2-x,1/4+z
y,1/2+x,1/4+z
1/2+x,1/2+y,1/2+z
1/2+y,1/2-x,1/2-z
1/2-x,1/2-y,1/2+z
1/2-y,1/2+x,1/2-z
1/2+x,-y,3/4-z
1/2-x,y,3/4-z
1/2-y,-x,3/4+z
1/2+y,x,3/4+z
loop_
_atom_site_type_symbol
_atom_site_label
_atom_site_fract_x
_atom_site_fract_y
_atom_site_fract_z
Si Si1 0.741513 0.076260 0.134777
Si Si2 0.412448 0.047900 0.108478
Si Si3 0.697380 0.878556 0.453494
Si Si4 0.094512 0.519578 0.050619
Si Si5 0.152443 0.192616 0.549960
O O1 0.704403 0.147542 0.076144
O O2 0.836703 0.042780 0.132303
O O3 0.737702 0.113279 0.224080
O O4 0.669621 0.006141 0.127093
O O5 0.413256 0.125025 0.168381
O O6 0.500000 0.000000 0.118197
O O7 0.409351 0.078482 0.016710
O O8 0.750000 0.910077 0.375000
O O9 0.765442 0.853393 0.518466
O O10 0.634991 0.944599 0.495788
O O11 0.000000 0.500000 0.080290
O O12 0.172479 0.250000 0.625000
#
# Coordination Sequence:
#
# PCOD9561068 Si02
#       5
#    16  16  16  16  16
#     4  11  22  36  58  84 126 163 202 257 302 378
#     4  11  22  33  53  90 127 160 197 243 310 384
#     4  10  22  38  54  86 126 163 206 255 310 377
#     4  11  21  36  58  88 128 163 208 245 312 379
#     4  11  23  35  56  85 124 166 204 245 315 378
#
# _framework density 18.757805000000001
#
# number of rings (size 3 to 8) (size 9 to 14) (size 15 to 20)
#    0.000    1.200    8.000    0.000    5.600    0.000 
#    0.000    0.000    0.000    6.000    0.000    0.000 
#    0.000    0.000    0.000    0.000    0.000    0.000 
#
# Total GULP energy -222968.522078 kJ/mol
# GULP energy per Si atom -5574.213052 kJ/mol
# Density = 1.871511 g / cm^3
# Si number density = 18.757805 Si / 1000 Ang^3
#
#
#
# Elastic Constant Matrix: (Units=GPa)
#
#
# Indices 1 2 3 4 5 6 
#
# 1 93.3188 32.8120 14.9517 0.0000 0.0000 0.0000
# 2 32.8120 93.3188 14.9517 0.0000 0.0000 0.0000
# 3 14.9517 14.9517 37.5146 0.0000 0.0000 0.0000
# 4 0.0000 0.0000 0.0000 18.0236 0.0000 0.0000
# 5 0.0000 0.0000 0.0000 0.0000 18.0236 0.0000
# 6 0.0000 0.0000 0.0000 0.0000 0.0000 17.9647
#
#
#
# Elastic Compliance Matrix: (Units=1/GPa)
#
#
# Indices 1 2 3 4 5 6 
#
# 1 0.012641 -0.003886 -0.003490 0.000000 0.000000 0.000000
# 2 -0.003886 0.012641 -0.003490 0.000000 0.000000 0.000000
# 3 -0.003490 -0.003490 0.029438 0.000000 0.000000 0.000000
# 4 0.000000 0.000000 0.000000 0.055483 0.000000 0.000000
# 5 0.000000 0.000000 0.000000 0.000000 0.055483 0.000000
# 6 0.000000 0.000000 0.000000 0.000000 0.000000 0.055665
#
#
# Mechanical properties :
#
#
# Convention : Reuss Voigt Hill
#
# Bulk Modulus (GPa) = 30.31161 38.84255 34.57708
# Shear Modulus (GPa) = 19.67904 21.56485 20.62195
#
# Velocity S-wave (km/s) = 3.24251 3.39432 3.31929
# Velocity P-wave (km/s) = 5.49664 6.00951 5.75879
#
# Compressibility (1/GPa) = 0.03299066
#
# Stress axis : x y z
#
# Youngs Moduli (GPa) = 79.10554 79.10554 33.96984
#
# Poissons Ratio (x) = 0.30738 0.11854
# Poissons Ratio (y) = 0.30738 0.11854
# Poissons Ratio (z) = 0.27605 0.27605
#
# Static dielectric constant tensor:
#      x y z
#    x 1.728850 0.000000 0.000000 
#    y 0.000000 1.728850 0.000000 
#    z 0.000000 0.000000 1.631100 
# 
# From -- ./inp_files/5288.got.cif
#   From: 2010.05.17/outbox.cif.g08.bks.cpg/sg122_3_cif.got.tgz:5288.got - 2010.05.20 11:37:33.
