data_PCOD9561323
_publ_section_title
;
Structure prediction by ZEFSAII (Michael W. Deem and Ramdas Pophale) SiO2 
 PCOD9561323
Probable space group: I -4 2 D
;
_chemical_formula_sum "Si O2"
_cell_formula_units_Z 64
_cell_length_a 18.864946
_cell_length_b 18.864946
_cell_length_c 10.090596
_cell_angle_alpha 90.000000
_cell_angle_beta 90.000000
_cell_angle_gamma 90.000000
_cell_volume 3591.103741
_symmetry_space_group_name_H-M "I -4 2 D"
_symmetry_group_IT_number 122
_symmetry_cell_setting 'tetragonal'
loop_
_space_group_symop_operation_xyz
x,y,z
y,-x,-z
-x,-y,z
-y,x,-z
x,1/2-y,1/4-z
-x,1/2+y,1/4-z
-y,1/2-x,1/4+z
y,1/2+x,1/4+z
1/2+x,1/2+y,1/2+z
1/2+y,1/2-x,1/2-z
1/2-x,1/2-y,1/2+z
1/2-y,1/2+x,1/2-z
1/2+x,-y,3/4-z
1/2-x,y,3/4-z
1/2-y,-x,3/4+z
1/2+y,x,3/4+z
loop_
_atom_site_type_symbol
_atom_site_label
_atom_site_fract_x
_atom_site_fract_y
_atom_site_fract_z
Si Si1 0.581229 0.487909 0.290797
Si Si2 0.812505 0.727429 0.276654
Si Si3 0.354402 0.428976 0.537269
Si Si4 0.230663 0.530524 0.533146
O O1 0.500000 0.500000 0.246222
O O2 0.598735 0.536059 0.419773
O O3 0.587592 0.407856 0.344469
O O4 0.650447 0.496844 0.198189
O O5 0.798871 0.750000 0.125000
O O6 0.750000 0.747676 0.375000
O O7 0.821826 0.642589 0.270940
O O8 0.887997 0.759283 0.322124
O O9 0.292444 0.480528 0.587572
O O10 0.250000 0.528631 0.375000
#
# Coordination Sequence:
#
# PCOD9561323 Si02
#       4
#    16  16  16  16
#     4  11  16  26  46  73 104 130 160 217 274 303
#     4  11  20  33  51  75 106 142 173 215 261 309
#     4  11  16  28  46  73 104 127 166 212 269 308
#     4   9  18  29  43  73 102 131 164 212 261 307
#
# _framework density 17.821819000000001
#
# number of rings (size 3 to 8) (size 9 to 14) (size 15 to 20)
#    0.000    1.500   10.000    2.250    0.000    0.000 
#    0.000    0.000    0.000    1.500    0.000    0.000 
#    0.000    0.000    0.000    0.000    0.000    0.000 
#
# Total GULP energy -178277.953488 kJ/mol
# GULP energy per Si atom -5571.186046 kJ/mol
# Density = 1.778126 g / cm^3
# Si number density = 17.821819 Si / 1000 Ang^3
#
#
#
# Elastic Constant Matrix: (Units=GPa)
#
#
# Indices 1 2 3 4 5 6 
#
# 1 101.9019 14.8552 13.6618 0.0000 0.0000 0.0000
# 2 14.8552 101.9019 13.6618 0.0000 0.0000 0.0000
# 3 13.6618 13.6618 11.2191 0.0000 0.0000 0.0000
# 4 0.0000 0.0000 0.0000 11.0920 0.0000 0.0000
# 5 0.0000 0.0000 0.0000 0.0000 11.0920 0.0000
# 6 0.0000 0.0000 0.0000 0.0000 0.0000 22.0667
#
#
#
# Elastic Compliance Matrix: (Units=1/GPa)
#
#
# Indices 1 2 3 4 5 6 
#
# 1 0.011733 0.000245 -0.014586 0.000000 0.000000 0.000000
# 2 0.000245 0.011733 -0.014586 0.000000 0.000000 0.000000
# 3 -0.014586 -0.014586 0.124657 0.000000 0.000000 0.000000
# 4 0.000000 0.000000 0.000000 0.090155 0.000000 0.000000
# 5 0.000000 0.000000 0.000000 0.000000 0.090155 0.000000
# 6 0.000000 0.000000 0.000000 0.000000 0.000000 0.045317
#
#
# Mechanical properties :
#
#
# Convention : Reuss Voigt Hill
#
# Bulk Modulus (GPa) = 11.07801 33.26450 22.17125
# Shear Modulus (GPa) = 10.82965 20.37309 15.60137
#
# Velocity S-wave (km/s) = 2.46776 3.38472 2.96194
# Velocity P-wave (km/s) = 3.78804 5.82930 4.91579
#
# Compressibility (1/GPa) = 0.09026895
#
# Stress axis : x y z
#
# Youngs Moduli (GPa) = 85.22837 85.22837 8.02199
#
# Poissons Ratio (x) = -0.02089 0.11701
# Poissons Ratio (y) = -0.02089 0.11701
# Poissons Ratio (z) = 1.24316 1.24316
#
# Static dielectric constant tensor:
#      x y z
#    x 1.653350 0.000000 0.000000 
#    y 0.000000 1.653350 0.000000 
#    z 0.000000 0.000000 1.584890 
# 
# From -- ./inp_files/2546.got.cif
#   From: 2010.05.17/outbox.cif.g08.bks.cpg/sg122_2_cif.got.tgz:2546.got - 2010.05.20 11:37:33.
