data_PCOD9561376
_publ_section_title
;
Structure prediction by ZEFSAII (Michael W. Deem and Ramdas Pophale) SiO2 
 PCOD9561376
Probable space group: I -4 2 D
;
_chemical_formula_sum "Si O2"
_cell_formula_units_Z 112
_cell_length_a 14.146026
_cell_length_b 14.146026
_cell_length_c 23.204872
_cell_angle_alpha 90.000000
_cell_angle_beta 90.000000
_cell_angle_gamma 90.000000
_cell_volume 4643.528133
_symmetry_space_group_name_H-M "I -4 2 D"
_symmetry_group_IT_number 122
_symmetry_cell_setting 'tetragonal'
loop_
_space_group_symop_operation_xyz
x,y,z
y,-x,-z
-x,-y,z
-y,x,-z
x,1/2-y,1/4-z
-x,1/2+y,1/4-z
-y,1/2-x,1/4+z
y,1/2+x,1/4+z
1/2+x,1/2+y,1/2+z
1/2+y,1/2-x,1/2-z
1/2-x,1/2-y,1/2+z
1/2-y,1/2+x,1/2-z
1/2+x,-y,3/4-z
1/2-x,y,3/4-z
1/2-y,-x,3/4+z
1/2+y,x,3/4+z
loop_
_atom_site_type_symbol
_atom_site_label
_atom_site_fract_x
_atom_site_fract_y
_atom_site_fract_z
Si Si1 0.386105 0.246931 0.292678
Si Si2 0.364360 0.799661 0.686803
Si Si3 0.990692 0.208609 0.959791
Si Si4 0.044794 0.400228 0.994822
Si Si5 0.637866 0.930730 0.375776
Si Si6 0.165552 0.620205 0.830526
Si Si7 0.178745 0.427063 0.088032
O O1 0.282035 0.293620 0.289783
O O2 0.388290 0.158119 0.336289
O O3 0.411245 0.209625 0.229854
O O4 0.464438 0.320305 0.315362
O O5 0.389249 0.750000 0.625000
O O6 0.453814 0.823561 0.727822
O O7 0.309969 0.900589 0.691022
O O8 0.929228 0.169202 0.906910
O O9 0.976376 0.321026 0.968952
O O10 0.101018 0.370014 0.052025
O O11 0.000000 0.500000 0.007898
O O12 0.113720 0.416611 0.941801
O O13 0.750000 0.937465 0.375000
O O14 0.603573 0.033195 0.354080
O O15 0.250000 0.640095 0.875000
O O16 0.109790 0.717080 0.823077
#
# Coordination Sequence:
#
# PCOD9561376 Si02
#       7
#    16  16  16  16  16  16  16
#     4  12  22  42  70 100 143 192 242 297 371 450
#     4  12  26  50  77 104 146 193 249 319 389 460
#     4  12  27  48  75 108 142 193 250 312 384 467
#     4  12  25  45  72 105 146 190 250 310 381 461
#     4  11  22  40  65 100 145 192 242 299 371 454
#     4  11  23  38  62 102 147 186 238 298 361 448
#     4  12  24  43  70 102 139 190 239 299 376 450
#
# _framework density 24.119591
#
# number of rings (size 3 to 8) (size 9 to 14) (size 15 to 20)
#    0.000    0.286    2.857    8.143    0.000    1.429 
#    0.000    2.143    0.000    0.000    0.000    0.000 
#    0.000    0.000    0.000    0.000    0.000    0.000 
#
# Total GULP energy -313209.022691 kJ/mol
# GULP energy per Si atom -5593.018262 kJ/mol
# Density = 2.406469 g / cm^3
# Si number density = 24.119591 Si / 1000 Ang^3
#
#
#
# Elastic Constant Matrix: (Units=GPa)
#
#
# Indices 1 2 3 4 5 6 
#
# 1 61.9640 7.5133 37.3957 0.0000 0.0000 0.0000
# 2 7.5133 61.9640 37.3957 0.0000 0.0000 0.0000
# 3 37.3957 37.3957 164.7154 0.0000 0.0000 0.0000
# 4 0.0000 0.0000 0.0000 26.7971 0.0000 0.0000
# 5 0.0000 0.0000 0.0000 0.0000 26.7971 0.0000
# 6 0.0000 0.0000 0.0000 0.0000 0.0000 18.8923
#
#
#
# Elastic Compliance Matrix: (Units=1/GPa)
#
#
# Indices 1 2 3 4 5 6 
#
# 1 0.018707 0.000342 -0.004325 0.000000 0.000000 0.000000
# 2 0.000342 0.018707 -0.004325 0.000000 0.000000 0.000000
# 3 -0.004325 -0.004325 0.008035 0.000000 0.000000 0.000000
# 4 0.000000 0.000000 0.000000 0.037318 0.000000 0.000000
# 5 0.000000 0.000000 0.000000 0.000000 0.037318 0.000000
# 6 0.000000 0.000000 0.000000 0.000000 0.000000 0.052932
#
#
# Mechanical properties :
#
#
# Convention : Reuss Voigt Hill
#
# Bulk Modulus (GPa) = 34.68204 50.36142 42.52173
# Shear Modulus (GPa) = 25.09515 28.25320 26.67417
#
# Velocity S-wave (km/s) = 3.22910 3.42626 3.32914
# Velocity P-wave (km/s) = 5.32101 6.04793 5.69608
#
# Compressibility (1/GPa) = 0.02883337
#
# Stress axis : x y z
#
# Youngs Moduli (GPa) = 53.45617 53.45617 124.45954
#
# Poissons Ratio (x) = -0.01826 0.53824
# Poissons Ratio (y) = -0.01826 0.53824
# Poissons Ratio (z) = 0.23118 0.23118
#
# Static dielectric constant tensor:
#      x y z
#    x 1.989880 0.000000 0.000000 
#    y 0.000000 1.989880 0.000000 
#    z 0.000000 0.000000 1.981810 
# 
# From -- ./inp_files/8120.got.cif
#   From: 2010.05.17/outbox.cif.g08.bks.cpg/sg122_5_cif.got.tgz:8120.got - 2010.05.20 11:37:33.
