data_PCOD9561671
_publ_section_title
;
Structure prediction by ZEFSAII (Michael W. Deem and Ramdas Pophale) SiO2 
 PCOD9561671
Probable space group: P 4/M M M
;
_chemical_formula_sum "Si O2"
_cell_formula_units_Z 112
_cell_length_a 17.639053
_cell_length_b 17.639053
_cell_length_c 20.815525
_cell_angle_alpha 90.000000
_cell_angle_beta 90.000000
_cell_angle_gamma 90.000000
_cell_volume 6476.463157
_symmetry_space_group_name_H-M "P 4/M M M"
_symmetry_group_IT_number 123
_symmetry_cell_setting 'tetragonal'
loop_
_space_group_symop_operation_xyz
x,y,z
-y,x,z
-x,-y,z
y,-x,z
x,-y,-z
-x,y,-z
y,x,-z
-y,-x,-z
-x,-y,-z
y,-x,-z
x,y,-z
-y,x,-z
-x,y,z
x,-y,z
-y,-x,z
y,x,z
loop_
_atom_site_type_symbol
_atom_site_label
_atom_site_fract_x
_atom_site_fract_y
_atom_site_fract_z
Si Si1 0.414526 0.819887 0.203328
Si Si2 0.870117 0.252073 0.238453
Si Si3 0.208286 0.913516 0.098868
Si Si4 0.913218 0.787865 0.382287
Si Si5 0.201240 0.668578 0.571081
Si Si6 0.287967 0.414587 0.321577
Si Si7 0.208640 0.663723 0.071705
O O1 0.500000 0.852312 0.207664
O O2 0.342381 0.868572 0.227807
O O3 0.412571 0.747873 0.250682
O O4 0.394424 0.798535 0.130122
O O5 0.784512 0.215489 0.238585
O O6 0.909821 0.215863 0.176521
O O7 0.905661 0.228262 0.305803
O O8 0.133156 0.866845 0.080521
O O9 0.279641 0.863766 0.075231
O O10 0.209084 0.000000 0.077659
O O11 0.860166 0.860166 0.397015
O O12 0.875300 0.714804 0.415446
O O13 0.000000 0.799241 0.400077
O O14 0.200803 0.634039 0.500000
O O15 0.266784 0.733217 0.572333
O O16 0.223508 0.612310 0.628112
O O17 0.311074 0.500000 0.336680
O O18 0.356965 0.356965 0.326453
O O19 0.280967 0.719034 0.081653
O O20 0.212831 0.630926 0.000000
#
# Coordination Sequence:
#
# PCOD9561671 Si02
#       7
#    16  16  16  16  16  16  16
#     4  10  18  29  51  77  99 124 161 209 253 291
#     4   9  16  30  49  68  96 133 172 205 241 297
#     4   9  17  28  45  69  95 125 161 201 248 301
#     4  10  19  31  51  76 103 135 170 211 259 308
#     4   9  18  33  52  73  99 136 180 214 242 293
#     4  10  19  32  53  80 108 137 170 211 258 306
#     4   9  18  32  49  68  94 130 168 203 241 294
#
# _framework density 17.293389000000001
#
# number of rings (size 3 to 8) (size 9 to 14) (size 15 to 20)
#    0.000    2.571    1.429    2.571    0.000    1.571 
#    0.000    0.000    0.000   14.571    0.000   11.000 
#    0.000    0.000    0.000   22.286    0.000    0.000 
#
# Total GULP energy -624092.122296 kJ/mol
# GULP energy per Si atom -5572.251092 kJ/mol
# Density = 1.725403 g / cm^3
# Si number density = 17.293389 Si / 1000 Ang^3
#
#
#
# Elastic Constant Matrix: (Units=GPa)
#
#
# Indices 1 2 3 4 5 6 
#
# 1 94.1856 21.7174 17.4029 0.0000 0.0000 0.0000
# 2 21.7174 94.1856 17.4029 0.0000 0.0000 0.0000
# 3 17.4029 17.4029 79.7630 0.0000 0.0000 0.0000
# 4 0.0000 0.0000 0.0000 3.2538 0.0000 0.0000
# 5 0.0000 0.0000 0.0000 0.0000 3.2538 0.0000
# 6 0.0000 0.0000 0.0000 0.0000 0.0000 9.3786
#
#
#
# Elastic Compliance Matrix: (Units=1/GPa)
#
#
# Indices 1 2 3 4 5 6 
#
# 1 0.011516 -0.002283 -0.002014 0.000000 0.000000 0.000000
# 2 -0.002283 0.011516 -0.002014 0.000000 0.000000 0.000000
# 3 -0.002014 -0.002014 0.013416 0.000000 0.000000 0.000000
# 4 0.000000 0.000000 0.000000 0.307332 0.000000 0.000000
# 5 0.000000 0.000000 0.000000 0.000000 0.307332 0.000000
# 6 0.000000 0.000000 0.000000 0.000000 0.000000 0.106626
#
#
# Mechanical properties :
#
#
# Convention : Reuss Voigt Hill
#
# Bulk Modulus (GPa) = 41.97435 42.35340 42.16387
# Shear Modulus (GPa) = 6.42422 17.28463 11.85443
#
# Velocity S-wave (km/s) = 1.92948 3.16491 2.62102
# Velocity P-wave (km/s) = 5.41188 6.15628 5.79604
#
# Compressibility (1/GPa) = 0.02382408
#
# Stress axis : x y z
#
# Youngs Moduli (GPa) = 86.83566 86.83566 74.53691
#
# Poissons Ratio (x) = 0.19826 0.15015
# Poissons Ratio (y) = 0.19826 0.15015
# Poissons Ratio (z) = 0.17493 0.17493
#
# Static dielectric constant tensor:
#      x y z
#    x 1.576830 0.000000 0.000000 
#    y 0.000000 1.576830 0.000000 
#    z 0.000000 0.000000 1.624590 
# 
# From -- ./inp_files/6718.got.cif
#   From: 2010.05.17/outbox.cif.g08.bks.cpg/sg123_4_cif.got.tgz:6718.got - 2010.05.20 11:43:04.
