data_PCOD9561457
_publ_section_title
;
Structure prediction by ZEFSAII (Michael W. Deem and Ramdas Pophale) SiO2 
 PCOD9561457
Probable space group: I -4 2 D
;
_chemical_formula_sum "Si O2"
_cell_formula_units_Z 64
_cell_length_a 10.530125
_cell_length_b 10.530125
_cell_length_c 25.220664
_cell_angle_alpha 90.000000
_cell_angle_beta 90.000000
_cell_angle_gamma 90.000000
_cell_volume 2796.556317
_symmetry_space_group_name_H-M "I -4 2 D"
_symmetry_group_IT_number 122
_symmetry_cell_setting 'tetragonal'
loop_
_space_group_symop_operation_xyz
x,y,z
y,-x,-z
-x,-y,z
-y,x,-z
x,1/2-y,1/4-z
-x,1/2+y,1/4-z
-y,1/2-x,1/4+z
y,1/2+x,1/4+z
1/2+x,1/2+y,1/2+z
1/2+y,1/2-x,1/2-z
1/2-x,1/2-y,1/2+z
1/2-y,1/2+x,1/2-z
1/2+x,-y,3/4-z
1/2-x,y,3/4-z
1/2-y,-x,3/4+z
1/2+y,x,3/4+z
loop_
_atom_site_type_symbol
_atom_site_label
_atom_site_fract_x
_atom_site_fract_y
_atom_site_fract_z
Si Si1 0.545001 0.634152 0.585483
Si Si2 0.112379 0.346127 0.772121
Si Si3 0.046923 0.750000 0.625000
Si Si4 0.231702 0.416844 0.512174
Si Si5 0.000000 0.500000 0.936305
O O1 0.500000 0.500000 0.608564
O O2 0.537802 0.750000 0.625000
O O3 0.461821 0.675599 0.534559
O O4 0.684739 0.611433 0.563363
O O5 0.150702 0.458895 0.730956
O O6 0.177740 0.377244 0.828204
O O7 0.160627 0.210031 0.754903
O O8 0.978555 0.871032 0.652647
O O9 0.124420 0.518851 0.527511
#
# Coordination Sequence:
#
# PCOD9561457 Si02
#       5
#    16  16   8  16   8
#     4  12  29  49  79 109 153 207 262 325 403 470
#     4  11  25  46  74 110 157 202 259 328 392 466
#     4  12  26  46  76 114 152 206 262 320 400 472
#     4  12  26  52  71 111 158 196 260 337 383 478
#     4  12  28  46  77 112 150 201 260 320 402 468
#
# _framework density 22.885290000000001
#
# number of rings (size 3 to 8) (size 9 to 14) (size 15 to 20)
#    0.000    0.250    5.000    3.000    5.250    0.000 
#    0.000    0.000    0.000    0.000    0.000    0.000 
#    0.000    0.000    0.000    0.000    0.000    0.000 
#
# Total GULP energy -179042.051489 kJ/mol
# GULP energy per Si atom -5595.064109 kJ/mol
# Density = 2.283320 g / cm^3
# Si number density = 22.885290 Si / 1000 Ang^3
#
#
#
# Elastic Constant Matrix: (Units=GPa)
#
#
# Indices 1 2 3 4 5 6 
#
# 1 121.6819 11.6864 27.0528 0.0000 0.0000 0.0000
# 2 11.6864 121.6819 27.0528 0.0000 0.0000 0.0000
# 3 27.0528 27.0528 99.7492 0.0000 0.0000 0.0000
# 4 0.0000 0.0000 0.0000 80.8555 0.0000 0.0000
# 5 0.0000 0.0000 0.0000 0.0000 80.8555 0.0000
# 6 0.0000 0.0000 0.0000 0.0000 0.0000 35.2993
#
#
#
# Elastic Compliance Matrix: (Units=1/GPa)
#
#
# Indices 1 2 3 4 5 6 
#
# 1 0.008758 -0.000333 -0.002285 0.000000 0.000000 0.000000
# 2 -0.000333 0.008758 -0.002285 0.000000 0.000000 0.000000
# 3 -0.002285 -0.002285 0.011265 0.000000 0.000000 0.000000
# 4 0.000000 0.000000 0.000000 0.012368 0.000000 0.000000
# 5 0.000000 0.000000 0.000000 0.000000 0.012368 0.000000
# 6 0.000000 0.000000 0.000000 0.000000 0.000000 0.028329
#
#
# Mechanical properties :
#
#
# Convention : Reuss Voigt Hill
#
# Bulk Modulus (GPa) = 52.70148 52.74413 52.72281
# Shear Modulus (GPa) = 51.03270 57.89013 54.46142
#
# Velocity S-wave (km/s) = 4.72734 5.03495 4.88357
# Velocity P-wave (km/s) = 7.27156 7.54309 7.40857
#
# Compressibility (1/GPa) = 0.01897480
#
# Stress axis : x y z
#
# Youngs Moduli (GPa) = 114.17953 114.17953 88.77428
#
# Poissons Ratio (x) = 0.03804 0.20284
# Poissons Ratio (y) = 0.03804 0.20284
# Poissons Ratio (z) = 0.26089 0.26089
#
# Static dielectric constant tensor:
#      x y z
#    x 1.777730 0.000000 0.000000 
#    y 0.000000 1.777730 0.000000 
#    z 0.000000 0.000000 1.872970 
# 
# From -- ./inp_files/7892.got.cif
#   From: 2010.05.17/outbox.cif.g08.bks.cpg/sg122_4_cif.got.tgz:7892.got - 2010.05.20 11:37:33.
