data_PCOD9561223
_publ_section_title
;
Structure prediction by ZEFSAII (Michael W. Deem and Ramdas Pophale) SiO2 
 PCOD9561223
Probable space group: I -4 2 D
;
_chemical_formula_sum "Si O2"
_cell_formula_units_Z 116
_cell_length_a 16.835103
_cell_length_b 16.835103
_cell_length_c 18.742230
_cell_angle_alpha 90.000000
_cell_angle_beta 90.000000
_cell_angle_gamma 90.000000
_cell_volume 5311.935815
_symmetry_space_group_name_H-M "I -4 2 D"
_symmetry_group_IT_number 122
_symmetry_cell_setting 'tetragonal'
loop_
_space_group_symop_operation_xyz
x,y,z
y,-x,-z
-x,-y,z
-y,x,-z
x,1/2-y,1/4-z
-x,1/2+y,1/4-z
-y,1/2-x,1/4+z
y,1/2+x,1/4+z
1/2+x,1/2+y,1/2+z
1/2+y,1/2-x,1/2-z
1/2-x,1/2-y,1/2+z
1/2-y,1/2+x,1/2-z
1/2+x,-y,3/4-z
1/2-x,y,3/4-z
1/2-y,-x,3/4+z
1/2+y,x,3/4+z
loop_
_atom_site_type_symbol
_atom_site_label
_atom_site_fract_x
_atom_site_fract_y
_atom_site_fract_z
Si Si1 0.589998 0.015038 0.497962
Si Si2 0.192169 0.674855 0.308464
Si Si3 0.251372 0.620038 0.587507
Si Si4 0.876815 0.624565 0.720579
Si Si5 0.203273 0.649859 0.002935
Si Si6 0.500000 0.000000 0.250000
Si Si7 0.450508 0.774553 0.894214
Si Si8 0.662748 0.914597 0.382511
O O1 0.659190 0.980231 0.549563
O O2 0.602564 0.968118 0.425167
O O3 0.500000 0.000000 0.523187
O O4 0.621061 0.104878 0.486594
O O5 0.250000 0.653988 0.375000
O O6 0.201883 0.624289 0.236548
O O7 0.208817 0.764362 0.281885
O O8 0.103895 0.678589 0.338870
O O9 0.289633 0.654551 0.660616
O O10 0.237320 0.528383 0.608050
O O11 0.169081 0.666394 0.575403
O O12 0.894634 0.718801 0.720118
O O13 0.947033 0.562687 0.705197
O O14 0.796680 0.599917 0.679768
O O15 0.863413 0.609174 0.804236
O O16 0.750000 0.950231 0.375000
#
# Coordination Sequence:
#
# PCOD9561223 Si02
#       8
#    16  16  16  16  16   4  16  16
#     4  11  25  43  66 102 145 185 229 289 357 423
#     4  12  23  43  74  98 128 178 240 285 343 423
#     4  10  23  44  67 101 133 180 226 293 357 410
#     4  11  22  41  62 100 143 186 224 289 347 431
#     4  10  23  45  68  98 140 182 231 288 359 423
#     4  12  24  32  60  92 144 184 220 260 346 436
#     4  11  24  47  66  99 141 179 241 294 350 424
#     4  11  21  37  68  92 135 178 222 268 355 420
#
# _framework density 21.837613999999999
#
# number of rings (size 3 to 8) (size 9 to 14) (size 15 to 20)
#    0.000    1.103    2.759    5.379    2.897    1.655 
#    4.966    0.000    0.000    0.000    0.000    0.000 
#    0.000    0.000    0.000    0.000    0.000    0.000 
#
# Total GULP energy -324131.816161 kJ/mol
# GULP energy per Si atom -5588.479589 kJ/mol
# Density = 2.178791 g / cm^3
# Si number density = 21.837614 Si / 1000 Ang^3
#
#
#
# Elastic Constant Matrix: (Units=GPa)
#
#
# Indices 1 2 3 4 5 6 
#
# 1 90.5084 17.4423 24.3150 0.0000 0.0000 0.0000
# 2 17.4423 90.5084 24.3150 0.0000 0.0000 0.0000
# 3 24.3150 24.3150 97.5410 0.0000 0.0000 0.0000
# 4 0.0000 0.0000 0.0000 27.0483 0.0000 0.0000
# 5 0.0000 0.0000 0.0000 0.0000 27.0483 0.0000
# 6 0.0000 0.0000 0.0000 0.0000 0.0000 23.9853
#
#
#
# Elastic Compliance Matrix: (Units=1/GPa)
#
#
# Indices 1 2 3 4 5 6 
#
# 1 0.012061 -0.001625 -0.002601 0.000000 0.000000 0.000000
# 2 -0.001625 0.012061 -0.002601 0.000000 0.000000 0.000000
# 3 -0.002601 -0.002601 0.011549 0.000000 0.000000 0.000000
# 4 0.000000 0.000000 0.000000 0.036971 0.000000 0.000000
# 5 0.000000 0.000000 0.000000 0.000000 0.036971 0.000000
# 6 0.000000 0.000000 0.000000 0.000000 0.000000 0.041692
#
#
# Mechanical properties :
#
#
# Convention : Reuss Voigt Hill
#
# Bulk Modulus (GPa) = 45.42479 45.63360 45.52920
# Shear Modulus (GPa) = 29.01932 29.78207 29.40069
#
# Velocity S-wave (km/s) = 3.64932 3.69697 3.67322
# Velocity P-wave (km/s) = 6.21313 6.25824 6.23573
#
# Compressibility (1/GPa) = 0.02201441
#
# Stress axis : x y z
#
# Youngs Moduli (GPa) = 82.91335 82.91335 86.58754
#
# Poissons Ratio (x) = 0.13477 0.22524
# Poissons Ratio (y) = 0.13477 0.22524
# Poissons Ratio (z) = 0.21568 0.21568
#
# Static dielectric constant tensor:
#      x y z
#    x 1.833860 0.000000 0.000000 
#    y 0.000000 1.833860 0.000000 
#    z 0.000000 0.000000 1.813530 
# 
# From -- ./inp_files/6466.got.cif
#   From: 2010.05.17/outbox.cif.g08.bks.cpg/sg122_4_cif.got.tgz:6466.got - 2010.05.20 11:37:33.
