data_PCOD9561034
_publ_section_title
;
Structure prediction by ZEFSAII (Michael W. Deem and Ramdas Pophale) SiO2 
 PCOD9561034
Probable space group: I -4 2 D
;
_chemical_formula_sum "Si O2"
_cell_formula_units_Z 88
_cell_length_a 11.507113
_cell_length_b 11.507113
_cell_length_c 27.556470
_cell_angle_alpha 90.000000
_cell_angle_beta 90.000000
_cell_angle_gamma 90.000000
_cell_volume 3648.852763
_symmetry_space_group_name_H-M "I -4 2 D"
_symmetry_group_IT_number 122
_symmetry_cell_setting 'tetragonal'
loop_
_space_group_symop_operation_xyz
x,y,z
y,-x,-z
-x,-y,z
-y,x,-z
x,1/2-y,1/4-z
-x,1/2+y,1/4-z
-y,1/2-x,1/4+z
y,1/2+x,1/4+z
1/2+x,1/2+y,1/2+z
1/2+y,1/2-x,1/2-z
1/2-x,1/2-y,1/2+z
1/2-y,1/2+x,1/2-z
1/2+x,-y,3/4-z
1/2-x,y,3/4-z
1/2-y,-x,3/4+z
1/2+y,x,3/4+z
loop_
_atom_site_type_symbol
_atom_site_label
_atom_site_fract_x
_atom_site_fract_y
_atom_site_fract_z
Si Si1 0.284843 0.626542 0.300979
Si Si2 0.150808 0.560844 0.595168
Si Si3 0.946339 0.373770 0.353777
Si Si4 0.444830 0.750094 0.026604
Si Si5 0.000000 0.500000 0.817538
Si Si6 0.428723 0.888087 0.503619
O O1 0.151717 0.653777 0.313174
O O2 0.368633 0.638891 0.347512
O O3 0.340757 0.708955 0.259376
O O4 0.288168 0.490407 0.284093
O O5 0.288104 0.556479 0.601182
O O6 0.090418 0.679233 0.576119
O O7 0.125308 0.473408 0.551094
O O8 0.105239 0.501281 0.644030
O O9 0.000000 0.500000 0.349639
O O10 0.475617 0.618696 0.039089
O O11 0.561685 0.800751 0.000883
O O12 0.500000 0.000000 0.523450
#
# Coordination Sequence:
#
# PCOD9561034 Si02
#       6
#    16  16  16  16   8  16
#     4   9  21  45  69 102 147 196 252 325 372 441
#     4  10  21  41  69 110 142 194 244 309 365 441
#     4  11  23  44  73 106 142 201 261 307 384 453
#     4  10  21  43  72 108 150 196 243 310 379 450
#     4  12  22  42  79 108 148 204 250 286 386 485
#     4   8  16  39  68  93 139 191 232 302 379 416
#
# _framework density 24.117167999999999
#
# number of rings (size 3 to 8) (size 9 to 14) (size 15 to 20)
#    0.000    2.545    2.727    2.182    0.000    2.909 
#   19.636    8.182    0.000    0.000    0.000    0.000 
#    0.000    0.000    0.000    0.000    0.000    0.000 
#
# Total GULP energy -245302.332375 kJ/mol
# GULP energy per Si atom -5575.053009 kJ/mol
# Density = 2.406228 g / cm^3
# Si number density = 24.117168 Si / 1000 Ang^3
#
#
#
# Elastic Constant Matrix: (Units=GPa)
#
#
# Indices 1 2 3 4 5 6 
#
# 1 139.7806 56.6195 38.5556 0.0000 0.0000 0.0000
# 2 56.6195 139.7806 38.5556 0.0000 0.0000 0.0000
# 3 38.5556 38.5556 84.3922 0.0000 0.0000 0.0000
# 4 0.0000 0.0000 0.0000 -6.9066 0.0000 0.0000
# 5 0.0000 0.0000 0.0000 0.0000 -6.9066 0.0000
# 6 0.0000 0.0000 0.0000 0.0000 0.0000 25.9643
#
#
#
# Elastic Compliance Matrix: (Units=1/GPa)
#
#
# Indices 1 2 3 4 5 6 
#
# 1 0.009115 -0.002910 -0.002835 0.000000 0.000000 0.000000
# 2 -0.002910 0.009115 -0.002835 0.000000 0.000000 0.000000
# 3 -0.002835 -0.002835 0.014440 0.000000 0.000000 0.000000
# 4 0.000000 0.000000 0.000000 -0.144788 0.000000 0.000000
# 5 0.000000 0.000000 0.000000 0.000000 -0.144788 0.000000
# 6 0.000000 0.000000 0.000000 0.000000 0.000000 0.038514
#
#
# Mechanical properties :
#
#
# Convention : Reuss Voigt Hill
#
# Bulk Modulus (GPa) = 64.47397 70.15717 67.31557
# Shear Modulus (GPa) = -25.50190 17.77839 -3.86175
#
# Velocity S-wave (km/s) = -3.25532 2.71803 -1.26678
# Velocity P-wave (km/s) = 3.55840 6.24528 5.08260
#
# Compressibility (1/GPa) = 0.01551014
#
# Stress axis : x y z
#
# Youngs Moduli (GPa) = 109.71265 109.71265 69.25443
#
# Poissons Ratio (x) = 0.31928 0.19631
# Poissons Ratio (y) = 0.31928 0.19631
# Poissons Ratio (z) = 0.31100 0.31100
#
# Static dielectric constant tensor:
#      x y z
#    x 1.999640 0.000000 0.000000 
#    y 0.000000 1.999640 0.000000 
#    z 0.000000 0.000000 2.000050 
# 
# From -- ./inp_files/9484.got.cif
#   From: 2010.05.17/outbox.cif.g08.bks.cpg/sg122_5_cif.got.tgz:9484.got - 2010.05.20 11:37:33.
