data_PCOD9561488
_publ_section_title
;
Structure prediction by ZEFSAII (Michael W. Deem and Ramdas Pophale) SiO2 
 PCOD9561488
Probable space group: I -4 2 D
;
_chemical_formula_sum "Si O2"
_cell_formula_units_Z 48
_cell_length_a 18.747739
_cell_length_b 18.747739
_cell_length_c 4.891736
_cell_angle_alpha 90.000000
_cell_angle_beta 90.000000
_cell_angle_gamma 90.000000
_cell_volume 1719.336204
_symmetry_space_group_name_H-M "I -4 2 D"
_symmetry_group_IT_number 122
_symmetry_cell_setting 'tetragonal'
loop_
_space_group_symop_operation_xyz
x,y,z
y,-x,-z
-x,-y,z
-y,x,-z
x,1/2-y,1/4-z
-x,1/2+y,1/4-z
-y,1/2-x,1/4+z
y,1/2+x,1/4+z
1/2+x,1/2+y,1/2+z
1/2+y,1/2-x,1/2-z
1/2-x,1/2-y,1/2+z
1/2-y,1/2+x,1/2-z
1/2+x,-y,3/4-z
1/2-x,y,3/4-z
1/2-y,-x,3/4+z
1/2+y,x,3/4+z
loop_
_atom_site_type_symbol
_atom_site_label
_atom_site_fract_x
_atom_site_fract_y
_atom_site_fract_z
Si Si1 0.033165 0.403252 0.127924
Si Si2 0.354062 0.295852 0.856378
Si Si3 0.939475 0.201756 0.395563
O O1 0.976507 0.421440 0.372835
O O2 0.974803 0.374333 0.915116
O O3 0.086507 0.335817 0.090227
O O4 0.313547 0.250000 0.625000
O O5 0.374179 0.250000 0.125000
O O6 0.315448 0.362155 0.992010
O O7 0.976325 0.250000 0.625000
O O8 0.937109 0.250000 0.125000
#
# Coordination Sequence:
#
# PCOD9561488 Si02
#       3
#    16  16  16
#     4  11  26  50  78 114 154 201 260 326 398 471
#     4  12  27  51  81 115 159 212 267 329 401 478
#     4  12  27  51  81 115 159 212 267 329 401 478
#
# _framework density 27.917752
#
# number of rings (size 3 to 8) (size 9 to 14) (size 15 to 20)
#    0.000    0.333    0.000    8.000    0.000   13.333 
#    0.000    3.333    0.000    0.000    0.000    0.000 
#    0.000    0.000    0.000    0.000    0.000    0.000 
#
# Total GULP energy -133866.732833 kJ/mol
# GULP energy per Si atom -5577.780535 kJ/mol
# Density = 2.785421 g / cm^3
# Si number density = 27.917752 Si / 1000 Ang^3
#
#
#
# Elastic Constant Matrix: (Units=GPa)
#
#
# Indices 1 2 3 4 5 6 
#
# 1 133.2970 37.2559 78.3544 0.0000 0.0000 0.0000
# 2 37.2559 133.2970 78.3544 0.0000 0.0000 0.0000
# 3 78.3544 78.3544 248.4789 0.0000 0.0000 0.0000
# 4 0.0000 0.0000 0.0000 -179.3824 0.0000 0.0000
# 5 0.0000 0.0000 0.0000 0.0000 -179.3824 0.0000
# 6 0.0000 0.0000 0.0000 0.0000 0.0000 6.2483
#
#
#
# Elastic Compliance Matrix: (Units=1/GPa)
#
#
# Indices 1 2 3 4 5 6 
#
# 1 0.009334 -0.001079 -0.002603 0.000000 0.000000 0.000000
# 2 -0.001079 0.009334 -0.002603 0.000000 0.000000 0.000000
# 3 -0.002603 -0.002603 0.005666 0.000000 0.000000 0.000000
# 4 0.000000 0.000000 0.000000 -0.005575 0.000000 0.000000
# 5 0.000000 0.000000 0.000000 0.000000 -0.005575 0.000000
# 6 0.000000 0.000000 0.000000 0.000000 0.000000 0.160043
#
#
# Mechanical properties :
#
#
# Convention : Reuss Voigt Hill
#
# Bulk Modulus (GPa) = 85.00580 100.33357 92.66968
# Shear Modulus (GPa) = 26.35494 -49.09608 -11.37057
#
# Velocity S-wave (km/s) = 3.07583 -4.19811 -2.02033
# Velocity P-wave (km/s) = 6.56727 3.53810 5.27481
#
# Compressibility (1/GPa) = 0.01176390
#
# Stress axis : x y z
#
# Youngs Moduli (GPa) = 107.13905 107.13905 176.48476
#
# Poissons Ratio (x) = 0.11555 0.45941
# Poissons Ratio (y) = 0.11555 0.45941
# Poissons Ratio (z) = 0.27890 0.27890
#
# Static dielectric constant tensor:
#      x y z
#    x 2.506660 0.000000 0.000000 
#    y 0.000000 2.506660 0.000000 
#    z 0.000000 0.000000 2.171010 
# 
# From -- ./inp_files/698.got.cif
#   From: 2010.05.17/outbox.cif.g08.bks.cpg/sg122_1_cif.got.tgz:698.got - 2010.05.20 11:37:33.
