data_PCOD9561522
_publ_section_title
;
Structure prediction by ZEFSAII (Michael W. Deem and Ramdas Pophale) SiO2 
 PCOD9561522
Probable space group: I -4 2 D
;
_chemical_formula_sum "Si O2"
_cell_formula_units_Z 108
_cell_length_a 31.502384
_cell_length_b 31.502384
_cell_length_c 5.226661
_cell_angle_alpha 90.000000
_cell_angle_beta 90.000000
_cell_angle_gamma 90.000000
_cell_volume 5186.939410
_symmetry_space_group_name_H-M "I -4 2 D"
_symmetry_group_IT_number 122
_symmetry_cell_setting 'tetragonal'
loop_
_space_group_symop_operation_xyz
x,y,z
y,-x,-z
-x,-y,z
-y,x,-z
x,1/2-y,1/4-z
-x,1/2+y,1/4-z
-y,1/2-x,1/4+z
y,1/2+x,1/4+z
1/2+x,1/2+y,1/2+z
1/2+y,1/2-x,1/2-z
1/2-x,1/2-y,1/2+z
1/2-y,1/2+x,1/2-z
1/2+x,-y,3/4-z
1/2-x,y,3/4-z
1/2-y,-x,3/4+z
1/2+y,x,3/4+z
loop_
_atom_site_type_symbol
_atom_site_label
_atom_site_fract_x
_atom_site_fract_y
_atom_site_fract_z
Si Si1 0.634191 0.591045 0.205446
Si Si2 0.922074 0.794294 0.266823
Si Si3 0.856205 0.352216 0.436193
Si Si4 0.250000 0.643307 0.875000
Si Si5 0.087968 0.533477 0.058904
Si Si6 0.493810 0.140047 0.433138
Si Si7 0.789989 0.793393 0.006132
Si Si8 0.000000 0.000000 0.000000
O O1 0.656319 0.614652 0.441290
O O2 0.584257 0.587381 0.276791
O O3 0.650832 0.543276 0.184375
O O4 0.639348 0.616945 0.941426
O O5 0.894140 0.828796 0.114088
O O6 0.888823 0.782239 0.487930
O O7 0.964318 0.818525 0.345657
O O8 0.930376 0.750000 0.125000
O O9 0.823356 0.313332 0.458494
O O10 0.276294 0.673293 0.683678
O O11 0.114906 0.519434 0.308535
O O12 0.040484 0.515732 0.089383
O O13 0.109761 0.514854 0.807201
O O14 0.750000 0.815286 0.875000
O O15 0.772421 0.750000 0.125000
#
# Coordination Sequence:
#
# PCOD9561522 Si02
#       8
#    16  16  16   8  16  16  16   4
#     4  12  25  45  70 100 143 197 237 293 363 447
#     4  12  25  42  75 106 139 184 244 315 350 427
#     4  12  24  46  72 105 141 190 245 285 368 442
#     4  12  22  42  70 112 144 180 238 298 374 416
#     4  12  25  42  70 103 146 187 239 308 371 429
#     4  12  28  45  69 107 144 192 244 305 373 427
#     4  12  25  41  72 112 149 182 229 304 375 446
#     4  12  28  42  68 110 148 186 256 306 376 442
#
# _framework density 20.821525999999999
#
# number of rings (size 3 to 8) (size 9 to 14) (size 15 to 20)
#    0.000    0.000    8.148    1.778    4.148    0.593 
#    0.000    0.741    0.000    0.000    0.000    0.000 
#    0.000    0.000    0.000    0.000    0.000    0.000 
#
# Total GULP energy -302144.931191 kJ/mol
# GULP energy per Si atom -5595.276504 kJ/mol
# Density = 2.077414 g / cm^3
# Si number density = 20.821526 Si / 1000 Ang^3
#
#
#
# Elastic Constant Matrix: (Units=GPa)
#
#
# Indices 1 2 3 4 5 6 
#
# 1 190.7406 -18.3625 40.0269 0.0000 0.0000 0.0000
# 2 -18.3625 190.7406 40.0269 0.0000 0.0000 0.0000
# 3 40.0269 40.0269 115.7507 0.0000 0.0000 0.0000
# 4 0.0000 0.0000 0.0000 11.6833 0.0000 0.0000
# 5 0.0000 0.0000 0.0000 0.0000 11.6833 0.0000
# 6 0.0000 0.0000 0.0000 0.0000 0.0000 41.7954
#
#
#
# Elastic Compliance Matrix: (Units=1/GPa)
#
#
# Indices 1 2 3 4 5 6 
#
# 1 0.005847 0.001064 -0.002390 0.000000 0.000000 0.000000
# 2 0.001064 0.005847 -0.002390 0.000000 0.000000 0.000000
# 3 -0.002390 -0.002390 0.010292 0.000000 0.000000 0.000000
# 4 0.000000 0.000000 0.000000 0.085592 0.000000 0.000000
# 5 0.000000 0.000000 0.000000 0.000000 0.085592 0.000000
# 6 0.000000 0.000000 0.000000 0.000000 0.000000 0.023926
#
#
# Mechanical properties :
#
#
# Convention : Reuss Voigt Hill
#
# Bulk Modulus (GPa) = 68.70596 68.95718 68.83157
# Shear Modulus (GPa) = 21.79802 42.06844 31.93323
#
# Velocity S-wave (km/s) = 3.23909 4.49980 3.92045
# Velocity P-wave (km/s) = 6.85989 7.75807 7.32277
#
# Compressibility (1/GPa) = 0.01455478
#
# Stress axis : x y z
#
# Youngs Moduli (GPa) = 171.03661 171.03661 97.16190
#
# Poissons Ratio (x) = -0.18205 0.23220
# Poissons Ratio (y) = -0.18205 0.23220
# Poissons Ratio (z) = 0.40875 0.40875
#
# Static dielectric constant tensor:
#      x y z
#    x 1.775770 0.000000 0.000000 
#    y 0.000000 1.775770 0.000000 
#    z 0.000000 0.000000 1.788460 
# 
# From -- ./inp_files/1548.got.cif
#   From: 2010.05.17/outbox.cif.g08.bks.cpg/sg122_1_cif.got.tgz:1548.got - 2010.05.20 11:37:33.
