data_PCOD9561091
_publ_section_title
;
Structure prediction by ZEFSAII (Michael W. Deem and Ramdas Pophale) SiO2 
 PCOD9561091
Probable space group: I -4 2 D
;
_chemical_formula_sum "Si O2"
_cell_formula_units_Z 116
_cell_length_a 17.725635
_cell_length_b 17.725635
_cell_length_c 17.508451
_cell_angle_alpha 90.000000
_cell_angle_beta 90.000000
_cell_angle_gamma 90.000000
_cell_volume 5501.122671
_symmetry_space_group_name_H-M "I -4 2 D"
_symmetry_group_IT_number 122
_symmetry_cell_setting 'tetragonal'
loop_
_space_group_symop_operation_xyz
x,y,z
y,-x,-z
-x,-y,z
-y,x,-z
x,1/2-y,1/4-z
-x,1/2+y,1/4-z
-y,1/2-x,1/4+z
y,1/2+x,1/4+z
1/2+x,1/2+y,1/2+z
1/2+y,1/2-x,1/2-z
1/2-x,1/2-y,1/2+z
1/2-y,1/2+x,1/2-z
1/2+x,-y,3/4-z
1/2-x,y,3/4-z
1/2-y,-x,3/4+z
1/2+y,x,3/4+z
loop_
_atom_site_type_symbol
_atom_site_label
_atom_site_fract_x
_atom_site_fract_y
_atom_site_fract_z
Si Si1 0.903942 0.070601 0.201632
Si Si2 0.288296 0.180835 0.177283
Si Si3 0.424470 0.915239 0.377639
Si Si4 0.675107 0.767962 0.921280
Si Si5 0.795084 0.041212 0.682477
Si Si6 0.567050 0.327274 0.384404
Si Si7 0.500000 0.000000 0.250000
Si Si8 0.164574 0.957284 0.852442
O O1 0.921234 0.048475 0.288746
O O2 0.842075 0.136918 0.206581
O O3 0.973116 0.106982 0.155255
O O4 0.870670 0.999079 0.159054
O O5 0.260455 0.250000 0.125000
O O6 0.364678 0.148251 0.140232
O O7 0.303506 0.210374 0.261694
O O8 0.228769 0.113393 0.170414
O O9 0.496332 0.859067 0.385399
O O10 0.436302 0.971028 0.307554
O O11 0.750000 0.787555 0.875000
O O12 0.611718 0.734335 0.865227
O O13 0.826506 0.067606 0.763769
O O14 0.727900 0.978107 0.692490
O O15 0.627919 0.391952 0.405258
O O16 0.250000 0.977063 0.875000
#
# Coordination Sequence:
#
# PCOD9561091 Si02
#       8
#    16  16  16  16  16  16   4  16
#     4  10  22  41  63  88 126 171 210 263 328 390
#     4  11  21  40  63  91 125 165 214 264 327 373
#     4  10  22  40  62  89 128 166 203 257 323 390
#     4  11  21  38  63  91 122 166 216 267 316 385
#     4   9  22  41  60  91 129 160 211 269 316 385
#     4  10  22  39  63  91 123 166 211 269 319 388
#     4  12  24  36  64  96 120 168 202 256 312 404
#     4  11  22  41  65  93 122 170 216 262 335 390
#
# _framework density 21.086606
#
# number of rings (size 3 to 8) (size 9 to 14) (size 15 to 20)
#    0.000    1.655    1.379    2.897    3.862    0.000 
#    7.448    0.000    3.034    0.000    0.000    0.000 
#    0.000    0.000    0.000    0.000    0.000    0.000 
#
# Total GULP energy -323862.892799 kJ/mol
# GULP energy per Si atom -5583.842979 kJ/mol
# Density = 2.103861 g / cm^3
# Si number density = 21.086606 Si / 1000 Ang^3
#
#
#
# Elastic Constant Matrix: (Units=GPa)
#
#
# Indices 1 2 3 4 5 6 
#
# 1 66.1239 5.6318 6.3336 0.0000 0.0000 0.0000
# 2 5.6318 66.1239 6.3336 0.0000 0.0000 0.0000
# 3 6.3336 6.3336 33.8648 0.0000 0.0000 0.0000
# 4 0.0000 0.0000 0.0000 12.9931 0.0000 0.0000
# 5 0.0000 0.0000 0.0000 0.0000 12.9931 0.0000
# 6 0.0000 0.0000 0.0000 0.0000 0.0000 33.3678
#
#
#
# Elastic Compliance Matrix: (Units=1/GPa)
#
#
# Indices 1 2 3 4 5 6 
#
# 1 0.015472 -0.001060 -0.002695 0.000000 0.000000 0.000000
# 2 -0.001060 0.015472 -0.002695 0.000000 0.000000 0.000000
# 3 -0.002695 -0.002695 0.030537 0.000000 0.000000 0.000000
# 4 0.000000 0.000000 0.000000 0.076964 0.000000 0.000000
# 5 0.000000 0.000000 0.000000 0.000000 0.076964 0.000000
# 6 0.000000 0.000000 0.000000 0.000000 0.000000 0.029969
#
#
# Mechanical properties :
#
#
# Convention : Reuss Voigt Hill
#
# Bulk Modulus (GPa) = 20.58471 22.52339 21.55405
# Shear Modulus (GPa) = 18.21685 21.72504 19.97094
#
# Velocity S-wave (km/s) = 2.94242 3.21327 3.08082
# Velocity P-wave (km/s) = 4.61811 4.94686 4.78531
#
# Compressibility (1/GPa) = 0.04857975
#
# Stress axis : x y z
#
# Youngs Moduli (GPa) = 64.63478 64.63478 32.74675
#
# Poissons Ratio (x) = 0.06848 0.08827
# Poissons Ratio (y) = 0.06848 0.08827
# Poissons Ratio (z) = 0.17422 0.17422
#
# Static dielectric constant tensor:
#      x y z
#    x 1.775310 0.000000 0.000000 
#    y 0.000000 1.775310 0.000000 
#    z 0.000000 0.000000 1.738040 
# 
# From -- ./inp_files/6438.got.cif
#   From: 2010.05.17/outbox.cif.g08.bks.cpg/sg122_4_cif.got.tgz:6438.got - 2010.05.20 11:37:33.
