data_PCOD9561239
_publ_section_title
;
Structure prediction by ZEFSAII (Michael W. Deem and Ramdas Pophale) SiO2 
 PCOD9561239
Probable space group: I -4 2 D
;
_chemical_formula_sum "Si O2"
_cell_formula_units_Z 40
_cell_length_a 7.893352
_cell_length_b 7.893352
_cell_length_c 23.364357
_cell_angle_alpha 90.000000
_cell_angle_beta 90.000000
_cell_angle_gamma 90.000000
_cell_volume 1455.716398
_symmetry_space_group_name_H-M "I -4 2 D"
_symmetry_group_IT_number 122
_symmetry_cell_setting 'tetragonal'
loop_
_space_group_symop_operation_xyz
x,y,z
y,-x,-z
-x,-y,z
-y,x,-z
x,1/2-y,1/4-z
-x,1/2+y,1/4-z
-y,1/2-x,1/4+z
y,1/2+x,1/4+z
1/2+x,1/2+y,1/2+z
1/2+y,1/2-x,1/2-z
1/2-x,1/2-y,1/2+z
1/2-y,1/2+x,1/2-z
1/2+x,-y,3/4-z
1/2-x,y,3/4-z
1/2-y,-x,3/4+z
1/2+y,x,3/4+z
loop_
_atom_site_type_symbol
_atom_site_label
_atom_site_fract_x
_atom_site_fract_y
_atom_site_fract_z
Si Si1 0.840030 0.878811 0.571379
Si Si2 0.206812 0.146629 0.977880
Si Si3 0.500000 0.500000 0.623618
O O1 0.858560 0.750000 0.625000
O O2 0.824595 0.781010 0.510735
O O3 0.664112 0.974887 0.586530
O O4 0.000000 0.000000 0.573872
O O5 0.155710 0.049752 0.918910
O O6 0.021962 0.233977 0.984655
#
# Coordination Sequence:
#
# PCOD9561239 Si02
#       3
#    16  16   8
#     4  12  25  47  87 133 171 230 314 390 452 566
#     4   9  18  43  88 116 158 240 296 349 463 556
#     4  10  23  50  92 118 182 250 296 376 479 550
#
# _framework density 27.477879999999999
#
# number of rings (size 3 to 8) (size 9 to 14) (size 15 to 20)
#    0.000    2.000    8.000    0.000    0.000    1.600 
#    3.600    0.000    8.800    0.000    0.000    0.000 
#    0.000    0.000    0.000    0.000    0.000    0.000 
#
# Total GULP energy -111564.527038 kJ/mol
# GULP energy per Si atom -5578.226352 kJ/mol
# Density = 2.741534 g / cm^3
# Si number density = 27.477880 Si / 1000 Ang^3
#
#
#
# Elastic Constant Matrix: (Units=GPa)
#
#
# Indices 1 2 3 4 5 6 
#
# 1 136.0755 94.7924 68.5635 0.0000 0.0000 0.0000
# 2 94.7924 136.0755 68.5635 0.0000 0.0000 0.0000
# 3 68.5635 68.5635 186.3595 0.0000 0.0000 0.0000
# 4 0.0000 0.0000 0.0000 20.5487 0.0000 0.0000
# 5 0.0000 0.0000 0.0000 0.0000 20.5487 0.0000
# 6 0.0000 0.0000 0.0000 0.0000 0.0000 76.3387
#
#
#
# Elastic Compliance Matrix: (Units=1/GPa)
#
#
# Indices 1 2 3 4 5 6 
#
# 1 0.014883 -0.009340 -0.002039 0.000000 0.000000 0.000000
# 2 -0.009340 0.014883 -0.002039 0.000000 0.000000 0.000000
# 3 -0.002039 -0.002039 0.006866 0.000000 0.000000 0.000000
# 4 0.000000 0.000000 0.000000 0.048665 0.000000 0.000000
# 5 0.000000 0.000000 0.000000 0.000000 0.048665 0.000000
# 6 0.000000 0.000000 0.000000 0.000000 0.000000 0.013100
#
#
# Mechanical properties :
#
#
# Convention : Reuss Voigt Hill
#
# Bulk Modulus (GPa) = 102.09279 102.48324 102.28802
# Shear Modulus (GPa) = 28.22254 38.59331 33.40792
#
# Velocity S-wave (km/s) = 3.20832 3.75176 3.49063
# Velocity P-wave (km/s) = 7.13860 7.49301 7.31795
#
# Compressibility (1/GPa) = 0.00979501
#
# Stress axis : x y z
#
# Youngs Moduli (GPa) = 67.19147 67.19146 145.63539
#
# Poissons Ratio (x) = 0.62758 0.29698
# Poissons Ratio (y) = 0.62758 0.29698
# Poissons Ratio (z) = 0.13702 0.13702
#
# Static dielectric constant tensor:
#      x y z
#    x 2.202900 0.000000 0.000000 
#    y 0.000000 2.202900 0.000000 
#    z 0.000000 0.000000 2.280060 
# 
# From -- ./inp_files/7621.got.cif
#   From: 2010.05.17/outbox.cif.g08.bks.cpg/sg122_4_cif.got.tgz:7621.got - 2010.05.20 11:37:33.
