data_PCOD9561081
_publ_section_title
;
Structure prediction by ZEFSAII (Michael W. Deem and Ramdas Pophale) SiO2 
 PCOD9561081
Probable space group: I -4 2 D
;
_chemical_formula_sum "Si O2"
_cell_formula_units_Z 56
_cell_length_a 14.970786
_cell_length_b 14.970786
_cell_length_c 9.525180
_cell_angle_alpha 90.000000
_cell_angle_beta 90.000000
_cell_angle_gamma 90.000000
_cell_volume 2134.825571
_symmetry_space_group_name_H-M "I -4 2 D"
_symmetry_group_IT_number 122
_symmetry_cell_setting 'tetragonal'
loop_
_space_group_symop_operation_xyz
x,y,z
y,-x,-z
-x,-y,z
-y,x,-z
x,1/2-y,1/4-z
-x,1/2+y,1/4-z
-y,1/2-x,1/4+z
y,1/2+x,1/4+z
1/2+x,1/2+y,1/2+z
1/2+y,1/2-x,1/2-z
1/2-x,1/2-y,1/2+z
1/2-y,1/2+x,1/2-z
1/2+x,-y,3/4-z
1/2-x,y,3/4-z
1/2-y,-x,3/4+z
1/2+y,x,3/4+z
loop_
_atom_site_type_symbol
_atom_site_label
_atom_site_fract_x
_atom_site_fract_y
_atom_site_fract_z
Si Si1 0.576856 0.117887 0.978254
Si Si2 0.382056 0.070315 0.919017
Si Si3 0.325283 0.125143 0.227206
Si Si4 0.750000 0.795210 0.875000
O O1 0.485471 0.092353 0.901377
O O2 0.581678 0.114768 0.149603
O O3 0.589807 0.223750 0.966266
O O4 0.638642 0.035321 0.926333
O O5 0.365850 0.106807 0.076937
O O6 0.322995 0.133851 0.819517
O O7 0.305036 0.226897 0.277360
#
# Coordination Sequence:
#
# PCOD9561081 Si02
#       4
#    16  16  16   8
#     4   9  22  37  65  94 117 163 211 266 316 365
#     4  11  21  41  61  89 130 161 210 264 315 388
#     4  10  22  38  65  94 118 160 214 262 325 356
#     4  10  24  36  58  92 124 170 194 252 334 380
#
# _framework density 26.231653000000001
#
# number of rings (size 3 to 8) (size 9 to 14) (size 15 to 20)
#    0.000    2.286    0.000    2.571   16.000    2.286 
#   10.286    0.000    0.000    3.429    0.000    0.000 
#    0.000    0.000    0.000    0.000    0.000    0.000 
#
# Total GULP energy -156144.715989 kJ/mol
# GULP energy per Si atom -5576.597000 kJ/mol
# Density = 2.617195 g / cm^3
# Si number density = 26.231653 Si / 1000 Ang^3
#
#
#
# Elastic Constant Matrix: (Units=GPa)
#
#
# Indices 1 2 3 4 5 6 
#
# 1 140.7265 16.5311 -14.2003 0.0000 0.0000 0.0000
# 2 16.5311 140.7265 -14.2003 0.0000 0.0000 0.0000
# 3 -14.2003 -14.2003 107.1126 0.0000 0.0000 0.0000
# 4 0.0000 0.0000 0.0000 23.5367 0.0000 0.0000
# 5 0.0000 0.0000 0.0000 0.0000 23.5367 0.0000
# 6 0.0000 0.0000 0.0000 0.0000 0.0000 41.2998
#
#
#
# Elastic Compliance Matrix: (Units=1/GPa)
#
#
# Indices 1 2 3 4 5 6 
#
# 1 0.007283 -0.000768 0.000864 0.000000 0.000000 0.000000
# 2 -0.000768 0.007283 0.000864 0.000000 0.000000 0.000000
# 3 0.000864 0.000864 0.009565 0.000000 0.000000 0.000000
# 4 0.000000 0.000000 0.000000 0.042487 0.000000 0.000000
# 5 0.000000 0.000000 0.000000 0.000000 0.042487 0.000000
# 6 0.000000 0.000000 0.000000 0.000000 0.000000 0.024213
#
#
# Mechanical properties :
#
#
# Convention : Reuss Voigt Hill
#
# Bulk Modulus (GPa) = 38.38805 40.53632 39.46219
# Shear Modulus (GPa) = 35.69286 44.37030 40.03158
#
# Velocity S-wave (km/s) = 3.69274 4.11722 3.91074
# Velocity P-wave (km/s) = 5.73130 6.17161 5.95553
#
# Compressibility (1/GPa) = 0.02604977
#
# Stress axis : x y z
#
# Youngs Moduli (GPa) = 137.29848 137.29848 104.54809
#
# Poissons Ratio (x) = 0.10550 -0.09030
# Poissons Ratio (y) = 0.10550 -0.09030
# Poissons Ratio (z) = -0.11859 -0.11859
#
# Static dielectric constant tensor:
#      x y z
#    x 2.086260 0.000000 0.000000 
#    y 0.000000 2.086260 0.000000 
#    z 0.000000 0.000000 2.360200 
# 
# From -- ./inp_files/5068.got.cif
#   From: 2010.05.17/outbox.cif.g08.bks.cpg/sg122_3_cif.got.tgz:5068.got - 2010.05.20 11:37:33.
