data_PCOD9561216
_publ_section_title
;
Structure prediction by ZEFSAII (Michael W. Deem and Ramdas Pophale) SiO2 
 PCOD9561216
Probable space group: I -4 2 D
;
_chemical_formula_sum "Si O2"
_cell_formula_units_Z 72
_cell_length_a 11.275864
_cell_length_b 11.275864
_cell_length_c 23.835287
_cell_angle_alpha 90.000000
_cell_angle_beta 90.000000
_cell_angle_gamma 90.000000
_cell_volume 3030.540162
_symmetry_space_group_name_H-M "I -4 2 D"
_symmetry_group_IT_number 122
_symmetry_cell_setting 'tetragonal'
loop_
_space_group_symop_operation_xyz
x,y,z
y,-x,-z
-x,-y,z
-y,x,-z
x,1/2-y,1/4-z
-x,1/2+y,1/4-z
-y,1/2-x,1/4+z
y,1/2+x,1/4+z
1/2+x,1/2+y,1/2+z
1/2+y,1/2-x,1/2-z
1/2-x,1/2-y,1/2+z
1/2-y,1/2+x,1/2-z
1/2+x,-y,3/4-z
1/2-x,y,3/4-z
1/2-y,-x,3/4+z
1/2+y,x,3/4+z
loop_
_atom_site_type_symbol
_atom_site_label
_atom_site_fract_x
_atom_site_fract_y
_atom_site_fract_z
Si Si1 0.401724 0.756893 0.326190
Si Si2 0.413614 0.643406 0.529537
Si Si3 0.762788 0.124262 0.237808
Si Si4 0.750000 0.056123 0.875000
Si Si5 0.540428 0.632176 0.155083
O O1 0.350501 0.838991 0.275517
O O2 0.541761 0.753083 0.315844
O O3 0.329108 0.635396 0.332433
O O4 0.372141 0.824450 0.383594
O O5 0.517685 0.647647 0.482296
O O6 0.326685 0.753284 0.524698
O O7 0.478401 0.659670 0.588651
O O8 0.842577 0.042965 0.279212
O O9 0.500000 0.500000 0.140992
O O10 0.485667 0.750000 0.125000
#
# Coordination Sequence:
#
# PCOD9561216 Si02
#       5
#    16  16  16   8  16
#     4  11  24  47  70 106 148 190 252 316 384 459
#     4  11  25  46  72 104 149 194 249 316 380 461
#     4  11  25  44  73 104 145 191 249 310 383 466
#     4  12  24  50  74 102 152 202 248 322 388 462
#     4  10  23  43  66 104 148 190 242 318 376 453
#
# _framework density 23.758143
#
# number of rings (size 3 to 8) (size 9 to 14) (size 15 to 20)
#    0.000    1.111    5.556    0.000    9.333    5.333 
#    0.000    0.000    0.000    0.000    0.000    0.000 
#    0.000    0.000    0.000    0.000    0.000    0.000 
#
# Total GULP energy -201154.287666 kJ/mol
# GULP energy per Si atom -5587.619102 kJ/mol
# Density = 2.370407 g / cm^3
# Si number density = 23.758143 Si / 1000 Ang^3
#
#
#
# Elastic Constant Matrix: (Units=GPa)
#
#
# Indices 1 2 3 4 5 6 
#
# 1 88.8160 19.0703 -3.5491 0.0000 0.0000 0.0000
# 2 19.0703 88.8160 -3.5491 0.0000 0.0000 0.0000
# 3 -3.5491 -3.5491 43.5651 0.0000 0.0000 0.0000
# 4 0.0000 0.0000 0.0000 33.4191 0.0000 0.0000
# 5 0.0000 0.0000 0.0000 0.0000 33.4191 0.0000
# 6 0.0000 0.0000 0.0000 0.0000 0.0000 34.9486
#
#
#
# Elastic Compliance Matrix: (Units=1/GPa)
#
#
# Indices 1 2 3 4 5 6 
#
# 1 0.011828 -0.002509 0.000759 0.000000 0.000000 0.000000
# 2 -0.002509 0.011828 0.000759 0.000000 0.000000 0.000000
# 3 0.000759 0.000759 0.023078 0.000000 0.000000 0.000000
# 4 0.000000 0.000000 0.000000 0.029923 0.000000 0.000000
# 5 0.000000 0.000000 0.000000 0.000000 0.029923 0.000000
# 6 0.000000 0.000000 0.000000 0.000000 0.000000 0.028613
#
#
# Mechanical properties :
#
#
# Convention : Reuss Voigt Hill
#
# Bulk Modulus (GPa) = 22.34512 27.23792 24.79152
# Shear Modulus (GPa) = 32.87447 34.30569 33.59008
#
# Velocity S-wave (km/s) = 3.72387 3.80406 3.76418
# Velocity P-wave (km/s) = 5.28349 5.54834 5.41753
#
# Compressibility (1/GPa) = 0.04475251
#
# Stress axis : x y z
#
# Youngs Moduli (GPa) = 84.54234 84.54234 43.33162
#
# Poissons Ratio (x) = 0.21215 -0.03290
# Poissons Ratio (y) = 0.21215 -0.03290
# Poissons Ratio (z) = -0.06418 -0.06418
#
# Static dielectric constant tensor:
#      x y z
#    x 1.935240 0.000000 0.000000 
#    y 0.000000 1.935240 0.000000 
#    z 0.000000 0.000000 1.888370 
# 
# From -- ./inp_files/8612.got.cif
#   From: 2010.05.17/outbox.cif.g08.bks.cpg/sg122_5_cif.got.tgz:8612.got - 2010.05.20 11:37:33.
