data_PCOD9561257
_publ_section_title
;
Structure prediction by ZEFSAII (Michael W. Deem and Ramdas Pophale) SiO2 
 PCOD9561257
Probable space group: I -4 2 D
;
_chemical_formula_sum "Si O2"
_cell_formula_units_Z 32
_cell_length_a 14.943789
_cell_length_b 14.943789
_cell_length_c 6.803134
_cell_angle_alpha 90.000000
_cell_angle_beta 90.000000
_cell_angle_gamma 90.000000
_cell_volume 1519.254317
_symmetry_space_group_name_H-M "I -4 2 D"
_symmetry_group_IT_number 122
_symmetry_cell_setting 'tetragonal'
loop_
_space_group_symop_operation_xyz
x,y,z
y,-x,-z
-x,-y,z
-y,x,-z
x,1/2-y,1/4-z
-x,1/2+y,1/4-z
-y,1/2-x,1/4+z
y,1/2+x,1/4+z
1/2+x,1/2+y,1/2+z
1/2+y,1/2-x,1/2-z
1/2-x,1/2-y,1/2+z
1/2-y,1/2+x,1/2-z
1/2+x,-y,3/4-z
1/2-x,y,3/4-z
1/2-y,-x,3/4+z
1/2+y,x,3/4+z
loop_
_atom_site_type_symbol
_atom_site_label
_atom_site_fract_x
_atom_site_fract_y
_atom_site_fract_z
Si Si1 0.218900 0.149160 0.095826
Si Si2 0.385409 0.417948 0.927810
O O1 0.183645 0.250000 0.125000
O O2 0.311065 0.141483 0.216555
O O3 0.146224 0.084488 0.200380
O O4 0.250000 0.130043 0.875000
O O5 0.381956 0.516381 0.023719
#
# Coordination Sequence:
#
# PCOD9561257 Si02
#       2
#    16  16
#     4  11  23  40  68  97 135 177 229 285 348 411
#     4  10  24  43  65  97 138 177 228 286 348 422
#
# _framework density 21.062964000000001
#
# number of rings (size 3 to 8) (size 9 to 14) (size 15 to 20)
#    0.000    1.500    5.000    0.000    7.000    6.000 
#    0.000    5.000    0.000    0.000    0.000    0.000 
#    0.000    0.000    0.000    0.000    0.000    0.000 
#
# Total GULP energy -89220.138313 kJ/mol
# GULP energy per Si atom -5576.258645 kJ/mol
# Density = 2.101502 g / cm^3
# Si number density = 21.062964 Si / 1000 Ang^3
#
#
#
# Elastic Constant Matrix: (Units=GPa)
#
#
# Indices 1 2 3 4 5 6 
#
# 1 63.3342 20.4242 29.6579 0.0000 0.0000 0.0000
# 2 20.4242 63.3342 29.6579 0.0000 0.0000 0.0000
# 3 29.6579 29.6579 172.4564 0.0000 0.0000 0.0000
# 4 0.0000 0.0000 0.0000 25.4109 0.0000 0.0000
# 5 0.0000 0.0000 0.0000 0.0000 25.4109 0.0000
# 6 0.0000 0.0000 0.0000 0.0000 0.0000 25.7092
#
#
#
# Elastic Compliance Matrix: (Units=1/GPa)
#
#
# Indices 1 2 3 4 5 6 
#
# 1 0.018450 -0.004855 -0.002338 0.000000 0.000000 0.000000
# 2 -0.004855 0.018450 -0.002338 0.000000 0.000000 0.000000
# 3 -0.002338 -0.002338 0.006603 0.000000 0.000000 0.000000
# 4 0.000000 0.000000 0.000000 0.039353 0.000000 0.000000
# 5 0.000000 0.000000 0.000000 0.000000 0.039353 0.000000
# 6 0.000000 0.000000 0.000000 0.000000 0.000000 0.038897
#
#
# Mechanical properties :
#
#
# Convention : Reuss Voigt Hill
#
# Bulk Modulus (GPa) = 40.91568 50.95606 45.93587
# Shear Modulus (GPa) = 26.55149 29.93186 28.24167
#
# Velocity S-wave (km/s) = 3.55431 3.77379 3.66570
# Velocity P-wave (km/s) = 6.02592 6.57521 6.30655
#
# Compressibility (1/GPa) = 0.02444051
#
# Stress axis : x y z
#
# Youngs Moduli (GPa) = 54.20149 54.20149 151.45333
#
# Poissons Ratio (x) = 0.26314 0.35409
# Poissons Ratio (y) = 0.26314 0.35409
# Poissons Ratio (z) = 0.12672 0.12672
#
# Static dielectric constant tensor:
#      x y z
#    x 1.744080 0.000000 0.000000 
#    y 0.000000 1.744080 0.000000 
#    z 0.000000 0.000000 1.929930 
# 
# From -- ./inp_files/1691.got.cif
#   From: 2010.05.17/outbox.cif.g08.bks.cpg/sg122_1_cif.got.tgz:1691.got - 2010.05.20 11:37:33.
