data_PCOD9561186
_publ_section_title
;
Structure prediction by ZEFSAII (Michael W. Deem and Ramdas Pophale) SiO2 
 PCOD9561186
Probable space group: I -4 2 D
;
_chemical_formula_sum "Si O2"
_cell_formula_units_Z 56
_cell_length_a 12.539444
_cell_length_b 12.539444
_cell_length_c 12.305405
_cell_angle_alpha 90.000000
_cell_angle_beta 90.000000
_cell_angle_gamma 90.000000
_cell_volume 1934.873036
_symmetry_space_group_name_H-M "I -4 2 D"
_symmetry_group_IT_number 122
_symmetry_cell_setting 'tetragonal'
loop_
_space_group_symop_operation_xyz
x,y,z
y,-x,-z
-x,-y,z
-y,x,-z
x,1/2-y,1/4-z
-x,1/2+y,1/4-z
-y,1/2-x,1/4+z
y,1/2+x,1/4+z
1/2+x,1/2+y,1/2+z
1/2+y,1/2-x,1/2-z
1/2-x,1/2-y,1/2+z
1/2-y,1/2+x,1/2-z
1/2+x,-y,3/4-z
1/2-x,y,3/4-z
1/2-y,-x,3/4+z
1/2+y,x,3/4+z
loop_
_atom_site_type_symbol
_atom_site_label
_atom_site_fract_x
_atom_site_fract_y
_atom_site_fract_z
Si Si1 0.170842 0.569265 0.993763
Si Si2 0.775234 0.750000 0.125000
Si Si3 0.633578 0.980479 0.826489
Si Si4 0.658215 0.364920 0.160836
O O1 0.072308 0.572608 0.073541
O O2 0.276373 0.560920 0.075063
O O3 0.176068 0.682959 0.931861
O O4 0.143441 0.470516 0.913099
O O5 0.851352 0.809694 0.212538
O O6 0.592400 0.901717 0.728423
O O7 0.750000 0.964895 0.875000
O O8 0.698860 0.250000 0.125000
#
# Coordination Sequence:
#
# PCOD9561186 Si02
#       4
#    16   8  16  16
#     4  11  24  46  79 117 164 228 291 363 448 539
#     4  10  22  46  74 108 162 226 290 362 436 540
#     4  11  28  54  83 129 173 235 301 376 454 546
#     4  10  23  45  77 113 162 225 282 366 439 533
#
# _framework density 28.942468999999999
#
# number of rings (size 3 to 8) (size 9 to 14) (size 15 to 20)
#    0.000    1.429    1.429    2.571    8.000    4.571 
#    2.571    0.000    0.000    0.000    0.000    0.000 
#    0.000    0.000    0.000    0.000    0.000    0.000 
#
# Total GULP energy -155962.967642 kJ/mol
# GULP energy per Si atom -5570.105987 kJ/mol
# Density = 2.887659 g / cm^3
# Si number density = 28.942469 Si / 1000 Ang^3
#
#
#
# Elastic Constant Matrix: (Units=GPa)
#
#
# Indices 1 2 3 4 5 6 
#
# 1 171.5566 54.4096 49.5909 0.0000 0.0000 0.0000
# 2 54.4096 171.5566 49.5909 0.0000 0.0000 0.0000
# 3 49.5909 49.5909 133.4115 0.0000 0.0000 0.0000
# 4 0.0000 0.0000 0.0000 50.6038 0.0000 0.0000
# 5 0.0000 0.0000 0.0000 0.0000 50.6038 0.0000
# 6 0.0000 0.0000 0.0000 0.0000 0.0000 32.6262
#
#
#
# Elastic Compliance Matrix: (Units=1/GPa)
#
#
# Indices 1 2 3 4 5 6 
#
# 1 0.006912 -0.001624 -0.001966 0.000000 0.000000 0.000000
# 2 -0.001624 0.006912 -0.001966 0.000000 0.000000 0.000000
# 3 -0.001966 -0.001966 0.008957 0.000000 0.000000 0.000000
# 4 0.000000 0.000000 0.000000 0.019761 0.000000 0.000000
# 5 0.000000 0.000000 0.000000 0.000000 0.019761 0.000000
# 6 0.000000 0.000000 0.000000 0.000000 0.000000 0.030650
#
#
# Mechanical properties :
#
#
# Convention : Reuss Voigt Hill
#
# Bulk Modulus (GPa) = 85.68541 87.07862 86.38201
# Shear Modulus (GPa) = 46.31537 48.29565 47.30551
#
# Velocity S-wave (km/s) = 4.00466 4.08938 4.04724
# Velocity P-wave (km/s) = 7.14512 7.24220 7.19382
#
# Compressibility (1/GPa) = 0.01167060
#
# Stress axis : x y z
#
# Youngs Moduli (GPa) = 144.67048 144.67048 111.64485
#
# Poissons Ratio (x) = 0.23495 0.21946
# Poissons Ratio (y) = 0.23495 0.21946
# Poissons Ratio (z) = 0.28438 0.28438
#
# Static dielectric constant tensor:
#      x y z
#    x 2.441870 0.000000 0.000000 
#    y 0.000000 2.441870 0.000000 
#    z 0.000000 0.000000 2.810970 
# 
# From -- ./inp_files/3937.got.cif
#   From: 2010.05.17/outbox.cif.g08.bks.cpg/sg122_2_cif.got.tgz:3937.got - 2010.05.20 11:37:33.
