data_PCOD9561773
_publ_section_title
;
Structure prediction by ZEFSAII (Michael W. Deem and Ramdas Pophale) SiO2 
 PCOD9561773
Probable space group: P 4/M M M
;
_chemical_formula_sum "Si O2"
_cell_formula_units_Z 64
_cell_length_a 14.132769
_cell_length_b 14.132769
_cell_length_c 20.967501
_cell_angle_alpha 90.000000
_cell_angle_beta 90.000000
_cell_angle_gamma 90.000000
_cell_volume 4187.947159
_symmetry_space_group_name_H-M "P 4/M M M"
_symmetry_group_IT_number 123
_symmetry_cell_setting 'tetragonal'
loop_
_space_group_symop_operation_xyz
x,y,z
-y,x,z
-x,-y,z
y,-x,z
x,-y,-z
-x,y,-z
y,x,-z
-y,-x,-z
-x,-y,-z
y,-x,-z
x,y,-z
-y,x,-z
-x,y,z
x,-y,z
-y,-x,z
y,x,z
loop_
_atom_site_type_symbol
_atom_site_label
_atom_site_fract_x
_atom_site_fract_y
_atom_site_fract_z
Si Si1 0.611461 0.889151 0.625355
Si Si2 0.386044 0.769765 0.000000
Si Si3 0.385386 0.108233 0.124816
Si Si4 0.267205 0.887692 0.500000
Si Si5 0.768866 0.613123 0.248006
O O1 0.500000 0.879442 0.610171
O O2 0.672409 0.865289 0.563311
O O3 0.632210 0.824265 0.686160
O O4 0.627470 0.000000 0.641472
O O5 0.360566 0.831293 0.062401
O O6 0.500000 0.754012 0.000000
O O7 0.326948 0.673053 0.000000
O O8 0.500000 0.103171 0.125243
O O9 0.358617 0.163956 0.188832
O O10 0.350329 0.000000 0.122915
O O11 0.172381 0.827620 0.500000
O O12 0.249723 0.000000 0.500000
O O13 0.751838 0.500000 0.243886
O O14 0.673416 0.673416 0.245478
#
# Coordination Sequence:
#
# PCOD9561773 Si02
#       5
#    16   8  16   8  16
#     4   9  17  30  48  68  88 112 146 189 231 263
#     4  10  19  30  45  67  96 126 153 181 216 265
#     4   9  17  30  47  65  86 114 149 190 229 256
#     4  10  19  30  45  65  90 118 147 181 222 271
#     4  10  19  30  45  66  93 122 149 178 214 262
#
# _framework density 15.281950999999999
#
# number of rings (size 3 to 8) (size 9 to 14) (size 15 to 20)
#    0.000    2.500    0.000    3.000    0.000    6.500 
#    0.000    0.000    0.000    4.500    0.000    0.000 
#    0.000   45.500    0.000    0.000    0.000    0.000 
#
# Total GULP energy -356709.895941 kJ/mol
# GULP energy per Si atom -5573.592124 kJ/mol
# Density = 1.524717 g / cm^3
# Si number density = 15.281951 Si / 1000 Ang^3
#
#
#
# Elastic Constant Matrix: (Units=GPa)
#
#
# Indices 1 2 3 4 5 6 
#
# 1 70.7071 52.8925 62.1353 0.0000 0.0000 0.0000
# 2 52.8925 70.7056 62.1356 0.0000 0.0000 0.0000
# 3 62.1353 62.1356 140.0387 0.0000 0.0000 0.0000
# 4 0.0000 0.0000 0.0000 10.7695 0.0000 0.0000
# 5 0.0000 0.0000 0.0000 0.0000 10.7674 0.0000
# 6 0.0000 0.0000 0.0000 0.0000 0.0000 22.2380
#
#
#
# Elastic Compliance Matrix: (Units=1/GPa)
#
#
# Indices 1 2 3 4 5 6 
#
# 1 0.035371 -0.020765 -0.006481 0.000000 0.000000 0.000000
# 2 -0.020765 0.035372 -0.006482 0.000000 0.000000 0.000000
# 3 -0.006481 -0.006482 0.012892 0.000000 0.000000 0.000000
# 4 0.000000 0.000000 0.000000 0.092855 0.000000 0.000000
# 5 0.000000 0.000000 0.000000 0.000000 0.092873 0.000000
# 6 0.000000 0.000000 0.000000 0.000000 0.000000 0.044968
#
#
# Mechanical properties :
#
#
# Convention : Reuss Voigt Hill
#
# Bulk Modulus (GPa) = 61.79798 70.64204 66.22001
# Shear Modulus (GPa) = 12.91391 15.70751 14.31071
#
# Velocity S-wave (km/s) = 2.91012 3.20948 3.06346
# Velocity P-wave (km/s) = 7.19847 7.74987 7.47926
#
# Compressibility (1/GPa) = 0.01618176
#
# Stress axis : x y z
#
# Youngs Moduli (GPa) = 28.27173 28.27055 77.56537
#
# Poissons Ratio (x) = 0.58703 0.50269
# Poissons Ratio (y) = 0.58705 0.50275
# Poissons Ratio (z) = 0.18322 0.18324
#
# Static dielectric constant tensor:
#      x y z
#    x 1.488690 0.000000 0.000000 
#    y 0.000000 1.488690 0.000000 
#    z 0.000000 0.000000 1.506430 
# 
# From -- ./inp_files/5029.got.cif
#   From: 2010.05.17/outbox.cif.g08.bks.cpg/sg123_3_cif.got.tgz:5029.got - 2010.05.20 11:43:04.
