data_PCOD9561571
_publ_section_title
;
Structure prediction by ZEFSAII (Michael W. Deem and Ramdas Pophale) SiO2 
 PCOD9561571
Probable space group: I -4 2 D
;
_chemical_formula_sum "Si O2"
_cell_formula_units_Z 48
_cell_length_a 7.347417
_cell_length_b 7.347417
_cell_length_c 34.505265
_cell_angle_alpha 90.000000
_cell_angle_beta 90.000000
_cell_angle_gamma 90.000000
_cell_volume 1862.750740
_symmetry_space_group_name_H-M "I -4 2 D"
_symmetry_group_IT_number 122
_symmetry_cell_setting 'tetragonal'
loop_
_space_group_symop_operation_xyz
x,y,z
y,-x,-z
-x,-y,z
-y,x,-z
x,1/2-y,1/4-z
-x,1/2+y,1/4-z
-y,1/2-x,1/4+z
y,1/2+x,1/4+z
1/2+x,1/2+y,1/2+z
1/2+y,1/2-x,1/2-z
1/2-x,1/2-y,1/2+z
1/2-y,1/2+x,1/2-z
1/2+x,-y,3/4-z
1/2-x,y,3/4-z
1/2-y,-x,3/4+z
1/2+y,x,3/4+z
loop_
_atom_site_type_symbol
_atom_site_label
_atom_site_fract_x
_atom_site_fract_y
_atom_site_fract_z
Si Si1 0.282496 0.790884 0.332892
Si Si2 0.218837 0.281162 0.750000
Si Si3 0.717503 0.790883 0.332892
O O1 0.250000 0.706059 0.375000
O O2 0.216436 0.711196 0.291867
O O3 0.500000 0.798882 0.328984
O O4 0.213220 0.000001 0.335231
O O5 0.247696 0.499999 0.752011
O O6 0.283563 0.211194 0.791867
O O7 0.750000 0.706058 0.375000
#
# Coordination Sequence:
#
# PCOD9561571 Si02
#       3
#    16  16  16
#     4   8  12  17  25  37  54  76  99 121 147 181
#     4   7  10  16  24  34  50  72  94 115 144 180
#     4   8  12  17  25  37  54  76  99 121 147 181
#
# _framework density 25.768340999999999
#
# number of rings (size 3 to 8) (size 9 to 14) (size 15 to 20)
#    0.000    4.333    0.000    4.000    0.000    0.000 
#    0.000    0.000    0.000    0.000    0.000    0.000 
#    0.000    2.667    0.000    2.000    0.000    4.000 
#
# Total GULP energy -133603.137082 kJ/mol
# GULP energy per Si atom -5566.797378 kJ/mol
# Density = 2.570969 g / cm^3
# Si number density = 25.768341 Si / 1000 Ang^3
#
#
#
# Elastic Constant Matrix: (Units=GPa)
#
#
# Indices 1 2 3 4 5 6 
#
# 1 94.3003 -2.6555 18.8556 0.0000 0.0000 0.0000
# 2 -2.6555 94.3003 18.8556 0.0000 0.0000 0.0000
# 3 18.8556 18.8556 427.5120 0.0000 0.0000 0.0000
# 4 0.0000 0.0000 0.0000 1.1720 0.0000 0.0000
# 5 0.0000 0.0000 0.0000 0.0000 1.1720 0.0000
# 6 0.0000 0.0000 0.0000 0.0000 0.0000 -10.9808
#
#
#
# Elastic Compliance Matrix: (Units=1/GPa)
#
#
# Indices 1 2 3 4 5 6 
#
# 1 0.010714 0.000400 -0.000490 0.000000 0.000000 0.000000
# 2 0.000400 0.010714 -0.000490 0.000000 0.000000 0.000000
# 3 -0.000490 -0.000490 0.002382 0.000000 0.000000 0.000000
# 4 0.000000 0.000000 0.000000 0.853220 0.000000 0.000000
# 5 0.000000 0.000000 0.000000 0.000000 0.853223 0.000000
# 6 0.000000 0.000000 0.000000 0.000000 0.000000 -0.091068
#
#
# Mechanical properties :
#
#
# Convention : Reuss Voigt Hill
#
# Bulk Modulus (GPa) = 44.15308 76.24711 60.20010
# Shear Modulus (GPa) = 3.03417 37.00979 20.02198
#
# Velocity S-wave (km/s) = 1.08630 3.79390 2.79049
# Velocity P-wave (km/s) = 4.32957 6.98894 5.81337
#
# Compressibility (1/GPa) = 0.02264848
#
# Stress axis : x y z
#
# Youngs Moduli (GPa) = 93.33861 93.33862 419.75306
#
# Poissons Ratio (x) = -0.03731 0.20575
# Poissons Ratio (y) = -0.03731 0.20575
# Poissons Ratio (z) = 0.04575 0.04575
#
# Static dielectric constant tensor:
#      x y z
#    x 2.425530 0.000000 0.000000 
#    y 0.000000 2.425530 0.000000 
#    z 0.000000 0.000000 2.152420 
# 
# From -- ./inp_files/7703.got.cif
#   From: 2010.05.17/outbox.cif.g08.bks.cpg/sg122_4_cif.got.tgz:7703.got - 2010.05.20 11:37:33.
