data_PCOD9561657
_publ_section_title
;
Structure prediction by ZEFSAII (Michael W. Deem and Ramdas Pophale) SiO2 
 PCOD9561657
Probable space group: P 4/M M M
;
_chemical_formula_sum "Si O2"
_cell_formula_units_Z 128
_cell_length_a 18.928214
_cell_length_b 18.928214
_cell_length_c 23.960241
_cell_angle_alpha 90.000000
_cell_angle_beta 90.000000
_cell_angle_gamma 90.000000
_cell_volume 8584.410099
_symmetry_space_group_name_H-M "P 4/M M M"
_symmetry_group_IT_number 123
_symmetry_cell_setting 'tetragonal'
loop_
_space_group_symop_operation_xyz
x,y,z
-y,x,z
-x,-y,z
y,-x,z
x,-y,-z
-x,y,-z
y,x,-z
-y,-x,-z
-x,-y,-z
y,-x,-z
x,y,-z
-y,x,-z
-x,y,z
x,-y,z
-y,-x,z
y,x,z
loop_
_atom_site_type_symbol
_atom_site_label
_atom_site_fract_x
_atom_site_fract_y
_atom_site_fract_z
Si Si1 0.727387 0.843613 0.335975
Si Si2 0.915645 0.200628 0.229831
Si Si3 0.420042 0.694479 0.086178
Si Si4 0.197964 0.917319 0.565826
Si Si5 0.583462 0.856999 0.061913
Si Si6 0.157062 0.419053 0.275467
Si Si7 0.654967 0.916118 0.828307
Si Si8 0.422711 0.310039 0.220140
O O1 0.766981 0.766981 0.333009
O O2 0.767607 0.891407 0.289578
O O3 0.745260 0.878261 0.395367
O O4 0.644623 0.845310 0.320332
O O5 0.868987 0.131014 0.219365
O O6 0.896601 0.264155 0.187030
O O7 0.000000 0.188722 0.228683
O O8 0.500000 0.671587 0.072725
O O9 0.362293 0.637708 0.068556
O O10 0.408888 0.772260 0.062431
O O11 0.415620 0.701977 0.153621
O O12 0.214360 0.911169 0.500000
O O13 0.124482 0.875519 0.575600
O O14 0.192538 0.000000 0.579735
O O15 0.500000 0.871982 0.071439
O O16 0.628204 0.886293 0.113109
O O17 0.602397 0.883806 0.000000
O O18 0.139479 0.500000 0.292719
O O19 0.110527 0.394096 0.222549
O O20 0.236334 0.419566 0.251481
O O21 0.651387 0.000000 0.829956
O O22 0.500000 0.342513 0.229079
O O23 0.361345 0.361345 0.238859
#
# Coordination Sequence:
#
# PCOD9561657 Si02
#       8
#    16  16  16  16  16  16  16  16
#     4   9  17  29  45  66  93 122 152 186 222 261
#     4   9  18  31  48  70  93 117 142 172 212 258
#     4   9  17  29  44  62  85 111 140 173 207 248
#     4   9  17  29  46  68  94 124 155 186 221 261
#     4  10  20  33  47  63  84 110 141 177 218 263
#     4  10  18  29  46  66  87 115 150 186 222 260
#     4  10  20  33  47  65  88 110 137 175 218 263
#     4   9  16  26  42  63  87 114 142 173 212 256
#
# _framework density 14.910750999999999
#
# number of rings (size 3 to 8) (size 9 to 14) (size 15 to 20)
#    0.000    2.625    1.250    1.125    0.000    3.500 
#    0.000    2.500    0.000    2.625    0.000    2.625 
#    0.000    0.000    0.000    2.750    0.000    0.000 
#
# Total GULP energy -713020.359482 kJ/mol
# GULP energy per Si atom -5570.471558 kJ/mol
# Density = 1.487681 g / cm^3
# Si number density = 14.910751 Si / 1000 Ang^3
#
#
#
# Elastic Constant Matrix: (Units=GPa)
#
#
# Indices 1 2 3 4 5 6 
#
# 1 81.9337 44.4408 34.8250 0.0000 0.0000 0.0000
# 2 44.4408 81.9337 34.8250 0.0000 0.0000 0.0000
# 3 34.8250 34.8250 58.0701 0.0000 0.0000 0.0000
# 4 0.0000 0.0000 0.0000 227.8575 0.0000 0.0000
# 5 0.0000 0.0000 0.0000 0.0000 227.8575 0.0000
# 6 0.0000 0.0000 0.0000 0.0000 0.0000 24.2098
#
#
#
# Elastic Compliance Matrix: (Units=1/GPa)
#
#
# Indices 1 2 3 4 5 6 
#
# 1 0.019246 -0.007426 -0.007088 0.000000 0.000000 0.000000
# 2 -0.007426 0.019246 -0.007088 0.000000 0.000000 0.000000
# 3 -0.007088 -0.007088 0.025722 0.000000 0.000000 0.000000
# 4 0.000000 0.000000 0.000000 0.004389 0.000000 0.000000
# 5 0.000000 0.000000 0.000000 0.000000 0.004389 0.000000
# 6 0.000000 0.000000 0.000000 0.000000 0.000000 0.041306
#
#
# Mechanical properties :
#
#
# Convention : Reuss Voigt Hill
#
# Bulk Modulus (GPa) = 47.59999 50.01324 48.80661
# Shear Modulus (GPa) = 30.39427 103.17475 66.78451
#
# Velocity S-wave (km/s) = 4.51978 8.32737 6.69976
# Velocity P-wave (km/s) = 7.69613 11.22830 9.62562
#
# Compressibility (1/GPa) = 0.02100841
#
# Stress axis : x y z
#
# Youngs Moduli (GPa) = 51.95974 51.95974 38.87673
#
# Poissons Ratio (x) = 0.38586 0.27557
# Poissons Ratio (y) = 0.38586 0.27557
# Poissons Ratio (z) = 0.36831 0.36831
#
# Static dielectric constant tensor:
#      x y z
#    x 1.496170 0.000000 0.000000 
#    y 0.000000 1.496170 0.000000 
#    z 0.000000 0.000000 1.505210 
# 
# From -- ./inp_files/7652.got.cif
#   From: 2010.05.17/outbox.cif.g08.bks.cpg/sg123_4_cif.got.tgz:7652.got - 2010.05.20 11:43:04.
