data_PCOD9561682
_publ_section_title
;
Structure prediction by ZEFSAII (Michael W. Deem and Ramdas Pophale) SiO2 
 PCOD9561682
Probable space group: P 4/M M M
;
_chemical_formula_sum "Si O2"
_cell_formula_units_Z 120
_cell_length_a 18.782912
_cell_length_b 18.782912
_cell_length_c 21.510242
_cell_angle_alpha 90.000000
_cell_angle_beta 90.000000
_cell_angle_gamma 90.000000
_cell_volume 7588.765694
_symmetry_space_group_name_H-M "P 4/M M M"
_symmetry_group_IT_number 123
_symmetry_cell_setting 'tetragonal'
loop_
_space_group_symop_operation_xyz
x,y,z
-y,x,z
-x,-y,z
y,-x,z
x,-y,-z
-x,y,-z
y,x,-z
-y,-x,-z
-x,-y,-z
y,-x,-z
x,y,-z
-y,x,-z
-x,y,z
x,-y,z
-y,-x,z
y,x,z
loop_
_atom_site_type_symbol
_atom_site_label
_atom_site_fract_x
_atom_site_fract_y
_atom_site_fract_z
Si Si1 0.266837 0.850504 0.374927
Si Si2 0.915455 0.348920 0.805992
Si Si3 0.858767 0.415330 0.068161
Si Si4 0.302342 0.418637 0.898498
Si Si5 0.798989 0.915484 0.749089
Si Si6 0.914724 0.796679 0.500000
Si Si7 0.155668 0.581477 0.313279
Si Si8 0.578100 0.307523 0.750373
O O1 0.227263 0.772738 0.373537
O O2 0.229465 0.895245 0.319623
O O3 0.245983 0.887633 0.439407
O O4 0.351527 0.850979 0.360408
O O5 0.890241 0.376083 0.872535
O O6 0.893218 0.267313 0.792818
O O7 0.887267 0.397152 0.749170
O O8 0.000000 0.350646 0.803463
O O9 0.872105 0.500000 0.074881
O O10 0.773611 0.405608 0.070698
O O11 0.885518 0.392879 0.000000
O O12 0.324357 0.500000 0.911651
O O13 0.362282 0.362282 0.916165
O O14 0.290346 0.413119 0.823718
O O15 0.868487 0.868487 0.761769
O O16 0.811143 0.000000 0.753906
O O17 0.871943 0.871943 0.500000
O O18 0.000000 0.805014 0.500000
O O19 0.137510 0.500000 0.333478
O O20 0.236821 0.580852 0.289803
O O21 0.500000 0.340782 0.744036
O O22 0.639034 0.360967 0.731559
#
# Coordination Sequence:
#
# PCOD9561682 Si02
#       8
#    16  16  16  16  16   8  16  16
#     4   9  18  32  50  72 100 133 164 197 237 279
#     4  10  20  33  48  68  93 118 149 190 234 282
#     4  10  20  33  47  64  88 118 153 193 237 282
#     4   9  17  29  44  63  88 117 150 188 229 272
#     4   9  18  32  51  75  99 123 151 185 228 278
#     4  10  20  35  55  77 103 133 162 194 234 280
#     4  10  18  30  49  71  94 125 165 202 235 276
#     4   9  16  26  43  66  92 121 153 192 235 277
#
# _framework density 15.812847
#
# number of rings (size 3 to 8) (size 9 to 14) (size 15 to 20)
#    0.000    2.533    1.333    1.200    0.000    3.667 
#    0.000    2.333    0.000    2.800    0.000    1.867 
#    0.000    0.000    0.000    2.933    0.000   40.000 
#
# Total GULP energy -668559.508386 kJ/mol
# GULP energy per Si atom -5571.329237 kJ/mol
# Density = 1.577686 g / cm^3
# Si number density = 15.812847 Si / 1000 Ang^3
#
#
#
# Elastic Constant Matrix: (Units=GPa)
#
#
# Indices 1 2 3 4 5 6 
#
# 1 82.8188 46.0027 40.7706 0.0000 0.0000 0.0000
# 2 46.0027 82.8188 40.7706 0.0000 0.0000 0.0000
# 3 40.7706 40.7706 90.8700 0.0000 0.0000 0.0000
# 4 0.0000 0.0000 0.0000 19.9420 0.0000 0.0000
# 5 0.0000 0.0000 0.0000 0.0000 19.9420 0.0000
# 6 0.0000 0.0000 0.0000 0.0000 0.0000 25.7828
#
#
#
# Elastic Compliance Matrix: (Units=1/GPa)
#
#
# Indices 1 2 3 4 5 6 
#
# 1 0.019002 -0.008160 -0.004864 0.000000 0.000000 0.000000
# 2 -0.008160 0.019002 -0.004864 0.000000 0.000000 0.000000
# 3 -0.004864 -0.004864 0.015370 0.000000 0.000000 0.000000
# 4 0.000000 0.000000 0.000000 0.050146 0.000000 0.000000
# 5 0.000000 0.000000 0.000000 0.000000 0.050146 0.000000
# 6 0.000000 0.000000 0.000000 0.000000 0.000000 0.038786
#
#
# Mechanical properties :
#
#
# Convention : Reuss Voigt Hill
#
# Bulk Modulus (GPa) = 56.83195 56.84392 56.83794
# Shear Modulus (GPa) = 21.35905 21.73093 21.54499
#
# Velocity S-wave (km/s) = 3.67923 3.71112 3.69521
# Velocity P-wave (km/s) = 7.35305 7.37490 7.36398
#
# Compressibility (1/GPa) = 0.01759574
#
# Stress axis : x y z
#
# Youngs Moduli (GPa) = 52.62651 52.62651 65.06319
#
# Poissons Ratio (x) = 0.42944 0.31649
# Poissons Ratio (y) = 0.42944 0.31649
# Poissons Ratio (z) = 0.25599 0.25599
#
# Static dielectric constant tensor:
#      x y z
#    x 1.532100 0.000000 0.000000 
#    y 0.000000 1.532100 0.000000 
#    z 0.000000 0.000000 1.554620 
# 
# From -- ./inp_files/6771.got.cif
#   From: 2010.05.17/outbox.cif.g08.bks.cpg/sg123_4_cif.got.tgz:6771.got - 2010.05.20 11:43:04.
