data_PCOD9561119
_publ_section_title
;
Structure prediction by ZEFSAII (Michael W. Deem and Ramdas Pophale) SiO2 
 PCOD9561119
Probable space group: I -4 2 D
;
_chemical_formula_sum "Si O2"
_cell_formula_units_Z 64
_cell_length_a 16.202771
_cell_length_b 16.202771
_cell_length_c 11.130756
_cell_angle_alpha 90.000000
_cell_angle_beta 90.000000
_cell_angle_gamma 90.000000
_cell_volume 2922.155014
_symmetry_space_group_name_H-M "I -4 2 D"
_symmetry_group_IT_number 122
_symmetry_cell_setting 'tetragonal'
loop_
_space_group_symop_operation_xyz
x,y,z
y,-x,-z
-x,-y,z
-y,x,-z
x,1/2-y,1/4-z
-x,1/2+y,1/4-z
-y,1/2-x,1/4+z
y,1/2+x,1/4+z
1/2+x,1/2+y,1/2+z
1/2+y,1/2-x,1/2-z
1/2-x,1/2-y,1/2+z
1/2-y,1/2+x,1/2-z
1/2+x,-y,3/4-z
1/2-x,y,3/4-z
1/2-y,-x,3/4+z
1/2+y,x,3/4+z
loop_
_atom_site_type_symbol
_atom_site_label
_atom_site_fract_x
_atom_site_fract_y
_atom_site_fract_z
Si Si1 0.123694 0.459756 0.265208
Si Si2 0.043037 0.622407 0.705060
Si Si3 0.660221 0.250000 0.625000
Si Si4 0.423409 0.694652 0.289726
Si Si5 0.750000 0.277756 0.375000
O O1 0.086474 0.547110 0.300603
O O2 0.170527 0.399539 0.356043
O O3 0.188364 0.476534 0.159653
O O4 0.101053 0.547371 0.745198
O O5 0.075292 0.710145 0.750842
O O6 0.042091 0.635169 0.562247
O O7 0.712070 0.238126 0.499928
O O8 0.328774 0.674983 0.322475
#
# Coordination Sequence:
#
# PCOD9561119 Si02
#       5
#    16  16   8  16   8
#     4  10  24  42  61  91 128 169 214 262 327 395
#     4  10  23  41  63  92 127 168 214 267 327 387
#     4  10  22  41  70  95 128 174 214 274 324 383
#     4  10  23  40  63  93 127 165 211 272 322 378
#     4  10  22  41  64  99 128 160 220 266 316 383
#
# _framework density 21.901644000000001
#
# number of rings (size 3 to 8) (size 9 to 14) (size 15 to 20)
#    0.000    2.000    0.000    1.500    0.000   24.000 
#    0.000    0.000    0.000    0.000    0.000    0.000 
#    0.000    0.000    0.000    0.000    0.000    0.000 
#
# Total GULP energy -178213.450903 kJ/mol
# GULP energy per Si atom -5569.170341 kJ/mol
# Density = 2.185179 g / cm^3
# Si number density = 21.901644 Si / 1000 Ang^3
#
#
#
# Elastic Constant Matrix: (Units=GPa)
#
#
# Indices 1 2 3 4 5 6 
#
# 1 91.5974 41.0994 26.3878 0.0000 0.0000 0.0000
# 2 41.0994 91.5974 26.3878 0.0000 0.0000 0.0000
# 3 26.3878 26.3878 110.6047 0.0000 0.0000 0.0000
# 4 0.0000 0.0000 0.0000 22.7738 0.0000 0.0000
# 5 0.0000 0.0000 0.0000 0.0000 22.7738 0.0000
# 6 0.0000 0.0000 0.0000 0.0000 0.0000 28.1953
#
#
#
# Elastic Compliance Matrix: (Units=1/GPa)
#
#
# Indices 1 2 3 4 5 6 
#
# 1 0.014064 -0.005738 -0.001986 0.000000 0.000000 0.000000
# 2 -0.005738 0.014064 -0.001986 0.000000 0.000000 0.000000
# 3 -0.001986 -0.001986 0.009989 0.000000 0.000000 0.000000
# 4 0.000000 0.000000 0.000000 0.043910 0.000000 0.000000
# 5 0.000000 0.000000 0.000000 0.000000 0.043910 0.000000
# 6 0.000000 0.000000 0.000000 0.000000 0.000000 0.035467
#
#
# Mechanical properties :
#
#
# Convention : Reuss Voigt Hill
#
# Bulk Modulus (GPa) = 53.48898 53.50550 53.49724
# Shear Modulus (GPa) = 26.72955 28.07690 27.40323
#
# Velocity S-wave (km/s) = 3.49726 3.58432 3.54106
# Velocity P-wave (km/s) = 6.38617 6.45080 6.41856
#
# Compressibility (1/GPa) = 0.01869544
#
# Stress axis : x y z
#
# Youngs Moduli (GPa) = 71.10161 71.10161 100.10980
#
# Poissons Ratio (x) = 0.40801 0.19886
# Poissons Ratio (y) = 0.40801 0.19886
# Poissons Ratio (z) = 0.14124 0.14124
#
# Static dielectric constant tensor:
#      x y z
#    x 1.838110 0.000000 0.000000 
#    y 0.000000 1.838110 0.000000 
#    z 0.000000 0.000000 1.833510 
# 
# From -- ./inp_files/4095.got.cif
#   From: 2010.05.17/outbox.cif.g08.bks.cpg/sg122_3_cif.got.tgz:4095.got - 2010.05.20 11:37:33.
