data_PCOD9561156
_publ_section_title
;
Structure prediction by ZEFSAII (Michael W. Deem and Ramdas Pophale) SiO2 
 PCOD9561156
Probable space group: I -4 2 D
;
_chemical_formula_sum "Si O2"
_cell_formula_units_Z 80
_cell_length_a 12.221122
_cell_length_b 12.221122
_cell_length_c 27.414835
_cell_angle_alpha 90.000000
_cell_angle_beta 90.000000
_cell_angle_gamma 90.000000
_cell_volume 4094.565242
_symmetry_space_group_name_H-M "I -4 2 D"
_symmetry_group_IT_number 122
_symmetry_cell_setting 'tetragonal'
loop_
_space_group_symop_operation_xyz
x,y,z
y,-x,-z
-x,-y,z
-y,x,-z
x,1/2-y,1/4-z
-x,1/2+y,1/4-z
-y,1/2-x,1/4+z
y,1/2+x,1/4+z
1/2+x,1/2+y,1/2+z
1/2+y,1/2-x,1/2-z
1/2-x,1/2-y,1/2+z
1/2-y,1/2+x,1/2-z
1/2+x,-y,3/4-z
1/2-x,y,3/4-z
1/2-y,-x,3/4+z
1/2+y,x,3/4+z
loop_
_atom_site_type_symbol
_atom_site_label
_atom_site_fract_x
_atom_site_fract_y
_atom_site_fract_z
Si Si1 0.500000 0.000000 0.169589
Si Si2 0.121539 0.189877 0.363422
Si Si3 0.250000 0.727133 0.375000
Si Si4 0.608755 0.311939 0.235565
Si Si5 0.881972 0.799673 0.535582
Si Si6 0.961284 0.376404 0.404822
O O1 0.420499 0.925361 0.137530
O O2 0.575869 0.920621 0.200965
O O3 0.250000 0.200673 0.375000
O O4 0.114019 0.168472 0.304855
O O5 0.053529 0.289800 0.387198
O O6 0.242850 0.807087 0.420860
O O7 0.143408 0.652853 0.372253
O O8 0.487777 0.275247 0.219002
O O9 0.681631 0.201170 0.241049
O O10 0.583702 0.358607 0.289636
O O11 0.000000 0.500000 0.399673
#
# Coordination Sequence:
#
# PCOD9561156 Si02
#       6
#     8  16   8  16  16  16
#     4  12  20  37  64 100 148 168 210 282 359 418
#     4  12  24  41  66 105 136 179 223 283 355 425
#     4  10  22  44  64  84 130 176 216 268 340 394
#     4  11  22  37  67 100 132 175 222 276 352 423
#     4  11  20  38  61 100 137 169 211 279 348 414
#     4  11  27  46  66  93 130 184 229 283 331 408
#
# _framework density 19.538094999999998
#
# number of rings (size 3 to 8) (size 9 to 14) (size 15 to 20)
#    0.000    0.800    6.000    3.600    2.800    0.000 
#    0.000    0.000    0.000    0.000    0.000    0.000 
#    0.000    0.000    0.000    0.000    0.000    0.000 
#
# Total GULP energy -223409.495953 kJ/mol
# GULP energy per Si atom -5585.237399 kJ/mol
# Density = 1.949363 g / cm^3
# Si number density = 19.538095 Si / 1000 Ang^3
#
#
#
# Elastic Constant Matrix: (Units=GPa)
#
#
# Indices 1 2 3 4 5 6 
#
# 1 93.3627 48.2808 30.8711 0.0000 0.0000 0.0000
# 2 48.2808 93.3627 30.8711 0.0000 0.0000 0.0000
# 3 30.8711 30.8711 95.7867 0.0000 0.0000 0.0000
# 4 0.0000 0.0000 0.0000 25.5008 0.0000 0.0000
# 5 0.0000 0.0000 0.0000 0.0000 25.5008 0.0000
# 6 0.0000 0.0000 0.0000 0.0000 0.0000 19.8769
#
#
#
# Elastic Compliance Matrix: (Units=1/GPa)
#
#
# Indices 1 2 3 4 5 6 
#
# 1 0.015198 -0.006984 -0.002647 0.000000 0.000000 0.000000
# 2 -0.006984 0.015198 -0.002647 0.000000 0.000000 0.000000
# 3 -0.002647 -0.002647 0.012146 0.000000 0.000000 0.000000
# 4 0.000000 0.000000 0.000000 0.039214 0.000000 0.000000
# 5 0.000000 0.000000 0.000000 0.000000 0.039214 0.000000
# 6 0.000000 0.000000 0.000000 0.000000 0.000000 0.050310
#
#
# Mechanical properties :
#
#
# Convention : Reuss Voigt Hill
#
# Bulk Modulus (GPa) = 55.60187 55.83982 55.72084
# Shear Modulus (GPa) = 24.77302 25.67498 25.22400
#
# Velocity S-wave (km/s) = 3.56467 3.62898 3.59697
# Velocity P-wave (km/s) = 6.74259 6.79716 6.76993
#
# Compressibility (1/GPa) = 0.01798501
#
# Stress axis : x y z
#
# Youngs Moduli (GPa) = 65.79858 65.79858 82.33002
#
# Poissons Ratio (x) = 0.45954 0.21795
# Poissons Ratio (y) = 0.45954 0.21795
# Poissons Ratio (z) = 0.17419 0.17419
#
# Static dielectric constant tensor:
#      x y z
#    x 1.679080 0.000000 0.000000 
#    y 0.000000 1.679080 0.000000 
#    z 0.000000 0.000000 1.751510 
# 
# From -- ./inp_files/9418.got.cif
#   From: 2010.05.17/outbox.cif.g08.bks.cpg/sg122_5_cif.got.tgz:9418.got - 2010.05.20 11:37:33.
