data_PCOD9561185
_publ_section_title
;
Structure prediction by ZEFSAII (Michael W. Deem and Ramdas Pophale) SiO2 
 PCOD9561185
Probable space group: I -4 2 D
;
_chemical_formula_sum "Si O2"
_cell_formula_units_Z 48
_cell_length_a 13.524641
_cell_length_b 13.524641
_cell_length_c 12.121356
_cell_angle_alpha 90.000000
_cell_angle_beta 90.000000
_cell_angle_gamma 90.000000
_cell_volume 2217.188914
_symmetry_space_group_name_H-M "I -4 2 D"
_symmetry_group_IT_number 122
_symmetry_cell_setting 'tetragonal'
loop_
_space_group_symop_operation_xyz
x,y,z
y,-x,-z
-x,-y,z
-y,x,-z
x,1/2-y,1/4-z
-x,1/2+y,1/4-z
-y,1/2-x,1/4+z
y,1/2+x,1/4+z
1/2+x,1/2+y,1/2+z
1/2+y,1/2-x,1/2-z
1/2-x,1/2-y,1/2+z
1/2-y,1/2+x,1/2-z
1/2+x,-y,3/4-z
1/2-x,y,3/4-z
1/2-y,-x,3/4+z
1/2+y,x,3/4+z
loop_
_atom_site_type_symbol
_atom_site_label
_atom_site_fract_x
_atom_site_fract_y
_atom_site_fract_z
Si Si1 0.702847 0.658646 0.257114
Si Si2 0.887513 0.253630 0.472090
Si Si3 0.886203 0.993353 0.358427
O O1 0.750000 0.630381 0.375000
O O2 0.760501 0.603653 0.158309
O O3 0.716102 0.777270 0.246751
O O4 0.590308 0.639644 0.215076
O O5 0.966139 0.180347 0.533547
O O6 0.902633 0.358645 0.529059
O O7 0.000000 0.000000 0.383353
#
# Coordination Sequence:
#
# PCOD9561185 Si02
#       3
#    16  16  16
#     4  11  24  44  72 107 155 194 243 329 381 452
#     4  10  22  46  72 107 146 190 253 307 384 454
#     4  11  25  43  74 108 142 201 260 307 381 475
#
# _framework density 21.649034
#
# number of rings (size 3 to 8) (size 9 to 14) (size 15 to 20)
#    0.000    1.333    3.333    4.000    9.333    0.000 
#   12.000    0.000    0.000    0.000    0.000    0.000 
#    0.000    0.000    0.000    0.000    0.000    0.000 
#
# Total GULP energy -133726.310013 kJ/mol
# GULP energy per Si atom -5571.929584 kJ/mol
# Density = 2.159976 g / cm^3
# Si number density = 21.649034 Si / 1000 Ang^3
#
#
#
# Elastic Constant Matrix: (Units=GPa)
#
#
# Indices 1 2 3 4 5 6 
#
# 1 92.6924 36.9125 58.0845 0.0000 0.0000 0.0000
# 2 36.9125 92.6924 58.0845 0.0000 0.0000 0.0000
# 3 58.0845 58.0845 250.7691 0.0000 0.0000 0.0000
# 4 0.0000 0.0000 0.0000 38.1549 0.0000 0.0000
# 5 0.0000 0.0000 0.0000 0.0000 38.1549 0.0000
# 6 0.0000 0.0000 0.0000 0.0000 0.0000 35.8256
#
#
#
# Elastic Compliance Matrix: (Units=1/GPa)
#
#
# Indices 1 2 3 4 5 6 
#
# 1 0.013832 -0.004095 -0.002255 0.000000 0.000000 0.000000
# 2 -0.004095 0.013832 -0.002255 0.000000 0.000000 0.000000
# 3 -0.002255 -0.002255 0.005033 0.000000 0.000000 0.000000
# 4 0.000000 0.000000 0.000000 0.026209 0.000000 0.000000
# 5 0.000000 0.000000 0.000000 0.000000 0.026209 0.000000
# 6 0.000000 0.000000 0.000000 0.000000 0.000000 0.027913
#
#
# Mechanical properties :
#
#
# Convention : Reuss Voigt Hill
#
# Bulk Modulus (GPa) = 64.57614 82.47966 73.52790
# Shear Modulus (GPa) = 36.92701 41.29857 39.11279
#
# Velocity S-wave (km/s) = 4.13451 4.37239 4.25511
# Velocity P-wave (km/s) = 7.25848 7.97945 7.62749
#
# Compressibility (1/GPa) = 0.01548560
#
# Stress axis : x y z
#
# Youngs Moduli (GPa) = 72.29358 72.29358 198.70612
#
# Poissons Ratio (x) = 0.29605 0.44817
# Poissons Ratio (y) = 0.29605 0.44817
# Poissons Ratio (z) = 0.16305 0.16305
#
# Static dielectric constant tensor:
#      x y z
#    x 1.848670 0.000000 0.000000 
#    y 0.000000 1.848670 0.000000 
#    z 0.000000 0.000000 1.849180 
# 
# From -- ./inp_files/3740.got.cif
#   From: 2010.05.17/outbox.cif.g08.bks.cpg/sg122_2_cif.got.tgz:3740.got - 2010.05.20 11:37:33.
