data_PCOD9561585
_publ_section_title
;
Structure prediction by ZEFSAII (Michael W. Deem and Ramdas Pophale) SiO2 
 PCOD9561585
Probable space group: I -4 2 D
;
_chemical_formula_sum "Si O2"
_cell_formula_units_Z 56
_cell_length_a 15.000000
_cell_length_b 15.000000
_cell_length_c 27.000000
_cell_angle_alpha 90.000000
_cell_angle_beta 90.000000
_cell_angle_gamma 90.000000
_cell_volume 6075.000000
_symmetry_space_group_name_H-M "I -4 2 D"
_symmetry_group_IT_number 122
_symmetry_cell_setting 'tetragonal'
loop_
_space_group_symop_operation_xyz
x,y,z
y,-x,-z
-x,-y,z
-y,x,-z
x,1/2-y,1/4-z
-x,1/2+y,1/4-z
-y,1/2-x,1/4+z
y,1/2+x,1/4+z
1/2+x,1/2+y,1/2+z
1/2+y,1/2-x,1/2-z
1/2-x,1/2-y,1/2+z
1/2-y,1/2+x,1/2-z
1/2+x,-y,3/4-z
1/2-x,y,3/4-z
1/2-y,-x,3/4+z
1/2+y,x,3/4+z
loop_
_atom_site_type_symbol
_atom_site_label
_atom_site_fract_x
_atom_site_fract_y
_atom_site_fract_z
Si Si1 0.644609 0.376194 0.230986
Si Si2 0.906118 0.018455 0.201475
Si Si3 0.704661 0.762947 0.226037
Si Si4 0.432931 0.666097 0.787626
Si Si5 0.217699 0.929089 0.561760
Si Si6 0.352395 0.064337 0.374564
Si Si7 0.399059 0.626876 0.903553
O O1 0.576610 0.379130 0.276612
O O2 0.697958 0.286338 0.242061
O O3 0.700579 0.467872 0.225163
O O4 0.583854 0.377126 0.181402
O O5 0.924735 0.082315 0.249297
O O6 0.820908 0.057249 0.172850
O O7 0.000000 0.000000 0.174753
O O8 0.720667 0.657376 0.221389
O O9 0.615461 0.778166 0.258278
O O10 0.678294 0.811844 0.174500
O O11 0.425005 0.644867 0.846093
O O12 0.157182 0.868354 0.596782
O O13 0.167286 0.022870 0.562793
O O14 0.250000 0.039181 0.375000
O O15 0.395684 0.980520 0.346604
#
# Coordination Sequence:
#
# PCOD9561585 Si02
#       7
#    16  16  16  16  16  16  16
#     4  11  20  38  57  80 111 153 197 232 278 347
#     4   9  19  37  57  77 108 149 198 236 277 338
#     4  11  24  38  55  87 119 152 197 245 287 340
#     4  10  21  37  60  80 108 155 200 231 283 347
#     4  11  23  35  53  87 115 152 192 233 289 340
#     4  12  23  36  53  80 123 162 188 226 278 357
#     4  12  23  36  54  86 126 156 191 228 286 353
#
# _framework density 9.2181069999999998
#
# number of rings (size 3 to 8) (size 9 to 14) (size 15 to 20)
#    0.000    1.143    5.714    1.714    4.000    0.000 
#    0.000    0.000    0.000    2.143    3.714    0.000 
#    0.000    0.000    0.000    0.000    0.000    0.000 
#
# Total GULP energy -311787.021644 kJ/mol
# GULP energy per Si atom -5567.625387 kJ/mol
# Density = 0.919713 g / cm^3
# Si number density = 9.218107 Si / 1000 Ang^3
#
#
#
# Elastic Constant Matrix: (Units=GPa)
#
#
# Indices 1 2 3 4 5 6 
#
# 1 109.8600 32.9047 21.9260 0.0000 0.0000 0.0000
# 2 32.9047 109.8600 21.9260 0.0000 0.0000 0.0000
# 3 21.9260 21.9260 33.9418 0.0000 0.0000 0.0000
# 4 0.0000 0.0000 0.0000 9.8335 0.0000 0.0000
# 5 0.0000 0.0000 0.0000 0.0000 9.8335 0.0000
# 6 0.0000 0.0000 0.0000 0.0000 0.0000 18.8828
#
#
#
# Elastic Compliance Matrix: (Units=1/GPa)
#
#
# Indices 1 2 3 4 5 6 
#
# 1 0.010867 -0.002128 -0.005645 0.000000 0.000000 0.000000
# 2 -0.002128 0.010867 -0.005645 0.000000 0.000000 0.000000
# 3 -0.005645 -0.005645 0.036755 0.000000 0.000000 0.000000
# 4 0.000000 0.000000 0.000000 0.101693 0.000000 0.000000
# 5 0.000000 0.000000 0.000000 0.000000 0.101693 0.000000
# 6 0.000000 0.000000 0.000000 0.000000 0.000000 0.052958
#
#
# Mechanical properties :
#
#
# Convention : Reuss Voigt Hill
#
# Bulk Modulus (GPa) = 31.59308 45.24168 38.41738
# Shear Modulus (GPa) = 14.19572 19.50365 16.84969
#
# Velocity S-wave (km/s) = 2.77788 3.25606 3.02643
# Velocity P-wave (km/s) = 5.24046 6.22325 5.75288
#
# Compressibility (1/GPa) = 0.03165250
#
# Stress axis : x y z
#
# Youngs Moduli (GPa) = 92.02594 92.02594 27.20692
#
# Poissons Ratio (x) = 0.19584 0.15358
# Poissons Ratio (y) = 0.19584 0.15358
# Poissons Ratio (z) = 0.51948 0.51948
#
# Static dielectric constant tensor:
#      x y z
#    x 1.694870 0.000000 0.000000 
#    y 0.000000 1.694870 0.000000 
#    z 0.000000 0.000000 1.628060 
# 
# From -- ./inp_files/8133.got.cif
#   From: 2010.05.17/outbox.ucp.g08.bks.cvg/sg122_5_cif.got.tgz:8133.got - 2010.06.11 11:35:26.
