data_PCOD9561205
_publ_section_title
;
Structure prediction by ZEFSAII (Michael W. Deem and Ramdas Pophale) SiO2 
 PCOD9561205
Probable space group: I -4 2 D
;
_chemical_formula_sum "Si O2"
_cell_formula_units_Z 96
_cell_length_a 19.510076
_cell_length_b 19.510076
_cell_length_c 10.625380
_cell_angle_alpha 90.000000
_cell_angle_beta 90.000000
_cell_angle_gamma 90.000000
_cell_volume 4044.477216
_symmetry_space_group_name_H-M "I -4 2 D"
_symmetry_group_IT_number 122
_symmetry_cell_setting 'tetragonal'
loop_
_space_group_symop_operation_xyz
x,y,z
y,-x,-z
-x,-y,z
-y,x,-z
x,1/2-y,1/4-z
-x,1/2+y,1/4-z
-y,1/2-x,1/4+z
y,1/2+x,1/4+z
1/2+x,1/2+y,1/2+z
1/2+y,1/2-x,1/2-z
1/2-x,1/2-y,1/2+z
1/2-y,1/2+x,1/2-z
1/2+x,-y,3/4-z
1/2-x,y,3/4-z
1/2-y,-x,3/4+z
1/2+y,x,3/4+z
loop_
_atom_site_type_symbol
_atom_site_label
_atom_site_fract_x
_atom_site_fract_y
_atom_site_fract_z
Si Si1 0.421505 0.788964 0.903722
Si Si2 0.706085 0.712836 0.500977
Si Si3 0.154792 0.474614 0.513866
Si Si4 0.629054 0.659893 0.842084
Si Si5 0.083686 0.568139 0.797884
Si Si6 0.613165 0.985226 0.745666
O O1 0.360323 0.811065 0.808362
O O2 0.446572 0.715153 0.854707
O O3 0.483839 0.839837 0.876841
O O4 0.387670 0.810046 0.036551
O O5 0.739153 0.750000 0.625000
O O6 0.750000 0.705430 0.375000
O O7 0.646183 0.763827 0.455135
O O8 0.141706 0.554842 0.537035
O O9 0.088546 0.432524 0.560007
O O10 0.161924 0.470070 0.365276
O O11 0.613664 0.644581 0.988296
O O12 0.089942 0.487050 0.775182
O O13 0.555181 0.927375 0.736014
#
# Coordination Sequence:
#
# PCOD9561205 Si02
#       6
#    16  16  16  16  16  16
#     4  11  24  41  66  93 131 173 221 281 336 409
#     4  10  23  41  64  92 129 181 221 275 343 412
#     4  11  23  41  66  96 127 173 226 273 343 417
#     4  10  23  42  66  95 134 175 224 279 350 413
#     4   9  21  39  66  97 131 170 215 278 340 407
#     4  11  24  38  63  93 128 171 218 284 344 399
#
# _framework density 23.736072
#
# number of rings (size 3 to 8) (size 9 to 14) (size 15 to 20)
#    0.000    1.667    1.667    1.500    9.333    2.667 
#    0.000    0.000    0.000    0.000    0.000    0.000 
#    0.000    0.000    0.000    0.000    0.000    0.000 
#
# Total GULP energy -267703.702829 kJ/mol
# GULP energy per Si atom -5577.160476 kJ/mol
# Density = 2.368205 g / cm^3
# Si number density = 23.736072 Si / 1000 Ang^3
#
#
#
# Elastic Constant Matrix: (Units=GPa)
#
#
# Indices 1 2 3 4 5 6 
#
# 1 69.5701 22.4387 18.5046 0.0000 0.0000 0.0000
# 2 22.4387 69.5701 18.5046 0.0000 0.0000 0.0000
# 3 18.5046 18.5046 45.3372 0.0000 0.0000 0.0000
# 4 0.0000 0.0000 0.0000 26.2409 0.0000 0.0000
# 5 0.0000 0.0000 0.0000 0.0000 26.2409 0.0000
# 6 0.0000 0.0000 0.0000 0.0000 0.0000 28.8306
#
#
#
# Elastic Compliance Matrix: (Units=1/GPa)
#
#
# Indices 1 2 3 4 5 6 
#
# 1 0.017110 -0.004107 -0.005307 0.000000 0.000000 0.000000
# 2 -0.004107 0.017110 -0.005307 0.000000 0.000000 0.000000
# 3 -0.005307 -0.005307 0.026389 0.000000 0.000000 0.000000
# 4 0.000000 0.000000 0.000000 0.038108 0.000000 0.000000
# 5 0.000000 0.000000 0.000000 0.000000 0.038108 0.000000
# 6 0.000000 0.000000 0.000000 0.000000 0.000000 0.034685
#
#
# Mechanical properties :
#
#
# Convention : Reuss Voigt Hill
#
# Bulk Modulus (GPa) = 32.08568 33.70816 32.89692
# Shear Modulus (GPa) = 23.65805 24.59778 24.12791
#
# Velocity S-wave (km/s) = 3.16050 3.22266 3.19173
# Velocity P-wave (km/s) = 5.18318 5.29900 5.24141
#
# Compressibility (1/GPa) = 0.03116655
#
# Stress axis : x y z
#
# Youngs Moduli (GPa) = 58.44433 58.44433 37.89402
#
# Poissons Ratio (x) = 0.24003 0.20112
# Poissons Ratio (y) = 0.24003 0.20112
# Poissons Ratio (z) = 0.31019 0.31019
#
# Static dielectric constant tensor:
#      x y z
#    x 1.932680 0.000000 0.000000 
#    y 0.000000 1.932680 0.000000 
#    z 0.000000 0.000000 1.927100 
# 
# From -- ./inp_files/4476.got.cif
#   From: 2010.05.17/outbox.cif.g08.bks.cpg/sg122_3_cif.got.tgz:4476.got - 2010.05.20 11:37:33.
