data_PCOD9561052
_publ_section_title
;
Structure prediction by ZEFSAII (Michael W. Deem and Ramdas Pophale) SiO2 
 PCOD9561052
Probable space group: I -4 2 D
;
_chemical_formula_sum "Si O2"
_cell_formula_units_Z 52
_cell_length_a 15.633212
_cell_length_b 15.633212
_cell_length_c 9.563666
_cell_angle_alpha 90.000000
_cell_angle_beta 90.000000
_cell_angle_gamma 90.000000
_cell_volume 2337.334315
_symmetry_space_group_name_H-M "I -4 2 D"
_symmetry_group_IT_number 122
_symmetry_cell_setting 'tetragonal'
loop_
_space_group_symop_operation_xyz
x,y,z
y,-x,-z
-x,-y,z
-y,x,-z
x,1/2-y,1/4-z
-x,1/2+y,1/4-z
-y,1/2-x,1/4+z
y,1/2+x,1/4+z
1/2+x,1/2+y,1/2+z
1/2+y,1/2-x,1/2-z
1/2-x,1/2-y,1/2+z
1/2-y,1/2+x,1/2-z
1/2+x,-y,3/4-z
1/2-x,y,3/4-z
1/2-y,-x,3/4+z
1/2+y,x,3/4+z
loop_
_atom_site_type_symbol
_atom_site_label
_atom_site_fract_x
_atom_site_fract_y
_atom_site_fract_z
Si Si1 0.421940 0.375354 0.160093
Si Si2 0.737794 0.149770 0.152741
Si Si3 0.500000 0.000000 0.750000
Si Si4 0.432891 0.099454 0.492736
O O1 0.385271 0.328943 0.298081
O O2 0.400234 0.475515 0.164278
O O3 0.525125 0.374095 0.172948
O O4 0.380386 0.325409 0.030233
O O5 0.740892 0.250000 0.125000
O O6 0.691713 0.107617 0.020756
O O7 0.453004 0.065816 0.647153
#
# Coordination Sequence:
#
# PCOD9561052 Si02
#       4
#    16  16   4  16
#     4   9  22  43  63 103 134 174 240 278 355 425
#     4  11  23  39  70 105 138 175 235 298 349 423
#     4   8  20  44  62 104 128 184 252 258 372 420
#     4  10  21  44  70  89 138 188 226 298 338 429
#
# _framework density 22.247565000000002
#
# number of rings (size 3 to 8) (size 9 to 14) (size 15 to 20)
#    0.000    2.462    0.000    1.846    8.615    4.923 
#   22.154    0.000    0.000    0.000    0.000    0.000 
#    0.000    0.000    0.000    0.000    0.000    0.000 
#
# Total GULP energy -145214.160726 kJ/mol
# GULP energy per Si atom -5585.160028 kJ/mol
# Density = 2.219693 g / cm^3
# Si number density = 22.247565 Si / 1000 Ang^3
#
#
#
# Elastic Constant Matrix: (Units=GPa)
#
#
# Indices 1 2 3 4 5 6 
#
# 1 89.0807 53.9182 32.3713 0.0000 0.0000 0.0000
# 2 53.9182 89.0807 32.3713 0.0000 0.0000 0.0000
# 3 32.3713 32.3713 109.8734 0.0000 0.0000 0.0000
# 4 0.0000 0.0000 0.0000 28.3228 0.0000 0.0000
# 5 0.0000 0.0000 0.0000 0.0000 28.3228 0.0000
# 6 0.0000 0.0000 0.0000 0.0000 0.0000 35.2548
#
#
#
# Elastic Compliance Matrix: (Units=1/GPa)
#
#
# Indices 1 2 3 4 5 6 
#
# 1 0.018254 -0.010185 -0.002377 0.000000 0.000000 0.000000
# 2 -0.010185 0.018254 -0.002377 0.000000 0.000000 0.000000
# 3 -0.002377 -0.002377 0.010502 0.000000 0.000000 0.000000
# 4 0.000000 0.000000 0.000000 0.035307 0.000000 0.000000
# 5 0.000000 0.000000 0.000000 0.000000 0.035307 0.000000
# 6 0.000000 0.000000 0.000000 0.000000 0.000000 0.028365
#
#
# Mechanical properties :
#
#
# Convention : Reuss Voigt Hill
#
# Bulk Modulus (GPa) = 58.37241 58.37295 58.37268
# Shear Modulus (GPa) = 27.53597 29.67168 28.60382
#
# Velocity S-wave (km/s) = 3.52192 3.65595 3.58956
# Velocity P-wave (km/s) = 6.54471 6.64200 6.59353
#
# Compressibility (1/GPa) = 0.01713138
#
# Stress axis : x y z
#
# Youngs Moduli (GPa) = 54.78130 54.78130 95.21728
#
# Poissons Ratio (x) = 0.55794 0.22637
# Poissons Ratio (y) = 0.55794 0.22637
# Poissons Ratio (z) = 0.13024 0.13024
#
# Static dielectric constant tensor:
#      x y z
#    x 1.786920 0.000000 0.000000 
#    y 0.000000 1.786920 0.000000 
#    z 0.000000 0.000000 1.923690 
# 
# From -- ./inp_files/2179.got.cif
#   From: 2010.05.17/outbox.cif.g08.bks.cpg/sg122_2_cif.got.tgz:2179.got - 2010.05.20 11:37:33.
