data_PCOD9561954
_publ_section_title
;
Structure prediction by ZEFSAII (Michael W. Deem and Ramdas Pophale) SiO2 
 PCOD9561954
Probable space group: P 4/M M M
;
_chemical_formula_sum "Si O2"
_cell_formula_units_Z 88
_cell_length_a 18.350324
_cell_length_b 18.350324
_cell_length_c 13.581708
_cell_angle_alpha 90.000000
_cell_angle_beta 90.000000
_cell_angle_gamma 90.000000
_cell_volume 4573.428171
_symmetry_space_group_name_H-M "P 4/M M M"
_symmetry_group_IT_number 123
_symmetry_cell_setting 'tetragonal'
loop_
_space_group_symop_operation_xyz
x,y,z
-y,x,z
-x,-y,z
y,-x,z
x,-y,-z
-x,y,-z
y,x,-z
-y,-x,-z
-x,-y,-z
y,-x,-z
x,y,-z
-y,x,-z
-x,y,z
x,-y,z
-y,-x,z
y,x,z
loop_
_atom_site_type_symbol
_atom_site_label
_atom_site_fract_x
_atom_site_fract_y
_atom_site_fract_z
Si Si1 0.267650 0.152503 0.883309
Si Si2 0.083891 0.417439 0.880191
Si Si3 0.582742 0.695198 0.380325
Si Si4 0.915635 0.797163 0.704963
Si Si5 0.500000 0.086188 0.384936
Si Si6 0.154656 0.348992 0.618779
O O1 0.231380 0.231380 0.861676
O O2 0.351588 0.138031 0.854509
O O3 0.219700 0.095865 0.820914
O O4 0.261773 0.140448 0.000000
O O5 0.102096 0.500000 0.848497
O O6 0.000000 0.401322 0.849086
O O7 0.082714 0.419113 0.000000
O O8 0.579817 0.695199 0.500000
O O9 0.500000 0.705982 0.345446
O O10 0.619914 0.619914 0.348945
O O11 0.635389 0.761849 0.353508
O O12 0.867425 0.867425 0.678830
O O13 0.879562 0.725546 0.656509
O O14 0.000000 0.803765 0.679475
O O15 0.500000 0.110868 0.500000
O O16 0.422308 0.113341 0.346458
O O17 0.500000 0.000000 0.381409
O O18 0.150211 0.346068 0.500000
#
# Coordination Sequence:
#
# PCOD9561954 Si02
#       6
#    16  16  16  16   8  16
#     4   9  18  34  55  77 104 137 172 215 266 320
#     4   8  13  23  42  68  98 130 160 195 245 303
#     4   9  16  27  45  70 102 140 177 212 254 302
#     4  11  24  39  56  79 104 136 180 224 271 326
#     4   9  16  28  50  76 102 130 160 206 262 309
#     4  10  19  35  55  77 105 137 175 217 263 314
#
# _framework density 19.241584
#
# number of rings (size 3 to 8) (size 9 to 14) (size 15 to 20)
#    0.000    2.636    0.909    2.182    0.000    3.636 
#    1.636    0.909    0.000    0.000    0.000    3.818 
#    0.000    0.364    0.000    5.091    0.000    0.000 
#
# Total GULP energy -490853.168478 kJ/mol
# GULP energy per Si atom -5577.876915 kJ/mol
# Density = 1.919779 g / cm^3
# Si number density = 19.241584 Si / 1000 Ang^3
#
#
#
# Elastic Constant Matrix: (Units=GPa)
#
#
# Indices 1 2 3 4 5 6 
#
# 1 131.8424 118.2762 21.3080 0.0000 0.0000 0.0000
# 2 118.2762 131.8424 21.3080 0.0000 0.0000 0.0000
# 3 21.3080 21.3080 41.9559 0.0000 0.0000 0.0000
# 4 0.0000 0.0000 0.0000 19.3887 0.0000 0.0000
# 5 0.0000 0.0000 0.0000 0.0000 19.3887 0.0000
# 6 0.0000 0.0000 0.0000 0.0000 0.0000 36.4846
#
#
#
# Elastic Compliance Matrix: (Units=1/GPa)
#
#
# Indices 1 2 3 4 5 6 
#
# 1 0.039045 -0.034668 -0.002223 0.000000 0.000000 0.000000
# 2 -0.034668 0.039045 -0.002223 0.000000 0.000000 0.000000
# 3 -0.002223 -0.002223 0.026092 0.000000 0.000000 0.000000
# 4 0.000000 0.000000 0.000000 0.051577 0.000000 0.000000
# 5 0.000000 0.000000 0.000000 0.000000 0.051577 0.000000
# 6 0.000000 0.000000 0.000000 0.000000 0.000000 0.027409
#
#
# Mechanical properties :
#
#
# Convention : Reuss Voigt Hill
#
# Bulk Modulus (GPa) = 38.52874 69.71391 54.12132
# Shear Modulus (GPa) = 15.54617 24.70228 20.12422
#
# Velocity S-wave (km/s) = 2.84552 3.58690 3.23750
# Velocity P-wave (km/s) = 5.55546 7.31191 6.49335
#
# Compressibility (1/GPa) = 0.02595465
#
# Stress axis : x y z
#
# Youngs Moduli (GPa) = 25.61163 25.61163 38.32534
#
# Poissons Ratio (x) = 0.88790 0.08519
# Poissons Ratio (y) = 0.88790 0.08519
# Poissons Ratio (z) = 0.05693 0.05693
#
# Static dielectric constant tensor:
#      x y z
#    x 1.670190 0.000000 0.000000 
#    y 0.000000 1.670190 0.000000 
#    z 0.000000 0.000000 1.746320 
# 
# From -- ./inp_files/4065.got.cif
#   From: 2010.05.17/outbox.cif.g08.bks.cpg/sg123_3_cif.got.tgz:4065.got - 2010.05.20 11:43:04.
