data_PCOD9561083
_publ_section_title
;
Structure prediction by ZEFSAII (Michael W. Deem and Ramdas Pophale) SiO2 
 PCOD9561083
Probable space group: I -4 2 D
;
_chemical_formula_sum "Si O2"
_cell_formula_units_Z 40
_cell_length_a 13.856522
_cell_length_b 13.856522
_cell_length_c 7.714532
_cell_angle_alpha 90.000000
_cell_angle_beta 90.000000
_cell_angle_gamma 90.000000
_cell_volume 1481.214845
_symmetry_space_group_name_H-M "I -4 2 D"
_symmetry_group_IT_number 122
_symmetry_cell_setting 'tetragonal'
loop_
_space_group_symop_operation_xyz
x,y,z
y,-x,-z
-x,-y,z
-y,x,-z
x,1/2-y,1/4-z
-x,1/2+y,1/4-z
-y,1/2-x,1/4+z
y,1/2+x,1/4+z
1/2+x,1/2+y,1/2+z
1/2+y,1/2-x,1/2-z
1/2-x,1/2-y,1/2+z
1/2-y,1/2+x,1/2-z
1/2+x,-y,3/4-z
1/2-x,y,3/4-z
1/2-y,-x,3/4+z
1/2+y,x,3/4+z
loop_
_atom_site_type_symbol
_atom_site_label
_atom_site_fract_x
_atom_site_fract_y
_atom_site_fract_z
Si Si1 0.685619 0.554454 0.153527
Si Si2 0.906262 0.129709 0.736151
Si Si3 0.750000 0.726235 0.375000
O O1 0.619542 0.481247 0.260847
O O2 0.688883 0.656793 0.249571
O O3 0.801017 0.537588 0.119180
O O4 0.644968 0.552428 0.957752
O O5 0.800164 0.177773 0.716807
#
# Coordination Sequence:
#
# PCOD9561083 Si02
#       3
#    16  16   8
#     4  10  23  39  69  89 134 164 226 255 341 388
#     4  10  22  42  63  94 125 179 206 275 323 404
#     4  10  22  38  68  84 134 166 216 258 344 386
#
# _framework density 27.004863
#
# number of rings (size 3 to 8) (size 9 to 14) (size 15 to 20)
#    0.000    2.400    0.000    4.800   16.800    0.800 
#    0.000    0.000    0.000    0.000    0.000    0.000 
#    0.000    0.000    0.000    0.000    0.000    0.000 
#
# Total GULP energy -111688.624638 kJ/mol
# GULP energy per Si atom -5584.431232 kJ/mol
# Density = 2.694340 g / cm^3
# Si number density = 27.004863 Si / 1000 Ang^3
#
#
#
# Elastic Constant Matrix: (Units=GPa)
#
#
# Indices 1 2 3 4 5 6 
#
# 1 117.1344 -15.2650 -8.2285 0.0000 0.0000 0.0000
# 2 -15.2650 117.1344 -8.2285 0.0000 0.0000 0.0000
# 3 -8.2285 -8.2285 55.1238 0.0000 0.0000 0.0000
# 4 0.0000 0.0000 0.0000 18.4486 0.0000 0.0000
# 5 0.0000 0.0000 0.0000 0.0000 18.4486 0.0000
# 6 0.0000 0.0000 0.0000 0.0000 0.0000 15.0623
#
#
#
# Elastic Compliance Matrix: (Units=1/GPa)
#
#
# Indices 1 2 3 4 5 6 
#
# 1 0.008806 0.001253 0.001502 0.000000 0.000000 0.000000
# 2 0.001253 0.008806 0.001502 0.000000 0.000000 0.000000
# 3 0.001502 0.001502 0.018589 0.000000 0.000000 0.000000
# 4 0.000000 0.000000 0.000000 0.054205 0.000000 0.000000
# 5 0.000000 0.000000 0.000000 0.000000 0.054205 0.000000
# 6 0.000000 0.000000 0.000000 0.000000 0.000000 0.066391
#
#
# Mechanical properties :
#
#
# Convention : Reuss Voigt Hill
#
# Bulk Modulus (GPa) = 22.36457 25.10540 23.73498
# Shear Modulus (GPa) = 22.99973 31.79953 27.39963
#
# Velocity S-wave (km/s) = 2.92154 3.43526 3.18876
# Velocity P-wave (km/s) = 4.43623 5.00515 4.72925
#
# Compressibility (1/GPa) = 0.04471359
#
# Stress axis : x y z
#
# Youngs Moduli (GPa) = 113.55912 113.55912 53.79448
#
# Poissons Ratio (x) = -0.14230 -0.08077
# Poissons Ratio (y) = -0.14230 -0.08077
# Poissons Ratio (z) = -0.17051 -0.17051
#
# Static dielectric constant tensor:
#      x y z
#    x 2.193710 0.000000 0.000000 
#    y 0.000000 2.193710 0.000000 
#    z 0.000000 0.000000 2.202130 
# 
# From -- ./inp_files/1789.got.cif
#   From: 2010.05.17/outbox.cif.g08.bks.cpg/sg122_1_cif.got.tgz:1789.got - 2010.05.20 11:37:33.
