data_PCOD9561207
_publ_section_title
;
Structure prediction by ZEFSAII (Michael W. Deem and Ramdas Pophale) SiO2 
 PCOD9561207
Probable space group: I -4 2 D
;
_chemical_formula_sum "Si O2"
_cell_formula_units_Z 52
_cell_length_a 17.530416
_cell_length_b 17.530416
_cell_length_c 7.880171
_cell_angle_alpha 90.000000
_cell_angle_beta 90.000000
_cell_angle_gamma 90.000000
_cell_volume 2421.698574
_symmetry_space_group_name_H-M "I -4 2 D"
_symmetry_group_IT_number 122
_symmetry_cell_setting 'tetragonal'
loop_
_space_group_symop_operation_xyz
x,y,z
y,-x,-z
-x,-y,z
-y,x,-z
x,1/2-y,1/4-z
-x,1/2+y,1/4-z
-y,1/2-x,1/4+z
y,1/2+x,1/4+z
1/2+x,1/2+y,1/2+z
1/2+y,1/2-x,1/2-z
1/2-x,1/2-y,1/2+z
1/2-y,1/2+x,1/2-z
1/2+x,-y,3/4-z
1/2-x,y,3/4-z
1/2-y,-x,3/4+z
1/2+y,x,3/4+z
loop_
_atom_site_type_symbol
_atom_site_label
_atom_site_fract_x
_atom_site_fract_y
_atom_site_fract_z
Si Si1 0.000000 0.000000 0.500000
Si Si2 0.392540 0.416406 0.757656
Si Si3 0.662717 0.758644 0.326734
Si Si4 0.521185 0.818588 0.743701
O O1 0.975339 0.071703 0.611443
O O2 0.357621 0.343422 0.853775
O O3 0.460276 0.387738 0.633103
O O4 0.334018 0.460280 0.638120
O O5 0.750000 0.741013 0.375000
O O6 0.602096 0.704705 0.422368
O O7 0.653161 0.750000 0.125000
O O8 0.494747 0.750000 0.625000
#
# Coordination Sequence:
#
# PCOD9561207 Si02
#       4
#     4  16  16  16
#     4  12  24  38  60  96 132 170 212 264 328 390
#     4  11  23  40  65  92 130 169 211 271 325 384
#     4  11  24  43  65  93 128 170 221 270 324 391
#     4  10  23  42  64  94 125 166 217 266 326 385
#
# _framework density 21.472531
#
# number of rings (size 3 to 8) (size 9 to 14) (size 15 to 20)
#    0.000    1.231    0.000    6.462    0.000    9.846 
#    0.000    0.000    0.000    0.000    0.000    0.000 
#    0.000    0.000    0.000    0.000    0.000    0.000 
#
# Total GULP energy -145526.760841 kJ/mol
# GULP energy per Si atom -5597.183109 kJ/mol
# Density = 2.142366 g / cm^3
# Si number density = 21.472531 Si / 1000 Ang^3
#
#
#
# Elastic Constant Matrix: (Units=GPa)
#
#
# Indices 1 2 3 4 5 6 
#
# 1 60.1997 14.9348 39.9074 0.0000 0.0000 0.0000
# 2 14.9348 60.1997 39.9074 0.0000 0.0000 0.0000
# 3 39.9074 39.9074 155.4481 0.0000 0.0000 0.0000
# 4 0.0000 0.0000 0.0000 39.3984 0.0000 0.0000
# 5 0.0000 0.0000 0.0000 0.0000 39.3984 0.0000
# 6 0.0000 0.0000 0.0000 0.0000 0.0000 5.0780
#
#
#
# Elastic Compliance Matrix: (Units=1/GPa)
#
#
# Indices 1 2 3 4 5 6 
#
# 1 0.020196 -0.001896 -0.004698 0.000000 0.000000 0.000000
# 2 -0.001896 0.020196 -0.004698 0.000000 0.000000 0.000000
# 3 -0.004698 -0.004698 0.008845 0.000000 0.000000 0.000000
# 4 0.000000 0.000000 0.000000 0.025382 0.000000 0.000000
# 5 0.000000 0.000000 0.000000 0.000000 0.025382 0.000000
# 6 0.000000 0.000000 0.000000 0.000000 0.000000 0.196926
#
#
# Mechanical properties :
#
#
# Convention : Reuss Voigt Hill
#
# Bulk Modulus (GPa) = 37.51885 51.70518 44.61202
# Shear Modulus (GPa) = 15.22550 28.84815 22.03682
#
# Velocity S-wave (km/s) = 2.66572 3.66934 3.20704
# Velocity P-wave (km/s) = 5.19477 6.48722 5.87664
#
# Compressibility (1/GPa) = 0.02665327
#
# Stress axis : x y z
#
# Youngs Moduli (GPa) = 49.51419 49.51419 113.05472
#
# Poissons Ratio (x) = 0.09388 0.53115
# Poissons Ratio (y) = 0.09388 0.53115
# Poissons Ratio (z) = 0.23262 0.23262
#
# Static dielectric constant tensor:
#      x y z
#    x 1.764520 0.000000 0.000000 
#    y 0.000000 1.764520 0.000000 
#    z 0.000000 0.000000 1.766140 
# 
# From -- ./inp_files/2164.got.cif
#   From: 2010.05.17/outbox.cif.g08.bks.cpg/sg122_2_cif.got.tgz:2164.got - 2010.05.20 11:37:33.
