data_PCOD9561470
_publ_section_title
;
Structure prediction by ZEFSAII (Michael W. Deem and Ramdas Pophale) SiO2 
 PCOD9561470
Probable space group: I -4 2 D
;
_chemical_formula_sum "Si O2"
_cell_formula_units_Z 72
_cell_length_a 10.888533
_cell_length_b 10.888533
_cell_length_c 26.700154
_cell_angle_alpha 90.000000
_cell_angle_beta 90.000000
_cell_angle_gamma 90.000000
_cell_volume 3165.574287
_symmetry_space_group_name_H-M "I -4 2 D"
_symmetry_group_IT_number 122
_symmetry_cell_setting 'tetragonal'
loop_
_space_group_symop_operation_xyz
x,y,z
y,-x,-z
-x,-y,z
-y,x,-z
x,1/2-y,1/4-z
-x,1/2+y,1/4-z
-y,1/2-x,1/4+z
y,1/2+x,1/4+z
1/2+x,1/2+y,1/2+z
1/2+y,1/2-x,1/2-z
1/2-x,1/2-y,1/2+z
1/2-y,1/2+x,1/2-z
1/2+x,-y,3/4-z
1/2-x,y,3/4-z
1/2-y,-x,3/4+z
1/2+y,x,3/4+z
loop_
_atom_site_type_symbol
_atom_site_label
_atom_site_fract_x
_atom_site_fract_y
_atom_site_fract_z
Si Si1 0.367066 0.348201 0.991291
Si Si2 0.750000 0.526265 0.375000
Si Si3 0.415576 0.882502 0.135304
Si Si4 0.555160 0.697500 0.431338
Si Si5 0.351170 0.215369 0.706660
O O1 0.359961 0.322676 0.931991
O O2 0.333206 0.492000 0.993833
O O3 0.277234 0.275653 0.027496
O O4 0.642668 0.608148 0.399587
O O5 0.706163 0.439247 0.329155
O O6 0.477479 0.750000 0.125000
O O7 0.334855 0.919929 0.087824
O O8 0.500000 0.000000 0.147973
O O9 0.586160 0.689350 0.489986
O O10 0.411865 0.668222 0.427499
#
# Coordination Sequence:
#
# PCOD9561470 Si02
#       5
#    16   8  16  16  16
#     4  11  25  50  73 108 160 205 261 327 399 483
#     4  12  26  48  76 118 154 208 264 332 422 496
#     4  12  26  47  77 110 154 210 269 329 403 491
#     4  12  26  50  77 112 161 201 262 335 411 482
#     4  12  27  47  78 115 157 205 264 330 410 493
#
# _framework density 22.744686999999999
#
# number of rings (size 3 to 8) (size 9 to 14) (size 15 to 20)
#    0.000    0.222    7.778    0.667    6.222    0.000 
#    4.000    2.222    0.000    0.000    0.000    0.000 
#    0.000    0.000    0.000    0.000    0.000    0.000 
#
# Total GULP energy -201380.532688 kJ/mol
# GULP energy per Si atom -5593.903686 kJ/mol
# Density = 2.269292 g / cm^3
# Si number density = 22.744687 Si / 1000 Ang^3
#
#
#
# Elastic Constant Matrix: (Units=GPa)
#
#
# Indices 1 2 3 4 5 6 
#
# 1 102.8977 43.9116 48.0308 0.0000 0.0000 0.0000
# 2 43.9116 102.8977 48.0308 0.0000 0.0000 0.0000
# 3 48.0308 48.0308 128.8927 0.0000 0.0000 0.0000
# 4 0.0000 0.0000 0.0000 42.9744 0.0000 0.0000
# 5 0.0000 0.0000 0.0000 0.0000 42.9744 0.0000
# 6 0.0000 0.0000 0.0000 0.0000 0.0000 34.3437
#
#
#
# Elastic Compliance Matrix: (Units=1/GPa)
#
#
# Indices 1 2 3 4 5 6 
#
# 1 0.012981 -0.003973 -0.003357 0.000000 0.000000 0.000000
# 2 -0.003973 0.012981 -0.003357 0.000000 0.000000 0.000000
# 3 -0.003357 -0.003357 0.010260 0.000000 0.000000 0.000000
# 4 0.000000 0.000000 0.000000 0.023270 0.000000 0.000000
# 5 0.000000 0.000000 0.000000 0.000000 0.023270 0.000000
# 6 0.000000 0.000000 0.000000 0.000000 0.000000 0.029117
#
#
# Mechanical properties :
#
#
# Convention : Reuss Voigt Hill
#
# Bulk Modulus (GPa) = 67.34426 68.29275 67.81851
# Shear Modulus (GPa) = 36.17948 37.03948 36.60948
#
# Velocity S-wave (km/s) = 3.99266 4.03983 4.01631
# Velocity P-wave (km/s) = 7.13640 7.20079 7.16866
#
# Compressibility (1/GPa) = 0.01484907
#
# Stress axis : x y z
#
# Youngs Moduli (GPa) = 77.03824 77.03824 97.46469
#
# Poissons Ratio (x) = 0.30604 0.32716
# Poissons Ratio (y) = 0.30604 0.32716
# Poissons Ratio (z) = 0.25860 0.25860
#
# Static dielectric constant tensor:
#      x y z
#    x 1.900050 0.000000 0.000000 
#    y 0.000000 1.900050 0.000000 
#    z 0.000000 0.000000 1.894770 
# 
# From -- ./inp_files/8618.got.cif
#   From: 2010.05.17/outbox.cif.g08.bks.cpg/sg122_5_cif.got.tgz:8618.got - 2010.05.20 11:37:33.
