data_PCOD9561665
_publ_section_title
;
Structure prediction by ZEFSAII (Michael W. Deem and Ramdas Pophale) SiO2 
 PCOD9561665
Probable space group: P 4/M M M
;
_chemical_formula_sum "Si O2"
_cell_formula_units_Z 112
_cell_length_a 19.081107
_cell_length_b 19.081107
_cell_length_c 19.113503
_cell_angle_alpha 90.000000
_cell_angle_beta 90.000000
_cell_angle_gamma 90.000000
_cell_volume 6959.009396
_symmetry_space_group_name_H-M "P 4/M M M"
_symmetry_group_IT_number 123
_symmetry_cell_setting 'tetragonal'
loop_
_space_group_symop_operation_xyz
x,y,z
-y,x,z
-x,-y,z
y,-x,z
x,-y,-z
-x,y,-z
y,x,-z
-y,-x,-z
-x,-y,-z
y,-x,-z
x,y,-z
-y,x,-z
-x,y,z
x,-y,z
-y,-x,z
y,x,z
loop_
_atom_site_type_symbol
_atom_site_label
_atom_site_fract_x
_atom_site_fract_y
_atom_site_fract_z
Si Si1 0.805615 0.920078 0.621781
Si Si2 0.920710 0.193359 0.210325
Si Si3 0.352998 0.917875 0.579671
Si Si4 0.081340 0.650607 0.157713
Si Si5 0.300287 0.416356 0.213956
Si Si6 0.156809 0.583429 0.710495
Si Si7 0.583504 0.792867 0.079232
O O1 0.863735 0.863735 0.601252
O O2 0.793968 0.914095 0.705884
O O3 0.730798 0.908965 0.586066
O O4 0.828548 0.000000 0.607643
O O5 0.863471 0.136530 0.189938
O O6 0.911584 0.266438 0.170661
O O7 0.000000 0.167850 0.198517
O O8 0.375269 0.904908 0.500000
O O9 0.388512 0.867900 0.636005
O O10 0.367586 0.000000 0.596544
O O11 0.105974 0.614992 0.230237
O O12 0.136142 0.623143 0.100671
O O13 0.000000 0.634615 0.142849
O O14 0.315108 0.500000 0.218573
O O15 0.367379 0.367379 0.224917
O O16 0.236697 0.398908 0.267469
O O17 0.266102 0.401838 0.137520
O O18 0.151171 0.500000 0.713017
O O19 0.500000 0.806751 0.084035
O O20 0.599985 0.771564 0.000000
#
# Coordination Sequence:
#
# PCOD9561665 Si02
#       7
#    16  16  16  16  16  16  16
#     4   9  17  30  46  65  91 122 158 201 245 288
#     4   9  17  29  46  67  91 120 156 199 244 288
#     4  10  20  33  48  68  97 132 168 205 244 286
#     4  10  18  29  47  71  97 128 166 204 242 285
#     4   9  19  35  55  78 101 127 158 194 238 288
#     4  10  20  33  49  71  98 127 161 199 240 288
#     4   9  19  34  49  70 103 137 165 195 234 280
#
# _framework density 16.094245000000001
#
# number of rings (size 3 to 8) (size 9 to 14) (size 15 to 20)
#    0.000    2.571    1.429    1.714    0.000    6.429 
#    0.000    2.857    0.000    0.000    0.000    4.000 
#    0.000    0.000    0.000    6.286    0.000    0.143 
#
# Total GULP energy -624404.146300 kJ/mol
# GULP energy per Si atom -5575.037021 kJ/mol
# Density = 1.605761 g / cm^3
# Si number density = 16.094245 Si / 1000 Ang^3
#
#
#
# Elastic Constant Matrix: (Units=GPa)
#
#
# Indices 1 2 3 4 5 6 
#
# 1 67.1262 54.3176 32.8626 0.0000 0.0000 0.0000
# 2 54.3176 67.1262 32.8626 0.0000 0.0000 0.0000
# 3 32.8626 32.8626 72.7128 0.0000 0.0000 0.0000
# 4 0.0000 0.0000 0.0000 9.0448 0.0000 0.0000
# 5 0.0000 0.0000 0.0000 0.0000 9.0448 0.0000
# 6 0.0000 0.0000 0.0000 0.0000 0.0000 38.1804
#
#
#
# Elastic Compliance Matrix: (Units=1/GPa)
#
#
# Indices 1 2 3 4 5 6 
#
# 1 0.044487 -0.033586 -0.004926 0.000000 0.000000 0.000000
# 2 -0.033586 0.044487 -0.004926 0.000000 0.000000 0.000000
# 3 -0.004926 -0.004926 0.018206 0.000000 0.000000 0.000000
# 4 0.000000 0.000000 0.000000 0.110560 0.000000 0.000000
# 5 0.000000 0.000000 0.000000 0.000000 0.110560 0.000000
# 6 0.000000 0.000000 0.000000 0.000000 0.000000 0.026191
#
#
# Mechanical properties :
#
#
# Convention : Reuss Voigt Hill
#
# Bulk Modulus (GPa) = 49.25911 49.67233 49.46572
# Shear Modulus (GPa) = 11.15732 17.04883 14.10308
#
# Velocity S-wave (km/s) = 2.63582 3.25824 2.96342
# Velocity P-wave (km/s) = 6.31953 6.71455 6.52004
#
# Compressibility (1/GPa) = 0.02030081
#
# Stress axis : x y z
#
# Youngs Moduli (GPa) = 22.47872 22.47872 54.92760
#
# Poissons Ratio (x) = 0.75497 0.27060
# Poissons Ratio (y) = 0.75497 0.27060
# Poissons Ratio (z) = 0.11074 0.11074
#
# Static dielectric constant tensor:
#      x y z
#    x 1.525900 0.000000 0.000000 
#    y 0.000000 1.525900 0.000000 
#    z 0.000000 0.000000 1.553560 
# 
# From -- ./inp_files/6671.got.cif
#   From: 2010.05.17/outbox.cif.g08.bks.cpg/sg123_4_cif.got.tgz:6671.got - 2010.05.20 11:43:04.
