data_PCOD9561713
_publ_section_title
;
Structure prediction by ZEFSAII (Michael W. Deem and Ramdas Pophale) SiO2 
 PCOD9561713
Probable space group: P 4/M M M
;
_chemical_formula_sum "Si O2"
_cell_formula_units_Z 64
_cell_length_a 22.427910
_cell_length_b 22.427910
_cell_length_c 7.808952
_cell_angle_alpha 90.000000
_cell_angle_beta 90.000000
_cell_angle_gamma 90.000000
_cell_volume 3927.989902
_symmetry_space_group_name_H-M "P 4/M M M"
_symmetry_group_IT_number 123
_symmetry_cell_setting 'tetragonal'
loop_
_space_group_symop_operation_xyz
x,y,z
-y,x,z
-x,-y,z
y,-x,z
x,-y,-z
-x,y,-z
y,x,-z
-y,-x,-z
-x,-y,-z
y,-x,-z
x,y,-z
-y,x,-z
-x,y,z
x,-y,z
-y,-x,z
y,x,z
loop_
_atom_site_type_symbol
_atom_site_label
_atom_site_fract_x
_atom_site_fract_y
_atom_site_fract_z
Si Si1 0.805126 0.296290 0.000000
Si Si2 0.797324 0.567136 0.000000
Si Si3 0.566652 0.890307 0.305413
Si Si4 0.000000 0.349736 0.704528
Si Si5 0.000000 0.218226 0.191103
Si Si6 0.131033 0.232161 0.307089
O O1 0.846601 0.279766 0.165091
O O2 0.751388 0.248613 0.000000
O O3 0.776884 0.362952 0.000000
O O4 0.837958 0.566865 0.169331
O O5 0.766394 0.500000 0.000000
O O6 0.578274 0.869731 0.500000
O O7 0.500000 0.916822 0.303629
O O8 0.612322 0.941636 0.259003
O O9 0.000000 0.289814 0.808711
O O10 0.000000 0.335846 0.500000
O O11 0.935573 0.206682 0.275652
O O12 0.000000 0.193284 0.000000
O O13 0.132874 0.257596 0.500000
O O14 0.177943 0.177943 0.296869
#
# Coordination Sequence:
#
# PCOD9561713 Si02
#       6
#     8   8  16   8   8  16
#     4  10  20  35  53  74  99 128 163 201 241 285
#     4  10  20  31  46  67  91 122 157 193 235 281
#     4   9  18  30  42  59  87 123 159 193 227 266
#     4  10  19  28  41  61  87 119 158 194 227 270
#     4  12  22  31  49  73  97 121 151 196 247 292
#     4  10  21  37  55  74  97 126 161 201 245 293
#
# _framework density 16.293320000000001
#
# number of rings (size 3 to 8) (size 9 to 14) (size 15 to 20)
#    0.000    2.000    1.250    3.000    1.750    4.500 
#    0.000    1.875    0.000    0.375    0.000    2.625 
#    0.000    0.250    0.000    0.000    0.000    0.000 
#
# Total GULP energy -356409.804273 kJ/mol
# GULP energy per Si atom -5568.903192 kJ/mol
# Density = 1.625624 g / cm^3
# Si number density = 16.293320 Si / 1000 Ang^3
#
#
#
# Elastic Constant Matrix: (Units=GPa)
#
#
# Indices 1 2 3 4 5 6 
#
# 1 66.7862 9.5075 17.5973 0.0000 0.0000 0.0000
# 2 9.5075 66.7884 17.5977 0.0000 0.0000 0.0000
# 3 17.5973 17.5977 74.4116 0.0000 0.0000 0.0000
# 4 0.0000 0.0000 0.0000 8.4433 0.0000 0.0000
# 5 0.0000 0.0000 0.0000 0.0000 8.4437 0.0000
# 6 0.0000 0.0000 0.0000 0.0000 0.0000 -12.3140
#
#
#
# Elastic Compliance Matrix: (Units=1/GPa)
#
#
# Indices 1 2 3 4 5 6 
#
# 1 0.016085 -0.001373 -0.003479 0.000000 0.000000 0.000000
# 2 -0.001373 0.016085 -0.003479 0.000000 0.000000 0.000000
# 3 -0.003479 -0.003479 0.015084 0.000000 0.000000 0.000000
# 4 0.000000 0.000000 0.000000 0.118437 0.000000 0.000000
# 5 0.000000 0.000000 0.000000 0.000000 0.118432 0.000000
# 6 0.000000 0.000000 0.000000 0.000000 0.000000 -0.081208
#
#
# Mechanical properties :
#
#
# Convention : Reuss Voigt Hill
#
# Bulk Modulus (GPa) = 32.68880 33.04345 32.86613
# Shear Modulus (GPa) = 21.76042 11.80018 16.78030
#
# Velocity S-wave (km/s) = 3.65847 2.69408 3.21267
# Velocity P-wave (km/s) = 6.16053 5.47739 5.82898
#
# Compressibility (1/GPa) = 0.03059152
#
# Stress axis : x y z
#
# Youngs Moduli (GPa) = 62.16833 62.17040 66.29382
#
# Poissons Ratio (x) = 0.08536 0.23065
# Poissons Ratio (y) = 0.08536 0.23065
# Poissons Ratio (z) = 0.21630 0.21630
#
# Static dielectric constant tensor:
#      x y z
#    x 1.563750 0.000000 0.000000 
#    y 0.000000 1.563750 0.000000 
#    z 0.000000 0.000000 1.606190 
# 
# From -- ./inp_files/1024.got.cif
#   From: 2010.05.17/outbox.cif.g08.bks.cpg/sg123_1_cif.got.tgz:1024.got - 2010.05.20 11:43:04.
