data_PCOD9561527
_publ_section_title
;
Structure prediction by ZEFSAII (Michael W. Deem and Ramdas Pophale) SiO2 
 PCOD9561527
Probable space group: I -4 2 D
;
_chemical_formula_sum "Si O2"
_cell_formula_units_Z 88
_cell_length_a 16.332462
_cell_length_b 16.332462
_cell_length_c 14.137049
_cell_angle_alpha 90.000000
_cell_angle_beta 90.000000
_cell_angle_gamma 90.000000
_cell_volume 3771.048137
_symmetry_space_group_name_H-M "I -4 2 D"
_symmetry_group_IT_number 122
_symmetry_cell_setting 'tetragonal'
loop_
_space_group_symop_operation_xyz
x,y,z
y,-x,-z
-x,-y,z
-y,x,-z
x,1/2-y,1/4-z
-x,1/2+y,1/4-z
-y,1/2-x,1/4+z
y,1/2+x,1/4+z
1/2+x,1/2+y,1/2+z
1/2+y,1/2-x,1/2-z
1/2-x,1/2-y,1/2+z
1/2-y,1/2+x,1/2-z
1/2+x,-y,3/4-z
1/2-x,y,3/4-z
1/2-y,-x,3/4+z
1/2+y,x,3/4+z
loop_
_atom_site_type_symbol
_atom_site_label
_atom_site_fract_x
_atom_site_fract_y
_atom_site_fract_z
Si Si1 0.472562 0.250000 0.625000
Si Si2 0.637634 0.219126 0.408112
Si Si3 0.896933 0.365412 0.100062
Si Si4 0.922242 0.750000 0.625000
Si Si5 0.565679 0.330704 0.244687
Si Si6 0.500000 0.500000 0.713563
Si Si7 0.243184 0.835902 0.721140
O O1 0.535482 0.181826 0.660321
O O2 0.413394 0.269753 0.710830
O O3 0.594022 0.171274 0.494498
O O4 0.677683 0.142862 0.349751
O O5 0.586905 0.284200 0.345131
O O6 0.707974 0.270334 0.464178
O O7 0.806291 0.354413 0.137486
O O8 0.933183 0.454457 0.099836
O O9 0.984536 0.787381 0.702630
O O10 0.553576 0.430337 0.233785
O O11 0.651863 0.313393 0.192530
#
# Coordination Sequence:
#
# PCOD9561527 Si02
#       7
#     8  16  16   8  16   8  16
#     4  12  23  41  70 110 142 192 252 297 381 454
#     4  12  24  52  73 106 152 202 259 311 383 464
#     4  12  27  43  75 111 147 201 248 311 386 461
#     4  12  27  47  78 112 142 216 258 307 391 460
#     4  12  27  47  78 109 157 198 261 327 379 465
#     4  12  26  48  69 117 154 184 246 336 382 443
#     4  12  24  46  78 104 152 205 249 309 389 475
#
# _framework density 23.335685999999999
#
# number of rings (size 3 to 8) (size 9 to 14) (size 15 to 20)
#    0.000    0.000    9.091    0.000    5.091    1.455 
#    3.273    0.909    0.000    0.000    0.000    0.000 
#    0.000    0.000    0.000    0.000    0.000    0.000 
#
# Total GULP energy -244985.626200 kJ/mol
# GULP energy per Si atom -5567.855141 kJ/mol
# Density = 2.328257 g / cm^3
# Si number density = 23.335686 Si / 1000 Ang^3
#
#
#
# Elastic Constant Matrix: (Units=GPa)
#
#
# Indices 1 2 3 4 5 6 
#
# 1 149.1951 30.8818 49.1219 0.0000 0.0000 0.0000
# 2 30.8818 149.1951 49.1219 0.0000 0.0000 0.0000
# 3 49.1219 49.1219 71.2503 0.0000 0.0000 0.0000
# 4 0.0000 0.0000 0.0000 16.9464 0.0000 0.0000
# 5 0.0000 0.0000 0.0000 0.0000 16.9464 0.0000
# 6 0.0000 0.0000 0.0000 0.0000 0.0000 31.7494
#
#
#
# Elastic Compliance Matrix: (Units=1/GPa)
#
#
# Indices 1 2 3 4 5 6 
#
# 1 0.008677 0.000225 -0.006137 0.000000 0.000000 0.000000
# 2 0.000225 0.008677 -0.006137 0.000000 0.000000 0.000000
# 3 -0.006137 -0.006137 0.022497 0.000000 0.000000 0.000000
# 4 0.000000 0.000000 0.000000 0.059010 0.000000 0.000000
# 5 0.000000 0.000000 0.000000 0.000000 0.059010 0.000000
# 6 0.000000 0.000000 0.000000 0.000000 0.000000 0.031497
#
#
# Mechanical properties :
#
#
# Convention : Reuss Voigt Hill
#
# Bulk Modulus (GPa) = 63.48335 69.76573 66.62454
# Shear Modulus (GPa) = 22.86086 29.16277 26.01182
#
# Velocity S-wave (km/s) = 3.13334 3.53895 3.34230
# Velocity P-wave (km/s) = 6.35247 6.83084 6.59599
#
# Compressibility (1/GPa) = 0.01575216
#
# Stress axis : x y z
#
# Youngs Moduli (GPa) = 115.25203 115.25203 44.45114
#
# Poissons Ratio (x) = -0.02587 0.27278
# Poissons Ratio (y) = -0.02587 0.27278
# Poissons Ratio (z) = 0.70727 0.70727
#
# Static dielectric constant tensor:
#      x y z
#    x 2.129000 0.000000 0.000000 
#    y 0.000000 2.129000 0.000000 
#    z 0.000000 0.000000 2.022260 
# 
# From -- ./inp_files/5414.got.cif
#   From: 2010.05.17/outbox.cif.g08.bks.cpg/sg122_3_cif.got.tgz:5414.got - 2010.05.20 11:37:33.
