data_PCOD9561225
_publ_section_title
;
Structure prediction by ZEFSAII (Michael W. Deem and Ramdas Pophale) SiO2 
 PCOD9561225
Probable space group: I -4 2 D
;
_chemical_formula_sum "Si O2"
_cell_formula_units_Z 108
_cell_length_a 29.395404
_cell_length_b 29.395404
_cell_length_c 5.713239
_cell_angle_alpha 90.000000
_cell_angle_beta 90.000000
_cell_angle_gamma 90.000000
_cell_volume 4936.751410
_symmetry_space_group_name_H-M "I -4 2 D"
_symmetry_group_IT_number 122
_symmetry_cell_setting 'tetragonal'
loop_
_space_group_symop_operation_xyz
x,y,z
y,-x,-z
-x,-y,z
-y,x,-z
x,1/2-y,1/4-z
-x,1/2+y,1/4-z
-y,1/2-x,1/4+z
y,1/2+x,1/4+z
1/2+x,1/2+y,1/2+z
1/2+y,1/2-x,1/2-z
1/2-x,1/2-y,1/2+z
1/2-y,1/2+x,1/2-z
1/2+x,-y,3/4-z
1/2-x,y,3/4-z
1/2-y,-x,3/4+z
1/2+y,x,3/4+z
loop_
_atom_site_type_symbol
_atom_site_label
_atom_site_fract_x
_atom_site_fract_y
_atom_site_fract_z
Si Si1 0.942957 0.037651 0.615873
Si Si2 0.750000 0.842901 0.375000
Si Si3 0.195217 0.516359 0.868835
Si Si4 0.473188 0.695416 0.614260
Si Si5 0.664408 0.803293 0.621282
Si Si6 0.685410 0.874145 0.003875
Si Si7 0.355986 0.901257 0.191857
Si Si8 0.000000 0.000000 0.000000
O O1 0.898352 0.066855 0.612438
O O2 0.987283 0.060969 0.497421
O O3 0.960666 0.026859 0.870337
O O4 0.707042 0.812894 0.449748
O O5 0.730954 0.872857 0.161200
O O6 0.250000 0.513950 0.875000
O O7 0.179979 0.492098 0.621910
O O8 0.178360 0.568103 0.843234
O O9 0.179037 0.496123 0.120194
O O10 0.478969 0.750000 0.625000
O O11 0.419656 0.684529 0.602060
O O12 0.655752 0.750000 0.625000
O O13 0.619912 0.829363 0.527802
O O14 0.680485 0.827764 0.858121
O O15 0.642052 0.874953 0.171283
#
# Coordination Sequence:
#
# PCOD9561225 Si02
#       8
#    16   8  16  16  16  16  16   4
#     4   9  21  43  68 101 136 179 233 297 364 441
#     4  10  24  44  72 100 142 186 242 306 370 442
#     4  10  25  45  72 102 142 194 235 300 367 443
#     4  10  23  44  75 102 139 183 241 295 363 433
#     4  11  27  43  70 103 144 192 246 302 370 441
#     4  11  26  44  71 105 139 187 241 312 361 446
#     4  11  27  43  69 101 145 187 247 298 365 445
#     4   8  18  44  76  94 140 172 230 296 364 450
#
# _framework density 21.876733999999999
#
# number of rings (size 3 to 8) (size 9 to 14) (size 15 to 20)
#    0.000    1.926    0.000    1.333   15.556    4.148 
#    0.000    0.000    0.000    0.000    0.000    0.000 
#    0.000    0.000    0.000    0.000    0.000    0.000 
#
# Total GULP energy -301560.831187 kJ/mol
# GULP energy per Si atom -5584.459837 kJ/mol
# Density = 2.182694 g / cm^3
# Si number density = 21.876734 Si / 1000 Ang^3
#
#
#
# Elastic Constant Matrix: (Units=GPa)
#
#
# Indices 1 2 3 4 5 6 
#
# 1 108.2402 43.1210 42.0527 0.0000 0.0000 0.0000
# 2 43.1210 108.2402 42.0527 0.0000 0.0000 0.0000
# 3 42.0527 42.0527 112.0521 0.0000 0.0000 0.0000
# 4 0.0000 0.0000 0.0000 29.9461 0.0000 0.0000
# 5 0.0000 0.0000 0.0000 0.0000 29.9461 0.0000
# 6 0.0000 0.0000 0.0000 0.0000 0.0000 26.9984
#
#
#
# Elastic Compliance Matrix: (Units=1/GPa)
#
#
# Indices 1 2 3 4 5 6 
#
# 1 0.011852 -0.003504 -0.003133 0.000000 0.000000 0.000000
# 2 -0.003504 0.011852 -0.003133 0.000000 0.000000 0.000000
# 3 -0.003133 -0.003133 0.011276 0.000000 0.000000 0.000000
# 4 0.000000 0.000000 0.000000 0.033393 0.000000 0.000000
# 5 0.000000 0.000000 0.000000 0.000000 0.033393 0.000000
# 6 0.000000 0.000000 0.000000 0.000000 0.000000 0.037039
#
#
# Mechanical properties :
#
#
# Convention : Reuss Voigt Hill
#
# Bulk Modulus (GPa) = 64.76806 64.77613 64.77210
# Shear Modulus (GPa) = 30.58248 30.79852 30.69050
#
# Velocity S-wave (km/s) = 3.74297 3.75616 3.74957
# Velocity P-wave (km/s) = 6.95341 6.96316 6.95829
#
# Compressibility (1/GPa) = 0.01543971
#
# Stress axis : x y z
#
# Youngs Moduli (GPa) = 84.37421 84.37421 88.68507
#
# Poissons Ratio (x) = 0.29569 0.27783
# Poissons Ratio (y) = 0.29569 0.27783
# Poissons Ratio (z) = 0.26433 0.26433
#
# Static dielectric constant tensor:
#      x y z
#    x 1.776090 0.000000 0.000000 
#    y 0.000000 1.776090 0.000000 
#    z 0.000000 0.000000 1.901320 
# 
# From -- ./inp_files/1557.got.cif
#   From: 2010.05.17/outbox.cif.g08.bks.cpg/sg122_1_cif.got.tgz:1557.got - 2010.05.20 11:37:33.
