data_PCOD9561999
_publ_section_title
;
Structure prediction by ZEFSAII (Michael W. Deem and Ramdas Pophale) SiO2 
 PCOD9561999
Probable space group: P 4/M M M
;
_chemical_formula_sum "Si O2"
_cell_formula_units_Z 116
_cell_length_a 29.109840
_cell_length_b 29.109840
_cell_length_c 7.419668
_cell_angle_alpha 90.000000
_cell_angle_beta 90.000000
_cell_angle_gamma 90.000000
_cell_volume 6287.298932
_symmetry_space_group_name_H-M "P 4/M M M"
_symmetry_group_IT_number 123
_symmetry_cell_setting 'tetragonal'
loop_
_space_group_symop_operation_xyz
x,y,z
-y,x,z
-x,-y,z
y,-x,z
x,-y,-z
-x,y,-z
y,x,-z
-y,-x,-z
-x,-y,-z
y,-x,-z
x,y,-z
-y,x,-z
-x,y,z
x,-y,z
-y,-x,z
y,x,z
loop_
_atom_site_type_symbol
_atom_site_label
_atom_site_fract_x
_atom_site_fract_y
_atom_site_fract_z
Si Si1 0.450451 0.147933 0.706996
Si Si2 0.690939 0.948698 0.717021
Si Si3 0.265009 0.147081 0.280032
Si Si4 0.805148 0.805148 0.000000
Si Si5 0.374105 0.551779 0.784841
Si Si6 0.639876 0.802124 0.280226
Si Si7 0.624951 0.698592 0.284233
Si Si8 0.050950 0.416837 0.789894
O O1 0.452044 0.164044 0.500000
O O2 0.500000 0.159063 0.789485
O O3 0.404245 0.169537 0.786150
O O4 0.443007 0.093348 0.705229
O O5 0.689999 0.949047 0.500000
O O6 0.722806 0.905921 0.766768
O O7 0.638090 0.941222 0.774309
O O8 0.704739 0.000000 0.778552
O O9 0.257750 0.150368 0.500000
O O10 0.311382 0.175746 0.233535
O O11 0.224510 0.167329 0.159431
O O12 0.376706 0.500000 0.714141
O O13 0.413582 0.586419 0.714249
O O14 0.325232 0.576253 0.753513
O O15 0.380205 0.549464 0.000000
O O16 0.639365 0.803206 0.500000
O O17 0.633531 0.749820 0.218939
O O18 0.629429 0.700284 0.500000
O O19 0.663501 0.663501 0.213878
O O20 0.000000 0.426180 0.716097
O O21 0.050897 0.428900 0.000000
#
# Coordination Sequence:
#
# PCOD9561999 Si02
#       8
#    16  16  16   4  16  16  16  16
#     4  10  20  34  51  70  93 125 167 213 267 333
#     4   9  17  32  57  83 107 142 185 231 284 332
#     4  10  21  38  56  80 117 148 185 239 282 330
#     4  12  26  36  54  86 110 152 196 225 287 346
#     4   9  18  33  50  70  94 117 144 184 234 294
#     4   9  18  34  53  72  98 130 164 213 268 316
#     4   9  18  32  51  72  93 121 154 189 237 297
#     4  10  20  32  49  72  99 130 168 218 274 327
#
# _framework density 18.449895999999999
#
# number of rings (size 3 to 8) (size 9 to 14) (size 15 to 20)
#    0.000    2.483    1.379    0.621    1.931    2.345 
#    1.241    3.448    0.000    0.000    0.000    1.931 
#    0.000    0.000    0.000    0.000    0.000    2.759 
#
# Total GULP energy -645998.376108 kJ/mol
# GULP energy per Si atom -5568.951518 kJ/mol
# Density = 1.840790 g / cm^3
# Si number density = 18.449896 Si / 1000 Ang^3
#
#
#
# Elastic Constant Matrix: (Units=GPa)
#
#
# Indices 1 2 3 4 5 6 
#
# 1 85.3270 42.1767 9.3578 0.0000 0.0000 0.0000
# 2 42.1767 85.3270 9.3578 0.0000 0.0000 0.0000
# 3 9.3578 9.3578 73.6018 0.0000 0.0000 0.0000
# 4 0.0000 0.0000 0.0000 -0.6602 0.0000 0.0000
# 5 0.0000 0.0000 0.0000 0.0000 -0.6602 0.0000
# 6 0.0000 0.0000 0.0000 0.0000 0.0000 16.4796
#
#
#
# Elastic Compliance Matrix: (Units=1/GPa)
#
#
# Indices 1 2 3 4 5 6 
#
# 1 0.015583 -0.007591 -0.001016 0.000000 0.000000 0.000000
# 2 -0.007591 0.015583 -0.001016 0.000000 0.000000 0.000000
# 3 -0.001016 -0.001016 0.013845 0.000000 0.000000 0.000000
# 4 0.000000 0.000000 0.000000 -1.514695 0.000000 0.000000
# 5 0.000000 0.000000 0.000000 0.000000 -1.514695 0.000000
# 6 0.000000 0.000000 0.000000 0.000000 0.000000 0.060681
#
#
# Mechanical properties :
#
#
# Convention : Reuss Voigt Hill
#
# Bulk Modulus (GPa) = 38.81290 40.67118 39.74204
# Shear Modulus (GPa) = -1.72660 15.25607 6.76473
#
# Velocity S-wave (km/s) = -0.96843 2.87869 1.91690
# Velocity P-wave (km/s) = 4.45332 5.75683 5.14652
#
# Compressibility (1/GPa) = 0.02576463
#
# Stress axis : x y z
#
# Youngs Moduli (GPa) = 64.17065 64.17065 72.22823
#
# Poissons Ratio (x) = 0.48714 0.07339
# Poissons Ratio (y) = 0.48714 0.07339
# Poissons Ratio (z) = 0.06521 0.06521
#
# Static dielectric constant tensor:
#      x y z
#    x 1.634800 0.000000 0.000000 
#    y 0.000000 1.634800 0.000000 
#    z 0.000000 0.000000 1.706560 
# 
# From -- ./inp_files/2039.got.cif
#   From: 2010.05.17/outbox.cif.g08.bks.cpg/sg123_2_cif.got.tgz:2039.got - 2010.05.20 11:43:04.
