data_PCOD9561153
_publ_section_title
;
Structure prediction by ZEFSAII (Michael W. Deem and Ramdas Pophale) SiO2 
 PCOD9561153
Probable space group: I -4 2 D
;
_chemical_formula_sum "Si O2"
_cell_formula_units_Z 88
_cell_length_a 14.907513
_cell_length_b 14.907513
_cell_length_c 17.143382
_cell_angle_alpha 90.000000
_cell_angle_beta 90.000000
_cell_angle_gamma 90.000000
_cell_volume 3809.841393
_symmetry_space_group_name_H-M "I -4 2 D"
_symmetry_group_IT_number 122
_symmetry_cell_setting 'tetragonal'
loop_
_space_group_symop_operation_xyz
x,y,z
y,-x,-z
-x,-y,z
-y,x,-z
x,1/2-y,1/4-z
-x,1/2+y,1/4-z
-y,1/2-x,1/4+z
y,1/2+x,1/4+z
1/2+x,1/2+y,1/2+z
1/2+y,1/2-x,1/2-z
1/2-x,1/2-y,1/2+z
1/2-y,1/2+x,1/2-z
1/2+x,-y,3/4-z
1/2-x,y,3/4-z
1/2-y,-x,3/4+z
1/2+y,x,3/4+z
loop_
_atom_site_type_symbol
_atom_site_label
_atom_site_fract_x
_atom_site_fract_y
_atom_site_fract_z
Si Si1 0.079478 0.428308 0.597485
Si Si2 0.810785 0.750000 0.125000
Si Si3 0.080534 0.372406 0.241790
Si Si4 0.413711 0.295966 0.846940
Si Si5 0.541940 0.298351 0.207821
Si Si6 0.166013 0.338139 0.732424
O O1 0.168820 0.484518 0.584595
O O2 0.090164 0.363520 0.671214
O O3 0.000000 0.500000 0.612784
O O4 0.043332 0.361632 0.530509
O O5 0.873817 0.672335 0.163838
O O6 0.738919 0.773409 0.193428
O O7 0.117604 0.471861 0.261176
O O8 0.099238 0.301592 0.311313
O O9 0.360484 0.370013 0.795995
O O10 0.373153 0.308451 0.934261
O O11 0.540854 0.250000 0.125000
O O12 0.567467 0.219359 0.264023
#
# Coordination Sequence:
#
# PCOD9561153 Si02
#       6
#    16   8  16  16  16  16
#     4  10  23  38  65 103 144 192 224 282 368 440
#     4  12  26  46  74 110 138 186 256 298 366 440
#     4  11  26  52  75 102 141 195 256 314 367 435
#     4  10  22  43  70  99 139 189 232 296 368 432
#     4   9  20  39  61  93 147 185 220 277 353 439
#     4  11  24  39  69 105 145 184 234 298 355 441
#
# _framework density 23.098072999999999
#
# number of rings (size 3 to 8) (size 9 to 14) (size 15 to 20)
#    0.000    1.636    1.818    1.091    8.909    1.455 
#    0.000    5.455    0.000    0.000    0.000    0.000 
#    0.000    0.000    0.000    0.000    0.000    0.000 
#
# Total GULP energy -245327.662448 kJ/mol
# GULP energy per Si atom -5575.628692 kJ/mol
# Density = 2.304550 g / cm^3
# Si number density = 23.098073 Si / 1000 Ang^3
#
#
#
# Elastic Constant Matrix: (Units=GPa)
#
#
# Indices 1 2 3 4 5 6 
#
# 1 112.5353 48.0688 32.0987 0.0000 0.0000 0.0000
# 2 48.0688 112.5353 32.0987 0.0000 0.0000 0.0000
# 3 32.0987 32.0987 42.9590 0.0000 0.0000 0.0000
# 4 0.0000 0.0000 0.0000 34.8082 0.0000 0.0000
# 5 0.0000 0.0000 0.0000 0.0000 34.8082 0.0000
# 6 0.0000 0.0000 0.0000 0.0000 0.0000 38.6664
#
#
#
# Elastic Compliance Matrix: (Units=1/GPa)
#
#
# Indices 1 2 3 4 5 6 
#
# 1 0.012195 -0.003317 -0.006634 0.000000 0.000000 0.000000
# 2 -0.003317 0.012195 -0.006634 0.000000 0.000000 0.000000
# 3 -0.006634 -0.006634 0.033191 0.000000 0.000000 0.000000
# 4 0.000000 0.000000 0.000000 0.028729 0.000000 0.000000
# 5 0.000000 0.000000 0.000000 0.000000 0.028729 0.000000
# 6 0.000000 0.000000 0.000000 0.000000 0.000000 0.025862
#
#
# Mechanical properties :
#
#
# Convention : Reuss Voigt Hill
#
# Bulk Modulus (GPa) = 40.96207 54.72910 47.84559
# Shear Modulus (GPa) = 27.44125 32.04079 29.74102
#
# Velocity S-wave (km/s) = 3.45052 3.72850 3.59220
# Velocity P-wave (km/s) = 5.80063 6.50241 6.16152
#
# Compressibility (1/GPa) = 0.02441283
#
# Stress axis : x y z
#
# Youngs Moduli (GPa) = 82.00066 82.00066 30.12840
#
# Poissons Ratio (x) = 0.27199 0.19986
# Poissons Ratio (y) = 0.27199 0.19986
# Poissons Ratio (z) = 0.54397 0.54397
#
# Static dielectric constant tensor:
#      x y z
#    x 1.918620 0.000000 0.000000 
#    y 0.000000 1.918620 0.000000 
#    z 0.000000 0.000000 1.860520 
# 
# From -- ./inp_files/7182.got.cif
#   From: 2010.05.17/outbox.cif.g08.bks.cpg/sg122_4_cif.got.tgz:7182.got - 2010.05.20 11:37:33.
