data_PCOD9561809
_publ_section_title
;
Structure prediction by ZEFSAII (Michael W. Deem and Ramdas Pophale) SiO2 
 PCOD9561809
Probable space group: P 4/M M M
;
_chemical_formula_sum "Si O2"
_cell_formula_units_Z 72
_cell_length_a 23.595484
_cell_length_b 23.595484
_cell_length_c 9.050548
_cell_angle_alpha 90.000000
_cell_angle_beta 90.000000
_cell_angle_gamma 90.000000
_cell_volume 5038.864227
_symmetry_space_group_name_H-M "P 4/M M M"
_symmetry_group_IT_number 123
_symmetry_cell_setting 'tetragonal'
loop_
_space_group_symop_operation_xyz
x,y,z
-y,x,z
-x,-y,z
y,-x,z
x,-y,-z
-x,y,-z
y,x,-z
-y,-x,-z
-x,-y,-z
y,-x,-z
x,y,-z
-y,x,-z
-x,y,z
x,-y,z
-y,-x,z
y,x,z
loop_
_atom_site_type_symbol
_atom_site_label
_atom_site_fract_x
_atom_site_fract_y
_atom_site_fract_z
Si Si1 0.826522 0.661085 0.823208
Si Si2 0.353904 0.353904 0.330924
Si Si3 0.933825 0.382765 0.676441
Si Si4 0.500000 0.931790 0.833684
Si Si5 0.256875 0.743125 0.330475
Si Si6 0.733421 0.434112 0.822095
O O1 0.888309 0.657436 0.752020
O O2 0.794346 0.715013 0.757382
O O3 0.787284 0.606007 0.782957
O O4 0.829737 0.662831 0.000000
O O5 0.368398 0.368398 0.500000
O O6 0.305401 0.305401 0.333816
O O7 0.322765 0.405978 0.249149
O O8 0.928317 0.382918 0.500000
O O9 0.918155 0.444085 0.743195
O O10 0.000000 0.371420 0.712315
O O11 0.500000 0.000000 0.847403
O O12 0.500000 0.907221 0.000000
O O13 0.242831 0.757169 0.500000
O O14 0.741104 0.500000 0.779315
O O15 0.728016 0.431603 0.000000
#
# Coordination Sequence:
#
# PCOD9561809 Si02
#       6
#    16   8  16   8   8  16
#     4  10  19  30  47  67  88 112 145 183 217 256
#     4   9  17  29  45  64  84 105 129 163 207 253
#     4  10  20  32  44  61  87 118 149 180 218 261
#     4   9  17  29  43  57  77 109 147 183 216 251
#     4   9  17  31  47  63  86 112 141 176 220 262
#     4   9  18  31  46  64  84 107 134 166 207 256
#
# _framework density 14.288935
#
# number of rings (size 3 to 8) (size 9 to 14) (size 15 to 20)
#    0.000    2.556    0.000    2.333    1.556    6.667 
#    0.000    0.000    0.000    0.333    0.000    2.333 
#    0.000    0.000    0.000    0.000    0.000    0.556 
#
# Total GULP energy -401206.519443 kJ/mol
# GULP energy per Si atom -5572.312770 kJ/mol
# Density = 1.425641 g / cm^3
# Si number density = 14.288935 Si / 1000 Ang^3
#
#
#
# Elastic Constant Matrix: (Units=GPa)
#
#
# Indices 1 2 3 4 5 6 
#
# 1 80.7251 45.4632 44.3175 0.0000 0.0000 0.0000
# 2 45.4632 80.7251 44.3175 0.0000 0.0000 0.0000
# 3 44.3175 44.3175 70.1971 0.0000 0.0000 0.0000
# 4 0.0000 0.0000 0.0000 21.0644 0.0000 0.0000
# 5 0.0000 0.0000 0.0000 0.0000 21.0644 0.0000
# 6 0.0000 0.0000 0.0000 0.0000 0.0000 14.0210
#
#
#
# Elastic Compliance Matrix: (Units=1/GPa)
#
#
# Indices 1 2 3 4 5 6 
#
# 1 0.021299 -0.007060 -0.008989 0.000000 0.000000 0.000000
# 2 -0.007060 0.021299 -0.008989 0.000000 0.000000 0.000000
# 3 -0.008989 -0.008989 0.025596 0.000000 0.000000 0.000000
# 4 0.000000 0.000000 0.000000 0.047473 0.000000 0.000000
# 5 0.000000 0.000000 0.000000 0.000000 0.047473 0.000000
# 6 0.000000 0.000000 0.000000 0.000000 0.000000 0.071322
#
#
# Mechanical properties :
#
#
# Convention : Reuss Voigt Hill
#
# Bulk Modulus (GPa) = 55.19913 55.53820 55.36867
# Shear Modulus (GPa) = 17.20701 17.73324 17.47012
#
# Velocity S-wave (km/s) = 3.47395 3.52667 3.50041
# Velocity P-wave (km/s) = 7.40308 7.45222 7.42769
#
# Compressibility (1/GPa) = 0.01811623
#
# Stress axis : x y z
#
# Youngs Moduli (GPa) = 46.95053 46.95053 39.06840
#
# Poissons Ratio (x) = 0.33148 0.35120
# Poissons Ratio (y) = 0.33148 0.35120
# Poissons Ratio (z) = 0.42206 0.42206
#
# Static dielectric constant tensor:
#      x y z
#    x 1.487620 0.000000 0.000000 
#    y 0.000000 1.487620 0.000000 
#    z 0.000000 0.000000 1.477480 
# 
# From -- ./inp_files/1160.got.cif
#   From: 2010.05.17/outbox.cif.g08.bks.cpg/sg123_1_cif.got.tgz:1160.got - 2010.05.20 11:43:04.
