data_PCOD9561836
_publ_section_title
;
Structure prediction by ZEFSAII (Michael W. Deem and Ramdas Pophale) SiO2 
 PCOD9561836
Probable space group: P 4/M M M
;
_chemical_formula_sum "Si O2"
_cell_formula_units_Z 80
_cell_length_a 24.977265
_cell_length_b 24.977265
_cell_length_c 8.865171
_cell_angle_alpha 90.000000
_cell_angle_beta 90.000000
_cell_angle_gamma 90.000000
_cell_volume 5530.658974
_symmetry_space_group_name_H-M "P 4/M M M"
_symmetry_group_IT_number 123
_symmetry_cell_setting 'tetragonal'
loop_
_space_group_symop_operation_xyz
x,y,z
-y,x,z
-x,-y,z
y,-x,z
x,-y,-z
-x,y,-z
y,x,-z
-y,-x,-z
-x,-y,-z
y,-x,-z
x,y,-z
-y,x,-z
-x,y,z
x,-y,z
-y,-x,z
y,x,z
loop_
_atom_site_type_symbol
_atom_site_label
_atom_site_fract_x
_atom_site_fract_y
_atom_site_fract_z
Si Si1 0.697158 0.000000 0.672685
Si Si2 0.115612 0.561093 0.678664
Si Si3 0.653949 0.813488 0.173729
Si Si4 0.000000 0.584848 0.822650
Si Si5 0.175173 0.824828 0.324816
Si Si6 0.097342 0.252124 0.827333
Si Si7 0.732669 0.267331 0.673883
O O1 0.647901 0.000000 0.788192
O O2 0.731219 0.948225 0.711697
O O3 0.678089 0.000000 0.500000
O O4 0.110120 0.571094 0.500000
O O5 0.134174 0.500000 0.701940
O O6 0.157536 0.603861 0.745781
O O7 0.056035 0.565433 0.750751
O O8 0.700541 0.858571 0.174464
O O9 0.681291 0.760986 0.248451
O O10 0.640320 0.802013 0.000000
O O11 0.000000 0.573276 0.000000
O O12 0.163605 0.836396 0.500000
O O13 0.125979 0.800434 0.233999
O O14 0.221296 0.778705 0.323857
O O15 0.078224 0.246944 0.000000
O O16 0.720501 0.279499 0.500000
#
# Coordination Sequence:
#
# PCOD9561836 Si02
#       7
#     8  16  16   8   8  16   8
#     4  12  22  31  47  66  88 116 147 184 223 268
#     4  11  23  36  49  65  87 118 157 198 236 273
#     4  10  19  31  48  67  89 114 147 186 227 272
#     4  12  23  35  48  63  84 116 155 197 237 274
#     4   9  17  29  45  65  87 112 140 171 213 265
#     4  10  19  31  46  65  88 113 142 178 220 267
#     4   9  17  29  47  67  89 113 142 179 223 272
#
# _framework density 14.464822
#
# number of rings (size 3 to 8) (size 9 to 14) (size 15 to 20)
#    0.000    1.600    2.000    4.500    0.000    6.800 
#    0.000    0.000    0.000    0.000    0.000    0.000 
#    0.000    0.400    0.000    4.000    0.000    2.900 
#
# Total GULP energy -446120.952298 kJ/mol
# GULP energy per Si atom -5576.511904 kJ/mol
# Density = 1.443190 g / cm^3
# Si number density = 14.464822 Si / 1000 Ang^3
#
#
#
# Elastic Constant Matrix: (Units=GPa)
#
#
# Indices 1 2 3 4 5 6 
#
# 1 56.3461 45.9782 40.1000 0.0000 0.0000 0.0000
# 2 45.9782 56.3460 40.1000 0.0000 0.0000 0.0000
# 3 40.1000 40.1000 111.9799 0.0000 0.0000 0.0000
# 4 0.0000 0.0000 0.0000 13.0919 0.0000 0.0000
# 5 0.0000 0.0000 0.0000 0.0000 13.0919 0.0000
# 6 0.0000 0.0000 0.0000 0.0000 0.0000 142.6177
#
#
#
# Elastic Compliance Matrix: (Units=1/GPa)
#
#
# Indices 1 2 3 4 5 6 
#
# 1 0.055019 -0.041433 -0.004865 0.000000 0.000000 0.000000
# 2 -0.041433 0.055019 -0.004865 0.000000 0.000000 0.000000
# 3 -0.004865 -0.004865 0.012415 0.000000 0.000000 0.000000
# 4 0.000000 0.000000 0.000000 0.076383 0.000000 0.000000
# 5 0.000000 0.000000 0.000000 0.000000 0.076383 0.000000
# 6 0.000000 0.000000 0.000000 0.000000 0.000000 0.007012
#
#
# Mechanical properties :
#
#
# Convention : Reuss Voigt Hill
#
# Bulk Modulus (GPa) = 49.68674 53.00316 51.34495
# Shear Modulus (GPa) = 12.77905 40.32657 26.55281
#
# Velocity S-wave (km/s) = 2.97553 5.28579 4.28913
# Velocity P-wave (km/s) = 6.79924 8.60088 7.75257
#
# Compressibility (1/GPa) = 0.02012609
#
# Stress axis : x y z
#
# Youngs Moduli (GPa) = 18.17555 18.17553 80.55020
#
# Poissons Ratio (x) = 0.75306 0.39189
# Poissons Ratio (y) = 0.75307 0.39189
# Poissons Ratio (z) = 0.08843 0.08843
#
# Static dielectric constant tensor:
#      x y z
#    x 1.477740 0.000000 0.000000 
#    y 0.000000 1.477740 0.000000 
#    z 0.000000 0.000000 1.494710 
# 
# From -- ./inp_files/1531.got.cif
#   From: 2010.05.17/outbox.cif.g08.bks.cpg/sg123_1_cif.got.tgz:1531.got - 2010.05.20 11:43:04.
