data_PCOD9561399
_publ_section_title
;
Structure prediction by ZEFSAII (Michael W. Deem and Ramdas Pophale) SiO2 
 PCOD9561399
Probable space group: I -4 2 D
;
_chemical_formula_sum "Si O2"
_cell_formula_units_Z 52
_cell_length_a 21.079383
_cell_length_b 21.079383
_cell_length_c 4.914761
_cell_angle_alpha 90.000000
_cell_angle_beta 90.000000
_cell_angle_gamma 90.000000
_cell_volume 2183.826808
_symmetry_space_group_name_H-M "I -4 2 D"
_symmetry_group_IT_number 122
_symmetry_cell_setting 'tetragonal'
loop_
_space_group_symop_operation_xyz
x,y,z
y,-x,-z
-x,-y,z
-y,x,-z
x,1/2-y,1/4-z
-x,1/2+y,1/4-z
-y,1/2-x,1/4+z
y,1/2+x,1/4+z
1/2+x,1/2+y,1/2+z
1/2+y,1/2-x,1/2-z
1/2-x,1/2-y,1/2+z
1/2-y,1/2+x,1/2-z
1/2+x,-y,3/4-z
1/2-x,y,3/4-z
1/2-y,-x,3/4+z
1/2+y,x,3/4+z
loop_
_atom_site_type_symbol
_atom_site_label
_atom_site_fract_x
_atom_site_fract_y
_atom_site_fract_z
Si Si1 0.523717 0.815848 0.600477
Si Si2 0.616968 0.292162 0.857016
Si Si3 0.000000 0.500000 0.250000
Si Si4 0.060516 0.114003 0.657729
O O1 0.562056 0.750000 0.625000
O O2 0.458320 0.798047 0.455073
O O3 0.517682 0.839958 0.907223
O O4 0.550969 0.871703 0.410954
O O5 0.648298 0.250000 0.625000
O O6 0.633751 0.365942 0.816464
O O7 0.625796 0.250000 0.125000
O O8 0.960317 0.547222 0.453715
#
# Coordination Sequence:
#
# PCOD9561399 Si02
#       4
#    16  16   4  16
#     4  11  24  43  66  96 135 192 236 280 347 434
#     4  11  23  41  65  95 135 187 238 275 345 434
#     4  12  28  42  68 126 148 186 212 298 416 426
#     4  12  25  42  69 100 150 174 228 302 356 441
#
# _framework density 23.811411
#
# number of rings (size 3 to 8) (size 9 to 14) (size 15 to 20)
#    0.000    0.615    3.077    6.462    4.308    1.231 
#    0.000    0.000    0.000   18.462    0.000    0.000 
#    0.000    0.000    0.000    0.000    0.000    0.000 
#
# Total GULP energy -144819.100840 kJ/mol
# GULP energy per Si atom -5569.965417 kJ/mol
# Density = 2.375721 g / cm^3
# Si number density = 23.811411 Si / 1000 Ang^3
#
#
#
# Elastic Constant Matrix: (Units=GPa)
#
#
# Indices 1 2 3 4 5 6 
#
# 1 63.6981 -18.3598 10.1248 0.0000 0.0000 0.0000
# 2 -18.3598 63.6981 10.1248 0.0000 0.0000 0.0000
# 3 10.1248 10.1248 120.2656 0.0000 0.0000 0.0000
# 4 0.0000 0.0000 0.0000 30.9780 0.0000 0.0000
# 5 0.0000 0.0000 0.0000 0.0000 30.9780 0.0000
# 6 0.0000 0.0000 0.0000 0.0000 0.0000 -0.2871
#
#
#
# Elastic Compliance Matrix: (Units=1/GPa)
#
#
# Indices 1 2 3 4 5 6 
#
# 1 0.017552 0.005366 -0.001929 0.000000 0.000000 0.000000
# 2 0.005366 0.017552 -0.001929 0.000000 0.000000 0.000000
# 3 -0.001929 -0.001929 0.008640 0.000000 0.000000 0.000000
# 4 0.000000 0.000000 0.000000 0.032281 0.000000 0.000000
# 5 0.000000 0.000000 0.000000 0.000000 0.032281 0.000000
# 6 0.000000 0.000000 0.000000 0.000000 0.000000 -3.482921
#
#
# Mechanical properties :
#
#
# Convention : Reuss Voigt Hill
#
# Bulk Modulus (GPa) = 21.38650 27.93791 24.66221
# Shear Modulus (GPa) = -1.48719 28.71857 13.61569
#
# Velocity S-wave (km/s) = -0.79116 3.47664 2.39386
# Velocity P-wave (km/s) = 2.85772 5.27963 4.24506
#
# Compressibility (1/GPa) = 0.04675846
#
# Stress axis : x y z
#
# Youngs Moduli (GPa) = 56.97248 56.97248 115.74357
#
# Poissons Ratio (x) = -0.30570 0.22332
# Poissons Ratio (y) = -0.30570 0.22332
# Poissons Ratio (z) = 0.10992 0.10992
#
# Static dielectric constant tensor:
#      x y z
#    x 2.074270 0.000000 0.000000 
#    y 0.000000 2.074270 0.000000 
#    z 0.000000 0.000000 1.883120 
# 
# From -- ./inp_files/860.got.cif
#   From: 2010.05.17/outbox.cif.g08.bks.cpg/sg122_1_cif.got.tgz:860.got - 2010.05.20 11:37:33.
