data_PCOD9561286
_publ_section_title
;
Structure prediction by ZEFSAII (Michael W. Deem and Ramdas Pophale) SiO2 
 PCOD9561286
Probable space group: I -4 2 D
;
_chemical_formula_sum "Si O2"
_cell_formula_units_Z 56
_cell_length_a 17.765016
_cell_length_b 17.765016
_cell_length_c 6.335271
_cell_angle_alpha 90.000000
_cell_angle_beta 90.000000
_cell_angle_gamma 90.000000
_cell_volume 1999.384878
_symmetry_space_group_name_H-M "I -4 2 D"
_symmetry_group_IT_number 122
_symmetry_cell_setting 'tetragonal'
loop_
_space_group_symop_operation_xyz
x,y,z
y,-x,-z
-x,-y,z
-y,x,-z
x,1/2-y,1/4-z
-x,1/2+y,1/4-z
-y,1/2-x,1/4+z
y,1/2+x,1/4+z
1/2+x,1/2+y,1/2+z
1/2+y,1/2-x,1/2-z
1/2-x,1/2-y,1/2+z
1/2-y,1/2+x,1/2-z
1/2+x,-y,3/4-z
1/2-x,y,3/4-z
1/2-y,-x,3/4+z
1/2+y,x,3/4+z
loop_
_atom_site_type_symbol
_atom_site_label
_atom_site_fract_x
_atom_site_fract_y
_atom_site_fract_z
Si Si1 0.822796 0.447374 0.326462
Si Si2 0.577697 0.311592 0.931081
Si Si3 0.476187 0.585848 0.243414
Si Si4 0.250000 0.721365 0.875000
O O1 0.750000 0.397326 0.375000
O O2 0.806189 0.516394 0.491859
O O3 0.896896 0.403455 0.388774
O O4 0.849090 0.473113 0.096171
O O5 0.664858 0.313738 0.868016
O O6 0.570595 0.250000 0.125000
O O7 0.550472 0.392984 0.012845
O O8 0.500000 0.500000 0.281331
O O9 0.247554 0.750000 0.625000
#
# Coordination Sequence:
#
# PCOD9561286 Si02
#       4
#    16  16  16   8
#     4  12  25  47  78 107 156 208 275 337 424 499
#     4  11  26  47  81 115 158 211 278 344 425 511
#     4  12  27  49  76 114 159 215 273 349 422 503
#     4  10  24  48  84 126 172 218 278 358 436 512
#
# _framework density 28.008613
#
# number of rings (size 3 to 8) (size 9 to 14) (size 15 to 20)
#    0.000    0.571    5.714    0.857    8.000    3.429 
#    5.143    0.000    0.000    0.000    0.000    0.000 
#    0.000    0.000    0.000    0.000    0.000    0.000 
#
# Total GULP energy -156030.798725 kJ/mol
# GULP energy per Si atom -5572.528526 kJ/mol
# Density = 2.794486 g / cm^3
# Si number density = 28.008613 Si / 1000 Ang^3
#
#
#
# Elastic Constant Matrix: (Units=GPa)
#
#
# Indices 1 2 3 4 5 6 
#
# 1 101.7084 -9.5984 42.4866 0.0000 0.0000 0.0000
# 2 -9.5984 101.7084 42.4866 0.0000 0.0000 0.0000
# 3 42.4866 42.4866 123.6578 0.0000 0.0000 0.0000
# 4 0.0000 0.0000 0.0000 55.9300 0.0000 0.0000
# 5 0.0000 0.0000 0.0000 0.0000 55.9300 0.0000
# 6 0.0000 0.0000 0.0000 0.0000 0.0000 38.1929
#
#
#
# Elastic Compliance Matrix: (Units=1/GPa)
#
#
# Indices 1 2 3 4 5 6 
#
# 1 0.012439 0.003455 -0.005461 0.000000 0.000000 0.000000
# 2 0.003455 0.012439 -0.005461 0.000000 0.000000 0.000000
# 3 -0.005461 -0.005461 0.011839 0.000000 0.000000 0.000000
# 4 0.000000 0.000000 0.000000 0.017879 0.000000 0.000000
# 5 0.000000 0.000000 0.000000 0.000000 0.017879 0.000000
# 6 0.000000 0.000000 0.000000 0.000000 0.000000 0.026183
#
#
# Mechanical properties :
#
#
# Convention : Reuss Voigt Hill
#
# Bulk Modulus (GPa) = 45.90474 53.09159 49.49816
# Shear Modulus (GPa) = 41.37173 46.79056 44.08114
#
# Velocity S-wave (km/s) = 3.84749 4.09170 3.97147
# Velocity P-wave (km/s) = 6.01354 6.42801 6.22422
#
# Compressibility (1/GPa) = 0.02178424
#
# Stress axis : x y z
#
# Youngs Moduli (GPa) = 80.38998 80.38998 84.46305
#
# Poissons Ratio (x) = -0.27776 0.46126
# Poissons Ratio (y) = -0.27776 0.46126
# Poissons Ratio (z) = 0.43902 0.43902
#
# Static dielectric constant tensor:
#      x y z
#    x 2.523670 0.000000 0.000000 
#    y 0.000000 2.523670 0.000000 
#    z 0.000000 0.000000 2.309110 
# 
# From -- ./inp_files/850.got.cif
#   From: 2010.05.17/outbox.cif.g08.bks.cpg/sg122_1_cif.got.tgz:850.got - 2010.05.20 11:37:33.
