data_PCOD9561869
_publ_section_title
;
Structure prediction by ZEFSAII (Michael W. Deem and Ramdas Pophale) SiO2 
 PCOD9561869
Probable space group: P 4/M M M
;
_chemical_formula_sum "Si O2"
_cell_formula_units_Z 96
_cell_length_a 21.395913
_cell_length_b 21.395913
_cell_length_c 12.432145
_cell_angle_alpha 90.000000
_cell_angle_beta 90.000000
_cell_angle_gamma 90.000000
_cell_volume 5691.250656
_symmetry_space_group_name_H-M "P 4/M M M"
_symmetry_group_IT_number 123
_symmetry_cell_setting 'tetragonal'
loop_
_space_group_symop_operation_xyz
x,y,z
-y,x,z
-x,-y,z
y,-x,z
x,-y,-z
-x,y,-z
y,x,-z
-y,-x,-z
-x,-y,-z
y,-x,-z
x,y,-z
-y,x,-z
-x,y,z
x,-y,z
-y,-x,z
y,x,z
loop_
_atom_site_type_symbol
_atom_site_label
_atom_site_fract_x
_atom_site_fract_y
_atom_site_fract_z
Si Si1 0.673836 0.570719 0.265832
Si Si2 0.682371 0.100793 0.125878
Si Si3 0.573940 0.847239 0.500000
Si Si4 0.245046 0.349918 0.121344
Si Si5 0.571322 0.928336 0.288097
Si Si6 0.709659 0.389838 0.500000
Si Si7 0.825638 0.928733 0.130673
O O1 0.661811 0.500000 0.234581
O O2 0.616145 0.616145 0.238476
O O3 0.734615 0.598161 0.206235
O O4 0.686134 0.576180 0.392810
O O5 0.675238 0.175502 0.131874
O O6 0.625074 0.076766 0.198224
O O7 0.752811 0.082776 0.161569
O O8 0.675603 0.081890 0.000000
O O9 0.500000 0.830683 0.500000
O O10 0.585645 0.885815 0.391360
O O11 0.612156 0.783703 0.500000
O O12 0.292284 0.292284 0.134935
O O13 0.252976 0.374712 0.000000
O O14 0.500000 0.912898 0.249662
O O15 0.569805 0.000000 0.324969
O O16 0.678056 0.321945 0.500000
O O17 0.875084 0.875084 0.166680
O O18 0.843313 0.000000 0.161907
O O19 0.825975 0.926336 0.000000
#
# Coordination Sequence:
#
# PCOD9561869 Si02
#       7
#    16  16   8  16  16   8  16
#     4  10  20  33  49  69  94 124 157 196 243 291
#     4  10  19  31  49  72  99 131 163 195 239 294
#     4  10  19  34  56  73  89 121 161 197 235 279
#     4   9  18  32  49  69  93 121 156 199 240 278
#     4  10  21  35  50  70  96 126 162 201 237 276
#     4  10  20  33  50  73  97 117 143 187 240 288
#     4   9  17  29  46  69  98 132 168 204 242 288
#
# _framework density 16.867996999999999
#
# number of rings (size 3 to 8) (size 9 to 14) (size 15 to 20)
#    0.000    2.333    0.000    3.000    0.000    7.000 
#    0.000    4.167    0.000    1.500    0.000    2.333 
#    0.000    0.000    0.000    0.000    0.000    5.167 
#
# Total GULP energy -535066.989221 kJ/mol
# GULP energy per Si atom -5573.614471 kJ/mol
# Density = 1.682960 g / cm^3
# Si number density = 16.867997 Si / 1000 Ang^3
#
#
#
# Elastic Constant Matrix: (Units=GPa)
#
#
# Indices 1 2 3 4 5 6 
#
# 1 109.9906 43.8433 29.6494 0.0000 0.0000 0.0000
# 2 43.8433 109.9906 29.6495 0.0000 0.0000 0.0000
# 3 29.6494 29.6495 33.5320 0.0000 0.0000 0.0000
# 4 0.0000 0.0000 0.0000 8.9974 0.0000 0.0000
# 5 0.0000 0.0000 0.0000 0.0000 8.9973 0.0000
# 6 0.0000 0.0000 0.0000 0.0000 0.0000 18.6962
#
#
#
# Elastic Compliance Matrix: (Units=1/GPa)
#
#
# Indices 1 2 3 4 5 6 
#
# 1 0.012490 -0.002628 -0.008720 0.000000 0.000000 0.000000
# 2 -0.002628 0.012490 -0.008720 0.000000 0.000000 0.000000
# 3 -0.008720 -0.008720 0.045243 0.000000 0.000000 0.000000
# 4 0.000000 0.000000 0.000000 0.111143 0.000000 0.000000
# 5 0.000000 0.000000 0.000000 0.000000 0.111145 0.000000
# 6 0.000000 0.000000 0.000000 0.000000 0.000000 0.053487
#
#
# Mechanical properties :
#
#
# Convention : Reuss Voigt Hill
#
# Bulk Modulus (GPa) = 33.23726 51.08861 42.16294
# Shear Modulus (GPa) = 12.62112 17.36293 14.99202
#
# Velocity S-wave (km/s) = 2.73834 3.21182 2.98448
# Velocity P-wave (km/s) = 5.45391 6.64134 6.07670
#
# Compressibility (1/GPa) = 0.03008671
#
# Stress axis : x y z
#
# Youngs Moduli (GPa) = 80.06542 80.06524 22.10290
#
# Poissons Ratio (x) = 0.21041 0.19274
# Poissons Ratio (y) = 0.21041 0.19274
# Poissons Ratio (z) = 0.69817 0.69817
#
# Static dielectric constant tensor:
#      x y z
#    x 1.578640 0.000000 0.000000 
#    y 0.000000 1.578640 0.000000 
#    z 0.000000 0.000000 1.563010 
# 
# From -- ./inp_files/3213.got.cif
#   From: 2010.05.17/outbox.cif.g08.bks.cpg/sg123_2_cif.got.tgz:3213.got - 2010.05.20 11:43:04.
