data_PCOD9561313
_publ_section_title
;
Structure prediction by ZEFSAII (Michael W. Deem and Ramdas Pophale) SiO2 
 PCOD9561313
Probable space group: I -4 2 D
;
_chemical_formula_sum "Si O2"
_cell_formula_units_Z 40
_cell_length_a 12.741263
_cell_length_b 12.741263
_cell_length_c 9.533767
_cell_angle_alpha 90.000000
_cell_angle_beta 90.000000
_cell_angle_gamma 90.000000
_cell_volume 1547.709664
_symmetry_space_group_name_H-M "I -4 2 D"
_symmetry_group_IT_number 122
_symmetry_cell_setting 'tetragonal'
loop_
_space_group_symop_operation_xyz
x,y,z
y,-x,-z
-x,-y,z
-y,x,-z
x,1/2-y,1/4-z
-x,1/2+y,1/4-z
-y,1/2-x,1/4+z
y,1/2+x,1/4+z
1/2+x,1/2+y,1/2+z
1/2+y,1/2-x,1/2-z
1/2-x,1/2-y,1/2+z
1/2-y,1/2+x,1/2-z
1/2+x,-y,3/4-z
1/2-x,y,3/4-z
1/2-y,-x,3/4+z
1/2+y,x,3/4+z
loop_
_atom_site_type_symbol
_atom_site_label
_atom_site_fract_x
_atom_site_fract_y
_atom_site_fract_z
Si Si1 0.557725 0.250000 0.625000
Si Si2 0.413251 0.268843 0.288913
Si Si3 0.416729 0.089317 0.517211
O O1 0.643831 0.323333 0.700929
O O2 0.469999 0.156698 0.640470
O O3 0.394903 0.169103 0.389182
O O4 0.528600 0.315751 0.323766
O O5 0.421121 0.250000 0.125000
O O6 0.500000 0.000000 0.471030
#
# Coordination Sequence:
#
# PCOD9561313 Si02
#       3
#     8  16  16
#     4  10  26  48  76 110 150 208 262 326 396 476
#     4  11  27  46  81 113 158 206 263 331 399 480
#     4  10  26  48  73 114 158 203 265 327 400 477
#
# _framework density 25.844639000000001
#
# number of rings (size 3 to 8) (size 9 to 14) (size 15 to 20)
#    0.000    1.600    0.000    0.000   19.600    0.000 
#    0.000    0.000    0.000    0.000    0.000    0.000 
#    0.000    0.000    0.000    0.000    0.000    0.000 
#
# Total GULP energy -111538.939981 kJ/mol
# GULP energy per Si atom -5576.946999 kJ/mol
# Density = 2.578582 g / cm^3
# Si number density = 25.844639 Si / 1000 Ang^3
#
#
#
# Elastic Constant Matrix: (Units=GPa)
#
#
# Indices 1 2 3 4 5 6 
#
# 1 46.8814 161.7362 60.1856 0.0000 0.0000 0.0000
# 2 161.7362 46.8814 60.1856 0.0000 0.0000 0.0000
# 3 60.1856 60.1856 139.2777 0.0000 0.0000 0.0000
# 4 0.0000 0.0000 0.0000 -3.2845 0.0000 0.0000
# 5 0.0000 0.0000 0.0000 0.0000 -3.2845 0.0000
# 6 0.0000 0.0000 0.0000 0.0000 0.0000 47.5245
#
#
#
# Elastic Compliance Matrix: (Units=1/GPa)
#
#
# Indices 1 2 3 4 5 6 
#
# 1 -0.001161 0.007546 -0.002759 0.000000 0.000000 0.000000
# 2 0.007546 -0.001161 -0.002759 0.000000 0.000000 0.000000
# 3 -0.002759 -0.002759 0.009565 0.000000 0.000000 0.000000
# 4 0.000000 0.000000 0.000000 -0.304462 0.000000 0.000000
# 5 0.000000 0.000000 0.000000 0.000000 -0.304462 0.000000
# 6 0.000000 0.000000 0.000000 0.000000 0.000000 0.021042
#
#
# Mechanical properties :
#
#
# Convention : Reuss Voigt Hill
#
# Bulk Modulus (GPa) = 88.50836 88.58393 88.54614
# Shear Modulus (GPa) = -8.60694 4.91997 -1.84349
#
# Velocity S-wave (km/s) = -1.82688 1.38123 -0.84548
# Velocity P-wave (km/s) = 5.46541 6.07402 5.77773
#
# Compressibility (1/GPa) = 0.01129837
#
# Stress axis : x y z
#
# Youngs Moduli (GPa) = -861.68659 -861.68659 104.55088
#
# Poissons Ratio (x) = 6.50240 0.28850
# Poissons Ratio (y) = 6.50240 0.28850
# Poissons Ratio (z) = -2.37773 -2.37773
#
# Static dielectric constant tensor:
#      x y z
#    x 2.104420 0.000000 0.000000 
#    y 0.000000 2.104420 0.000000 
#    z 0.000000 0.000000 2.140100 
# 
# From -- ./inp_files/1804.got.cif
#   From: 2010.05.17/outbox.cif.g08.bks.cpg/sg122_1_cif.got.tgz:1804.got - 2010.05.20 11:37:33.
