data_PCOD9561853
_publ_section_title
;
Structure prediction by ZEFSAII (Michael W. Deem and Ramdas Pophale) SiO2 
 PCOD9561853
Probable space group: P 4/M M M
;
_chemical_formula_sum "Si O2"
_cell_formula_units_Z 128
_cell_length_a 18.133902
_cell_length_b 18.133902
_cell_length_c 24.193262
_cell_angle_alpha 90.000000
_cell_angle_beta 90.000000
_cell_angle_gamma 90.000000
_cell_volume 7955.673609
_symmetry_space_group_name_H-M "P 4/M M M"
_symmetry_group_IT_number 123
_symmetry_cell_setting 'tetragonal'
loop_
_space_group_symop_operation_xyz
x,y,z
-y,x,z
-x,-y,z
y,-x,z
x,-y,-z
-x,y,-z
y,x,-z
-y,-x,-z
-x,-y,-z
y,-x,-z
x,y,-z
-y,x,-z
-x,y,z
x,-y,z
-y,-x,z
y,x,z
loop_
_atom_site_type_symbol
_atom_site_label
_atom_site_fract_x
_atom_site_fract_y
_atom_site_fract_z
Si Si1 0.585572 0.707503 0.934132
Si Si2 0.207925 0.084401 0.675238
Si Si3 0.792233 0.085702 0.065801
Si Si4 0.583815 0.217246 0.562757
Si Si5 0.735898 0.858269 0.437554
Si Si6 0.294028 0.414618 0.323086
Si Si7 0.313283 0.186705 0.741663
Si Si8 0.813240 0.313483 0.131525
O O1 0.500000 0.694952 0.921260
O O2 0.636230 0.636230 0.921409
O O3 0.619078 0.776304 0.900994
O O4 0.592439 0.721004 0.000000
O O5 0.137144 0.137144 0.683925
O O6 0.231849 0.092512 0.611134
O O7 0.275133 0.118795 0.710479
O O8 0.193412 0.000000 0.689353
O O9 0.863684 0.136317 0.078222
O O10 0.723812 0.119006 0.099546
O O11 0.804921 0.000000 0.078269
O O12 0.778072 0.092949 0.000000
O O13 0.592210 0.246697 0.500000
O O14 0.500000 0.187308 0.567189
O O15 0.649573 0.158812 0.570085
O O16 0.591675 0.276101 0.611608
O O17 0.748130 0.885895 0.500000
O O18 0.780327 0.780327 0.432906
O O19 0.304833 0.500000 0.309281
O O20 0.364212 0.364212 0.309491
O O21 0.223501 0.380605 0.291310
O O22 0.250269 0.250269 0.741438
O O23 0.331666 0.169621 0.805043
O O24 0.749943 0.250058 0.131567
#
# Coordination Sequence:
#
# PCOD9561853 Si02
#       8
#    16  16  16  16  16  16  16  16
#     4   9  17  29  47  73 103 133 165 202 245 290
#     4  10  20  34  52  74  99 124 154 194 241 295
#     4   9  17  29  47  73 103 132 160 191 230 277
#     4   9  16  26  45  72  98 125 160 202 243 282
#     4   9  16  28  48  70  94 127 166 202 236 285
#     4  10  19  31  48  70  98 129 162 201 242 285
#     4   9  18  33  50  68  90 123 167 206 238 277
#     4   9  17  30  49  69  92 125 166 206 239 275
#
# _framework density 16.089147000000001
#
# number of rings (size 3 to 8) (size 9 to 14) (size 15 to 20)
#    0.000    2.750    1.250    0.750    0.000    4.000 
#    0.000    1.250    0.000    1.875    0.000   15.750 
#    0.000    0.000    0.000    0.000    0.000    0.000 
#
# Total GULP energy -712815.750084 kJ/mol
# GULP energy per Si atom -5568.873048 kJ/mol
# Density = 1.605253 g / cm^3
# Si number density = 16.089147 Si / 1000 Ang^3
#
#
#
# Elastic Constant Matrix: (Units=GPa)
#
#
# Indices 1 2 3 4 5 6 
#
# 1 85.4452 58.9110 48.1932 0.0000 0.0000 0.0000
# 2 58.9110 85.4452 48.1932 0.0000 0.0000 0.0000
# 3 48.1932 48.1932 74.1218 0.0000 0.0000 0.0000
# 4 0.0000 0.0000 0.0000 12.0245 0.0000 0.0000
# 5 0.0000 0.0000 0.0000 0.0000 12.0245 0.0000
# 6 0.0000 0.0000 0.0000 0.0000 0.0000 12.1427
#
#
#
# Elastic Compliance Matrix: (Units=1/GPa)
#
#
# Indices 1 2 3 4 5 6 
#
# 1 0.024965 -0.012723 -0.007960 0.000000 0.000000 0.000000
# 2 -0.012723 0.024965 -0.007960 0.000000 0.000000 0.000000
# 3 -0.007960 -0.007960 0.023842 0.000000 0.000000 0.000000
# 4 0.000000 0.000000 0.000000 0.083163 0.000000 0.000000
# 5 0.000000 0.000000 0.000000 0.000000 0.083163 0.000000
# 6 0.000000 0.000000 0.000000 0.000000 0.000000 0.082354
#
#
# Mechanical properties :
#
#
# Convention : Reuss Voigt Hill
#
# Bulk Modulus (GPa) = 60.65268 61.73414 61.19341
# Shear Modulus (GPa) = 12.97924 13.21934 13.09929
#
# Velocity S-wave (km/s) = 2.84334 2.86952 2.85646
# Velocity P-wave (km/s) = 6.96844 7.03080 6.99969
#
# Compressibility (1/GPa) = 0.01648732
#
# Stress axis : x y z
#
# Youngs Moduli (GPa) = 40.05683 40.05683 41.94322
#
# Poissons Ratio (x) = 0.50963 0.33385
# Poissons Ratio (y) = 0.50963 0.33385
# Poissons Ratio (z) = 0.31883 0.31883
#
# Static dielectric constant tensor:
#      x y z
#    x 1.523930 0.000000 0.000000 
#    y 0.000000 1.523930 0.000000 
#    z 0.000000 0.000000 1.556660 
# 
# From -- ./inp_files/7668.got.cif
#   From: 2010.05.17/outbox.cif.g08.bks.cpg/sg123_4_cif.got.tgz:7668.got - 2010.05.20 11:43:04.
