data_PCOD9561529
_publ_section_title
;
Structure prediction by ZEFSAII (Michael W. Deem and Ramdas Pophale) SiO2 
 PCOD9561529
Probable space group: I -4 2 D
;
_chemical_formula_sum "Si O2"
_cell_formula_units_Z 112
_cell_length_a 14.551596
_cell_length_b 14.551596
_cell_length_c 23.209653
_cell_angle_alpha 90.000000
_cell_angle_beta 90.000000
_cell_angle_gamma 90.000000
_cell_volume 4914.619563
_symmetry_space_group_name_H-M "I -4 2 D"
_symmetry_group_IT_number 122
_symmetry_cell_setting 'tetragonal'
loop_
_space_group_symop_operation_xyz
x,y,z
y,-x,-z
-x,-y,z
-y,x,-z
x,1/2-y,1/4-z
-x,1/2+y,1/4-z
-y,1/2-x,1/4+z
y,1/2+x,1/4+z
1/2+x,1/2+y,1/2+z
1/2+y,1/2-x,1/2-z
1/2-x,1/2-y,1/2+z
1/2-y,1/2+x,1/2-z
1/2+x,-y,3/4-z
1/2-x,y,3/4-z
1/2-y,-x,3/4+z
1/2+y,x,3/4+z
loop_
_atom_site_type_symbol
_atom_site_label
_atom_site_fract_x
_atom_site_fract_y
_atom_site_fract_z
Si Si1 0.705951 0.349240 0.716972
Si Si2 0.261321 0.176391 0.665015
Si Si3 0.000000 0.000000 0.684071
Si Si4 0.087033 0.123217 0.588263
Si Si5 0.943768 0.371975 0.476064
Si Si6 0.182851 0.411290 0.774408
Si Si7 0.942400 0.589510 0.152972
Si Si8 0.423826 0.750000 0.625000
O O1 0.701940 0.294526 0.777592
O O2 0.664110 0.450777 0.725233
O O3 0.814334 0.352030 0.699379
O O4 0.642569 0.300025 0.670420
O O5 0.315399 0.250000 0.625000
O O6 0.182454 0.153392 0.617700
O O7 0.342152 0.105296 0.681437
O O8 0.930144 0.049653 0.726599
O O9 0.043950 0.070771 0.641143
O O10 0.118627 0.069215 0.531159
O O11 0.001733 0.185068 0.564734
O O12 0.890810 0.283196 0.498580
O O13 0.923174 0.413659 0.414270
O O14 0.000000 0.500000 0.171337
O O15 0.011065 0.675548 0.156083
#
# Coordination Sequence:
#
# PCOD9561529 Si02
#       8
#    16  16   8  16  16  16  16   8
#     4  12  26  51  76 110 157 204 252 325 393 465
#     4  12  23  49  80 110 151 206 257 315 394 472
#     4  12  26  39  68 106 148 203 254 312 372 474
#     4  12  25  42  70 113 154 203 254 310 385 477
#     4  12  23  47  74 102 149 200 258 312 391 465
#     4  12  25  45  73 109 159 199 245 315 387 468
#     4  12  25  49  80 104 143 202 258 325 388 445
#     4  12  28  52  76 108 150 198 264 324 378 452
#
# _framework density 22.789151
#
# number of rings (size 3 to 8) (size 9 to 14) (size 15 to 20)
#    0.000    0.000    8.571    0.857    0.000    1.143 
#    5.143    0.000    0.000    0.000    0.000    0.000 
#    0.000    0.000    0.000    0.000    0.000    0.000 
#
# Total GULP energy -312687.284004 kJ/mol
# GULP energy per Si atom -5583.701500 kJ/mol
# Density = 2.273728 g / cm^3
# Si number density = 22.789151 Si / 1000 Ang^3
#
#
#
# Elastic Constant Matrix: (Units=GPa)
#
#
# Indices 1 2 3 4 5 6 
#
# 1 89.7541 6.0707 9.6128 0.0000 0.0000 0.0000
# 2 6.0707 89.7541 9.6128 0.0000 0.0000 0.0000
# 3 9.6128 9.6128 54.5108 0.0000 0.0000 0.0000
# 4 0.0000 0.0000 0.0000 64.3945 0.0000 0.0000
# 5 0.0000 0.0000 0.0000 0.0000 64.3945 0.0000
# 6 0.0000 0.0000 0.0000 0.0000 0.0000 35.3070
#
#
#
# Elastic Compliance Matrix: (Units=1/GPa)
#
#
# Indices 1 2 3 4 5 6 
#
# 1 0.011384 -0.000566 -0.001908 0.000000 0.000000 0.000000
# 2 -0.000566 0.011384 -0.001908 0.000000 0.000000 0.000000
# 3 -0.001908 -0.001908 0.019018 0.000000 0.000000 0.000000
# 4 0.000000 0.000000 0.000000 0.015529 0.000000 0.000000
# 5 0.000000 0.000000 0.000000 0.000000 0.015529 0.000000
# 6 0.000000 0.000000 0.000000 0.000000 0.000000 0.028323
#
#
# Mechanical properties :
#
#
# Convention : Reuss Voigt Hill
#
# Bulk Modulus (GPa) = 30.28135 31.62350 30.95243
# Shear Modulus (GPa) = 41.34347 46.73404 44.03875
#
# Velocity S-wave (km/s) = 4.26393 4.53339 4.40073
# Velocity P-wave (km/s) = 6.12845 6.42720 6.27960
#
# Compressibility (1/GPa) = 0.03302362
#
# Stress axis : x y z
#
# Youngs Moduli (GPa) = 87.84153 87.84153 52.58214
#
# Poissons Ratio (x) = 0.04969 0.10032
# Poissons Ratio (y) = 0.04969 0.10032
# Poissons Ratio (z) = 0.16758 0.16758
#
# Static dielectric constant tensor:
#      x y z
#    x 1.728520 0.000000 0.000000 
#    y 0.000000 1.728520 0.000000 
#    z 0.000000 0.000000 1.793770 
# 
# From -- ./inp_files/8840.got.cif
#   From: 2010.05.17/outbox.cif.g08.bks.cpg/sg122_5_cif.got.tgz:8840.got - 2010.05.20 11:37:33.
