data_PCOD9561614
_publ_section_title
;
Structure prediction by ZEFSAII (Michael W. Deem and Ramdas Pophale) SiO2 
 PCOD9561614
Probable space group: P 4/M M M
;
_chemical_formula_sum "Si O2"
_cell_formula_units_Z 104
_cell_length_a 18.260410
_cell_length_b 18.260410
_cell_length_c 23.310656
_cell_angle_alpha 90.000000
_cell_angle_beta 90.000000
_cell_angle_gamma 90.000000
_cell_volume 7772.765124
_symmetry_space_group_name_H-M "P 4/M M M"
_symmetry_group_IT_number 123
_symmetry_cell_setting 'tetragonal'
loop_
_space_group_symop_operation_xyz
x,y,z
-y,x,z
-x,-y,z
y,-x,z
x,-y,-z
-x,y,-z
y,x,-z
-y,-x,-z
-x,-y,-z
y,-x,-z
x,y,-z
-y,x,-z
-x,y,z
x,-y,z
-y,-x,z
y,x,z
loop_
_atom_site_type_symbol
_atom_site_label
_atom_site_fract_x
_atom_site_fract_y
_atom_site_fract_z
Si Si1 0.700003 0.413750 0.774366
Si Si2 0.335287 0.218754 0.331398
Si Si3 0.914206 0.584753 0.850170
Si Si4 0.413084 0.704210 0.000000
Si Si5 0.703233 0.414742 0.432749
Si Si6 0.086067 0.416038 0.712030
Si Si7 0.226240 0.656916 0.113279
O O1 0.703880 0.500000 0.772916
O O2 0.618144 0.381856 0.774836
O O3 0.739568 0.379555 0.719098
O O4 0.739025 0.383145 0.831281
O O5 0.253454 0.253454 0.329443
O O6 0.371264 0.242190 0.391452
O O7 0.354294 0.134793 0.318232
O O8 0.894707 0.500000 0.865379
O O9 0.906165 0.590375 0.781060
O O10 0.859953 0.642285 0.879703
O O11 0.000000 0.595368 0.863555
O O12 0.382803 0.745199 0.056214
O O13 0.500000 0.701443 0.000000
O O14 0.375704 0.624297 0.000000
O O15 0.722796 0.408322 0.500000
O O16 0.700678 0.500000 0.417485
O O17 0.624830 0.375171 0.425207
O O18 0.109474 0.500000 0.696943
O O19 0.000000 0.409681 0.698870
O O20 0.261424 0.738577 0.112981
#
# Coordination Sequence:
#
# PCOD9561614 Si02
#       7
#    16  16  16   8  16  16  16
#     4  10  18  26  38  54  73  99 128 161 198 231
#     4  10  18  27  41  59  78 101 129 163 202 241
#     4   9  16  26  42  62  82 103 128 162 202 244
#     4  10  20  31  43  57  75 107 144 174 204 234
#     4   9  17  27  38  53  74 103 138 172 204 236
#     4   9  16  25  40  61  82 104 129 160 198 240
#     4  10  19  30  43  58  78 104 133 166 202 241
#
# _framework density 13.380051999999999
#
# number of rings (size 3 to 8) (size 9 to 14) (size 15 to 20)
#    0.000    2.462    1.538    3.692    0.000    0.385 
#    0.000    1.154    0.000    7.385    0.000    2.154 
#    0.000    0.615    0.000    3.385    0.000    4.308 
#
# Total GULP energy -579097.146533 kJ/mol
# GULP energy per Si atom -5568.241794 kJ/mol
# Density = 1.334960 g / cm^3
# Si number density = 13.380052 Si / 1000 Ang^3
#
#
#
# Elastic Constant Matrix: (Units=GPa)
#
#
# Indices 1 2 3 4 5 6 
#
# 1 76.2647 29.3187 12.8428 0.0000 0.0000 0.0000
# 2 29.3187 76.2653 12.8431 0.0000 0.0000 0.0000
# 3 12.8428 12.8431 37.3955 0.0000 0.0000 0.0000
# 4 0.0000 0.0000 0.0000 14.4160 0.0000 0.0000
# 5 0.0000 0.0000 0.0000 0.0000 14.4157 0.0000
# 6 0.0000 0.0000 0.0000 0.0000 0.0000 17.6247
#
#
#
# Elastic Compliance Matrix: (Units=1/GPa)
#
#
# Indices 1 2 3 4 5 6 
#
# 1 0.015818 -0.005483 -0.003549 0.000000 0.000000 0.000000
# 2 -0.005483 0.015818 -0.003549 0.000000 0.000000 0.000000
# 3 -0.003549 -0.003549 0.029179 0.000000 0.000000 0.000000
# 4 0.000000 0.000000 0.000000 0.069367 0.000000 0.000000
# 5 0.000000 0.000000 0.000000 0.000000 0.069369 0.000000
# 6 0.000000 0.000000 0.000000 0.000000 0.000000 0.056739
#
#
# Mechanical properties :
#
#
# Convention : Reuss Voigt Hill
#
# Bulk Modulus (GPa) = 28.04954 33.32608 30.68781
# Shear Modulus (GPa) = 17.04526 18.28600 17.66563
#
# Velocity S-wave (km/s) = 3.57309 3.70085 3.63753
# Velocity P-wave (km/s) = 6.16700 6.57443 6.37397
#
# Compressibility (1/GPa) = 0.03565121
#
# Stress axis : x y z
#
# Youngs Moduli (GPa) = 63.21986 63.22023 34.27110
#
# Poissons Ratio (x) = 0.34665 0.12164
# Poissons Ratio (y) = 0.34664 0.12164
# Poissons Ratio (z) = 0.22438 0.22439
#
# Static dielectric constant tensor:
#      x y z
#    x 1.447090 0.000000 0.000000 
#    y 0.000000 1.447090 0.000000 
#    z 0.000000 0.000000 1.439460 
# 
# From -- ./inp_files/6697.got.cif
#   From: 2010.05.17/outbox.cif.g08.bks.cpg/sg123_4_cif.got.tgz:6697.got - 2010.05.20 11:43:04.
