data_PCOD9561714
_publ_section_title
;
Structure prediction by ZEFSAII (Michael W. Deem and Ramdas Pophale) SiO2 
 PCOD9561714
Probable space group: P 4/M M M
;
_chemical_formula_sum "Si O2"
_cell_formula_units_Z 112
_cell_length_a 21.211557
_cell_length_b 21.211557
_cell_length_c 18.517558
_cell_angle_alpha 90.000000
_cell_angle_beta 90.000000
_cell_angle_gamma 90.000000
_cell_volume 8331.607655
_symmetry_space_group_name_H-M "P 4/M M M"
_symmetry_group_IT_number 123
_symmetry_cell_setting 'tetragonal'
loop_
_space_group_symop_operation_xyz
x,y,z
-y,x,z
-x,-y,z
y,-x,z
x,-y,-z
-x,y,-z
y,x,-z
-y,-x,-z
-x,-y,-z
y,-x,-z
x,y,-z
-y,x,-z
-x,y,z
x,-y,z
-y,-x,z
y,x,z
loop_
_atom_site_type_symbol
_atom_site_label
_atom_site_fract_x
_atom_site_fract_y
_atom_site_fract_z
Si Si1 0.573616 0.321952 0.918459
Si Si2 0.075300 0.429186 0.869885
Si Si3 0.696169 0.142577 0.082769
Si Si4 0.825593 0.071745 0.087364
Si Si5 0.072544 0.423434 0.581018
Si Si6 0.653351 0.245156 0.193083
Si Si7 0.573729 0.850564 0.720763
O O1 0.500000 0.333700 0.909007
O O2 0.614515 0.385486 0.913139
O O3 0.600277 0.274770 0.859157
O O4 0.583623 0.296497 0.000000
O O5 0.093755 0.500000 0.895519
O O6 0.106250 0.370647 0.911207
O O7 0.099592 0.424233 0.787186
O O8 0.000000 0.424840 0.873264
O O9 0.755434 0.098096 0.101739
O O10 0.691811 0.198280 0.140619
O O11 0.705082 0.164607 0.000000
O O12 0.878831 0.121170 0.113004
O O13 0.833690 0.000000 0.113819
O O14 0.830662 0.069741 0.000000
O O15 0.091876 0.403897 0.500000
O O16 0.072128 0.500000 0.581793
O O17 0.116876 0.404490 0.646837
O O18 0.000000 0.403490 0.592683
O O19 0.699518 0.300482 0.218382
O O20 0.618454 0.206150 0.254867
O O21 0.500000 0.831465 0.713767
#
# Coordination Sequence:
#
# PCOD9561714 Si02
#       7
#    16  16  16  16  16  16  16
#     4   9  17  28  41  56  73  94 124 166 214 258
#     4   9  17  27  38  54  77 104 130 156 189 227
#     4  10  19  29  40  53  71  97 130 165 198 233
#     4   9  17  28  41  55  69  86 111 148 195 242
#     4   8  13  22  39  63  86 104 121 142 170 207
#     4  10  19  29  40  53  71  98 131 163 194 230
#     4   9  16  26  40  57  77 100 125 153 185 221
#
# _framework density 13.442784
#
# number of rings (size 3 to 8) (size 9 to 14) (size 15 to 20)
#    0.000    2.857    0.000    2.571    0.000    5.143 
#    0.000    2.143    0.000    0.429    0.000    0.000 
#    0.000    0.000    0.000    0.000    0.000    0.000 
#
# Total GULP energy -623699.187443 kJ/mol
# GULP energy per Si atom -5568.742745 kJ/mol
# Density = 1.341219 g / cm^3
# Si number density = 13.442784 Si / 1000 Ang^3
#
#
#
# Elastic Constant Matrix: (Units=GPa)
#
#
# Indices 1 2 3 4 5 6 
#
# 1 64.0819 29.4911 33.0244 0.0000 0.0000 0.0000
# 2 29.4911 64.0819 33.0244 0.0000 0.0000 0.0000
# 3 33.0244 33.0244 72.3712 0.0000 0.0000 0.0000
# 4 0.0000 0.0000 0.0000 12.2775 0.0000 0.0000
# 5 0.0000 0.0000 0.0000 0.0000 12.2775 0.0000
# 6 0.0000 0.0000 0.0000 0.0000 0.0000 19.1186
#
#
#
# Elastic Compliance Matrix: (Units=1/GPa)
#
#
# Indices 1 2 3 4 5 6 
#
# 1 0.022337 -0.006572 -0.007194 0.000000 0.000000 0.000000
# 2 -0.006572 0.022337 -0.007194 0.000000 0.000000 0.000000
# 3 -0.007194 -0.007194 0.020383 0.000000 0.000000 0.000000
# 4 0.000000 0.000000 0.000000 0.081450 0.000000 0.000000
# 5 0.000000 0.000000 0.000000 0.000000 0.081450 0.000000
# 6 0.000000 0.000000 0.000000 0.000000 0.000000 0.052305
#
#
# Mechanical properties :
#
#
# Convention : Reuss Voigt Hill
#
# Bulk Modulus (GPa) = 43.22032 43.51275 43.36654
# Shear Modulus (GPa) = 15.15638 15.73437 15.44538
#
# Velocity S-wave (km/s) = 3.36143 3.42492 3.39333
# Velocity P-wave (km/s) = 6.87654 6.93392 6.90529
#
# Compressibility (1/GPa) = 0.02313726
#
# Stress axis : x y z
#
# Youngs Moduli (GPa) = 44.76882 44.76882 49.06076
#
# Poissons Ratio (x) = 0.29424 0.35293
# Poissons Ratio (y) = 0.29424 0.35293
# Poissons Ratio (z) = 0.32205 0.32205
#
# Static dielectric constant tensor:
#      x y z
#    x 1.445410 0.000000 0.000000 
#    y 0.000000 1.445410 0.000000 
#    z 0.000000 0.000000 1.425470 
# 
# From -- ./inp_files/5900.got.cif
#   From: 2010.05.17/outbox.cif.g08.bks.cpg/sg123_3_cif.got.tgz:5900.got - 2010.05.20 11:43:04.
