data_PCOD9561403
_publ_section_title
;
Structure prediction by ZEFSAII (Michael W. Deem and Ramdas Pophale) SiO2 
 PCOD9561403
Probable space group: I -4 2 D
;
_chemical_formula_sum "Si O2"
_cell_formula_units_Z 108
_cell_length_a 13.916016
_cell_length_b 13.916016
_cell_length_c 24.048351
_cell_angle_alpha 90.000000
_cell_angle_beta 90.000000
_cell_angle_gamma 90.000000
_cell_volume 4657.095469
_symmetry_space_group_name_H-M "I -4 2 D"
_symmetry_group_IT_number 122
_symmetry_cell_setting 'tetragonal'
loop_
_space_group_symop_operation_xyz
x,y,z
y,-x,-z
-x,-y,z
-y,x,-z
x,1/2-y,1/4-z
-x,1/2+y,1/4-z
-y,1/2-x,1/4+z
y,1/2+x,1/4+z
1/2+x,1/2+y,1/2+z
1/2+y,1/2-x,1/2-z
1/2-x,1/2-y,1/2+z
1/2-y,1/2+x,1/2-z
1/2+x,-y,3/4-z
1/2-x,y,3/4-z
1/2-y,-x,3/4+z
1/2+y,x,3/4+z
loop_
_atom_site_type_symbol
_atom_site_label
_atom_site_fract_x
_atom_site_fract_y
_atom_site_fract_z
Si Si1 0.651866 0.030696 0.763539
Si Si2 0.072281 0.821086 0.663757
Si Si3 0.707124 0.583619 0.661539
Si Si4 0.504618 0.814812 0.438992
Si Si5 0.351145 0.663779 0.015154
Si Si6 0.572444 0.643347 0.262090
Si Si7 0.000000 0.000000 0.500000
Si Si8 0.750000 0.433395 0.375000
O O1 0.566398 0.107553 0.762353
O O2 0.734877 0.064670 0.721992
O O3 0.694625 0.013264 0.824961
O O4 0.009398 0.750000 0.625000
O O5 0.121901 0.922351 0.652158
O O6 0.146120 0.740206 0.685124
O O7 0.009412 0.849528 0.716029
O O8 0.765015 0.565834 0.604870
O O9 0.783159 0.611020 0.709694
O O10 0.648801 0.487133 0.680245
O O11 0.633681 0.670305 0.653805
O O12 0.446256 0.866815 0.489032
O O13 0.243012 0.629412 0.008545
O O14 0.426904 0.577518 0.027692
#
# Coordination Sequence:
#
# PCOD9561403 Si02
#       8
#    16  16  16  16  16  16   4   8
#     4  11  26  50  74 110 147 194 257 319 385 470
#     4  11  25  42  63 104 146 187 247 311 377 460
#     4  11  24  45  75 107 146 200 252 314 395 462
#     4  12  26  45  74 105 149 194 249 325 380 469
#     4  11  23  42  69 101 144 196 251 310 385 465
#     4  11  25  44  69 106 145 196 253 311 380 474
#     4  12  20  40  72  92 144 204 236 316 364 456
#     4  12  24  50  82 104 150 206 254 330 404 462
#
# _framework density 23.190421000000001
#
# number of rings (size 3 to 8) (size 9 to 14) (size 15 to 20)
#    0.000    0.741    4.444    4.000    4.148    1.185 
#    1.333    0.000    0.000    0.000    0.000    0.000 
#    0.000    0.000    0.000    0.000    0.000    0.000 
#
# Total GULP energy -301371.117112 kJ/mol
# GULP energy per Si atom -5580.946613 kJ/mol
# Density = 2.313764 g / cm^3
# Si number density = 23.190421 Si / 1000 Ang^3
#
#
#
# Elastic Constant Matrix: (Units=GPa)
#
#
# Indices 1 2 3 4 5 6 
#
# 1 85.8386 33.5311 17.6575 0.0000 0.0000 0.0000
# 2 33.5311 85.8386 17.6575 0.0000 0.0000 0.0000
# 3 17.6575 17.6575 76.3089 0.0000 0.0000 0.0000
# 4 0.0000 0.0000 0.0000 -2.1060 0.0000 0.0000
# 5 0.0000 0.0000 0.0000 0.0000 -2.1060 0.0000
# 6 0.0000 0.0000 0.0000 0.0000 0.0000 6.6972
#
#
#
# Elastic Compliance Matrix: (Units=1/GPa)
#
#
# Indices 1 2 3 4 5 6 
#
# 1 0.014055 -0.005062 -0.002081 0.000000 0.000000 0.000000
# 2 -0.005062 0.014055 -0.002081 0.000000 0.000000 0.000000
# 3 -0.002081 -0.002081 0.014068 0.000000 0.000000 0.000000
# 4 0.000000 0.000000 0.000000 -0.474838 0.000000 0.000000
# 5 0.000000 0.000000 0.000000 0.000000 -0.474838 0.000000
# 6 0.000000 0.000000 0.000000 0.000000 0.000000 0.149317
#
#
# Mechanical properties :
#
#
# Convention : Reuss Voigt Hill
#
# Bulk Modulus (GPa) = 42.14095 42.85314 42.49705
# Shear Modulus (GPa) = -6.83226 12.43971 2.80372
#
# Velocity S-wave (km/s) = -1.71830 2.31858 1.10074
# Velocity P-wave (km/s) = 3.77815 5.06820 4.46996
#
# Compressibility (1/GPa) = 0.02372989
#
# Stress axis : x y z
#
# Youngs Moduli (GPa) = 71.14733 71.14733 71.08503
#
# Poissons Ratio (x) = 0.36017 0.14792
# Poissons Ratio (y) = 0.36017 0.14792
# Poissons Ratio (z) = 0.14805 0.14805
#
# Static dielectric constant tensor:
#      x y z
#    x 1.898000 0.000000 0.000000 
#    y 0.000000 1.898000 0.000000 
#    z 0.000000 0.000000 2.059490 
# 
# From -- ./inp_files/8168.got.cif
#   From: 2010.05.17/outbox.cif.g08.bks.cpg/sg122_5_cif.got.tgz:8168.got - 2010.05.20 11:37:33.
