data_PCOD9561624
_publ_section_title
;
Structure prediction by ZEFSAII (Michael W. Deem and Ramdas Pophale) SiO2 
 PCOD9561624
Probable space group: P 4/M M M
;
_chemical_formula_sum "Si O2"
_cell_formula_units_Z 96
_cell_length_a 25.065577
_cell_length_b 25.065577
_cell_length_c 7.318258
_cell_angle_alpha 90.000000
_cell_angle_beta 90.000000
_cell_angle_gamma 90.000000
_cell_volume 4597.938191
_symmetry_space_group_name_H-M "P 4/M M M"
_symmetry_group_IT_number 123
_symmetry_cell_setting 'tetragonal'
loop_
_space_group_symop_operation_xyz
x,y,z
-y,x,z
-x,-y,z
y,-x,z
x,-y,-z
-x,y,-z
y,x,-z
-y,-x,-z
-x,-y,-z
y,-x,-z
x,y,-z
-y,x,-z
-x,y,z
x,-y,z
-y,-x,z
y,x,z
loop_
_atom_site_type_symbol
_atom_site_label
_atom_site_fract_x
_atom_site_fract_y
_atom_site_fract_z
Si Si1 0.438967 0.647019 0.722540
Si Si2 0.059172 0.561650 0.220134
Si Si3 0.649593 0.145436 0.712613
Si Si4 0.267329 0.940274 0.277049
Si Si5 0.059631 0.855216 0.277588
Si Si6 0.733548 0.647150 0.277343
O O1 0.439734 0.647257 0.500000
O O2 0.500000 0.647660 0.784255
O O3 0.405234 0.594767 0.777117
O O4 0.403914 0.698248 0.779104
O O5 0.064420 0.500000 0.276639
O O6 0.109226 0.596684 0.278995
O O7 0.000000 0.580846 0.281439
O O8 0.058645 0.562746 0.000000
O O9 0.663236 0.152927 0.500000
O O10 0.695005 0.106688 0.790850
O O11 0.645423 0.205338 0.787147
O O12 0.269253 0.940438 0.500000
O O13 0.206022 0.931859 0.223589
O O14 0.283832 0.000000 0.219257
O O15 0.060441 0.855619 0.500000
O O16 0.104679 0.895322 0.213442
O O17 0.000000 0.871364 0.222098
O O18 0.733790 0.646210 0.500000
O O19 0.699950 0.699950 0.224427
#
# Coordination Sequence:
#
# PCOD9561624 Si02
#       6
#    16  16  16  16  16  16
#     4   8  13  21  32  46  69 102 135 167 203 242
#     4   9  19  35  50  64  88 120 147 176 224 281
#     4  10  18  27  45  69  87 110 149 188 214 249
#     4   8  14  23  33  49  74  98 123 164 212 244
#     4   8  13  20  29  43  67 100 135 169 206 248
#     4   8  15  26  37  55  86 116 139 171 219 264
#
# _framework density 20.878924999999999
#
# number of rings (size 3 to 8) (size 9 to 14) (size 15 to 20)
#    0.000    3.500    0.000    3.000    0.000    3.000 
#    0.000    7.500    0.000    0.500    0.000    0.000 
#    0.000    0.000    0.000    0.000    0.000    0.167 
#
# Total GULP energy -535484.574575 kJ/mol
# GULP energy per Si atom -5577.964318 kJ/mol
# Density = 2.083140 g / cm^3
# Si number density = 20.878925 Si / 1000 Ang^3
#
#
#
# Elastic Constant Matrix: (Units=GPa)
#
#
# Indices 1 2 3 4 5 6 
#
# 1 200.3696 129.2495 2.9613 0.0000 0.0000 0.0000
# 2 129.2495 200.3696 2.9613 0.0000 0.0000 0.0000
# 3 2.9613 2.9613 82.4369 0.0000 0.0000 0.0000
# 4 0.0000 0.0000 0.0000 -29.0291 0.0000 0.0000
# 5 0.0000 0.0000 0.0000 0.0000 -29.0291 0.0000
# 6 0.0000 0.0000 0.0000 0.0000 0.0000 42.8581
#
#
#
# Elastic Compliance Matrix: (Units=1/GPa)
#
#
# Indices 1 2 3 4 5 6 
#
# 1 0.008548 -0.005512 -0.000109 0.000000 0.000000 0.000000
# 2 -0.005512 0.008548 -0.000109 0.000000 0.000000 0.000000
# 3 -0.000109 -0.000109 0.012138 0.000000 0.000000 0.000000
# 4 0.000000 0.000000 0.000000 -0.034448 0.000000 0.000000
# 5 0.000000 0.000000 0.000000 0.000000 -0.034448 0.000000
# 6 0.000000 0.000000 0.000000 0.000000 0.000000 0.023333
#
#
# Mechanical properties :
#
#
# Convention : Reuss Voigt Hill
#
# Bulk Modulus (GPa) = 56.26309 83.72449 69.99379
# Shear Modulus (GPa) = 4730.44519 20.16024 2375.30272
#
# Velocity S-wave (km/s) = 47.65054 3.11075 33.76574
# Velocity P-wave (km/s) = 55.26697 7.28625 39.41781
#
# Compressibility (1/GPa) = 0.01777364
#
# Stress axis : x y z
#
# Youngs Moduli (GPa) = 116.98301 116.98301 82.38372
#
# Poissons Ratio (x) = 0.64487 0.00898
# Poissons Ratio (y) = 0.64487 0.00898
# Poissons Ratio (z) = 0.01276 0.01276
#
# Static dielectric constant tensor:
#      x y z
#    x 1.720290 0.000000 0.000000 
#    y 0.000000 1.720290 0.000000 
#    z 0.000000 0.000000 1.807690 
# 
# From -- ./inp_files/1647.got.cif
#   From: 2010.05.17/outbox.cif.g08.bks.cpg/sg123_1_cif.got.tgz:1647.got - 2010.05.20 11:43:04.
