data_PCOD9561221
_publ_section_title
;
Structure prediction by ZEFSAII (Michael W. Deem and Ramdas Pophale) SiO2 
 PCOD9561221
Probable space group: I -4 2 D
;
_chemical_formula_sum "Si O2"
_cell_formula_units_Z 56
_cell_length_a 13.955318
_cell_length_b 13.955318
_cell_length_c 10.554582
_cell_angle_alpha 90.000000
_cell_angle_beta 90.000000
_cell_angle_gamma 90.000000
_cell_volume 2055.514349
_symmetry_space_group_name_H-M "I -4 2 D"
_symmetry_group_IT_number 122
_symmetry_cell_setting 'tetragonal'
loop_
_space_group_symop_operation_xyz
x,y,z
y,-x,-z
-x,-y,z
-y,x,-z
x,1/2-y,1/4-z
-x,1/2+y,1/4-z
-y,1/2-x,1/4+z
y,1/2+x,1/4+z
1/2+x,1/2+y,1/2+z
1/2+y,1/2-x,1/2-z
1/2-x,1/2-y,1/2+z
1/2-y,1/2+x,1/2-z
1/2+x,-y,3/4-z
1/2-x,y,3/4-z
1/2-y,-x,3/4+z
1/2+y,x,3/4+z
loop_
_atom_site_type_symbol
_atom_site_label
_atom_site_fract_x
_atom_site_fract_y
_atom_site_fract_z
Si Si1 0.188610 0.981600 0.124210
Si Si2 0.993474 0.359940 0.694446
Si Si3 0.500000 0.500000 0.267232
Si Si4 0.698231 0.690974 0.509930
O O1 0.252999 0.987696 0.253041
O O2 0.078677 0.945596 0.148459
O O3 0.231281 0.906385 0.025405
O O4 0.189547 0.084978 0.063544
O O5 0.915916 0.405076 0.793675
O O6 0.951467 0.417999 0.571227
O O7 0.743852 0.750000 0.625000
O O8 0.750000 0.697309 0.375000
#
# Coordination Sequence:
#
# PCOD9561221 Si02
#       4
#    16  16   8  16
#     4  12  26  50  82 110 173 210 273 344 408 493
#     4   9  23  41  75 118 163 212 268 325 411 479
#     4  10  23  43  80 124 154 214 268 320 420 480
#     4  12  32  51  80 120 159 216 276 336 420 488
#
# _framework density 27.243789
#
# number of rings (size 3 to 8) (size 9 to 14) (size 15 to 20)
#    0.000    1.429    0.000    3.429   20.000    0.000 
#    0.000    0.000    0.000    0.000    0.000    0.000 
#    0.000    0.000    0.000    0.000    0.000    0.000 
#
# Total GULP energy -156021.820881 kJ/mol
# GULP energy per Si atom -5572.207889 kJ/mol
# Density = 2.718178 g / cm^3
# Si number density = 27.243789 Si / 1000 Ang^3
#
#
#
# Elastic Constant Matrix: (Units=GPa)
#
#
# Indices 1 2 3 4 5 6 
#
# 1 260.6995 -81.2000 36.9627 0.0000 0.0000 0.0000
# 2 -81.2000 260.6995 36.9627 0.0000 0.0000 0.0000
# 3 36.9627 36.9627 191.2396 0.0000 0.0000 0.0000
# 4 0.0000 0.0000 0.0000 23.9031 0.0000 0.0000
# 5 0.0000 0.0000 0.0000 0.0000 23.9031 0.0000
# 6 0.0000 0.0000 0.0000 0.0000 0.0000 7.7022
#
#
#
# Elastic Compliance Matrix: (Units=1/GPa)
#
#
# Indices 1 2 3 4 5 6 
#
# 1 0.004489 0.001564 -0.001170 0.000000 0.000000 0.000000
# 2 0.001564 0.004489 -0.001170 0.000000 0.000000 0.000000
# 3 -0.001170 -0.001170 0.005681 0.000000 0.000000 0.000000
# 4 0.000000 0.000000 0.000000 0.041835 0.000000 0.000000
# 5 0.000000 0.000000 0.000000 0.000000 0.041835 0.000000
# 6 0.000000 0.000000 0.000000 0.000000 0.000000 0.129833
#
#
# Mechanical properties :
#
#
# Convention : Reuss Voigt Hill
#
# Bulk Modulus (GPa) = 76.29269 77.56548 76.92909
# Shear Modulus (GPa) = 21.35987 59.09592 40.22789
#
# Velocity S-wave (km/s) = 2.80309 4.66247 3.84681
# Velocity P-wave (km/s) = 6.20813 7.58403 6.93031
#
# Compressibility (1/GPa) = 0.01310742
#
# Stress axis : x y z
#
# Youngs Moduli (GPa) = 222.77447 222.77447 176.01684
#
# Poissons Ratio (x) = -0.34842 0.20592
# Poissons Ratio (y) = -0.34842 0.20592
# Poissons Ratio (z) = 0.26062 0.26062
#
# Static dielectric constant tensor:
#      x y z
#    x 2.067650 0.000000 0.000000 
#    y 0.000000 2.067650 0.000000 
#    z 0.000000 0.000000 2.820350 
# 
# From -- ./inp_files/3912.got.cif
#   From: 2010.05.17/outbox.cif.g08.bks.cpg/sg122_2_cif.got.tgz:3912.got - 2010.05.20 11:37:33.
