data_PCOD9561650
_publ_section_title
;
Structure prediction by ZEFSAII (Michael W. Deem and Ramdas Pophale) SiO2 
 PCOD9561650
Probable space group: P 4/M M M
;
_chemical_formula_sum "Si O2"
_cell_formula_units_Z 112
_cell_length_a 19.888859
_cell_length_b 19.888859
_cell_length_c 20.702203
_cell_angle_alpha 90.000000
_cell_angle_beta 90.000000
_cell_angle_gamma 90.000000
_cell_volume 8189.102379
_symmetry_space_group_name_H-M "P 4/M M M"
_symmetry_group_IT_number 123
_symmetry_cell_setting 'tetragonal'
loop_
_space_group_symop_operation_xyz
x,y,z
-y,x,z
-x,-y,z
y,-x,z
x,-y,-z
-x,y,-z
y,x,-z
-y,-x,-z
-x,-y,-z
y,-x,-z
x,y,-z
-y,x,-z
-x,y,z
x,-y,z
-y,-x,z
y,x,z
loop_
_atom_site_type_symbol
_atom_site_label
_atom_site_fract_x
_atom_site_fract_y
_atom_site_fract_z
Si Si1 0.337654 0.080787 0.679886
Si Si2 0.081896 0.422652 0.806134
Si Si3 0.421438 0.160029 0.577041
Si Si4 0.683553 0.424334 0.421521
Si Si5 0.078033 0.188085 0.879680
Si Si6 0.077965 0.811630 0.723830
Si Si7 0.081722 0.335652 0.927950
O O1 0.380020 0.101641 0.743322
O O2 0.371444 0.115147 0.618444
O O3 0.259331 0.096724 0.691521
O O4 0.342539 0.000000 0.674579
O O5 0.103880 0.500000 0.802701
O O6 0.104725 0.385168 0.871230
O O7 0.000000 0.422685 0.807128
O O8 0.411279 0.152834 0.500000
O O9 0.500000 0.143211 0.590304
O O10 0.411567 0.238578 0.594517
O O11 0.680861 0.424436 0.500000
O O12 0.665467 0.500000 0.400394
O O13 0.632110 0.367891 0.398042
O O14 0.127499 0.127499 0.897356
O O15 0.080732 0.197161 0.801799
O O16 0.098890 0.258573 0.911402
O O17 0.000000 0.174251 0.896605
O O18 0.128758 0.871243 0.706327
O O19 0.000000 0.827191 0.708035
O O20 0.000000 0.337990 0.927390
O O21 0.104288 0.353884 0.000000
#
# Coordination Sequence:
#
# PCOD9561650 Si02
#       7
#    16  16  16  16  16  16  16
#     4  10  18  29  44  61  82 107 136 170 206 243
#     4   9  16  26  40  57  76 100 131 164 198 236
#     4   9  18  30  42  60  87 115 140 167 202 243
#     4   8  14  25  40  58  81 107 134 164 196 231
#     4   9  16  27  41  57  79 105 134 169 208 250
#     4   9  17  29  45  63  83 106 134 171 212 253
#     4   9  16  26  39  55  77 103 129 161 201 239
#
# _framework density 13.676712999999999
#
# number of rings (size 3 to 8) (size 9 to 14) (size 15 to 20)
#    0.000    3.000    1.429    1.286    0.000    2.714 
#    0.000    4.286    0.000    0.000    0.000    2.000 
#    0.000    0.000    0.000    3.143    0.000    0.143 
#
# Total GULP energy -623478.884749 kJ/mol
# GULP energy per Si atom -5566.775757 kJ/mol
# Density = 1.364558 g / cm^3
# Si number density = 13.676713 Si / 1000 Ang^3
#
#
#
# Elastic Constant Matrix: (Units=GPa)
#
#
# Indices 1 2 3 4 5 6 
#
# 1 65.4122 48.8446 33.8541 0.0000 0.0000 0.0000
# 2 48.8446 65.4122 33.8541 0.0000 0.0000 0.0000
# 3 33.8541 33.8541 48.9139 0.0000 0.0000 0.0000
# 4 0.0000 0.0000 0.0000 11.2795 0.0000 0.0000
# 5 0.0000 0.0000 0.0000 0.0000 11.2795 0.0000
# 6 0.0000 0.0000 0.0000 0.0000 0.0000 18.9125
#
#
#
# Elastic Compliance Matrix: (Units=1/GPa)
#
#
# Indices 1 2 3 4 5 6 
#
# 1 0.037598 -0.022760 -0.010270 0.000000 0.000000 0.000000
# 2 -0.022760 0.037598 -0.010270 0.000000 0.000000 0.000000
# 3 -0.010270 -0.010270 0.034660 0.000000 0.000000 0.000000
# 4 0.000000 0.000000 0.000000 0.088656 0.000000 0.000000
# 5 0.000000 0.000000 0.000000 0.000000 0.088656 0.000000
# 6 0.000000 0.000000 0.000000 0.000000 0.000000 0.052875
#
#
# Mechanical properties :
#
#
# Convention : Reuss Voigt Hill
#
# Bulk Modulus (GPa) = 42.99757 45.87157 44.43457
# Shear Modulus (GPa) = 11.51025 12.50668 12.00846
#
# Velocity S-wave (km/s) = 2.90417 3.02727 2.96636
# Velocity P-wave (km/s) = 6.53853 6.76992 6.65523
#
# Compressibility (1/GPa) = 0.02325713
#
# Stress axis : x y z
#
# Youngs Moduli (GPa) = 26.59689 26.59689 28.85201
#
# Poissons Ratio (x) = 0.60536 0.29630
# Poissons Ratio (y) = 0.60536 0.29630
# Poissons Ratio (z) = 0.27314 0.27314
#
# Static dielectric constant tensor:
#      x y z
#    x 1.440150 0.000000 0.000000 
#    y 0.000000 1.440150 0.000000 
#    z 0.000000 0.000000 1.448700 
# 
# From -- ./inp_files/5903.got.cif
#   From: 2010.05.17/outbox.cif.g08.bks.cpg/sg123_3_cif.got.tgz:5903.got - 2010.05.20 11:43:04.
