data_PCOD9561405
_publ_section_title
;
Structure prediction by ZEFSAII (Michael W. Deem and Ramdas Pophale) SiO2 
 PCOD9561405
Probable space group: I -4 2 D
;
_chemical_formula_sum "Si O2"
_cell_formula_units_Z 56
_cell_length_a 21.254751
_cell_length_b 21.254751
_cell_length_c 5.024033
_cell_angle_alpha 90.000000
_cell_angle_beta 90.000000
_cell_angle_gamma 90.000000
_cell_volume 2269.679455
_symmetry_space_group_name_H-M "I -4 2 D"
_symmetry_group_IT_number 122
_symmetry_cell_setting 'tetragonal'
loop_
_space_group_symop_operation_xyz
x,y,z
y,-x,-z
-x,-y,z
-y,x,-z
x,1/2-y,1/4-z
-x,1/2+y,1/4-z
-y,1/2-x,1/4+z
y,1/2+x,1/4+z
1/2+x,1/2+y,1/2+z
1/2+y,1/2-x,1/2-z
1/2-x,1/2-y,1/2+z
1/2-y,1/2+x,1/2-z
1/2+x,-y,3/4-z
1/2-x,y,3/4-z
1/2-y,-x,3/4+z
1/2+y,x,3/4+z
loop_
_atom_site_type_symbol
_atom_site_label
_atom_site_fract_x
_atom_site_fract_y
_atom_site_fract_z
Si Si1 0.750000 0.096792 0.875000
Si Si2 0.653908 0.291821 0.385552
Si Si3 0.174561 0.011294 0.118877
Si Si4 0.901751 0.994198 0.606742
O O1 0.692469 0.144655 0.926148
O O2 0.721440 0.046695 0.668676
O O3 0.682707 0.250000 0.625000
O O4 0.581880 0.306709 0.461814
O O5 0.653529 0.250000 0.125000
O O6 0.159422 0.015541 0.429548
O O7 0.115984 0.997912 0.914580
O O8 0.936316 0.053753 0.473723
#
# Coordination Sequence:
#
# PCOD9561405 Si02
#       4
#     8  16  16  16
#     4  12  28  48  82 108 150 210 246 312 394 438
#     4  12  27  51  74 112 157 193 258 313 370 457
#     4  12  26  46  72 111 146 197 255 310 371 451
#     4  11  23  42  70 107 151 195 244 307 376 447
#
# _framework density 24.673089999999998
#
# number of rings (size 3 to 8) (size 9 to 14) (size 15 to 20)
#    0.000    0.286    1.429    7.714    0.000    6.857 
#    0.000    0.000    0.000    0.000    0.000    0.000 
#    0.000    0.000    0.000    0.000    0.000    0.000 
#
# Total GULP energy -156644.799163 kJ/mol
# GULP energy per Si atom -5594.457113 kJ/mol
# Density = 2.461693 g / cm^3
# Si number density = 24.673090 Si / 1000 Ang^3
#
#
#
# Elastic Constant Matrix: (Units=GPa)
#
#
# Indices 1 2 3 4 5 6 
#
# 1 134.8013 60.1385 15.6051 0.0000 0.0000 0.0000
# 2 60.1385 134.8013 15.6051 0.0000 0.0000 0.0000
# 3 15.6051 15.6051 100.8371 0.0000 0.0000 0.0000
# 4 0.0000 0.0000 0.0000 18.1775 0.0000 0.0000
# 5 0.0000 0.0000 0.0000 0.0000 18.1775 0.0000
# 6 0.0000 0.0000 0.0000 0.0000 0.0000 65.8678
#
#
#
# Elastic Compliance Matrix: (Units=1/GPa)
#
#
# Indices 1 2 3 4 5 6 
#
# 1 0.009327 -0.004067 -0.000814 0.000000 0.000000 0.000000
# 2 -0.004067 0.009327 -0.000814 0.000000 0.000000 0.000000
# 3 -0.000814 -0.000814 0.010169 0.000000 0.000000 0.000000
# 4 0.000000 0.000000 0.000000 0.055013 0.000000 0.000000
# 5 0.000000 0.000000 0.000000 0.000000 0.055013 0.000000
# 6 0.000000 0.000000 0.000000 0.000000 0.000000 0.015182
#
#
# Mechanical properties :
#
#
# Convention : Reuss Voigt Hill
#
# Bulk Modulus (GPa) = 57.36235 61.45970 59.41103
# Shear Modulus (GPa) = 29.20031 39.05064 34.12547
#
# Velocity S-wave (km/s) = 3.44392 3.98266 3.72305
# Velocity P-wave (km/s) = 6.25408 6.79062 6.52786
#
# Compressibility (1/GPa) = 0.01743304
#
# Stress axis : x y z
#
# Youngs Moduli (GPa) = 107.21752 107.21752 98.33867
#
# Poissons Ratio (x) = 0.43602 0.08005
# Poissons Ratio (y) = 0.43602 0.08005
# Poissons Ratio (z) = 0.08728 0.08728
#
# Static dielectric constant tensor:
#      x y z
#    x 2.039290 0.000000 0.000000 
#    y 0.000000 2.039290 0.000000 
#    z 0.000000 0.000000 1.900980 
# 
# From -- ./inp_files/811.got.cif
#   From: 2010.05.17/outbox.cif.g08.bks.cpg/sg122_1_cif.got.tgz:811.got - 2010.05.20 11:37:33.
