data_PCOD9561894
_publ_section_title
;
Structure prediction by ZEFSAII (Michael W. Deem and Ramdas Pophale) SiO2 
 PCOD9561894
Probable space group: P 4/M M M
;
_chemical_formula_sum "Si O2"
_cell_formula_units_Z 120
_cell_length_a 18.816294
_cell_length_b 18.816294
_cell_length_c 17.539535
_cell_angle_alpha 90.000000
_cell_angle_beta 90.000000
_cell_angle_gamma 90.000000
_cell_volume 6209.923580
_symmetry_space_group_name_H-M "P 4/M M M"
_symmetry_group_IT_number 123
_symmetry_cell_setting 'tetragonal'
loop_
_space_group_symop_operation_xyz
x,y,z
-y,x,z
-x,-y,z
y,-x,z
x,-y,-z
-x,y,-z
y,x,-z
-y,-x,-z
-x,-y,-z
y,-x,-z
x,y,-z
-y,x,-z
-x,y,z
x,-y,z
-y,-x,z
y,x,z
loop_
_atom_site_type_symbol
_atom_site_label
_atom_site_fract_x
_atom_site_fract_y
_atom_site_fract_z
Si Si1 0.296084 0.415162 0.135528
Si Si2 0.805474 0.082386 0.878573
Si Si3 0.811483 0.922826 0.693016
Si Si4 0.423205 0.000000 0.089863
Si Si5 0.654901 0.145301 0.132192
Si Si6 0.080738 0.347782 0.705770
Si Si7 0.582573 0.303188 0.319574
Si Si8 0.832401 0.415710 0.585475
O O1 0.302559 0.500000 0.114054
O O2 0.363110 0.363110 0.113810
O O3 0.220534 0.380227 0.109385
O O4 0.292448 0.413336 0.228092
O O5 0.875687 0.124314 0.905002
O O6 0.809330 0.078929 0.785957
O O7 0.735862 0.130383 0.894487
O O8 0.798647 0.000000 0.904496
O O9 0.860205 0.860205 0.665157
O O10 0.730345 0.915711 0.669680
O O11 0.839614 0.000000 0.671004
O O12 0.385856 0.925462 0.106560
O O13 0.500000 0.000000 0.129278
O O14 0.430779 0.000000 0.000000
O O15 0.651390 0.135565 0.224080
O O16 0.101029 0.401124 0.639725
O O17 0.000000 0.357498 0.735181
O O18 0.500000 0.313811 0.337892
O O19 0.628694 0.371307 0.338879
O O20 0.610573 0.236009 0.367200
O O21 0.837771 0.386440 0.500000
O O22 0.824243 0.500000 0.579722
#
# Coordination Sequence:
#
# PCOD9561894 Si02
#       8
#    16  16  16   8  16  16  16  16
#     4  10  20  33  54  83 112 147 191 238 288 342
#     4   9  16  27  46  75 109 143 181 225 268 308
#     4   8  15  26  42  67  98 127 159 203 252 297
#     4  11  24  38  56  86 122 154 180 218 274 331
#     4  11  18  35  56  82 110 145 186 227 273 329
#     4  10  19  32  50  74 100 132 174 215 258 314
#     4   9  18  32  49  72 101 134 176 223 273 328
#     4  10  21  35  48  66  97 132 169 218 269 317
#
# _framework density 19.323909
#
# number of rings (size 3 to 8) (size 9 to 14) (size 15 to 20)
#    0.000    2.333    2.667    1.600    0.000    2.933 
#    0.000    3.333    0.000    1.600    0.000    1.867 
#    0.000    0.533    0.000    5.733    0.000    2.133 
#
# Total GULP energy -668262.864656 kJ/mol
# GULP energy per Si atom -5568.857205 kJ/mol
# Density = 1.927993 g / cm^3
# Si number density = 19.323909 Si / 1000 Ang^3
#
#
#
# Elastic Constant Matrix: (Units=GPa)
#
#
# Indices 1 2 3 4 5 6 
#
# 1 104.7607 69.3135 5.6961 0.0000 0.0000 0.0000
# 2 69.3135 104.7607 5.6961 0.0000 0.0000 0.0000
# 3 5.6961 5.6961 24.1124 0.0000 0.0000 0.0000
# 4 0.0000 0.0000 0.0000 -76.7294 0.0000 0.0000
# 5 0.0000 0.0000 0.0000 0.0000 -76.7294 0.0000
# 6 0.0000 0.0000 0.0000 0.0000 0.0000 34.4758
#
#
#
# Elastic Compliance Matrix: (Units=1/GPa)
#
#
# Indices 1 2 3 4 5 6 
#
# 1 0.017023 -0.011188 -0.001378 0.000000 0.000000 0.000000
# 2 -0.011188 0.017023 -0.001378 0.000000 0.000000 0.000000
# 3 -0.001378 -0.001378 0.042124 0.000000 0.000000 0.000000
# 4 0.000000 0.000000 0.000000 -0.013033 0.000000 0.000000
# 5 0.000000 0.000000 0.000000 0.000000 -0.013033 0.000000
# 6 0.000000 0.000000 0.000000 0.000000 0.000000 0.029006
#
#
# Mechanical properties :
#
#
# Convention : Reuss Voigt Hill
#
# Bulk Modulus (GPa) = 20.71259 43.89392 32.30325
# Shear Modulus (GPa) = 40.61986 -13.60138 13.50924
#
# Velocity S-wave (km/s) = 4.58979 -2.65592 2.64691
# Velocity P-wave (km/s) = 6.23138 3.65499 5.10828
#
# Compressibility (1/GPa) = 0.04827982
#
# Stress axis : x y z
#
# Youngs Moduli (GPa) = 58.74436 58.74436 23.73967
#
# Poissons Ratio (x) = 0.65723 0.03272
# Poissons Ratio (y) = 0.65723 0.03272
# Poissons Ratio (z) = 0.08097 0.08097
#
# Static dielectric constant tensor:
#      x y z
#    x 1.692830 0.000000 0.000000 
#    y 0.000000 1.692830 0.000000 
#    z 0.000000 0.000000 1.693520 
# 
# From -- ./inp_files/6792.got.cif
#   From: 2010.05.17/outbox.cif.g08.bks.cpg/sg123_4_cif.got.tgz:6792.got - 2010.05.20 11:43:04.
