data_PCOD9561383
_publ_section_title
;
Structure prediction by ZEFSAII (Michael W. Deem and Ramdas Pophale) SiO2 
 PCOD9561383
Probable space group: I -4 2 D
;
_chemical_formula_sum "Si O2"
_cell_formula_units_Z 72
_cell_length_a 13.876063
_cell_length_b 13.876063
_cell_length_c 19.083402
_cell_angle_alpha 90.000000
_cell_angle_beta 90.000000
_cell_angle_gamma 90.000000
_cell_volume 3674.416012
_symmetry_space_group_name_H-M "I -4 2 D"
_symmetry_group_IT_number 122
_symmetry_cell_setting 'tetragonal'
loop_
_space_group_symop_operation_xyz
x,y,z
y,-x,-z
-x,-y,z
-y,x,-z
x,1/2-y,1/4-z
-x,1/2+y,1/4-z
-y,1/2-x,1/4+z
y,1/2+x,1/4+z
1/2+x,1/2+y,1/2+z
1/2+y,1/2-x,1/2-z
1/2-x,1/2-y,1/2+z
1/2-y,1/2+x,1/2-z
1/2+x,-y,3/4-z
1/2-x,y,3/4-z
1/2-y,-x,3/4+z
1/2+y,x,3/4+z
loop_
_atom_site_type_symbol
_atom_site_label
_atom_site_fract_x
_atom_site_fract_y
_atom_site_fract_z
Si Si1 0.779527 0.203346 0.760622
Si Si2 0.232563 0.105056 0.106765
Si Si3 0.750000 0.690730 0.375000
Si Si4 0.581451 0.062625 0.630646
Si Si5 0.995493 0.608685 0.978133
O O1 0.843623 0.254631 0.819840
O O2 0.682603 0.179545 0.805804
O O3 0.754975 0.269730 0.693633
O O4 0.837154 0.107868 0.734710
O O5 0.324019 0.066794 0.065037
O O6 0.167318 0.013328 0.124943
O O7 0.837072 0.626015 0.345439
O O8 0.534506 0.094840 0.557059
O O9 0.500000 0.000000 0.669305
O O10 0.000000 0.500000 0.948469
#
# Coordination Sequence:
#
# PCOD9561383 Si02
#       5
#    16  16   8  16  16
#     4  11  24  41  69 100 136 178 227 277 342 407
#     4  11  23  42  67 100 133 176 227 278 339 406
#     4  12  24  42  66 100 142 180 220 276 346 410
#     4  11  23  39  67  98 138 174 216 275 352 402
#     4  11  22  43  66  97 140 180 219 284 344 397
#
# _framework density 19.594950000000001
#
# number of rings (size 3 to 8) (size 9 to 14) (size 15 to 20)
#    0.000    0.889    8.889    0.000    3.111    0.000 
#    0.000    4.444    0.000    0.000    0.000    0.000 
#    0.000    0.000    0.000    0.000    0.000    0.000 
#
# Total GULP energy -200559.042330 kJ/mol
# GULP energy per Si atom -5571.084509 kJ/mol
# Density = 1.955035 g / cm^3
# Si number density = 19.594950 Si / 1000 Ang^3
#
#
#
# Elastic Constant Matrix: (Units=GPa)
#
#
# Indices 1 2 3 4 5 6 
#
# 1 91.6853 37.9252 23.8646 0.0000 0.0000 0.0000
# 2 37.9252 91.6853 23.8646 0.0000 0.0000 0.0000
# 3 23.8646 23.8646 103.7315 0.0000 0.0000 0.0000
# 4 0.0000 0.0000 0.0000 14.3828 0.0000 0.0000
# 5 0.0000 0.0000 0.0000 0.0000 14.3828 0.0000
# 6 0.0000 0.0000 0.0000 0.0000 0.0000 27.2082
#
#
#
# Elastic Compliance Matrix: (Units=1/GPa)
#
#
# Indices 1 2 3 4 5 6 
#
# 1 0.013515 -0.005086 -0.001939 0.000000 0.000000 0.000000
# 2 -0.005086 0.013515 -0.001939 0.000000 0.000000 0.000000
# 3 -0.001939 -0.001939 0.010533 0.000000 0.000000 0.000000
# 4 0.000000 0.000000 0.000000 0.069527 0.000000 0.000000
# 5 0.000000 0.000000 0.000000 0.000000 0.069527 0.000000
# 6 0.000000 0.000000 0.000000 0.000000 0.000000 0.036754
#
#
# Mechanical properties :
#
#
# Convention : Reuss Voigt Hill
#
# Bulk Modulus (GPa) = 50.93084 50.93457 50.93271
# Shear Modulus (GPa) = 21.02204 24.62461 22.82333
#
# Velocity S-wave (km/s) = 3.27896 3.54882 3.41655
# Velocity P-wave (km/s) = 6.35482 6.54540 6.45081
#
# Compressibility (1/GPa) = 0.01963447
#
# Stress axis : x y z
#
# Youngs Moduli (GPa) = 73.98987 73.98987 94.94334
#
# Poissons Ratio (x) = 0.37630 0.18413
# Poissons Ratio (y) = 0.37630 0.18413
# Poissons Ratio (z) = 0.14349 0.14349
#
# Static dielectric constant tensor:
#      x y z
#    x 1.752070 0.000000 0.000000 
#    y 0.000000 1.752070 0.000000 
#    z 0.000000 0.000000 1.711570 
# 
# From -- ./inp_files/6128.got.cif
#   From: 2010.05.17/outbox.cif.g08.bks.cpg/sg122_4_cif.got.tgz:6128.got - 2010.05.20 11:37:33.
