data_PCOD9561555
_publ_section_title
;
Structure prediction by ZEFSAII (Michael W. Deem and Ramdas Pophale) SiO2 
 PCOD9561555
Probable space group: I -4 2 D
;
_chemical_formula_sum "Si O2"
_cell_formula_units_Z 64
_cell_length_a 17.838710
_cell_length_b 17.838710
_cell_length_c 8.018949
_cell_angle_alpha 90.000000
_cell_angle_beta 90.000000
_cell_angle_gamma 90.000000
_cell_volume 2551.786538
_symmetry_space_group_name_H-M "I -4 2 D"
_symmetry_group_IT_number 122
_symmetry_cell_setting 'tetragonal'
loop_
_space_group_symop_operation_xyz
x,y,z
y,-x,-z
-x,-y,z
-y,x,-z
x,1/2-y,1/4-z
-x,1/2+y,1/4-z
-y,1/2-x,1/4+z
y,1/2+x,1/4+z
1/2+x,1/2+y,1/2+z
1/2+y,1/2-x,1/2-z
1/2-x,1/2-y,1/2+z
1/2-y,1/2+x,1/2-z
1/2+x,-y,3/4-z
1/2-x,y,3/4-z
1/2-y,-x,3/4+z
1/2+y,x,3/4+z
loop_
_atom_site_type_symbol
_atom_site_label
_atom_site_fract_x
_atom_site_fract_y
_atom_site_fract_z
Si Si1 0.758087 0.619995 0.678591
Si Si2 0.141677 0.015462 0.753043
Si Si3 0.198527 0.910413 0.514006
Si Si4 0.844262 0.390491 0.222537
O O1 0.832659 0.670959 0.682927
O O2 0.609806 0.760144 0.846935
O O3 0.684911 0.648087 0.582933
O O4 0.750000 0.449933 0.875000
O O5 0.250000 0.392917 0.875000
O O6 0.218884 0.048886 0.681925
O O7 0.143657 0.960238 0.907210
O O8 0.102862 0.090529 0.829316
O O9 0.129575 0.958265 0.593783
#
# Coordination Sequence:
#
# PCOD9561555 Si02
#       4
#    16  16  16  16
#     4  12  26  45  77 112 148 192 255 317 376 451
#     4  12  28  49  71 107 149 195 244 307 381 447
#     4  12  26  45  77 112 148 192 255 317 376 451
#     4  12  26  47  74 106 152 198 244 309 384 458
#
# _framework density 25.080466999999999
#
# number of rings (size 3 to 8) (size 9 to 14) (size 15 to 20)
#    0.000    0.000    5.000    5.250    3.500    0.500 
#    0.000    2.500    0.000    0.000    0.000    0.000 
#    0.000    0.000    0.000    0.000    0.000    0.000 
#
# Total GULP energy -178469.696175 kJ/mol
# GULP energy per Si atom -5577.178005 kJ/mol
# Density = 2.502338 g / cm^3
# Si number density = 25.080467 Si / 1000 Ang^3
#
#
#
# Elastic Constant Matrix: (Units=GPa)
#
#
# Indices 1 2 3 4 5 6 
#
# 1 99.1629 22.0464 19.5667 0.0000 0.0000 0.0000
# 2 22.0464 99.1629 19.5667 0.0000 0.0000 0.0000
# 3 19.5667 19.5667 100.3685 0.0000 0.0000 0.0000
# 4 0.0000 0.0000 0.0000 39.0795 0.0000 0.0000
# 5 0.0000 0.0000 0.0000 0.0000 39.0795 0.0000
# 6 0.0000 0.0000 0.0000 0.0000 0.0000 21.7024
#
#
#
# Elastic Compliance Matrix: (Units=1/GPa)
#
#
# Indices 1 2 3 4 5 6 
#
# 1 0.010886 -0.002082 -0.001716 0.000000 0.000000 0.000000
# 2 -0.002082 0.010886 -0.001716 0.000000 0.000000 0.000000
# 3 -0.001716 -0.001716 0.010632 0.000000 0.000000 0.000000
# 4 0.000000 0.000000 0.000000 0.025589 0.000000 0.000000
# 5 0.000000 0.000000 0.000000 0.000000 0.025589 0.000000
# 6 0.000000 0.000000 0.000000 0.000000 0.000000 0.046078
#
#
# Mechanical properties :
#
#
# Convention : Reuss Voigt Hill
#
# Bulk Modulus (GPa) = 46.78227 46.78375 46.78301
# Shear Modulus (GPa) = 33.82637 35.80659 34.81648
#
# Velocity S-wave (km/s) = 3.67647 3.78255 3.72989
# Velocity P-wave (km/s) = 6.05931 6.14580 6.10271
#
# Compressibility (1/GPa) = 0.02137562
#
# Stress axis : x y z
#
# Youngs Moduli (GPa) = 91.86218 91.86218 94.05130
#
# Poissons Ratio (x) = 0.19121 0.16143
# Poissons Ratio (y) = 0.19121 0.16143
# Poissons Ratio (z) = 0.15767 0.15767
#
# Static dielectric constant tensor:
#      x y z
#    x 2.041470 0.000000 0.000000 
#    y 0.000000 2.041470 0.000000 
#    z 0.000000 0.000000 2.134070 
# 
# From -- ./inp_files/2535.got.cif
#   From: 2010.05.17/outbox.cif.g08.bks.cpg/sg122_2_cif.got.tgz:2535.got - 2010.05.20 11:37:33.
