data_PCOD9561675
_publ_section_title
;
Structure prediction by ZEFSAII (Michael W. Deem and Ramdas Pophale) SiO2 
 PCOD9561675
Probable space group: P 4/M M M
;
_chemical_formula_sum "Si O2"
_cell_formula_units_Z 104
_cell_length_a 22.119147
_cell_length_b 22.119147
_cell_length_c 13.558262
_cell_angle_alpha 90.000000
_cell_angle_beta 90.000000
_cell_angle_gamma 90.000000
_cell_volume 6633.470036
_symmetry_space_group_name_H-M "P 4/M M M"
_symmetry_group_IT_number 123
_symmetry_cell_setting 'tetragonal'
loop_
_space_group_symop_operation_xyz
x,y,z
-y,x,z
-x,-y,z
y,-x,z
x,-y,-z
-x,y,-z
y,x,-z
-y,-x,-z
-x,-y,-z
y,-x,-z
x,y,-z
-y,x,-z
-x,y,z
x,-y,z
-y,-x,z
y,x,z
loop_
_atom_site_type_symbol
_atom_site_label
_atom_site_fract_x
_atom_site_fract_y
_atom_site_fract_z
Si Si1 0.070982 0.171988 0.500000
Si Si2 0.932028 0.727122 0.837788
Si Si3 0.661870 0.759294 0.388183
Si Si4 0.855609 0.240589 0.338791
Si Si5 0.570703 0.149211 0.307992
Si Si6 0.426692 0.930511 0.500000
Si Si7 0.929400 0.171582 0.000000
Si Si8 0.590668 0.070218 0.110957
O O1 0.110546 0.110546 0.500000
O O2 0.093768 0.211330 0.592450
O O3 0.000000 0.161447 0.500000
O O4 0.885392 0.724679 0.750134
O O5 0.919624 0.784186 0.907093
O O6 0.929821 0.663538 0.892595
O O7 0.000000 0.734241 0.798489
O O8 0.638499 0.750330 0.500000
O O9 0.698067 0.698067 0.357008
O O10 0.714074 0.810408 0.392455
O O11 0.611081 0.790127 0.319347
O O12 0.814599 0.185402 0.301242
O O13 0.500000 0.163510 0.323702
O O14 0.590402 0.105360 0.399826
O O15 0.574798 0.113268 0.203578
O O16 0.500000 0.933157 0.500000
O O17 0.404245 0.000000 0.500000
O O18 0.884275 0.115725 0.000000
O O19 0.000000 0.153111 0.000000
O O20 0.572330 0.000000 0.130544
O O21 0.569337 0.086877 0.000000
#
# Coordination Sequence:
#
# PCOD9561675 Si02
#       8
#     8  16  16  16  16   8   8  16
#     4  10  20  32  45  64  89 117 156 202 254 317
#     4  10  18  30  47  67  88 114 153 201 249 294
#     4  10  19  33  51  73 102 130 159 200 248 295
#     4  10  18  30  47  67  89 115 152 198 245 295
#     4  11  21  34  53  75 103 138 172 209 251 299
#     4   9  18  31  46  70 102 132 167 208 248 292
#     4  10  20  33  48  66  87 113 151 203 264 320
#     4  10  20  34  50  70 101 138 177 215 252 304
#
# _framework density 15.678069000000001
#
# number of rings (size 3 to 8) (size 9 to 14) (size 15 to 20)
#    0.000    1.923    3.846    1.385    0.000    1.385 
#    0.000    1.538    0.000    0.000    0.000    2.154 
#    0.000    0.308    0.000    1.692    0.000    0.000 
#
# Total GULP energy -579334.873038 kJ/mol
# GULP energy per Si atom -5570.527625 kJ/mol
# Density = 1.564238 g / cm^3
# Si number density = 15.678069 Si / 1000 Ang^3
#
#
#
# Elastic Constant Matrix: (Units=GPa)
#
#
# Indices 1 2 3 4 5 6 
#
# 1 71.2726 32.9517 26.0346 0.0000 0.0000 0.0000
# 2 32.9517 71.2726 26.0346 0.0000 0.0000 0.0000
# 3 26.0346 26.0346 81.7153 0.0000 0.0000 0.0000
# 4 0.0000 0.0000 0.0000 7.3794 0.0000 0.0000
# 5 0.0000 0.0000 0.0000 0.0000 7.3794 0.0000
# 6 0.0000 0.0000 0.0000 0.0000 0.0000 13.3968
#
#
#
# Elastic Compliance Matrix: (Units=1/GPa)
#
#
# Indices 1 2 3 4 5 6 
#
# 1 0.018753 -0.007342 -0.003636 0.000000 0.000000 0.000000
# 2 -0.007342 0.018753 -0.003636 0.000000 0.000000 0.000000
# 3 -0.003636 -0.003636 0.014554 0.000000 0.000000 0.000000
# 4 0.000000 0.000000 0.000000 0.135512 0.000000 0.000000
# 5 0.000000 0.000000 0.000000 0.000000 0.135512 0.000000
# 6 0.000000 0.000000 0.000000 0.000000 0.000000 0.074645
#
#
# Mechanical properties :
#
#
# Convention : Reuss Voigt Hill
#
# Bulk Modulus (GPa) = 43.79450 43.81140 43.80295
# Shear Modulus (GPa) = 11.50571 14.91377 13.20974
#
# Velocity S-wave (km/s) = 2.71195 3.08758 2.90584
# Velocity P-wave (km/s) = 6.14821 6.38090 6.26564
#
# Compressibility (1/GPa) = 0.02283392
#
# Stress axis : x y z
#
# Youngs Moduli (GPa) = 53.32426 53.32426 68.70868
#
# Poissons Ratio (x) = 0.39152 0.24979
# Poissons Ratio (y) = 0.39152 0.24979
# Poissons Ratio (z) = 0.19386 0.19386
#
# Static dielectric constant tensor:
#      x y z
#    x 1.520300 0.000000 0.000000 
#    y 0.000000 1.520300 0.000000 
#    z 0.000000 0.000000 1.547230 
# 
# From -- ./inp_files/4544.got.cif
#   From: 2010.05.17/outbox.cif.g08.bks.cpg/sg123_3_cif.got.tgz:4544.got - 2010.05.20 11:43:04.
