data_PCOD9561492
_publ_section_title
;
Structure prediction by ZEFSAII (Michael W. Deem and Ramdas Pophale) SiO2 
 PCOD9561492
Probable space group: I -4 2 D
;
_chemical_formula_sum "Si O2"
_cell_formula_units_Z 28
_cell_length_a 7.374505
_cell_length_b 7.374505
_cell_length_c 19.329330
_cell_angle_alpha 90.000000
_cell_angle_beta 90.000000
_cell_angle_gamma 90.000000
_cell_volume 1051.193216
_symmetry_space_group_name_H-M "I -4 2 D"
_symmetry_group_IT_number 122
_symmetry_cell_setting 'tetragonal'
loop_
_space_group_symop_operation_xyz
x,y,z
y,-x,-z
-x,-y,z
-y,x,-z
x,1/2-y,1/4-z
-x,1/2+y,1/4-z
-y,1/2-x,1/4+z
y,1/2+x,1/4+z
1/2+x,1/2+y,1/2+z
1/2+y,1/2-x,1/2-z
1/2-x,1/2-y,1/2+z
1/2-y,1/2+x,1/2-z
1/2+x,-y,3/4-z
1/2-x,y,3/4-z
1/2-y,-x,3/4+z
1/2+y,x,3/4+z
loop_
_atom_site_type_symbol
_atom_site_label
_atom_site_fract_x
_atom_site_fract_y
_atom_site_fract_z
Si Si1 0.750000 0.418670 0.375000
Si Si2 0.010627 0.791650 0.766780
Si Si3 0.500000 0.500000 0.500000
O O1 0.921045 0.309795 0.404221
O O2 0.668531 0.502572 0.445865
O O3 0.168198 0.667673 0.734310
O O4 0.000000 0.000000 0.738748
#
# Coordination Sequence:
#
# PCOD9561492 Si02
#       3
#     8  16   4
#     4  12  26  54  86 136 190 248 326 392 486 570
#     4  11  26  55  85 133 180 246 313 390 467 572
#     4  12  28  52  92 128 196 254 316 404 484 572
#
# _framework density 26.636396000000001
#
# number of rings (size 3 to 8) (size 9 to 14) (size 15 to 20)
#    0.000    0.571    2.857    3.429    0.000    1.143 
#   30.857    2.857    0.000    0.000    0.000    0.000 
#    0.000    0.000    0.000    0.000    0.000    0.000 
#
# Total GULP energy -77991.495732 kJ/mol
# GULP energy per Si atom -5570.821124 kJ/mol
# Density = 2.657577 g / cm^3
# Si number density = 26.636396 Si / 1000 Ang^3
#
#
#
# Elastic Constant Matrix: (Units=GPa)
#
#
# Indices 1 2 3 4 5 6 
#
# 1 233.4652 109.5409 74.1406 0.0000 0.0000 0.0000
# 2 109.5409 233.4652 74.1406 0.0000 0.0000 0.0000
# 3 74.1406 74.1406 167.9765 0.0000 0.0000 0.0000
# 4 0.0000 0.0000 0.0000 60.5487 0.0000 0.0000
# 5 0.0000 0.0000 0.0000 0.0000 60.5487 0.0000
# 6 0.0000 0.0000 0.0000 0.0000 0.0000 57.0026
#
#
#
# Elastic Compliance Matrix: (Units=1/GPa)
#
#
# Indices 1 2 3 4 5 6 
#
# 1 0.005836 -0.002233 -0.001590 0.000000 0.000000 0.000000
# 2 -0.002233 0.005836 -0.001590 0.000000 0.000000 0.000000
# 3 -0.001590 -0.001590 0.007357 0.000000 0.000000 0.000000
# 4 0.000000 0.000000 0.000000 0.016516 0.000000 0.000000
# 5 0.000000 0.000000 0.000000 0.000000 0.016516 0.000000
# 6 0.000000 0.000000 0.000000 0.000000 0.000000 0.017543
#
#
# Mechanical properties :
#
#
# Convention : Reuss Voigt Hill
#
# Bulk Modulus (GPa) = 121.92393 127.83901 124.88147
# Shear Modulus (GPa) = 60.12148 60.75897 60.44023
#
# Velocity S-wave (km/s) = 4.75607 4.78122 4.76866
# Velocity P-wave (km/s) = 8.71969 8.86444 8.79237
#
# Compressibility (1/GPa) = 0.00820184
#
# Stress axis : x y z
#
# Youngs Moduli (GPa) = 171.34603 171.34603 135.92561
#
# Poissons Ratio (x) = 0.38267 0.21615
# Poissons Ratio (y) = 0.38267 0.21615
# Poissons Ratio (z) = 0.27248 0.27248
#
# Static dielectric constant tensor:
#      x y z
#    x 2.374420 0.000000 0.000000 
#    y 0.000000 2.374420 0.000000 
#    z 0.000000 0.000000 2.087580 
# 
# From -- ./inp_files/5695.got.cif
#   From: 2010.05.17/outbox.cif.g08.bks.cpg/sg122_3_cif.got.tgz:5695.got - 2010.05.20 11:37:33.
