data_PCOD9561280
_publ_section_title
;
Structure prediction by ZEFSAII (Michael W. Deem and Ramdas Pophale) SiO2 
 PCOD9561280
Probable space group: I -4 2 D
;
_chemical_formula_sum "Si O2"
_cell_formula_units_Z 60
_cell_length_a 13.500991
_cell_length_b 13.500991
_cell_length_c 14.860854
_cell_angle_alpha 90.000000
_cell_angle_beta 90.000000
_cell_angle_gamma 90.000000
_cell_volume 2708.788288
_symmetry_space_group_name_H-M "I -4 2 D"
_symmetry_group_IT_number 122
_symmetry_cell_setting 'tetragonal'
loop_
_space_group_symop_operation_xyz
x,y,z
y,-x,-z
-x,-y,z
-y,x,-z
x,1/2-y,1/4-z
-x,1/2+y,1/4-z
-y,1/2-x,1/4+z
y,1/2+x,1/4+z
1/2+x,1/2+y,1/2+z
1/2+y,1/2-x,1/2-z
1/2-x,1/2-y,1/2+z
1/2-y,1/2+x,1/2-z
1/2+x,-y,3/4-z
1/2-x,y,3/4-z
1/2-y,-x,3/4+z
1/2+y,x,3/4+z
loop_
_atom_site_type_symbol
_atom_site_label
_atom_site_fract_x
_atom_site_fract_y
_atom_site_fract_z
Si Si1 0.750000 0.629723 0.875000
Si Si2 0.323159 0.266092 0.519699
Si Si3 0.639342 0.433434 0.853411
Si Si4 0.276221 0.041458 0.980515
Si Si5 0.000000 0.500000 0.750000
O O1 0.754646 0.703488 0.790023
O O2 0.662633 0.551561 0.849842
O O3 0.319008 0.250000 0.625000
O O4 0.431055 0.236026 0.483535
O O5 0.305951 0.382289 0.512993
O O6 0.750000 0.393569 0.875000
O O7 0.590549 0.378525 0.767953
O O8 0.563274 0.426828 0.936488
O O9 0.250000 0.036681 0.875000
#
# Coordination Sequence:
#
# PCOD9561280 Si02
#       5
#     8  16  16  16   4
#     4  10  24  46  74 108 154 192 256 328 380 462
#     4  11  25  45  73 107 146 199 248 311 379 456
#     4  10  26  41  73 109 145 201 254 315 404 450
#     4  11  25  46  71 102 150 194 249 303 377 461
#     4  12  24  44  68 112 160 190 260 332 384 476
#
# _framework density 22.150124000000002
#
# number of rings (size 3 to 8) (size 9 to 14) (size 15 to 20)
#    0.800    0.533    1.333    2.400    7.467    4.800 
#    0.000    5.333    0.000    0.000    0.000    0.000 
#    0.000    0.000    0.000    0.000    0.000    0.000 
#
# Total GULP energy -167091.401403 kJ/mol
# GULP energy per Si atom -5569.713380 kJ/mol
# Density = 2.209971 g / cm^3
# Si number density = 22.150124 Si / 1000 Ang^3
#
#
#
# Elastic Constant Matrix: (Units=GPa)
#
#
# Indices 1 2 3 4 5 6 
#
# 1 109.7120 46.8169 44.6384 0.0000 0.0000 0.0000
# 2 46.8169 109.7120 44.6384 0.0000 0.0000 0.0000
# 3 44.6384 44.6384 103.3878 0.0000 0.0000 0.0000
# 4 0.0000 0.0000 0.0000 27.5200 0.0000 0.0000
# 5 0.0000 0.0000 0.0000 0.0000 27.5200 0.0000
# 6 0.0000 0.0000 0.0000 0.0000 0.0000 31.7375
#
#
#
# Elastic Compliance Matrix: (Units=1/GPa)
#
#
# Indices 1 2 3 4 5 6 
#
# 1 0.012188 -0.003712 -0.003659 0.000000 0.000000 0.000000
# 2 -0.003712 0.012188 -0.003659 0.000000 0.000000 0.000000
# 3 -0.003659 -0.003659 0.012832 0.000000 0.000000 0.000000
# 4 0.000000 0.000000 0.000000 0.036337 0.000000 0.000000
# 5 0.000000 0.000000 0.000000 0.000000 0.036337 0.000000
# 6 0.000000 0.000000 0.000000 0.000000 0.000000 0.031508
#
#
# Mechanical properties :
#
#
# Convention : Reuss Voigt Hill
#
# Bulk Modulus (GPa) = 66.02407 66.11103 66.06755
# Shear Modulus (GPa) = 29.67347 29.80340 29.73844
#
# Velocity S-wave (km/s) = 3.66410 3.67211 3.66811
# Velocity P-wave (km/s) = 6.91181 6.92032 6.91606
#
# Compressibility (1/GPa) = 0.01514599
#
# Stress axis : x y z
#
# Youngs Moduli (GPa) = 82.05035 82.05035 77.92808
#
# Poissons Ratio (x) = 0.30456 0.28518
# Poissons Ratio (y) = 0.30456 0.28518
# Poissons Ratio (z) = 0.30026 0.30026
#
# Static dielectric constant tensor:
#      x y z
#    x 1.878380 0.000000 0.000000 
#    y 0.000000 1.878380 0.000000 
#    z 0.000000 0.000000 1.699610 
# 
# From -- ./inp_files/5169.got.cif
#   From: 2010.05.17/outbox.cif.g08.bks.cpg/sg122_3_cif.got.tgz:5169.got - 2010.05.20 11:37:33.
