data_PCOD9561382
_publ_section_title
;
Structure prediction by ZEFSAII (Michael W. Deem and Ramdas Pophale) SiO2 
 PCOD9561382
Probable space group: I -4 2 D
;
_chemical_formula_sum "Si O2"
_cell_formula_units_Z 88
_cell_length_a 11.928721
_cell_length_b 11.928721
_cell_length_c 27.950730
_cell_angle_alpha 90.000000
_cell_angle_beta 90.000000
_cell_angle_gamma 90.000000
_cell_volume 3977.231927
_symmetry_space_group_name_H-M "I -4 2 D"
_symmetry_group_IT_number 122
_symmetry_cell_setting 'tetragonal'
loop_
_space_group_symop_operation_xyz
x,y,z
y,-x,-z
-x,-y,z
-y,x,-z
x,1/2-y,1/4-z
-x,1/2+y,1/4-z
-y,1/2-x,1/4+z
y,1/2+x,1/4+z
1/2+x,1/2+y,1/2+z
1/2+y,1/2-x,1/2-z
1/2-x,1/2-y,1/2+z
1/2-y,1/2+x,1/2-z
1/2+x,-y,3/4-z
1/2-x,y,3/4-z
1/2-y,-x,3/4+z
1/2+y,x,3/4+z
loop_
_atom_site_type_symbol
_atom_site_label
_atom_site_fract_x
_atom_site_fract_y
_atom_site_fract_z
Si Si1 0.266280 0.478940 0.170502
Si Si2 0.205216 0.105795 0.562114
Si Si3 0.407134 0.234832 0.996106
Si Si4 0.500000 0.500000 0.221303
Si Si5 0.144059 0.712638 0.180521
Si Si6 0.771412 0.111817 0.932246
O O1 0.288950 0.435099 0.116533
O O2 0.387000 0.514082 0.190590
O O3 0.190197 0.587539 0.178110
O O4 0.192812 0.376670 0.192474
O O5 0.121828 0.205447 0.546440
O O6 0.325343 0.161817 0.549505
O O7 0.187779 0.996966 0.530337
O O8 0.298153 0.216570 0.962592
O O9 0.463512 0.112837 0.001332
O O10 0.144871 0.750000 0.125000
O O11 0.015285 0.715001 0.198613
O O12 0.750000 0.107242 0.875000
#
# Coordination Sequence:
#
# PCOD9561382 Si02
#       6
#    16  16  16   8  16  16
#     4  11  23  46  70 104 138 196 240 295 381 444
#     4  11  24  45  68 102 145 189 249 296 362 446
#     4  12  25  44  71 104 147 191 243 309 369 428
#     4  12  26  44  70 101 144 192 233 302 364 440
#     4  11  22  42  71 107 137 183 242 305 376 456
#     4   9  20  40  71  99 136 177 237 305 367 438
#
# _framework density 22.12594
#
# number of rings (size 3 to 8) (size 9 to 14) (size 15 to 20)
#    0.000    1.091    3.636    2.727    0.000    1.818 
#    3.273    0.000    4.000    0.000    0.000    0.000 
#    0.000    0.000    0.000    0.000    0.000    0.000 
#
# Total GULP energy -245657.824085 kJ/mol
# GULP energy per Si atom -5583.132366 kJ/mol
# Density = 2.207558 g / cm^3
# Si number density = 22.125940 Si / 1000 Ang^3
#
#
#
# Elastic Constant Matrix: (Units=GPa)
#
#
# Indices 1 2 3 4 5 6 
#
# 1 94.4351 19.0494 32.0478 0.0000 0.0000 0.0000
# 2 19.0494 94.4351 32.0478 0.0000 0.0000 0.0000
# 3 32.0478 32.0478 59.9548 0.0000 0.0000 0.0000
# 4 0.0000 0.0000 0.0000 31.3271 0.0000 0.0000
# 5 0.0000 0.0000 0.0000 0.0000 31.3271 0.0000
# 6 0.0000 0.0000 0.0000 0.0000 0.0000 29.4278
#
#
#
# Elastic Compliance Matrix: (Units=1/GPa)
#
#
# Indices 1 2 3 4 5 6 
#
# 1 0.012944 -0.000321 -0.006747 0.000000 0.000000 0.000000
# 2 -0.000321 0.012944 -0.006747 0.000000 0.000000 0.000000
# 3 -0.006747 -0.006747 0.023892 0.000000 0.000000 0.000000
# 4 0.000000 0.000000 0.000000 0.031921 0.000000 0.000000
# 5 0.000000 0.000000 0.000000 0.000000 0.031921 0.000000
# 6 0.000000 0.000000 0.000000 0.000000 0.000000 0.033981
#
#
# Mechanical properties :
#
#
# Convention : Reuss Voigt Hill
#
# Bulk Modulus (GPa) = 45.14913 46.12390 45.63652
# Shear Modulus (GPa) = 27.37952 29.46172 28.42062
#
# Velocity S-wave (km/s) = 3.52154 3.65300 3.58787
# Velocity P-wave (km/s) = 6.08152 6.21963 6.15096
#
# Compressibility (1/GPa) = 0.02214882
#
# Stress axis : x y z
#
# Youngs Moduli (GPa) = 77.25690 77.25690 41.85433
#
# Poissons Ratio (x) = 0.02482 0.28240
# Poissons Ratio (y) = 0.02482 0.28240
# Poissons Ratio (z) = 0.52127 0.52127
#
# Static dielectric constant tensor:
#      x y z
#    x 1.853770 0.000000 0.000000 
#    y 0.000000 1.853770 0.000000 
#    z 0.000000 0.000000 1.829890 
# 
# From -- ./inp_files/9520.got.cif
#   From: 2010.05.17/outbox.cif.g08.bks.cpg/sg122_5_cif.got.tgz:9520.got - 2010.05.20 11:37:33.
