data_PCOD9561136
_publ_section_title
;
Structure prediction by ZEFSAII (Michael W. Deem and Ramdas Pophale) SiO2 
 PCOD9561136
Probable space group: I -4 2 D
;
_chemical_formula_sum "Si O2"
_cell_formula_units_Z 88
_cell_length_a 14.839117
_cell_length_b 14.839117
_cell_length_c 19.240424
_cell_angle_alpha 90.000000
_cell_angle_beta 90.000000
_cell_angle_gamma 90.000000
_cell_volume 4236.729692
_symmetry_space_group_name_H-M "I -4 2 D"
_symmetry_group_IT_number 122
_symmetry_cell_setting 'tetragonal'
loop_
_space_group_symop_operation_xyz
x,y,z
y,-x,-z
-x,-y,z
-y,x,-z
x,1/2-y,1/4-z
-x,1/2+y,1/4-z
-y,1/2-x,1/4+z
y,1/2+x,1/4+z
1/2+x,1/2+y,1/2+z
1/2+y,1/2-x,1/2-z
1/2-x,1/2-y,1/2+z
1/2-y,1/2+x,1/2-z
1/2+x,-y,3/4-z
1/2-x,y,3/4-z
1/2-y,-x,3/4+z
1/2+y,x,3/4+z
loop_
_atom_site_type_symbol
_atom_site_label
_atom_site_fract_x
_atom_site_fract_y
_atom_site_fract_z
Si Si1 0.500000 0.500000 0.320304
Si Si2 0.804083 0.289029 0.052296
Si Si3 0.510204 0.798296 0.898921
Si Si4 0.444736 0.155090 0.152410
Si Si5 0.847561 0.541591 0.540173
Si Si6 0.611398 0.297684 0.012152
O O1 0.498826 0.594138 0.362976
O O2 0.409964 0.499238 0.271033
O O3 0.837784 0.250000 0.125000
O O4 0.788913 0.394274 0.064536
O O5 0.878036 0.287146 0.992690
O O6 0.705373 0.252807 0.033900
O O7 0.510807 0.727023 0.835531
O O8 0.438553 0.766070 0.956730
O O9 0.407027 0.250000 0.125000
O O10 0.421073 0.083176 0.093654
O O11 0.547008 0.174080 0.174357
O O12 0.389854 0.128368 0.220388
#
# Coordination Sequence:
#
# PCOD9561136 Si02
#       6
#     8  16  16  16  16  16
#     4  10  22  42  66  96 136 166 216 274 320 396
#     4  11  23  40  61  91 129 163 222 268 319 400
#     4  10  23  41  64  94 126 171 220 257 335 392
#     4  11  20  36  56  89 136 160 209 261 317 404
#     4  10  23  40  64  94 129 175 206 277 333 383
#     4  11  21  36  60  92 125 171 206 257 333 394
#
# _framework density 20.770738000000001
#
# number of rings (size 3 to 8) (size 9 to 14) (size 15 to 20)
#    0.000    1.455    3.636    1.636    5.091    0.364 
#    0.000    3.636    0.000    1.091    0.000    0.000 
#    0.000    0.000    0.000    0.000    0.000    0.000 
#
# Total GULP energy -245481.569528 kJ/mol
# GULP energy per Si atom -5579.126580 kJ/mol
# Density = 2.072346 g / cm^3
# Si number density = 20.770738 Si / 1000 Ang^3
#
#
#
# Elastic Constant Matrix: (Units=GPa)
#
#
# Indices 1 2 3 4 5 6 
#
# 1 51.1858 13.7399 -2.3333 0.0000 0.0000 0.0000
# 2 13.7399 51.1858 -2.3333 0.0000 0.0000 0.0000
# 3 -2.3333 -2.3333 33.8560 0.0000 0.0000 0.0000
# 4 0.0000 0.0000 0.0000 45.6517 0.0000 0.0000
# 5 0.0000 0.0000 0.0000 0.0000 45.6517 0.0000
# 6 0.0000 0.0000 0.0000 0.0000 0.0000 -1.9867
#
#
#
# Elastic Compliance Matrix: (Units=1/GPa)
#
#
# Indices 1 2 3 4 5 6 
#
# 1 0.021092 -0.005613 0.001067 0.000000 0.000000 0.000000
# 2 -0.005613 0.021092 0.001067 0.000000 0.000000 0.000000
# 3 0.001067 0.001067 0.029684 0.000000 0.000000 0.000000
# 4 0.000000 0.000000 0.000000 0.021905 0.000000 0.000000
# 5 0.000000 0.000000 0.000000 0.000000 0.021905 0.000000
# 6 0.000000 0.000000 0.000000 0.000000 0.000000 -0.503344
#
#
# Mechanical properties :
#
#
# Convention : Reuss Voigt Hill
#
# Bulk Modulus (GPa) = 15.40622 17.15268 16.27945
# Shear Modulus (GPa) = -13.92485 26.34031 6.20773
#
# Velocity S-wave (km/s) = -2.59203 3.56497 1.73066
# Velocity P-wave (km/s) = 1.23482 5.02208 3.44213
#
# Compressibility (1/GPa) = 0.06490886
#
# Stress axis : x y z
#
# Youngs Moduli (GPa) = 47.41128 47.41128 33.68827
#
# Poissons Ratio (x) = 0.26613 -0.03594
# Poissons Ratio (y) = 0.26613 -0.03594
# Poissons Ratio (z) = -0.05058 -0.05058
#
# Static dielectric constant tensor:
#      x y z
#    x 1.758030 0.000000 0.000000 
#    y 0.000000 1.758030 0.000000 
#    z 0.000000 0.000000 1.844620 
# 
# From -- ./inp_files/7214.got.cif
#   From: 2010.05.17/outbox.cif.g08.bks.cpg/sg122_4_cif.got.tgz:7214.got - 2010.05.20 11:37:33.
