data_PCOD9561720
_publ_section_title
;
Structure prediction by ZEFSAII (Michael W. Deem and Ramdas Pophale) SiO2 
 PCOD9561720
Probable space group: P 4/M M M
;
_chemical_formula_sum "Si O2"
_cell_formula_units_Z 128
_cell_length_a 19.967927
_cell_length_b 19.967927
_cell_length_c 20.579796
_cell_angle_alpha 90.000000
_cell_angle_beta 90.000000
_cell_angle_gamma 90.000000
_cell_volume 8205.537338
_symmetry_space_group_name_H-M "P 4/M M M"
_symmetry_group_IT_number 123
_symmetry_cell_setting 'tetragonal'
loop_
_space_group_symop_operation_xyz
x,y,z
-y,x,z
-x,-y,z
y,-x,z
x,-y,-z
-x,y,-z
y,x,-z
-y,-x,-z
-x,-y,-z
y,-x,-z
x,y,-z
-y,x,-z
-x,y,z
x,-y,z
-y,-x,z
y,x,z
loop_
_atom_site_type_symbol
_atom_site_label
_atom_site_fract_x
_atom_site_fract_y
_atom_site_fract_z
Si Si1 0.189498 0.077559 0.926851
Si Si2 0.865137 0.249746 0.198010
Si Si3 0.167902 0.722779 0.577338
Si Si4 0.078381 0.809156 0.327270
Si Si5 0.421418 0.690237 0.924534
Si Si6 0.686832 0.575082 0.310114
Si Si7 0.242169 0.357072 0.194610
Si Si8 0.424941 0.210178 0.423055
O O1 0.124561 0.124561 0.919606
O O2 0.240034 0.097424 0.870029
O O3 0.171048 0.000000 0.920818
O O4 0.216139 0.088826 0.000000
O O5 0.805556 0.194445 0.198738
O O6 0.910291 0.229804 0.259221
O O7 0.828950 0.321143 0.202146
O O8 0.157035 0.729396 0.500000
O O9 0.238661 0.761340 0.592379
O O10 0.112196 0.762547 0.617677
O O11 0.170770 0.643692 0.593220
O O12 0.122776 0.877225 0.324995
O O13 0.000000 0.821423 0.338166
O O14 0.500000 0.677128 0.913977
O O15 0.376408 0.623593 0.914586
O O16 0.394856 0.744588 0.873127
O O17 0.412243 0.710622 0.000000
O O18 0.663404 0.500000 0.297901
O O19 0.626793 0.626793 0.307313
O O20 0.740122 0.595586 0.254833
O O21 0.723797 0.578162 0.379180
O O22 0.297708 0.297708 0.196310
O O23 0.420890 0.224671 0.500000
O O24 0.500000 0.180199 0.411407
#
# Coordination Sequence:
#
# PCOD9561720 Si02
#       8
#    16  16  16  16  16  16  16  16
#     4   9  17  28  42  62  89 119 147 172 199 238
#     4   9  17  29  45  64  86 113 145 181 222 265
#     4   9  17  30  49  71  95 125 160 196 234 278
#     4  10  20  33  50  72  97 125 156 189 228 277
#     4   9  17  28  42  62  89 120 153 189 230 278
#     4  10  19  29  42  61  87 119 152 185 222 265
#     4   9  17  29  44  61  82 110 146 187 228 267
#     4   9  17  29  47  71  95 119 152 195 237 274
#
# _framework density 15.599221999999999
#
# number of rings (size 3 to 8) (size 9 to 14) (size 15 to 20)
#    0.000    2.750    0.000    1.875    0.000    4.000 
#    0.000    3.750    0.000    4.875    0.000    5.250 
#    0.000    6.000    0.000   11.000    0.000    1.000 
#
# Total GULP energy -712565.775216 kJ/mol
# GULP energy per Si atom -5566.920119 kJ/mol
# Density = 1.556372 g / cm^3
# Si number density = 15.599222 Si / 1000 Ang^3
#
#
#
# Elastic Constant Matrix: (Units=GPa)
#
#
# Indices 1 2 3 4 5 6 
#
# 1 78.8822 52.7908 40.0519 0.0000 0.0000 0.0000
# 2 52.7908 78.8822 40.0519 0.0000 0.0000 0.0000
# 3 40.0519 40.0519 55.0406 0.0000 0.0000 0.0000
# 4 0.0000 0.0000 0.0000 21.3723 0.0000 0.0000
# 5 0.0000 0.0000 0.0000 0.0000 21.3723 0.0000
# 6 0.0000 0.0000 0.0000 0.0000 0.0000 12.3020
#
#
#
# Elastic Compliance Matrix: (Units=1/GPa)
#
#
# Indices 1 2 3 4 5 6 
#
# 1 0.025977 -0.012350 -0.009916 0.000000 0.000000 0.000000
# 2 -0.012350 0.025977 -0.009916 0.000000 0.000000 0.000000
# 3 -0.009916 -0.009916 0.032600 0.000000 0.000000 0.000000
# 4 0.000000 0.000000 0.000000 0.046790 0.000000 0.000000
# 5 0.000000 0.000000 0.000000 0.000000 0.046790 0.000000
# 6 0.000000 0.000000 0.000000 0.000000 0.000000 0.081287
#
#
# Mechanical properties :
#
#
# Convention : Reuss Voigt Hill
#
# Bulk Modulus (GPa) = 49.53060 53.17713 51.35387
# Shear Modulus (GPa) = 15.12792 16.33667 15.73230
#
# Velocity S-wave (km/s) = 3.11752 3.23967 3.17918
# Velocity P-wave (km/s) = 6.69175 6.93957 6.81678
#
# Compressibility (1/GPa) = 0.02018954
#
# Stress axis : x y z
#
# Youngs Moduli (GPa) = 38.49566 38.49566 30.67495
#
# Poissons Ratio (x) = 0.47542 0.30418
# Poissons Ratio (y) = 0.47542 0.30418
# Poissons Ratio (z) = 0.38173 0.38173
#
# Static dielectric constant tensor:
#      x y z
#    x 1.508310 0.000000 0.000000 
#    y 0.000000 1.508310 0.000000 
#    z 0.000000 0.000000 1.540260 
# 
# From -- ./inp_files/5999.got.cif
#   From: 2010.05.17/outbox.cif.g08.bks.cpg/sg123_3_cif.got.tgz:5999.got - 2010.05.20 11:43:04.
