data_PCOD9561063
_publ_section_title
;
Structure prediction by ZEFSAII (Michael W. Deem and Ramdas Pophale) SiO2 
 PCOD9561063
Probable space group: I -4 2 D
;
_chemical_formula_sum "Si O2"
_cell_formula_units_Z 100
_cell_length_a 15.162456
_cell_length_b 15.162456
_cell_length_c 20.335345
_cell_angle_alpha 90.000000
_cell_angle_beta 90.000000
_cell_angle_gamma 90.000000
_cell_volume 4675.097279
_symmetry_space_group_name_H-M "I -4 2 D"
_symmetry_group_IT_number 122
_symmetry_cell_setting 'tetragonal'
loop_
_space_group_symop_operation_xyz
x,y,z
y,-x,-z
-x,-y,z
-y,x,-z
x,1/2-y,1/4-z
-x,1/2+y,1/4-z
-y,1/2-x,1/4+z
y,1/2+x,1/4+z
1/2+x,1/2+y,1/2+z
1/2+y,1/2-x,1/2-z
1/2-x,1/2-y,1/2+z
1/2-y,1/2+x,1/2-z
1/2+x,-y,3/4-z
1/2-x,y,3/4-z
1/2-y,-x,3/4+z
1/2+y,x,3/4+z
loop_
_atom_site_type_symbol
_atom_site_label
_atom_site_fract_x
_atom_site_fract_y
_atom_site_fract_z
Si Si1 0.013653 0.680105 0.065344
Si Si2 0.686471 0.543758 0.011844
Si Si3 0.668971 0.619996 0.642961
Si Si4 0.925877 0.848817 0.896712
Si Si5 0.856724 0.713446 0.800719
Si Si6 0.000000 0.500000 0.750000
Si Si7 0.784339 0.650421 0.244111
O O1 0.015296 0.750000 0.125000
O O2 0.913528 0.648597 0.062671
O O3 0.079397 0.605762 0.092750
O O4 0.060457 0.727061 0.003811
O O5 0.748984 0.594432 0.062067
O O6 0.721346 0.443875 0.003573
O O7 0.586996 0.528892 0.039177
O O8 0.673176 0.611560 0.951595
O O9 0.642872 0.530012 0.604027
O O10 0.695484 0.677703 0.580036
O O11 0.893062 0.754411 0.868273
O O12 0.873901 0.861817 0.964347
O O13 0.776591 0.774852 0.777607
#
# Coordination Sequence:
#
# PCOD9561063 Si02
#       7
#    16  16  16  16  16   4  16
#     4   9  20  37  51  79 119 161 193 246 298 348
#     4   9  19  34  63  84 107 150 198 249 311 361
#     4  11  22  33  59  91 118 153 207 252 304 368
#     4   9  20  38  56  81 117 164 206 229 297 377
#     4   9  18  37  58  82 111 152 194 250 299 364
#     4   8  16  40  64  76 112 144 192 256 312 370
#     4  10  22  36  59  84 127 160 196 253 309 373
#
# _framework density 21.389931000000001
#
# number of rings (size 3 to 8) (size 9 to 14) (size 15 to 20)
#    0.000    2.560    0.000    1.920    6.720    0.000 
#    0.000    0.000   35.200    0.000    0.000    0.000 
#    0.000    0.000    0.000    0.000    0.000    0.000 
#
# Total GULP energy -278648.536515 kJ/mol
# GULP energy per Si atom -5572.970730 kJ/mol
# Density = 2.134125 g / cm^3
# Si number density = 21.389931 Si / 1000 Ang^3
#
#
#
# Elastic Constant Matrix: (Units=GPa)
#
#
# Indices 1 2 3 4 5 6 
#
# 1 70.0713 6.7527 13.6770 0.0000 0.0000 0.0000
# 2 6.7527 70.0713 13.6770 0.0000 0.0000 0.0000
# 3 13.6770 13.6770 42.7725 0.0000 0.0000 0.0000
# 4 0.0000 0.0000 0.0000 22.6132 0.0000 0.0000
# 5 0.0000 0.0000 0.0000 0.0000 22.6132 0.0000
# 6 0.0000 0.0000 0.0000 0.0000 0.0000 34.3809
#
#
#
# Elastic Compliance Matrix: (Units=1/GPa)
#
#
# Indices 1 2 3 4 5 6 
#
# 1 0.015241 -0.000552 -0.004697 0.000000 0.000000 0.000000
# 2 -0.000552 0.015241 -0.004697 0.000000 0.000000 0.000000
# 3 -0.004697 -0.004697 0.026383 0.000000 0.000000 0.000000
# 4 0.000000 0.000000 0.000000 0.044222 0.000000 0.000000
# 5 0.000000 0.000000 0.000000 0.000000 0.044222 0.000000
# 6 0.000000 0.000000 0.000000 0.000000 0.000000 0.029086
#
#
# Mechanical properties :
#
#
# Convention : Reuss Voigt Hill
#
# Bulk Modulus (GPa) = 27.04632 27.90316 27.47474
# Shear Modulus (GPa) = 24.19993 25.84202 25.02097
#
# Velocity S-wave (km/s) = 3.36723 3.47960 3.42388
# Velocity P-wave (km/s) = 5.27158 5.40526 5.33884
#
# Compressibility (1/GPa) = 0.03697361
#
# Stress axis : x y z
#
# Youngs Moduli (GPa) = 65.61177 65.61177 37.90270
#
# Poissons Ratio (x) = 0.03622 0.17803
# Poissons Ratio (y) = 0.03622 0.17803
# Poissons Ratio (z) = 0.30818 0.30818
#
# Static dielectric constant tensor:
#      x y z
#    x 1.844020 0.000000 0.000000 
#    y 0.000000 1.844020 0.000000 
#    z 0.000000 0.000000 1.786480 
# 
# From -- ./inp_files/8047.got.cif
#   From: 2010.05.17/outbox.cif.g08.bks.cpg/sg122_5_cif.got.tgz:8047.got - 2010.05.20 11:37:33.
