data_PCOD9561759
_publ_section_title
;
Structure prediction by ZEFSAII (Michael W. Deem and Ramdas Pophale) SiO2 
 PCOD9561759
Probable space group: P 4/M M M
;
_chemical_formula_sum "Si O2"
_cell_formula_units_Z 112
_cell_length_a 14.449769
_cell_length_b 14.449769
_cell_length_c 36.212985
_cell_angle_alpha 90.000000
_cell_angle_beta 90.000000
_cell_angle_gamma 90.000000
_cell_volume 7561.120048
_symmetry_space_group_name_H-M "P 4/M M M"
_symmetry_group_IT_number 123
_symmetry_cell_setting 'tetragonal'
loop_
_space_group_symop_operation_xyz
x,y,z
-y,x,z
-x,-y,z
y,-x,z
x,-y,-z
-x,y,-z
y,x,-z
-y,-x,-z
-x,-y,-z
y,-x,-z
x,y,-z
-y,x,-z
-x,y,z
x,-y,z
-y,-x,z
y,x,z
loop_
_atom_site_type_symbol
_atom_site_label
_atom_site_fract_x
_atom_site_fract_y
_atom_site_fract_z
Si Si1 0.612089 0.105223 0.890986
Si Si2 0.607634 0.109833 0.611063
Si Si3 0.763955 0.610124 0.177489
Si Si4 0.608595 0.237984 0.541773
Si Si5 0.107476 0.392316 0.751404
Si Si6 0.238221 0.608805 0.956936
Si Si7 0.263181 0.109616 0.680598
O O1 0.500000 0.100149 0.889940
O O2 0.638385 0.170413 0.856765
O O3 0.636402 0.156709 0.929050
O O4 0.647052 0.000000 0.888413
O O5 0.500000 0.129023 0.620773
O O6 0.630251 0.165219 0.573879
O O7 0.674587 0.133599 0.644888
O O8 0.615043 0.000000 0.604496
O O9 0.743788 0.500000 0.174189
O O10 0.672667 0.672667 0.177766
O O11 0.823296 0.623899 0.214792
O O12 0.623678 0.201324 0.500000
O O13 0.500000 0.261561 0.544749
O O14 0.672610 0.327391 0.546222
O O15 0.116755 0.500000 0.739800
O O16 0.124990 0.325167 0.717099
O O17 0.000000 0.380257 0.763377
O O18 0.259283 0.500000 0.950741
O O19 0.327379 0.672622 0.950080
O O20 0.211868 0.619216 0.000000
O O21 0.173001 0.173001 0.681582
O O22 0.241768 0.000000 0.678864
#
# Coordination Sequence:
#
# PCOD9561759 Si02
#       7
#    16  16  16  16  16  16  16
#     4   9  17  29  44  61  82 110 144 181 219 252
#     4   9  17  29  45  64  84 107 138 176 216 254
#     4  10  19  30  45  65  90 118 145 173 206 248
#     4   9  17  28  42  61  85 112 140 170 205 247
#     4   9  17  30  48  68  88 111 142 179 216 250
#     4   9  17  28  42  62  89 119 148 177 210 253
#     4  10  19  30  45  64  87 114 142 174 212 254
#
# _framework density 14.812620000000001
#
# number of rings (size 3 to 8) (size 9 to 14) (size 15 to 20)
#    0.000    2.714    0.000    2.143    0.000    4.571 
#    0.000    4.286    0.000    2.571    0.000    0.000 
#    0.000   22.857    0.000   19.571    0.000    0.857 
#
# Total GULP energy -623876.247861 kJ/mol
# GULP energy per Si atom -5570.323642 kJ/mol
# Density = 1.477891 g / cm^3
# Si number density = 14.812620 Si / 1000 Ang^3
#
#
#
# Elastic Constant Matrix: (Units=GPa)
#
#
# Indices 1 2 3 4 5 6 
#
# 1 76.4874 58.6760 63.0442 0.0000 0.0000 0.0000
# 2 58.6760 76.4874 63.0442 0.0000 0.0000 0.0000
# 3 63.0442 63.0442 102.4794 0.0000 0.0000 0.0000
# 4 0.0000 0.0000 0.0000 20.1927 0.0000 0.0000
# 5 0.0000 0.0000 0.0000 0.0000 20.1927 0.0000
# 6 0.0000 0.0000 0.0000 0.0000 0.0000 22.9662
#
#
#
# Elastic Compliance Matrix: (Units=1/GPa)
#
#
# Indices 1 2 3 4 5 6 
#
# 1 0.036753 -0.019391 -0.010681 0.000000 0.000000 0.000000
# 2 -0.019391 0.036753 -0.010681 0.000000 0.000000 0.000000
# 3 -0.010681 -0.010681 0.022900 0.000000 0.000000 0.000000
# 4 0.000000 0.000000 0.000000 0.049523 0.000000 0.000000
# 5 0.000000 0.000000 0.000000 0.000000 0.049523 0.000000
# 6 0.000000 0.000000 0.000000 0.000000 0.000000 0.043542
#
#
# Mechanical properties :
#
#
# Convention : Reuss Voigt Hill
#
# Bulk Modulus (GPa) = 67.11349 69.44256 68.27802
# Shear Modulus (GPa) = 15.36253 17.38299 16.37276
#
# Velocity S-wave (km/s) = 3.22393 3.42939 3.32825
# Velocity P-wave (km/s) = 7.69838 7.91602 7.80796
#
# Compressibility (1/GPa) = 0.01490014
#
# Stress axis : x y z
#
# Youngs Moduli (GPa) = 27.20850 27.20850 43.66807
#
# Poissons Ratio (x) = 0.52759 0.46643
# Poissons Ratio (y) = 0.52759 0.46643
# Poissons Ratio (z) = 0.29062 0.29062
#
# Static dielectric constant tensor:
#      x y z
#    x 1.470540 0.000000 0.000000 
#    y 0.000000 1.470540 0.000000 
#    z 0.000000 0.000000 1.494160 
# 
# From -- ./inp_files/8782.got.cif
#   From: 2010.05.17/outbox.cif.g08.bks.cpg/sg123_5_cif.got.tgz:8782.got - 2010.05.20 11:43:04.
