data_PCOD9561330
_publ_section_title
;
Structure prediction by ZEFSAII (Michael W. Deem and Ramdas Pophale) SiO2 
 PCOD9561330
Probable space group: I -4 2 D
;
_chemical_formula_sum "Si O2"
_cell_formula_units_Z 68
_cell_length_a 18.583466
_cell_length_b 18.583466
_cell_length_c 10.566938
_cell_angle_alpha 90.000000
_cell_angle_beta 90.000000
_cell_angle_gamma 90.000000
_cell_volume 3649.241408
_symmetry_space_group_name_H-M "I -4 2 D"
_symmetry_group_IT_number 122
_symmetry_cell_setting 'tetragonal'
loop_
_space_group_symop_operation_xyz
x,y,z
y,-x,-z
-x,-y,z
-y,x,-z
x,1/2-y,1/4-z
-x,1/2+y,1/4-z
-y,1/2-x,1/4+z
y,1/2+x,1/4+z
1/2+x,1/2+y,1/2+z
1/2+y,1/2-x,1/2-z
1/2-x,1/2-y,1/2+z
1/2-y,1/2+x,1/2-z
1/2+x,-y,3/4-z
1/2-x,y,3/4-z
1/2-y,-x,3/4+z
1/2+y,x,3/4+z
loop_
_atom_site_type_symbol
_atom_site_label
_atom_site_fract_x
_atom_site_fract_y
_atom_site_fract_z
Si Si1 0.577582 0.771842 0.920663
Si Si2 0.000000 0.500000 0.750000
Si Si3 0.370733 0.899803 0.341390
Si Si4 0.928064 0.257563 0.480503
Si Si5 0.696860 0.776372 0.493191
O O1 0.493563 0.781785 0.895072
O O2 0.626175 0.766371 0.796742
O O3 0.599325 0.832970 0.021334
O O4 0.586082 0.693780 0.990413
O O5 0.042284 0.435535 0.675398
O O6 0.400062 0.820186 0.312175
O O7 0.955861 0.250000 0.625000
O O8 0.861623 0.311918 0.489413
O O9 0.728918 0.750000 0.625000
O O10 0.750000 0.767016 0.375000
#
# Coordination Sequence:
#
# PCOD9561330 Si02
#       5
#    16   4  16  16  16
#     4  11  21  35  55  85 123 144 201 258 310 357
#     4  12  20  32  60  92 126 160 212 256 322 372
#     4  11  20  32  54  89 118 156 197 257 300 367
#     4  11  19  32  57  84 112 151 196 249 297 361
#     4  11  23  39  62  86 118 164 206 253 314 377
#
# _framework density 18.63401
#
# number of rings (size 3 to 8) (size 9 to 14) (size 15 to 20)
#    0.000    0.941    9.412    1.412    0.000    0.000 
#    0.000    3.529    0.000    0.000    0.000    1.647 
#    0.000    0.000    0.000    0.000    0.000    0.000 
#
# Total GULP energy -189634.753448 kJ/mol
# GULP energy per Si atom -5577.492748 kJ/mol
# Density = 1.859160 g / cm^3
# Si number density = 18.634010 Si / 1000 Ang^3
#
#
#
# Elastic Constant Matrix: (Units=GPa)
#
#
# Indices 1 2 3 4 5 6 
#
# 1 90.2179 30.5981 34.0937 0.0000 0.0000 0.0000
# 2 30.5981 90.2179 34.0937 0.0000 0.0000 0.0000
# 3 34.0937 34.0937 66.3860 0.0000 0.0000 0.0000
# 4 0.0000 0.0000 0.0000 22.7446 0.0000 0.0000
# 5 0.0000 0.0000 0.0000 0.0000 22.7446 0.0000
# 6 0.0000 0.0000 0.0000 0.0000 0.0000 29.3308
#
#
#
# Elastic Compliance Matrix: (Units=1/GPa)
#
#
# Indices 1 2 3 4 5 6 
#
# 1 0.014214 -0.002559 -0.005986 0.000000 0.000000 0.000000
# 2 -0.002559 0.014214 -0.005986 0.000000 0.000000 0.000000
# 3 -0.005986 -0.005986 0.021212 0.000000 0.000000 0.000000
# 4 0.000000 0.000000 0.000000 0.043967 0.000000 0.000000
# 5 0.000000 0.000000 0.000000 0.000000 0.043967 0.000000
# 6 0.000000 0.000000 0.000000 0.000000 0.000000 0.034094
#
#
# Mechanical properties :
#
#
# Convention : Reuss Voigt Hill
#
# Bulk Modulus (GPa) = 48.59289 49.37696 48.98493
# Shear Modulus (GPa) = 24.08622 24.83308 24.45965
#
# Velocity S-wave (km/s) = 3.59917 3.65454 3.62696
# Velocity P-wave (km/s) = 6.58833 6.66059 6.62456
#
# Compressibility (1/GPa) = 0.02057914
#
# Stress axis : x y z
#
# Youngs Moduli (GPa) = 70.35227 70.35227 47.14384
#
# Poissons Ratio (x) = 0.18002 0.28220
# Poissons Ratio (y) = 0.18002 0.28220
# Poissons Ratio (z) = 0.42112 0.42112
#
# Static dielectric constant tensor:
#      x y z
#    x 1.695450 0.000000 0.000000 
#    y 0.000000 1.695450 0.000000 
#    z 0.000000 0.000000 1.658160 
# 
# From -- ./inp_files/4178.got.cif
#   From: 2010.05.17/outbox.cif.g08.bks.cpg/sg122_3_cif.got.tgz:4178.got - 2010.05.20 11:37:33.
