data_PCOD9561572
_publ_section_title
;
Structure prediction by ZEFSAII (Michael W. Deem and Ramdas Pophale) SiO2 
 PCOD9561572
Probable space group: I -4 2 D
;
_chemical_formula_sum "Si O2"
_cell_formula_units_Z 64
_cell_length_a 18.126687
_cell_length_b 18.126687
_cell_length_c 6.710101
_cell_angle_alpha 90.000000
_cell_angle_beta 90.000000
_cell_angle_gamma 90.000000
_cell_volume 2204.783391
_symmetry_space_group_name_H-M "I -4 2 D"
_symmetry_group_IT_number 122
_symmetry_cell_setting 'tetragonal'
loop_
_space_group_symop_operation_xyz
x,y,z
y,-x,-z
-x,-y,z
-y,x,-z
x,1/2-y,1/4-z
-x,1/2+y,1/4-z
-y,1/2-x,1/4+z
y,1/2+x,1/4+z
1/2+x,1/2+y,1/2+z
1/2+y,1/2-x,1/2-z
1/2-x,1/2-y,1/2+z
1/2-y,1/2+x,1/2-z
1/2+x,-y,3/4-z
1/2-x,y,3/4-z
1/2-y,-x,3/4+z
1/2+y,x,3/4+z
loop_
_atom_site_type_symbol
_atom_site_label
_atom_site_fract_x
_atom_site_fract_y
_atom_site_fract_z
Si Si1 0.158012 0.133413 0.696755
Si Si2 0.368159 0.535858 0.263634
Si Si3 0.347874 0.691379 0.335981
Si Si4 0.131482 0.001546 0.231149
O O1 0.158972 0.043123 0.686761
O O2 0.222079 0.171326 0.565725
O O3 0.112292 0.179067 0.250666
O O4 0.176349 0.154420 0.925173
O O5 0.378747 0.522670 0.501749
O O6 0.449817 0.561908 0.197899
O O7 0.348935 0.572649 0.845313
O O8 0.434123 0.690682 0.279541
#
# Coordination Sequence:
#
# PCOD9561572 Si02
#       4
#    16  16  16  16
#     4   9  11  16  23  28  44  60  73 118 121 127
#     4   8  12  15  23  30  40  58  81 105 121 141
#     4   7  14  15  18  35  40  51  88 105 118 148
#     4   8  12  15  23  30  40  58  81 105 121 141
#
# _framework density 29.027797
#
# number of rings (size 3 to 8) (size 9 to 14) (size 15 to 20)
#    1.500    2.500    2.500    0.750    0.000    0.000 
#    0.000    0.000    0.000    0.000    0.000    0.000 
#    0.000    0.000    0.000    0.000    0.000    0.000 
#
# Total GULP energy -178443.573127 kJ/mol
# GULP energy per Si atom -5576.361660 kJ/mol
# Density = 2.896173 g / cm^3
# Si number density = 29.027797 Si / 1000 Ang^3
#
#
#
# Elastic Constant Matrix: (Units=GPa)
#
#
# Indices 1 2 3 4 5 6 
#
# 1 185.8131 5.5029 9.9797 0.0000 0.0000 0.0000
# 2 5.5029 185.8131 9.9797 0.0000 0.0000 0.0000
# 3 9.9797 9.9797 119.9383 0.0000 0.0000 0.0000
# 4 0.0000 0.0000 0.0000 30.1180 0.0000 0.0000
# 5 0.0000 0.0000 0.0000 0.0000 30.1180 0.0000
# 6 0.0000 0.0000 0.0000 0.0000 0.0000 -121.5849
#
#
#
# Elastic Compliance Matrix: (Units=1/GPa)
#
#
# Indices 1 2 3 4 5 6 
#
# 1 0.005409 -0.000137 -0.000439 0.000000 0.000000 0.000000
# 2 -0.000137 0.005409 -0.000439 0.000000 0.000000 0.000000
# 3 -0.000439 -0.000439 0.008411 0.000000 0.000000 0.000000
# 4 0.000000 0.000000 0.000000 0.033203 0.000000 0.000000
# 5 0.000000 0.000000 0.000000 0.000000 0.033203 0.000000
# 6 0.000000 0.000000 0.000000 0.000000 0.000000 -0.008225
#
#
# Mechanical properties :
#
#
# Convention : Reuss Voigt Hill
#
# Bulk Modulus (GPa) = 58.13556 60.27656 59.20606
# Shear Modulus (GPa) = 58.70466 18.80368 38.75417
#
# Velocity S-wave (km/s) = 4.50194 2.54792 3.65783
# Velocity P-wave (km/s) = 6.86253 5.42826 6.18710
#
# Compressibility (1/GPa) = 0.01720118
#
# Stress axis : x y z
#
# Youngs Moduli (GPa) = 184.86471 184.86471 118.89713
#
# Poissons Ratio (x) = 0.02526 0.05216
# Poissons Ratio (y) = 0.02526 0.05216
# Poissons Ratio (z) = 0.08110 0.08110
#
# Static dielectric constant tensor:
#      x y z
#    x 2.212060 0.000000 0.000000 
#    y 0.000000 2.212060 0.000000 
#    z 0.000000 0.000000 2.508200 
# 
# From -- ./inp_files/1066.got.cif
#   From: 2010.05.17/outbox.cif.g08.bks.cpg/sg122_1_cif.got.tgz:1066.got - 2010.05.20 11:37:33.
