data_PCOD9561480
_publ_section_title
;
Structure prediction by ZEFSAII (Michael W. Deem and Ramdas Pophale) SiO2 
 PCOD9561480
Probable space group: I -4 2 D
;
_chemical_formula_sum "Si O2"
_cell_formula_units_Z 36
_cell_length_a 9.651500
_cell_length_b 9.651500
_cell_length_c 19.196163
_cell_angle_alpha 90.000000
_cell_angle_beta 90.000000
_cell_angle_gamma 90.000000
_cell_volume 1788.150461
_symmetry_space_group_name_H-M "I -4 2 D"
_symmetry_group_IT_number 122
_symmetry_cell_setting 'tetragonal'
loop_
_space_group_symop_operation_xyz
x,y,z
y,-x,-z
-x,-y,z
-y,x,-z
x,1/2-y,1/4-z
-x,1/2+y,1/4-z
-y,1/2-x,1/4+z
y,1/2+x,1/4+z
1/2+x,1/2+y,1/2+z
1/2+y,1/2-x,1/2-z
1/2-x,1/2-y,1/2+z
1/2-y,1/2+x,1/2-z
1/2+x,-y,3/4-z
1/2-x,y,3/4-z
1/2-y,-x,3/4+z
1/2+y,x,3/4+z
loop_
_atom_site_type_symbol
_atom_site_label
_atom_site_fract_x
_atom_site_fract_y
_atom_site_fract_z
Si Si1 0.526500 0.656243 0.692767
Si Si2 0.279265 0.720828 0.043301
Si Si3 0.000000 0.500000 0.750000
O O1 0.500000 0.500000 0.668117
O O2 0.554339 0.750000 0.625000
O O3 0.380772 0.698467 0.728443
O O4 0.652115 0.664851 0.747169
O O5 0.273104 0.750000 0.125000
O O6 0.379797 0.588659 0.037143
#
# Coordination Sequence:
#
# PCOD9561480 Si02
#       3
#    16  16   4
#     4  11  26  47  70 104 140 188 230 282 347 419
#     4  11  27  44  72 101 140 186 232 286 348 407
#     4  12  24  44  68 104 140 176 228 302 344 400
#
# _framework density 20.132532999999999
#
# number of rings (size 3 to 8) (size 9 to 14) (size 15 to 20)
#    0.000    0.889    4.444    0.000   15.556    1.778 
#    0.000    0.000    0.000    0.000    0.000    0.000 
#    0.000    0.000    0.000    0.000    0.000    0.000 
#
# Total GULP energy -100455.666713 kJ/mol
# GULP energy per Si atom -5580.870373 kJ/mol
# Density = 2.008671 g / cm^3
# Si number density = 20.132533 Si / 1000 Ang^3
#
#
#
# Elastic Constant Matrix: (Units=GPa)
#
#
# Indices 1 2 3 4 5 6 
#
# 1 131.2202 24.1531 44.2717 0.0000 0.0000 0.0000
# 2 24.1531 131.2202 44.2717 0.0000 0.0000 0.0000
# 3 44.2717 44.2717 63.8237 0.0000 0.0000 0.0000
# 4 0.0000 0.0000 0.0000 19.7428 0.0000 0.0000
# 5 0.0000 0.0000 0.0000 0.0000 19.7428 0.0000
# 6 0.0000 0.0000 0.0000 0.0000 0.0000 39.8521
#
#
#
# Elastic Compliance Matrix: (Units=1/GPa)
#
#
# Indices 1 2 3 4 5 6 
#
# 1 0.009992 0.000652 -0.007383 0.000000 0.000000 0.000000
# 2 0.000652 0.009992 -0.007383 0.000000 0.000000 0.000000
# 3 -0.007383 -0.007383 0.025911 0.000000 0.000000 0.000000
# 4 0.000000 0.000000 0.000000 0.050651 0.000000 0.000000
# 5 0.000000 0.000000 0.000000 0.000000 0.050651 0.000000
# 6 0.000000 0.000000 0.000000 0.000000 0.000000 0.025093
#
#
# Mechanical properties :
#
#
# Convention : Reuss Voigt Hill
#
# Bulk Modulus (GPa) = 56.60637 61.29524 58.95080
# Shear Modulus (GPa) = 24.22407 30.10536 27.16471
#
# Velocity S-wave (km/s) = 3.47252 3.87118 3.67726
# Velocity P-wave (km/s) = 6.65250 7.10587 6.88292
#
# Compressibility (1/GPa) = 0.01766586
#
# Stress axis : x y z
#
# Youngs Moduli (GPa) = 100.08322 100.08321 38.59438
#
# Poissons Ratio (x) = -0.06523 0.28494
# Poissons Ratio (y) = -0.06523 0.28494
# Poissons Ratio (z) = 0.73890 0.73890
#
# Static dielectric constant tensor:
#      x y z
#    x 1.756000 0.000000 0.000000 
#    y 0.000000 1.756000 0.000000 
#    z 0.000000 0.000000 1.656420 
# 
# From -- ./inp_files/6621.got.cif
#   From: 2010.05.17/outbox.cif.g08.bks.cpg/sg122_4_cif.got.tgz:6621.got - 2010.05.20 11:37:33.
