data_PCOD9561101
_publ_section_title
;
Structure prediction by ZEFSAII (Michael W. Deem and Ramdas Pophale) SiO2 
 PCOD9561101
Probable space group: I -4 2 D
;
_chemical_formula_sum "Si O2"
_cell_formula_units_Z 60
_cell_length_a 18.601441
_cell_length_b 18.601441
_cell_length_c 7.612019
_cell_angle_alpha 90.000000
_cell_angle_beta 90.000000
_cell_angle_gamma 90.000000
_cell_volume 2633.862153
_symmetry_space_group_name_H-M "I -4 2 D"
_symmetry_group_IT_number 122
_symmetry_cell_setting 'tetragonal'
loop_
_space_group_symop_operation_xyz
x,y,z
y,-x,-z
-x,-y,z
-y,x,-z
x,1/2-y,1/4-z
-x,1/2+y,1/4-z
-y,1/2-x,1/4+z
y,1/2+x,1/4+z
1/2+x,1/2+y,1/2+z
1/2+y,1/2-x,1/2-z
1/2-x,1/2-y,1/2+z
1/2-y,1/2+x,1/2-z
1/2+x,-y,3/4-z
1/2-x,y,3/4-z
1/2-y,-x,3/4+z
1/2+y,x,3/4+z
loop_
_atom_site_type_symbol
_atom_site_label
_atom_site_fract_x
_atom_site_fract_y
_atom_site_fract_z
Si Si1 0.000000 0.500000 0.750000
Si Si2 0.553801 0.611211 0.765456
Si Si3 0.824790 0.972413 0.066558
Si Si4 0.250000 0.347365 0.375000
Si Si5 0.749575 0.383155 0.159574
O O1 0.929249 0.501790 0.636129
O O2 0.506199 0.651735 0.620465
O O3 0.605253 0.554062 0.669259
O O4 0.604959 0.665487 0.872018
O O5 0.785138 0.041178 0.147440
O O6 0.776510 0.902157 0.027489
O O7 0.317211 0.295112 0.335014
O O8 0.750000 0.374035 0.375000
#
# Coordination Sequence:
#
# PCOD9561101 Si02
#       5
#     4  16  16   8  16
#     4  12  28  42  64  96 148 174 216 300 348 382
#     4  11  23  44  64 103 131 178 232 280 337 408
#     4  11  20  41  77  91 128 178 239 268 329 417
#     4  12  20  40  70 100 130 172 226 288 326 400
#     4  10  22  40  64 103 128 173 230 278 335 410
#
# _framework density 22.780235999999999
#
# number of rings (size 3 to 8) (size 9 to 14) (size 15 to 20)
#    0.000    1.067    9.333    1.600    0.000    0.000 
#    9.600    0.000    0.000    0.000    0.000    0.000 
#    0.000    0.000    0.000    0.000    0.000    0.000 
#
# Total GULP energy -167475.878656 kJ/mol
# GULP energy per Si atom -5582.529289 kJ/mol
# Density = 2.272839 g / cm^3
# Si number density = 22.780236 Si / 1000 Ang^3
#
#
#
# Elastic Constant Matrix: (Units=GPa)
#
#
# Indices 1 2 3 4 5 6 
#
# 1 128.0189 55.4602 13.1263 0.0000 0.0000 0.0000
# 2 55.4602 128.0189 13.1263 0.0000 0.0000 0.0000
# 3 13.1263 13.1263 18.6807 0.0000 0.0000 0.0000
# 4 0.0000 0.0000 0.0000 14.1908 0.0000 0.0000
# 5 0.0000 0.0000 0.0000 0.0000 14.1908 0.0000
# 6 0.0000 0.0000 0.0000 0.0000 0.0000 63.5424
#
#
#
# Elastic Compliance Matrix: (Units=1/GPa)
#
#
# Indices 1 2 3 4 5 6 
#
# 1 0.009921 -0.003861 -0.004258 0.000000 0.000000 0.000000
# 2 -0.003861 0.009921 -0.004258 0.000000 0.000000 0.000000
# 3 -0.004258 -0.004258 0.059515 0.000000 0.000000 0.000000
# 4 0.000000 0.000000 0.000000 0.070468 0.000000 0.000000
# 5 0.000000 0.000000 0.000000 0.000000 0.070468 0.000000
# 6 0.000000 0.000000 0.000000 0.000000 0.000000 0.015738
#
#
# Mechanical properties :
#
#
# Convention : Reuss Voigt Hill
#
# Bulk Modulus (GPa) = 18.31417 48.68267 33.49842
# Shear Modulus (GPa) = 17.92219 31.25187 24.58703
#
# Velocity S-wave (km/s) = 2.80794 3.70792 3.28886
# Velocity P-wave (km/s) = 4.30925 6.30464 5.39991
#
# Compressibility (1/GPa) = 0.05460253
#
# Stress axis : x y z
#
# Youngs Moduli (GPa) = 100.79955 100.79955 16.80259
#
# Poissons Ratio (x) = 0.38921 0.07154
# Poissons Ratio (y) = 0.38921 0.07154
# Poissons Ratio (z) = 0.42918 0.42918
#
# Static dielectric constant tensor:
#      x y z
#    x 1.863800 0.000000 0.000000 
#    y 0.000000 1.863800 0.000000 
#    z 0.000000 0.000000 1.884940 
# 
# From -- ./inp_files/2328.got.cif
#   From: 2010.05.17/outbox.cif.g08.bks.cpg/sg122_2_cif.got.tgz:2328.got - 2010.05.20 11:37:33.
