data_PCOD9561563
_publ_section_title
;
Structure prediction by ZEFSAII (Michael W. Deem and Ramdas Pophale) SiO2 
 PCOD9561563
Probable space group: I -4 2 D
;
_chemical_formula_sum "Si O2"
_cell_formula_units_Z 36
_cell_length_a 9.000389
_cell_length_b 9.000389
_cell_length_c 16.944377
_cell_angle_alpha 90.000000
_cell_angle_beta 90.000000
_cell_angle_gamma 90.000000
_cell_volume 1372.613184
_symmetry_space_group_name_H-M "I -4 2 D"
_symmetry_group_IT_number 122
_symmetry_cell_setting 'tetragonal'
loop_
_space_group_symop_operation_xyz
x,y,z
y,-x,-z
-x,-y,z
-y,x,-z
x,1/2-y,1/4-z
-x,1/2+y,1/4-z
-y,1/2-x,1/4+z
y,1/2+x,1/4+z
1/2+x,1/2+y,1/2+z
1/2+y,1/2-x,1/2-z
1/2-x,1/2-y,1/2+z
1/2-y,1/2+x,1/2-z
1/2+x,-y,3/4-z
1/2-x,y,3/4-z
1/2-y,-x,3/4+z
1/2+y,x,3/4+z
loop_
_atom_site_type_symbol
_atom_site_label
_atom_site_fract_x
_atom_site_fract_y
_atom_site_fract_z
Si Si1 0.250000 0.881016 0.875000
Si Si2 0.675405 0.491518 0.715947
Si Si3 0.128591 0.750000 0.625000
Si Si4 0.500000 0.000000 0.750000
O O1 0.359483 0.775333 0.922433
O O2 0.354320 0.964246 0.806375
O O3 0.500000 0.500000 0.698964
O O4 0.762914 0.363021 0.671570
O O5 0.687133 0.522665 0.807588
#
# Coordination Sequence:
#
# PCOD9561563 Si02
#       4
#     8  16   8   4
#     4  12  27  49  88 120 175 221 304 354 453 531
#     4  12  30  54  87 131 175 242 299 386 450 551
#     4  12  33  55  90 130 187 239 308 380 463 541
#     4  12  28  52  88 132 164 238 288 380 436 544
#
# _framework density 26.227347000000002
#
# number of rings (size 3 to 8) (size 9 to 14) (size 15 to 20)
#    0.000    0.000    2.222    4.000   18.667    0.000 
#    0.000    0.000    0.000    0.000    0.000    0.000 
#    0.000    0.000    0.000    0.000    0.000    0.000 
#
# Total GULP energy -100509.891051 kJ/mol
# GULP energy per Si atom -5583.882836 kJ/mol
# Density = 2.616765 g / cm^3
# Si number density = 26.227347 Si / 1000 Ang^3
#
#
#
# Elastic Constant Matrix: (Units=GPa)
#
#
# Indices 1 2 3 4 5 6 
#
# 1 149.1830 52.0202 80.5570 0.0000 0.0000 0.0000
# 2 52.0202 149.1830 80.5570 0.0000 0.0000 0.0000
# 3 80.5570 80.5570 245.2413 0.0000 0.0000 0.0000
# 4 0.0000 0.0000 0.0000 48.6644 0.0000 0.0000
# 5 0.0000 0.0000 0.0000 0.0000 48.6644 0.0000
# 6 0.0000 0.0000 0.0000 0.0000 0.0000 20.2400
#
#
#
# Elastic Compliance Matrix: (Units=1/GPa)
#
#
# Indices 1 2 3 4 5 6 
#
# 1 0.008518 -0.001774 -0.002215 0.000000 0.000000 0.000000
# 2 -0.001774 0.008518 -0.002215 0.000000 0.000000 0.000000
# 3 -0.002215 -0.002215 0.005533 0.000000 0.000000 0.000000
# 4 0.000000 0.000000 0.000000 0.020549 0.000000 0.000000
# 5 0.000000 0.000000 0.000000 0.000000 0.020549 0.000000
# 6 0.000000 0.000000 0.000000 0.000000 0.000000 0.049407
#
#
# Mechanical properties :
#
#
# Convention : Reuss Voigt Hill
#
# Bulk Modulus (GPa) = 98.42658 107.76394 103.09526
# Shear Modulus (GPa) = 38.79894 45.54530 42.17212
#
# Velocity S-wave (km/s) = 3.85038 4.17172 4.01427
# Velocity P-wave (km/s) = 7.57476 8.02384 7.80253
#
# Compressibility (1/GPa) = 0.01015986
#
# Stress axis : x y z
#
# Youngs Moduli (GPa) = 117.39856 117.39856 180.73504
#
# Poissons Ratio (x) = 0.20827 0.40038
# Poissons Ratio (y) = 0.20827 0.40038
# Poissons Ratio (z) = 0.26007 0.26007
#
# Static dielectric constant tensor:
#      x y z
#    x 2.678100 0.000000 0.000000 
#    y 0.000000 2.678100 0.000000 
#    z 0.000000 0.000000 2.132530 
# 
# From -- ./inp_files/6667.got.cif
#   From: 2010.05.17/outbox.cif.g08.bks.cpg/sg122_4_cif.got.tgz:6667.got - 2010.05.20 11:37:33.
