data_PCOD9561088
_publ_section_title
;
Structure prediction by ZEFSAII (Michael W. Deem and Ramdas Pophale) SiO2 
 PCOD9561088
Probable space group: I -4 2 D
;
_chemical_formula_sum "Si O2"
_cell_formula_units_Z 64
_cell_length_a 13.678303
_cell_length_b 13.678303
_cell_length_c 13.974987
_cell_angle_alpha 90.000000
_cell_angle_beta 90.000000
_cell_angle_gamma 90.000000
_cell_volume 2614.663790
_symmetry_space_group_name_H-M "I -4 2 D"
_symmetry_group_IT_number 122
_symmetry_cell_setting 'tetragonal'
loop_
_space_group_symop_operation_xyz
x,y,z
y,-x,-z
-x,-y,z
-y,x,-z
x,1/2-y,1/4-z
-x,1/2+y,1/4-z
-y,1/2-x,1/4+z
y,1/2+x,1/4+z
1/2+x,1/2+y,1/2+z
1/2+y,1/2-x,1/2-z
1/2-x,1/2-y,1/2+z
1/2-y,1/2+x,1/2-z
1/2+x,-y,3/4-z
1/2-x,y,3/4-z
1/2-y,-x,3/4+z
1/2+y,x,3/4+z
loop_
_atom_site_type_symbol
_atom_site_label
_atom_site_fract_x
_atom_site_fract_y
_atom_site_fract_z
Si Si1 0.177917 0.518883 0.109363
Si Si2 0.275457 0.794114 0.520110
Si Si3 0.598224 0.659496 0.572307
Si Si4 0.129102 0.435661 0.719065
O O1 0.167916 0.603372 0.030344
O O2 0.105493 0.427731 0.102011
O O3 0.150816 0.552369 0.217367
O O4 0.293535 0.489569 0.100875
O O5 0.281053 0.750000 0.625000
O O6 0.317579 0.711945 0.451507
O O7 0.161985 0.814636 0.499656
O O8 0.549321 0.750000 0.625000
O O9 0.105833 0.519093 0.799933
#
# Coordination Sequence:
#
# PCOD9561088 Si02
#       4
#    16  16  16  16
#     4  10  22  39  61  91 125 171 214 274 325 403
#     4   9  19  38  62  89 124 162 218 270 330 394
#     4  11  22  41  64  90 129 175 219 268 342 404
#     4   9  17  35  59  92 125 157 211 275 330 382
#
# _framework density 24.477333999999999
#
# number of rings (size 3 to 8) (size 9 to 14) (size 15 to 20)
#    0.000    2.250    2.500    0.000    0.000    3.500 
#    9.000    5.000    0.000    0.000    0.000    0.000 
#    0.000    0.000    0.000    0.000    0.000    0.000 
#
# Total GULP energy -178266.781852 kJ/mol
# GULP energy per Si atom -5570.836933 kJ/mol
# Density = 2.442162 g / cm^3
# Si number density = 24.477334 Si / 1000 Ang^3
#
#
#
# Elastic Constant Matrix: (Units=GPa)
#
#
# Indices 1 2 3 4 5 6 
#
# 1 63.9987 26.8414 -2.9337 0.0000 0.0000 0.0000
# 2 26.8414 63.9987 -2.9337 0.0000 0.0000 0.0000
# 3 -2.9337 -2.9337 31.7894 0.0000 0.0000 0.0000
# 4 0.0000 0.0000 0.0000 30.4405 0.0000 0.0000
# 5 0.0000 0.0000 0.0000 0.0000 30.4405 0.0000
# 6 0.0000 0.0000 0.0000 0.0000 0.0000 25.2094
#
#
#
# Elastic Compliance Matrix: (Units=1/GPa)
#
#
# Indices 1 2 3 4 5 6 
#
# 1 0.018993 -0.007919 0.001022 0.000000 0.000000 0.000000
# 2 -0.007919 0.018993 0.001022 0.000000 0.000000 0.000000
# 3 0.001022 0.001022 0.031646 0.000000 0.000000 0.000000
# 4 0.000000 0.000000 0.000000 0.032851 0.000000 0.000000
# 5 0.000000 0.000000 0.000000 0.000000 0.032851 0.000000
# 6 0.000000 0.000000 0.000000 0.000000 0.000000 0.039668
#
#
# Mechanical properties :
#
#
# Convention : Reuss Voigt Hill
#
# Bulk Modulus (GPa) = 17.27643 22.41500 19.84571
# Shear Modulus (GPa) = 24.26635 26.47226 25.36930
#
# Velocity S-wave (km/s) = 3.15204 3.29219 3.22287
# Velocity P-wave (km/s) = 4.50783 4.86093 4.68771
#
# Compressibility (1/GPa) = 0.05788234
#
# Stress axis : x y z
#
# Youngs Moduli (GPa) = 52.64968 52.64968 31.59992
#
# Poissons Ratio (x) = 0.41694 -0.03229
# Poissons Ratio (y) = 0.41694 -0.03229
# Poissons Ratio (z) = -0.05381 -0.05381
#
# Static dielectric constant tensor:
#      x y z
#    x 2.047950 0.000000 0.000000 
#    y 0.000000 2.047950 0.000000 
#    z 0.000000 0.000000 1.873380 
# 
# From -- ./inp_files/5127.got.cif
#   From: 2010.05.17/outbox.cif.g08.bks.cpg/sg122_3_cif.got.tgz:5127.got - 2010.05.20 11:37:33.
