data_PCOD9561124
_publ_section_title
;
Structure prediction by ZEFSAII (Michael W. Deem and Ramdas Pophale) SiO2 
 PCOD9561124
Probable space group: I -4 2 D
;
_chemical_formula_sum "Si O2"
_cell_formula_units_Z 112
_cell_length_a 29.928062
_cell_length_b 29.928062
_cell_length_c 5.430359
_cell_angle_alpha 90.000000
_cell_angle_beta 90.000000
_cell_angle_gamma 90.000000
_cell_volume 4863.912253
_symmetry_space_group_name_H-M "I -4 2 D"
_symmetry_group_IT_number 122
_symmetry_cell_setting 'tetragonal'
loop_
_space_group_symop_operation_xyz
x,y,z
y,-x,-z
-x,-y,z
-y,x,-z
x,1/2-y,1/4-z
-x,1/2+y,1/4-z
-y,1/2-x,1/4+z
y,1/2+x,1/4+z
1/2+x,1/2+y,1/2+z
1/2+y,1/2-x,1/2-z
1/2-x,1/2-y,1/2+z
1/2-y,1/2+x,1/2-z
1/2+x,-y,3/4-z
1/2-x,y,3/4-z
1/2-y,-x,3/4+z
1/2+y,x,3/4+z
loop_
_atom_site_type_symbol
_atom_site_label
_atom_site_fract_x
_atom_site_fract_y
_atom_site_fract_z
Si Si1 0.206041 0.801036 0.711020
Si Si2 0.163450 0.863189 0.339699
Si Si3 0.904122 0.414335 0.622132
Si Si4 0.224951 0.574979 0.130346
Si Si5 0.818087 0.981162 0.141587
Si Si6 0.624192 0.987182 0.107986
Si Si7 0.827269 0.888919 0.050208
O O1 0.209553 0.750000 0.625000
O O2 0.199280 0.832549 0.473880
O O3 0.158155 0.809160 0.845383
O O4 0.250000 0.810562 0.875000
O O5 0.143401 0.901519 0.510136
O O6 0.183022 0.891863 0.118333
O O7 0.122425 0.833643 0.237636
O O8 0.902734 0.466647 0.567082
O O9 0.904386 0.375939 0.410897
O O10 0.944380 0.405439 0.814267
O O11 0.250000 0.586421 0.375000
O O12 0.214205 0.522846 0.135845
O O13 0.250000 0.583610 0.875000
O O14 0.797749 0.931280 0.128638
O O15 0.843839 0.990143 0.399683
O O16 0.848707 0.981807 0.894978
#
# Coordination Sequence:
#
# PCOD9561124 Si02
#       7
#    16  16  16  16  16  16  16
#     4  11  29  49  71 105 144 189 250 314 373 442
#     4  11  24  47  72  97 141 185 241 292 365 443
#     4  10  22  41  68 103 140 187 241 284 362 418
#     4  12  28  43  70 110 143 181 235 307 371 431
#     4  11  23  46  68 101 145 184 240 288 366 431
#     4  11  22  39  70  99 142 190 231 296 341 433
#     4  10  24  44  76 100 135 199 237 293 367 443
#
# _framework density 23.026731000000002
#
# number of rings (size 3 to 8) (size 9 to 14) (size 15 to 20)
#    0.000    1.143    2.857    1.714    8.000    0.857 
#    2.571    0.000    0.000    1.714    0.000    0.000 
#    0.000    0.000    0.000    0.000    0.000    0.000 
#
# Total GULP energy -312719.180806 kJ/mol
# GULP energy per Si atom -5584.271086 kJ/mol
# Density = 2.297432 g / cm^3
# Si number density = 23.026731 Si / 1000 Ang^3
#
#
#
# Elastic Constant Matrix: (Units=GPa)
#
#
# Indices 1 2 3 4 5 6 
#
# 1 109.9721 38.0518 26.0970 0.0000 0.0000 0.0000
# 2 38.0518 109.9721 26.0970 0.0000 0.0000 0.0000
# 3 26.0970 26.0970 108.3737 0.0000 0.0000 0.0000
# 4 0.0000 0.0000 0.0000 33.5558 0.0000 0.0000
# 5 0.0000 0.0000 0.0000 0.0000 33.5558 0.0000
# 6 0.0000 0.0000 0.0000 0.0000 0.0000 32.6323
#
#
#
# Elastic Compliance Matrix: (Units=1/GPa)
#
#
# Indices 1 2 3 4 5 6 
#
# 1 0.010643 -0.003261 -0.001778 0.000000 0.000000 0.000000
# 2 -0.003261 0.010643 -0.001778 0.000000 0.000000 0.000000
# 3 -0.001778 -0.001778 0.010084 0.000000 0.000000 0.000000
# 4 0.000000 0.000000 0.000000 0.029801 0.000000 0.000000
# 5 0.000000 0.000000 0.000000 0.000000 0.029801 0.000000
# 6 0.000000 0.000000 0.000000 0.000000 0.000000 0.030644
#
#
# Mechanical properties :
#
#
# Convention : Reuss Voigt Hill
#
# Bulk Modulus (GPa) = 56.37762 56.53439 56.45600
# Shear Modulus (GPa) = 35.42022 35.82025 35.62023
#
# Velocity S-wave (km/s) = 3.92627 3.94838 3.93734
# Velocity P-wave (km/s) = 6.71497 6.73730 6.72615
#
# Compressibility (1/GPa) = 0.01773754
#
# Stress axis : x y z
#
# Youngs Moduli (GPa) = 93.95497 93.95497 99.17178
#
# Poissons Ratio (x) = 0.30638 0.17630
# Poissons Ratio (y) = 0.30638 0.17630
# Poissons Ratio (z) = 0.16703 0.16703
#
# Static dielectric constant tensor:
#      x y z
#    x 1.887110 0.000000 0.000000 
#    y 0.000000 1.887110 0.000000 
#    z 0.000000 0.000000 1.919050 
# 
# From -- ./inp_files/1518.got.cif
#   From: 2010.05.17/outbox.cif.g08.bks.cpg/sg122_1_cif.got.tgz:1518.got - 2010.05.20 11:37:33.
