data_PCOD9561484
_publ_section_title
;
Structure prediction by ZEFSAII (Michael W. Deem and Ramdas Pophale) SiO2 
 PCOD9561484
Probable space group: I -4 2 D
;
_chemical_formula_sum "Si O2"
_cell_formula_units_Z 36
_cell_length_a 9.729161
_cell_length_b 9.729161
_cell_length_c 11.871649
_cell_angle_alpha 90.000000
_cell_angle_beta 90.000000
_cell_angle_gamma 90.000000
_cell_volume 1123.729619
_symmetry_space_group_name_H-M "I -4 2 D"
_symmetry_group_IT_number 122
_symmetry_cell_setting 'tetragonal'
loop_
_space_group_symop_operation_xyz
x,y,z
y,-x,-z
-x,-y,z
-y,x,-z
x,1/2-y,1/4-z
-x,1/2+y,1/4-z
-y,1/2-x,1/4+z
y,1/2+x,1/4+z
1/2+x,1/2+y,1/2+z
1/2+y,1/2-x,1/2-z
1/2-x,1/2-y,1/2+z
1/2-y,1/2+x,1/2-z
1/2+x,-y,3/4-z
1/2-x,y,3/4-z
1/2-y,-x,3/4+z
1/2+y,x,3/4+z
loop_
_atom_site_type_symbol
_atom_site_label
_atom_site_fract_x
_atom_site_fract_y
_atom_site_fract_z
Si Si1 0.309071 0.895740 0.713132
Si Si2 0.000000 0.500000 0.750000
Si Si3 0.011929 0.830328 0.722200
O O1 0.322911 0.048647 0.761739
O O2 0.289980 0.921976 0.581197
O O3 0.174006 0.820038 0.755367
O O4 0.995301 0.644935 0.673272
O O5 0.000000 0.000000 0.734276
#
# Coordination Sequence:
#
# PCOD9561484 Si02
#       3
#    16   4  16
#     4  11  26  49  74 111 154 199 253 312 377 443
#     4  12  24  48  78 112 148 192 252 314 372 444
#     4  12  26  49  79 111 149 200 252 312 375 454
#
# _framework density 32.036180000000002
#
# number of rings (size 3 to 8) (size 9 to 14) (size 15 to 20)
#    0.000    0.444    4.444    4.000    0.000   10.667 
#    8.000    0.000    0.000    0.000    0.000    0.000 
#    0.000    0.000    0.000    0.000    0.000    0.000 
#
# Total GULP energy -100917.216111 kJ/mol
# GULP energy per Si atom -5606.512006 kJ/mol
# Density = 3.196326 g / cm^3
# Si number density = 32.036180 Si / 1000 Ang^3
#
#
#
# Elastic Constant Matrix: (Units=GPa)
#
#
# Indices 1 2 3 4 5 6 
#
# 1 220.7527 61.1177 54.6592 0.0000 0.0000 0.0000
# 2 61.1177 220.7527 54.6592 0.0000 0.0000 0.0000
# 3 54.6592 54.6592 154.1052 0.0000 0.0000 0.0000
# 4 0.0000 0.0000 0.0000 48.6151 0.0000 0.0000
# 5 0.0000 0.0000 0.0000 0.0000 48.6151 0.0000
# 6 0.0000 0.0000 0.0000 0.0000 0.0000 78.1306
#
#
#
# Elastic Compliance Matrix: (Units=1/GPa)
#
#
# Indices 1 2 3 4 5 6 
#
# 1 0.005189 -0.001075 -0.001459 0.000000 0.000000 0.000000
# 2 -0.001075 0.005189 -0.001459 0.000000 0.000000 0.000000
# 3 -0.001459 -0.001459 0.007524 0.000000 0.000000 0.000000
# 4 0.000000 0.000000 0.000000 0.020570 0.000000 0.000000
# 5 0.000000 0.000000 0.000000 0.000000 0.020570 0.000000
# 6 0.000000 0.000000 0.000000 0.000000 0.000000 0.012799
#
#
# Mechanical properties :
#
#
# Convention : Reuss Voigt Hill
#
# Bulk Modulus (GPa) = 100.85622 104.05365 102.45494
# Shear Modulus (GPa) = 60.14499 63.41712 61.78106
#
# Velocity S-wave (km/s) = 4.33761 4.45404 4.39621
# Velocity P-wave (km/s) = 7.52574 7.68126 7.60390
#
# Compressibility (1/GPa) = 0.00991510
#
# Stress axis : x y z
#
# Youngs Moduli (GPa) = 192.71756 192.71757 132.90655
#
# Poissons Ratio (x) = 0.20724 0.19392
# Poissons Ratio (y) = 0.20724 0.19392
# Poissons Ratio (z) = 0.28118 0.28118
#
# Static dielectric constant tensor:
#      x y z
#    x 2.481530 0.000000 0.000000 
#    y 0.000000 2.481530 0.000000 
#    z 0.000000 0.000000 2.677850 
# 
# From -- ./inp_files/3346.got.cif
#   From: 2010.05.17/outbox.cif.g08.bks.cpg/sg122_2_cif.got.tgz:3346.got - 2010.05.20 11:37:33.
