data_PCOD9561810
_publ_section_title
;
Structure prediction by ZEFSAII (Michael W. Deem and Ramdas Pophale) SiO2 
 PCOD9561810
Probable space group: P 4/M M M
;
_chemical_formula_sum "Si O2"
_cell_formula_units_Z 112
_cell_length_a 19.037463
_cell_length_b 19.037463
_cell_length_c 19.076276
_cell_angle_alpha 90.000000
_cell_angle_beta 90.000000
_cell_angle_gamma 90.000000
_cell_volume 6913.719281
_symmetry_space_group_name_H-M "P 4/M M M"
_symmetry_group_IT_number 123
_symmetry_cell_setting 'tetragonal'
loop_
_space_group_symop_operation_xyz
x,y,z
-y,x,z
-x,-y,z
y,-x,z
x,-y,-z
-x,y,-z
y,x,-z
-y,-x,-z
-x,-y,-z
y,-x,-z
x,y,-z
-y,x,-z
-x,y,z
x,-y,z
-y,-x,z
y,x,z
loop_
_atom_site_type_symbol
_atom_site_label
_atom_site_fract_x
_atom_site_fract_y
_atom_site_fract_z
Si Si1 0.916840 0.800597 0.857802
Si Si2 0.150501 0.418581 0.786288
Si Si3 0.716277 0.917025 0.283332
Si Si4 0.351830 0.917013 0.080993
Si Si5 0.279459 0.162812 0.577323
Si Si6 0.756206 0.420135 0.421976
Si Si7 0.420189 0.307229 0.729263
O O1 0.864841 0.864841 0.873763
O O2 0.901685 0.770731 0.779545
O O3 0.904937 0.731391 0.905634
O O4 0.000000 0.818940 0.862403
O O5 0.130916 0.500000 0.772858
O O6 0.112343 0.359942 0.739141
O O7 0.129261 0.396515 0.865064
O O8 0.232920 0.411817 0.768573
O O9 0.738923 0.884161 0.356684
O O10 0.711032 0.000000 0.288969
O O11 0.363817 0.000000 0.097233
O O12 0.369022 0.904668 0.000000
O O13 0.266176 0.131833 0.500000
O O14 0.234301 0.234301 0.581553
O O15 0.360903 0.184613 0.581878
O O16 0.723194 0.412713 0.500000
O O17 0.783871 0.500000 0.417191
O O18 0.707798 0.410925 0.354083
O O19 0.500000 0.331707 0.739936
O O20 0.363109 0.363109 0.752425
#
# Coordination Sequence:
#
# PCOD9561810 Si02
#       7
#    16  16  16  16  16  16  16
#     4   9  18  32  50  72  98 128 160 194 234 283
#     4  10  20  33  50  74  99 127 164 199 232 279
#     4  10  20  32  47  68  96 129 161 200 248 290
#     4   9  19  35  53  75 103 131 157 189 235 286
#     4  10  19  30  47  68  90 123 166 206 245 290
#     4   9  17  29  46  69  96 124 158 201 245 288
#     4  10  20  33  50  72  98 129 165 207 251 293
#
# _framework density 16.199674000000002
#
# number of rings (size 3 to 8) (size 9 to 14) (size 15 to 20)
#    0.000    2.429    1.429    2.143    0.000    5.429 
#    0.000    0.714    0.000    0.000    0.000    7.000 
#    0.000    0.000    0.000   16.429    0.000    0.000 
#
# Total GULP energy -623936.140042 kJ/mol
# GULP energy per Si atom -5570.858393 kJ/mol
# Density = 1.616280 g / cm^3
# Si number density = 16.199674 Si / 1000 Ang^3
#
#
#
# Elastic Constant Matrix: (Units=GPa)
#
#
# Indices 1 2 3 4 5 6 
#
# 1 43.3021 33.7686 18.5789 0.0000 0.0000 0.0000
# 2 33.7686 43.3021 18.5789 0.0000 0.0000 0.0000
# 3 18.5789 18.5789 83.7968 0.0000 0.0000 0.0000
# 4 0.0000 0.0000 0.0000 12.0297 0.0000 0.0000
# 5 0.0000 0.0000 0.0000 0.0000 12.0297 0.0000
# 6 0.0000 0.0000 0.0000 0.0000 0.0000 21.5893
#
#
#
# Elastic Compliance Matrix: (Units=1/GPa)
#
#
# Indices 1 2 3 4 5 6 
#
# 1 0.059711 -0.045183 -0.003221 0.000000 0.000000 0.000000
# 2 -0.045183 0.059711 -0.003221 0.000000 0.000000 0.000000
# 3 -0.003221 -0.003221 0.013362 0.000000 0.000000 0.000000
# 4 0.000000 0.000000 0.000000 0.083127 0.000000 0.000000
# 5 0.000000 0.000000 0.000000 0.000000 0.083127 0.000000
# 6 0.000000 0.000000 0.000000 0.000000 0.000000 0.046319
#
#
# Mechanical properties :
#
#
# Convention : Reuss Voigt Hill
#
# Bulk Modulus (GPa) = 33.85954 34.69488 34.27721
# Shear Modulus (GPa) = 10.90624 15.76138 13.33381
#
# Velocity S-wave (km/s) = 2.59750 3.12259 2.87207
# Velocity P-wave (km/s) = 5.47200 5.87063 5.67481
#
# Compressibility (1/GPa) = 0.02953377
#
# Stress axis : x y z
#
# Youngs Moduli (GPa) = 16.74732 16.74732 74.83945
#
# Poissons Ratio (x) = 0.75669 0.24106
# Poissons Ratio (y) = 0.75669 0.24106
# Poissons Ratio (z) = 0.05394 0.05394
#
# Static dielectric constant tensor:
#      x y z
#    x 1.531730 0.000000 0.000000 
#    y 0.000000 1.531730 0.000000 
#    z 0.000000 0.000000 1.568800 
# 
# From -- ./inp_files/6646.got.cif
#   From: 2010.05.17/outbox.cif.g08.bks.cpg/sg123_4_cif.got.tgz:6646.got - 2010.05.20 11:43:04.
