data_PCOD9561669
_publ_section_title
;
Structure prediction by ZEFSAII (Michael W. Deem and Ramdas Pophale) SiO2 
 PCOD9561669
Probable space group: P 4/M M M
;
_chemical_formula_sum "Si O2"
_cell_formula_units_Z 128
_cell_length_a 18.651159
_cell_length_b 18.651159
_cell_length_c 20.325034
_cell_angle_alpha 90.000000
_cell_angle_beta 90.000000
_cell_angle_gamma 90.000000
_cell_volume 7070.382831
_symmetry_space_group_name_H-M "P 4/M M M"
_symmetry_group_IT_number 123
_symmetry_cell_setting 'tetragonal'
loop_
_space_group_symop_operation_xyz
x,y,z
-y,x,z
-x,-y,z
y,-x,z
x,-y,-z
-x,y,-z
y,x,-z
-y,-x,-z
-x,-y,-z
y,-x,-z
x,y,-z
-y,x,-z
-x,y,z
x,-y,z
-y,-x,z
y,x,z
loop_
_atom_site_type_symbol
_atom_site_label
_atom_site_fract_x
_atom_site_fract_y
_atom_site_fract_z
Si Si1 0.918609 0.198999 0.193707
Si Si2 0.302549 0.417540 0.398674
Si Si3 0.276627 0.159477 0.923524
Si Si4 0.919805 0.653770 0.728520
Si Si5 0.842336 0.581597 0.157919
Si Si6 0.192162 0.919528 0.578584
Si Si7 0.690528 0.192128 0.624558
Si Si8 0.420589 0.304807 0.760796
O O1 0.862734 0.137267 0.210961
O O2 0.894384 0.233418 0.124077
O O3 0.914574 0.264531 0.245086
O O4 0.000000 0.173288 0.190683
O O5 0.300070 0.500000 0.420038
O O6 0.375754 0.375754 0.416159
O O7 0.236399 0.366426 0.418626
O O8 0.297121 0.416934 0.318476
O O9 0.235817 0.235817 0.915305
O O10 0.357863 0.161380 0.897769
O O11 0.272573 0.139719 0.000000
O O12 0.904776 0.603458 0.791064
O O13 0.855114 0.647593 0.677412
O O14 0.000000 0.641528 0.702322
O O15 0.850033 0.500000 0.134657
O O16 0.769782 0.586940 0.201235
O O17 0.184185 0.925191 0.500000
O O18 0.121901 0.878100 0.604841
O O19 0.258804 0.866790 0.590735
O O20 0.201328 0.000000 0.605389
O O21 0.746174 0.253827 0.651020
O O22 0.500000 0.333824 0.775533
O O23 0.358794 0.358794 0.781278
#
# Coordination Sequence:
#
# PCOD9561669 Si02
#       8
#    16  16  16  16  16  16  16  16
#     4   9  18  31  47  67  89 112 140 177 220 269
#     4   9  17  28  44  68  96 125 157 192 234 284
#     4   9  18  32  49  66  85 113 147 181 220 270
#     4  10  19  30  45  65  90 121 155 188 226 273
#     4  10  19  30  45  65  90 117 148 188 228 268
#     4   9  18  32  50  74 103 134 169 208 248 288
#     4  10  18  29  49  72  96 128 164 201 237 281
#     4   9  16  26  41  62  89 118 145 178 220 266
#
# _framework density 18.103686
#
# number of rings (size 3 to 8) (size 9 to 14) (size 15 to 20)
#    0.000    2.625    1.250    1.125    0.000    2.250 
#    0.000    1.875    0.000    1.500    0.000    7.875 
#    0.000    0.000    0.000   16.500    0.000    0.250 
#
# Total GULP energy -713345.030216 kJ/mol
# GULP energy per Si atom -5573.008049 kJ/mol
# Density = 1.806248 g / cm^3
# Si number density = 18.103686 Si / 1000 Ang^3
#
#
#
# Elastic Constant Matrix: (Units=GPa)
#
#
# Indices 1 2 3 4 5 6 
#
# 1 108.3821 37.3046 -3.1115 0.0000 0.0000 0.0000
# 2 37.3046 108.3821 -3.1115 0.0000 0.0000 0.0000
# 3 -3.1115 -3.1115 23.8375 0.0000 0.0000 0.0000
# 4 0.0000 0.0000 0.0000 8.5205 0.0000 0.0000
# 5 0.0000 0.0000 0.0000 0.0000 8.5205 0.0000
# 6 0.0000 0.0000 0.0000 0.0000 0.0000 14.6193
#
#
#
# Elastic Compliance Matrix: (Units=1/GPa)
#
#
# Indices 1 2 3 4 5 6 
#
# 1 0.010486 -0.003583 0.000901 0.000000 0.000000 0.000000
# 2 -0.003583 0.010486 0.000901 0.000000 0.000000 0.000000
# 3 0.000901 0.000901 0.042186 0.000000 0.000000 0.000000
# 4 0.000000 0.000000 0.000000 0.117364 0.000000 0.000000
# 5 0.000000 0.000000 0.000000 0.000000 0.117364 0.000000
# 6 0.000000 0.000000 0.000000 0.000000 0.000000 0.068403
#
#
# Mechanical properties :
#
#
# Convention : Reuss Voigt Hill
#
# Bulk Modulus (GPa) = 16.77992 33.64054 25.21023
# Shear Modulus (GPa) = 12.82989 20.30009 16.56499
#
# Velocity S-wave (km/s) = 2.66501 3.35225 3.02819
# Velocity P-wave (km/s) = 4.33112 5.79706 5.11686
#
# Compressibility (1/GPa) = 0.05959504
#
# Stress axis : x y z
#
# Youngs Moduli (GPa) = 95.36673 95.36673 23.70455
#
# Poissons Ratio (x) = 0.34173 -0.02136
# Poissons Ratio (y) = 0.34173 -0.02136
# Poissons Ratio (z) = -0.08593 -0.08593
#
# Static dielectric constant tensor:
#      x y z
#    x 1.626000 0.000000 0.000000 
#    y 0.000000 1.626000 0.000000 
#    z 0.000000 0.000000 1.631310 
# 
# From -- ./inp_files/7657.got.cif
#   From: 2010.05.17/outbox.cif.g08.bks.cpg/sg123_4_cif.got.tgz:7657.got - 2010.05.20 11:43:04.
