data_PCOD9561899
_publ_section_title
;
Structure prediction by ZEFSAII (Michael W. Deem and Ramdas Pophale) SiO2 
 PCOD9561899
Probable space group: P 4/M M M
;
_chemical_formula_sum "Si O2"
_cell_formula_units_Z 112
_cell_length_a 15.298542
_cell_length_b 15.298542
_cell_length_c 23.142389
_cell_angle_alpha 90.000000
_cell_angle_beta 90.000000
_cell_angle_gamma 90.000000
_cell_volume 5416.369397
_symmetry_space_group_name_H-M "P 4/M M M"
_symmetry_group_IT_number 123
_symmetry_cell_setting 'tetragonal'
loop_
_space_group_symop_operation_xyz
x,y,z
-y,x,z
-x,-y,z
y,-x,z
x,-y,-z
-x,y,-z
y,x,-z
-y,-x,-z
-x,-y,-z
y,-x,-z
x,y,-z
-y,x,-z
-x,y,z
x,-y,z
-y,-x,z
y,x,z
loop_
_atom_site_type_symbol
_atom_site_label
_atom_site_fract_x
_atom_site_fract_y
_atom_site_fract_z
Si Si1 0.407778 0.730724 0.256124
Si Si2 0.097498 0.341071 0.933870
Si Si3 0.907023 0.768340 0.821507
Si Si4 0.895385 0.749653 0.599368
Si Si5 0.732702 0.592952 0.117436
Si Si6 0.748958 0.604049 0.569309
Si Si7 0.653027 0.093182 0.287822
O O1 0.500000 0.685159 0.266120
O O2 0.326729 0.673272 0.273787
O O3 0.401222 0.745351 0.186796
O O4 0.404125 0.821054 0.289928
O O5 0.102101 0.263899 0.886977
O O6 0.175595 0.402722 0.914706
O O7 0.000000 0.379816 0.928331
O O8 0.108504 0.312898 0.000000
O O9 0.827131 0.827131 0.804822
O O10 0.908980 0.687999 0.777557
O O11 0.000000 0.814981 0.815679
O O12 0.835728 0.835728 0.585032
O O13 0.837202 0.663872 0.580433
O O14 0.898609 0.734398 0.668602
O O15 0.000000 0.751949 0.580835
O O16 0.688887 0.500000 0.105933
O O17 0.673316 0.673316 0.099042
O O18 0.741642 0.599510 0.500000
O O19 0.750354 0.500000 0.588726
O O20 0.665812 0.665812 0.589284
O O21 0.610061 0.000000 0.301076
#
# Coordination Sequence:
#
# PCOD9561899 Si02
#       7
#    16  16  16  16  16  16  16
#     4  10  20  34  53  76 105 140 175 215 264 320
#     4  10  21  36  55  79 103 130 168 215 268 327
#     4  10  19  32  51  74 102 135 171 215 268 326
#     4  10  21  36  56  83 116 156 201 248 297 348
#     4  10  21  36  55  78 103 134 170 209 257 313
#     4   9  19  37  61  90 124 160 199 245 295 346
#     4  10  20  35  56  81 108 141 183 233 286 336
#
# _framework density 20.678058
#
# number of rings (size 3 to 8) (size 9 to 14) (size 15 to 20)
#    0.000    2.143    1.429    1.714    0.000    3.857 
#    0.000    6.429    0.000    2.571    0.000    7.000 
#    0.000    0.000    0.000    0.000    0.000    0.000 
#
# Total GULP energy -623488.246413 kJ/mol
# GULP energy per Si atom -5566.859343 kJ/mol
# Density = 2.063099 g / cm^3
# Si number density = 20.678058 Si / 1000 Ang^3
#
#
#
# Elastic Constant Matrix: (Units=GPa)
#
#
# Indices 1 2 3 4 5 6 
#
# 1 125.8856 74.3244 8.6519 0.0000 0.0000 0.0000
# 2 74.3244 125.8856 8.6519 0.0000 0.0000 0.0000
# 3 8.6519 8.6519 63.1929 0.0000 0.0000 0.0000
# 4 0.0000 0.0000 0.0000 13.6315 0.0000 0.0000
# 5 0.0000 0.0000 0.0000 0.0000 13.6315 0.0000
# 6 0.0000 0.0000 0.0000 0.0000 0.0000 0.1853
#
#
#
# Elastic Compliance Matrix: (Units=1/GPa)
#
#
# Indices 1 2 3 4 5 6 
#
# 1 0.012225 -0.007170 -0.000692 0.000000 0.000000 0.000000
# 2 -0.007170 0.012225 -0.000692 0.000000 0.000000 0.000000
# 3 -0.000692 -0.000692 0.016014 0.000000 0.000000 0.000000
# 4 0.000000 0.000000 0.000000 0.073359 0.000000 0.000000
# 5 0.000000 0.000000 0.000000 0.000000 0.073359 0.000000
# 6 0.000000 0.000000 0.000000 0.000000 0.000000 5.395286
#
#
# Mechanical properties :
#
#
# Convention : Reuss Voigt Hill
#
# Bulk Modulus (GPa) = 42.81728 55.35786 49.08757
# Shear Modulus (GPa) = 0.89169 20.37873 10.63521
#
# Velocity S-wave (km/s) = 0.65739 3.14271 2.27033
# Velocity P-wave (km/s) = 4.61820 6.32442 5.53742
#
# Compressibility (1/GPa) = 0.02335505
#
# Stress axis : x y z
#
# Youngs Moduli (GPa) = 81.80293 81.80293 62.44510
#
# Poissons Ratio (x) = 0.58652 0.04321
# Poissons Ratio (y) = 0.58652 0.04321
# Poissons Ratio (z) = 0.05661 0.05661
#
# Static dielectric constant tensor:
#      x y z
#    x 1.759810 0.000000 0.000000 
#    y 0.000000 1.759810 0.000000 
#    z 0.000000 0.000000 1.765710 
# 
# From -- ./inp_files/7485.got.cif
#   From: 2010.05.17/outbox.cif.g08.bks.cpg/sg123_4_cif.got.tgz:7485.got - 2010.05.20 11:43:04.
