data_PCOD9561390
_publ_section_title
;
Structure prediction by ZEFSAII (Michael W. Deem and Ramdas Pophale) SiO2 
 PCOD9561390
Probable space group: I -4 2 D
;
_chemical_formula_sum "Si O2"
_cell_formula_units_Z 56
_cell_length_a 14.808604
_cell_length_b 14.808604
_cell_length_c 11.244171
_cell_angle_alpha 90.000000
_cell_angle_beta 90.000000
_cell_angle_gamma 90.000000
_cell_volume 2465.787696
_symmetry_space_group_name_H-M "I -4 2 D"
_symmetry_group_IT_number 122
_symmetry_cell_setting 'tetragonal'
loop_
_space_group_symop_operation_xyz
x,y,z
y,-x,-z
-x,-y,z
-y,x,-z
x,1/2-y,1/4-z
-x,1/2+y,1/4-z
-y,1/2-x,1/4+z
y,1/2+x,1/4+z
1/2+x,1/2+y,1/2+z
1/2+y,1/2-x,1/2-z
1/2-x,1/2-y,1/2+z
1/2-y,1/2+x,1/2-z
1/2+x,-y,3/4-z
1/2-x,y,3/4-z
1/2-y,-x,3/4+z
1/2+y,x,3/4+z
loop_
_atom_site_type_symbol
_atom_site_label
_atom_site_fract_x
_atom_site_fract_y
_atom_site_fract_z
Si Si1 0.250000 0.439937 0.375000
Si Si2 0.092284 0.555668 0.453838
Si Si3 0.906201 0.604279 0.783158
Si Si4 0.648288 0.238262 0.873820
O O1 0.161532 0.502791 0.369378
O O2 0.265035 0.379601 0.258554
O O3 0.136188 0.566624 0.585611
O O4 0.081456 0.658311 0.412183
O O5 0.000000 0.500000 0.461155
O O6 0.886652 0.496951 0.794186
O O7 0.821361 0.645592 0.715936
O O8 0.750000 0.201686 0.875000
#
# Coordination Sequence:
#
# PCOD9561390 Si02
#       4
#     8  16  16  16
#     4  12  28  48  70 110 148 194 250 314 392 460
#     4  12  26  47  75 106 148 197 249 313 385 461
#     4  11  22  49  74 108 145 194 255 311 381 455
#     4  12  29  45  77 108 152 197 257 315 384 466
#
# _framework density 22.710794
#
# number of rings (size 3 to 8) (size 9 to 14) (size 15 to 20)
#    0.000    0.286    7.143    0.857    8.000    4.571 
#    0.000    0.000    0.000    0.000    0.000    0.000 
#    0.000    0.000    0.000    0.000    0.000    0.000 
#
# Total GULP energy -156624.239108 kJ/mol
# GULP energy per Si atom -5593.722825 kJ/mol
# Density = 2.265910 g / cm^3
# Si number density = 22.710794 Si / 1000 Ang^3
#
#
#
# Elastic Constant Matrix: (Units=GPa)
#
#
# Indices 1 2 3 4 5 6 
#
# 1 77.9414 7.3041 26.4835 0.0000 0.0000 0.0000
# 2 7.3041 77.9414 26.4835 0.0000 0.0000 0.0000
# 3 26.4835 26.4835 60.8147 0.0000 0.0000 0.0000
# 4 0.0000 0.0000 0.0000 29.4845 0.0000 0.0000
# 5 0.0000 0.0000 0.0000 0.0000 29.4845 0.0000
# 6 0.0000 0.0000 0.0000 0.0000 0.0000 30.3164
#
#
#
# Elastic Compliance Matrix: (Units=1/GPa)
#
#
# Indices 1 2 3 4 5 6 
#
# 1 0.015120 0.000963 -0.007004 0.000000 0.000000 0.000000
# 2 0.000963 0.015120 -0.007004 0.000000 0.000000 0.000000
# 3 -0.007004 -0.007004 0.022543 0.000000 0.000000 0.000000
# 4 0.000000 0.000000 0.000000 0.033916 0.000000 0.000000
# 5 0.000000 0.000000 0.000000 0.000000 0.033916 0.000000
# 6 0.000000 0.000000 0.000000 0.000000 0.000000 0.032985
#
#
# Mechanical properties :
#
#
# Convention : Reuss Voigt Hill
#
# Bulk Modulus (GPa) = 37.46180 37.47108 37.46644
# Shear Modulus (GPa) = 26.51297 28.28548 27.39923
#
# Velocity S-wave (km/s) = 3.42046 3.53294 3.47715
# Velocity P-wave (km/s) = 5.66836 5.75997 5.71435
#
# Compressibility (1/GPa) = 0.02669386
#
# Stress axis : x y z
#
# Youngs Moduli (GPa) = 66.13911 66.13911 44.35927
#
# Poissons Ratio (x) = -0.06368 0.31067
# Poissons Ratio (y) = -0.06368 0.31067
# Poissons Ratio (z) = 0.46321 0.46321
#
# Static dielectric constant tensor:
#      x y z
#    x 1.833630 0.000000 0.000000 
#    y 0.000000 1.833630 0.000000 
#    z 0.000000 0.000000 1.878870 
# 
# From -- ./inp_files/3902.got.cif
#   From: 2010.05.17/outbox.cif.g08.bks.cpg/sg122_2_cif.got.tgz:3902.got - 2010.05.20 11:37:33.
