data_PCOD9561968
_publ_section_title
;
Structure prediction by ZEFSAII (Michael W. Deem and Ramdas Pophale) SiO2 
 PCOD9561968
Probable space group: P 4/M M M
;
_chemical_formula_sum "Si O2"
_cell_formula_units_Z 80
_cell_length_a 23.401127
_cell_length_b 23.401127
_cell_length_c 7.899134
_cell_angle_alpha 90.000000
_cell_angle_beta 90.000000
_cell_angle_gamma 90.000000
_cell_volume 4325.666452
_symmetry_space_group_name_H-M "P 4/M M M"
_symmetry_group_IT_number 123
_symmetry_cell_setting 'tetragonal'
loop_
_space_group_symop_operation_xyz
x,y,z
-y,x,z
-x,-y,z
y,-x,z
x,-y,-z
-x,y,-z
y,x,-z
-y,-x,-z
-x,-y,-z
y,-x,-z
x,y,-z
-y,x,-z
-x,y,z
x,-y,z
-y,-x,z
y,x,z
loop_
_atom_site_type_symbol
_atom_site_label
_atom_site_fract_x
_atom_site_fract_y
_atom_site_fract_z
Si Si1 0.437710 0.777133 0.802425
Si Si2 0.563382 0.092677 0.297934
Si Si3 0.000000 0.652068 0.190212
Si Si4 0.778645 0.871039 0.797520
Si Si5 0.000000 0.225886 0.313598
Si Si6 0.312389 0.217105 0.794853
O O1 0.500000 0.758647 0.729484
O O2 0.437252 0.845741 0.787612
O O3 0.374828 0.764694 0.727831
O O4 0.438051 0.759835 0.000000
O O5 0.571952 0.098856 0.500000
O O6 0.500000 0.067401 0.273575
O O7 0.611974 0.053961 0.220310
O O8 0.000000 0.705358 0.312630
O O9 0.000000 0.675640 0.000000
O O10 0.830517 0.830517 0.735421
O O11 0.787987 0.937792 0.762775
O O12 0.718759 0.841812 0.735589
O O13 0.776673 0.864996 0.000000
O O14 0.000000 0.201138 0.500000
O O15 0.266454 0.266454 0.761272
O O16 0.318870 0.212241 0.000000
#
# Coordination Sequence:
#
# PCOD9561968 Si02
#       6
#    16  16   8  16   8  16
#     4   9  16  26  42  64  88 116 152 190 228 276
#     4  10  20  32  44  60  86 118 150 187 233 280
#     4  12  23  33  46  63  87 119 158 197 226 261
#     4   9  18  34  55  75  95 123 159 195 233 282
#     4  12  24  35  51  75 101 125 150 187 239 291
#     4   8  14  26  45  67  90 118 153 194 236 273
#
# _framework density 18.494261000000002
#
# number of rings (size 3 to 8) (size 9 to 14) (size 15 to 20)
#    0.000    2.400    0.000    5.100    0.000    4.400 
#    0.000    0.000    0.000    2.100    0.000    2.100 
#    0.000    0.400    0.000    5.600    0.000    0.000 
#
# Total GULP energy -445506.316797 kJ/mol
# GULP energy per Si atom -5568.828960 kJ/mol
# Density = 1.845217 g / cm^3
# Si number density = 18.494261 Si / 1000 Ang^3
#
#
#
# Elastic Constant Matrix: (Units=GPa)
#
#
# Indices 1 2 3 4 5 6 
#
# 1 95.6062 28.4042 0.8787 0.0000 0.0000 0.0000
# 2 28.4042 95.6062 0.8787 0.0000 0.0000 0.0000
# 3 0.8787 0.8787 32.0274 0.0000 0.0000 0.0000
# 4 0.0000 0.0000 0.0000 -23.8687 0.0000 0.0000
# 5 0.0000 0.0000 0.0000 0.0000 -23.8687 0.0000
# 6 0.0000 0.0000 0.0000 0.0000 0.0000 49.9579
#
#
#
# Elastic Compliance Matrix: (Units=1/GPa)
#
#
# Indices 1 2 3 4 5 6 
#
# 1 0.011474 -0.003407 -0.000221 0.000000 0.000000 0.000000
# 2 -0.003407 0.011474 -0.000221 0.000000 0.000000 0.000000
# 3 -0.000221 -0.000221 0.031235 0.000000 0.000000 0.000000
# 4 0.000000 0.000000 0.000000 -0.041896 0.000000 0.000000
# 5 0.000000 0.000000 0.000000 0.000000 -0.041896 0.000000
# 6 0.000000 0.000000 0.000000 0.000000 0.000000 0.020017
#
#
# Mechanical properties :
#
#
# Convention : Reuss Voigt Hill
#
# Bulk Modulus (GPa) = 21.51272 31.50699 26.50986
# Shear Modulus (GPa) = 367.59888 13.31595 190.45741
#
# Velocity S-wave (km/s) = 14.11366 2.68620 10.15901
# Velocity P-wave (km/s) = 16.65086 5.16662 12.32771
#
# Compressibility (1/GPa) = 0.04648412
#
# Stress axis : x y z
#
# Youngs Moduli (GPa) = 87.15549 87.15549 32.01490
#
# Poissons Ratio (x) = 0.29692 0.00709
# Poissons Ratio (y) = 0.29692 0.00709
# Poissons Ratio (z) = 0.01929 0.01929
#
# Static dielectric constant tensor:
#      x y z
#    x 1.673020 0.000000 0.000000 
#    y 0.000000 1.673020 0.000000 
#    z 0.000000 0.000000 1.676310 
# 
# From -- ./inp_files/1504.got.cif
#   From: 2010.05.17/outbox.cif.g08.bks.cpg/sg123_1_cif.got.tgz:1504.got - 2010.05.20 11:43:04.
