data_PCOD9561287
_publ_section_title
;
Structure prediction by ZEFSAII (Michael W. Deem and Ramdas Pophale) SiO2 
 PCOD9561287
Probable space group: I -4 2 D
;
_chemical_formula_sum "Si O2"
_cell_formula_units_Z 84
_cell_length_a 13.620425
_cell_length_b 13.620425
_cell_length_c 21.093339
_cell_angle_alpha 90.000000
_cell_angle_beta 90.000000
_cell_angle_gamma 90.000000
_cell_volume 3913.151397
_symmetry_space_group_name_H-M "I -4 2 D"
_symmetry_group_IT_number 122
_symmetry_cell_setting 'tetragonal'
loop_
_space_group_symop_operation_xyz
x,y,z
y,-x,-z
-x,-y,z
-y,x,-z
x,1/2-y,1/4-z
-x,1/2+y,1/4-z
-y,1/2-x,1/4+z
y,1/2+x,1/4+z
1/2+x,1/2+y,1/2+z
1/2+y,1/2-x,1/2-z
1/2-x,1/2-y,1/2+z
1/2-y,1/2+x,1/2-z
1/2+x,-y,3/4-z
1/2-x,y,3/4-z
1/2-y,-x,3/4+z
1/2+y,x,3/4+z
loop_
_atom_site_type_symbol
_atom_site_label
_atom_site_fract_x
_atom_site_fract_y
_atom_site_fract_z
Si Si1 0.157923 0.750000 0.625000
Si Si2 0.180547 0.250000 0.125000
Si Si3 0.392989 0.482393 0.795543
Si Si4 0.500000 0.000000 0.750000
Si Si5 0.310856 0.037705 0.662132
Si Si6 0.820181 0.374051 0.054985
Si Si7 0.313354 0.526580 0.278241
O O1 0.086354 0.825430 0.661382
O O2 0.229214 0.803451 0.573132
O O3 0.226117 0.356979 0.135584
O O4 0.109242 0.243334 0.185019
O O5 0.500000 0.500000 0.827888
O O6 0.334132 0.574940 0.764830
O O7 0.429020 0.419878 0.734573
O O8 0.587541 0.962937 0.703312
O O9 0.232828 0.995542 0.710983
O O10 0.317441 0.960694 0.605784
O O11 0.923125 0.317610 0.063493
#
# Coordination Sequence:
#
# PCOD9561287 Si02
#       7
#     8   8  16   4  16  16  16
#     4  12  25  48  77 104 136 192 244 299 369 440
#     4  12  23  36  61  92 142 178 228 277 339 430
#     4  10  24  49  69  98 142 185 233 306 362 422
#     4  12  24  32  56  92 136 180 224 280 346 440
#     4  12  24  39  61 100 134 182 232 282 354 430
#     4  11  25  42  69 100 139 179 234 291 357 427
#     4  11  23  40  62  95 142 183 219 287 355 414
#
# _framework density 21.466076999999999
#
# number of rings (size 3 to 8) (size 9 to 14) (size 15 to 20)
#    0.000    0.762    5.714    1.714    6.667    0.000 
#    3.429    3.810    0.000    0.000    0.000    0.000 
#    0.000    0.000    0.000    0.000    0.000    0.000 
#
# Total GULP energy -234282.059904 kJ/mol
# GULP energy per Si atom -5578.144283 kJ/mol
# Density = 2.141722 g / cm^3
# Si number density = 21.466077 Si / 1000 Ang^3
#
#
#
# Elastic Constant Matrix: (Units=GPa)
#
#
# Indices 1 2 3 4 5 6 
#
# 1 81.9524 24.7633 43.8875 0.0000 0.0000 0.0000
# 2 24.7633 81.9524 43.8875 0.0000 0.0000 0.0000
# 3 43.8875 43.8875 66.7062 0.0000 0.0000 0.0000
# 4 0.0000 0.0000 0.0000 70.4459 0.0000 0.0000
# 5 0.0000 0.0000 0.0000 0.0000 70.4459 0.0000
# 6 0.0000 0.0000 0.0000 0.0000 0.0000 31.2197
#
#
#
# Elastic Compliance Matrix: (Units=1/GPa)
#
#
# Indices 1 2 3 4 5 6 
#
# 1 0.018954 0.001468 -0.013436 0.000000 0.000000 0.000000
# 2 0.001468 0.018954 -0.013436 0.000000 0.000000 0.000000
# 3 -0.013436 -0.013436 0.032671 0.000000 0.000000 0.000000
# 4 0.000000 0.000000 0.000000 0.014195 0.000000 0.000000
# 5 0.000000 0.000000 0.000000 0.000000 0.014195 0.000000
# 6 0.000000 0.000000 0.000000 0.000000 0.000000 0.032031
#
#
# Mechanical properties :
#
#
# Convention : Reuss Voigt Hill
#
# Bulk Modulus (GPa) = 50.58020 50.63195 50.60607
# Shear Modulus (GPa) = 26.53943 42.29382 34.41663
#
# Velocity S-wave (km/s) = 3.51998 4.44358 4.00847
# Velocity P-wave (km/s) = 6.33517 7.06862 6.71192
#
# Compressibility (1/GPa) = 0.01977058
#
# Stress axis : x y z
#
# Youngs Moduli (GPa) = 52.75945 52.75945 30.60823
#
# Poissons Ratio (x) = -0.07746 0.41126
# Poissons Ratio (y) = -0.07746 0.41126
# Poissons Ratio (z) = 0.70888 0.70888
#
# Static dielectric constant tensor:
#      x y z
#    x 1.772800 0.000000 0.000000 
#    y 0.000000 1.772800 0.000000 
#    z 0.000000 0.000000 1.734340 
# 
# From -- ./inp_files/7235.got.cif
#   From: 2010.05.17/outbox.cif.g08.bks.cpg/sg122_4_cif.got.tgz:7235.got - 2010.05.20 11:37:33.
