data_PCOD9561134
_publ_section_title
;
Structure prediction by ZEFSAII (Michael W. Deem and Ramdas Pophale) SiO2 
 PCOD9561134
Probable space group: I -4 2 D
;
_chemical_formula_sum "Si O2"
_cell_formula_units_Z 112
_cell_length_a 28.781102
_cell_length_b 28.781102
_cell_length_c 6.602990
_cell_angle_alpha 90.000000
_cell_angle_beta 90.000000
_cell_angle_gamma 90.000000
_cell_volume 5469.598865
_symmetry_space_group_name_H-M "I -4 2 D"
_symmetry_group_IT_number 122
_symmetry_cell_setting 'tetragonal'
loop_
_space_group_symop_operation_xyz
x,y,z
y,-x,-z
-x,-y,z
-y,x,-z
x,1/2-y,1/4-z
-x,1/2+y,1/4-z
-y,1/2-x,1/4+z
y,1/2+x,1/4+z
1/2+x,1/2+y,1/2+z
1/2+y,1/2-x,1/2-z
1/2-x,1/2-y,1/2+z
1/2-y,1/2+x,1/2-z
1/2+x,-y,3/4-z
1/2-x,y,3/4-z
1/2-y,-x,3/4+z
1/2+y,x,3/4+z
loop_
_atom_site_type_symbol
_atom_site_label
_atom_site_fract_x
_atom_site_fract_y
_atom_site_fract_z
Si Si1 0.138351 0.330141 0.106747
Si Si2 0.091246 0.594855 0.098409
Si Si3 0.699560 0.459838 0.296185
Si Si4 0.127897 0.003320 0.099625
Si Si5 0.801421 0.526164 0.809857
Si Si6 0.376619 0.827062 0.296486
Si Si7 0.287706 0.801392 0.545877
O O1 0.116346 0.371663 0.241412
O O2 0.166379 0.296517 0.257968
O O3 0.094879 0.303101 0.010762
O O4 0.166408 0.353409 0.923426
O O5 0.096336 0.539260 0.069310
O O6 0.041190 0.605000 0.200714
O O7 0.104836 0.624350 0.896864
O O8 0.750000 0.473552 0.375000
O O9 0.665577 0.475111 0.472169
O O10 0.684021 0.487961 0.101502
O O11 0.158376 0.028284 0.272247
O O12 0.750000 0.511384 0.875000
O O13 0.796745 0.577065 0.715008
O O14 0.337651 0.803592 0.435447
O O15 0.275807 0.750000 0.625000
O O16 0.250000 0.816152 0.375000
#
# Coordination Sequence:
#
# PCOD9561134 Si02
#       7
#    16  16  16  16  16  16  16
#     4  10  24  44  66  95 129 179 220 287 340 407
#     4  10  22  42  66  94 131 173 219 274 339 408
#     4  11  23  40  65  94 132 166 217 283 344 401
#     4  11  22  42  63  95 132 171 220 272 336 409
#     4  12  24  38  67 100 132 171 222 284 345 409
#     4  11  24  43  69  96 132 179 225 283 346 405
#     4  11  29  45  67  97 136 184 239 281 341 419
#
# _framework density 20.47682
#
# number of rings (size 3 to 8) (size 9 to 14) (size 15 to 20)
#    0.000    1.143    4.286    0.857    6.000    0.857 
#    0.000    0.000    0.000    0.000    0.000    0.000 
#    0.000    0.000    0.000    0.000    0.000    0.000 
#
# Total GULP energy -312529.405642 kJ/mol
# GULP energy per Si atom -5580.882244 kJ/mol
# Density = 2.043021 g / cm^3
# Si number density = 20.476820 Si / 1000 Ang^3
#
#
#
# Elastic Constant Matrix: (Units=GPa)
#
#
# Indices 1 2 3 4 5 6 
#
# 1 59.4254 -8.3403 14.1594 0.0000 0.0000 0.0000
# 2 -8.3403 59.4254 14.1594 0.0000 0.0000 0.0000
# 3 14.1594 14.1594 79.0989 0.0000 0.0000 0.0000
# 4 0.0000 0.0000 0.0000 133.8453 0.0000 0.0000
# 5 0.0000 0.0000 0.0000 0.0000 133.8453 0.0000
# 6 0.0000 0.0000 0.0000 0.0000 0.0000 27.0893
#
#
#
# Elastic Compliance Matrix: (Units=1/GPa)
#
#
# Indices 1 2 3 4 5 6 
#
# 1 0.018244 0.003487 -0.003890 0.000000 0.000000 0.000000
# 2 0.003487 0.018244 -0.003890 0.000000 0.000000 0.000000
# 3 -0.003890 -0.003890 0.014035 0.000000 0.000000 0.000000
# 4 0.000000 0.000000 0.000000 0.007471 0.000000 0.000000
# 5 0.000000 0.000000 0.000000 0.000000 0.007471 0.000000
# 6 0.000000 0.000000 0.000000 0.000000 0.000000 0.036915
#
#
# Mechanical properties :
#
#
# Convention : Reuss Voigt Hill
#
# Bulk Modulus (GPa) = 23.84481 26.43407 25.13944
# Shear Modulus (GPa) = 40.01729 70.82075 55.41902
#
# Velocity S-wave (km/s) = 4.42551 5.88735 5.20798
# Velocity P-wave (km/s) = 6.14684 7.69102 6.96188
#
# Compressibility (1/GPa) = 0.04193785
#
# Stress axis : x y z
#
# Youngs Moduli (GPa) = 54.81198 54.81198 71.24975
#
# Poissons Ratio (x) = -0.19115 0.27717
# Poissons Ratio (y) = -0.19115 0.27717
# Poissons Ratio (z) = 0.21323 0.21323
#
# Static dielectric constant tensor:
#      x y z
#    x 1.503440 0.000000 0.000000 
#    y 0.000000 1.503440 0.000000 
#    z 0.000000 0.000000 1.712560 
# 
# From -- ./inp_files/1525.got.cif
#   From: 2010.05.17/outbox.cif.g08.bks.cpg/sg122_1_cif.got.tgz:1525.got - 2010.05.20 11:37:33.
