data_PCOD9561551
_publ_section_title
;
Structure prediction by ZEFSAII (Michael W. Deem and Ramdas Pophale) SiO2 
 PCOD9561551
Probable space group: I -4 2 D
;
_chemical_formula_sum "Si O2"
_cell_formula_units_Z 52
_cell_length_a 20.322353
_cell_length_b 20.322353
_cell_length_c 4.776653
_cell_angle_alpha 90.000000
_cell_angle_beta 90.000000
_cell_angle_gamma 90.000000
_cell_volume 1972.748286
_symmetry_space_group_name_H-M "I -4 2 D"
_symmetry_group_IT_number 122
_symmetry_cell_setting 'tetragonal'
loop_
_space_group_symop_operation_xyz
x,y,z
y,-x,-z
-x,-y,z
-y,x,-z
x,1/2-y,1/4-z
-x,1/2+y,1/4-z
-y,1/2-x,1/4+z
y,1/2+x,1/4+z
1/2+x,1/2+y,1/2+z
1/2+y,1/2-x,1/2-z
1/2-x,1/2-y,1/2+z
1/2-y,1/2+x,1/2-z
1/2+x,-y,3/4-z
1/2-x,y,3/4-z
1/2-y,-x,3/4+z
1/2+y,x,3/4+z
loop_
_atom_site_type_symbol
_atom_site_label
_atom_site_fract_x
_atom_site_fract_y
_atom_site_fract_z
Si Si1 0.250000 0.290319 0.375000
Si Si2 0.500000 0.000000 0.250000
Si Si3 0.361817 0.867907 0.920322
Si Si4 0.027006 0.250000 0.125000
Si Si5 0.136777 0.449085 0.566982
O O1 0.214189 0.250000 0.625000
O O2 0.199221 0.330896 0.191315
O O3 0.494488 0.926390 0.377402
O O4 0.310664 0.923395 0.816970
O O5 0.429911 0.872437 0.755217
O O6 0.383555 0.866772 0.242459
O O7 0.980614 0.209611 0.340522
#
# Coordination Sequence:
#
# PCOD9561551 Si02
#       5
#     8   4  16   8  16
#     4  12  25  48  80 116 166 209 266 350 432 503
#     4  12  28  58  80 118 172 222 280 374 424 510
#     4  12  29  52  79 123 165 215 281 355 424 526
#     4  12  29  54  90 120 166 231 290 346 448 529
#     4  12  30  51  86 118 169 220 287 354 433 514
#
# _framework density 26.359165999999998
#
# number of rings (size 3 to 8) (size 9 to 14) (size 15 to 20)
#    0.000    0.000    4.615    2.769    4.308    7.385 
#    0.000    0.000    0.000    0.000    0.000    0.000 
#    0.000    0.000    0.000    0.000    0.000    0.000 
#
# Total GULP energy -145208.762903 kJ/mol
# GULP energy per Si atom -5584.952419 kJ/mol
# Density = 2.629917 g / cm^3
# Si number density = 26.359166 Si / 1000 Ang^3
#
#
#
# Elastic Constant Matrix: (Units=GPa)
#
#
# Indices 1 2 3 4 5 6 
#
# 1 150.2822 53.9652 18.8930 0.0000 0.0000 0.0000
# 2 53.9652 150.2822 18.8930 0.0000 0.0000 0.0000
# 3 18.8930 18.8930 75.7146 0.0000 0.0000 0.0000
# 4 0.0000 0.0000 0.0000 24.6997 0.0000 0.0000
# 5 0.0000 0.0000 0.0000 0.0000 24.6997 0.0000
# 6 0.0000 0.0000 0.0000 0.0000 0.0000 50.0205
#
#
#
# Elastic Compliance Matrix: (Units=1/GPa)
#
#
# Indices 1 2 3 4 5 6 
#
# 1 0.007758 -0.002625 -0.001281 0.000000 0.000000 0.000000
# 2 -0.002625 0.007758 -0.001281 0.000000 0.000000 0.000000
# 3 -0.001281 -0.001281 0.013847 0.000000 0.000000 0.000000
# 4 0.000000 0.000000 0.000000 0.040486 0.000000 0.000000
# 5 0.000000 0.000000 0.000000 0.000000 0.040486 0.000000
# 6 0.000000 0.000000 0.000000 0.000000 0.000000 0.019992
#
#
# Mechanical properties :
#
#
# Convention : Reuss Voigt Hill
#
# Bulk Modulus (GPa) = 52.66112 62.19795 57.42954
# Shear Modulus (GPa) = 34.00688 38.85249 36.42968
#
# Velocity S-wave (km/s) = 3.59574 3.84339 3.72163
# Velocity P-wave (km/s) = 6.10416 6.58355 6.34838
#
# Compressibility (1/GPa) = 0.01898934
#
# Stress axis : x y z
#
# Youngs Moduli (GPa) = 128.90457 128.90457 72.21933
#
# Poissons Ratio (x) = 0.33834 0.09250
# Poissons Ratio (y) = 0.33834 0.09250
# Poissons Ratio (z) = 0.16510 0.16510
#
# Static dielectric constant tensor:
#      x y z
#    x 2.164540 0.000000 0.000000 
#    y 0.000000 2.164540 0.000000 
#    z 0.000000 0.000000 1.984130 
# 
# From -- ./inp_files/875.got.cif
#   From: 2010.05.17/outbox.cif.g08.bks.cpg/sg122_1_cif.got.tgz:875.got - 2010.05.20 11:37:33.
