data_PCOD9561074
_publ_section_title
;
Structure prediction by ZEFSAII (Michael W. Deem and Ramdas Pophale) SiO2 
 PCOD9561074
Probable space group: I -4 2 D
;
_chemical_formula_sum "Si O2"
_cell_formula_units_Z 96
_cell_length_a 22.907770
_cell_length_b 22.907770
_cell_length_c 9.442043
_cell_angle_alpha 90.000000
_cell_angle_beta 90.000000
_cell_angle_gamma 90.000000
_cell_volume 4954.862442
_symmetry_space_group_name_H-M "I -4 2 D"
_symmetry_group_IT_number 122
_symmetry_cell_setting 'tetragonal'
loop_
_space_group_symop_operation_xyz
x,y,z
y,-x,-z
-x,-y,z
-y,x,-z
x,1/2-y,1/4-z
-x,1/2+y,1/4-z
-y,1/2-x,1/4+z
y,1/2+x,1/4+z
1/2+x,1/2+y,1/2+z
1/2+y,1/2-x,1/2-z
1/2-x,1/2-y,1/2+z
1/2-y,1/2+x,1/2-z
1/2+x,-y,3/4-z
1/2-x,y,3/4-z
1/2-y,-x,3/4+z
1/2+y,x,3/4+z
loop_
_atom_site_type_symbol
_atom_site_label
_atom_site_fract_x
_atom_site_fract_y
_atom_site_fract_z
Si Si1 0.498598 0.812199 0.546061
Si Si2 0.625518 0.182987 0.170436
Si Si3 0.680903 0.873823 0.843021
Si Si4 0.124943 0.182148 0.661923
Si Si5 0.997667 0.812757 0.546841
Si Si6 0.372564 0.181489 0.584886
O O1 0.498430 0.750000 0.625000
O O2 0.437785 0.838411 0.601546
O O3 0.500971 0.806798 0.374479
O O4 0.560168 0.838787 0.594410
O O5 0.626505 0.250000 0.125000
O O6 0.646546 0.174805 0.330131
O O7 0.559398 0.159452 0.158967
O O8 0.670727 0.147666 0.075005
O O9 0.750000 0.866179 0.875000
O O10 0.668219 0.859709 0.680337
O O11 0.639250 0.828343 0.925294
O O12 0.129123 0.250000 0.625000
O O13 0.062286 0.159738 0.604883
O O14 0.997859 0.750000 0.625000
O O15 0.367340 0.250000 0.625000
#
# Coordination Sequence:
#
# PCOD9561074 Si02
#       6
#    16  16  16  16  16  16
#     4  10  22  40  60  85 120 160 211 248 288 361
#     4  11  22  37  60  88 123 158 201 247 303 360
#     4  11  24  39  61  90 125 161 200 248 304 362
#     4  11  22  37  60  88 123 158 201 247 303 360
#     4  10  22  38  62  87 116 162 213 244 290 361
#     4  11  24  39  61  90 125 161 200 248 304 362
#
# _framework density 19.374908000000001
#
# number of rings (size 3 to 8) (size 9 to 14) (size 15 to 20)
#    0.000    1.333    3.333    2.000   14.000    4.000 
#    0.000    0.000    0.000    6.000    0.000    0.000 
#    0.000    0.000    0.000    0.000    0.000    0.000 
#
# Total GULP energy -267571.789513 kJ/mol
# GULP energy per Si atom -5574.412282 kJ/mol
# Density = 1.933081 g / cm^3
# Si number density = 19.374908 Si / 1000 Ang^3
#
#
#
# Elastic Constant Matrix: (Units=GPa)
#
#
# Indices 1 2 3 4 5 6 
#
# 1 88.1309 9.0344 4.6054 0.0000 0.0000 0.0000
# 2 9.0344 88.1309 4.6054 0.0000 0.0000 0.0000
# 3 4.6054 4.6054 58.8673 0.0000 0.0000 0.0000
# 4 0.0000 0.0000 0.0000 30.8585 0.0000 0.0000
# 5 0.0000 0.0000 0.0000 0.0000 30.8585 0.0000
# 6 0.0000 0.0000 0.0000 0.0000 0.0000 -12.7004
#
#
#
# Elastic Compliance Matrix: (Units=1/GPa)
#
#
# Indices 1 2 3 4 5 6 
#
# 1 0.011506 -0.001137 -0.000811 0.000000 0.000000 0.000000
# 2 -0.001137 0.011506 -0.000811 0.000000 0.000000 0.000000
# 3 -0.000811 -0.000811 0.017114 0.000000 0.000000 0.000000
# 4 0.000000 0.000000 0.000000 0.032406 0.000000 0.000000
# 5 0.000000 0.000000 0.000000 0.000000 0.032406 0.000000
# 6 0.000000 0.000000 0.000000 0.000000 0.000000 -0.078737
#
#
# Mechanical properties :
#
#
# Convention : Reuss Voigt Hill
#
# Bulk Modulus (GPa) = 28.89599 30.17992 29.53795
# Shear Modulus (GPa) = 115.59426 24.26224 69.92825
#
# Velocity S-wave (km/s) = 7.73249 3.54255 6.01419
# Velocity P-wave (km/s) = 9.72976 5.68714 7.96906
#
# Compressibility (1/GPa) = 0.03460688
#
# Stress axis : x y z
#
# Youngs Moduli (GPa) = 86.91337 86.91337 58.43075
#
# Poissons Ratio (x) = 0.09883 0.04740
# Poissons Ratio (y) = 0.09883 0.04740
# Poissons Ratio (z) = 0.07050 0.07050
#
# Static dielectric constant tensor:
#      x y z
#    x 1.708950 0.000000 0.000000 
#    y 0.000000 1.708950 0.000000 
#    z 0.000000 0.000000 1.656300 
# 
# From -- ./inp_files/2877.got.cif
#   From: 2010.05.17/outbox.cif.g08.bks.cpg/sg122_2_cif.got.tgz:2877.got - 2010.05.20 11:37:33.
