data_PCOD9561469
_publ_section_title
;
Structure prediction by ZEFSAII (Michael W. Deem and Ramdas Pophale) SiO2 
 PCOD9561469
Probable space group: I -4 2 D
;
_chemical_formula_sum "Si O2"
_cell_formula_units_Z 40
_cell_length_a 13.442411
_cell_length_b 13.442411
_cell_length_c 7.686122
_cell_angle_alpha 90.000000
_cell_angle_beta 90.000000
_cell_angle_gamma 90.000000
_cell_volume 1388.870051
_symmetry_space_group_name_H-M "I -4 2 D"
_symmetry_group_IT_number 122
_symmetry_cell_setting 'tetragonal'
loop_
_space_group_symop_operation_xyz
x,y,z
y,-x,-z
-x,-y,z
-y,x,-z
x,1/2-y,1/4-z
-x,1/2+y,1/4-z
-y,1/2-x,1/4+z
y,1/2+x,1/4+z
1/2+x,1/2+y,1/2+z
1/2+y,1/2-x,1/2-z
1/2-x,1/2-y,1/2+z
1/2-y,1/2+x,1/2-z
1/2+x,-y,3/4-z
1/2-x,y,3/4-z
1/2-y,-x,3/4+z
1/2+y,x,3/4+z
loop_
_atom_site_type_symbol
_atom_site_label
_atom_site_fract_x
_atom_site_fract_y
_atom_site_fract_z
Si Si1 0.868164 0.942097 0.438881
Si Si2 0.269671 0.750000 0.125000
Si Si3 0.372162 0.567496 0.584198
O O1 0.795415 0.854683 0.503137
O O2 0.973324 0.886666 0.420059
O O3 0.850287 0.006753 0.264009
O O4 0.206415 0.843752 0.066371
O O5 0.479454 0.620659 0.557810
#
# Coordination Sequence:
#
# PCOD9561469 Si02
#       3
#    16   8  16
#     4  11  25  49  77 108 149 198 248 304 370 443
#     4  12  28  50  80 114 144 198 256 306 364 442
#     4  11  27  49  75 110 153 194 242 308 376 437
#
# _framework density 28.800394000000001
#
# number of rings (size 3 to 8) (size 9 to 14) (size 15 to 20)
#    0.000    0.800    0.000    7.200    0.000   20.800 
#    0.000    4.000    0.000    4.800    0.000    0.000 
#    0.000    0.000    0.000    0.000    0.000    0.000 
#
# Total GULP energy -111756.153570 kJ/mol
# GULP energy per Si atom -5587.807678 kJ/mol
# Density = 2.873484 g / cm^3
# Si number density = 28.800394 Si / 1000 Ang^3
#
#
#
# Elastic Constant Matrix: (Units=GPa)
#
#
# Indices 1 2 3 4 5 6 
#
# 1 242.9459 174.6368 48.5442 0.0000 0.0000 0.0000
# 2 174.6368 242.9459 48.5442 0.0000 0.0000 0.0000
# 3 48.5442 48.5442 166.6856 0.0000 0.0000 0.0000
# 4 0.0000 0.0000 0.0000 39.0612 0.0000 0.0000
# 5 0.0000 0.0000 0.0000 0.0000 39.0612 0.0000
# 6 0.0000 0.0000 0.0000 0.0000 0.0000 93.1646
#
#
#
# Elastic Compliance Matrix: (Units=1/GPa)
#
#
# Indices 1 2 3 4 5 6 
#
# 1 0.008604 -0.006035 -0.000748 0.000000 0.000000 0.000000
# 2 -0.006035 0.008604 -0.000748 0.000000 0.000000 0.000000
# 3 -0.000748 -0.000748 0.006435 0.000000 0.000000 0.000000
# 4 0.000000 0.000000 0.000000 0.025601 0.000000 0.000000
# 5 0.000000 0.000000 0.000000 0.000000 0.025601 0.000000
# 6 0.000000 0.000000 0.000000 0.000000 0.000000 0.010734
#
#
# Mechanical properties :
#
#
# Convention : Reuss Voigt Hill
#
# Bulk Modulus (GPa) = 116.54922 132.89196 124.72059
# Shear Modulus (GPa) = 48.30851 59.64756 53.97803
#
# Velocity S-wave (km/s) = 4.10000 4.55584 4.33391
# Velocity P-wave (km/s) = 7.93531 8.59749 8.27302
#
# Compressibility (1/GPa) = 0.00858007
#
# Stress axis : x y z
#
# Youngs Moduli (GPa) = 116.22494 116.22494 155.39905
#
# Poissons Ratio (x) = 0.70146 0.11625
# Poissons Ratio (y) = 0.70146 0.11625
# Poissons Ratio (z) = 0.08695 0.08695
#
# Static dielectric constant tensor:
#      x y z
#    x 2.384810 0.000000 0.000000 
#    y 0.000000 2.384810 0.000000 
#    z 0.000000 0.000000 2.313040 
# 
# From -- ./inp_files/1878.got.cif
#   From: 2010.05.17/outbox.cif.g08.bks.cpg/sg122_1_cif.got.tgz:1878.got - 2010.05.20 11:37:33.
