data_PCOD9561731
_publ_section_title
;
Structure prediction by ZEFSAII (Michael W. Deem and Ramdas Pophale) SiO2 
 PCOD9561731
Probable space group: P 4/M M M
;
_chemical_formula_sum "Si O2"
_cell_formula_units_Z 120
_cell_length_a 18.754509
_cell_length_b 18.754509
_cell_length_c 23.124863
_cell_angle_alpha 90.000000
_cell_angle_beta 90.000000
_cell_angle_gamma 90.000000
_cell_volume 8133.745244
_symmetry_space_group_name_H-M "P 4/M M M"
_symmetry_group_IT_number 123
_symmetry_cell_setting 'tetragonal'
loop_
_space_group_symop_operation_xyz
x,y,z
-y,x,z
-x,-y,z
y,-x,z
x,-y,-z
-x,y,-z
y,x,-z
-y,-x,-z
-x,-y,-z
y,-x,-z
x,y,-z
-y,x,-z
-x,y,z
x,-y,z
-y,-x,z
y,x,z
loop_
_atom_site_type_symbol
_atom_site_label
_atom_site_fract_x
_atom_site_fract_y
_atom_site_fract_z
Si Si1 0.152829 0.416585 0.152775
Si Si2 0.080875 0.198035 0.166350
Si Si3 0.841747 0.586332 0.567704
Si Si4 0.081206 0.332052 0.252573
Si Si5 0.659210 0.777368 0.326343
Si Si6 0.084716 0.691881 0.932603
Si Si7 0.419243 0.000000 0.570063
Si Si8 0.702336 0.415824 0.219843
O O1 0.145779 0.500000 0.141539
O O2 0.102211 0.393119 0.206228
O O3 0.129653 0.369899 0.098203
O O4 0.233522 0.401696 0.174334
O O5 0.137213 0.137213 0.177988
O O6 0.084386 0.259615 0.214860
O O7 0.096643 0.237543 0.105654
O O8 0.000000 0.170822 0.164577
O O9 0.829185 0.602245 0.500000
O O10 0.840296 0.500000 0.573624
O O11 0.787688 0.622848 0.611587
O O12 0.922488 0.611455 0.583890
O O13 0.144093 0.329776 0.299179
O O14 0.000000 0.341767 0.273897
O O15 0.731714 0.731714 0.329239
O O16 0.607747 0.735456 0.281662
O O17 0.000000 0.675198 0.926723
O O18 0.100902 0.700513 0.000000
O O19 0.500000 0.000000 0.593581
O O20 0.424139 0.000000 0.500000
O O21 0.686287 0.500000 0.219308
O O22 0.634562 0.365439 0.208563
#
# Coordination Sequence:
#
# PCOD9561731 Si02
#       8
#    16  16  16  16  16  16   8  16
#     4   9  17  29  44  65  92 114 139 179 218 250
#     4   9  17  30  46  62  83 109 140 181 220 255
#     4   9  17  29  44  62  87 117 147 178 213 255
#     4   9  18  30  44  62  85 116 148 174 212 264
#     4  10  19  29  44  65  90 117 146 182 219 259
#     4   9  18  30  43  62  88 119 150 173 202 252
#     4   7  12  24  40  58  80 108 139 169 202 242
#     4   9  18  32  48  66  88 113 143 181 223 264
#
# _framework density 14.753351
#
# number of rings (size 3 to 8) (size 9 to 14) (size 15 to 20)
#    0.000    3.000    0.000    2.800    0.933    5.867 
#    0.000    0.667    0.000    0.000    0.000    1.867 
#    0.000    0.000    0.000   15.333    0.000    3.733 
#
# Total GULP energy -668095.456428 kJ/mol
# GULP energy per Si atom -5567.462137 kJ/mol
# Density = 1.471977 g / cm^3
# Si number density = 14.753351 Si / 1000 Ang^3
#
#
#
# Elastic Constant Matrix: (Units=GPa)
#
#
# Indices 1 2 3 4 5 6 
#
# 1 56.5416 32.4997 10.1388 0.0000 0.0000 0.0000
# 2 32.4997 56.5416 10.1388 0.0000 0.0000 0.0000
# 3 10.1388 10.1388 50.7093 0.0000 0.0000 0.0000
# 4 0.0000 0.0000 0.0000 14.4223 0.0000 0.0000
# 5 0.0000 0.0000 0.0000 0.0000 14.4223 0.0000
# 6 0.0000 0.0000 0.0000 0.0000 0.0000 114.5996
#
#
#
# Elastic Compliance Matrix: (Units=1/GPa)
#
#
# Indices 1 2 3 4 5 6 
#
# 1 0.026680 -0.014914 -0.002353 0.000000 0.000000 0.000000
# 2 -0.014914 0.026680 -0.002353 0.000000 0.000000 0.000000
# 3 -0.002353 -0.002353 0.020661 0.000000 0.000000 0.000000
# 4 0.000000 0.000000 0.000000 0.069337 0.000000 0.000000
# 5 0.000000 0.000000 0.000000 0.000000 0.069337 0.000000
# 6 0.000000 0.000000 0.000000 0.000000 0.000000 0.008726
#
#
# Mechanical properties :
#
#
# Convention : Reuss Voigt Hill
#
# Bulk Modulus (GPa) = 28.74911 29.92743 29.33827
# Shear Modulus (GPa) = 18.36516 36.08983 27.22750
#
# Velocity S-wave (km/s) = 3.53202 4.95129 4.30060
# Velocity P-wave (km/s) = 6.01351 7.28122 6.67752
#
# Compressibility (1/GPa) = 0.03478368
#
# Stress axis : x y z
#
# Youngs Moduli (GPa) = 37.48085 37.48085 48.40034
#
# Poissons Ratio (x) = 0.55898 0.11387
# Poissons Ratio (y) = 0.55898 0.11387
# Poissons Ratio (z) = 0.08818 0.08818
#
# Static dielectric constant tensor:
#      x y z
#    x 1.482190 0.000000 0.000000 
#    y 0.000000 1.482190 0.000000 
#    z 0.000000 0.000000 1.485020 
# 
# From -- ./inp_files/7653.got.cif
#   From: 2010.05.17/outbox.cif.g08.bks.cpg/sg123_4_cif.got.tgz:7653.got - 2010.05.20 11:43:04.
