data_PCOD9561408
_publ_section_title
;
Structure prediction by ZEFSAII (Michael W. Deem and Ramdas Pophale) SiO2 
 PCOD9561408
Probable space group: I -4 2 D
;
_chemical_formula_sum "Si O2"
_cell_formula_units_Z 88
_cell_length_a 11.667144
_cell_length_b 11.667144
_cell_length_c 27.672781
_cell_angle_alpha 90.000000
_cell_angle_beta 90.000000
_cell_angle_gamma 90.000000
_cell_volume 3766.881189
_symmetry_space_group_name_H-M "I -4 2 D"
_symmetry_group_IT_number 122
_symmetry_cell_setting 'tetragonal'
loop_
_space_group_symop_operation_xyz
x,y,z
y,-x,-z
-x,-y,z
-y,x,-z
x,1/2-y,1/4-z
-x,1/2+y,1/4-z
-y,1/2-x,1/4+z
y,1/2+x,1/4+z
1/2+x,1/2+y,1/2+z
1/2+y,1/2-x,1/2-z
1/2-x,1/2-y,1/2+z
1/2-y,1/2+x,1/2-z
1/2+x,-y,3/4-z
1/2-x,y,3/4-z
1/2-y,-x,3/4+z
1/2+y,x,3/4+z
loop_
_atom_site_type_symbol
_atom_site_label
_atom_site_fract_x
_atom_site_fract_y
_atom_site_fract_z
Si Si1 0.351322 0.224476 0.173235
Si Si2 0.031859 0.669384 0.770261
Si Si3 0.028741 0.750000 0.125000
Si Si4 0.423432 0.314644 0.432453
Si Si5 0.946953 0.124949 0.704887
Si Si6 0.637395 0.675912 0.543995
O O1 0.285775 0.250000 0.125000
O O2 0.360579 0.089359 0.179239
O O3 0.467158 0.296140 0.173564
O O4 0.264370 0.271806 0.212741
O O5 0.114291 0.592305 0.735298
O O6 0.044617 0.800086 0.754333
O O7 0.113958 0.851855 0.107080
O O8 0.947378 0.745012 0.076650
O O9 0.391412 0.179381 0.432940
O O10 0.557116 0.344715 0.427407
O O11 0.401466 0.346157 0.489055
O O12 0.000000 0.000000 0.711478
#
# Coordination Sequence:
#
# PCOD9561408 Si02
#       6
#    16  16   8  16  16  16
#     4  11  23  43  68 103 150 192 252 322 395 479
#     4   9  20  42  67  98 137 190 251 311 383 467
#     4  12  28  46  76 118 140 216 270 326 422 508
#     4  12  26  49  76 113 162 208 275 345 428 509
#     4  11  23  43  71 104 143 199 255 316 409 491
#     4  12  24  49  77 111 161 211 266 349 421 497
#
# _framework density 23.361502999999999
#
# number of rings (size 3 to 8) (size 9 to 14) (size 15 to 20)
#    0.000    0.909    6.364    0.545    1.273    0.000 
#    9.818    5.455    0.000    0.000    0.000    0.000 
#    0.000    0.000    0.000    0.000    0.000    0.000 
#
# Total GULP energy -245152.055317 kJ/mol
# GULP energy per Si atom -5571.637621 kJ/mol
# Density = 2.330833 g / cm^3
# Si number density = 23.361503 Si / 1000 Ang^3
#
#
#
# Elastic Constant Matrix: (Units=GPa)
#
#
# Indices 1 2 3 4 5 6 
#
# 1 139.3621 37.2740 30.2431 0.0000 0.0000 0.0000
# 2 37.2740 139.3621 30.2431 0.0000 0.0000 0.0000
# 3 30.2431 30.2431 65.4133 0.0000 0.0000 0.0000
# 4 0.0000 0.0000 0.0000 33.2549 0.0000 0.0000
# 5 0.0000 0.0000 0.0000 0.0000 33.2549 0.0000
# 6 0.0000 0.0000 0.0000 0.0000 0.0000 62.2329
#
#
#
# Elastic Compliance Matrix: (Units=1/GPa)
#
#
# Indices 1 2 3 4 5 6 
#
# 1 0.008261 -0.001535 -0.003110 0.000000 0.000000 0.000000
# 2 -0.001535 0.008261 -0.003110 0.000000 0.000000 0.000000
# 3 -0.003110 -0.003110 0.018163 0.000000 0.000000 0.000000
# 4 0.000000 0.000000 0.000000 0.030071 0.000000 0.000000
# 5 0.000000 0.000000 0.000000 0.000000 0.030071 0.000000
# 6 0.000000 0.000000 0.000000 0.000000 0.000000 0.016069
#
#
# Mechanical properties :
#
#
# Convention : Reuss Voigt Hill
#
# Bulk Modulus (GPa) = 52.14781 59.96199 56.05490
# Shear Modulus (GPa) = 37.65189 42.17369 39.91279
#
# Velocity S-wave (km/s) = 4.01896 4.25345 4.13787
# Velocity P-wave (km/s) = 6.62621 7.06011 6.84660
#
# Compressibility (1/GPa) = 0.01917626
#
# Stress axis : x y z
#
# Youngs Moduli (GPa) = 121.05278 121.05278 55.05705
#
# Poissons Ratio (x) = 0.18577 0.17122
# Poissons Ratio (y) = 0.18577 0.17122
# Poissons Ratio (z) = 0.37645 0.37645
#
# Static dielectric constant tensor:
#      x y z
#    x 1.932930 0.000000 0.000000 
#    y 0.000000 1.932930 0.000000 
#    z 0.000000 0.000000 1.997510 
# 
# From -- ./inp_files/9507.got.cif
#   From: 2010.05.17/outbox.cif.g08.bks.cpg/sg122_5_cif.got.tgz:9507.got - 2010.05.20 11:37:33.
