data_PCOD9561789
_publ_section_title
;
Structure prediction by ZEFSAII (Michael W. Deem and Ramdas Pophale) SiO2 
 PCOD9561789
Probable space group: P 4/M M M
;
_chemical_formula_sum "Si O2"
_cell_formula_units_Z 88
_cell_length_a 13.951469
_cell_length_b 13.951469
_cell_length_c 28.433227
_cell_angle_alpha 90.000000
_cell_angle_beta 90.000000
_cell_angle_gamma 90.000000
_cell_volume 5534.342457
_symmetry_space_group_name_H-M "P 4/M M M"
_symmetry_group_IT_number 123
_symmetry_cell_setting 'tetragonal'
loop_
_space_group_symop_operation_xyz
x,y,z
-y,x,z
-x,-y,z
y,-x,z
x,-y,-z
-x,y,-z
y,x,-z
-y,-x,-z
-x,-y,-z
y,-x,-z
x,y,-z
-y,x,-z
-x,y,z
x,-y,z
-y,-x,z
y,x,z
loop_
_atom_site_type_symbol
_atom_site_label
_atom_site_fract_x
_atom_site_fract_y
_atom_site_fract_z
Si Si1 0.888764 0.730280 0.126054
Si Si2 0.728942 0.887233 0.236082
Si Si3 0.890336 0.383964 0.406437
Si Si4 0.385500 0.772693 0.312686
Si Si5 0.388321 0.229294 0.945793
Si Si6 0.227325 0.384481 0.500000
O O1 0.824851 0.824851 0.118404
O O2 0.877461 0.702770 0.180953
O O3 0.847705 0.650624 0.091091
O O4 0.000000 0.748604 0.117379
O O5 0.827457 0.827457 0.243095
O O6 0.650679 0.837272 0.269219
O O7 0.739238 0.000000 0.246543
O O8 0.895383 0.500000 0.406574
O O9 0.830349 0.358102 0.360145
O O10 0.833863 0.357804 0.453769
O O11 0.000000 0.348197 0.405490
O O12 0.500000 0.758940 0.311807
O O13 0.326242 0.673759 0.311504
O O14 0.500000 0.248710 0.938825
O O15 0.324397 0.324397 0.939405
O O16 0.374412 0.197136 0.000000
O O17 0.242040 0.500000 0.500000
O O18 0.326160 0.326160 0.500000
#
# Coordination Sequence:
#
# PCOD9561789 Si02
#       6
#    16  16  16  16  16   8
#     4   9  18  32  49  70  96 124 155 192 233 279
#     4   9  18  32  50  72  96 123 156 194 237 282
#     4   9  17  30  48  68  90 118 153 194 238 279
#     4  10  20  33  49  70  97 128 161 196 234 280
#     4   9  18  32  49  69  93 121 154 193 235 278
#     4  10  19  30  45  67  96 128 161 195 232 279
#
# _framework density 15.900714000000001
#
# number of rings (size 3 to 8) (size 9 to 14) (size 15 to 20)
#    0.000    2.727    0.000    1.364    0.000    4.455 
#    0.000    5.455    0.000    3.273    0.000    7.636 
#    0.000   13.818    0.000    0.000    0.000    0.000 
#
# Total GULP energy -490298.261056 kJ/mol
# GULP energy per Si atom -5571.571148 kJ/mol
# Density = 1.586452 g / cm^3
# Si number density = 15.900714 Si / 1000 Ang^3
#
#
#
# Elastic Constant Matrix: (Units=GPa)
#
#
# Indices 1 2 3 4 5 6 
#
# 1 100.4210 46.9751 60.8596 0.0000 0.0000 0.0000
# 2 46.9751 100.4210 60.8596 0.0000 0.0000 0.0000
# 3 60.8596 60.8596 90.3677 0.0000 0.0000 0.0000
# 4 0.0000 0.0000 0.0000 24.1018 0.0000 0.0000
# 5 0.0000 0.0000 0.0000 0.0000 24.1018 0.0000
# 6 0.0000 0.0000 0.0000 0.0000 0.0000 6.3091
#
#
#
# Elastic Compliance Matrix: (Units=1/GPa)
#
#
# Indices 1 2 3 4 5 6 
#
# 1 0.016998 -0.001713 -0.010294 0.000000 0.000000 0.000000
# 2 -0.001713 0.016998 -0.010294 0.000000 0.000000 0.000000
# 3 -0.010294 -0.010294 0.024931 0.000000 0.000000 0.000000
# 4 0.000000 0.000000 0.000000 0.041491 0.000000 0.000000
# 5 0.000000 0.000000 0.000000 0.000000 0.041491 0.000000
# 6 0.000000 0.000000 0.000000 0.000000 0.000000 0.158502
#
#
# Mechanical properties :
#
#
# Convention : Reuss Voigt Hill
#
# Bulk Modulus (GPa) = 69.80573 69.84424 69.82499
# Shear Modulus (GPa) = 14.29440 19.07025 16.68232
#
# Velocity S-wave (km/s) = 3.00155 3.46690 3.24258
# Velocity P-wave (km/s) = 7.48390 7.74896 7.61758
#
# Compressibility (1/GPa) = 0.01432547
#
# Stress axis : x y z
#
# Youngs Moduli (GPa) = 58.83083 58.83083 40.11014
#
# Poissons Ratio (x) = 0.10075 0.41290
# Poissons Ratio (y) = 0.10075 0.41290
# Poissons Ratio (z) = 0.60561 0.60561
#
# Static dielectric constant tensor:
#      x y z
#    x 1.510680 0.000000 0.000000 
#    y 0.000000 1.510680 0.000000 
#    z 0.000000 0.000000 1.538640 
# 
# From -- ./inp_files/6407.got.cif
#   From: 2010.05.17/outbox.cif.g08.bks.cpg/sg123_4_cif.got.tgz:6407.got - 2010.05.20 11:43:04.
