data_PCOD9561785
_publ_section_title
;
Structure prediction by ZEFSAII (Michael W. Deem and Ramdas Pophale) SiO2 
 PCOD9561785
Probable space group: P 4/M M M
;
_chemical_formula_sum "Si O2"
_cell_formula_units_Z 88
_cell_length_a 14.069541
_cell_length_b 14.069541
_cell_length_c 28.329808
_cell_angle_alpha 90.000000
_cell_angle_beta 90.000000
_cell_angle_gamma 90.000000
_cell_volume 5607.941699
_symmetry_space_group_name_H-M "P 4/M M M"
_symmetry_group_IT_number 123
_symmetry_cell_setting 'tetragonal'
loop_
_space_group_symop_operation_xyz
x,y,z
-y,x,z
-x,-y,z
y,-x,z
x,-y,-z
-x,y,-z
y,x,-z
-y,-x,-z
-x,-y,-z
y,-x,-z
x,y,-z
-y,x,-z
-x,y,z
x,-y,z
-y,-x,z
y,x,z
loop_
_atom_site_type_symbol
_atom_site_label
_atom_site_fract_x
_atom_site_fract_y
_atom_site_fract_z
Si Si1 0.230672 0.386692 0.683943
Si Si2 0.384791 0.108567 0.407392
Si Si3 0.888474 0.389238 0.778271
Si Si4 0.229882 0.385667 0.500000
Si Si5 0.269329 0.112414 0.872451
Si Si6 0.389143 0.233187 0.055918
O O1 0.247704 0.500000 0.680385
O O2 0.326626 0.326626 0.682271
O O3 0.163615 0.357456 0.640166
O O4 0.175775 0.368660 0.732947
O O5 0.500000 0.103881 0.407049
O O6 0.359584 0.168812 0.453676
O O7 0.349708 0.000000 0.408943
O O8 0.873527 0.500000 0.791758
O O9 0.869110 0.321987 0.822625
O O10 0.000000 0.379603 0.765457
O O11 0.244788 0.500000 0.500000
O O12 0.327529 0.327529 0.500000
O O13 0.172690 0.172690 0.874409
O O14 0.338014 0.152842 0.913248
O O15 0.254675 0.000000 0.877293
O O16 0.500000 0.242358 0.067969
O O17 0.330191 0.330191 0.064616
O O18 0.381879 0.212372 0.000000
#
# Coordination Sequence:
#
# PCOD9561785 Si02
#       6
#    16  16  16   8  16  16
#     4  10  19  30  45  66  94 125 153 182 218 266
#     4   9  17  30  47  65  86 114 150 193 233 260
#     4   9  17  30  49  71  92 116 150 193 238 278
#     4  10  19  30  45  67  96 126 153 181 216 265
#     4  10  20  33  49  69  94 124 159 199 240 282
#     4   9  18  32  50  73  99 125 154 189 230 278
#
# _framework density 15.692031999999999
#
# number of rings (size 3 to 8) (size 9 to 14) (size 15 to 20)
#    0.000    2.545    0.000    2.455    0.000    5.364 
#    0.000    1.818    0.000    3.273    0.000    5.091 
#    0.000   26.545    0.000    0.000    0.000    0.000 
#
# Total GULP energy -490541.851442 kJ/mol
# GULP energy per Si atom -5574.339221 kJ/mol
# Density = 1.565632 g / cm^3
# Si number density = 15.692032 Si / 1000 Ang^3
#
#
#
# Elastic Constant Matrix: (Units=GPa)
#
#
# Indices 1 2 3 4 5 6 
#
# 1 99.6249 66.0410 63.8395 0.0000 0.0000 0.0000
# 2 66.0410 99.6249 63.8395 0.0000 0.0000 0.0000
# 3 63.8395 63.8395 90.2657 0.0000 0.0000 0.0000
# 4 0.0000 0.0000 0.0000 18.4842 0.0000 0.0000
# 5 0.0000 0.0000 0.0000 0.0000 18.4842 0.0000
# 6 0.0000 0.0000 0.0000 0.0000 0.0000 14.5821
#
#
#
# Elastic Compliance Matrix: (Units=1/GPa)
#
#
# Indices 1 2 3 4 5 6 
#
# 1 0.021522 -0.008254 -0.009384 0.000000 0.000000 0.000000
# 2 -0.008254 0.021522 -0.009384 0.000000 0.000000 0.000000
# 3 -0.009384 -0.009384 0.024352 0.000000 0.000000 0.000000
# 4 0.000000 0.000000 0.000000 0.054100 0.000000 0.000000
# 5 0.000000 0.000000 0.000000 0.000000 0.054100 0.000000
# 6 0.000000 0.000000 0.000000 0.000000 0.000000 0.068577
#
#
# Mechanical properties :
#
#
# Convention : Reuss Voigt Hill
#
# Bulk Modulus (GPa) = 74.89031 75.21726 75.05378
# Shear Modulus (GPa) = 16.51968 16.69645 16.60807
#
# Velocity S-wave (km/s) = 3.24812 3.26545 3.25680
# Velocity P-wave (km/s) = 7.86738 7.89019 7.87879
#
# Compressibility (1/GPa) = 0.01335286
#
# Stress axis : x y z
#
# Youngs Moduli (GPa) = 46.46331 46.46331 41.06444
#
# Poissons Ratio (x) = 0.38350 0.38535
# Poissons Ratio (y) = 0.38350 0.38535
# Poissons Ratio (z) = 0.43601 0.43601
#
# Static dielectric constant tensor:
#      x y z
#    x 1.504080 0.000000 0.000000 
#    y 0.000000 1.504080 0.000000 
#    z 0.000000 0.000000 1.520700 
# 
# From -- ./inp_files/7159.got.cif
#   From: 2010.05.17/outbox.cif.g08.bks.cpg/sg123_4_cif.got.tgz:7159.got - 2010.05.20 11:43:04.
