data_PCOD9561910
_publ_section_title
;
Structure prediction by ZEFSAII (Michael W. Deem and Ramdas Pophale) SiO2 
 PCOD9561910
Probable space group: P 4/M M M
;
_chemical_formula_sum "Si O2"
_cell_formula_units_Z 72
_cell_length_a 21.895333
_cell_length_b 21.895333
_cell_length_c 8.519465
_cell_angle_alpha 90.000000
_cell_angle_beta 90.000000
_cell_angle_gamma 90.000000
_cell_volume 4084.279291
_symmetry_space_group_name_H-M "P 4/M M M"
_symmetry_group_IT_number 123
_symmetry_cell_setting 'tetragonal'
loop_
_space_group_symop_operation_xyz
x,y,z
-y,x,z
-x,-y,z
y,-x,z
x,-y,-z
-x,y,-z
y,x,-z
-y,-x,-z
-x,-y,-z
y,-x,-z
x,y,-z
-y,x,-z
-x,y,z
x,-y,z
-y,-x,z
y,x,z
loop_
_atom_site_type_symbol
_atom_site_label
_atom_site_fract_x
_atom_site_fract_y
_atom_site_fract_z
Si Si1 0.930601 0.500000 0.691067
Si Si2 0.831406 0.401877 0.688252
Si Si3 0.165255 0.264723 0.187988
Si Si4 0.929928 0.830858 0.689801
Si Si5 0.598309 0.500000 0.191336
Si Si6 0.500000 0.262120 0.811388
O O1 0.932270 0.500000 0.500000
O O2 0.891424 0.440580 0.738257
O O3 0.000000 0.500000 0.748257
O O4 0.829579 0.402145 0.500000
O O5 0.832020 0.333048 0.748187
O O6 0.774329 0.440843 0.751226
O O7 0.223647 0.223647 0.238151
O O8 0.106029 0.228135 0.248129
O O9 0.164382 0.266194 0.000000
O O10 0.929615 0.828802 0.500000
O O11 0.889741 0.889741 0.738113
O O12 0.000000 0.833725 0.742528
O O13 0.559275 0.559275 0.239952
O O14 0.667936 0.500000 0.244166
O O15 0.598939 0.500000 0.000000
O O16 0.500000 0.261283 0.000000
#
# Coordination Sequence:
#
# PCOD9561910 Si02
#       6
#     8  16  16  16   8   8
#     4   8  16  32  52  73  97 126 161 200 243 295
#     4  10  20  34  53  76 102 133 170 213 260 307
#     4  10  21  36  53  74 102 136 174 217 264 312
#     4   9  18  33  53  77 105 137 173 213 258 309
#     4   8  15  29  49  73  99 127 163 206 247 289
#     4  10  19  32  52  77 106 138 171 208 251 302
#
# _framework density 17.62857
#
# number of rings (size 3 to 8) (size 9 to 14) (size 15 to 20)
#    0.000    2.667    0.000    2.667    0.000    3.778 
#    0.000    5.556    0.000   13.333    0.000    6.222 
#    0.000    0.000    0.000    0.000    0.000    0.000 
#
# Total GULP energy -401566.743435 kJ/mol
# GULP energy per Si atom -5577.315881 kJ/mol
# Density = 1.758845 g / cm^3
# Si number density = 17.628570 Si / 1000 Ang^3
#
#
#
# Elastic Constant Matrix: (Units=GPa)
#
#
# Indices 1 2 3 4 5 6 
#
# 1 198.0083 107.1444 32.5421 0.0000 0.0000 0.0000
# 2 107.1444 198.0083 32.5421 0.0000 0.0000 0.0000
# 3 32.5421 32.5421 28.1920 0.0000 0.0000 0.0000
# 4 0.0000 0.0000 0.0000 25.3227 0.0000 0.0000
# 5 0.0000 0.0000 0.0000 0.0000 25.3227 0.0000
# 6 0.0000 0.0000 0.0000 0.0000 0.0000 6.0335
#
#
#
# Elastic Compliance Matrix: (Units=1/GPa)
#
#
# Indices 1 2 3 4 5 6 
#
# 1 0.007676 -0.003329 -0.005018 0.000000 0.000000 0.000000
# 2 -0.003329 0.007676 -0.005018 0.000000 0.000000 0.000000
# 3 -0.005018 -0.005018 0.047056 0.000000 0.000000 0.000000
# 4 0.000000 0.000000 0.000000 0.039490 0.000000 0.000000
# 5 0.000000 0.000000 0.000000 0.000000 0.039490 0.000000
# 6 0.000000 0.000000 0.000000 0.000000 0.000000 0.165741
#
#
# Mechanical properties :
#
#
# Convention : Reuss Voigt Hill
#
# Bulk Modulus (GPa) = 28.02848 85.40730 56.71789
# Shear Modulus (GPa) = 14.46119 28.13446 21.29783
#
# Velocity S-wave (km/s) = 2.86724 3.99928 3.47961
# Velocity P-wave (km/s) = 5.18608 8.35937 6.95609
#
# Compressibility (1/GPa) = 0.03567800
#
# Stress axis : x y z
#
# Youngs Moduli (GPa) = 130.26940 130.26940 21.25136
#
# Poissons Ratio (x) = 0.43368 0.10664
# Poissons Ratio (y) = 0.43368 0.10664
# Poissons Ratio (z) = 0.65371 0.65371
#
# Static dielectric constant tensor:
#      x y z
#    x 1.583690 0.000000 0.000000 
#    y 0.000000 1.583690 0.000000 
#    z 0.000000 0.000000 1.606350 
# 
# From -- ./inp_files/1198.got.cif
#   From: 2010.05.17/outbox.cif.g08.bks.cpg/sg123_1_cif.got.tgz:1198.got - 2010.05.20 11:43:04.
