data_PCOD9561904
_publ_section_title
;
Structure prediction by ZEFSAII (Michael W. Deem and Ramdas Pophale) SiO2 
 PCOD9561904
Probable space group: P 4/M M M
;
_chemical_formula_sum "Si O2"
_cell_formula_units_Z 72
_cell_length_a 22.032830
_cell_length_b 22.032830
_cell_length_c 8.133441
_cell_angle_alpha 90.000000
_cell_angle_beta 90.000000
_cell_angle_gamma 90.000000
_cell_volume 3948.343128
_symmetry_space_group_name_H-M "P 4/M M M"
_symmetry_group_IT_number 123
_symmetry_cell_setting 'tetragonal'
loop_
_space_group_symop_operation_xyz
x,y,z
-y,x,z
-x,-y,z
y,-x,z
x,-y,-z
-x,y,-z
y,x,-z
-y,-x,-z
-x,-y,-z
y,-x,-z
x,y,-z
-y,x,-z
-x,y,z
x,-y,z
-y,-x,z
y,x,z
loop_
_atom_site_type_symbol
_atom_site_label
_atom_site_fract_x
_atom_site_fract_y
_atom_site_fract_z
Si Si1 0.930726 0.500000 0.701152
Si Si2 0.832946 0.403200 0.695876
Si Si3 0.167263 0.264470 0.198050
Si Si4 0.930799 0.832637 0.799203
Si Si5 0.597974 0.500000 0.799160
Si Si6 0.500000 0.264212 0.803911
O O1 0.931780 0.500000 0.500000
O O2 0.891750 0.441387 0.754821
O O3 0.000000 0.500000 0.758069
O O4 0.834282 0.404871 0.500000
O O5 0.832664 0.333907 0.750305
O O6 0.774187 0.441216 0.751000
O O7 0.226067 0.226067 0.254816
O O8 0.108147 0.226195 0.252620
O O9 0.167506 0.262783 0.000000
O O10 0.891619 0.891619 0.750338
O O11 0.000000 0.832818 0.741404
O O12 0.931933 0.832390 0.000000
O O13 0.558938 0.558938 0.749310
O O14 0.666968 0.500000 0.739685
O O15 0.598974 0.500000 0.000000
O O16 0.500000 0.267081 0.000000
#
# Coordination Sequence:
#
# PCOD9561904 Si02
#       6
#     8  16  16  16   8   8
#     4   8  16  32  50  67  91 122 153 188 235 289
#     4  10  20  33  50  72  97 125 160 203 244 281
#     4   9  18  32  48  67  95 130 164 199 243 295
#     4   8  14  25  42  66  96 128 162 202 247 294
#     4   8  15  29  49  73  97 119 149 188 223 261
#     4  10  19  32  52  75 100 130 159 188 231 287
#
# _framework density 18.235496999999999
#
# number of rings (size 3 to 8) (size 9 to 14) (size 15 to 20)
#    0.000    3.111    0.000    3.333    0.000    2.444 
#    0.000    3.333    0.000   13.333    0.000    3.111 
#    0.000    0.000    0.000    4.889    0.000    4.889 
#
# Total GULP energy -401282.142742 kJ/mol
# GULP energy per Si atom -5573.363094 kJ/mol
# Density = 1.819399 g / cm^3
# Si number density = 18.235497 Si / 1000 Ang^3
#
#
#
# Elastic Constant Matrix: (Units=GPa)
#
#
# Indices 1 2 3 4 5 6 
#
# 1 212.6851 120.9753 16.6284 0.0000 0.0000 0.0000
# 2 120.9753 212.6851 16.6284 0.0000 0.0000 0.0000
# 3 16.6284 16.6284 14.1686 0.0000 0.0000 0.0000
# 4 0.0000 0.0000 0.0000 6.5881 0.0000 0.0000
# 5 0.0000 0.0000 0.0000 0.0000 6.5881 0.0000
# 6 0.0000 0.0000 0.0000 0.0000 0.0000 7.1127
#
#
#
# Elastic Compliance Matrix: (Units=1/GPa)
#
#
# Indices 1 2 3 4 5 6 
#
# 1 0.007149 -0.003755 -0.003983 0.000000 0.000000 0.000000
# 2 -0.003755 0.007149 -0.003983 0.000000 0.000000 0.000000
# 3 -0.003983 -0.003983 0.079928 0.000000 0.000000 0.000000
# 4 0.000000 0.000000 0.000000 0.151788 0.000000 0.000000
# 5 0.000000 0.000000 0.000000 0.000000 0.151788 0.000000
# 6 0.000000 0.000000 0.000000 0.000000 0.000000 0.140594
#
#
# Mechanical properties :
#
#
# Convention : Reuss Voigt Hill
#
# Bulk Modulus (GPa) = 14.12769 83.11143 48.61956
# Shear Modulus (GPa) = 8.54066 23.07823 15.80945
#
# Velocity S-wave (km/s) = 2.16650 3.56134 2.94761
# Velocity P-wave (km/s) = 3.74466 7.91116 6.18906
#
# Compressibility (1/GPa) = 0.07078298
#
# Stress axis : x y z
#
# Youngs Moduli (GPa) = 139.87921 139.87921 12.51125
#
# Poissons Ratio (x) = 0.52524 0.04984
# Poissons Ratio (y) = 0.52524 0.04984
# Poissons Ratio (z) = 0.55718 0.55718
#
# Static dielectric constant tensor:
#      x y z
#    x 1.605030 0.000000 0.000000 
#    y 0.000000 1.605030 0.000000 
#    z 0.000000 0.000000 1.646420 
# 
# From -- ./inp_files/1196.got.cif
#   From: 2010.05.17/outbox.cif.g08.bks.cpg/sg123_1_cif.got.tgz:1196.got - 2010.05.20 11:43:04.
