data_PCOD9561861
_publ_section_title
;
Structure prediction by ZEFSAII (Michael W. Deem and Ramdas Pophale) SiO2 
 PCOD9561861
Probable space group: P 4/M M M
;
_chemical_formula_sum "Si O2"
_cell_formula_units_Z 112
_cell_length_a 18.518513
_cell_length_b 18.518513
_cell_length_c 19.345687
_cell_angle_alpha 90.000000
_cell_angle_beta 90.000000
_cell_angle_gamma 90.000000
_cell_volume 6634.319434
_symmetry_space_group_name_H-M "P 4/M M M"
_symmetry_group_IT_number 123
_symmetry_cell_setting 'tetragonal'
loop_
_space_group_symop_operation_xyz
x,y,z
-y,x,z
-x,-y,z
y,-x,z
x,-y,-z
-x,y,-z
y,x,-z
-y,-x,-z
-x,-y,-z
y,-x,-z
x,y,-z
-y,x,-z
-x,y,z
x,-y,z
-y,-x,z
y,x,z
loop_
_atom_site_type_symbol
_atom_site_label
_atom_site_fract_x
_atom_site_fract_y
_atom_site_fract_z
Si Si1 0.914811 0.798431 0.868883
Si Si2 0.153781 0.418088 0.784879
Si Si3 0.725829 0.086257 0.274748
Si Si4 0.362638 0.914688 0.078724
Si Si5 0.086618 0.287326 0.575619
Si Si6 0.803437 0.416323 0.422571
Si Si7 0.416762 0.297487 0.707457
O O1 0.862569 0.862569 0.891961
O O2 0.895288 0.776844 0.789612
O O3 0.904664 0.723536 0.910390
O O4 0.000000 0.817253 0.872339
O O5 0.132374 0.500000 0.764900
O O6 0.116754 0.353841 0.741634
O O7 0.131496 0.403389 0.863696
O O8 0.238490 0.411502 0.768455
O O9 0.750641 0.107105 0.351984
O O10 0.719850 0.000000 0.272549
O O11 0.376764 0.000000 0.091906
O O12 0.382565 0.898281 0.000000
O O13 0.105120 0.254717 0.500000
O O14 0.128450 0.363313 0.579449
O O15 0.000000 0.296934 0.576506
O O16 0.771756 0.409654 0.500000
O O17 0.824736 0.500000 0.412542
O O18 0.746716 0.398397 0.362700
O O19 0.500000 0.320893 0.701917
O O20 0.362517 0.362517 0.717071
#
# Coordination Sequence:
#
# PCOD9561861 Si02
#       7
#    16  16  16  16  16  16  16
#     4   9  18  32  50  71  95 125 161 201 242 283
#     4  10  19  31  48  74 100 125 159 194 229 272
#     4   9  17  29  44  66  97 131 162 193 234 280
#     4   9  19  35  52  73 104 138 165 187 220 270
#     4   9  16  26  41  63  95 133 167 196 227 271
#     4   9  17  30  46  66  94 125 159 201 245 285
#     4  10  21  36  52  70  92 121 159 206 258 305
#
# _framework density 16.881913000000001
#
# number of rings (size 3 to 8) (size 9 to 14) (size 15 to 20)
#    0.000    2.714    1.429    1.286    0.000    4.857 
#    0.000    3.571    0.000    0.429    0.000    4.000 
#    0.000    0.000    0.000    8.714    0.000    0.000 
#
# Total GULP energy -623579.562556 kJ/mol
# GULP energy per Si atom -5567.674666 kJ/mol
# Density = 1.684349 g / cm^3
# Si number density = 16.881913 Si / 1000 Ang^3
#
#
#
# Elastic Constant Matrix: (Units=GPa)
#
#
# Indices 1 2 3 4 5 6 
#
# 1 31.0316 26.0023 12.0449 0.0000 0.0000 0.0000
# 2 26.0023 31.0316 12.0449 0.0000 0.0000 0.0000
# 3 12.0449 12.0449 106.0438 0.0000 0.0000 0.0000
# 4 0.0000 0.0000 0.0000 9.4545 0.0000 0.0000
# 5 0.0000 0.0000 0.0000 0.0000 9.4545 0.0000
# 6 0.0000 0.0000 0.0000 0.0000 0.0000 57.6252
#
#
#
# Elastic Compliance Matrix: (Units=1/GPa)
#
#
# Indices 1 2 3 4 5 6 
#
# 1 0.108627 -0.090210 -0.002092 0.000000 0.000000 0.000000
# 2 -0.090210 0.108627 -0.002092 0.000000 0.000000 0.000000
# 3 -0.002092 -0.002092 0.009905 0.000000 0.000000 0.000000
# 4 0.000000 0.000000 0.000000 0.105769 0.000000 0.000000
# 5 0.000000 0.000000 0.000000 0.000000 0.105769 0.000000
# 6 0.000000 0.000000 0.000000 0.000000 0.000000 0.017354
#
#
# Mechanical properties :
#
#
# Convention : Reuss Voigt Hill
#
# Bulk Modulus (GPa) = 26.06083 29.81013 27.93548
# Shear Modulus (GPa) = 7.60308 23.17451 15.38879
#
# Velocity S-wave (km/s) = 2.12449 3.70907 3.02247
# Velocity P-wave (km/s) = 4.63558 6.00328 5.36320
#
# Compressibility (1/GPa) = 0.03837176
#
# Stress axis : x y z
#
# Youngs Moduli (GPa) = 9.20585 9.20585 100.95623
#
# Poissons Ratio (x) = 0.83046 0.21119
# Poissons Ratio (y) = 0.83046 0.21119
# Poissons Ratio (z) = 0.01926 0.01926
#
# Static dielectric constant tensor:
#      x y z
#    x 1.548810 0.000000 0.000000 
#    y 0.000000 1.548810 0.000000 
#    z 0.000000 0.000000 1.631270 
# 
# From -- ./inp_files/6641.got.cif
#   From: 2010.05.17/outbox.cif.g08.bks.cpg/sg123_4_cif.got.tgz:6641.got - 2010.05.20 11:43:04.
