data_PCOD9561907
_publ_section_title
;
Structure prediction by ZEFSAII (Michael W. Deem and Ramdas Pophale) SiO2 
 PCOD9561907
Probable space group: P 4/M M M
;
_chemical_formula_sum "Si O2"
_cell_formula_units_Z 80
_cell_length_a 12.551152
_cell_length_b 12.551152
_cell_length_c 31.861993
_cell_angle_alpha 90.000000
_cell_angle_beta 90.000000
_cell_angle_gamma 90.000000
_cell_volume 5019.264891
_symmetry_space_group_name_H-M "P 4/M M M"
_symmetry_group_IT_number 123
_symmetry_cell_setting 'tetragonal'
loop_
_space_group_symop_operation_xyz
x,y,z
-y,x,z
-x,-y,z
y,-x,z
x,-y,-z
-x,y,-z
y,x,-z
-y,-x,-z
-x,-y,-z
y,-x,-z
x,y,-z
-y,x,-z
-x,y,z
x,-y,z
-y,-x,z
y,x,z
loop_
_atom_site_type_symbol
_atom_site_label
_atom_site_fract_x
_atom_site_fract_y
_atom_site_fract_z
Si Si1 0.802720 0.626618 0.800634
Si Si2 0.870758 0.500000 0.047920
Si Si3 0.000000 0.629577 0.645994
Si Si4 0.000000 0.629198 0.258006
Si Si5 0.698682 0.125889 0.500000
Si Si6 0.873382 0.697252 0.106637
Si Si7 0.376234 0.200476 0.589992
O O1 0.783321 0.500000 0.796844
O O2 0.697305 0.697305 0.794733
O O3 0.894005 0.659578 0.767474
O O4 0.848442 0.651524 0.847001
O O5 0.840549 0.605977 0.073459
O O6 0.000000 0.500000 0.047209
O O7 0.832567 0.500000 0.000000
O O8 0.105228 0.661089 0.620435
O O9 0.000000 0.500000 0.646184
O O10 0.000000 0.666717 0.694005
O O11 0.000000 0.500000 0.258647
O O12 0.809500 0.190501 0.500000
O O13 0.637660 0.160543 0.457861
O O14 0.713683 0.000000 0.500000
O O15 0.802655 0.802655 0.100726
O O16 0.000000 0.716748 0.102871
O O17 0.500000 0.222658 0.598205
O O18 0.303102 0.303102 0.595845
#
# Coordination Sequence:
#
# PCOD9561907 Si02
#       7
#    16   8   8   8   8  16  16
#     4  10  19  32  52  77 103 134 170 212 258 307
#     4   9  18  32  52  75 101 135 173 210 247 295
#     4   9  18  33  52  74  98 132 176 213 250 302
#     4   9  18  32  53  75  98 132 170 212 258 306
#     4  10  19  32  52  78 104 137 176 215 262 308
#     4  10  19  32  52  76 104 136 172 213 257 302
#     4  10  20  33  52  77 106 138 173 214 258 307
#
# _framework density 15.938587999999999
#
# number of rings (size 3 to 8) (size 9 to 14) (size 15 to 20)
#    0.000    2.300    3.000    0.300    0.000    2.300 
#    0.000    0.000    0.000    2.700    0.000   10.500 
#    0.000    0.000    0.000    0.000    0.000    0.000 
#
# Total GULP energy -445945.456381 kJ/mol
# GULP energy per Si atom -5574.318205 kJ/mol
# Density = 1.590231 g / cm^3
# Si number density = 15.938588 Si / 1000 Ang^3
#
#
#
# Elastic Constant Matrix: (Units=GPa)
#
#
# Indices 1 2 3 4 5 6 
#
# 1 101.6014 69.5136 47.4757 0.0000 0.0000 0.0000
# 2 69.5136 101.5990 47.4770 0.0000 0.0000 0.0000
# 3 47.4757 47.4770 132.8451 0.0000 0.0000 0.0000
# 4 0.0000 0.0000 0.0000 5.4612 0.0000 0.0000
# 5 0.0000 0.0000 0.0000 0.0000 5.4622 0.0000
# 6 0.0000 0.0000 0.0000 0.0000 0.0000 9.7817
#
#
#
# Elastic Compliance Matrix: (Units=1/GPa)
#
#
# Indices 1 2 3 4 5 6 
#
# 1 0.019227 -0.011938 -0.002605 0.000000 0.000000 0.000000
# 2 -0.011938 0.019228 -0.002605 0.000000 0.000000 0.000000
# 3 -0.002605 -0.002605 0.009390 0.000000 0.000000 0.000000
# 4 0.000000 0.000000 0.000000 0.183110 0.000000 0.000000
# 5 0.000000 0.000000 0.000000 0.000000 0.183077 0.000000
# 6 0.000000 0.000000 0.000000 0.000000 0.000000 0.102232
#
#
# Mechanical properties :
#
#
# Convention : Reuss Voigt Hill
#
# Bulk Modulus (GPa) = 73.81015 73.88646 73.84831
# Shear Modulus (GPa) = 9.00776 15.57963 12.29369
#
# Velocity S-wave (km/s) = 2.37988 3.12986 2.78027
# Velocity P-wave (km/s) = 7.34584 7.71485 7.53261
#
# Compressibility (1/GPa) = 0.01354827
#
# Stress axis : x y z
#
# Youngs Moduli (GPa) = 52.00936 52.00736 106.50006
#
# Poissons Ratio (x) = 0.62086 0.27742
# Poissons Ratio (y) = 0.62089 0.27748
# Poissons Ratio (z) = 0.13548 0.13550
#
# Static dielectric constant tensor:
#      x y z
#    x 1.511860 0.000000 0.000000 
#    y 0.000000 1.511860 0.000000 
#    z 0.000000 0.000000 1.538780 
# 
# From -- ./inp_files/8425.got.cif
#   From: 2010.05.17/outbox.cif.g08.bks.cpg/sg123_5_cif.got.tgz:8425.got - 2010.05.20 11:43:04.
