data_PCOD9561833
_publ_section_title
;
Structure prediction by ZEFSAII (Michael W. Deem and Ramdas Pophale) SiO2 
 PCOD9561833
Probable space group: P 4/M M M
;
_chemical_formula_sum "Si O2"
_cell_formula_units_Z 80
_cell_length_a 23.709339
_cell_length_b 23.709339
_cell_length_c 7.481611
_cell_angle_alpha 90.000000
_cell_angle_beta 90.000000
_cell_angle_gamma 90.000000
_cell_volume 4205.658609
_symmetry_space_group_name_H-M "P 4/M M M"
_symmetry_group_IT_number 123
_symmetry_cell_setting 'tetragonal'
loop_
_space_group_symop_operation_xyz
x,y,z
-y,x,z
-x,-y,z
y,-x,z
x,-y,-z
-x,y,-z
y,x,-z
-y,-x,-z
-x,-y,-z
y,-x,-z
x,y,-z
-y,x,-z
-x,y,z
x,-y,z
-y,-x,z
y,x,z
loop_
_atom_site_type_symbol
_atom_site_label
_atom_site_fract_x
_atom_site_fract_y
_atom_site_fract_z
Si Si1 0.000000 0.089916 0.715947
Si Si2 0.781611 0.000000 0.793598
Si Si3 0.709974 0.898543 0.785627
Si Si4 0.772074 0.317944 0.709241
Si Si5 0.561217 0.812643 0.718802
Si Si6 0.938031 0.584921 0.289725
O O1 0.054352 0.054352 0.772292
O O2 0.000000 0.091771 0.500000
O O3 0.000000 0.152096 0.786145
O O4 0.757626 0.058571 0.718409
O O5 0.762265 0.000000 0.000000
O O6 0.710182 0.834232 0.719876
O O7 0.651822 0.928745 0.730336
O O8 0.711460 0.893833 0.000000
O O9 0.759128 0.325162 0.500000
O O10 0.723679 0.276322 0.784219
O O11 0.781571 0.381731 0.781981
O O12 0.564268 0.814168 0.500000
O O13 0.500000 0.788275 0.767322
O O14 0.562335 0.878217 0.780235
O O15 0.939535 0.570505 0.500000
O O16 0.000000 0.569581 0.215746
#
# Coordination Sequence:
#
# PCOD9561833 Si02
#       6
#     8   8  16  16  16  16
#     4   9  20  38  54  66  80  99 127 167 218 274
#     4  10  21  33  47  68  89 111 140 178 218 261
#     4  10  19  31  45  64  91 119 148 181 218 259
#     4   9  18  32  48  67  91 118 150 188 227 267
#     4   8  14  25  42  65  90 115 146 186 227 263
#     4   9  16  26  42  63  87 117 150 182 217 254
#
# _framework density 19.021989000000001
#
# number of rings (size 3 to 8) (size 9 to 14) (size 15 to 20)
#    0.000    2.900    1.000    2.100    0.000    3.600 
#    0.000    6.500    0.000    9.600    0.000    5.600 
#    0.000    0.400    0.000    5.600    0.000    0.000 
#
# Total GULP energy -445678.138549 kJ/mol
# GULP energy per Si atom -5570.976732 kJ/mol
# Density = 1.897869 g / cm^3
# Si number density = 19.021989 Si / 1000 Ang^3
#
#
#
# Elastic Constant Matrix: (Units=GPa)
#
#
# Indices 1 2 3 4 5 6 
#
# 1 136.3091 78.0843 -0.9287 0.0000 0.0000 0.0000
# 2 78.0843 136.3091 -0.9287 0.0000 0.0000 0.0000
# 3 -0.9287 -0.9287 54.6114 0.0000 0.0000 0.0000
# 4 0.0000 0.0000 0.0000 14.9450 0.0000 0.0000
# 5 0.0000 0.0000 0.0000 0.0000 14.9450 0.0000
# 6 0.0000 0.0000 0.0000 0.0000 0.0000 6.8916
#
#
#
# Elastic Compliance Matrix: (Units=1/GPa)
#
#
# Indices 1 2 3 4 5 6 
#
# 1 0.010920 -0.006255 0.000079 0.000000 0.000000 0.000000
# 2 -0.006255 0.010920 0.000079 0.000000 0.000000 0.000000
# 3 0.000079 0.000079 0.018314 0.000000 0.000000 0.000000
# 4 0.000000 0.000000 0.000000 0.066912 0.000000 0.000000
# 5 0.000000 0.000000 0.000000 0.000000 0.066912 0.000000
# 6 0.000000 0.000000 0.000000 0.000000 0.000000 0.145104
#
#
# Mechanical properties :
#
#
# Convention : Reuss Voigt Hill
#
# Bulk Modulus (GPa) = 35.76378 53.29813 44.53096
# Shear Modulus (GPa) = 14.68022 24.08985 19.38504
#
# Velocity S-wave (km/s) = 2.78105 3.56254 3.19578
# Velocity P-wave (km/s) = 5.39948 6.70838 6.08920
#
# Compressibility (1/GPa) = 0.02796125
#
# Stress axis : x y z
#
# Youngs Moduli (GPa) = 91.57590 91.57590 54.60337
#
# Poissons Ratio (x) = 0.57280 -0.00433
# Poissons Ratio (y) = 0.57280 -0.00433
# Poissons Ratio (z) = -0.00727 -0.00727
#
# Static dielectric constant tensor:
#      x y z
#    x 1.683780 0.000000 0.000000 
#    y 0.000000 1.683780 0.000000 
#    z 0.000000 0.000000 1.746050 
# 
# From -- ./inp_files/1480.got.cif
#   From: 2010.05.17/outbox.cif.g08.bks.cpg/sg123_1_cif.got.tgz:1480.got - 2010.05.20 11:43:04.
