data_PCOD9561996
_publ_section_title
;
Structure prediction by ZEFSAII (Michael W. Deem and Ramdas Pophale) SiO2 
 PCOD9561996
Probable space group: P 4/M M M
;
_chemical_formula_sum "Si O2"
_cell_formula_units_Z 88
_cell_length_a 18.013067
_cell_length_b 18.013067
_cell_length_c 16.210343
_cell_angle_alpha 90.000000
_cell_angle_beta 90.000000
_cell_angle_gamma 90.000000
_cell_volume 5259.779440
_symmetry_space_group_name_H-M "P 4/M M M"
_symmetry_group_IT_number 123
_symmetry_cell_setting 'tetragonal'
loop_
_space_group_symop_operation_xyz
x,y,z
-y,x,z
-x,-y,z
y,-x,z
x,-y,-z
-x,y,-z
y,x,-z
-y,-x,-z
-x,-y,-z
y,-x,-z
x,y,-z
-y,x,-z
-x,y,z
x,-y,z
-y,-x,z
y,x,z
loop_
_atom_site_type_symbol
_atom_site_label
_atom_site_fract_x
_atom_site_fract_y
_atom_site_fract_z
Si Si1 0.911369 0.585398 0.838762
Si Si2 0.735464 0.854953 0.905970
Si Si3 0.795918 0.914077 0.260320
Si Si4 0.583732 0.912157 0.500000
Si Si5 0.354250 0.147076 0.330559
Si Si6 0.587586 0.293601 0.402881
O O1 0.897301 0.500000 0.862673
O O2 0.864947 0.648098 0.887314
O O3 0.889174 0.597817 0.743127
O O4 0.000000 0.599703 0.848352
O O5 0.773174 0.773174 0.895812
O O6 0.775552 0.904388 0.836505
O O7 0.749751 0.878014 0.000000
O O8 0.873226 0.873226 0.275987
O O9 0.730333 0.869924 0.306724
O O10 0.794626 0.000000 0.283009
O O11 0.500000 0.879822 0.500000
O O12 0.624870 0.889037 0.417262
O O13 0.577833 0.000000 0.500000
O O14 0.374128 0.232908 0.344416
O O15 0.598883 0.272815 0.500000
O O16 0.500000 0.296089 0.387870
O O17 0.628029 0.371972 0.391381
#
# Coordination Sequence:
#
# PCOD9561996 Si02
#       6
#    16  16  16   8  16  16
#     4  10  20  32  48  73 105 136 164 200 248 300
#     4   9  18  33  52  73  99 132 168 204 244 296
#     4  10  21  36  54  75  99 129 165 206 253 303
#     4  11  20  28  45  72 100 130 161 199 246 290
#     4  11  19  33  50  71 100 130 166 205 244 294
#     4  10  20  33  49  70  96 127 163 202 243 286
#
# _framework density 16.730739
#
# number of rings (size 3 to 8) (size 9 to 14) (size 15 to 20)
#    0.000    1.909    0.909    5.455    0.000    4.364 
#    0.000    1.818    0.000    0.000    0.000    2.545 
#    0.000    2.545    0.000    2.000    0.000    0.000 
#
# Total GULP energy -490676.678128 kJ/mol
# GULP energy per Si atom -5575.871342 kJ/mol
# Density = 1.669266 g / cm^3
# Si number density = 16.730739 Si / 1000 Ang^3
#
#
#
# Elastic Constant Matrix: (Units=GPa)
#
#
# Indices 1 2 3 4 5 6 
#
# 1 85.7505 77.6838 21.8044 0.0000 0.0000 0.0000
# 2 77.6838 85.7505 21.8044 0.0000 0.0000 0.0000
# 3 21.8044 21.8044 70.6201 0.0000 0.0000 0.0000
# 4 0.0000 0.0000 0.0000 14.7482 0.0000 0.0000
# 5 0.0000 0.0000 0.0000 0.0000 14.7482 0.0000
# 6 0.0000 0.0000 0.0000 0.0000 0.0000 30.0418
#
#
#
# Elastic Compliance Matrix: (Units=1/GPa)
#
#
# Indices 1 2 3 4 5 6 
#
# 1 0.065317 -0.058649 -0.002059 0.000000 0.000000 0.000000
# 2 -0.058649 0.065317 -0.002059 0.000000 0.000000 0.000000
# 3 -0.002059 -0.002059 0.015432 0.000000 0.000000 0.000000
# 4 0.000000 0.000000 0.000000 0.067805 0.000000 0.000000
# 5 0.000000 0.000000 0.000000 0.000000 0.067805 0.000000
# 6 0.000000 0.000000 0.000000 0.000000 0.000000 0.033287
#
#
# Mechanical properties :
#
#
# Convention : Reuss Voigt Hill
#
# Bulk Modulus (GPa) = 48.70337 53.85625 51.27981
# Shear Modulus (GPa) = 11.17714 19.96286 15.57000
#
# Velocity S-wave (km/s) = 2.58749 3.45800 3.05392
# Velocity P-wave (km/s) = 6.17253 6.94288 6.56901
#
# Compressibility (1/GPa) = 0.02053246
#
# Stress axis : x y z
#
# Youngs Moduli (GPa) = 15.30985 15.30985 64.80210
#
# Poissons Ratio (x) = 0.89791 0.13341
# Poissons Ratio (y) = 0.89791 0.13341
# Poissons Ratio (z) = 0.03152 0.03152
#
# Static dielectric constant tensor:
#      x y z
#    x 1.574470 0.000000 0.000000 
#    y 0.000000 1.574470 0.000000 
#    z 0.000000 0.000000 1.559410 
# 
# From -- ./inp_files/4076.got.cif
#   From: 2010.05.17/outbox.cif.g08.bks.cpg/sg123_3_cif.got.tgz:4076.got - 2010.05.20 11:43:04.
