data_PCOD9561533
_publ_section_title
;
Structure prediction by ZEFSAII (Michael W. Deem and Ramdas Pophale) SiO2 
 PCOD9561533
Probable space group: I -4 2 D
;
_chemical_formula_sum "Si O2"
_cell_formula_units_Z 56
_cell_length_a 18.440296
_cell_length_b 18.440296
_cell_length_c 7.657647
_cell_angle_alpha 90.000000
_cell_angle_beta 90.000000
_cell_angle_gamma 90.000000
_cell_volume 2603.940872
_symmetry_space_group_name_H-M "I -4 2 D"
_symmetry_group_IT_number 122
_symmetry_cell_setting 'tetragonal'
loop_
_space_group_symop_operation_xyz
x,y,z
y,-x,-z
-x,-y,z
-y,x,-z
x,1/2-y,1/4-z
-x,1/2+y,1/4-z
-y,1/2-x,1/4+z
y,1/2+x,1/4+z
1/2+x,1/2+y,1/2+z
1/2+y,1/2-x,1/2-z
1/2-x,1/2-y,1/2+z
1/2-y,1/2+x,1/2-z
1/2+x,-y,3/4-z
1/2-x,y,3/4-z
1/2-y,-x,3/4+z
1/2+y,x,3/4+z
loop_
_atom_site_type_symbol
_atom_site_label
_atom_site_fract_x
_atom_site_fract_y
_atom_site_fract_z
Si Si1 0.750000 0.395787 0.875000
Si Si2 0.321061 0.294731 0.799336
Si Si3 0.044888 0.391267 0.055174
Si Si4 0.894662 0.449381 0.025364
O O1 0.743722 0.343868 0.708013
O O2 0.675425 0.440123 0.846980
O O3 0.305863 0.250000 0.625000
O O4 0.250000 0.335397 0.875000
O O5 0.394624 0.338961 0.770762
O O6 0.071788 0.471094 0.002127
O O7 0.050131 0.379398 0.265186
O O8 0.959988 0.390792 0.000442
#
# Coordination Sequence:
#
# PCOD9561533 Si02
#       4
#     8  16  16  16
#     4  12  24  40  68 104 140 180 234 286 358 414
#     4  12  25  44  64  97 141 181 231 291 348 412
#     4   9  20  43  69  97 143 184 233 294 347 417
#     4   9  20  41  70 103 138 185 234 288 353 420
#
# _framework density 21.505866000000001
#
# number of rings (size 3 to 8) (size 9 to 14) (size 15 to 20)
#    0.000    1.714    4.286    1.714    2.000    2.286 
#    0.000    4.286    0.000    0.000    0.000    0.000 
#    0.000    0.000    0.000    0.000    0.000    0.000 
#
# Total GULP energy -155874.417687 kJ/mol
# GULP energy per Si atom -5566.943489 kJ/mol
# Density = 2.145692 g / cm^3
# Si number density = 21.505866 Si / 1000 Ang^3
#
#
#
# Elastic Constant Matrix: (Units=GPa)
#
#
# Indices 1 2 3 4 5 6 
#
# 1 87.9477 40.7072 44.2637 0.0000 0.0000 0.0000
# 2 40.7072 87.9477 44.2637 0.0000 0.0000 0.0000
# 3 44.2637 44.2637 102.9714 0.0000 0.0000 0.0000
# 4 0.0000 0.0000 0.0000 21.5828 0.0000 0.0000
# 5 0.0000 0.0000 0.0000 0.0000 21.5828 0.0000
# 6 0.0000 0.0000 0.0000 0.0000 0.0000 18.8830
#
#
#
# Elastic Compliance Matrix: (Units=1/GPa)
#
#
# Indices 1 2 3 4 5 6 
#
# 1 0.016103 -0.005065 -0.004745 0.000000 0.000000 0.000000
# 2 -0.005065 0.016103 -0.004745 0.000000 0.000000 0.000000
# 3 -0.004745 -0.004745 0.013791 0.000000 0.000000 0.000000
# 4 0.000000 0.000000 0.000000 0.046333 0.000000 0.000000
# 5 0.000000 0.000000 0.000000 0.000000 0.046333 0.000000
# 6 0.000000 0.000000 0.000000 0.000000 0.000000 0.052958
#
#
# Mechanical properties :
#
#
# Convention : Reuss Voigt Hill
#
# Bulk Modulus (GPa) = 59.21702 59.70397 59.46050
# Shear Modulus (GPa) = 22.08884 22.38521 22.23702
#
# Velocity S-wave (km/s) = 3.20833 3.22978 3.21907
# Velocity P-wave (km/s) = 6.42803 6.45992 6.44400
#
# Compressibility (1/GPa) = 0.01688704
#
# Stress axis : x y z
#
# Youngs Moduli (GPa) = 62.10061 62.10061 72.51363
#
# Poissons Ratio (x) = 0.31456 0.34405
# Poissons Ratio (y) = 0.31456 0.34405
# Poissons Ratio (z) = 0.29464 0.29464
#
# Static dielectric constant tensor:
#      x y z
#    x 1.851100 0.000000 0.000000 
#    y 0.000000 1.851100 0.000000 
#    z 0.000000 0.000000 1.851150 
# 
# From -- ./inp_files/2276.got.cif
#   From: 2010.05.17/outbox.cif.g08.bks.cpg/sg122_2_cif.got.tgz:2276.got - 2010.05.20 11:37:33.
