data_PCOD9561044
_publ_section_title
;
Structure prediction by ZEFSAII (Michael W. Deem and Ramdas Pophale) SiO2 
 PCOD9561044
Probable space group: I -4 2 D
;
_chemical_formula_sum "Si O2"
_cell_formula_units_Z 48
_cell_length_a 18.399238
_cell_length_b 18.399238
_cell_length_c 5.463646
_cell_angle_alpha 90.000000
_cell_angle_beta 90.000000
_cell_angle_gamma 90.000000
_cell_volume 1849.618784
_symmetry_space_group_name_H-M "I -4 2 D"
_symmetry_group_IT_number 122
_symmetry_cell_setting 'tetragonal'
loop_
_space_group_symop_operation_xyz
x,y,z
y,-x,-z
-x,-y,z
-y,x,-z
x,1/2-y,1/4-z
-x,1/2+y,1/4-z
-y,1/2-x,1/4+z
y,1/2+x,1/4+z
1/2+x,1/2+y,1/2+z
1/2+y,1/2-x,1/2-z
1/2-x,1/2-y,1/2+z
1/2-y,1/2+x,1/2-z
1/2+x,-y,3/4-z
1/2-x,y,3/4-z
1/2-y,-x,3/4+z
1/2+y,x,3/4+z
loop_
_atom_site_type_symbol
_atom_site_label
_atom_site_fract_x
_atom_site_fract_y
_atom_site_fract_z
Si Si1 0.790034 0.974639 0.622473
Si Si2 0.268551 0.636236 0.621143
Si Si3 0.924370 0.570824 0.366792
O O1 0.750000 0.947040 0.375000
O O2 0.875840 0.960560 0.660673
O O3 0.778730 0.061549 0.620187
O O4 0.750000 0.948996 0.875000
O O5 0.250000 0.676470 0.375000
O O6 0.350897 0.610809 0.592346
O O7 0.250000 0.672422 0.875000
O O8 0.915799 0.511237 0.147891
#
# Coordination Sequence:
#
# PCOD9561044 Si02
#       3
#    16  16  16
#     4  10  21  43  64  98 157 204 236 322 430 483
#     4  10  21  43  64  98 154 207 240 330 436 484
#     4  11  22  42  76 118 147 201 288 351 396 500
#
# _framework density 25.951291999999999
#
# number of rings (size 3 to 8) (size 9 to 14) (size 15 to 20)
#    0.000    1.667    6.667    0.000    0.000    2.667 
#    0.000    0.000    0.000    4.000    0.000    0.000 
#    0.000    0.000    0.000    0.000    0.000    0.000 
#
# Total GULP energy -133927.055696 kJ/mol
# GULP energy per Si atom -5580.293987 kJ/mol
# Density = 2.589223 g / cm^3
# Si number density = 25.951292 Si / 1000 Ang^3
#
#
#
# Elastic Constant Matrix: (Units=GPa)
#
#
# Indices 1 2 3 4 5 6 
#
# 1 141.9462 77.4561 63.0609 0.0000 0.0000 0.0000
# 2 77.4561 141.9462 63.0609 0.0000 0.0000 0.0000
# 3 63.0609 63.0609 271.0247 0.0000 0.0000 0.0000
# 4 0.0000 0.0000 0.0000 48.4476 0.0000 0.0000
# 5 0.0000 0.0000 0.0000 0.0000 48.4476 0.0000
# 6 0.0000 0.0000 0.0000 0.0000 0.0000 -66.9387
#
#
#
# Elastic Compliance Matrix: (Units=1/GPa)
#
#
# Indices 1 2 3 4 5 6 
#
# 1 0.010384 -0.005122 -0.001224 0.000000 0.000000 0.000000
# 2 -0.005122 0.010384 -0.001224 0.000000 0.000000 0.000000
# 3 -0.001224 -0.001224 0.004259 0.000000 0.000000 0.000000
# 4 0.000000 0.000000 0.000000 0.020641 0.000000 0.000000
# 5 0.000000 0.000000 0.000000 0.000000 0.020641 0.000000
# 6 0.000000 0.000000 0.000000 0.000000 0.000000 -0.014939
#
#
# Mechanical properties :
#
#
# Convention : Reuss Voigt Hill
#
# Bulk Modulus (GPa) = 101.15726 106.89701 104.02713
# Shear Modulus (GPa) = 71.62628 29.41389 50.52009
#
# Velocity S-wave (km/s) = 5.25930 3.37029 4.41696
# Velocity P-wave (km/s) = 8.71462 7.51172 8.13543
#
# Compressibility (1/GPa) = 0.00988560
#
# Stress axis : x y z
#
# Youngs Moduli (GPa) = 96.30279 96.30279 234.77459
#
# Poissons Ratio (x) = 0.49329 0.28742
# Poissons Ratio (y) = 0.49329 0.28742
# Poissons Ratio (z) = 0.11790 0.11790
#
# Static dielectric constant tensor:
#      x y z
#    x 2.010100 0.000000 0.000000 
#    y 0.000000 2.010100 0.000000 
#    z 0.000000 0.000000 2.152140 
# 
# From -- ./inp_files/715.got.cif
#   From: 2010.05.17/outbox.cif.g08.bks.cpg/sg122_1_cif.got.tgz:715.got - 2010.05.20 11:37:33.
