data_PCOD9561430
_publ_section_title
;
Structure prediction by ZEFSAII (Michael W. Deem and Ramdas Pophale) SiO2 
 PCOD9561430
Probable space group: I -4 2 D
;
_chemical_formula_sum "Si O2"
_cell_formula_units_Z 72
_cell_length_a 18.946605
_cell_length_b 18.946605
_cell_length_c 9.321548
_cell_angle_alpha 90.000000
_cell_angle_beta 90.000000
_cell_angle_gamma 90.000000
_cell_volume 3346.191890
_symmetry_space_group_name_H-M "I -4 2 D"
_symmetry_group_IT_number 122
_symmetry_cell_setting 'tetragonal'
loop_
_space_group_symop_operation_xyz
x,y,z
y,-x,-z
-x,-y,z
-y,x,-z
x,1/2-y,1/4-z
-x,1/2+y,1/4-z
-y,1/2-x,1/4+z
y,1/2+x,1/4+z
1/2+x,1/2+y,1/2+z
1/2+y,1/2-x,1/2-z
1/2-x,1/2-y,1/2+z
1/2-y,1/2+x,1/2-z
1/2+x,-y,3/4-z
1/2-x,y,3/4-z
1/2-y,-x,3/4+z
1/2+y,x,3/4+z
loop_
_atom_site_type_symbol
_atom_site_label
_atom_site_fract_x
_atom_site_fract_y
_atom_site_fract_z
Si Si1 0.392262 0.212604 0.839250
Si Si2 0.716913 0.750000 0.625000
Si Si3 0.960246 0.396197 0.736819
Si Si4 0.250000 0.997065 0.875000
Si Si5 0.522037 0.750000 0.125000
Si Si6 0.119670 0.685821 0.960893
O O1 0.333139 0.261525 0.763837
O O2 0.446225 0.197047 0.710592
O O3 0.430279 0.242130 0.981281
O O4 0.350410 0.145077 0.893374
O O5 0.764592 0.682106 0.594035
O O6 0.924397 0.469067 0.679630
O O7 0.900088 0.371601 0.845481
O O8 0.979028 0.324767 0.645918
O O9 0.222836 0.047065 0.750045
#
# Coordination Sequence:
#
# PCOD9561430 Si02
#       6
#    16   8  16   8   8  16
#     4  11  24  44  69 107 142 191 238 301 374 445
#     4  11  25  42  78 106 146 182 244 308 373 443
#     4  11  26  46  70 103 145 191 246 302 363 444
#     4  11  24  46  68 102 145 194 232 300 369 446
#     4  12  23  44  72 102 145 188 246 308 366 441
#     4  12  23  47  71 106 146 186 247 306 366 448
#
# _framework density 21.516995999999999
#
# number of rings (size 3 to 8) (size 9 to 14) (size 15 to 20)
#    0.000    0.667    6.667    0.667    0.000    1.778 
#    4.000    0.000    0.000    0.000    0.000    0.000 
#    0.000    0.000    0.000    0.000    0.000    0.000 
#
# Total GULP energy -200551.124009 kJ/mol
# GULP energy per Si atom -5570.864556 kJ/mol
# Density = 2.146802 g / cm^3
# Si number density = 21.516996 Si / 1000 Ang^3
#
#
#
# Elastic Constant Matrix: (Units=GPa)
#
#
# Indices 1 2 3 4 5 6 
#
# 1 106.0918 50.2944 41.6923 0.0000 0.0000 0.0000
# 2 50.2944 106.0918 41.6923 0.0000 0.0000 0.0000
# 3 41.6923 41.6923 86.5524 0.0000 0.0000 0.0000
# 4 0.0000 0.0000 0.0000 33.4031 0.0000 0.0000
# 5 0.0000 0.0000 0.0000 0.0000 33.4031 0.0000
# 6 0.0000 0.0000 0.0000 0.0000 0.0000 8.5941
#
#
#
# Elastic Compliance Matrix: (Units=1/GPa)
#
#
# Indices 1 2 3 4 5 6 
#
# 1 0.013263 -0.004659 -0.004145 0.000000 0.000000 0.000000
# 2 -0.004659 0.013263 -0.004145 0.000000 0.000000 0.000000
# 3 -0.004145 -0.004145 0.015547 0.000000 0.000000 0.000000
# 4 0.000000 0.000000 0.000000 0.029937 0.000000 0.000000
# 5 0.000000 0.000000 0.000000 0.000000 0.029937 0.000000
# 6 0.000000 0.000000 0.000000 0.000000 0.000000 0.116359
#
#
# Mechanical properties :
#
#
# Convention : Reuss Voigt Hill
#
# Bulk Modulus (GPa) = 61.81779 62.89932 62.35855
# Shear Modulus (GPa) = 20.03239 26.08383 23.05811
#
# Velocity S-wave (km/s) = 3.05454 3.48551 3.27712
# Velocity P-wave (km/s) = 6.42125 6.74494 6.58508
#
# Compressibility (1/GPa) = 0.01617657
#
# Stress axis : x y z
#
# Youngs Moduli (GPa) = 75.39664 75.39664 64.32219
#
# Poissons Ratio (x) = 0.35126 0.26660
# Poissons Ratio (y) = 0.35126 0.26660
# Poissons Ratio (z) = 0.31250 0.31250
#
# Static dielectric constant tensor:
#      x y z
#    x 1.824660 0.000000 0.000000 
#    y 0.000000 1.824660 0.000000 
#    z 0.000000 0.000000 1.809440 
# 
# From -- ./inp_files/2714.got.cif
#   From: 2010.05.17/outbox.cif.g08.bks.cpg/sg122_2_cif.got.tgz:2714.got - 2010.05.20 11:37:33.
