data_PCOD9561137
_publ_section_title
;
Structure prediction by ZEFSAII (Michael W. Deem and Ramdas Pophale) SiO2 
 PCOD9561137
Probable space group: I -4 2 D
;
_chemical_formula_sum "Si O2"
_cell_formula_units_Z 52
_cell_length_a 16.497671
_cell_length_b 16.497671
_cell_length_c 7.515200
_cell_angle_alpha 90.000000
_cell_angle_beta 90.000000
_cell_angle_gamma 90.000000
_cell_volume 2045.435645
_symmetry_space_group_name_H-M "I -4 2 D"
_symmetry_group_IT_number 122
_symmetry_cell_setting 'tetragonal'
loop_
_space_group_symop_operation_xyz
x,y,z
y,-x,-z
-x,-y,z
-y,x,-z
x,1/2-y,1/4-z
-x,1/2+y,1/4-z
-y,1/2-x,1/4+z
y,1/2+x,1/4+z
1/2+x,1/2+y,1/2+z
1/2+y,1/2-x,1/2-z
1/2-x,1/2-y,1/2+z
1/2-y,1/2+x,1/2-z
1/2+x,-y,3/4-z
1/2-x,y,3/4-z
1/2-y,-x,3/4+z
1/2+y,x,3/4+z
loop_
_atom_site_type_symbol
_atom_site_label
_atom_site_fract_x
_atom_site_fract_y
_atom_site_fract_z
Si Si1 0.886195 0.213181 0.937648
Si Si2 0.000000 0.500000 0.750000
Si Si3 0.307051 0.925715 0.647834
Si Si4 0.134445 0.881600 0.479794
O O1 0.875099 0.284961 0.795622
O O2 0.980782 0.194396 0.947878
O O3 0.856840 0.250000 0.125000
O O4 0.837176 0.129635 0.939190
O O5 0.062715 0.568628 0.674708
O O6 0.219433 0.901283 0.570470
O O7 0.364853 0.912354 0.475827
#
# Coordination Sequence:
#
# PCOD9561137 Si02
#       4
#    16   4  16  16
#     4  10  22  43  64  98 136 175 229 280 346 407
#     4  12  20  40  76  94 136 168 240 280 330 420
#     4  10  22  43  64  98 138 175 229 279 351 410
#     4  10  22  42  67 103 131 178 227 285 344 416
#
# _framework density 25.422456
#
# number of rings (size 3 to 8) (size 9 to 14) (size 15 to 20)
#    0.000    1.846    3.077    0.000    0.000    5.538 
#   16.615    3.077    0.000    0.000    0.000    0.000 
#    0.000    0.000    0.000    0.000    0.000    0.000 
#
# Total GULP energy -145281.734349 kJ/mol
# GULP energy per Si atom -5587.759013 kJ/mol
# Density = 2.536459 g / cm^3
# Si number density = 25.422456 Si / 1000 Ang^3
#
#
#
# Elastic Constant Matrix: (Units=GPa)
#
#
# Indices 1 2 3 4 5 6 
#
# 1 143.1282 104.1910 15.6568 0.0000 0.0000 0.0000
# 2 104.1910 143.1282 15.6568 0.0000 0.0000 0.0000
# 3 15.6568 15.6568 69.5273 0.0000 0.0000 0.0000
# 4 0.0000 0.0000 0.0000 18.1857 0.0000 0.0000
# 5 0.0000 0.0000 0.0000 0.0000 18.1857 0.0000
# 6 0.0000 0.0000 0.0000 0.0000 0.0000 36.1725
#
#
#
# Elastic Compliance Matrix: (Units=1/GPa)
#
#
# Indices 1 2 3 4 5 6 
#
# 1 0.014922 -0.010760 -0.000937 0.000000 0.000000 0.000000
# 2 -0.010760 0.014922 -0.000937 0.000000 0.000000 0.000000
# 3 -0.000937 -0.000937 0.014805 0.000000 0.000000 0.000000
# 4 0.000000 0.000000 0.000000 0.054988 0.000000 0.000000
# 5 0.000000 0.000000 0.000000 0.000000 0.054988 0.000000
# 6 0.000000 0.000000 0.000000 0.000000 0.000000 0.027645
#
#
# Mechanical properties :
#
#
# Convention : Reuss Voigt Hill
#
# Bulk Modulus (GPa) = 51.59948 69.64364 60.62156
# Shear Modulus (GPa) = 23.36444 29.19407 26.27925
#
# Velocity S-wave (km/s) = 3.03487 3.39242 3.21861
# Velocity P-wave (km/s) = 5.71152 6.54207 6.14085
#
# Compressibility (1/GPa) = 0.01938004
#
# Stress axis : x y z
#
# Youngs Moduli (GPa) = 67.01425 67.01425 67.54493
#
# Poissons Ratio (x) = 0.72109 0.06331
# Poissons Ratio (y) = 0.72109 0.06331
# Poissons Ratio (z) = 0.06281 0.06281
#
# Static dielectric constant tensor:
#      x y z
#    x 2.006810 0.000000 0.000000 
#    y 0.000000 2.006810 0.000000 
#    z 0.000000 0.000000 2.057550 
# 
# From -- ./inp_files/2163.got.cif
#   From: 2010.05.17/outbox.cif.g08.bks.cpg/sg122_2_cif.got.tgz:2163.got - 2010.05.20 11:37:33.
