data_PCOD9561929
_publ_section_title
;
Structure prediction by ZEFSAII (Michael W. Deem and Ramdas Pophale) SiO2 
 PCOD9561929
Probable space group: P 4/M M M
;
_chemical_formula_sum "Si O2"
_cell_formula_units_Z 96
_cell_length_a 25.594810
_cell_length_b 25.594810
_cell_length_c 8.060521
_cell_angle_alpha 90.000000
_cell_angle_beta 90.000000
_cell_angle_gamma 90.000000
_cell_volume 5280.401354
_symmetry_space_group_name_H-M "P 4/M M M"
_symmetry_group_IT_number 123
_symmetry_cell_setting 'tetragonal'
loop_
_space_group_symop_operation_xyz
x,y,z
-y,x,z
-x,-y,z
y,-x,z
x,-y,-z
-x,y,-z
y,x,-z
-y,-x,-z
-x,-y,-z
y,-x,-z
x,y,-z
-y,x,-z
-x,y,z
x,-y,z
-y,-x,z
y,x,z
loop_
_atom_site_type_symbol
_atom_site_label
_atom_site_fract_x
_atom_site_fract_y
_atom_site_fract_z
Si Si1 0.559436 0.643851 0.700909
Si Si2 0.154243 0.154243 0.692588
Si Si3 0.941710 0.670843 0.691306
Si Si4 0.340865 0.174894 0.696573
Si Si5 0.757109 0.757109 0.694555
Si Si6 0.440417 0.762550 0.197211
Si Si7 0.943083 0.784794 0.810323
O O1 0.561162 0.645848 0.500000
O O2 0.500000 0.630071 0.749383
O O3 0.601390 0.601390 0.757560
O O4 0.570748 0.701701 0.766380
O O5 0.144312 0.144312 0.500000
O O6 0.198630 0.198630 0.703545
O O7 0.102801 0.175986 0.775887
O O8 0.942403 0.652663 0.500000
O O9 0.884734 0.656150 0.765334
O O10 0.939241 0.733781 0.697075
O O11 0.000000 0.657098 0.762464
O O12 0.328774 0.168975 0.500000
O O13 0.295271 0.214218 0.763848
O O14 0.396298 0.202469 0.719778
O O15 0.745197 0.745197 0.500000
O O16 0.500000 0.772777 0.255175
O O17 0.438623 0.771009 0.000000
O O18 0.000000 0.809032 0.785935
O O19 0.939830 0.765610 0.000000
#
# Coordination Sequence:
#
# PCOD9561929 Si02
#       7
#    16   8  16  16   8  16  16
#     4   9  18  33  53  76 101 131 167 207 253 304
#     4  11  19  33  53  72 102 137 173 212 253 304
#     4   9  17  31  52  77 104 135 169 204 247 302
#     4  10  19  33  53  77 107 137 168 209 254 301
#     4   9  18  31  47  77 110 134 160 202 253 298
#     4  10  22  38  53  72 100 134 175 218 255 300
#     4  10  20  32  47  71 103 137 172 210 255 306
#
# _framework density 18.180437000000001
#
# number of rings (size 3 to 8) (size 9 to 14) (size 15 to 20)
#    0.000    2.333    1.667    1.250    1.167    3.167 
#    0.000    0.833    0.000    0.750    0.000    7.583 
#    0.000    0.000    0.000    0.000    0.000    0.000 
#
# Total GULP energy -534734.570479 kJ/mol
# GULP energy per Si atom -5570.151776 kJ/mol
# Density = 1.813906 g / cm^3
# Si number density = 18.180437 Si / 1000 Ang^3
#
#
#
# Elastic Constant Matrix: (Units=GPa)
#
#
# Indices 1 2 3 4 5 6 
#
# 1 97.3517 68.4933 2.8781 0.0000 0.0000 0.0000
# 2 68.4933 97.3517 2.8781 0.0000 0.0000 0.0000
# 3 2.8781 2.8781 18.6146 0.0000 0.0000 0.0000
# 4 0.0000 0.0000 0.0000 36.5237 0.0000 0.0000
# 5 0.0000 0.0000 0.0000 0.0000 36.5237 0.0000
# 6 0.0000 0.0000 0.0000 0.0000 0.0000 25.1875
#
#
#
# Elastic Compliance Matrix: (Units=1/GPa)
#
#
# Indices 1 2 3 4 5 6 
#
# 1 0.020357 -0.014295 -0.000937 0.000000 0.000000 0.000000
# 2 -0.014295 0.020357 -0.000937 0.000000 0.000000 0.000000
# 3 -0.000937 -0.000937 0.054011 0.000000 0.000000 0.000000
# 4 0.000000 0.000000 0.000000 0.027379 0.000000 0.000000
# 5 0.000000 0.000000 0.000000 0.000000 0.027379 0.000000
# 6 0.000000 0.000000 0.000000 0.000000 0.000000 0.039702
#
#
# Mechanical properties :
#
#
# Convention : Reuss Voigt Hill
#
# Bulk Modulus (GPa) = 16.02915 40.20188 28.11551
# Shear Modulus (GPa) = 20.63381 28.91824 24.77602
#
# Velocity S-wave (km/s) = 3.37255 3.99259 3.69560
# Velocity P-wave (km/s) = 4.89911 6.58901 5.80588
#
# Compressibility (1/GPa) = 0.06238634
#
# Stress axis : x y z
#
# Youngs Moduli (GPa) = 49.12287 49.12287 18.51473
#
# Poissons Ratio (x) = 0.70220 0.01735
# Poissons Ratio (y) = 0.70220 0.01735
# Poissons Ratio (z) = 0.04604 0.04604
#
# Static dielectric constant tensor:
#      x y z
#    x 1.621900 0.000000 0.000000 
#    y 0.000000 1.621900 0.000000 
#    z 0.000000 0.000000 1.661540 
# 
# From -- ./inp_files/1698.got.cif
#   From: 2010.05.17/outbox.cif.g08.bks.cpg/sg123_1_cif.got.tgz:1698.got - 2010.05.20 11:43:04.
