data_PCOD9561790
_publ_section_title
;
Structure prediction by ZEFSAII (Michael W. Deem and Ramdas Pophale) SiO2 
 PCOD9561790
Probable space group: P 4/M M M
;
_chemical_formula_sum "Si O2"
_cell_formula_units_Z 56
_cell_length_a 13.849151
_cell_length_b 13.849151
_cell_length_c 18.234908
_cell_angle_alpha 90.000000
_cell_angle_beta 90.000000
_cell_angle_gamma 90.000000
_cell_volume 3497.436817
_symmetry_space_group_name_H-M "P 4/M M M"
_symmetry_group_IT_number 123
_symmetry_cell_setting 'tetragonal'
loop_
_space_group_symop_operation_xyz
x,y,z
-y,x,z
-x,-y,z
y,-x,z
x,-y,-z
-x,y,-z
y,x,-z
-y,-x,-z
-x,-y,-z
y,-x,-z
x,y,-z
-y,x,-z
-x,y,z
x,-y,z
-y,-x,z
y,x,z
loop_
_atom_site_type_symbol
_atom_site_label
_atom_site_fract_x
_atom_site_fract_y
_atom_site_fract_z
Si Si1 0.614828 0.226487 0.706849
Si Si2 0.889693 0.382950 0.146533
Si Si3 0.616163 0.773346 0.000000
Si Si4 0.727809 0.113053 0.413933
O O1 0.500000 0.240778 0.706919
O O2 0.674035 0.325966 0.703971
O O3 0.643882 0.169394 0.780888
O O4 0.648722 0.161755 0.638264
O O5 0.894039 0.500000 0.146493
O O6 0.000000 0.347294 0.147822
O O7 0.833802 0.356241 0.072431
O O8 0.500000 0.760012 0.000000
O O9 0.672976 0.672976 0.000000
O O10 0.702206 0.122591 0.500000
O O11 0.826275 0.173726 0.402432
O O12 0.739265 0.000000 0.397528
#
# Coordination Sequence:
#
# PCOD9561790 Si02
#       4
#    16  16   8  16
#     4  10  20  33  49  70  97 128 162 199 238 284
#     4   9  17  30  48  68  90 118 153 194 239 282
#     4  10  19  30  45  67  96 128 161 195 232 279
#     4   9  18  32  50  73  99 126 158 197 242 291
#
# _framework density 16.011724999999998
#
# number of rings (size 3 to 8) (size 9 to 14) (size 15 to 20)
#    0.000    2.571    0.000    2.143    0.000    4.714 
#    0.000    2.857    0.000    5.143    0.000    4.000 
#    0.000   21.714    0.000    0.000    0.000    0.000 
#
# Total GULP energy -312108.246686 kJ/mol
# GULP energy per Si atom -5573.361548 kJ/mol
# Density = 1.597528 g / cm^3
# Si number density = 16.011725 Si / 1000 Ang^3
#
#
#
# Elastic Constant Matrix: (Units=GPa)
#
#
# Indices 1 2 3 4 5 6 
#
# 1 92.4777 61.2454 58.3944 0.0000 0.0000 0.0000
# 2 61.2454 92.4777 58.3944 0.0000 0.0000 0.0000
# 3 58.3944 58.3944 99.7321 0.0000 0.0000 0.0000
# 4 0.0000 0.0000 0.0000 21.6845 0.0000 0.0000
# 5 0.0000 0.0000 0.0000 0.0000 21.6845 0.0000
# 6 0.0000 0.0000 0.0000 0.0000 0.0000 6.3314
#
#
#
# Elastic Compliance Matrix: (Units=1/GPa)
#
#
# Indices 1 2 3 4 5 6 
#
# 1 0.021868 -0.010150 -0.006861 0.000000 0.000000 0.000000
# 2 -0.010150 0.021868 -0.006861 0.000000 0.000000 0.000000
# 3 -0.006861 -0.006861 0.018061 0.000000 0.000000 0.000000
# 4 0.000000 0.000000 0.000000 0.046116 0.000000 0.000000
# 5 0.000000 0.000000 0.000000 0.000000 0.046116 0.000000
# 6 0.000000 0.000000 0.000000 0.000000 0.000000 0.157943
#
#
# Mechanical properties :
#
#
# Convention : Reuss Voigt Hill
#
# Bulk Modulus (GPa) = 71.15907 71.19509 71.17708
# Shear Modulus (GPa) = 13.72120 17.05032 15.38576
#
# Velocity S-wave (km/s) = 2.93054 3.26677 3.10321
# Velocity P-wave (km/s) = 7.48259 7.66746 7.57559
#
# Compressibility (1/GPa) = 0.01405302
#
# Stress axis : x y z
#
# Youngs Moduli (GPa) = 45.72918 45.72918 55.36794
#
# Poissons Ratio (x) = 0.46417 0.37987
# Poissons Ratio (y) = 0.46417 0.37987
# Poissons Ratio (z) = 0.31374 0.31374
#
# Static dielectric constant tensor:
#      x y z
#    x 1.517160 0.000000 0.000000 
#    y 0.000000 1.517160 0.000000 
#    z 0.000000 0.000000 1.539890 
# 
# From -- ./inp_files/3689.got.cif
#   From: 2010.05.17/outbox.cif.g08.bks.cpg/sg123_2_cif.got.tgz:3689.got - 2010.05.20 11:43:04.
