data_PCOD9561742
_publ_section_title
;
Structure prediction by ZEFSAII (Michael W. Deem and Ramdas Pophale) SiO2 
 PCOD9561742
Probable space group: P 4/M M M
;
_chemical_formula_sum "Si O2"
_cell_formula_units_Z 80
_cell_length_a 24.930236
_cell_length_b 24.930236
_cell_length_c 9.234321
_cell_angle_alpha 90.000000
_cell_angle_beta 90.000000
_cell_angle_gamma 90.000000
_cell_volume 5739.284410
_symmetry_space_group_name_H-M "P 4/M M M"
_symmetry_group_IT_number 123
_symmetry_cell_setting 'tetragonal'
loop_
_space_group_symop_operation_xyz
x,y,z
-y,x,z
-x,-y,z
y,-x,z
x,-y,-z
-x,y,-z
y,x,-z
-y,-x,-z
-x,-y,-z
y,-x,-z
x,y,-z
-y,x,-z
-x,y,z
x,-y,z
-y,-x,z
y,x,z
loop_
_atom_site_type_symbol
_atom_site_label
_atom_site_fract_x
_atom_site_fract_y
_atom_site_fract_z
Si Si1 0.709687 0.000000 0.664706
Si Si2 0.121192 0.562155 0.672585
Si Si3 0.651783 0.807941 0.168714
Si Si4 0.000000 0.581577 0.665505
Si Si5 0.179576 0.820425 0.333944
Si Si6 0.103813 0.253175 0.833595
Si Si7 0.728101 0.271900 0.668447
O O1 0.728148 0.947940 0.748891
O O2 0.729316 0.000000 0.500000
O O3 0.645505 0.000000 0.661715
O O4 0.120265 0.575997 0.500000
O O5 0.137296 0.500000 0.687190
O O6 0.162390 0.601954 0.752756
O O7 0.058808 0.566301 0.726827
O O8 0.698946 0.852552 0.169872
O O9 0.677599 0.756193 0.250295
O O10 0.639853 0.795614 0.000000
O O11 0.000000 0.560544 0.500000
O O12 0.167493 0.832508 0.500000
O O13 0.129936 0.796339 0.248721
O O14 0.225771 0.774230 0.332473
O O15 0.092063 0.241022 0.000000
O O16 0.715825 0.284176 0.500000
#
# Coordination Sequence:
#
# PCOD9561742 Si02
#       7
#     8  16  16   8   8  16   8
#     4  11  19  28  45  63  82 111 145 179 214 257
#     4  10  19  31  46  62  82 113 154 194 227 259
#     4  10  19  30  44  62  86 110 138 176 222 267
#     4   9  17  29  44  59  79 109 150 194 228 255
#     4   9  17  29  45  63  81 104 134 167 206 256
#     4  10  19  30  43  61  85 110 135 169 215 262
#     4   9  17  29  47  65  81 103 136 173 214 263
#
# _framework density 13.939019999999999
#
# number of rings (size 3 to 8) (size 9 to 14) (size 15 to 20)
#    0.000    2.200    2.000    2.400    0.000    5.600 
#    0.000    0.500    0.000    1.200    0.000    0.000 
#    0.000    0.400    0.000    4.000    0.000    2.900 
#
# Total GULP energy -445605.853444 kJ/mol
# GULP energy per Si atom -5570.073168 kJ/mol
# Density = 1.390729 g / cm^3
# Si number density = 13.939020 Si / 1000 Ang^3
#
#
#
# Elastic Constant Matrix: (Units=GPa)
#
#
# Indices 1 2 3 4 5 6 
#
# 1 64.3355 43.4055 47.7328 0.0000 0.0000 0.0000
# 2 43.4055 64.3353 47.7327 0.0000 0.0000 0.0000
# 3 47.7328 47.7327 119.4356 0.0000 0.0000 0.0000
# 4 0.0000 0.0000 0.0000 17.6612 0.0000 0.0000
# 5 0.0000 0.0000 0.0000 0.0000 17.6613 0.0000
# 6 0.0000 0.0000 0.0000 0.0000 0.0000-1584.3766
#
#
#
# Elastic Compliance Matrix: (Units=1/GPa)
#
#
# Indices 1 2 3 4 5 6 
#
# 1 0.031074 -0.016704 -0.005743 0.000000 0.000000 0.000000
# 2 -0.016704 0.031074 -0.005743 0.000000 0.000000 0.000000
# 3 -0.005743 -0.005743 0.012963 0.000000 0.000000 0.000000
# 4 0.000000 0.000000 0.000000 0.056621 0.000000 0.000000
# 5 0.000000 0.000000 0.000000 0.000000 0.056621 0.000000
# 6 0.000000 0.000000 0.000000 0.000000 0.000000 -0.000631
#
#
# Mechanical properties :
#
#
# Convention : Reuss Voigt Hill
#
# Bulk Modulus (GPa) = 53.38648 58.42759 55.90703
# Shear Modulus (GPa) = 19.97223 -302.52846 -141.27811
#
# Velocity S-wave (km/s) = 3.78938 -14.74816 -10.07841
# Velocity P-wave (km/s) = 7.58479 15.74813 9.75896
#
# Compressibility (1/GPa) = 0.01873133
#
# Stress axis : x y z
#
# Youngs Moduli (GPa) = 32.18085 32.18077 77.14120
#
# Poissons Ratio (x) = 0.53755 0.44303
# Poissons Ratio (y) = 0.53755 0.44303
# Poissons Ratio (z) = 0.18482 0.18482
#
# Static dielectric constant tensor:
#      x y z
#    x 1.440410 0.000000 0.000000 
#    y 0.000000 1.440410 0.000000 
#    z 0.000000 0.000000 1.476350 
# 
# From -- ./inp_files/1519.got.cif
#   From: 2010.05.17/outbox.cif.g08.bks.cpg/sg123_1_cif.got.tgz:1519.got - 2010.05.20 11:43:04.
