data_PCOD9561476
_publ_section_title
;
Structure prediction by ZEFSAII (Michael W. Deem and Ramdas Pophale) SiO2 
 PCOD9561476
Probable space group: I -4 2 D
;
_chemical_formula_sum "Si O2"
_cell_formula_units_Z 96
_cell_length_a 20.122810
_cell_length_b 20.122810
_cell_length_c 11.433318
_cell_angle_alpha 90.000000
_cell_angle_beta 90.000000
_cell_angle_gamma 90.000000
_cell_volume 4629.664672
_symmetry_space_group_name_H-M "I -4 2 D"
_symmetry_group_IT_number 122
_symmetry_cell_setting 'tetragonal'
loop_
_space_group_symop_operation_xyz
x,y,z
y,-x,-z
-x,-y,z
-y,x,-z
x,1/2-y,1/4-z
-x,1/2+y,1/4-z
-y,1/2-x,1/4+z
y,1/2+x,1/4+z
1/2+x,1/2+y,1/2+z
1/2+y,1/2-x,1/2-z
1/2-x,1/2-y,1/2+z
1/2-y,1/2+x,1/2-z
1/2+x,-y,3/4-z
1/2-x,y,3/4-z
1/2-y,-x,3/4+z
1/2+y,x,3/4+z
loop_
_atom_site_type_symbol
_atom_site_label
_atom_site_fract_x
_atom_site_fract_y
_atom_site_fract_z
Si Si1 0.500000 0.500000 0.000000
Si Si2 0.314588 0.853292 0.291974
Si Si3 0.623089 0.382804 0.205812
Si Si4 0.500000 0.500000 0.500000
Si Si5 0.120304 0.525659 0.917915
Si Si6 0.750000 0.903836 0.875000
Si Si7 0.523570 0.111893 0.567673
Si Si8 0.217990 0.170861 0.113026
O O1 0.562056 0.489014 0.920817
O O2 0.250000 0.840241 0.375000
O O3 0.327375 0.865053 0.152660
O O4 0.335588 0.921906 0.350755
O O5 0.353204 0.784376 0.317627
O O6 0.548060 0.353971 0.192173
O O7 0.618106 0.462562 0.225446
O O8 0.646286 0.348481 0.324826
O O9 0.495469 0.433058 0.577002
O O10 0.084990 0.566475 0.022078
O O11 0.814874 0.948637 0.846097
O O12 0.729080 0.856770 0.766862
O O13 0.212034 0.250000 0.125000
#
# Coordination Sequence:
#
# PCOD9561476 Si02
#       8
#     4  16  16   4  16   8  16  16
#     4  12  18  40  68  98 140 180 210 300 364 410
#     4  11  26  45  71 104 145 186 242 302 362 434
#     4  12  25  44  75 108 139 194 245 296 367 445
#     4  12  22  48  76 106 148 204 242 300 386 452
#     4  12  21  42  71 101 142 182 231 298 364 426
#     4  12  28  48  74 106 150 186 250 308 372 444
#     4  12  25  44  71 107 146 186 243 300 369 440
#     4  11  28  49  72 100 142 199 237 303 364 448
#
# _framework density 20.735842999999999
#
# number of rings (size 3 to 8) (size 9 to 14) (size 15 to 20)
#    0.000    0.333    6.667    1.500    5.833    2.667 
#    0.000    0.000    0.000    0.000    0.000    0.000 
#    0.000    0.000    0.000    0.000    0.000    0.000 
#
# Total GULP energy -267322.100862 kJ/mol
# GULP energy per Si atom -5569.210435 kJ/mol
# Density = 2.068865 g / cm^3
# Si number density = 20.735843 Si / 1000 Ang^3
#
#
#
# Elastic Constant Matrix: (Units=GPa)
#
#
# Indices 1 2 3 4 5 6 
#
# 1 68.3155 27.7926 23.7641 0.0000 0.0000 0.0000
# 2 27.7926 68.3155 23.7641 0.0000 0.0000 0.0000
# 3 23.7641 23.7641 116.9586 0.0000 0.0000 0.0000
# 4 0.0000 0.0000 0.0000 42.2985 0.0000 0.0000
# 5 0.0000 0.0000 0.0000 0.0000 42.2985 0.0000
# 6 0.0000 0.0000 0.0000 0.0000 0.0000 23.7851
#
#
#
# Elastic Compliance Matrix: (Units=1/GPa)
#
#
# Indices 1 2 3 4 5 6 
#
# 1 0.018122 -0.006555 -0.002350 0.000000 0.000000 0.000000
# 2 -0.006555 0.018122 -0.002350 0.000000 0.000000 0.000000
# 3 -0.002350 -0.002350 0.009505 0.000000 0.000000 0.000000
# 4 0.000000 0.000000 0.000000 0.023642 0.000000 0.000000
# 5 0.000000 0.000000 0.000000 0.000000 0.023642 0.000000
# 6 0.000000 0.000000 0.000000 0.000000 0.000000 0.042043
#
#
# Mechanical properties :
#
#
# Convention : Reuss Voigt Hill
#
# Bulk Modulus (GPa) = 43.03210 44.91458 43.97334
# Shear Modulus (GPa) = 30.24195 33.56100 31.90147
#
# Velocity S-wave (km/s) = 3.82309 4.02743 3.92659
# Velocity P-wave (km/s) = 6.34710 6.58288 6.46606
#
# Compressibility (1/GPa) = 0.02323847
#
# Stress axis : x y z
#
# Youngs Moduli (GPa) = 55.18067 55.18067 105.20661
#
# Poissons Ratio (x) = 0.36171 0.24726
# Poissons Ratio (y) = 0.36171 0.24726
# Poissons Ratio (z) = 0.12969 0.12969
#
# Static dielectric constant tensor:
#      x y z
#    x 1.766260 0.000000 0.000000 
#    y 0.000000 1.766260 0.000000 
#    z 0.000000 0.000000 1.817870 
# 
# From -- ./inp_files/4534.got.cif
#   From: 2010.05.17/outbox.cif.g08.bks.cpg/sg122_3_cif.got.tgz:4534.got - 2010.05.20 11:37:33.
