data_PCOD9561570
_publ_section_title
;
Structure prediction by ZEFSAII (Michael W. Deem and Ramdas Pophale) SiO2 
 PCOD9561570
Probable space group: I -4 2 D
;
_chemical_formula_sum "Si O2"
_cell_formula_units_Z 20
_cell_length_a 5.330831
_cell_length_b 5.330831
_cell_length_c 27.912519
_cell_angle_alpha 90.000000
_cell_angle_beta 90.000000
_cell_angle_gamma 90.000000
_cell_volume 793.211242
_symmetry_space_group_name_H-M "I -4 2 D"
_symmetry_group_IT_number 122
_symmetry_cell_setting 'tetragonal'
loop_
_space_group_symop_operation_xyz
x,y,z
y,-x,-z
-x,-y,z
-y,x,-z
x,1/2-y,1/4-z
-x,1/2+y,1/4-z
-y,1/2-x,1/4+z
y,1/2+x,1/4+z
1/2+x,1/2+y,1/2+z
1/2+y,1/2-x,1/2-z
1/2-x,1/2-y,1/2+z
1/2-y,1/2+x,1/2-z
1/2+x,-y,3/4-z
1/2-x,y,3/4-z
1/2-y,-x,3/4+z
1/2+y,x,3/4+z
loop_
_atom_site_type_symbol
_atom_site_label
_atom_site_fract_x
_atom_site_fract_y
_atom_site_fract_z
Si Si1 0.242663 0.840733 0.070531
Si Si2 0.500000 0.500000 0.000000
O O1 0.208645 0.750000 0.125000
O O2 0.288897 0.611943 0.034644
O O3 0.500000 0.000000 0.069113
O O4 0.000000 0.000000 0.057243
#
# Coordination Sequence:
#
# PCOD9561570 Si02
#       2
#    16   4
#     4  12  29  54  85 122 176 234 294 368 443 526
#     4  12  32  52  80 132 168 232 296 364 444 526
#
# _framework density 25.21396
#
# number of rings (size 3 to 8) (size 9 to 14) (size 15 to 20)
#    0.000    0.000    4.000    2.400   11.200    0.000 
#    0.000    0.000    0.000    0.000    0.000    0.000 
#    0.000    0.000    0.000    0.000    0.000    0.000 
#
# Total GULP energy -56241.294684 kJ/mol
# GULP energy per Si atom -5624.129468 kJ/mol
# Density = 2.515657 g / cm^3
# Si number density = 25.213960 Si / 1000 Ang^3
#
#
#
# Elastic Constant Matrix: (Units=GPa)
#
#
# Indices 1 2 3 4 5 6 
#
# 1 160.4448 80.2768 60.2999 0.0000 0.0000 0.0000
# 2 80.2768 160.4448 60.2999 0.0000 0.0000 0.0000
# 3 60.2999 60.2999 220.2658 0.0000 0.0000 0.0000
# 4 0.0000 0.0000 0.0000 -7.9370 0.0000 0.0000
# 5 0.0000 0.0000 0.0000 0.0000 -7.9370 0.0000
# 6 0.0000 0.0000 0.0000 0.0000 0.0000 80.6733
#
#
#
# Elastic Compliance Matrix: (Units=1/GPa)
#
#
# Indices 1 2 3 4 5 6 
#
# 1 0.008644 -0.003830 -0.001318 0.000000 0.000000 0.000000
# 2 -0.003830 0.008644 -0.001318 0.000000 0.000000 0.000000
# 3 -0.001318 -0.001318 0.005262 0.000000 0.000000 0.000000
# 4 0.000000 0.000000 0.000000 -0.125993 0.000000 0.000000
# 5 0.000000 0.000000 0.000000 0.000000 -0.125993 0.000000
# 6 0.000000 0.000000 0.000000 0.000000 0.000000 0.012396
#
#
# Mechanical properties :
#
#
# Convention : Reuss Voigt Hill
#
# Bulk Modulus (GPa) = 103.96593 104.76763 104.36678
# Shear Modulus (GPa) = -24.88765 35.64514 5.37874
#
# Velocity S-wave (km/s) = -3.14516 3.76401 1.46215
# Velocity P-wave (km/s) = 5.30412 7.78023 6.65829
#
# Compressibility (1/GPa) = 0.00961854
#
# Stress axis : x y z
#
# Youngs Moduli (GPa) = 115.68521 115.68521 190.05591
#
# Poissons Ratio (x) = 0.44303 0.25050
# Poissons Ratio (y) = 0.44303 0.25050
# Poissons Ratio (z) = 0.15247 0.15247
#
# Static dielectric constant tensor:
#      x y z
#    x 2.006570 0.000000 0.000000 
#    y 0.000000 2.006570 0.000000 
#    z 0.000000 0.000000 1.927250 
# 
# From -- ./inp_files/8248.got.cif
#   From: 2010.05.17/outbox.cif.g08.bks.cpg/sg122_5_cif.got.tgz:8248.got - 2010.05.20 11:37:33.
