data_PCOD9561730
_publ_section_title
;
Structure prediction by ZEFSAII (Michael W. Deem and Ramdas Pophale) SiO2 
 PCOD9561730
Probable space group: P 4/M M M
;
_chemical_formula_sum "Si O2"
_cell_formula_units_Z 96
_cell_length_a 25.254397
_cell_length_b 25.254397
_cell_length_c 9.015762
_cell_angle_alpha 90.000000
_cell_angle_beta 90.000000
_cell_angle_gamma 90.000000
_cell_volume 5750.113871
_symmetry_space_group_name_H-M "P 4/M M M"
_symmetry_group_IT_number 123
_symmetry_cell_setting 'tetragonal'
loop_
_space_group_symop_operation_xyz
x,y,z
-y,x,z
-x,-y,z
y,-x,z
x,-y,-z
-x,y,-z
y,x,-z
-y,-x,-z
-x,-y,-z
y,-x,-z
x,y,-z
-y,x,-z
-x,y,z
x,-y,z
-y,-x,z
y,x,z
loop_
_atom_site_type_symbol
_atom_site_label
_atom_site_fract_x
_atom_site_fract_y
_atom_site_fract_z
Si Si1 0.736677 0.263324 0.329683
Si Si2 0.657033 0.342968 0.177061
Si Si3 0.294033 0.940632 0.670508
Si Si4 0.161720 0.706991 0.166148
Si Si5 0.579307 0.167470 0.830201
Si Si6 0.561003 0.719458 0.324073
Si Si7 0.059035 0.577417 0.672791
O O1 0.724606 0.275395 0.500000
O O2 0.700618 0.299383 0.223774
O O3 0.796753 0.274775 0.287943
O O4 0.680072 0.397523 0.245056
O O5 0.653131 0.346870 0.000000
O O6 0.279996 0.927741 0.500000
O O7 0.275836 0.896508 0.784594
O O8 0.358339 0.941034 0.676123
O O9 0.276007 0.000000 0.704291
O O10 0.164128 0.643176 0.166899
O O11 0.175377 0.724872 0.000000
O O12 0.565810 0.220761 0.740407
O O13 0.560581 0.111848 0.759359
O O14 0.561324 0.172535 0.000000
O O15 0.572550 0.720984 0.500000
O O16 0.500000 0.702498 0.303058
O O17 0.063401 0.562098 0.500000
O O18 0.000000 0.561177 0.726707
#
# Coordination Sequence:
#
# PCOD9561730 Si02
#       7
#     8   8  16  16  16  16  16
#     4  12  22  32  50  72 101 139 172 207 251 302
#     4  12  24  40  62  87 113 138 164 198 246 295
#     4   8  14  25  40  59  86 123 168 212 251 296
#     4  10  19  29  43  67  98 130 166 210 256 302
#     4  10  19  30  48  73 103 135 168 212 259 301
#     4  11  24  41  62  86 110 138 170 202 241 296
#     4   8  14  25  42  64  93 131 174 217 257 299
#
# _framework density 16.695322000000001
#
# number of rings (size 3 to 8) (size 9 to 14) (size 15 to 20)
#    0.000    2.167    1.667    4.000    0.000    3.333 
#    0.000    3.333    0.000    0.750    0.000    5.250 
#    0.000    0.000    0.000    0.000    0.000    0.417 
#
# Total GULP energy -535456.905212 kJ/mol
# GULP energy per Si atom -5577.676096 kJ/mol
# Density = 1.665732 g / cm^3
# Si number density = 16.695322 Si / 1000 Ang^3
#
#
#
# Elastic Constant Matrix: (Units=GPa)
#
#
# Indices 1 2 3 4 5 6 
#
# 1 75.4838 42.0881 49.6206 0.0000 0.0000 0.0000
# 2 42.0881 75.4839 49.6203 0.0000 0.0000 0.0000
# 3 49.6206 49.6203 108.5139 0.0000 0.0000 0.0000
# 4 0.0000 0.0000 0.0000 -21.5699 0.0000 0.0000
# 5 0.0000 0.0000 0.0000 0.0000 -21.5696 0.0000
# 6 0.0000 0.0000 0.0000 0.0000 0.0000 -15.3563
#
#
#
# Elastic Compliance Matrix: (Units=1/GPa)
#
#
# Indices 1 2 3 4 5 6 
#
# 1 0.021898 -0.008046 -0.006334 0.000000 0.000000 0.000000
# 2 -0.008046 0.021898 -0.006334 0.000000 0.000000 0.000000
# 3 -0.006334 -0.006334 0.015008 0.000000 0.000000 0.000000
# 4 0.000000 0.000000 0.000000 -0.046361 0.000000 0.000000
# 5 0.000000 0.000000 0.000000 0.000000 -0.046362 0.000000
# 6 0.000000 0.000000 0.000000 0.000000 0.000000 -0.065120
#
#
# Mechanical properties :
#
#
# Convention : Reuss Voigt Hill
#
# Bulk Modulus (GPa) = 57.55163 60.23773 58.89468
# Shear Modulus (GPa) = -96.49257 -3.82234 -50.15745
#
# Velocity S-wave (km/s) = -7.61063 -1.51474 -5.48708
# Velocity P-wave (km/s) = 6.53317 5.75323 2.18891
#
# Compressibility (1/GPa) = 0.01737570
#
# Stress axis : x y z
#
# Youngs Moduli (GPa) = 45.66617 45.66649 66.62984
#
# Poissons Ratio (x) = 0.36743 0.42205
# Poissons Ratio (y) = 0.36743 0.42204
# Poissons Ratio (z) = 0.28926 0.28926
#
# Static dielectric constant tensor:
#      x y z
#    x 1.569120 0.000000 0.000000 
#    y 0.000000 1.569120 0.000000 
#    z 0.000000 0.000000 1.569500 
# 
# From -- ./inp_files/1708.got.cif
#   From: 2010.05.17/outbox.cif.g08.bks.cpg/sg123_1_cif.got.tgz:1708.got - 2010.05.20 11:43:04.
