data_PCOD9561266
_publ_section_title
;
Structure prediction by ZEFSAII (Michael W. Deem and Ramdas Pophale) SiO2 
 PCOD9561266
Probable space group: I -4 2 D
;
_chemical_formula_sum "Si O2"
_cell_formula_units_Z 72
_cell_length_a 13.226503
_cell_length_b 13.226503
_cell_length_c 18.205733
_cell_angle_alpha 90.000000
_cell_angle_beta 90.000000
_cell_angle_gamma 90.000000
_cell_volume 3184.917878
_symmetry_space_group_name_H-M "I -4 2 D"
_symmetry_group_IT_number 122
_symmetry_cell_setting 'tetragonal'
loop_
_space_group_symop_operation_xyz
x,y,z
y,-x,-z
-x,-y,z
-y,x,-z
x,1/2-y,1/4-z
-x,1/2+y,1/4-z
-y,1/2-x,1/4+z
y,1/2+x,1/4+z
1/2+x,1/2+y,1/2+z
1/2+y,1/2-x,1/2-z
1/2-x,1/2-y,1/2+z
1/2-y,1/2+x,1/2-z
1/2+x,-y,3/4-z
1/2-x,y,3/4-z
1/2-y,-x,3/4+z
1/2+y,x,3/4+z
loop_
_atom_site_type_symbol
_atom_site_label
_atom_site_fract_x
_atom_site_fract_y
_atom_site_fract_z
Si Si1 0.289767 0.435759 0.716267
Si Si2 0.500000 0.000000 0.990109
Si Si3 0.848893 0.973650 0.989344
Si Si4 0.750000 0.376458 0.375000
Si Si5 0.986210 0.750000 0.625000
Si Si6 0.935554 0.164547 0.338557
O O1 0.391933 0.500439 0.702954
O O2 0.312809 0.325286 0.678704
O O3 0.252899 0.446682 0.800326
O O4 0.204284 0.480913 0.663811
O O5 0.402439 0.988823 0.041358
O O6 0.811488 0.044117 0.924037
O O7 0.760990 0.917314 0.034751
O O8 0.938007 0.901009 0.962173
O O9 0.909270 0.843650 0.639533
#
# Coordination Sequence:
#
# PCOD9561266 Si02
#       6
#    16   8  16   8   8  16
#     4  11  24  45  73 106 147 198 260 319 394 467
#     4  10  24  44  69 109 148 194 252 326 382 453
#     4  11  25  41  70 114 150 195 249 315 405 472
#     4  12  23  44  77 106 152 196 239 328 395 482
#     4  10  27  44  65 108 146 202 261 320 373 464
#     4  11  23  43  71 100 148 201 254 307 385 460
#
# _framework density 22.606548
#
# number of rings (size 3 to 8) (size 9 to 14) (size 15 to 20)
#    0.000    1.111    4.444    0.667    3.111    3.556 
#    0.000    2.222    0.000    0.000    0.000    0.000 
#    0.000    0.000    0.000    0.000    0.000    0.000 
#
# Total GULP energy -200566.510348 kJ/mol
# GULP energy per Si atom -5571.291954 kJ/mol
# Density = 2.255509 g / cm^3
# Si number density = 22.606548 Si / 1000 Ang^3
#
#
#
# Elastic Constant Matrix: (Units=GPa)
#
#
# Indices 1 2 3 4 5 6 
#
# 1 90.1373 16.7318 49.5080 0.0000 0.0000 0.0000
# 2 16.7318 90.1373 49.5080 0.0000 0.0000 0.0000
# 3 49.5080 49.5080 150.3280 0.0000 0.0000 0.0000
# 4 0.0000 0.0000 0.0000 20.3527 0.0000 0.0000
# 5 0.0000 0.0000 0.0000 0.0000 20.3527 0.0000
# 6 0.0000 0.0000 0.0000 0.0000 0.0000 31.6600
#
#
#
# Elastic Compliance Matrix: (Units=1/GPa)
#
#
# Indices 1 2 3 4 5 6 
#
# 1 0.013545 -0.000078 -0.004435 0.000000 0.000000 0.000000
# 2 -0.000078 0.013545 -0.004435 0.000000 0.000000 0.000000
# 3 -0.004435 -0.004435 0.009573 0.000000 0.000000 0.000000
# 4 0.000000 0.000000 0.000000 0.049134 0.000000 0.000000
# 5 0.000000 0.000000 0.000000 0.000000 0.049134 0.000000
# 6 0.000000 0.000000 0.000000 0.000000 0.000000 0.031586
#
#
# Mechanical properties :
#
#
# Convention : Reuss Voigt Hill
#
# Bulk Modulus (GPa) = 53.28740 62.45537 57.87139
# Shear Modulus (GPa) = 26.22377 28.79672 27.51025
#
# Velocity S-wave (km/s) = 3.40958 3.57294 3.49222
# Velocity P-wave (km/s) = 6.25485 6.68642 6.47424
#
# Compressibility (1/GPa) = 0.01876616
#
# Stress axis : x y z
#
# Youngs Moduli (GPa) = 73.83025 73.83025 104.45803
#
# Poissons Ratio (x) = 0.00579 0.46326
# Poissons Ratio (y) = 0.00579 0.46326
# Poissons Ratio (z) = 0.32743 0.32743
#
# Static dielectric constant tensor:
#      x y z
#    x 1.942120 0.000000 0.000000 
#    y 0.000000 1.942120 0.000000 
#    z 0.000000 0.000000 1.903790 
# 
# From -- ./inp_files/6175.got.cif
#   From: 2010.05.17/outbox.cif.g08.bks.cpg/sg122_4_cif.got.tgz:6175.got - 2010.05.20 11:37:33.
