data_PCOD9561326
_publ_section_title
;
Structure prediction by ZEFSAII (Michael W. Deem and Ramdas Pophale) SiO2 
 PCOD9561326
Probable space group: I -4 2 D
;
_chemical_formula_sum "Si O2"
_cell_formula_units_Z 64
_cell_length_a 14.932022
_cell_length_b 14.932022
_cell_length_c 12.985368
_cell_angle_alpha 90.000000
_cell_angle_beta 90.000000
_cell_angle_gamma 90.000000
_cell_volume 2895.286225
_symmetry_space_group_name_H-M "I -4 2 D"
_symmetry_group_IT_number 122
_symmetry_cell_setting 'tetragonal'
loop_
_space_group_symop_operation_xyz
x,y,z
y,-x,-z
-x,-y,z
-y,x,-z
x,1/2-y,1/4-z
-x,1/2+y,1/4-z
-y,1/2-x,1/4+z
y,1/2+x,1/4+z
1/2+x,1/2+y,1/2+z
1/2+y,1/2-x,1/2-z
1/2-x,1/2-y,1/2+z
1/2-y,1/2+x,1/2-z
1/2+x,-y,3/4-z
1/2-x,y,3/4-z
1/2-y,-x,3/4+z
1/2+y,x,3/4+z
loop_
_atom_site_type_symbol
_atom_site_label
_atom_site_fract_x
_atom_site_fract_y
_atom_site_fract_z
Si Si1 0.374919 0.028370 0.305710
Si Si2 0.491387 0.602533 0.296710
Si Si3 0.250127 0.367666 0.064367
Si Si4 0.675445 0.313526 0.720207
O O1 0.438333 0.102603 0.254367
O O2 0.278862 0.059683 0.270223
O O3 0.399357 0.019036 0.423057
O O4 0.500000 0.500000 0.333537
O O5 0.399497 0.648896 0.336599
O O6 0.583730 0.658912 0.315106
O O7 0.301014 0.378652 0.172862
O O8 0.276219 0.272929 0.011327
O O9 0.650202 0.250000 0.625000
#
# Coordination Sequence:
#
# PCOD9561326 Si02
#       4
#    16  16  16  16
#     4  11  18  35  67 106 135 160 218 295 351 405
#     4  12  24  43  70 103 138 183 237 290 351 420
#     4  11  24  41  70 104 135 179 232 293 356 413
#     4  11  25  47  66  98 145 188 231 291 357 420
#
# _framework density 22.104896
#
# number of rings (size 3 to 8) (size 9 to 14) (size 15 to 20)
#    0.000    0.750    5.000    3.750    3.500    2.000 
#    9.000    0.000    0.000    0.000    0.000    0.000 
#    0.000    0.000    0.000    0.000    0.000    0.000 
#
# Total GULP energy -178281.463270 kJ/mol
# GULP energy per Si atom -5571.295727 kJ/mol
# Density = 2.205458 g / cm^3
# Si number density = 22.104896 Si / 1000 Ang^3
#
#
#
# Elastic Constant Matrix: (Units=GPa)
#
#
# Indices 1 2 3 4 5 6 
#
# 1 78.6436 49.7621 -1.7910 0.0000 0.0000 0.0000
# 2 49.7621 78.6436 -1.7910 0.0000 0.0000 0.0000
# 3 -1.7910 -1.7910 71.0436 0.0000 0.0000 0.0000
# 4 0.0000 0.0000 0.0000 27.3250 0.0000 0.0000
# 5 0.0000 0.0000 0.0000 0.0000 27.3250 0.0000
# 6 0.0000 0.0000 0.0000 0.0000 0.0000 77.2248
#
#
#
# Elastic Compliance Matrix: (Units=1/GPa)
#
#
# Indices 1 2 3 4 5 6 
#
# 1 0.021209 -0.013415 0.000196 0.000000 0.000000 0.000000
# 2 -0.013415 0.021209 0.000196 0.000000 0.000000 0.000000
# 3 0.000196 0.000196 0.014086 0.000000 0.000000 0.000000
# 4 0.000000 0.000000 0.000000 0.036597 0.000000 0.000000
# 5 0.000000 0.000000 0.000000 0.000000 0.036597 0.000000
# 6 0.000000 0.000000 0.000000 0.000000 0.000000 0.012949
#
#
# Mechanical properties :
#
#
# Convention : Reuss Voigt Hill
#
# Bulk Modulus (GPa) = 32.83188 35.63236 34.23212
# Shear Modulus (GPa) = 27.95740 38.51832 33.23786
#
# Velocity S-wave (km/s) = 3.56021 4.17888 3.88189
# Velocity P-wave (km/s) = 5.63783 6.28003 5.96757
#
# Compressibility (1/GPa) = 0.03045820
#
# Stress axis : x y z
#
# Youngs Moduli (GPa) = 47.15027 47.15027 70.99369
#
# Poissons Ratio (x) = 0.63254 -0.01395
# Poissons Ratio (y) = 0.63254 -0.01395
# Poissons Ratio (z) = -0.00926 -0.00926
#
# Static dielectric constant tensor:
#      x y z
#    x 1.949080 0.000000 0.000000 
#    y 0.000000 1.949080 0.000000 
#    z 0.000000 0.000000 1.300290 
# 
# From -- ./inp_files/5134.got.cif
#   From: 2010.05.17/outbox.cif.g08.bks.cpg/sg122_3_cif.got.tgz:5134.got - 2010.05.20 11:37:33.
