data_PCOD9561254
_publ_section_title
;
Structure prediction by ZEFSAII (Michael W. Deem and Ramdas Pophale) SiO2 
 PCOD9561254
Probable space group: I -4 2 D
;
_chemical_formula_sum "Si O2"
_cell_formula_units_Z 72
_cell_length_a 18.889668
_cell_length_b 18.889668
_cell_length_c 9.078149
_cell_angle_alpha 90.000000
_cell_angle_beta 90.000000
_cell_angle_gamma 90.000000
_cell_volume 3239.261106
_symmetry_space_group_name_H-M "I -4 2 D"
_symmetry_group_IT_number 122
_symmetry_cell_setting 'tetragonal'
loop_
_space_group_symop_operation_xyz
x,y,z
y,-x,-z
-x,-y,z
-y,x,-z
x,1/2-y,1/4-z
-x,1/2+y,1/4-z
-y,1/2-x,1/4+z
y,1/2+x,1/4+z
1/2+x,1/2+y,1/2+z
1/2+y,1/2-x,1/2-z
1/2-x,1/2-y,1/2+z
1/2-y,1/2+x,1/2-z
1/2+x,-y,3/4-z
1/2-x,y,3/4-z
1/2-y,-x,3/4+z
1/2+y,x,3/4+z
loop_
_atom_site_type_symbol
_atom_site_label
_atom_site_fract_x
_atom_site_fract_y
_atom_site_fract_z
Si Si1 0.918706 0.927148 0.437199
Si Si2 0.189308 0.250000 0.125000
Si Si3 0.868752 0.639287 0.354869
Si Si4 0.127475 0.788508 0.409922
Si Si5 0.967270 0.343717 0.398662
O O1 0.859765 0.875010 0.498030
O O2 0.900129 0.937895 0.267116
O O3 0.998587 0.906602 0.475367
O O4 0.147116 0.296018 0.243638
O O5 0.240156 0.306669 0.049139
O O6 0.814472 0.635255 0.490844
O O7 0.861384 0.567667 0.258730
O O8 0.948906 0.649259 0.406362
O O9 0.060497 0.736057 0.431829
#
# Coordination Sequence:
#
# PCOD9561254 Si02
#       5
#    16   8  16  16  16
#     4  11  25  45  69 102 141 186 237 294 353 425
#     4  10  24  42  70 102 136 180 226 296 346 412
#     4  11  26  45  72 106 141 186 236 296 352 426
#     4  11  25  47  70 101 144 182 241 282 359 428
#     4  11  25  43  72 103 136 190 231 298 356 417
#
# _framework density 22.227291999999998
#
# number of rings (size 3 to 8) (size 9 to 14) (size 15 to 20)
#    0.000    1.111    2.222    3.333    6.222   11.111 
#    0.000    0.000    0.000    0.000    0.000    0.000 
#    0.000    0.000    0.000    0.000    0.000    0.000 
#
# Total GULP energy -201411.473523 kJ/mol
# GULP energy per Si atom -5594.763153 kJ/mol
# Density = 2.217670 g / cm^3
# Si number density = 22.227292 Si / 1000 Ang^3
#
#
#
# Elastic Constant Matrix: (Units=GPa)
#
#
# Indices 1 2 3 4 5 6 
#
# 1 54.6019 -6.8728 2.6156 0.0000 0.0000 0.0000
# 2 -6.8728 54.6019 2.6156 0.0000 0.0000 0.0000
# 3 2.6156 2.6156 84.8001 0.0000 0.0000 0.0000
# 4 0.0000 0.0000 0.0000 14.8748 0.0000 0.0000
# 5 0.0000 0.0000 0.0000 0.0000 14.8748 0.0000
# 6 0.0000 0.0000 0.0000 0.0000 0.0000 -11.3432
#
#
#
# Elastic Compliance Matrix: (Units=1/GPa)
#
#
# Indices 1 2 3 4 5 6 
#
# 1 0.018645 0.002378 -0.000648 0.000000 0.000000 0.000000
# 2 0.002378 0.018645 -0.000648 0.000000 0.000000 0.000000
# 3 -0.000648 -0.000648 0.011832 0.000000 0.000000 0.000000
# 4 0.000000 0.000000 0.000000 0.067228 0.000000 0.000000
# 5 0.000000 0.000000 0.000000 0.000000 0.067228 0.000000
# 6 0.000000 0.000000 0.000000 0.000000 0.000000 -0.088158
#
#
# Mechanical properties :
#
#
# Convention : Reuss Voigt Hill
#
# Bulk Modulus (GPa) = 19.49928 21.19121 20.34524
# Shear Modulus (GPa) = 45.30963 16.72431 31.01697
#
# Velocity S-wave (km/s) = 4.51984 2.74601 3.73962
# Velocity P-wave (km/s) = 6.00252 4.42817 5.27442
#
# Compressibility (1/GPa) = 0.05128395
#
# Stress axis : x y z
#
# Youngs Moduli (GPa) = 53.63446 53.63446 84.51346
#
# Poissons Ratio (x) = -0.12754 0.05480
# Poissons Ratio (y) = -0.12754 0.05480
# Poissons Ratio (z) = 0.03478 0.03478
#
# Static dielectric constant tensor:
#      x y z
#    x 1.797850 0.000000 0.000000 
#    y 0.000000 1.797850 0.000000 
#    z 0.000000 0.000000 1.851920 
# 
# From -- ./inp_files/2679.got.cif
#   From: 2010.05.17/outbox.cif.g08.bks.cpg/sg122_2_cif.got.tgz:2679.got - 2010.05.20 11:37:33.
