data_PCOD9561737
_publ_section_title
;
Structure prediction by ZEFSAII (Michael W. Deem and Ramdas Pophale) SiO2 
 PCOD9561737
Probable space group: P 4/M M M
;
_chemical_formula_sum "Si O2"
_cell_formula_units_Z 96
_cell_length_a 24.286235
_cell_length_b 24.286235
_cell_length_c 7.291422
_cell_angle_alpha 90.000000
_cell_angle_beta 90.000000
_cell_angle_gamma 90.000000
_cell_volume 4300.635350
_symmetry_space_group_name_H-M "P 4/M M M"
_symmetry_group_IT_number 123
_symmetry_cell_setting 'tetragonal'
loop_
_space_group_symop_operation_xyz
x,y,z
-y,x,z
-x,-y,z
y,-x,z
x,-y,-z
-x,y,-z
y,x,-z
-y,-x,-z
-x,-y,-z
y,-x,-z
x,y,-z
-y,x,-z
-x,y,z
x,-y,z
-y,-x,z
y,x,z
loop_
_atom_site_type_symbol
_atom_site_label
_atom_site_fract_x
_atom_site_fract_y
_atom_site_fract_z
Si Si1 0.586392 0.500000 0.722788
Si Si2 0.436171 0.061750 0.220741
Si Si3 0.939731 0.727553 0.723812
Si Si4 0.651004 0.844700 0.713647
Si Si5 0.721693 0.628609 0.276148
Si Si6 0.854105 0.059787 0.722992
Si Si7 0.289561 0.500000 0.721809
O O1 0.553042 0.553042 0.782229
O O2 0.586279 0.500000 0.500000
O O3 0.647511 0.500000 0.780823
O O4 0.500000 0.066735 0.274318
O O5 0.403525 0.116589 0.278462
O O6 0.417471 0.000000 0.283793
O O7 0.433528 0.060787 0.000000
O O8 0.939595 0.724387 0.500000
O O9 0.887177 0.695113 0.793297
O O10 0.935776 0.790921 0.776720
O O11 0.000000 0.706731 0.783138
O O12 0.664161 0.837197 0.500000
O O13 0.649942 0.782221 0.784274
O O14 0.718441 0.627966 0.500000
O O15 0.669727 0.669727 0.221437
O O16 0.725895 0.563098 0.222247
O O17 0.854255 0.061071 0.500000
O O18 0.891373 0.108628 0.790131
O O19 0.875593 0.000000 0.777890
O O20 0.282487 0.500000 0.500000
#
# Coordination Sequence:
#
# PCOD9561737 Si02
#       7
#     8  16  16  16  16  16   8
#     4   8  12  17  28  46  64  90 134 175 205 252
#     4   9  19  35  52  71  98 130 161 195 240 295
#     4   8  14  24  36  53  78 108 143 182 223 265
#     4  10  19  29  47  71  96 125 161 204 241 282
#     4   9  18  29  40  61  93 126 160 200 249 299
#     4   8  13  20  30  46  71 105 144 184 225 269
#     4   9  15  24  37  50  76 116 149 185 232 285
#
# _framework density 22.322282000000001
#
# number of rings (size 3 to 8) (size 9 to 14) (size 15 to 20)
#    0.000    3.250    0.000    2.750    1.167    4.167 
#    0.000    5.000    0.000    0.500    0.000    0.000 
#    0.000    0.000    0.000    0.000    0.000    2.667 
#
# Total GULP energy -534477.033551 kJ/mol
# GULP energy per Si atom -5567.469099 kJ/mol
# Density = 2.227148 g / cm^3
# Si number density = 22.322282 Si / 1000 Ang^3
#
#
#
# Elastic Constant Matrix: (Units=GPa)
#
#
# Indices 1 2 3 4 5 6 
#
# 1 158.2575 86.9699 1.4279 0.0000 0.0000 0.0000
# 2 86.9699 158.2575 1.4279 0.0000 0.0000 0.0000
# 3 1.4279 1.4279 94.0499 0.0000 0.0000 0.0000
# 4 0.0000 0.0000 0.0000 48.6717 0.0000 0.0000
# 5 0.0000 0.0000 0.0000 0.0000 48.6717 0.0000
# 6 0.0000 0.0000 0.0000 0.0000 0.0000 54.1057
#
#
#
# Elastic Compliance Matrix: (Units=1/GPa)
#
#
# Indices 1 2 3 4 5 6 
#
# 1 0.009053 -0.004975 -0.000062 0.000000 0.000000 0.000000
# 2 -0.004975 0.009053 -0.000062 0.000000 0.000000 0.000000
# 3 -0.000062 -0.000062 0.010635 0.000000 0.000000 0.000000
# 4 0.000000 0.000000 0.000000 0.020546 0.000000 0.000000
# 5 0.000000 0.000000 0.000000 0.000000 0.020546 0.000000
# 6 0.000000 0.000000 0.000000 0.000000 0.000000 0.018482
#
#
# Mechanical properties :
#
#
# Convention : Reuss Voigt Hill
#
# Bulk Modulus (GPa) = 53.92588 65.57962 59.75275
# Shear Modulus (GPa) = 47.75873 51.67242 49.71558
#
# Velocity S-wave (km/s) = 4.63050 4.81649 4.72441
# Velocity P-wave (km/s) = 7.26629 7.77006 7.52239
#
# Compressibility (1/GPa) = 0.01854397
#
# Stress axis : x y z
#
# Youngs Moduli (GPa) = 110.45914 110.45914 94.03329
#
# Poissons Ratio (x) = 0.54948 0.00582
# Poissons Ratio (y) = 0.54948 0.00582
# Poissons Ratio (z) = 0.00684 0.00684
#
# Static dielectric constant tensor:
#      x y z
#    x 1.821590 0.000000 0.000000 
#    y 0.000000 1.821590 0.000000 
#    z 0.000000 0.000000 1.862310 
# 
# From -- ./inp_files/3315.got.cif
#   From: 2010.05.17/outbox.cif.g08.bks.cpg/sg123_2_cif.got.tgz:3315.got - 2010.05.20 11:43:04.
