data_PCOD9561564
_publ_section_title
;
Structure prediction by ZEFSAII (Michael W. Deem and Ramdas Pophale) SiO2 
 PCOD9561564
Probable space group: I -4 2 D
;
_chemical_formula_sum "Si O2"
_cell_formula_units_Z 56
_cell_length_a 16.877383
_cell_length_b 16.877383
_cell_length_c 8.004918
_cell_angle_alpha 90.000000
_cell_angle_beta 90.000000
_cell_angle_gamma 90.000000
_cell_volume 2280.169328
_symmetry_space_group_name_H-M "I -4 2 D"
_symmetry_group_IT_number 122
_symmetry_cell_setting 'tetragonal'
loop_
_space_group_symop_operation_xyz
x,y,z
y,-x,-z
-x,-y,z
-y,x,-z
x,1/2-y,1/4-z
-x,1/2+y,1/4-z
-y,1/2-x,1/4+z
y,1/2+x,1/4+z
1/2+x,1/2+y,1/2+z
1/2+y,1/2-x,1/2-z
1/2-x,1/2-y,1/2+z
1/2-y,1/2+x,1/2-z
1/2+x,-y,3/4-z
1/2-x,y,3/4-z
1/2-y,-x,3/4+z
1/2+y,x,3/4+z
loop_
_atom_site_type_symbol
_atom_site_label
_atom_site_fract_x
_atom_site_fract_y
_atom_site_fract_z
Si Si1 0.841073 0.390805 0.875458
Si Si2 0.045116 0.612585 0.480223
Si Si3 0.750000 0.631730 0.875000
Si Si4 0.657617 0.977918 0.889669
O O1 0.750000 0.417562 0.875000
O O2 0.834335 0.322459 0.734467
O O3 0.887189 0.475493 0.882614
O O4 0.890134 0.350094 0.028903
O O5 0.891511 0.457535 0.497071
O O6 0.084761 0.698369 0.492520
O O7 0.013932 0.617090 0.291601
O O8 0.750000 0.999421 0.875000
#
# Coordination Sequence:
#
# PCOD9561564 Si02
#       4
#    16  16   8  16
#     4  12  29  51  79 122 166 222 285 357 445 528
#     4  12  27  51  78 120 161 223 283 353 435 527
#     4  12  30  48  76 116 168 214 274 368 422 530
#     4  12  27  51  83 118 164 222 289 349 438 527
#
# _framework density 24.55958
#
# number of rings (size 3 to 8) (size 9 to 14) (size 15 to 20)
#    0.000    0.000    7.143    0.857   10.000    1.143 
#    0.000    0.000    0.000    0.000    0.000    0.000 
#    0.000    0.000    0.000    0.000    0.000    0.000 
#
# Total GULP energy -155871.626955 kJ/mol
# GULP energy per Si atom -5566.843820 kJ/mol
# Density = 2.450368 g / cm^3
# Si number density = 24.559580 Si / 1000 Ang^3
#
#
#
# Elastic Constant Matrix: (Units=GPa)
#
#
# Indices 1 2 3 4 5 6 
#
# 1 154.3128 77.8676 38.7243 0.0000 0.0000 0.0000
# 2 77.8676 154.3128 38.7243 0.0000 0.0000 0.0000
# 3 38.7243 38.7243 102.9859 0.0000 0.0000 0.0000
# 4 0.0000 0.0000 0.0000 30.0036 0.0000 0.0000
# 5 0.0000 0.0000 0.0000 0.0000 30.0036 0.0000
# 6 0.0000 0.0000 0.0000 0.0000 0.0000 -0.2681
#
#
#
# Elastic Compliance Matrix: (Units=1/GPa)
#
#
# Indices 1 2 3 4 5 6 
#
# 1 0.009003 -0.004078 -0.001852 0.000000 0.000000 0.000000
# 2 -0.004078 0.009003 -0.001852 0.000000 0.000000 0.000000
# 3 -0.001852 -0.001852 0.011103 0.000000 0.000000 0.000000
# 4 0.000000 0.000000 0.000000 0.033329 0.000000 0.000000
# 5 0.000000 0.000000 0.000000 0.000000 0.033329 0.000000
# 6 0.000000 0.000000 0.000000 0.000000 0.000000 -3.729951
#
#
# Mechanical properties :
#
#
# Convention : Reuss Voigt Hill
#
# Bulk Modulus (GPa) = 73.82804 80.24932 77.03868
# Shear Modulus (GPa) = -1.38347 29.03417 13.82535
#
# Velocity S-wave (km/s) = -0.75135 3.44203 2.37519
# Velocity P-wave (km/s) = 5.41972 6.96729 6.24165
#
# Compressibility (1/GPa) = 0.01354499
#
# Stress axis : x y z
#
# Youngs Moduli (GPa) = 111.07434 111.07434 90.06865
#
# Poissons Ratio (x) = 0.45299 0.16679
# Poissons Ratio (y) = 0.45299 0.16679
# Poissons Ratio (z) = 0.20568 0.20568
#
# Static dielectric constant tensor:
#      x y z
#    x 1.961640 0.000000 0.000000 
#    y 0.000000 1.961640 0.000000 
#    z 0.000000 0.000000 2.181890 
# 
# From -- ./inp_files/2278.got.cif
#   From: 2010.05.17/outbox.cif.g08.bks.cpg/sg122_2_cif.got.tgz:2278.got - 2010.05.20 11:37:33.
