data_PCOD9561615
_publ_section_title
;
Structure prediction by ZEFSAII (Michael W. Deem and Ramdas Pophale) SiO2 
 PCOD9561615
Probable space group: P 4/M M M
;
_chemical_formula_sum "Si O2"
_cell_formula_units_Z 56
_cell_length_a 18.703871
_cell_length_b 18.703871
_cell_length_c 8.299510
_cell_angle_alpha 90.000000
_cell_angle_beta 90.000000
_cell_angle_gamma 90.000000
_cell_volume 2903.457341
_symmetry_space_group_name_H-M "P 4/M M M"
_symmetry_group_IT_number 123
_symmetry_cell_setting 'tetragonal'
loop_
_space_group_symop_operation_xyz
x,y,z
-y,x,z
-x,-y,z
y,-x,z
x,-y,-z
-x,y,-z
y,x,-z
-y,-x,-z
-x,-y,-z
y,-x,-z
x,y,-z
-y,x,-z
-x,y,z
x,-y,z
-y,-x,z
y,x,z
loop_
_atom_site_type_symbol
_atom_site_label
_atom_site_fract_x
_atom_site_fract_y
_atom_site_fract_z
Si Si1 0.075644 0.700736 0.500000
Si Si2 0.390284 0.196472 0.821823
Si Si3 0.084284 0.500000 0.305722
Si Si4 0.878057 0.760547 0.176222
Si Si5 0.357785 0.761851 0.500000
O O1 0.077443 0.746509 0.663368
O O2 0.152654 0.661347 0.500000
O O3 0.000000 0.657912 0.500000
O O4 0.433075 0.124102 0.777114
O O5 0.306476 0.176948 0.828064
O O6 0.399427 0.247806 0.667891
O O7 0.411677 0.221304 0.000000
O O8 0.096557 0.500000 0.500000
O O9 0.000000 0.500000 0.276194
O O10 0.832109 0.832109 0.192136
O O11 0.914072 0.760157 0.000000
O O12 0.287001 0.713000 0.500000
#
# Coordination Sequence:
#
# PCOD9561615 Si02
#       5
#     8  16   8  16   8
#     4  10  18  26  41  66  95 119 141 178 237 300
#     4  10  19  32  50  69  90 125 171 215 257 296
#     4  11  23  37  49  66 103 149 188 217 247 299
#     4   9  18  33  51  69  91 122 164 213 260 302
#     4  10  20  35  52  72  97 126 167 220 270 314
#
# _framework density 19.287351999999998
#
# number of rings (size 3 to 8) (size 9 to 14) (size 15 to 20)
#    0.000    2.143    1.429    4.286    0.000    8.000 
#    0.000    5.714    0.000    0.000    0.000    0.000 
#    0.000   23.143    0.000   28.286    0.000   32.714 
#
# Total GULP energy -311799.227938 kJ/mol
# GULP energy per Si atom -5567.843356 kJ/mol
# Density = 1.924345 g / cm^3
# Si number density = 19.287352 Si / 1000 Ang^3
#
#
#
# Elastic Constant Matrix: (Units=GPa)
#
#
# Indices 1 2 3 4 5 6 
#
# 1 38.4088 14.7220 15.7341 0.0000 0.0000 0.0000
# 2 14.7220 38.4079 15.7325 0.0000 0.0000 0.0000
# 3 15.7341 15.7325 211.6011 0.0000 0.0000 0.0000
# 4 0.0000 0.0000 0.0000 -19.5201 0.0000 0.0000
# 5 0.0000 0.0000 0.0000 0.0000 -19.5195 0.0000
# 6 0.0000 0.0000 0.0000 0.0000 0.0000 7.8062
#
#
#
# Elastic Compliance Matrix: (Units=1/GPa)
#
#
# Indices 1 2 3 4 5 6 
#
# 1 0.030953 -0.011265 -0.001464 0.000000 0.000000 0.000000
# 2 -0.011265 0.030954 -0.001464 0.000000 0.000000 0.000000
# 3 -0.001464 -0.001464 0.004944 0.000000 0.000000 0.000000
# 4 0.000000 0.000000 0.000000 -0.051229 0.000000 0.000000
# 5 0.000000 0.000000 0.000000 0.000000 -0.051231 0.000000
# 6 0.000000 0.000000 0.000000 0.000000 0.000000 0.128103
#
#
# Mechanical properties :
#
#
# Convention : Reuss Voigt Hill
#
# Bulk Modulus (GPa) = 25.99754 42.31056 34.15405
# Shear Modulus (GPa) = 37.39681 9.90193 23.64937
#
# Velocity S-wave (km/s) = 4.40810 2.26827 3.50545
# Velocity P-wave (km/s) = 6.27828 5.37072 5.84215
#
# Compressibility (1/GPa) = 0.03846518
#
# Stress axis : x y z
#
# Youngs Moduli (GPa) = 32.30672 32.30614 202.28298
#
# Poissons Ratio (x) = 0.36393 0.29615
# Poissons Ratio (y) = 0.36393 0.29610
# Poissons Ratio (z) = 0.04730 0.04729
#
# Static dielectric constant tensor:
#      x y z
#    x 1.678470 0.000000 0.000000 
#    y 0.000000 1.678470 0.000000 
#    z 0.000000 0.000000 1.824420 
# 
# From -- ./inp_files/637.got.cif
#   From: 2010.05.17/outbox.cif.g08.bks.cpg/sg123_1_cif.got.tgz:637.got - 2010.05.20 11:43:04.
