data_PCOD9561110
_publ_section_title
;
Structure prediction by ZEFSAII (Michael W. Deem and Ramdas Pophale) SiO2 
 PCOD9561110
Probable space group: I -4 2 D
;
_chemical_formula_sum "Si O2"
_cell_formula_units_Z 64
_cell_length_a 10.961590
_cell_length_b 10.961590
_cell_length_c 21.535123
_cell_angle_alpha 90.000000
_cell_angle_beta 90.000000
_cell_angle_gamma 90.000000
_cell_volume 2587.584045
_symmetry_space_group_name_H-M "I -4 2 D"
_symmetry_group_IT_number 122
_symmetry_cell_setting 'tetragonal'
loop_
_space_group_symop_operation_xyz
x,y,z
y,-x,-z
-x,-y,z
-y,x,-z
x,1/2-y,1/4-z
-x,1/2+y,1/4-z
-y,1/2-x,1/4+z
y,1/2+x,1/4+z
1/2+x,1/2+y,1/2+z
1/2+y,1/2-x,1/2-z
1/2-x,1/2-y,1/2+z
1/2-y,1/2+x,1/2-z
1/2+x,-y,3/4-z
1/2-x,y,3/4-z
1/2-y,-x,3/4+z
1/2+y,x,3/4+z
loop_
_atom_site_type_symbol
_atom_site_label
_atom_site_fract_x
_atom_site_fract_y
_atom_site_fract_z
Si Si1 0.000000 0.000000 0.500000
Si Si2 0.155012 0.616870 0.142494
Si Si3 0.836737 0.630774 0.965312
Si Si4 0.000000 0.000000 0.794802
Si Si5 0.500000 0.500000 0.500000
Si Si6 0.366490 0.286021 0.056044
O O1 0.086696 0.076299 0.545426
O O2 0.105397 0.750000 0.125000
O O3 0.298567 0.630185 0.152920
O O4 0.114708 0.527143 0.088350
O O5 0.094808 0.567026 0.204976
O O6 0.739783 0.714229 0.003643
O O7 0.960550 0.613804 0.003787
O O8 0.789854 0.492308 0.954964
O O9 0.322589 0.250000 0.125000
#
# Coordination Sequence:
#
# PCOD9561110 Si02
#       6
#     4  16  16   8   4  16
#     4   8  20  42  60  94 132 162 228 280 340 418
#     4  11  23  43  65  93 133 175 222 285 342 407
#     4  11  24  43  66  99 132 173 233 281 342 421
#     4  11  26  42  66  96 132 180 224 277 346 416
#     4  10  24  40  64  94 128 176 228 278 348 430
#     4  10  22  40  67  95 129 175 220 286 347 405
#
# _framework density 24.733495000000001
#
# number of rings (size 3 to 8) (size 9 to 14) (size 15 to 20)
#    0.000    1.500    0.000    3.750    0.000   12.000 
#    0.000    0.000    0.000    0.000    0.000    0.000 
#    0.000    0.000    0.000    0.000    0.000    0.000 
#
# Total GULP energy -178981.864020 kJ/mol
# GULP energy per Si atom -5593.183251 kJ/mol
# Density = 2.467720 g / cm^3
# Si number density = 24.733495 Si / 1000 Ang^3
#
#
#
# Elastic Constant Matrix: (Units=GPa)
#
#
# Indices 1 2 3 4 5 6 
#
# 1 84.7114 25.1776 26.1397 0.0000 0.0000 0.0000
# 2 25.1776 84.7114 26.1397 0.0000 0.0000 0.0000
# 3 26.1397 26.1397 80.2645 0.0000 0.0000 0.0000
# 4 0.0000 0.0000 0.0000 33.9279 0.0000 0.0000
# 5 0.0000 0.0000 0.0000 0.0000 33.9279 0.0000
# 6 0.0000 0.0000 0.0000 0.0000 0.0000 35.5890
#
#
#
# Elastic Compliance Matrix: (Units=1/GPa)
#
#
# Indices 1 2 3 4 5 6 
#
# 1 0.013783 -0.003014 -0.003507 0.000000 0.000000 0.000000
# 2 -0.003014 0.013783 -0.003507 0.000000 0.000000 0.000000
# 3 -0.003507 -0.003507 0.014743 0.000000 0.000000 0.000000
# 4 0.000000 0.000000 0.000000 0.029474 0.000000 0.000000
# 5 0.000000 0.000000 0.000000 0.000000 0.029474 0.000000
# 6 0.000000 0.000000 0.000000 0.000000 0.000000 0.028099
#
#
# Mechanical properties :
#
#
# Convention : Reuss Voigt Hill
#
# Bulk Modulus (GPa) = 44.93942 44.95569 44.94756
# Shear Modulus (GPa) = 31.88168 32.17097 32.02633
#
# Velocity S-wave (km/s) = 3.59417 3.61044 3.60232
# Velocity P-wave (km/s) = 5.95256 5.96623 5.95940
#
# Compressibility (1/GPa) = 0.02225218
#
# Stress axis : x y z
#
# Youngs Moduli (GPa) = 72.55389 72.55389 67.82855
#
# Poissons Ratio (x) = 0.21870 0.23787
# Poissons Ratio (y) = 0.21870 0.23787
# Poissons Ratio (z) = 0.25445 0.25445
#
# Static dielectric constant tensor:
#      x y z
#    x 1.989810 0.000000 0.000000 
#    y 0.000000 1.989810 0.000000 
#    z 0.000000 0.000000 1.972410 
# 
# From -- ./inp_files/7928.got.cif
#   From: 2010.05.17/outbox.cif.g08.bks.cpg/sg122_4_cif.got.tgz:7928.got - 2010.05.20 11:37:33.
