data_PCOD9561950
_publ_section_title
;
Structure prediction by ZEFSAII (Michael W. Deem and Ramdas Pophale) SiO2 
 PCOD9561950
Probable space group: P 4/M M M
;
_chemical_formula_sum "Si O2"
_cell_formula_units_Z 72
_cell_length_a 20.983040
_cell_length_b 20.983040
_cell_length_c 7.591681
_cell_angle_alpha 90.000000
_cell_angle_beta 90.000000
_cell_angle_gamma 90.000000
_cell_volume 3342.525798
_symmetry_space_group_name_H-M "P 4/M M M"
_symmetry_group_IT_number 123
_symmetry_cell_setting 'tetragonal'
loop_
_space_group_symop_operation_xyz
x,y,z
-y,x,z
-x,-y,z
y,-x,z
x,-y,-z
-x,y,-z
y,x,-z
-y,-x,-z
-x,-y,-z
y,-x,-z
x,y,-z
-y,x,-z
-x,y,z
x,-y,z
-y,-x,z
y,x,z
loop_
_atom_site_type_symbol
_atom_site_label
_atom_site_fract_x
_atom_site_fract_y
_atom_site_fract_z
Si Si1 0.500000 0.256376 0.712219
Si Si2 0.500000 0.072950 0.215609
Si Si3 0.142779 0.752894 0.705722
Si Si4 0.755381 0.000000 0.696699
Si Si5 0.600982 0.500000 0.714989
Si Si6 0.837097 0.388213 0.205064
Si Si7 0.000000 0.103675 0.788846
O O1 0.500000 0.253592 0.500000
O O2 0.500000 0.327865 0.776400
O O3 0.564044 0.222060 0.775795
O O4 0.434793 0.106974 0.276905
O O5 0.500000 0.000000 0.264688
O O6 0.500000 0.078412 0.000000
O O7 0.132886 0.768780 0.500000
O O8 0.191598 0.808403 0.775158
O O9 0.070302 0.743895 0.780846
O O10 0.171816 0.681735 0.715416
O O11 0.725653 0.000000 0.500000
O O12 0.831421 0.000000 0.688631
O O13 0.561421 0.561421 0.770592
O O14 0.601756 0.500000 0.500000
O O15 0.850104 0.376773 0.000000
O O16 0.938642 0.061359 0.747868
O O17 0.000000 0.115178 0.000000
#
# Coordination Sequence:
#
# PCOD9561950 Si02
#       7
#     8   8  16   8   8  16   8
#     4  10  19  34  58  85 118 156 190 226 279 338
#     4   8  16  32  54  79 107 138 173 218 273 329
#     4  10  22  39  57  80 114 152 191 241 300 360
#     4  10  21  37  57  79 105 140 187 240 296 354
#     4   8  15  29  51  81 111 139 179 225 265 314
#     4  10  21  36  56  82 113 148 191 237 280 335
#     4   9  18  32  50  74 103 133 169 218 277 343
#
# _framework density 21.540596000000001
#
# number of rings (size 3 to 8) (size 9 to 14) (size 15 to 20)
#    0.000    2.556    0.000    3.000    1.556    3.556 
#    0.000    2.778    0.000    4.000    0.000    3.111 
#    0.000    0.000    0.000    0.000    0.000    0.000 
#
# Total GULP energy -401273.193953 kJ/mol
# GULP energy per Si atom -5573.238805 kJ/mol
# Density = 2.149157 g / cm^3
# Si number density = 21.540596 Si / 1000 Ang^3
#
#
#
# Elastic Constant Matrix: (Units=GPa)
#
#
# Indices 1 2 3 4 5 6 
#
# 1 157.3223 66.0532 -1.7697 0.0000 0.0000 0.0000
# 2 66.0532 157.3223 -1.7697 0.0000 0.0000 0.0000
# 3 -1.7697 -1.7697 46.6929 0.0000 0.0000 0.0000
# 4 0.0000 0.0000 0.0000 36.5450 0.0000 0.0000
# 5 0.0000 0.0000 0.0000 0.0000 36.5450 0.0000
# 6 0.0000 0.0000 0.0000 0.0000 0.0000 36.6156
#
#
#
# Elastic Compliance Matrix: (Units=1/GPa)
#
#
# Indices 1 2 3 4 5 6 
#
# 1 0.007718 -0.003239 0.000170 0.000000 0.000000 0.000000
# 2 -0.003239 0.007718 0.000170 0.000000 0.000000 0.000000
# 3 0.000170 0.000170 0.021429 0.000000 0.000000 0.000000
# 4 0.000000 0.000000 0.000000 0.027364 0.000000 0.000000
# 5 0.000000 0.000000 0.000000 0.000000 0.027364 0.000000
# 6 0.000000 0.000000 0.000000 0.000000 0.000000 0.027311
#
#
# Mechanical properties :
#
#
# Convention : Reuss Voigt Hill
#
# Bulk Modulus (GPa) = 32.18807 54.04057 43.11432
# Shear Modulus (GPa) = 37.02137 41.86270 39.44204
#
# Velocity S-wave (km/s) = 4.15019 4.41322 4.28373
# Velocity P-wave (km/s) = 6.15962 7.14919 6.67277
#
# Compressibility (1/GPa) = 0.03106741
#
# Stress axis : x y z
#
# Youngs Moduli (GPa) = 129.56667 129.56667 46.66486
#
# Poissons Ratio (x) = 0.41961 -0.00792
# Poissons Ratio (y) = 0.41961 -0.00792
# Poissons Ratio (z) = -0.02200 -0.02200
#
# Static dielectric constant tensor:
#      x y z
#    x 1.779640 0.000000 0.000000 
#    y 0.000000 1.779640 0.000000 
#    z 0.000000 0.000000 1.832550 
# 
# From -- ./inp_files/1257.got.cif
#   From: 2010.05.17/outbox.cif.g08.bks.cpg/sg123_1_cif.got.tgz:1257.got - 2010.05.20 11:43:04.
