data_PCOD9561385
_publ_section_title
;
Structure prediction by ZEFSAII (Michael W. Deem and Ramdas Pophale) SiO2 
 PCOD9561385
Probable space group: I -4 2 D
;
_chemical_formula_sum "Si O2"
_cell_formula_units_Z 52
_cell_length_a 10.793872
_cell_length_b 10.793872
_cell_length_c 21.035939
_cell_angle_alpha 90.000000
_cell_angle_beta 90.000000
_cell_angle_gamma 90.000000
_cell_volume 2450.848297
_symmetry_space_group_name_H-M "I -4 2 D"
_symmetry_group_IT_number 122
_symmetry_cell_setting 'tetragonal'
loop_
_space_group_symop_operation_xyz
x,y,z
y,-x,-z
-x,-y,z
-y,x,-z
x,1/2-y,1/4-z
-x,1/2+y,1/4-z
-y,1/2-x,1/4+z
y,1/2+x,1/4+z
1/2+x,1/2+y,1/2+z
1/2+y,1/2-x,1/2-z
1/2-x,1/2-y,1/2+z
1/2-y,1/2+x,1/2-z
1/2+x,-y,3/4-z
1/2-x,y,3/4-z
1/2-y,-x,3/4+z
1/2+y,x,3/4+z
loop_
_atom_site_type_symbol
_atom_site_label
_atom_site_fract_x
_atom_site_fract_y
_atom_site_fract_z
Si Si1 0.118017 0.799796 0.905066
Si Si2 0.469757 0.136013 0.076653
Si Si3 0.463638 0.698419 0.978587
Si Si4 0.000000 0.500000 0.250000
O O1 0.250000 0.840614 0.875000
O O2 0.136667 0.672998 0.944068
O O3 0.043472 0.745123 0.843795
O O4 0.057433 0.898716 0.951501
O O5 0.484399 0.250000 0.125000
O O6 0.500000 0.000000 0.102332
O O7 0.555066 0.175981 0.018622
O O8 0.593776 0.635130 0.999880
#
# Coordination Sequence:
#
# PCOD9561385 Si02
#       4
#    16  16  16   4
#     4  11  26  49  67 107 148 192 252 304 373 468
#     4  11  23  42  73 106 144 189 246 310 380 445
#     4  11  22  43  77 111 145 187 249 319 375 450
#     4  12  32  48  72 104 160 200 248 306 396 468
#
# _framework density 21.217141999999999
#
# number of rings (size 3 to 8) (size 9 to 14) (size 15 to 20)
#    0.000    0.923    6.154    1.846    6.462    0.000 
#    0.000    1.538    0.000    0.000    0.000    0.000 
#    0.000    0.000    0.000    0.000    0.000    0.000 
#
# Total GULP energy -144901.014981 kJ/mol
# GULP energy per Si atom -5573.115961 kJ/mol
# Density = 2.116885 g / cm^3
# Si number density = 21.217142 Si / 1000 Ang^3
#
#
#
# Elastic Constant Matrix: (Units=GPa)
#
#
# Indices 1 2 3 4 5 6 
#
# 1 130.1674 66.1253 74.8144 0.0000 0.0000 0.0000
# 2 66.1253 130.1674 74.8144 0.0000 0.0000 0.0000
# 3 74.8144 74.8144 122.6828 0.0000 0.0000 0.0000
# 4 0.0000 0.0000 0.0000 32.4822 0.0000 0.0000
# 5 0.0000 0.0000 0.0000 0.0000 32.4822 0.0000
# 6 0.0000 0.0000 0.0000 0.0000 0.0000 25.7274
#
#
#
# Elastic Compliance Matrix: (Units=1/GPa)
#
#
# Indices 1 2 3 4 5 6 
#
# 1 0.012567 -0.003048 -0.005805 0.000000 0.000000 0.000000
# 2 -0.003048 0.012567 -0.005805 0.000000 0.000000 0.000000
# 3 -0.005805 -0.005805 0.015231 0.000000 0.000000 0.000000
# 4 0.000000 0.000000 0.000000 0.030786 0.000000 0.000000
# 5 0.000000 0.000000 0.000000 0.000000 0.030786 0.000000
# 6 0.000000 0.000000 0.000000 0.000000 0.000000 0.038869
#
#
# Mechanical properties :
#
#
# Convention : Reuss Voigt Hill
#
# Bulk Modulus (GPa) = 90.50060 90.50286 90.50173
# Shear Modulus (GPa) = 28.76763 29.28924 29.02843
#
# Velocity S-wave (km/s) = 3.68620 3.71947 3.70288
# Velocity P-wave (km/s) = 7.80157 7.82267 7.81213
#
# Compressibility (1/GPa) = 0.01104965
#
# Stress axis : x y z
#
# Youngs Moduli (GPa) = 79.57234 79.57234 65.65379
#
# Poissons Ratio (x) = 0.24250 0.38114
# Poissons Ratio (y) = 0.24250 0.38114
# Poissons Ratio (z) = 0.46194 0.46194
#
# Static dielectric constant tensor:
#      x y z
#    x 1.813670 0.000000 0.000000 
#    y 0.000000 1.813670 0.000000 
#    z 0.000000 0.000000 1.858770 
# 
# From -- ./inp_files/6809.got.cif
#   From: 2010.05.17/outbox.cif.g08.bks.cpg/sg122_4_cif.got.tgz:6809.got - 2010.05.20 11:37:33.
