data_PCOD9561226
_publ_section_title
;
Structure prediction by ZEFSAII (Michael W. Deem and Ramdas Pophale) SiO2 
 PCOD9561226
Probable space group: I -4 2 D
;
_chemical_formula_sum "Si O2"
_cell_formula_units_Z 84
_cell_length_a 11.172402
_cell_length_b 11.172402
_cell_length_c 30.506580
_cell_angle_alpha 90.000000
_cell_angle_beta 90.000000
_cell_angle_gamma 90.000000
_cell_volume 3807.909609
_symmetry_space_group_name_H-M "I -4 2 D"
_symmetry_group_IT_number 122
_symmetry_cell_setting 'tetragonal'
loop_
_space_group_symop_operation_xyz
x,y,z
y,-x,-z
-x,-y,z
-y,x,-z
x,1/2-y,1/4-z
-x,1/2+y,1/4-z
-y,1/2-x,1/4+z
y,1/2+x,1/4+z
1/2+x,1/2+y,1/2+z
1/2+y,1/2-x,1/2-z
1/2-x,1/2-y,1/2+z
1/2-y,1/2+x,1/2-z
1/2+x,-y,3/4-z
1/2-x,y,3/4-z
1/2-y,-x,3/4+z
1/2+y,x,3/4+z
loop_
_atom_site_type_symbol
_atom_site_label
_atom_site_fract_x
_atom_site_fract_y
_atom_site_fract_z
Si Si1 0.897441 0.308040 0.686047
Si Si2 0.500000 0.500000 0.000000
Si Si3 0.503082 0.669583 0.525916
Si Si4 0.500000 0.500000 0.607030
Si Si5 0.264608 0.502223 0.125757
Si Si6 0.867026 0.445623 0.530055
Si Si7 0.750000 0.391059 0.875000
O O1 0.927851 0.411531 0.719512
O O2 0.826037 0.382685 0.648127
O O3 0.849515 0.196716 0.713711
O O4 0.016247 0.248217 0.665290
O O5 0.614466 0.608757 0.500449
O O6 0.501744 0.615899 0.574458
O O7 0.511852 0.808332 0.515463
O O8 0.623657 0.495846 0.632688
O O9 0.291884 0.509578 0.177708
O O10 0.318108 0.371145 0.115526
O O11 0.000000 0.500000 0.533635
#
# Coordination Sequence:
#
# PCOD9561226 Si02
#       7
#    16   4  16   8  16  16   8
#     4  12  25  44  72 103 140 190 240 298 362 435
#     4  12  28  48  68  96 146 184 230 308 368 404
#     4   9  18  38  65  98 130 185 233 277 353 413
#     4  10  23  44  76 100 145 196 237 304 348 434
#     4  12  22  45  73 103 139 192 244 291 367 424
#     4  12  22  38  73 104 140 191 240 290 353 438
#     4  12  22  42  76 104 140 182 246 292 360 446
#
# _framework density 22.059346000000001
#
# number of rings (size 3 to 8) (size 9 to 14) (size 15 to 20)
#    0.000    0.952    9.524    0.000    0.000    3.048 
#    3.429    0.000    2.095    0.000    0.000    0.000 
#    0.000    0.000    0.000    0.000    0.000    0.000 
#
# Total GULP energy -234273.131100 kJ/mol
# GULP energy per Si atom -5577.931693 kJ/mol
# Density = 2.200914 g / cm^3
# Si number density = 22.059346 Si / 1000 Ang^3
#
#
#
# Elastic Constant Matrix: (Units=GPa)
#
#
# Indices 1 2 3 4 5 6 
#
# 1 120.7502 52.2699 13.1307 0.0000 0.0000 0.0000
# 2 52.2699 120.7502 13.1307 0.0000 0.0000 0.0000
# 3 13.1307 13.1307 35.6473 0.0000 0.0000 0.0000
# 4 0.0000 0.0000 0.0000 17.2478 0.0000 0.0000
# 5 0.0000 0.0000 0.0000 0.0000 17.2478 0.0000
# 6 0.0000 0.0000 0.0000 0.0000 0.0000 9.0242
#
#
#
# Elastic Compliance Matrix: (Units=1/GPa)
#
#
# Indices 1 2 3 4 5 6 
#
# 1 0.010362 -0.004240 -0.002255 0.000000 0.000000 0.000000
# 2 -0.004240 0.010362 -0.002255 0.000000 0.000000 0.000000
# 3 -0.002255 -0.002255 0.029714 0.000000 0.000000 0.000000
# 4 0.000000 0.000000 0.000000 0.057978 0.000000 0.000000
# 5 0.000000 0.000000 0.000000 0.000000 0.057978 0.000000
# 6 0.000000 0.000000 0.000000 0.000000 0.000000 0.110813
#
#
# Mechanical properties :
#
#
# Convention : Reuss Voigt Hill
#
# Bulk Modulus (GPa) = 30.36037 48.24559 39.30298
# Shear Modulus (GPa) = 16.35651 21.94506 19.15079
#
# Velocity S-wave (km/s) = 2.72596 3.15750 2.94963
# Velocity P-wave (km/s) = 4.86834 5.93391 5.42734
#
# Compressibility (1/GPa) = 0.03293768
#
# Stress axis : x y z
#
# Youngs Moduli (GPa) = 96.50322 96.50321 33.65434
#
# Poissons Ratio (x) = 0.40921 0.07589
# Poissons Ratio (y) = 0.40921 0.07589
# Poissons Ratio (z) = 0.21762 0.21762
#
# Static dielectric constant tensor:
#      x y z
#    x 1.889210 0.000000 0.000000 
#    y 0.000000 1.889210 0.000000 
#    z 0.000000 0.000000 1.830110 
# 
# From -- ./inp_files/9565.got.cif
#   From: 2010.05.17/outbox.cif.g08.bks.cpg/sg122_5_cif.got.tgz:9565.got - 2010.05.20 11:37:33.
