data_PCOD9561409
_publ_section_title
;
Structure prediction by ZEFSAII (Michael W. Deem and Ramdas Pophale) SiO2 
 PCOD9561409
Probable space group: I -4 2 D
;
_chemical_formula_sum "Si O2"
_cell_formula_units_Z 48
_cell_length_a 15.703832
_cell_length_b 15.703832
_cell_length_c 7.870748
_cell_angle_alpha 90.000000
_cell_angle_beta 90.000000
_cell_angle_gamma 90.000000
_cell_volume 1941.007836
_symmetry_space_group_name_H-M "I -4 2 D"
_symmetry_group_IT_number 122
_symmetry_cell_setting 'tetragonal'
loop_
_space_group_symop_operation_xyz
x,y,z
y,-x,-z
-x,-y,z
-y,x,-z
x,1/2-y,1/4-z
-x,1/2+y,1/4-z
-y,1/2-x,1/4+z
y,1/2+x,1/4+z
1/2+x,1/2+y,1/2+z
1/2+y,1/2-x,1/2-z
1/2-x,1/2-y,1/2+z
1/2-y,1/2+x,1/2-z
1/2+x,-y,3/4-z
1/2-x,y,3/4-z
1/2-y,-x,3/4+z
1/2+y,x,3/4+z
loop_
_atom_site_type_symbol
_atom_site_label
_atom_site_fract_x
_atom_site_fract_y
_atom_site_fract_z
Si Si1 0.244759 0.839787 0.673231
Si Si2 0.087817 0.896722 0.454120
Si Si3 0.897433 0.053702 0.092565
O O1 0.287651 0.750000 0.625000
O O2 0.250000 0.836344 0.875000
O O3 0.339773 0.654109 0.056206
O O4 0.299070 0.924579 0.641614
O O5 0.070207 0.890611 0.252740
O O6 0.996346 0.886078 0.538396
O O7 0.952509 0.087148 0.929742
#
# Coordination Sequence:
#
# PCOD9561409 Si02
#       3
#    16  16  16
#     4  12  26  44  66  98 136 178 230 290 346 410
#     4  11  23  43  68  97 132 177 227 282 346 412
#     4  11  23  43  68  97 132 177 227 282 344 412
#
# _framework density 24.729420999999999
#
# number of rings (size 3 to 8) (size 9 to 14) (size 15 to 20)
#    0.000    0.667    0.000   11.000    0.000    9.333 
#    0.000    0.000    0.000    0.000    0.000    0.000 
#    0.000    0.000    0.000    0.000    0.000    0.000 
#
# Total GULP energy -133612.747641 kJ/mol
# GULP energy per Si atom -5567.197818 kJ/mol
# Density = 2.467314 g / cm^3
# Si number density = 24.729421 Si / 1000 Ang^3
#
#
#
# Elastic Constant Matrix: (Units=GPa)
#
#
# Indices 1 2 3 4 5 6 
#
# 1 66.9200 33.3589 17.7344 0.0000 0.0000 0.0000
# 2 33.3589 66.9200 17.7344 0.0000 0.0000 0.0000
# 3 17.7344 17.7344 107.3941 0.0000 0.0000 0.0000
# 4 0.0000 0.0000 0.0000 -17.8072 0.0000 0.0000
# 5 0.0000 0.0000 0.0000 0.0000 -17.8072 0.0000
# 6 0.0000 0.0000 0.0000 0.0000 0.0000 25.1673
#
#
#
# Elastic Compliance Matrix: (Units=1/GPa)
#
#
# Indices 1 2 3 4 5 6 
#
# 1 0.020194 -0.009603 -0.001749 0.000000 0.000000 0.000000
# 2 -0.009603 0.020194 -0.001749 0.000000 0.000000 0.000000
# 3 -0.001749 -0.001749 0.009889 0.000000 0.000000 0.000000
# 4 0.000000 0.000000 0.000000 -0.056157 0.000000 0.000000
# 5 0.000000 0.000000 0.000000 0.000000 -0.056157 0.000000
# 6 0.000000 0.000000 0.000000 0.000000 0.000000 0.039734
#
#
# Mechanical properties :
#
#
# Convention : Reuss Voigt Hill
#
# Bulk Modulus (GPa) = 41.53674 42.09883 41.81778
# Shear Modulus (GPa) = 419.36977 9.40433 214.38705
#
# Velocity S-wave (km/s) = 13.03654 1.95222 9.32101
# Velocity P-wave (km/s) = 15.60240 4.70556 11.52339
#
# Compressibility (1/GPa) = 0.02407507
#
# Stress axis : x y z
#
# Youngs Moduli (GPa) = 49.52072 49.52072 101.12135
#
# Poissons Ratio (x) = 0.47554 0.17685
# Poissons Ratio (y) = 0.47554 0.17685
# Poissons Ratio (z) = 0.08661 0.08661
#
# Static dielectric constant tensor:
#      x y z
#    x 2.018700 0.000000 0.000000 
#    y 0.000000 2.018700 0.000000 
#    z 0.000000 0.000000 2.404530 
# 
# From -- ./inp_files/2026.got.cif
#   From: 2010.05.17/outbox.cif.g08.bks.cpg/sg122_2_cif.got.tgz:2026.got - 2010.05.20 11:37:33.
