data_PCOD9561791
_publ_section_title
;
Structure prediction by ZEFSAII (Michael W. Deem and Ramdas Pophale) SiO2 
 PCOD9561791
Probable space group: P 4/M M M
;
_chemical_formula_sum "Si O2"
_cell_formula_units_Z 88
_cell_length_a 13.775813
_cell_length_b 13.775813
_cell_length_c 29.067980
_cell_angle_alpha 90.000000
_cell_angle_beta 90.000000
_cell_angle_gamma 90.000000
_cell_volume 5516.318461
_symmetry_space_group_name_H-M "P 4/M M M"
_symmetry_group_IT_number 123
_symmetry_cell_setting 'tetragonal'
loop_
_space_group_symop_operation_xyz
x,y,z
-y,x,z
-x,-y,z
y,-x,z
x,-y,-z
-x,y,-z
y,x,-z
-y,-x,-z
-x,-y,-z
y,-x,-z
x,y,-z
-y,x,-z
-x,y,z
x,-y,z
-y,-x,z
y,x,z
loop_
_atom_site_type_symbol
_atom_site_label
_atom_site_fract_x
_atom_site_fract_y
_atom_site_fract_z
Si Si1 0.117560 0.610828 0.907610
Si Si2 0.615009 0.225504 0.551890
Si Si3 0.617628 0.109527 0.358309
Si Si4 0.883816 0.724323 0.185635
Si Si5 0.774436 0.383876 0.733594
Si Si6 0.116845 0.725476 0.000000
O O1 0.153739 0.500000 0.905778
O O2 0.143105 0.671789 0.862368
O O3 0.000000 0.606082 0.908088
O O4 0.145106 0.665181 0.954493
O O5 0.630664 0.186618 0.500000
O O6 0.500000 0.243868 0.556886
O O7 0.676073 0.323928 0.555997
O O8 0.646488 0.154163 0.592662
O O9 0.500000 0.105227 0.358673
O O10 0.642836 0.177866 0.315534
O O11 0.654087 0.000000 0.352016
O O12 0.825084 0.825084 0.188718
O O13 0.845681 0.656040 0.226787
O O14 0.000000 0.736377 0.187632
O O15 0.764296 0.500000 0.736387
O O16 0.673337 0.326664 0.738451
O O17 0.173179 0.826822 0.000000
O O18 0.000000 0.738165 0.000000
#
# Coordination Sequence:
#
# PCOD9561791 Si02
#       6
#    16  16  16  16  16   8
#     4   9  17  30  48  68  91 121 157 198 242 284
#     4   9  17  28  42  62  89 120 153 189 230 278
#     4   9  17  29  45  64  87 117 152 189 230 276
#     4  10  20  33  50  73 100 130 164 200 239 286
#     4  10  20  33  50  72  97 126 160 197 239 287
#     4  10  19  30  45  67  96 128 161 197 240 291
#
# _framework density 15.952669
#
# number of rings (size 3 to 8) (size 9 to 14) (size 15 to 20)
#    0.000    2.545    0.000    2.455    0.000    3.909 
#    0.000    2.727    0.000    6.545    0.000    0.000 
#    0.000   17.091    0.000    8.000    0.000    0.727 
#
# Total GULP energy -490279.448735 kJ/mol
# GULP energy per Si atom -5571.357372 kJ/mol
# Density = 1.591636 g / cm^3
# Si number density = 15.952669 Si / 1000 Ang^3
#
#
#
# Elastic Constant Matrix: (Units=GPa)
#
#
# Indices 1 2 3 4 5 6 
#
# 1 79.6819 48.6460 45.9287 0.0000 0.0000 0.0000
# 2 48.6460 79.6810 45.9286 0.0000 0.0000 0.0000
# 3 45.9287 45.9286 129.6831 0.0000 0.0000 0.0000
# 4 0.0000 0.0000 0.0000 22.9270 0.0000 0.0000
# 5 0.0000 0.0000 0.0000 0.0000 22.9273 0.0000
# 6 0.0000 0.0000 0.0000 0.0000 0.0000 8.7259
#
#
#
# Elastic Compliance Matrix: (Units=1/GPa)
#
#
# Indices 1 2 3 4 5 6 
#
# 1 0.021330 -0.010891 -0.003697 0.000000 0.000000 0.000000
# 2 -0.010891 0.021330 -0.003697 0.000000 0.000000 0.000000
# 3 -0.003697 -0.003697 0.010330 0.000000 0.000000 0.000000
# 4 0.000000 0.000000 0.000000 0.043617 0.000000 0.000000
# 5 0.000000 0.000000 0.000000 0.000000 0.043616 0.000000
# 6 0.000000 0.000000 0.000000 0.000000 0.000000 0.114602
#
#
# Mechanical properties :
#
#
# Convention : Reuss Voigt Hill
#
# Bulk Modulus (GPa) = 60.90342 63.33918 62.12130
# Shear Modulus (GPa) = 16.84249 20.81888 18.83068
#
# Velocity S-wave (km/s) = 3.25280 3.61645 3.43944
# Velocity P-wave (km/s) = 7.23658 7.56498 7.40260
#
# Compressibility (1/GPa) = 0.01641944
#
# Stress axis : x y z
#
# Youngs Moduli (GPa) = 46.88242 46.88179 96.80714
#
# Poissons Ratio (x) = 0.51060 0.35790
# Poissons Ratio (y) = 0.51060 0.35791
# Poissons Ratio (z) = 0.17333 0.17333
#
# Static dielectric constant tensor:
#      x y z
#    x 1.515550 0.000000 0.000000 
#    y 0.000000 1.515550 0.000000 
#    z 0.000000 0.000000 1.547680 
# 
# From -- ./inp_files/8496.got.cif
#   From: 2010.05.17/outbox.cif.g08.bks.cpg/sg123_5_cif.got.tgz:8496.got - 2010.05.20 11:43:04.
