data_PCOD9561201
_publ_section_title
;
Structure prediction by ZEFSAII (Michael W. Deem and Ramdas Pophale) SiO2 
 PCOD9561201
Probable space group: I -4 2 D
;
_chemical_formula_sum "Si O2"
_cell_formula_units_Z 48
_cell_length_a 8.848840
_cell_length_b 8.848840
_cell_length_c 24.527435
_cell_angle_alpha 90.000000
_cell_angle_beta 90.000000
_cell_angle_gamma 90.000000
_cell_volume 1920.546463
_symmetry_space_group_name_H-M "I -4 2 D"
_symmetry_group_IT_number 122
_symmetry_cell_setting 'tetragonal'
loop_
_space_group_symop_operation_xyz
x,y,z
y,-x,-z
-x,-y,z
-y,x,-z
x,1/2-y,1/4-z
-x,1/2+y,1/4-z
-y,1/2-x,1/4+z
y,1/2+x,1/4+z
1/2+x,1/2+y,1/2+z
1/2+y,1/2-x,1/2-z
1/2-x,1/2-y,1/2+z
1/2-y,1/2+x,1/2-z
1/2+x,-y,3/4-z
1/2-x,y,3/4-z
1/2-y,-x,3/4+z
1/2+y,x,3/4+z
loop_
_atom_site_type_symbol
_atom_site_label
_atom_site_fract_x
_atom_site_fract_y
_atom_site_fract_z
Si Si1 0.732240 0.584279 0.987386
Si Si2 0.747858 0.250000 0.125000
Si Si3 0.926840 0.697692 0.218260
Si Si4 0.000000 0.500000 0.378998
O O1 0.777851 0.637520 0.926650
O O2 0.679547 0.412531 0.991255
O O3 0.870222 0.632968 0.026863
O O4 0.861473 0.384966 0.105750
O O5 0.829369 0.595485 0.260243
O O6 0.909953 0.616352 0.161269
#
# Coordination Sequence:
#
# PCOD9561201 Si02
#       4
#    16   8  16   8
#     4  11  26  46  65  99 150 185 234 298 365 424
#     4  12  24  46  72 106 138 192 246 294 376 440
#     4   9  17  41  65  94 128 170 225 294 343 410
#     4  10  23  40  70 106 130 172 244 282 357 436
#
# _framework density 24.992887
#
# number of rings (size 3 to 8) (size 9 to 14) (size 15 to 20)
#    0.000    2.000    6.667    0.000    4.667    1.333 
#   12.000    0.000    0.000    0.000    0.000    0.000 
#    0.000    0.000    0.000    0.000    0.000    0.000 
#
# Total GULP energy -133846.131231 kJ/mol
# GULP energy per Si atom -5576.922135 kJ/mol
# Density = 2.493600 g / cm^3
# Si number density = 24.992887 Si / 1000 Ang^3
#
#
#
# Elastic Constant Matrix: (Units=GPa)
#
#
# Indices 1 2 3 4 5 6 
#
# 1 80.4402 33.4862 -0.0548 0.0000 0.0000 0.0000
# 2 33.4862 80.4402 -0.0548 0.0000 0.0000 0.0000
# 3 -0.0548 -0.0548 38.4261 0.0000 0.0000 0.0000
# 4 0.0000 0.0000 0.0000 20.7310 0.0000 0.0000
# 5 0.0000 0.0000 0.0000 0.0000 20.7310 0.0000
# 6 0.0000 0.0000 0.0000 0.0000 0.0000 52.8364
#
#
#
# Elastic Compliance Matrix: (Units=1/GPa)
#
#
# Indices 1 2 3 4 5 6 
#
# 1 0.015038 -0.006260 0.000013 0.000000 0.000000 0.000000
# 2 -0.006260 0.015038 0.000013 0.000000 0.000000 0.000000
# 3 0.000013 0.000013 0.026024 0.000000 0.000000 0.000000
# 4 0.000000 0.000000 0.000000 0.048237 0.000000 0.000000
# 5 0.000000 0.000000 0.000000 0.000000 0.048237 0.000000
# 6 0.000000 0.000000 0.000000 0.000000 0.000000 0.018926
#
#
# Mechanical properties :
#
#
# Convention : Reuss Voigt Hill
#
# Bulk Modulus (GPa) = 22.92040 29.56221 26.24130
# Shear Modulus (GPa) = 25.18735 29.92165 27.55450
#
# Velocity S-wave (km/s) = 3.17800 3.46382 3.32398
# Velocity P-wave (km/s) = 4.75993 5.27744 5.02535
#
# Compressibility (1/GPa) = 0.04362926
#
# Stress axis : x y z
#
# Youngs Moduli (GPa) = 66.50028 66.50028 38.42608
#
# Poissons Ratio (x) = 0.41629 -0.00048
# Poissons Ratio (y) = 0.41629 -0.00048
# Poissons Ratio (z) = -0.00083 -0.00083
#
# Static dielectric constant tensor:
#      x y z
#    x 1.996860 0.000000 0.000000 
#    y 0.000000 1.996860 0.000000 
#    z 0.000000 0.000000 2.087680 
# 
# From -- ./inp_files/9128.got.cif
#   From: 2010.05.17/outbox.cif.g08.bks.cpg/sg122_5_cif.got.tgz:9128.got - 2010.05.20 11:37:33.
