data_PCOD9561328
_publ_section_title
;
Structure prediction by ZEFSAII (Michael W. Deem and Ramdas Pophale) SiO2 
 PCOD9561328
Probable space group: I -4 2 D
;
_chemical_formula_sum "Si O2"
_cell_formula_units_Z 84
_cell_length_a 22.632394
_cell_length_b 22.632394
_cell_length_c 9.643179
_cell_angle_alpha 90.000000
_cell_angle_beta 90.000000
_cell_angle_gamma 90.000000
_cell_volume 4939.479853
_symmetry_space_group_name_H-M "I -4 2 D"
_symmetry_group_IT_number 122
_symmetry_cell_setting 'tetragonal'
loop_
_space_group_symop_operation_xyz
x,y,z
y,-x,-z
-x,-y,z
-y,x,-z
x,1/2-y,1/4-z
-x,1/2+y,1/4-z
-y,1/2-x,1/4+z
y,1/2+x,1/4+z
1/2+x,1/2+y,1/2+z
1/2+y,1/2-x,1/2-z
1/2-x,1/2-y,1/2+z
1/2-y,1/2+x,1/2-z
1/2+x,-y,3/4-z
1/2-x,y,3/4-z
1/2-y,-x,3/4+z
1/2+y,x,3/4+z
loop_
_atom_site_type_symbol
_atom_site_label
_atom_site_fract_x
_atom_site_fract_y
_atom_site_fract_z
Si Si1 0.574308 0.303119 0.531940
Si Si2 0.416426 0.049651 0.277963
Si Si3 0.995741 0.120005 0.817685
Si Si4 0.695503 0.241361 0.466257
Si Si5 0.500000 0.500000 0.500000
Si Si6 0.628095 0.125074 0.466857
O O1 0.548135 0.250000 0.625000
O O2 0.532199 0.333033 0.421800
O O3 0.633299 0.276817 0.457944
O O4 0.594606 0.350057 0.647522
O O5 0.482546 0.076353 0.276973
O O6 0.378426 0.086723 0.168596
O O7 0.392412 0.045158 0.433756
O O8 0.058050 0.142891 0.757522
O O9 0.003520 0.058106 0.901697
O O10 0.713493 0.250000 0.625000
O O11 0.750000 0.261666 0.375000
O O12 0.679427 0.172666 0.440625
#
# Coordination Sequence:
#
# PCOD9561328 Si02
#       6
#    16  16  16  16   4  16
#     4   9  20  37  55  77 111 147 185 232 273 327
#     4   9  18  30  48  79 116 145 176 217 274 337
#     4  11  19  32  55  87 112 149 183 219 282 336
#     4   9  20  39  59  74 100 146 190 239 280 323
#     4  12  20  28  62  84 120 148 190 220 268 356
#     4   9  18  35  53  77 112 140 182 233 273 329
#
# _framework density 17.005839000000002
#
# number of rings (size 3 to 8) (size 9 to 14) (size 15 to 20)
#    0.000    2.857    1.905    2.286    0.000    1.524 
#    0.000   14.286    0.000    0.000    0.000    0.000 
#    0.000    0.000    0.000    0.000    0.000    0.000 
#
# Total GULP energy -233875.180312 kJ/mol
# GULP energy per Si atom -5568.456674 kJ/mol
# Density = 1.696713 g / cm^3
# Si number density = 17.005839 Si / 1000 Ang^3
#
#
#
# Elastic Constant Matrix: (Units=GPa)
#
#
# Indices 1 2 3 4 5 6 
#
# 1 64.2641 32.5124 43.7121 0.0000 0.0000 0.0000
# 2 32.5124 64.2641 43.7121 0.0000 0.0000 0.0000
# 3 43.7121 43.7121 74.5681 0.0000 0.0000 0.0000
# 4 0.0000 0.0000 0.0000 25.6067 0.0000 0.0000
# 5 0.0000 0.0000 0.0000 0.0000 25.6067 0.0000
# 6 0.0000 0.0000 0.0000 0.0000 0.0000 5.0723
#
#
#
# Elastic Compliance Matrix: (Units=1/GPa)
#
#
# Indices 1 2 3 4 5 6 
#
# 1 0.026729 -0.004765 -0.012876 0.000000 0.000000 0.000000
# 2 -0.004765 0.026729 -0.012876 0.000000 0.000000 0.000000
# 3 -0.012876 -0.012876 0.028506 0.000000 0.000000 0.000000
# 4 0.000000 0.000000 0.000000 0.039052 0.000000 0.000000
# 5 0.000000 0.000000 0.000000 0.000000 0.039052 0.000000
# 6 0.000000 0.000000 0.000000 0.000000 0.000000 0.197150
#
#
# Mechanical properties :
#
#
# Convention : Reuss Voigt Hill
#
# Bulk Modulus (GPa) = 47.77287 49.21885 48.49586
# Shear Modulus (GPa) = 11.75834 16.80110 14.27972
#
# Velocity S-wave (km/s) = 2.63236 3.14659 2.90089
# Velocity P-wave (km/s) = 6.11491 6.49666 6.30867
#
# Compressibility (1/GPa) = 0.02093238
#
# Stress axis : x y z
#
# Youngs Moduli (GPa) = 37.41198 37.41198 35.08014
#
# Poissons Ratio (x) = 0.17826 0.45168
# Poissons Ratio (y) = 0.17826 0.45168
# Poissons Ratio (z) = 0.48171 0.48171
#
# Static dielectric constant tensor:
#      x y z
#    x 1.584880 0.000000 0.000000 
#    y 0.000000 1.584880 0.000000 
#    z 0.000000 0.000000 1.559790 
# 
# From -- ./inp_files/2832.got.cif
#   From: 2010.05.17/outbox.cif.g08.bks.cpg/sg122_2_cif.got.tgz:2832.got - 2010.05.20 11:37:33.
