data_PCOD9561243
_publ_section_title
;
Structure prediction by ZEFSAII (Michael W. Deem and Ramdas Pophale) SiO2 
 PCOD9561243
Probable space group: I -4 2 D
;
_chemical_formula_sum "Si O2"
_cell_formula_units_Z 80
_cell_length_a 13.938783
_cell_length_b 13.938783
_cell_length_c 17.989395
_cell_angle_alpha 90.000000
_cell_angle_beta 90.000000
_cell_angle_gamma 90.000000
_cell_volume 3495.153645
_symmetry_space_group_name_H-M "I -4 2 D"
_symmetry_group_IT_number 122
_symmetry_cell_setting 'tetragonal'
loop_
_space_group_symop_operation_xyz
x,y,z
y,-x,-z
-x,-y,z
-y,x,-z
x,1/2-y,1/4-z
-x,1/2+y,1/4-z
-y,1/2-x,1/4+z
y,1/2+x,1/4+z
1/2+x,1/2+y,1/2+z
1/2+y,1/2-x,1/2-z
1/2-x,1/2-y,1/2+z
1/2-y,1/2+x,1/2-z
1/2+x,-y,3/4-z
1/2-x,y,3/4-z
1/2-y,-x,3/4+z
1/2+y,x,3/4+z
loop_
_atom_site_type_symbol
_atom_site_label
_atom_site_fract_x
_atom_site_fract_y
_atom_site_fract_z
Si Si1 0.143084 0.466728 0.861490
Si Si2 0.239692 0.564032 0.464497
Si Si3 0.585051 0.711557 0.972764
Si Si4 0.103131 0.023218 0.227470
Si Si5 0.736855 0.658377 0.464176
O O1 0.250000 0.427448 0.875000
O O2 0.085707 0.374150 0.835857
O O3 0.161223 0.541659 0.795838
O O4 0.105586 0.513018 0.937016
O O5 0.250000 0.568725 0.375000
O O6 0.136557 0.608493 0.482329
O O7 0.241172 0.451702 0.486096
O O8 0.315341 0.631333 0.506595
O O9 0.686643 0.761791 0.991510
O O10 0.521736 0.801156 0.944029
O O11 0.000000 0.000000 0.192039
O O12 0.750000 0.662482 0.375000
#
# Coordination Sequence:
#
# PCOD9561243 Si02
#       5
#    16  16  16  16  16
#     4  10  24  40  65 102 136 182 234 276 348 416
#     4  11  26  46  72 104 135 183 243 283 356 419
#     4  11  22  43  69  97 140 182 227 280 349 416
#     4  11  23  44  64  98 136 181 220 290 345 408
#     4  11  24  47  71 103 143 186 231 301 347 405
#
# _framework density 22.888835
#
# number of rings (size 3 to 8) (size 9 to 14) (size 15 to 20)
#    0.000    1.200    2.000    4.200    2.800    6.000 
#    0.000    0.000    0.000    0.000    0.000    0.000 
#    0.000    0.000    0.000    0.000    0.000    0.000 
#
# Total GULP energy -223606.715524 kJ/mol
# GULP energy per Si atom -5590.167888 kJ/mol
# Density = 2.283674 g / cm^3
# Si number density = 22.888835 Si / 1000 Ang^3
#
#
#
# Elastic Constant Matrix: (Units=GPa)
#
#
# Indices 1 2 3 4 5 6 
#
# 1 86.3257 32.4956 14.7814 0.0000 0.0000 0.0000
# 2 32.4956 86.3257 14.7814 0.0000 0.0000 0.0000
# 3 14.7814 14.7814 60.1995 0.0000 0.0000 0.0000
# 4 0.0000 0.0000 0.0000 21.9823 0.0000 0.0000
# 5 0.0000 0.0000 0.0000 0.0000 21.9823 0.0000
# 6 0.0000 0.0000 0.0000 0.0000 0.0000 49.8929
#
#
#
# Elastic Compliance Matrix: (Units=1/GPa)
#
#
# Indices 1 2 3 4 5 6 
#
# 1 0.013770 -0.004807 -0.002201 0.000000 0.000000 0.000000
# 2 -0.004807 0.013770 -0.002201 0.000000 0.000000 0.000000
# 3 -0.002201 -0.002201 0.017692 0.000000 0.000000 0.000000
# 4 0.000000 0.000000 0.000000 0.045491 0.000000 0.000000
# 5 0.000000 0.000000 0.000000 0.000000 0.045491 0.000000
# 6 0.000000 0.000000 0.000000 0.000000 0.000000 0.020043
#
#
# Mechanical properties :
#
#
# Convention : Reuss Voigt Hill
#
# Bulk Modulus (GPa) = 37.29150 39.66306 38.47728
# Shear Modulus (GPa) = 27.23108 30.15767 28.69437
#
# Velocity S-wave (km/s) = 3.45296 3.63377 3.54452
# Velocity P-wave (km/s) = 5.67671 5.91371 5.79642
#
# Compressibility (1/GPa) = 0.02681576
#
# Stress axis : x y z
#
# Youngs Moduli (GPa) = 72.62016 72.62016 56.52189
#
# Poissons Ratio (x) = 0.34906 0.12440
# Poissons Ratio (y) = 0.34906 0.12440
# Poissons Ratio (z) = 0.15983 0.15983
#
# Static dielectric constant tensor:
#      x y z
#    x 1.868470 0.000000 0.000000 
#    y 0.000000 1.868470 0.000000 
#    z 0.000000 0.000000 1.980250 
# 
# From -- ./inp_files/7091.got.cif
#   From: 2010.05.17/outbox.cif.g08.bks.cpg/sg122_4_cif.got.tgz:7091.got - 2010.05.20 11:37:33.
