data_PCOD9561464
_publ_section_title
;
Structure prediction by ZEFSAII (Michael W. Deem and Ramdas Pophale) SiO2 
 PCOD9561464
Probable space group: I -4 2 D
;
_chemical_formula_sum "Si O2"
_cell_formula_units_Z 60
_cell_length_a 16.486325
_cell_length_b 16.486325
_cell_length_c 10.659243
_cell_angle_alpha 90.000000
_cell_angle_beta 90.000000
_cell_angle_gamma 90.000000
_cell_volume 2897.170650
_symmetry_space_group_name_H-M "I -4 2 D"
_symmetry_group_IT_number 122
_symmetry_cell_setting 'tetragonal'
loop_
_space_group_symop_operation_xyz
x,y,z
y,-x,-z
-x,-y,z
-y,x,-z
x,1/2-y,1/4-z
-x,1/2+y,1/4-z
-y,1/2-x,1/4+z
y,1/2+x,1/4+z
1/2+x,1/2+y,1/2+z
1/2+y,1/2-x,1/2-z
1/2-x,1/2-y,1/2+z
1/2-y,1/2+x,1/2-z
1/2+x,-y,3/4-z
1/2-x,y,3/4-z
1/2-y,-x,3/4+z
1/2+y,x,3/4+z
loop_
_atom_site_type_symbol
_atom_site_label
_atom_site_fract_x
_atom_site_fract_y
_atom_site_fract_z
Si Si1 0.250000 0.946646 0.875000
Si Si2 0.500000 0.500000 0.500000
Si Si3 0.382007 0.419240 0.327476
Si Si4 0.400598 0.925436 0.291242
Si Si5 0.843457 0.765422 0.376761
O O1 0.230460 0.889606 0.756297
O O2 0.324902 0.009228 0.871784
O O3 0.463965 0.432256 0.406557
O O4 0.395550 0.424106 0.179142
O O5 0.346037 0.330173 0.345216
O O6 0.477008 0.899057 0.206054
O O7 0.318947 0.889953 0.231022
O O8 0.750000 0.792813 0.375000
#
# Coordination Sequence:
#
# PCOD9561464 Si02
#       5
#     8   4  16  16  16
#     4  12  26  50  72 106 152 192 248 314 376 460
#     4  12  24  44  74 104 140 192 248 294 380 460
#     4  12  25  46  73 105 144 193 244 306 373 451
#     4  11  25  48  72 104 147 193 247 310 377 452
#     4  12  28  45  76 109 146 195 253 310 377 455
#
# _framework density 20.709859999999999
#
# number of rings (size 3 to 8) (size 9 to 14) (size 15 to 20)
#    0.000    0.267    6.667    2.400    3.733    2.133 
#    0.000    0.000    0.000    0.000    0.000    0.000 
#    0.000    0.000    0.000    0.000    0.000    0.000 
#
# Total GULP energy -167557.336731 kJ/mol
# GULP energy per Si atom -5585.244558 kJ/mol
# Density = 2.066272 g / cm^3
# Si number density = 20.709860 Si / 1000 Ang^3
#
#
#
# Elastic Constant Matrix: (Units=GPa)
#
#
# Indices 1 2 3 4 5 6 
#
# 1 104.2784 31.2340 36.0152 0.0000 0.0000 0.0000
# 2 31.2340 104.2784 36.0152 0.0000 0.0000 0.0000
# 3 36.0152 36.0152 95.4693 0.0000 0.0000 0.0000
# 4 0.0000 0.0000 0.0000 35.1257 0.0000 0.0000
# 5 0.0000 0.0000 0.0000 0.0000 35.1257 0.0000
# 6 0.0000 0.0000 0.0000 0.0000 0.0000 34.0109
#
#
#
# Elastic Compliance Matrix: (Units=1/GPa)
#
#
# Indices 1 2 3 4 5 6 
#
# 1 0.011460 -0.002230 -0.003482 0.000000 0.000000 0.000000
# 2 -0.002230 0.011460 -0.003482 0.000000 0.000000 0.000000
# 3 -0.003482 -0.003482 0.013102 0.000000 0.000000 0.000000
# 4 0.000000 0.000000 0.000000 0.028469 0.000000 0.000000
# 5 0.000000 0.000000 0.000000 0.000000 0.028469 0.000000
# 6 0.000000 0.000000 0.000000 0.000000 0.000000 0.029402
#
#
# Mechanical properties :
#
#
# Convention : Reuss Voigt Hill
#
# Bulk Modulus (GPa) = 56.70857 56.72834 56.71846
# Shear Modulus (GPa) = 34.09959 34.23657 34.16808
#
# Velocity S-wave (km/s) = 4.06216 4.07031 4.06624
# Velocity P-wave (km/s) = 7.03160 7.03856 7.03508
#
# Compressibility (1/GPa) = 0.01763402
#
# Stress axis : x y z
#
# Youngs Moduli (GPa) = 87.25794 87.25794 76.32578
#
# Poissons Ratio (x) = 0.19459 0.26577
# Poissons Ratio (y) = 0.19459 0.26577
# Poissons Ratio (z) = 0.30384 0.30384
#
# Static dielectric constant tensor:
#      x y z
#    x 1.775340 0.000000 0.000000 
#    y 0.000000 1.775340 0.000000 
#    z 0.000000 0.000000 1.769260 
# 
# From -- ./inp_files/2324.got.cif
#   From: 2010.05.17/outbox.cif.g08.bks.cpg/sg122_2_cif.got.tgz:2324.got - 2010.05.20 11:37:33.
