data_PCOD9561561
_publ_section_title
;
Structure prediction by ZEFSAII (Michael W. Deem and Ramdas Pophale) SiO2 
 PCOD9561561
Probable space group: I -4 2 D
;
_chemical_formula_sum "Si O2"
_cell_formula_units_Z 52
_cell_length_a 20.080401
_cell_length_b 20.080401
_cell_length_c 4.624776
_cell_angle_alpha 90.000000
_cell_angle_beta 90.000000
_cell_angle_gamma 90.000000
_cell_volume 1864.813761
_symmetry_space_group_name_H-M "I -4 2 D"
_symmetry_group_IT_number 122
_symmetry_cell_setting 'tetragonal'
loop_
_space_group_symop_operation_xyz
x,y,z
y,-x,-z
-x,-y,z
-y,x,-z
x,1/2-y,1/4-z
-x,1/2+y,1/4-z
-y,1/2-x,1/4+z
y,1/2+x,1/4+z
1/2+x,1/2+y,1/2+z
1/2+y,1/2-x,1/2-z
1/2-x,1/2-y,1/2+z
1/2-y,1/2+x,1/2-z
1/2+x,-y,3/4-z
1/2-x,y,3/4-z
1/2-y,-x,3/4+z
1/2+y,x,3/4+z
loop_
_atom_site_type_symbol
_atom_site_label
_atom_site_fract_x
_atom_site_fract_y
_atom_site_fract_z
Si Si1 0.355059 0.864852 0.950013
Si Si2 0.500000 0.500000 0.500000
Si Si3 0.950935 0.363723 0.957265
Si Si4 0.964693 0.750000 0.125000
Si Si5 0.293319 0.250000 0.125000
O O1 0.409978 0.887173 0.182304
O O2 0.303621 0.828763 0.167965
O O3 0.402543 0.835367 0.706787
O O4 0.308639 0.915705 0.765646
O O5 0.569190 0.515470 0.331590
O O6 0.995796 0.297770 0.902993
O O7 0.250000 0.285821 0.375000
#
# Coordination Sequence:
#
# PCOD9561561 Si02
#       5
#    16   4  16   8   8
#     4  12  29  52  75 120 157 216 276 351 413 521
#     4  12  28  58  76 122 164 222 272 370 408 530
#     4  12  30  49  86 115 165 217 290 346 434 506
#     4  12  29  54  84 118 170 225 284 358 436 524
#     4  12  27  48  76 110 160 207 266 338 416 504
#
# _framework density 27.884823999999998
#
# number of rings (size 3 to 8) (size 9 to 14) (size 15 to 20)
#    0.000    0.000    3.077    4.615   10.769    3.692 
#    0.000    0.000    0.000    0.000    0.000    0.000 
#    0.000    0.000    0.000    0.000    0.000    0.000 
#
# Total GULP energy -145016.515945 kJ/mol
# GULP energy per Si atom -5577.558306 kJ/mol
# Density = 2.782136 g / cm^3
# Si number density = 27.884824 Si / 1000 Ang^3
#
#
#
# Elastic Constant Matrix: (Units=GPa)
#
#
# Indices 1 2 3 4 5 6 
#
# 1 134.7435 70.5661 50.5339 0.0000 0.0000 0.0000
# 2 70.5661 134.7435 50.5339 0.0000 0.0000 0.0000
# 3 50.5339 50.5339 160.6864 0.0000 0.0000 0.0000
# 4 0.0000 0.0000 0.0000 35.0089 0.0000 0.0000
# 5 0.0000 0.0000 0.0000 0.0000 35.0089 0.0000
# 6 0.0000 0.0000 0.0000 0.0000 0.0000 39.0038
#
#
#
# Elastic Compliance Matrix: (Units=1/GPa)
#
#
# Indices 1 2 3 4 5 6 
#
# 1 0.010672 -0.004909 -0.001812 0.000000 0.000000 0.000000
# 2 -0.004909 0.010672 -0.001812 0.000000 0.000000 0.000000
# 3 -0.001812 -0.001812 0.007363 0.000000 0.000000 0.000000
# 4 0.000000 0.000000 0.000000 0.028564 0.000000 0.000000
# 5 0.000000 0.000000 0.000000 0.000000 0.028564 0.000000
# 6 0.000000 0.000000 0.000000 0.000000 0.000000 0.025639
#
#
# Mechanical properties :
#
#
# Convention : Reuss Voigt Hill
#
# Bulk Modulus (GPa) = 85.91400 85.93792 85.92596
# Shear Modulus (GPa) = 37.75781 39.04029 38.39905
#
# Velocity S-wave (km/s) = 3.68375 3.74579 3.71490
# Velocity P-wave (km/s) = 6.99790 7.04228 7.02012
#
# Compressibility (1/GPa) = 0.01163955
#
# Stress axis : x y z
#
# Youngs Moduli (GPa) = 93.70024 93.70024 135.81004
#
# Poissons Ratio (x) = 0.46002 0.24614
# Poissons Ratio (y) = 0.46002 0.24614
# Poissons Ratio (z) = 0.16982 0.16982
#
# Static dielectric constant tensor:
#      x y z
#    x 2.346640 0.000000 0.000000 
#    y 0.000000 2.346640 0.000000 
#    z 0.000000 0.000000 2.083680 
# 
# From -- ./inp_files/892.got.cif
#   From: 2010.05.17/outbox.cif.g08.bks.cpg/sg122_1_cif.got.tgz:892.got - 2010.05.20 11:37:33.
