data_PCOD9561348
_publ_section_title
;
Structure prediction by ZEFSAII (Michael W. Deem and Ramdas Pophale) SiO2 
 PCOD9561348
Probable space group: I -4 2 D
;
_chemical_formula_sum "Si O2"
_cell_formula_units_Z 96
_cell_length_a 20.350951
_cell_length_b 20.350951
_cell_length_c 12.221675
_cell_angle_alpha 90.000000
_cell_angle_beta 90.000000
_cell_angle_gamma 90.000000
_cell_volume 5061.743665
_symmetry_space_group_name_H-M "I -4 2 D"
_symmetry_group_IT_number 122
_symmetry_cell_setting 'tetragonal'
loop_
_space_group_symop_operation_xyz
x,y,z
y,-x,-z
-x,-y,z
-y,x,-z
x,1/2-y,1/4-z
-x,1/2+y,1/4-z
-y,1/2-x,1/4+z
y,1/2+x,1/4+z
1/2+x,1/2+y,1/2+z
1/2+y,1/2-x,1/2-z
1/2-x,1/2-y,1/2+z
1/2-y,1/2+x,1/2-z
1/2+x,-y,3/4-z
1/2-x,y,3/4-z
1/2-y,-x,3/4+z
1/2+y,x,3/4+z
loop_
_atom_site_type_symbol
_atom_site_label
_atom_site_fract_x
_atom_site_fract_y
_atom_site_fract_z
Si Si1 0.903187 0.949745 0.658010
Si Si2 0.485805 0.854121 0.996873
Si Si3 0.755367 0.396224 0.005004
Si Si4 0.444943 0.590699 0.482139
Si Si5 0.879309 0.323418 0.083947
Si Si6 0.891812 0.097653 0.586427
O O1 0.841671 0.924161 0.728992
O O2 0.903054 0.923866 0.533789
O O3 0.964847 0.913517 0.716206
O O4 0.904044 0.027978 0.647173
O O5 0.430216 0.849570 0.089731
O O6 0.532752 0.791057 0.984478
O O7 0.453473 0.872910 0.882315
O O8 0.805426 0.342764 0.052274
O O9 0.685458 0.394069 0.064540
O O10 0.750000 0.385073 0.875000
O O11 0.517521 0.582573 0.533620
O O12 0.400871 0.629178 0.567598
O O13 0.886688 0.250000 0.125000
#
# Coordination Sequence:
#
# PCOD9561348 Si02
#       6
#    16  16  16  16  16  16
#     4  11  21  38  66 100 128 158 210 278 339 382
#     4  11  23  39  62 100 133 168 209 272 339 389
#     4  11  22  46  65  92 134 171 221 273 329 389
#     4  11  22  41  66  95 135 169 212 264 323 396
#     4  11  25  44  65  93 130 185 216 258 321 395
#     4  12  22  38  69 102 128 162 217 282 339 388
#
# _framework density 18.965796999999998
#
# number of rings (size 3 to 8) (size 9 to 14) (size 15 to 20)
#    0.000    0.833    8.333    1.500    4.667    0.000 
#    0.000    5.000    0.000    0.000    0.000    0.000 
#    0.000    0.000    0.000    0.000    0.000    0.000 
#
# Total GULP energy -268235.696561 kJ/mol
# GULP energy per Si atom -5588.243678 kJ/mol
# Density = 1.892263 g / cm^3
# Si number density = 18.965797 Si / 1000 Ang^3
#
#
#
# Elastic Constant Matrix: (Units=GPa)
#
#
# Indices 1 2 3 4 5 6 
#
# 1 76.9605 11.4588 18.7317 0.0000 0.0000 0.0000
# 2 11.4588 76.9605 18.7317 0.0000 0.0000 0.0000
# 3 18.7317 18.7317 89.4082 0.0000 0.0000 0.0000
# 4 0.0000 0.0000 0.0000 30.3292 0.0000 0.0000
# 5 0.0000 0.0000 0.0000 0.0000 30.3292 0.0000
# 6 0.0000 0.0000 0.0000 0.0000 0.0000 8.3399
#
#
#
# Elastic Compliance Matrix: (Units=1/GPa)
#
#
# Indices 1 2 3 4 5 6 
#
# 1 0.013839 -0.001428 -0.002600 0.000000 0.000000 0.000000
# 2 -0.001428 0.013839 -0.002600 0.000000 0.000000 0.000000
# 3 -0.002600 -0.002600 0.012274 0.000000 0.000000 0.000000
# 4 0.000000 0.000000 0.000000 0.032972 0.000000 0.000000
# 5 0.000000 0.000000 0.000000 0.000000 0.032972 0.000000
# 6 0.000000 0.000000 0.000000 0.000000 0.000000 0.119905
#
#
# Mechanical properties :
#
#
# Convention : Reuss Voigt Hill
#
# Bulk Modulus (GPa) = 37.45880 37.90819 37.68349
# Shear Modulus (GPa) = 20.16486 26.76013 23.46250
#
# Velocity S-wave (km/s) = 3.26425 3.76036 3.52105
# Velocity P-wave (km/s) = 5.83101 6.23577 6.03678
#
# Compressibility (1/GPa) = 0.02669600
#
# Stress axis : x y z
#
# Youngs Moduli (GPa) = 72.25881 72.25881 81.47155
#
# Poissons Ratio (x) = 0.10316 0.21185
# Poissons Ratio (y) = 0.10316 0.21185
# Poissons Ratio (z) = 0.18790 0.18790
#
# Static dielectric constant tensor:
#      x y z
#    x 1.677510 0.000000 0.000000 
#    y 0.000000 1.677510 0.000000 
#    z 0.000000 0.000000 1.647940 
# 
# From -- ./inp_files/4443.got.cif
#   From: 2010.05.17/outbox.cif.g08.bks.cpg/sg122_3_cif.got.tgz:4443.got - 2010.05.20 11:37:33.
