data_PCOD9561534
_publ_section_title
;
Structure prediction by ZEFSAII (Michael W. Deem and Ramdas Pophale) SiO2 
 PCOD9561534
Probable space group: I -4 2 D
;
_chemical_formula_sum "Si O2"
_cell_formula_units_Z 72
_cell_length_a 11.623565
_cell_length_b 11.623565
_cell_length_c 25.072432
_cell_angle_alpha 90.000000
_cell_angle_beta 90.000000
_cell_angle_gamma 90.000000
_cell_volume 3387.467672
_symmetry_space_group_name_H-M "I -4 2 D"
_symmetry_group_IT_number 122
_symmetry_cell_setting 'tetragonal'
loop_
_space_group_symop_operation_xyz
x,y,z
y,-x,-z
-x,-y,z
-y,x,-z
x,1/2-y,1/4-z
-x,1/2+y,1/4-z
-y,1/2-x,1/4+z
y,1/2+x,1/4+z
1/2+x,1/2+y,1/2+z
1/2+y,1/2-x,1/2-z
1/2-x,1/2-y,1/2+z
1/2-y,1/2+x,1/2-z
1/2+x,-y,3/4-z
1/2-x,y,3/4-z
1/2-y,-x,3/4+z
1/2+y,x,3/4+z
loop_
_atom_site_type_symbol
_atom_site_label
_atom_site_fract_x
_atom_site_fract_y
_atom_site_fract_z
Si Si1 0.416031 0.834721 0.666372
Si Si2 0.188929 0.437737 0.009701
Si Si3 0.000000 0.000000 0.161163
Si Si4 0.145892 0.253570 0.561810
Si Si5 0.763843 0.001822 0.722737
O O1 0.351298 0.750000 0.625000
O O2 0.509133 0.891084 0.627248
O O3 0.334740 0.934144 0.689475
O O4 0.475746 0.777567 0.717028
O O5 0.113362 0.507679 0.053001
O O6 0.270626 0.346186 0.039226
O O7 0.252278 0.527083 0.971357
O O8 0.092331 0.367655 0.976827
O O9 0.127859 0.250000 0.625000
O O10 0.200481 0.378787 0.549872
#
# Coordination Sequence:
#
# PCOD9561534 Si02
#       5
#    16  16   8  16  16
#     4  12  24  40  72 110 146 191 229 305 380 435
#     4  12  26  51  73 108 150 189 258 304 356 449
#     4  12  24  43  72 106 148 189 238 306 380 428
#     4  12  28  52  77 102 150 204 242 309 368 436
#     4  12  24  47  73 113 149 183 253 304 364 454
#
# _framework density 21.254814
#
# number of rings (size 3 to 8) (size 9 to 14) (size 15 to 20)
#    0.000    0.000    6.667    2.667    3.111    1.333 
#    8.000    0.000    0.000    0.000    0.000    0.000 
#    0.000    0.000    0.000    0.000    0.000    0.000 
#
# Total GULP energy -201400.462328 kJ/mol
# GULP energy per Si atom -5594.457287 kJ/mol
# Density = 2.120644 g / cm^3
# Si number density = 21.254814 Si / 1000 Ang^3
#
#
#
# Elastic Constant Matrix: (Units=GPa)
#
#
# Indices 1 2 3 4 5 6 
#
# 1 106.3502 44.8911 63.6306 0.0000 0.0000 0.0000
# 2 44.8911 106.3502 63.6306 0.0000 0.0000 0.0000
# 3 63.6306 63.6306 174.3192 0.0000 0.0000 0.0000
# 4 0.0000 0.0000 0.0000 25.8686 0.0000 0.0000
# 5 0.0000 0.0000 0.0000 0.0000 25.8686 0.0000
# 6 0.0000 0.0000 0.0000 0.0000 0.0000 27.5650
#
#
#
# Elastic Compliance Matrix: (Units=1/GPa)
#
#
# Indices 1 2 3 4 5 6 
#
# 1 0.012907 -0.003364 -0.003483 0.000000 0.000000 0.000000
# 2 -0.003364 0.012907 -0.003483 0.000000 0.000000 0.000000
# 3 -0.003483 -0.003483 0.008280 0.000000 0.000000 0.000000
# 4 0.000000 0.000000 0.000000 0.038657 0.000000 0.000000
# 5 0.000000 0.000000 0.000000 0.000000 0.038657 0.000000
# 6 0.000000 0.000000 0.000000 0.000000 0.000000 0.036278
#
#
# Mechanical properties :
#
#
# Convention : Reuss Voigt Hill
#
# Bulk Modulus (GPa) = 74.44880 81.25825 77.85353
# Shear Modulus (GPa) = 28.93104 30.18489 29.55796
#
# Velocity S-wave (km/s) = 3.69338 3.77257 3.73318
# Velocity P-wave (km/s) = 7.30006 7.56901 7.43575
#
# Compressibility (1/GPa) = 0.01343205
#
# Stress axis : x y z
#
# Youngs Moduli (GPa) = 77.47706 77.47706 120.77746
#
# Poissons Ratio (x) = 0.26063 0.42072
# Poissons Ratio (y) = 0.26063 0.42072
# Poissons Ratio (z) = 0.26989 0.26989
#
# Static dielectric constant tensor:
#      x y z
#    x 1.799290 0.000000 0.000000 
#    y 0.000000 1.799290 0.000000 
#    z 0.000000 0.000000 1.759550 
# 
# From -- ./inp_files/8604.got.cif
#   From: 2010.05.17/outbox.cif.g08.bks.cpg/sg122_5_cif.got.tgz:8604.got - 2010.05.20 11:37:33.
