data_PCOD9561290
_publ_section_title
;
Structure prediction by ZEFSAII (Michael W. Deem and Ramdas Pophale) SiO2 
 PCOD9561290
Probable space group: I -4 2 D
;
_chemical_formula_sum "Si O2"
_cell_formula_units_Z 36
_cell_length_a 10.945640
_cell_length_b 10.945640
_cell_length_c 12.488812
_cell_angle_alpha 90.000000
_cell_angle_beta 90.000000
_cell_angle_gamma 90.000000
_cell_volume 1496.247537
_symmetry_space_group_name_H-M "I -4 2 D"
_symmetry_group_IT_number 122
_symmetry_cell_setting 'tetragonal'
loop_
_space_group_symop_operation_xyz
x,y,z
y,-x,-z
-x,-y,z
-y,x,-z
x,1/2-y,1/4-z
-x,1/2+y,1/4-z
-y,1/2-x,1/4+z
y,1/2+x,1/4+z
1/2+x,1/2+y,1/2+z
1/2+y,1/2-x,1/2-z
1/2-x,1/2-y,1/2+z
1/2-y,1/2+x,1/2-z
1/2+x,-y,3/4-z
1/2-x,y,3/4-z
1/2-y,-x,3/4+z
1/2+y,x,3/4+z
loop_
_atom_site_type_symbol
_atom_site_label
_atom_site_fract_x
_atom_site_fract_y
_atom_site_fract_z
Si Si1 0.500000 0.500000 0.500000
Si Si2 0.607432 0.654353 0.956762
Si Si3 0.731021 0.354414 0.499428
O O1 0.604815 0.409391 0.544536
O O2 0.592455 0.667189 0.829305
O O3 0.707925 0.754326 0.990432
O O4 0.662313 0.523186 0.988180
O O5 0.750000 0.384049 0.375000
#
# Coordination Sequence:
#
# PCOD9561290 Si02
#       3
#     4  16  16
#     4  12  28  48  68 112 166 220 272 336 412 508
#     4  10  24  50  80 116 156 208 278 345 411 500
#     4  11  26  46  78 115 159 217 273 346 426 488
#
# _framework density 24.060191
#
# number of rings (size 3 to 8) (size 9 to 14) (size 15 to 20)
#    0.000    1.333    0.000    2.667   12.444    3.556 
#    0.000    0.000    0.000    0.000    0.000    0.000 
#    0.000    0.000    0.000    0.000    0.000    0.000 
#
# Total GULP energy -100404.133140 kJ/mol
# GULP energy per Si atom -5578.007397 kJ/mol
# Density = 2.400543 g / cm^3
# Si number density = 24.060191 Si / 1000 Ang^3
#
#
#
# Elastic Constant Matrix: (Units=GPa)
#
#
# Indices 1 2 3 4 5 6 
#
# 1 153.6083 50.2143 44.2899 0.0000 0.0000 0.0000
# 2 50.2143 153.6083 44.2899 0.0000 0.0000 0.0000
# 3 44.2899 44.2899 206.2083 0.0000 0.0000 0.0000
# 4 0.0000 0.0000 0.0000 25.9937 0.0000 0.0000
# 5 0.0000 0.0000 0.0000 0.0000 25.9937 0.0000
# 6 0.0000 0.0000 0.0000 0.0000 0.0000 69.8130
#
#
#
# Elastic Compliance Matrix: (Units=1/GPa)
#
#
# Indices 1 2 3 4 5 6 
#
# 1 0.007542 -0.002130 -0.001162 0.000000 0.000000 0.000000
# 2 -0.002130 0.007542 -0.001162 0.000000 0.000000 0.000000
# 3 -0.001162 -0.001162 0.005349 0.000000 0.000000 0.000000
# 4 0.000000 0.000000 0.000000 0.038471 0.000000 0.000000
# 5 0.000000 0.000000 0.000000 0.000000 0.038471 0.000000
# 6 0.000000 0.000000 0.000000 0.000000 0.000000 0.014324
#
#
# Mechanical properties :
#
#
# Convention : Reuss Voigt Hill
#
# Bulk Modulus (GPa) = 86.78774 87.89036 87.33905
# Shear Modulus (GPa) = 40.17751 49.33547 44.75649
#
# Velocity S-wave (km/s) = 4.09084 4.53316 4.31767
# Velocity P-wave (km/s) = 7.64609 8.00050 7.82530
#
# Compressibility (1/GPa) = 0.01152237
#
# Stress axis : x y z
#
# Youngs Moduli (GPa) = 132.59893 132.59894 186.96024
#
# Poissons Ratio (x) = 0.28246 0.21730
# Poissons Ratio (y) = 0.28246 0.21730
# Poissons Ratio (z) = 0.15411 0.15411
#
# Static dielectric constant tensor:
#      x y z
#    x 1.944730 0.000000 0.000000 
#    y 0.000000 1.944730 0.000000 
#    z 0.000000 0.000000 1.963120 
# 
# From -- ./inp_files/3340.got.cif
#   From: 2010.05.17/outbox.cif.g08.bks.cpg/sg122_2_cif.got.tgz:3340.got - 2010.05.20 11:37:33.
