data_PCOD9561279
_publ_section_title
;
Structure prediction by ZEFSAII (Michael W. Deem and Ramdas Pophale) SiO2 
 PCOD9561279
Probable space group: I -4 2 D
;
_chemical_formula_sum "Si O2"
_cell_formula_units_Z 88
_cell_length_a 13.385146
_cell_length_b 13.385146
_cell_length_c 21.168468
_cell_angle_alpha 90.000000
_cell_angle_beta 90.000000
_cell_angle_gamma 90.000000
_cell_volume 3792.587889
_symmetry_space_group_name_H-M "I -4 2 D"
_symmetry_group_IT_number 122
_symmetry_cell_setting 'tetragonal'
loop_
_space_group_symop_operation_xyz
x,y,z
y,-x,-z
-x,-y,z
-y,x,-z
x,1/2-y,1/4-z
-x,1/2+y,1/4-z
-y,1/2-x,1/4+z
y,1/2+x,1/4+z
1/2+x,1/2+y,1/2+z
1/2+y,1/2-x,1/2-z
1/2-x,1/2-y,1/2+z
1/2-y,1/2+x,1/2-z
1/2+x,-y,3/4-z
1/2-x,y,3/4-z
1/2-y,-x,3/4+z
1/2+y,x,3/4+z
loop_
_atom_site_type_symbol
_atom_site_label
_atom_site_fract_x
_atom_site_fract_y
_atom_site_fract_z
Si Si1 0.143689 0.017548 0.395407
Si Si2 0.500000 0.500000 0.000000
Si Si3 0.200253 0.072233 0.758521
Si Si4 0.750000 0.439589 0.375000
Si Si5 0.343239 0.249359 0.328793
Si Si6 0.000000 0.500000 0.530266
Si Si7 0.500000 0.500000 0.500000
Si Si8 0.832146 0.539294 0.146061
O O1 0.250000 0.976384 0.375000
O O2 0.149239 0.130424 0.422765
O O3 0.083202 0.961010 0.450328
O O4 0.087342 0.025737 0.329014
O O5 0.192940 0.190481 0.768069
O O6 0.233593 0.056389 0.687347
O O7 0.258975 0.011992 0.813328
O O8 0.091057 0.026689 0.763346
O O9 0.646459 0.374973 0.371649
O O10 0.250000 0.269852 0.375000
O O11 0.447332 0.301382 0.350620
O O12 0.497663 0.591775 0.450911
#
# Coordination Sequence:
#
# PCOD9561279 Si02
#       8
#    16   4  16   8  16   8   4  16
#     4  10  24  46  73 101 136 183 233 292 362 422
#     4  10  24  48  72 106 140 176 234 292 350 428
#     4  12  24  43  67 100 138 188 231 293 361 421
#     4  12  26  42  66 108 142 184 238 294 370 420
#     4  11  23  44  68 101 139 185 236 289 359 431
#     4  11  24  46  68  96 141 177 243 288 348 444
#     4  12  20  38  72  86 132 182 216 292 356 398
#     4  12  24  44  67 101 141 181 238 296 353 432
#
# _framework density 23.203154999999999
#
# number of rings (size 3 to 8) (size 9 to 14) (size 15 to 20)
#    0.000    0.727    4.545    3.273    2.545    0.000 
#    4.909    0.000    0.000    0.000    0.000    0.000 
#    0.000    0.000    0.000    0.000    0.000    0.000 
#
# Total GULP energy -245558.773440 kJ/mol
# GULP energy per Si atom -5580.881215 kJ/mol
# Density = 2.315034 g / cm^3
# Si number density = 23.203155 Si / 1000 Ang^3
#
#
#
# Elastic Constant Matrix: (Units=GPa)
#
#
# Indices 1 2 3 4 5 6 
#
# 1 56.1370 -13.1731 -1.9674 0.0000 0.0000 0.0000
# 2 -13.1731 56.1370 -1.9674 0.0000 0.0000 0.0000
# 3 -1.9674 -1.9674 53.7717 0.0000 0.0000 0.0000
# 4 0.0000 0.0000 0.0000 19.8456 0.0000 0.0000
# 5 0.0000 0.0000 0.0000 0.0000 19.8456 0.0000
# 6 0.0000 0.0000 0.0000 0.0000 0.0000 58.8603
#
#
#
# Elastic Compliance Matrix: (Units=1/GPa)
#
#
# Indices 1 2 3 4 5 6 
#
# 1 0.018891 0.004463 0.000854 0.000000 0.000000 0.000000
# 2 0.004463 0.018891 0.000854 0.000000 0.000000 0.000000
# 3 0.000854 0.000854 0.018660 0.000000 0.000000 0.000000
# 4 0.000000 0.000000 0.000000 0.050389 0.000000 0.000000
# 5 0.000000 0.000000 0.000000 0.000000 0.050389 0.000000
# 6 0.000000 0.000000 0.000000 0.000000 0.000000 0.016989
#
#
# Mechanical properties :
#
#
# Convention : Reuss Voigt Hill
#
# Bulk Modulus (GPa) = 14.53813 14.64779 14.59296
# Shear Modulus (GPa) = 27.05724 31.92053 29.48889
#
# Velocity S-wave (km/s) = 3.41853 3.71306 3.56884
# Velocity P-wave (km/s) = 4.67557 4.97082 4.82545
#
# Compressibility (1/GPa) = 0.06878462
#
# Stress axis : x y z
#
# Youngs Moduli (GPa) = 52.93594 52.93594 53.59156
#
# Poissons Ratio (x) = -0.23624 -0.04579
# Poissons Ratio (y) = -0.23624 -0.04579
# Poissons Ratio (z) = -0.04523 -0.04523
#
# Static dielectric constant tensor:
#      x y z
#    x 1.996100 0.000000 0.000000 
#    y 0.000000 1.996100 0.000000 
#    z 0.000000 0.000000 1.797940 
# 
# From -- ./inp_files/8028.got.cif
#   From: 2010.05.17/outbox.cif.g08.bks.cpg/sg122_5_cif.got.tgz:8028.got - 2010.05.20 11:37:33.
