data_PCOD9561897
_publ_section_title
;
Structure prediction by ZEFSAII (Michael W. Deem and Ramdas Pophale) SiO2 
 PCOD9561897
Probable space group: P 4/M M M
;
_chemical_formula_sum "Si O2"
_cell_formula_units_Z 104
_cell_length_a 19.522661
_cell_length_b 19.522661
_cell_length_c 17.501690
_cell_angle_alpha 90.000000
_cell_angle_beta 90.000000
_cell_angle_gamma 90.000000
_cell_volume 6670.494236
_symmetry_space_group_name_H-M "P 4/M M M"
_symmetry_group_IT_number 123
_symmetry_cell_setting 'tetragonal'
loop_
_space_group_symop_operation_xyz
x,y,z
-y,x,z
-x,-y,z
y,-x,z
x,-y,-z
-x,y,-z
y,x,-z
-y,-x,-z
-x,-y,-z
y,-x,-z
x,y,-z
-y,x,-z
-x,y,z
x,-y,z
-y,-x,z
y,x,z
loop_
_atom_site_type_symbol
_atom_site_label
_atom_site_fract_x
_atom_site_fract_y
_atom_site_fract_z
Si Si1 0.917994 0.417903 0.000000
Si Si2 0.078697 0.583123 0.416685
Si Si3 0.350302 0.822947 0.127161
Si Si4 0.423449 0.682257 0.090352
Si Si5 0.305990 0.419926 0.587244
Si Si6 0.417638 0.185929 0.292113
Si Si7 0.078843 0.078843 0.092781
Si Si8 0.191649 0.191649 0.907388
O O1 0.881347 0.384531 0.074031
O O2 0.905573 0.500000 0.000000
O O3 0.000000 0.406530 0.000000
O O4 0.103708 0.606150 0.500000
O O5 0.081009 0.500000 0.417476
O O6 0.124110 0.604652 0.346688
O O7 0.000000 0.603274 0.408490
O O8 0.378079 0.750021 0.096971
O O9 0.377590 0.821882 0.213513
O O10 0.268360 0.826274 0.120226
O O11 0.500000 0.691504 0.122718
O O12 0.381393 0.618608 0.124514
O O13 0.430656 0.669835 0.000000
O O14 0.277412 0.410581 0.500000
O O15 0.324211 0.500000 0.593003
O O16 0.370856 0.370856 0.594050
O O17 0.252802 0.405115 0.655454
O O18 0.500000 0.182673 0.277904
O O19 0.135073 0.135073 0.116629
O O20 0.000000 0.094541 0.116002
O O21 0.079279 0.079279 0.000000
O O22 0.193338 0.193338 0.000000
#
# Coordination Sequence:
#
# PCOD9561897 Si02
#       8
#     8  16  16  16  16  16   8   8
#     4  11  24  39  54  72  98 135 176 215 256 308
#     4   8  14  27  48  71  94 122 157 196 237 283
#     4  12  22  36  51  72 100 136 174 212 256 308
#     4  10  19  32  51  68  88 121 164 218 270 312
#     4   9  18  32  49  71  98 127 164 211 263 318
#     4  10  20  31  48  71  97 131 168 209 252 297
#     4   8  16  33  58  84 104 122 151 198 254 307
#     4  11  21  36  55  76 100 131 172 212 251 305
#
# _framework density 15.591049
#
# number of rings (size 3 to 8) (size 9 to 14) (size 15 to 20)
#    0.000    2.154    2.308    2.538    1.077    3.385 
#    0.000    3.077    0.000    0.000    0.000    2.154 
#    0.000    0.000    0.000    0.000    0.000    0.462 
#
# Total GULP energy -579308.545246 kJ/mol
# GULP energy per Si atom -5570.274474 kJ/mol
# Density = 1.555556 g / cm^3
# Si number density = 15.591049 Si / 1000 Ang^3
#
#
#
# Elastic Constant Matrix: (Units=GPa)
#
#
# Indices 1 2 3 4 5 6 
#
# 1 103.4106 69.2483 47.9970 0.0000 0.0000 0.0000
# 2 69.2483 103.4106 47.9970 0.0000 0.0000 0.0000
# 3 47.9970 47.9970 115.7615 0.0000 0.0000 0.0000
# 4 0.0000 0.0000 0.0000 8.2710 0.0000 0.0000
# 5 0.0000 0.0000 0.0000 0.0000 8.2710 0.0000
# 6 0.0000 0.0000 0.0000 0.0000 0.0000 21.5646
#
#
#
# Elastic Compliance Matrix: (Units=1/GPa)
#
#
# Indices 1 2 3 4 5 6 
#
# 1 0.018399 -0.010873 -0.003121 0.000000 0.000000 0.000000
# 2 -0.010873 0.018399 -0.003121 0.000000 0.000000 0.000000
# 3 -0.003121 -0.003121 0.011226 0.000000 0.000000 0.000000
# 4 0.000000 0.000000 0.000000 0.120904 0.000000 0.000000
# 5 0.000000 0.000000 0.000000 0.000000 0.120904 0.000000
# 6 0.000000 0.000000 0.000000 0.000000 0.000000 0.046372
#
#
# Mechanical properties :
#
#
# Convention : Reuss Voigt Hill
#
# Bulk Modulus (GPa) = 72.48005 72.56302 72.52153
# Shear Modulus (GPa) = 13.33219 18.11070 15.72145
#
# Velocity S-wave (km/s) = 2.92741 3.41194 3.17892
# Velocity P-wave (km/s) = 7.61679 7.88443 7.75177
#
# Compressibility (1/GPa) = 0.01379690
#
# Stress axis : x y z
#
# Youngs Moduli (GPa) = 54.34949 54.34949 89.07638
#
# Poissons Ratio (x) = 0.59092 0.27799
# Poissons Ratio (y) = 0.59092 0.27799
# Poissons Ratio (z) = 0.16961 0.16961
#
# Static dielectric constant tensor:
#      x y z
#    x 1.522030 0.000000 0.000000 
#    y 0.000000 1.522030 0.000000 
#    z 0.000000 0.000000 1.516980 
# 
# From -- ./inp_files/5677.got.cif
#   From: 2010.05.17/outbox.cif.g08.bks.cpg/sg123_3_cif.got.tgz:5677.got - 2010.05.20 11:43:04.
