data_PCOD9561447
_publ_section_title
;
Structure prediction by ZEFSAII (Michael W. Deem and Ramdas Pophale) SiO2 
 PCOD9561447
Probable space group: I -4 2 D
;
_chemical_formula_sum "Si O2"
_cell_formula_units_Z 48
_cell_length_a 8.148210
_cell_length_b 8.148210
_cell_length_c 24.662218
_cell_angle_alpha 90.000000
_cell_angle_beta 90.000000
_cell_angle_gamma 90.000000
_cell_volume 1637.406685
_symmetry_space_group_name_H-M "I -4 2 D"
_symmetry_group_IT_number 122
_symmetry_cell_setting 'tetragonal'
loop_
_space_group_symop_operation_xyz
x,y,z
y,-x,-z
-x,-y,z
-y,x,-z
x,1/2-y,1/4-z
-x,1/2+y,1/4-z
-y,1/2-x,1/4+z
y,1/2+x,1/4+z
1/2+x,1/2+y,1/2+z
1/2+y,1/2-x,1/2-z
1/2-x,1/2-y,1/2+z
1/2-y,1/2+x,1/2-z
1/2+x,-y,3/4-z
1/2-x,y,3/4-z
1/2-y,-x,3/4+z
1/2+y,x,3/4+z
loop_
_atom_site_type_symbol
_atom_site_label
_atom_site_fract_x
_atom_site_fract_y
_atom_site_fract_z
Si Si1 0.306492 0.481547 0.434816
Si Si2 0.139172 0.905979 0.645214
Si Si3 0.915091 0.275623 0.780649
O O1 0.500000 0.500000 0.444940
O O2 0.250000 0.532857 0.375000
O O3 0.317532 0.284902 0.427560
O O4 0.187275 0.603331 0.468035
O O5 0.040213 0.750000 0.625000
O O6 0.198538 0.012152 0.592568
O O7 0.000000 0.000000 0.677455
O O8 0.074616 0.300012 0.741301
#
# Coordination Sequence:
#
# PCOD9561447 Si02
#       3
#    16  16  16
#     4  11  24  47  94 132 180 245 330 391 461 600
#     4  11  25  45  89 133 177 252 312 383 465 599
#     4  11  24  49  90 138 193 243 311 416 502 566
#
# _framework density 29.314646
#
# number of rings (size 3 to 8) (size 9 to 14) (size 15 to 20)
#    0.000    1.000    6.667    0.000    4.667    0.000 
#    0.000    0.000   80.667    0.000    0.000    0.000 
#    0.000    0.000    0.000    0.000    0.000    0.000 
#
# Total GULP energy -133641.194824 kJ/mol
# GULP energy per Si atom -5568.383118 kJ/mol
# Density = 2.924792 g / cm^3
# Si number density = 29.314646 Si / 1000 Ang^3
#
#
#
# Elastic Constant Matrix: (Units=GPa)
#
#
# Indices 1 2 3 4 5 6 
#
# 1 239.0957 155.1162 72.6341 0.0000 0.0000 0.0000
# 2 155.1162 239.0957 72.6341 0.0000 0.0000 0.0000
# 3 72.6341 72.6341 218.7936 0.0000 0.0000 0.0000
# 4 0.0000 0.0000 0.0000 41.3774 0.0000 0.0000
# 5 0.0000 0.0000 0.0000 0.0000 41.3774 0.0000
# 6 0.0000 0.0000 0.0000 0.0000 0.0000 155.8141
#
#
#
# Elastic Compliance Matrix: (Units=1/GPa)
#
#
# Indices 1 2 3 4 5 6 
#
# 1 0.007399 -0.004509 -0.000960 0.000000 0.000000 0.000000
# 2 -0.004509 0.007399 -0.000960 0.000000 0.000000 0.000000
# 3 -0.000960 -0.000960 0.005208 0.000000 0.000000 0.000000
# 4 0.000000 0.000000 0.000000 0.024168 0.000000 0.000000
# 5 0.000000 0.000000 0.000000 0.000000 0.024168 0.000000
# 6 0.000000 0.000000 0.000000 0.000000 0.000000 0.006418
#
#
# Mechanical properties :
#
#
# Convention : Reuss Voigt Hill
#
# Bulk Modulus (GPa) = 139.85744 144.19487 142.02616
# Shear Modulus (GPa) = 55.55694 74.15383 64.85538
#
# Velocity S-wave (km/s) = 4.35811 5.03495 4.70871
# Velocity P-wave (km/s) = 8.55200 9.11573 8.83836
#
# Compressibility (1/GPa) = 0.00715014
#
# Stress axis : x y z
#
# Youngs Moduli (GPa) = 135.15389 135.15389 192.02769
#
# Poissons Ratio (x) = 0.60937 0.18425
# Poissons Ratio (y) = 0.60937 0.18425
# Poissons Ratio (z) = 0.12968 0.12968
#
# Static dielectric constant tensor:
#      x y z
#    x 2.533430 0.000000 0.000000 
#    y 0.000000 2.533430 0.000000 
#    z 0.000000 0.000000 2.273910 
# 
# From -- ./inp_files/9102.got.cif
#   From: 2010.05.17/outbox.cif.g08.bks.cpg/sg122_5_cif.got.tgz:9102.got - 2010.05.20 11:37:33.
