data_PCOD9561972
_publ_section_title
;
Structure prediction by ZEFSAII (Michael W. Deem and Ramdas Pophale) SiO2 
 PCOD9561972
Probable space group: P 4/M M M
;
_chemical_formula_sum "Si O2"
_cell_formula_units_Z 72
_cell_length_a 13.676786
_cell_length_b 13.676786
_cell_length_c 23.668709
_cell_angle_alpha 90.000000
_cell_angle_beta 90.000000
_cell_angle_gamma 90.000000
_cell_volume 4427.337943
_symmetry_space_group_name_H-M "P 4/M M M"
_symmetry_group_IT_number 123
_symmetry_cell_setting 'tetragonal'
loop_
_space_group_symop_operation_xyz
x,y,z
-y,x,z
-x,-y,z
y,-x,z
x,-y,-z
-x,y,-z
y,x,-z
-y,-x,-z
-x,-y,-z
y,-x,-z
x,y,-z
-y,x,-z
-x,y,z
x,-y,z
-y,-x,z
y,x,z
loop_
_atom_site_type_symbol
_atom_site_label
_atom_site_fract_x
_atom_site_fract_y
_atom_site_fract_z
Si Si1 0.119162 0.386959 0.000000
Si Si2 0.887222 0.380930 0.122845
Si Si3 0.225392 0.385849 0.433440
Si Si4 0.616639 0.774864 0.763171
Si Si5 0.114868 0.277479 0.337310
O O1 0.147190 0.344431 0.938971
O O2 0.152598 0.500000 0.000000
O O3 0.000000 0.388448 0.000000
O O4 0.888807 0.500000 0.119602
O O5 0.820643 0.356194 0.175964
O O6 0.000000 0.350170 0.132086
O O7 0.201881 0.377268 0.500000
O O8 0.236184 0.500000 0.419693
O O9 0.325441 0.325441 0.423487
O O10 0.145110 0.335370 0.394037
O O11 0.500000 0.765812 0.759510
O O12 0.672663 0.672663 0.755890
O O13 0.657075 0.846628 0.714792
O O14 0.177874 0.177874 0.336258
O O15 0.000000 0.261117 0.334019
#
# Coordination Sequence:
#
# PCOD9561972 Si02
#       5
#     8  16  16  16  16
#     4   7  10  18  35  60  85 107 137 181 231 277
#     4   8  13  23  41  63  85 110 143 186 234 278
#     4   9  18  32  50  74 103 133 165 199 233 270
#     4  10  20  32  46  66  92 123 159 196 234 277
#     4  10  21  36  53  73  96 121 152 192 237 286
#
# _framework density 16.262595000000001
#
# number of rings (size 3 to 8) (size 9 to 14) (size 15 to 20)
#    0.000    3.000    0.000    2.667    0.000    3.778 
#    0.000    2.778    0.000    4.000    0.000    3.111 
#    0.000    4.444    0.000    0.000    0.000   66.667 
#
# Total GULP energy -400915.297616 kJ/mol
# GULP energy per Si atom -5568.268022 kJ/mol
# Density = 1.622558 g / cm^3
# Si number density = 16.262595 Si / 1000 Ang^3
#
#
#
# Elastic Constant Matrix: (Units=GPa)
#
#
# Indices 1 2 3 4 5 6 
#
# 1 -335.0988 480.5876 52.8807 0.0000 0.0000 0.0000
# 2 480.5876 -335.0988 52.8807 0.0000 0.0000 0.0000
# 3 52.8807 52.8807 87.8064 0.0000 0.0000 0.0000
# 4 0.0000 0.0000 0.0000 17.6140 0.0000 0.0000
# 5 0.0000 0.0000 0.0000 0.0000 17.6140 0.0000
# 6 0.0000 0.0000 0.0000 0.0000 0.0000 3.2986
#
#
#
# Elastic Compliance Matrix: (Units=1/GPa)
#
#
# Indices 1 2 3 4 5 6 
#
# 1 0.005500 0.006726 -0.007363 0.000000 0.000000 0.000000
# 2 0.006726 0.005500 -0.007363 0.000000 0.000000 0.000000
# 3 -0.007363 -0.007363 0.020257 0.000000 0.000000 0.000000
# 4 0.000000 0.000000 0.000000 0.056773 0.000000 0.000000
# 5 0.000000 0.000000 0.000000 0.000000 0.056773 0.000000
# 6 0.000000 0.000000 0.000000 0.000000 0.000000 0.303159
#
#
# Mechanical properties :
#
#
# Convention : Reuss Voigt Hill
#
# Bulk Modulus (GPa) = 65.54288 65.58964 65.56626
# Shear Modulus (GPa) = 10.65989 -70.21069 -29.77540
#
# Velocity S-wave (km/s) = 2.56302 -6.57775 -4.28356
# Velocity P-wave (km/s) = 7.01064 4.15572 3.99244
#
# Compressibility (1/GPa) = 0.01525719
#
# Stress axis : x y z
#
# Youngs Moduli (GPa) = 181.82224 181.82224 49.36536
#
# Poissons Ratio (x) = -1.22291 0.36347
# Poissons Ratio (y) = -1.22291 0.36347
# Poissons Ratio (z) = 1.33873 1.33873
#
# Static dielectric constant tensor:
#      x y z
#    x 1.522560 0.000000 0.000000 
#    y 0.000000 1.522560 0.000000 
#    z 0.000000 0.000000 1.587550 
# 
# From -- ./inp_files/7861.got.cif
#   From: 2010.05.17/outbox.cif.g08.bks.cpg/sg123_4_cif.got.tgz:7861.got - 2010.05.20 11:43:04.
