data_PCOD9561005
_publ_section_title
;
Structure prediction by ZEFSAII (Michael W. Deem and Ramdas Pophale) SiO2 
 PCOD9561005
Probable space group: I -4 2 D
;
_chemical_formula_sum "Si O2"
_cell_formula_units_Z 112
_cell_length_a 28.360603
_cell_length_b 28.360603
_cell_length_c 6.136487
_cell_angle_alpha 90.000000
_cell_angle_beta 90.000000
_cell_angle_gamma 90.000000
_cell_volume 4935.722558
_symmetry_space_group_name_H-M "I -4 2 D"
_symmetry_group_IT_number 122
_symmetry_cell_setting 'tetragonal'
loop_
_space_group_symop_operation_xyz
x,y,z
y,-x,-z
-x,-y,z
-y,x,-z
x,1/2-y,1/4-z
-x,1/2+y,1/4-z
-y,1/2-x,1/4+z
y,1/2+x,1/4+z
1/2+x,1/2+y,1/2+z
1/2+y,1/2-x,1/2-z
1/2-x,1/2-y,1/2+z
1/2-y,1/2+x,1/2-z
1/2+x,-y,3/4-z
1/2-x,y,3/4-z
1/2-y,-x,3/4+z
1/2+y,x,3/4+z
loop_
_atom_site_type_symbol
_atom_site_label
_atom_site_fract_x
_atom_site_fract_y
_atom_site_fract_z
Si Si1 0.039311 0.204383 0.764358
Si Si2 0.949645 0.172858 0.983917
Si Si3 0.011330 0.926972 0.058988
Si Si4 0.447934 0.121823 0.336724
Si Si5 0.862032 0.601420 0.590004
Si Si6 0.856445 0.302291 0.544236
Si Si7 0.884524 0.828513 0.046717
O O1 0.032946 0.250000 0.625000
O O2 0.037911 0.158538 0.604057
O O3 0.996566 0.200216 0.930453
O O4 0.087914 0.208491 0.899782
O O5 0.906432 0.192881 0.838580
O O6 0.963946 0.117790 0.945546
O O7 0.937720 0.172346 0.241203
O O8 0.986977 0.907255 0.279896
O O9 0.049653 0.968648 0.078554
O O10 0.408005 0.088472 0.227234
O O11 0.419657 0.152900 0.516504
O O12 0.832334 0.635983 0.738465
O O13 0.878019 0.628574 0.373616
O O14 0.845604 0.250000 0.625000
O O15 0.820249 0.332913 0.397982
#
# Coordination Sequence:
#
# PCOD9561005 Si02
#       7
#    16  16  16  16  16  16  16
#     4  11  24  41  64  96 130 175 225 270 352 419
#     4  11  23  38  59  86 132 170 220 294 330 390
#     4  11  23  41  61  85 125 183 238 280 327 380
#     4  10  21  43  66  86 126 177 222 280 328 394
#     4   9  20  38  63  86 128 168 214 270 333 379
#     4  10  21  38  63  96 128 171 219 265 342 411
#     4   9  19  40  60  88 133 163 208 278 323 404
#
# _framework density 22.691711999999999
#
# number of rings (size 3 to 8) (size 9 to 14) (size 15 to 20)
#    0.000    1.857    1.429    3.000    4.000    2.857 
#    2.571    0.000    0.000    0.000    0.000    0.000 
#  154.286    0.000    0.000    0.286    0.000    0.000 
#
# Total GULP energy -312536.050054 kJ/mol
# GULP energy per Si atom -5581.000894 kJ/mol
# Density = 2.264007 g / cm^3
# Si number density = 22.691712 Si / 1000 Ang^3
#
#
#
# Elastic Constant Matrix: (Units=GPa)
#
#
# Indices 1 2 3 4 5 6 
#
# 1 40.0186 -8.5341 6.0400 0.0000 0.0000 0.0000
# 2 -8.5341 40.0186 6.0400 0.0000 0.0000 0.0000
# 3 6.0400 6.0400 87.8524 0.0000 0.0000 0.0000
# 4 0.0000 0.0000 0.0000 29.3903 0.0000 0.0000
# 5 0.0000 0.0000 0.0000 0.0000 29.3903 0.0000
# 6 0.0000 0.0000 0.0000 0.0000 0.0000 15.4617
#
#
#
# Elastic Compliance Matrix: (Units=1/GPa)
#
#
# Indices 1 2 3 4 5 6 
#
# 1 0.026609 0.006013 -0.002243 0.000000 0.000000 0.000000
# 2 0.006013 0.026609 -0.002243 0.000000 0.000000 0.000000
# 3 -0.002243 -0.002243 0.011691 0.000000 0.000000 0.000000
# 4 0.000000 0.000000 0.000000 0.034025 0.000000 0.000000
# 5 0.000000 0.000000 0.000000 0.000000 0.034025 0.000000
# 6 0.000000 0.000000 0.000000 0.000000 0.000000 0.064676
#
#
# Mechanical properties :
#
#
# Convention : Reuss Voigt Hill
#
# Bulk Modulus (GPa) = 14.71361 19.44237 17.07799
# Shear Modulus (GPa) = 23.01652 25.80469 24.41061
#
# Velocity S-wave (km/s) = 3.18828 3.37588 3.28342
# Velocity P-wave (km/s) = 4.47792 4.87668 4.68155
#
# Compressibility (1/GPa) = 0.06796429
#
# Stress axis : x y z
#
# Youngs Moduli (GPa) = 37.58097 37.58097 85.53495
#
# Poissons Ratio (x) = -0.22598 0.19184
# Poissons Ratio (y) = -0.22598 0.19184
# Poissons Ratio (z) = 0.08429 0.08429
#
# Static dielectric constant tensor:
#      x y z
#    x 1.892990 0.000000 0.000000 
#    y 0.000000 1.892990 0.000000 
#    z 0.000000 0.000000 1.860310 
# 
# From -- ./inp_files/1515.got.cif
#   From: 2010.05.17/outbox.cif.g08.bks.cpg/sg122_1_cif.got.tgz:1515.got - 2010.05.20 11:37:33.
