data_PCOD9561702
_publ_section_title
;
Structure prediction by ZEFSAII (Michael W. Deem and Ramdas Pophale) SiO2 
 PCOD9561702
Probable space group: P 4/M M M
;
_chemical_formula_sum "Si O2"
_cell_formula_units_Z 116
_cell_length_a 26.243956
_cell_length_b 26.243956
_cell_length_c 7.330753
_cell_angle_alpha 90.000000
_cell_angle_beta 90.000000
_cell_angle_gamma 90.000000
_cell_volume 5049.021136
_symmetry_space_group_name_H-M "P 4/M M M"
_symmetry_group_IT_number 123
_symmetry_cell_setting 'tetragonal'
loop_
_space_group_symop_operation_xyz
x,y,z
-y,x,z
-x,-y,z
y,-x,z
x,-y,-z
-x,y,-z
y,x,-z
-y,-x,-z
-x,-y,-z
y,-x,-z
x,y,-z
-y,x,-z
-x,y,z
x,-y,z
-y,-x,z
y,x,z
loop_
_atom_site_type_symbol
_atom_site_label
_atom_site_fract_x
_atom_site_fract_y
_atom_site_fract_z
Si Si1 0.442426 0.688397 0.216244
Si Si2 0.665899 0.941798 0.281260
Si Si3 0.237451 0.124780 0.792900
Si Si4 0.369440 0.369440 0.500000
Si Si5 0.587396 0.198694 0.780973
Si Si6 0.141595 0.940987 0.222429
Si Si7 0.087254 0.444717 0.291559
Si Si8 0.702616 0.220174 0.222750
O O1 0.500000 0.669441 0.246608
O O2 0.402422 0.660408 0.341339
O O3 0.440218 0.748600 0.258475
O O4 0.430576 0.683374 0.000000
O O5 0.665328 0.932853 0.500000
O O6 0.710678 0.907660 0.204015
O O7 0.608838 0.931414 0.211016
O O8 0.679053 0.000000 0.246772
O O9 0.191255 0.091319 0.714960
O O10 0.257042 0.177851 0.712764
O O11 0.221463 0.136279 0.000000
O O12 0.561496 0.148296 0.705747
O O13 0.645985 0.205709 0.717973
O O14 0.588049 0.192010 0.000000
O O15 0.091380 0.908621 0.272947
O O16 0.142075 0.000000 0.282622
O O17 0.143381 0.942426 0.000000
O O18 0.068070 0.445321 0.500000
O O19 0.074108 0.500000 0.210759
O O20 0.724505 0.275496 0.276055
O O21 0.701619 0.218850 0.000000
#
# Coordination Sequence:
#
# PCOD9561702 Si02
#       8
#    16  16  16   4  16  16  16  16
#     4  10  23  42  64  94 131 169 210 258 310 369
#     4  10  21  36  53  75 106 143 183 232 289 346
#     4  10  18  32  53  78 105 139 182 230 280 339
#     4  12  24  40  68  99 130 170 212 258 310 370
#     4  10  20  36  58  84 117 156 194 234 288 353
#     4   9  17  28  45  72 105 141 184 233 284 340
#     4  10  21  36  55  78 106 143 190 241 287 340
#     4   9  17  29  50  79 111 145 181 222 274 340
#
# _framework density 22.974751000000001
#
# number of rings (size 3 to 8) (size 9 to 14) (size 15 to 20)
#    0.000    2.207    1.379    1.655    1.931    3.724 
#    0.000    2.069    0.000    4.138    0.000    5.793 
#    0.000    0.000    0.000    2.897    0.000    2.759 
#
# Total GULP energy -647218.613902 kJ/mol
# GULP energy per Si atom -5579.470810 kJ/mol
# Density = 2.292246 g / cm^3
# Si number density = 22.974751 Si / 1000 Ang^3
#
#
#
# Elastic Constant Matrix: (Units=GPa)
#
#
# Indices 1 2 3 4 5 6 
#
# 1 66.0827 57.1360 4.1612 0.0000 0.0000 0.0000
# 2 57.1360 66.0827 4.1612 0.0000 0.0000 0.0000
# 3 4.1612 4.1612 84.3247 0.0000 0.0000 0.0000
# 4 0.0000 0.0000 0.0000 -5.6557 0.0000 0.0000
# 5 0.0000 0.0000 0.0000 0.0000 -5.6557 0.0000
# 6 0.0000 0.0000 0.0000 0.0000 0.0000 -64.7233
#
#
#
# Elastic Compliance Matrix: (Units=1/GPa)
#
#
# Indices 1 2 3 4 5 6 
#
# 1 0.059958 -0.051815 -0.000402 0.000000 0.000000 0.000000
# 2 -0.051815 0.059958 -0.000402 0.000000 0.000000 0.000000
# 3 -0.000402 -0.000402 0.011899 0.000000 0.000000 0.000000
# 4 0.000000 0.000000 0.000000 -0.176811 0.000000 0.000000
# 5 0.000000 0.000000 0.000000 0.000000 -0.176811 0.000000
# 6 0.000000 0.000000 0.000000 0.000000 0.000000 -0.015450
#
#
# Mechanical properties :
#
#
# Convention : Reuss Voigt Hill
#
# Bulk Modulus (GPa) = 37.62671 38.60076 38.11374
# Shear Modulus (GPa) = -40.59653 -5.13817 -22.86735
#
# Velocity S-wave (km/s) = -4.20814 -1.49710 -3.15830
# Velocity P-wave (km/s) = 2.68296 3.72149 1.82362
#
# Compressibility (1/GPa) = 0.02657686
#
# Stress axis : x y z
#
# Youngs Moduli (GPa) = 16.67842 16.67842 84.04365
#
# Poissons Ratio (x) = 0.86419 0.03377
# Poissons Ratio (y) = 0.86419 0.03377
# Poissons Ratio (z) = 0.00670 0.00670
#
# Static dielectric constant tensor:
#      x y z
#    x 1.835360 0.000000 0.000000 
#    y 0.000000 1.835360 0.000000 
#    z 0.000000 0.000000 1.935770 
# 
# From -- ./inp_files/2015.got.cif
#   From: 2010.05.17/outbox.cif.g08.bks.cpg/sg123_2_cif.got.tgz:2015.got - 2010.05.20 11:43:04.
