data_PCOD9561964
_publ_section_title
;
Structure prediction by ZEFSAII (Michael W. Deem and Ramdas Pophale) SiO2 
 PCOD9561964
Probable space group: P 4/M M M
;
_chemical_formula_sum "Si O2"
_cell_formula_units_Z 120
_cell_length_a 28.782928
_cell_length_b 28.782928
_cell_length_c 8.181658
_cell_angle_alpha 90.000000
_cell_angle_beta 90.000000
_cell_angle_gamma 90.000000
_cell_volume 6778.151386
_symmetry_space_group_name_H-M "P 4/M M M"
_symmetry_group_IT_number 123
_symmetry_cell_setting 'tetragonal'
loop_
_space_group_symop_operation_xyz
x,y,z
-y,x,z
-x,-y,z
y,-x,z
x,-y,-z
-x,y,-z
y,x,-z
-y,-x,-z
-x,-y,-z
y,-x,-z
x,y,-z
-y,x,-z
-x,y,z
x,-y,z
-y,-x,z
y,x,z
loop_
_atom_site_type_symbol
_atom_site_label
_atom_site_fract_x
_atom_site_fract_y
_atom_site_fract_z
Si Si1 0.552354 0.878812 0.192975
Si Si2 0.444664 0.371555 0.000000
Si Si3 0.601149 0.788863 0.689389
Si Si4 0.706117 0.219692 0.805679
Si Si5 0.145280 0.218871 0.304978
Si Si6 0.367278 0.946230 0.800760
Si Si7 0.688528 0.444036 0.685894
Si Si8 0.737889 0.946785 0.197292
O O1 0.500000 0.882383 0.261544
O O2 0.573133 0.827434 0.211544
O O3 0.591569 0.913575 0.261768
O O4 0.549003 0.889212 0.000000
O O5 0.430222 0.344725 0.165284
O O6 0.500000 0.374196 0.000000
O O7 0.421325 0.421325 0.000000
O O8 0.595246 0.801212 0.500000
O O9 0.655604 0.787035 0.730259
O O10 0.579373 0.738226 0.714606
O O11 0.734849 0.265152 0.746360
O O12 0.739418 0.176055 0.769406
O O13 0.700400 0.223795 0.000000
O O14 0.148583 0.222254 0.500000
O O15 0.171191 0.171191 0.253944
O O16 0.092210 0.226478 0.255012
O O17 0.314780 0.933860 0.747595
O O18 0.375441 0.000000 0.758494
O O19 0.366741 0.943297 0.000000
O O20 0.672942 0.432116 0.500000
O O21 0.693679 0.500000 0.691513
O O22 0.747103 0.000000 0.250080
O O23 0.737601 0.946745 0.000000
#
# Coordination Sequence:
#
# PCOD9561964 Si02
#       8
#    16   8  16  16  16  16  16  16
#     4  10  20  31  48  74  98 127 171 217 259 310
#     4  10  22  39  62  88 112 140 169 203 247 299
#     4  11  22  35  52  73 100 133 167 209 257 305
#     4  10  21  35  51  72  99 131 166 205 250 303
#     4  10  20  33  49  71 102 139 175 211 255 305
#     4   8  15  29  47  68  96 128 165 214 267 311
#     4   9  20  38  57  79 108 141 174 209 254 307
#     4   9  17  30  50  74  99 132 175 218 258 306
#
# _framework density 17.703942999999999
#
# number of rings (size 3 to 8) (size 9 to 14) (size 15 to 20)
#    0.000    2.400    0.000    3.200    1.867    4.867 
#    0.000    2.667    0.000    1.200    0.000    2.800 
#    0.000    0.267    0.000    2.933    0.000    2.133 
#
# Total GULP energy -669287.208067 kJ/mol
# GULP energy per Si atom -5577.393401 kJ/mol
# Density = 1.766365 g / cm^3
# Si number density = 17.703943 Si / 1000 Ang^3
#
#
#
# Elastic Constant Matrix: (Units=GPa)
#
#
# Indices 1 2 3 4 5 6 
#
# 1 59.5513 64.6291 17.7246 0.0000 0.0000 0.0000
# 2 64.6291 59.5513 17.7246 0.0000 0.0000 0.0000
# 3 17.7246 17.7246 27.9515 0.0000 0.0000 0.0000
# 4 0.0000 0.0000 0.0000 1.7283 0.0000 0.0000
# 5 0.0000 0.0000 0.0000 0.0000 1.7283 0.0000
# 6 0.0000 0.0000 0.0000 0.0000 0.0000 51.9148
#
#
#
# Elastic Compliance Matrix: (Units=1/GPa)
#
#
# Indices 1 2 3 4 5 6 
#
# 1 -0.093551 0.103383 -0.006235 0.000000 0.000000 0.000000
# 2 0.103383 -0.093551 -0.006235 0.000000 0.000000 0.000000
# 3 -0.006235 -0.006235 0.043684 0.000000 0.000000 0.000000
# 4 0.000000 0.000000 0.000000 0.578617 0.000000 0.000000
# 5 0.000000 0.000000 0.000000 0.000000 0.578617 0.000000
# 6 0.000000 0.000000 0.000000 0.000000 0.000000 0.019262
#
#
# Mechanical properties :
#
#
# Convention : Reuss Voigt Hill
#
# Bulk Modulus (GPa) = 26.03564 38.57893 32.30729
# Shear Modulus (GPa) = 5.78667 14.20597 9.99632
#
# Velocity S-wave (km/s) = 1.80988 2.83577 2.37879
# Velocity P-wave (km/s) = 4.37100 5.70619 5.08263
#
# Compressibility (1/GPa) = 0.03840889
#
# Stress axis : x y z
#
# Youngs Moduli (GPa) = -10.68941 -10.68941 22.89173
#
# Poissons Ratio (x) = 1.10511 0.14273
# Poissons Ratio (y) = 1.10511 0.14273
# Poissons Ratio (z) = -0.06665 -0.06665
#
# Static dielectric constant tensor:
#      x y z
#    x 1.593900 0.000000 0.000000 
#    y 0.000000 1.593900 0.000000 
#    z 0.000000 0.000000 1.633840 
# 
# From -- ./inp_files/2066.got.cif
#   From: 2010.05.17/outbox.cif.g08.bks.cpg/sg123_2_cif.got.tgz:2066.got - 2010.05.20 11:43:04.
