data_PCOD9561479
_publ_section_title
;
Structure prediction by ZEFSAII (Michael W. Deem and Ramdas Pophale) SiO2 
 PCOD9561479
Probable space group: I -4 2 D
;
_chemical_formula_sum "Si O2"
_cell_formula_units_Z 36
_cell_length_a 10.138056
_cell_length_b 10.138056
_cell_length_c 15.493276
_cell_angle_alpha 90.000000
_cell_angle_beta 90.000000
_cell_angle_gamma 90.000000
_cell_volume 1592.401688
_symmetry_space_group_name_H-M "I -4 2 D"
_symmetry_group_IT_number 122
_symmetry_cell_setting 'tetragonal'
loop_
_space_group_symop_operation_xyz
x,y,z
y,-x,-z
-x,-y,z
-y,x,-z
x,1/2-y,1/4-z
-x,1/2+y,1/4-z
-y,1/2-x,1/4+z
y,1/2+x,1/4+z
1/2+x,1/2+y,1/2+z
1/2+y,1/2-x,1/2-z
1/2-x,1/2-y,1/2+z
1/2-y,1/2+x,1/2-z
1/2+x,-y,3/4-z
1/2-x,y,3/4-z
1/2-y,-x,3/4+z
1/2+y,x,3/4+z
loop_
_atom_site_type_symbol
_atom_site_label
_atom_site_fract_x
_atom_site_fract_y
_atom_site_fract_z
Si Si1 0.113637 0.199884 0.383879
Si Si2 0.500000 0.500000 0.000000
Si Si3 0.841345 0.982663 0.797107
O O1 0.250000 0.117162 0.375000
O O2 0.005841 0.125559 0.439625
O O3 0.163239 0.324929 0.439310
O O4 0.045838 0.214726 0.290562
O O5 0.750000 0.036948 0.875000
O O6 0.000000 0.000000 0.803657
#
# Coordination Sequence:
#
# PCOD9561479 Si02
#       3
#    16   4  16
#     4  11  26  46  70 108 144 198 252 323 389 471
#     4  12  24  44  72  92 154 180 248 304 412 452
#     4  11  26  46  74 110 152 199 263 322 397 471
#
# _framework density 22.60736
#
# number of rings (size 3 to 8) (size 9 to 14) (size 15 to 20)
#    0.000    0.889    2.222    2.667   12.444    0.000 
#    0.000    0.000    0.000    0.000    0.000    0.000 
#    0.000    0.000    0.000    0.000    0.000    0.000 
#
# Total GULP energy -100259.903262 kJ/mol
# GULP energy per Si atom -5569.994626 kJ/mol
# Density = 2.255590 g / cm^3
# Si number density = 22.607360 Si / 1000 Ang^3
#
#
#
# Elastic Constant Matrix: (Units=GPa)
#
#
# Indices 1 2 3 4 5 6 
#
# 1 88.6935 -18.6075 42.7268 0.0000 0.0000 0.0000
# 2 -18.6075 88.6935 42.7268 0.0000 0.0000 0.0000
# 3 42.7268 42.7268 207.4327 0.0000 0.0000 0.0000
# 4 0.0000 0.0000 0.0000 30.8672 0.0000 0.0000
# 5 0.0000 0.0000 0.0000 0.0000 30.8672 0.0000
# 6 0.0000 0.0000 0.0000 0.0000 0.0000 30.1022
#
#
#
# Elastic Compliance Matrix: (Units=1/GPa)
#
#
# Indices 1 2 3 4 5 6 
#
# 1 0.014186 0.004867 -0.003925 0.000000 0.000000 0.000000
# 2 0.004867 0.014186 -0.003925 0.000000 0.000000 0.000000
# 3 -0.003925 -0.003925 0.006438 0.000000 0.000000 0.000000
# 4 0.000000 0.000000 0.000000 0.032397 0.000000 0.000000
# 5 0.000000 0.000000 0.000000 0.000000 0.032397 0.000000
# 6 0.000000 0.000000 0.000000 0.000000 0.000000 0.033220
#
#
# Mechanical properties :
#
#
# Convention : Reuss Voigt Hill
#
# Bulk Modulus (GPa) = 34.66697 57.61241 46.13969
# Shear Modulus (GPa) = 33.69177 39.56557 36.62867
#
# Velocity S-wave (km/s) = 3.86463 4.18798 4.02955
# Velocity P-wave (km/s) = 5.93982 6.99463 6.48869
#
# Compressibility (1/GPa) = 0.02884590
#
# Stress axis : x y z
#
# Youngs Moduli (GPa) = 70.48981 70.48981 155.33731
#
# Poissons Ratio (x) = -0.34306 0.60963
# Poissons Ratio (y) = -0.34306 0.60963
# Poissons Ratio (z) = 0.27664 0.27664
#
# Static dielectric constant tensor:
#      x y z
#    x 2.001760 0.000000 0.000000 
#    y 0.000000 2.001760 0.000000 
#    z 0.000000 0.000000 1.798590 
# 
# From -- ./inp_files/3326.got.cif
#   From: 2010.05.17/outbox.cif.g08.bks.cpg/sg122_2_cif.got.tgz:3326.got - 2010.05.20 11:37:33.
