data_PCOD9561244
_publ_section_title
;
Structure prediction by ZEFSAII (Michael W. Deem and Ramdas Pophale) SiO2 
 PCOD9561244
Probable space group: I -4 2 D
;
_chemical_formula_sum "Si O2"
_cell_formula_units_Z 88
_cell_length_a 12.202116
_cell_length_b 12.202116
_cell_length_c 30.144183
_cell_angle_alpha 90.000000
_cell_angle_beta 90.000000
_cell_angle_gamma 90.000000
_cell_volume 4488.216689
_symmetry_space_group_name_H-M "I -4 2 D"
_symmetry_group_IT_number 122
_symmetry_cell_setting 'tetragonal'
loop_
_space_group_symop_operation_xyz
x,y,z
y,-x,-z
-x,-y,z
-y,x,-z
x,1/2-y,1/4-z
-x,1/2+y,1/4-z
-y,1/2-x,1/4+z
y,1/2+x,1/4+z
1/2+x,1/2+y,1/2+z
1/2+y,1/2-x,1/2-z
1/2-x,1/2-y,1/2+z
1/2-y,1/2+x,1/2-z
1/2+x,-y,3/4-z
1/2-x,y,3/4-z
1/2-y,-x,3/4+z
1/2+y,x,3/4+z
loop_
_atom_site_type_symbol
_atom_site_label
_atom_site_fract_x
_atom_site_fract_y
_atom_site_fract_z
Si Si1 0.675322 0.578807 0.258767
Si Si2 0.668223 0.001721 0.439833
Si Si3 0.500000 0.000000 0.918669
Si Si4 0.058872 0.399900 0.656424
Si Si5 0.698129 0.861629 0.597167
Si Si6 0.162890 0.282505 0.996527
O O1 0.589433 0.602217 0.219078
O O2 0.594405 0.554849 0.300380
O O3 0.757318 0.681173 0.263993
O O4 0.741696 0.467261 0.248813
O O5 0.673849 0.883907 0.462725
O O6 0.621550 0.997650 0.390178
O O7 0.790163 0.049348 0.434632
O O8 0.560323 0.096115 0.892219
O O9 0.185625 0.419249 0.645629
O O10 0.000000 0.500000 0.679750
O O11 0.695896 0.750000 0.625000
O O12 0.691044 0.829500 0.545360
#
# Coordination Sequence:
#
# PCOD9561244 Si02
#       6
#    16  16   8  16  16  16
#     4  11  20  41  65  94 127 173 220 276 324 397
#     4  11  21  41  63  94 133 173 211 269 344 403
#     4  10  24  40  66  88 128 175 230 275 334 386
#     4  11  23  37  62  97 136 169 215 274 344 399
#     4  11  21  43  62  91 129 177 215 268 337 397
#     4  11  23  38  69  92 128 176 228 267 334 398
#
# _framework density 19.606898000000001
#
# number of rings (size 3 to 8) (size 9 to 14) (size 15 to 20)
#    0.000    1.091    7.273    1.091    2.545    0.364 
#    0.000   10.909    0.000    0.000    0.000    0.000 
#    0.000    0.000    0.000    0.000    0.000    0.000 
#
# Total GULP energy -245727.343912 kJ/mol
# GULP energy per Si atom -5584.712362 kJ/mol
# Density = 1.956227 g / cm^3
# Si number density = 19.606898 Si / 1000 Ang^3
#
#
#
# Elastic Constant Matrix: (Units=GPa)
#
#
# Indices 1 2 3 4 5 6 
#
# 1 124.2547 49.8963 8.9220 0.0000 0.0000 0.0000
# 2 49.8963 124.2547 8.9220 0.0000 0.0000 0.0000
# 3 8.9220 8.9220 44.1189 0.0000 0.0000 0.0000
# 4 0.0000 0.0000 0.0000 83.0034 0.0000 0.0000
# 5 0.0000 0.0000 0.0000 0.0000 83.0034 0.0000
# 6 0.0000 0.0000 0.0000 0.0000 0.0000 53.4834
#
#
#
# Elastic Compliance Matrix: (Units=1/GPa)
#
#
# Indices 1 2 3 4 5 6 
#
# 1 0.009656 -0.003792 -0.001186 0.000000 0.000000 0.000000
# 2 -0.003792 0.009656 -0.001186 0.000000 0.000000 0.000000
# 3 -0.001186 -0.001186 0.023146 0.000000 0.000000 0.000000
# 4 0.000000 0.000000 0.000000 0.012048 0.000000 0.000000
# 5 0.000000 0.000000 0.000000 0.000000 0.012048 0.000000
# 6 0.000000 0.000000 0.000000 0.000000 0.000000 0.018697
#
#
# Mechanical properties :
#
#
# Convention : Reuss Voigt Hill
#
# Bulk Modulus (GPa) = 33.18976 47.56766 40.37871
# Shear Modulus (GPa) = 46.45912 58.89060 52.67486
#
# Velocity S-wave (km/s) = 4.87306 5.48642 5.18881
# Velocity P-wave (km/s) = 6.97328 8.02794 7.51912
#
# Compressibility (1/GPa) = 0.03012977
#
# Stress axis : x y z
#
# Youngs Moduli (GPa) = 103.56247 103.56247 43.20475
#
# Poissons Ratio (x) = 0.39275 0.05123
# Poissons Ratio (y) = 0.39275 0.05123
# Poissons Ratio (z) = 0.12280 0.12280
#
# Static dielectric constant tensor:
#      x y z
#    x 1.693890 0.000000 0.000000 
#    y 0.000000 1.693890 0.000000 
#    z 0.000000 0.000000 1.682420 
# 
# From -- ./inp_files/9531.got.cif
#   From: 2010.05.17/outbox.cif.g08.bks.cpg/sg122_5_cif.got.tgz:9531.got - 2010.05.20 11:37:33.
