data_PCOD9561886
_publ_section_title
;
Structure prediction by ZEFSAII (Michael W. Deem and Ramdas Pophale) SiO2 
 PCOD9561886
Probable space group: P 4/M M M
;
_chemical_formula_sum "Si O2"
_cell_formula_units_Z 80
_cell_length_a 18.184213
_cell_length_b 18.184213
_cell_length_c 13.149886
_cell_angle_alpha 90.000000
_cell_angle_beta 90.000000
_cell_angle_gamma 90.000000
_cell_volume 4348.214976
_symmetry_space_group_name_H-M "P 4/M M M"
_symmetry_group_IT_number 123
_symmetry_cell_setting 'tetragonal'
loop_
_space_group_symop_operation_xyz
x,y,z
-y,x,z
-x,-y,z
y,-x,z
x,-y,-z
-x,y,-z
y,x,-z
-y,-x,-z
-x,-y,-z
y,-x,-z
x,y,-z
-y,x,-z
-x,y,z
x,-y,z
-y,-x,z
y,x,z
loop_
_atom_site_type_symbol
_atom_site_label
_atom_site_fract_x
_atom_site_fract_y
_atom_site_fract_z
Si Si1 0.088856 0.737108 0.389643
Si Si2 0.584083 0.701711 0.877227
Si Si3 0.579165 0.085697 0.673518
Si Si4 0.631613 0.867776 0.114551
Si Si5 0.204788 0.912734 0.832421
O O1 0.112508 0.765161 0.500000
O O2 0.117690 0.653777 0.373449
O O3 0.103028 0.782610 0.288005
O O4 0.000000 0.732160 0.391526
O O5 0.500000 0.699435 0.839433
O O6 0.636883 0.636883 0.838529
O O7 0.619690 0.781694 0.860372
O O8 0.580667 0.694105 0.000000
O O9 0.500000 0.118934 0.646697
O O10 0.590946 0.089787 0.795179
O O11 0.577021 0.000000 0.643789
O O12 0.717316 0.889678 0.118998
O O13 0.603850 0.881084 0.000000
O O14 0.137907 0.862094 0.868752
O O15 0.192990 0.000000 0.846970
#
# Coordination Sequence:
#
# PCOD9561886 Si02
#       5
#    16  16  16  16  16
#     4   8  15  29  47  66  90 119 149 184 230 285
#     4   9  17  28  43  64  89 119 154 189 226 267
#     4   9  17  27  41  66  96 124 158 197 235 277
#     4  10  19  32  48  65  90 125 163 200 238 283
#     4  10  21  35  51  71  92 117 154 200 251 308
#
# _framework density 18.398354000000001
#
# number of rings (size 3 to 8) (size 9 to 14) (size 15 to 20)
#    0.000    2.800    0.000    3.000    0.000    5.200 
#    0.000    4.000    0.000    0.000    0.000    4.200 
#    0.000    0.000    0.000    0.000    0.000    3.600 
#
# Total GULP energy -445532.626741 kJ/mol
# GULP energy per Si atom -5569.157834 kJ/mol
# Density = 1.835648 g / cm^3
# Si number density = 18.398354 Si / 1000 Ang^3
#
#
#
# Elastic Constant Matrix: (Units=GPa)
#
#
# Indices 1 2 3 4 5 6 
#
# 1 67.5725 54.3508 -11.2755 0.0000 0.0000 0.0000
# 2 54.3508 67.5725 -11.2755 0.0000 0.0000 0.0000
# 3 -11.2755 -11.2755 51.4169 0.0000 0.0000 0.0000
# 4 0.0000 0.0000 0.0000 -2.0601 0.0000 0.0000
# 5 0.0000 0.0000 0.0000 0.0000 -2.0601 0.0000
# 6 0.0000 0.0000 0.0000 0.0000 0.0000 20.6458
#
#
#
# Elastic Compliance Matrix: (Units=1/GPa)
#
#
# Indices 1 2 3 4 5 6 
#
# 1 0.042091 -0.033542 0.001875 0.000000 0.000000 0.000000
# 2 -0.033542 0.042091 0.001875 0.000000 0.000000 0.000000
# 3 0.001875 0.001875 0.020271 0.000000 0.000000 0.000000
# 4 0.000000 0.000000 0.000000 -0.485409 0.000000 0.000000
# 5 0.000000 0.000000 0.000000 0.000000 -0.485409 0.000000
# 6 0.000000 0.000000 0.000000 0.000000 0.000000 0.048436
#
#
# Mechanical properties :
#
#
# Convention : Reuss Voigt Hill
#
# Bulk Modulus (GPa) = 22.28808 27.79571 25.04190
# Shear Modulus (GPa) = -6.72598 13.62257 3.44830
#
# Velocity S-wave (km/s) = -1.91408 2.72402 1.37051
# Velocity P-wave (km/s) = 2.69361 5.00342 4.01807
#
# Compressibility (1/GPa) = 0.04486703
#
# Stress axis : x y z
#
# Youngs Moduli (GPa) = 23.75801 23.75801 49.33135
#
# Poissons Ratio (x) = 0.79690 -0.09248
# Poissons Ratio (y) = 0.79690 -0.09248
# Poissons Ratio (z) = -0.04454 -0.04454
#
# Static dielectric constant tensor:
#      x y z
#    x 1.642610 0.000000 0.000000 
#    y 0.000000 1.642610 0.000000 
#    z 0.000000 0.000000 1.672640 
# 
# From -- ./inp_files/3896.got.cif
#   From: 2010.05.17/outbox.cif.g08.bks.cpg/sg123_2_cif.got.tgz:3896.got - 2010.05.20 11:43:04.
