data_PCOD9561626
_publ_section_title
;
Structure prediction by ZEFSAII (Michael W. Deem and Ramdas Pophale) SiO2 
 PCOD9561626
Probable space group: P 4/M M M
;
_chemical_formula_sum "Si O2"
_cell_formula_units_Z 128
_cell_length_a 22.359890
_cell_length_b 22.359890
_cell_length_c 19.117714
_cell_angle_alpha 90.000000
_cell_angle_beta 90.000000
_cell_angle_gamma 90.000000
_cell_volume 9558.181778
_symmetry_space_group_name_H-M "P 4/M M M"
_symmetry_group_IT_number 123
_symmetry_cell_setting 'tetragonal'
loop_
_space_group_symop_operation_xyz
x,y,z
-y,x,z
-x,-y,z
y,-x,z
x,-y,-z
-x,y,-z
y,x,-z
-y,-x,-z
-x,-y,-z
y,-x,-z
x,y,-z
-y,x,-z
-x,y,z
x,-y,z
-y,-x,z
y,x,z
loop_
_atom_site_type_symbol
_atom_site_label
_atom_site_fract_x
_atom_site_fract_y
_atom_site_fract_z
Si Si1 0.362183 0.735441 0.693257
Si Si2 0.899980 0.567777 0.918530
Si Si3 0.381899 0.231358 0.081490
Si Si4 0.428866 0.815456 0.581153
Si Si5 0.659270 0.933078 0.800534
Si Si6 0.569909 0.330186 0.815582
Si Si7 0.931270 0.430797 0.671190
Si Si8 0.713480 0.191616 0.806914
O O1 0.316798 0.683203 0.670266
O O2 0.393041 0.770036 0.630263
O O3 0.410369 0.705778 0.745729
O O4 0.323811 0.780611 0.741914
O O5 0.915700 0.500000 0.898168
O O6 0.828227 0.577292 0.912886
O O7 0.928514 0.616829 0.868511
O O8 0.915911 0.576242 0.000000
O O9 0.412677 0.286727 0.120191
O O10 0.322032 0.215339 0.124636
O O11 0.370651 0.243019 0.000000
O O12 0.411656 0.811846 0.500000
O O13 0.500000 0.803173 0.586408
O O14 0.419561 0.882059 0.612047
O O15 0.614669 0.922326 0.735119
O O16 0.706766 0.879553 0.804177
O O17 0.684111 0.000000 0.794853
O O18 0.500000 0.343174 0.815431
O O19 0.611331 0.388670 0.819144
O O20 0.923473 0.500000 0.695025
O O21 0.000000 0.424823 0.646831
O O22 0.778553 0.221448 0.805800
#
# Coordination Sequence:
#
# PCOD9561626 Si02
#       8
#    16  16  16  16  16  16  16  16
#     4   9  17  31  47  62  79  99 128 164 206 250
#     4   9  17  27  39  58  84 112 141 173 204 233
#     4   9  17  29  44  62  81 103 136 173 207 243
#     4  10  19  29  43  63  84 106 132 164 202 239
#     4  10  18  28  42  59  81 111 142 169 198 236
#     4  10  20  31  44  59  75 100 130 166 213 258
#     4   9  17  28  41  58  82 113 144 167 187 221
#     4   9  17  29  45  63  81 104 133 168 203 234
#
# _framework density 13.391667999999999
#
# number of rings (size 3 to 8) (size 9 to 14) (size 15 to 20)
#    0.000    2.625    1.250    2.250    0.000    3.375 
#    0.000    1.875    0.000    0.000    0.000    0.875 
#    0.000    0.250    0.000   11.625    0.000    0.000 
#
# Total GULP energy -713386.922485 kJ/mol
# GULP energy per Si atom -5573.335332 kJ/mol
# Density = 1.336119 g / cm^3
# Si number density = 13.391668 Si / 1000 Ang^3
#
#
#
# Elastic Constant Matrix: (Units=GPa)
#
#
# Indices 1 2 3 4 5 6 
#
# 1 76.3426 44.2235 39.1876 0.0000 0.0000 0.0000
# 2 44.2235 76.3426 39.1876 0.0000 0.0000 0.0000
# 3 39.1876 39.1876 86.8777 0.0000 0.0000 0.0000
# 4 0.0000 0.0000 0.0000 12.4053 0.0000 0.0000
# 5 0.0000 0.0000 0.0000 0.0000 12.4053 0.0000
# 6 0.0000 0.0000 0.0000 0.0000 0.0000 13.1802
#
#
#
# Elastic Compliance Matrix: (Units=1/GPa)
#
#
# Indices 1 2 3 4 5 6 
#
# 1 0.021435 -0.009699 -0.005293 0.000000 0.000000 0.000000
# 2 -0.009699 0.021435 -0.005293 0.000000 0.000000 0.000000
# 3 -0.005293 -0.005293 0.016286 0.000000 0.000000 0.000000
# 4 0.000000 0.000000 0.000000 0.080611 0.000000 0.000000
# 5 0.000000 0.000000 0.000000 0.000000 0.080611 0.000000
# 6 0.000000 0.000000 0.000000 0.000000 0.000000 0.075872
#
#
# Mechanical properties :
#
#
# Convention : Reuss Voigt Hill
#
# Bulk Modulus (GPa) = 53.81340 53.86225 53.83783
# Shear Modulus (GPa) = 14.57664 15.39576 14.98620
#
# Velocity S-wave (km/s) = 3.30280 3.39433 3.34888
# Velocity P-wave (km/s) = 7.40379 7.46123 7.43257
#
# Compressibility (1/GPa) = 0.01858273
#
# Stress axis : x y z
#
# Youngs Moduli (GPa) = 46.65335 46.65335 61.40336
#
# Poissons Ratio (x) = 0.45251 0.32503
# Poissons Ratio (y) = 0.45251 0.32503
# Poissons Ratio (z) = 0.24695 0.24695
#
# Static dielectric constant tensor:
#      x y z
#    x 1.432840 0.000000 0.000000 
#    y 0.000000 1.432840 0.000000 
#    z 0.000000 0.000000 1.432240 
# 
# From -- ./inp_files/6009.got.cif
#   From: 2010.05.17/outbox.cif.g08.bks.cpg/sg123_4_cif.got.tgz:6009.got - 2010.05.20 11:43:04.
