data_PCOD9561355
_publ_section_title
;
Structure prediction by ZEFSAII (Michael W. Deem and Ramdas Pophale) SiO2 
 PCOD9561355
Probable space group: I -4 2 D
;
_chemical_formula_sum "Si O2"
_cell_formula_units_Z 92
_cell_length_a 13.428137
_cell_length_b 13.428137
_cell_length_c 18.948093
_cell_angle_alpha 90.000000
_cell_angle_beta 90.000000
_cell_angle_gamma 90.000000
_cell_volume 3416.622799
_symmetry_space_group_name_H-M "I -4 2 D"
_symmetry_group_IT_number 122
_symmetry_cell_setting 'tetragonal'
loop_
_space_group_symop_operation_xyz
x,y,z
y,-x,-z
-x,-y,z
-y,x,-z
x,1/2-y,1/4-z
-x,1/2+y,1/4-z
-y,1/2-x,1/4+z
y,1/2+x,1/4+z
1/2+x,1/2+y,1/2+z
1/2+y,1/2-x,1/2-z
1/2-x,1/2-y,1/2+z
1/2-y,1/2+x,1/2-z
1/2+x,-y,3/4-z
1/2-x,y,3/4-z
1/2-y,-x,3/4+z
1/2+y,x,3/4+z
loop_
_atom_site_type_symbol
_atom_site_label
_atom_site_fract_x
_atom_site_fract_y
_atom_site_fract_z
Si Si1 0.905032 0.131610 0.881289
Si Si2 0.834038 0.379884 0.057409
Si Si3 0.474093 0.684078 0.803018
Si Si4 0.283774 0.498090 0.948755
Si Si5 0.000000 0.000000 0.000000
Si Si6 0.000000 0.500000 0.843356
Si Si7 0.710358 0.187570 0.013890
O O1 0.018946 0.137017 0.851420
O O2 0.894251 0.234800 0.923925
O O3 0.824501 0.150335 0.816769
O O4 0.916906 0.048448 0.945191
O O5 0.787753 0.266029 0.050803
O O6 0.940577 0.360663 0.020867
O O7 0.749274 0.429143 0.009011
O O8 0.477535 0.594721 0.857984
O O9 0.582468 0.731781 0.800111
O O10 0.250000 0.544453 0.875000
O O11 0.399166 0.478059 0.946762
O O12 0.225753 0.395965 0.958190
#
# Coordination Sequence:
#
# PCOD9561355 Si02
#       7
#    16  16  16  16   4   8  16
#     4  11  27  48  75 111 148 209 262 323 407 472
#     4  11  25  45  72 108 156 194 259 337 403 491
#     4  12  24  43  72 103 137 209 250 319 401 462
#     4  11  21  40  68 108 146 200 245 323 406 496
#     4  12  28  58  76 108 162 216 296 334 376 504
#     4  12  20  37  71 104 155 187 252 304 404 496
#     4  11  25  45  72 108 156 194 259 337 403 491
#
# _framework density 26.927174000000001
#
# number of rings (size 3 to 8) (size 9 to 14) (size 15 to 20)
#    0.000    0.696    3.478    4.174    2.435    1.391 
#    0.000    5.217    0.000    0.000    0.000    0.000 
#    0.000    0.000    0.000    0.000    0.000    0.000 
#
# Total GULP energy -256270.282448 kJ/mol
# GULP energy per Si atom -5571.093097 kJ/mol
# Density = 2.686589 g / cm^3
# Si number density = 26.927174 Si / 1000 Ang^3
#
#
#
# Elastic Constant Matrix: (Units=GPa)
#
#
# Indices 1 2 3 4 5 6 
#
# 1 113.4908 -17.1564 14.8971 0.0000 0.0000 0.0000
# 2 -17.1564 113.4908 14.8971 0.0000 0.0000 0.0000
# 3 14.8971 14.8971 38.8371 0.0000 0.0000 0.0000
# 4 0.0000 0.0000 0.0000 -422.2548 0.0000 0.0000
# 5 0.0000 0.0000 0.0000 0.0000 -422.2550 0.0000
# 6 0.0000 0.0000 0.0000 0.0000 0.0000 27.4962
#
#
#
# Elastic Compliance Matrix: (Units=1/GPa)
#
#
# Indices 1 2 3 4 5 6 
#
# 1 0.009716 0.002062 -0.004518 0.000000 0.000000 0.000000
# 2 0.002062 0.009716 -0.004518 0.000000 0.000000 0.000000
# 3 -0.004518 -0.004518 0.029214 0.000000 0.000000 0.000000
# 4 0.000000 0.000000 0.000000 -0.002368 0.000000 0.000000
# 5 0.000000 0.000000 0.000000 0.000000 -0.002368 0.000000
# 6 0.000000 0.000000 0.000000 0.000000 0.000000 0.036369
#
#
# Mechanical properties :
#
#
# Convention : Reuss Voigt Hill
#
# Bulk Modulus (GPa) = 28.81924 32.34384 30.58154
# Shear Modulus (GPa) = 47.26248 -146.52402 -49.63077
#
# Velocity S-wave (km/s) = 4.19405 -7.38465 -4.29785
# Velocity P-wave (km/s) = 5.84631 7.78929 3.63963
#
# Compressibility (1/GPa) = 0.03469904
#
# Stress axis : x y z
#
# Youngs Moduli (GPa) = 102.92335 102.92335 34.22972
#
# Poissons Ratio (x) = -0.21220 0.15464
# Poissons Ratio (y) = -0.21220 0.15464
# Poissons Ratio (z) = 0.46498 0.46498
#
# Static dielectric constant tensor:
#      x y z
#    x 2.701660 0.000000 0.000000 
#    y 0.000000 2.701660 0.000000 
#    z 0.000000 0.000000 2.350480 
# 
# From -- ./inp_files/7370.got.cif
#   From: 2010.05.17/outbox.cif.g08.bks.cpg/sg122_4_cif.got.tgz:7370.got - 2010.05.20 11:37:33.
