data_PCOD9561296
_publ_section_title
;
Structure prediction by ZEFSAII (Michael W. Deem and Ramdas Pophale) SiO2 
 PCOD9561296
Probable space group: I -4 2 D
;
_chemical_formula_sum "Si O2"
_cell_formula_units_Z 72
_cell_length_a 13.274552
_cell_length_b 13.274552
_cell_length_c 20.826919
_cell_angle_alpha 90.000000
_cell_angle_beta 90.000000
_cell_angle_gamma 90.000000
_cell_volume 3669.989098
_symmetry_space_group_name_H-M "I -4 2 D"
_symmetry_group_IT_number 122
_symmetry_cell_setting 'tetragonal'
loop_
_space_group_symop_operation_xyz
x,y,z
y,-x,-z
-x,-y,z
-y,x,-z
x,1/2-y,1/4-z
-x,1/2+y,1/4-z
-y,1/2-x,1/4+z
y,1/2+x,1/4+z
1/2+x,1/2+y,1/2+z
1/2+y,1/2-x,1/2-z
1/2-x,1/2-y,1/2+z
1/2-y,1/2+x,1/2-z
1/2+x,-y,3/4-z
1/2-x,y,3/4-z
1/2-y,-x,3/4+z
1/2+y,x,3/4+z
loop_
_atom_site_type_symbol
_atom_site_label
_atom_site_fract_x
_atom_site_fract_y
_atom_site_fract_z
Si Si1 0.885931 0.041545 0.273895
Si Si2 0.814066 0.510064 0.430124
Si Si3 0.156677 0.533065 0.227244
Si Si4 0.073997 0.818682 0.845815
Si Si5 0.840304 0.750000 0.625000
O O1 0.912640 0.131133 0.225113
O O2 0.813219 0.086547 0.327653
O O3 0.825659 0.966666 0.226781
O O4 0.000000 0.000000 0.292475
O O5 0.750000 0.561115 0.375000
O O6 0.750664 0.439993 0.478381
O O7 0.886892 0.433042 0.393746
O O8 0.069711 0.613727 0.239939
O O9 0.190629 0.506277 0.154674
O O10 0.161993 0.736107 0.850655
#
# Coordination Sequence:
#
# PCOD9561296 Si02
#       5
#    16  16  16  16   8
#     4  10  25  43  64  93 131 167 213 277 325 374
#     4  11  19  36  60  91 131 163 199 262 323 379
#     4  11  20  31  57  92 127 165 203 253 320 385
#     4  11  22  40  61  93 122 163 213 260 323 385
#     4  12  22  48  70  90 124 176 222 268 322 392
#
# _framework density 19.618586000000001
#
# number of rings (size 3 to 8) (size 9 to 14) (size 15 to 20)
#    0.000    1.111    5.556    1.333    6.222    0.000 
#    4.000    0.000    0.000    0.000    0.000    0.000 
#    0.000    0.000    0.000    0.000    0.000    0.000 
#
# Total GULP energy -200507.595177 kJ/mol
# GULP energy per Si atom -5569.655422 kJ/mol
# Density = 1.957393 g / cm^3
# Si number density = 19.618586 Si / 1000 Ang^3
#
#
#
# Elastic Constant Matrix: (Units=GPa)
#
#
# Indices 1 2 3 4 5 6 
#
# 1 71.9456 28.8513 62.2013 0.0000 0.0000 0.0000
# 2 28.8513 71.9456 62.2013 0.0000 0.0000 0.0000
# 3 62.2013 62.2013 121.9554 0.0000 0.0000 0.0000
# 4 0.0000 0.0000 0.0000 26.4545 0.0000 0.0000
# 5 0.0000 0.0000 0.0000 0.0000 26.4545 0.0000
# 6 0.0000 0.0000 0.0000 0.0000 0.0000 29.5431
#
#
#
# Elastic Compliance Matrix: (Units=1/GPa)
#
#
# Indices 1 2 3 4 5 6 
#
# 1 0.024990 0.001785 -0.013656 0.000000 0.000000 0.000000
# 2 0.001785 0.024990 -0.013656 0.000000 0.000000 0.000000
# 3 -0.013656 -0.013656 0.022130 0.000000 0.000000 0.000000
# 4 0.000000 0.000000 0.000000 0.037801 0.000000 0.000000
# 5 0.000000 0.000000 0.000000 0.000000 0.037801 0.000000
# 6 0.000000 0.000000 0.000000 0.000000 0.000000 0.033849
#
#
# Mechanical properties :
#
#
# Convention : Reuss Voigt Hill
#
# Bulk Modulus (GPa) = 47.49330 63.59492 55.54411
# Shear Modulus (GPa) = 20.86513 23.99663 22.43088
#
# Velocity S-wave (km/s) = 3.26473 3.50116 3.38501
# Velocity P-wave (km/s) = 6.20259 6.98786 6.60690
#
# Compressibility (1/GPa) = 0.02105560
#
# Stress axis : x y z
#
# Youngs Moduli (GPa) = 40.01569 40.01569 45.18727
#
# Poissons Ratio (x) = -0.07144 0.61709
# Poissons Ratio (y) = -0.07144 0.61709
# Poissons Ratio (z) = 0.54647 0.54647
#
# Static dielectric constant tensor:
#      x y z
#    x 1.787160 0.000000 0.000000 
#    y 0.000000 1.787160 0.000000 
#    z 0.000000 0.000000 1.745500 
# 
# From -- ./inp_files/6117.got.cif
#   From: 2010.05.17/outbox.cif.g08.bks.cpg/sg122_4_cif.got.tgz:6117.got - 2010.05.20 11:37:33.
