data_PCOD9561320
_publ_section_title
;
Structure prediction by ZEFSAII (Michael W. Deem and Ramdas Pophale) SiO2 
 PCOD9561320
Probable space group: I -4 2 D
;
_chemical_formula_sum "Si O2"
_cell_formula_units_Z 28
_cell_length_a 9.978703
_cell_length_b 9.978703
_cell_length_c 12.473438
_cell_angle_alpha 90.000000
_cell_angle_beta 90.000000
_cell_angle_gamma 90.000000
_cell_volume 1242.036521
_symmetry_space_group_name_H-M "I -4 2 D"
_symmetry_group_IT_number 122
_symmetry_cell_setting 'tetragonal'
loop_
_space_group_symop_operation_xyz
x,y,z
y,-x,-z
-x,-y,z
-y,x,-z
x,1/2-y,1/4-z
-x,1/2+y,1/4-z
-y,1/2-x,1/4+z
y,1/2+x,1/4+z
1/2+x,1/2+y,1/2+z
1/2+y,1/2-x,1/2-z
1/2-x,1/2-y,1/2+z
1/2-y,1/2+x,1/2-z
1/2+x,-y,3/4-z
1/2-x,y,3/4-z
1/2-y,-x,3/4+z
1/2+y,x,3/4+z
loop_
_atom_site_type_symbol
_atom_site_label
_atom_site_fract_x
_atom_site_fract_y
_atom_site_fract_z
Si Si1 0.000000 0.500000 0.250000
Si Si2 0.750000 0.793334 0.375000
Si Si3 0.643780 0.979589 0.555519
O O1 0.080889 0.596950 0.329614
O O2 0.879707 0.706745 0.407977
O O3 0.727513 0.888081 0.478069
O O4 0.500000 0.000000 0.497940
#
# Coordination Sequence:
#
# PCOD9561320 Si02
#       3
#     4   8  16
#     4   8  24  48  68 106 148 204 252 300 412 446
#     4  12  28  48  80 108 164 190 282 318 404 456
#     4  10  28  48  76 114 147 212 252 337 384 478
#
# _framework density 22.543620000000001
#
# number of rings (size 3 to 8) (size 9 to 14) (size 15 to 20)
#    1.714    0.000    0.000    0.000   16.000    2.286 
#    0.000    0.000    0.000    0.000    0.000    0.000 
#    0.000    0.000    0.000    0.000    0.000    0.000 
#
# Total GULP energy -78026.461881 kJ/mol
# GULP energy per Si atom -5573.318706 kJ/mol
# Density = 2.249231 g / cm^3
# Si number density = 22.543620 Si / 1000 Ang^3
#
#
#
# Elastic Constant Matrix: (Units=GPa)
#
#
# Indices 1 2 3 4 5 6 
#
# 1 95.7910 57.7020 48.0802 0.0000 0.0000 0.0000
# 2 57.7020 95.7910 48.0802 0.0000 0.0000 0.0000
# 3 48.0802 48.0802 144.9472 0.0000 0.0000 0.0000
# 4 0.0000 0.0000 0.0000 17.4584 0.0000 0.0000
# 5 0.0000 0.0000 0.0000 0.0000 17.4584 0.0000
# 6 0.0000 0.0000 0.0000 0.0000 0.0000 48.0551
#
#
#
# Elastic Compliance Matrix: (Units=1/GPa)
#
#
# Indices 1 2 3 4 5 6 
#
# 1 0.017239 -0.009015 -0.002728 0.000000 0.000000 0.000000
# 2 -0.009015 0.017239 -0.002728 0.000000 0.000000 0.000000
# 3 -0.002728 -0.002728 0.008709 0.000000 0.000000 0.000000
# 4 0.000000 0.000000 0.000000 0.057279 0.000000 0.000000
# 5 0.000000 0.000000 0.000000 0.000000 0.057279 0.000000
# 6 0.000000 0.000000 0.000000 0.000000 0.000000 0.020809
#
#
# Mechanical properties :
#
#
# Convention : Reuss Voigt Hill
#
# Bulk Modulus (GPa) = 70.20039 71.58378 70.89208
# Shear Modulus (GPa) = 23.55770 28.77219 26.16495
#
# Velocity S-wave (km/s) = 3.23613 3.57640 3.41051
# Velocity P-wave (km/s) = 6.72092 6.99118 6.85738
#
# Compressibility (1/GPa) = 0.01424494
#
# Stress axis : x y z
#
# Youngs Moduli (GPa) = 58.00758 58.00758 114.82591
#
# Poissons Ratio (x) = 0.52295 0.31324
# Poissons Ratio (y) = 0.52295 0.31324
# Poissons Ratio (z) = 0.15824 0.15824
#
# Static dielectric constant tensor:
#      x y z
#    x 1.937550 0.000000 0.000000 
#    y 0.000000 1.937550 0.000000 
#    z 0.000000 0.000000 1.827960 
# 
# From -- ./inp_files/3237.got.cif
#   From: 2010.05.17/outbox.cif.g08.bks.cpg/sg122_2_cif.got.tgz:3237.got - 2010.05.20 11:37:33.
