data_PCOD9561921
_publ_section_title
;
Structure prediction by ZEFSAII (Michael W. Deem and Ramdas Pophale) SiO2 
 PCOD9561921
Probable space group: P 4/M M M
;
_chemical_formula_sum "Si O2"
_cell_formula_units_Z 80
_cell_length_a 17.974581
_cell_length_b 17.974581
_cell_length_c 12.968387
_cell_angle_alpha 90.000000
_cell_angle_beta 90.000000
_cell_angle_gamma 90.000000
_cell_volume 4189.898604
_symmetry_space_group_name_H-M "P 4/M M M"
_symmetry_group_IT_number 123
_symmetry_cell_setting 'tetragonal'
loop_
_space_group_symop_operation_xyz
x,y,z
-y,x,z
-x,-y,z
y,-x,z
x,-y,-z
-x,y,-z
y,x,-z
-y,-x,-z
-x,-y,-z
y,-x,-z
x,y,-z
-y,x,-z
-x,y,z
x,-y,z
-y,-x,z
y,x,z
loop_
_atom_site_type_symbol
_atom_site_label
_atom_site_fract_x
_atom_site_fract_y
_atom_site_fract_z
Si Si1 0.872478 0.372537 0.384664
Si Si2 0.917077 0.585264 0.165922
Si Si3 0.641094 0.759706 0.884803
Si Si4 0.915620 0.202866 0.375690
Si Si5 0.706953 0.584779 0.669853
O O1 0.901266 0.387270 0.500000
O O2 0.911600 0.413726 0.290432
O O3 0.883064 0.285142 0.360870
O O4 0.785527 0.392992 0.380539
O O5 0.905069 0.500000 0.131307
O O6 0.848376 0.635002 0.128419
O O7 0.000000 0.608785 0.135062
O O8 0.722898 0.722898 0.873416
O O9 0.593613 0.723803 0.792547
O O10 0.614644 0.740993 0.000000
O O11 0.919396 0.193767 0.500000
O O12 0.860318 0.139683 0.335162
O O13 0.000000 0.198476 0.335907
O O14 0.688438 0.500000 0.645116
O O15 0.642645 0.642645 0.641806
#
# Coordination Sequence:
#
# PCOD9561921 Si02
#       5
#    16  16  16  16  16
#     4  10  19  33  51  69  95 132 173 211 245 290
#     4  10  21  34  49  75 107 134 164 204 253 307
#     4   9  18  34  55  76 100 132 169 206 243 293
#     4   9  17  28  43  64  89 119 155 194 237 282
#     4  10  21  35  52  75  99 126 164 208 256 310
#
# _framework density 19.093540000000001
#
# number of rings (size 3 to 8) (size 9 to 14) (size 15 to 20)
#    0.000    2.400    0.000    3.600    0.000    7.200 
#    0.000    3.000    0.000    0.000    0.000    4.200 
#    0.000    0.400    0.000    2.200    0.000    0.000 
#
# Total GULP energy -446232.938225 kJ/mol
# GULP energy per Si atom -5577.911728 kJ/mol
# Density = 1.905008 g / cm^3
# Si number density = 19.093540 Si / 1000 Ang^3
#
#
#
# Elastic Constant Matrix: (Units=GPa)
#
#
# Indices 1 2 3 4 5 6 
#
# 1 75.4045 71.2803 -2.6430 0.0000 0.0000 0.0000
# 2 71.2803 75.4045 -2.6430 0.0000 0.0000 0.0000
# 3 -2.6430 -2.6430 65.0176 0.0000 0.0000 0.0000
# 4 0.0000 0.0000 0.0000 3.7174 0.0000 0.0000
# 5 0.0000 0.0000 0.0000 0.0000 3.7174 0.0000
# 6 0.0000 0.0000 0.0000 0.0000 0.0000 23.3805
#
#
#
# Elastic Compliance Matrix: (Units=1/GPa)
#
#
# Indices 1 2 3 4 5 6 
#
# 1 0.124651 -0.117824 0.000278 0.000000 0.000000 0.000000
# 2 -0.117824 0.124651 0.000278 0.000000 0.000000 0.000000
# 3 0.000278 0.000278 0.015403 0.000000 0.000000 0.000000
# 4 0.000000 0.000000 0.000000 0.269004 0.000000 0.000000
# 5 0.000000 0.000000 0.000000 0.000000 0.269004 0.000000
# 6 0.000000 0.000000 0.000000 0.000000 0.000000 0.042771
#
#
# Mechanical properties :
#
#
# Convention : Reuss Voigt Hill
#
# Bulk Modulus (GPa) = 33.14788 38.64612 35.89700
# Shear Modulus (GPa) = 4.58683 16.15188 10.36936
#
# Velocity S-wave (km/s) = 1.55162 2.91165 2.33294
# Velocity P-wave (km/s) = 4.53966 5.62032 5.10864
#
# Compressibility (1/GPa) = 0.03016784
#
# Stress axis : x y z
#
# Youngs Moduli (GPa) = 8.02240 8.02240 64.92240
#
# Poissons Ratio (x) = 0.94523 -0.01802
# Poissons Ratio (y) = 0.94523 -0.01802
# Poissons Ratio (z) = -0.00223 -0.00223
#
# Static dielectric constant tensor:
#      x y z
#    x 1.661120 0.000000 0.000000 
#    y 0.000000 1.661120 0.000000 
#    z 0.000000 0.000000 1.711570 
# 
# From -- ./inp_files/3897.got.cif
#   From: 2010.05.17/outbox.cif.g08.bks.cpg/sg123_2_cif.got.tgz:3897.got - 2010.05.20 11:43:04.
