data_PCOD9561752
_publ_section_title
;
Structure prediction by ZEFSAII (Michael W. Deem and Ramdas Pophale) SiO2 
 PCOD9561752
Probable space group: P 4/M M M
;
_chemical_formula_sum "Si O2"
_cell_formula_units_Z 112
_cell_length_a 14.556290
_cell_length_b 14.556290
_cell_length_c 35.352930
_cell_angle_alpha 90.000000
_cell_angle_beta 90.000000
_cell_angle_gamma 90.000000
_cell_volume 7490.776027
_symmetry_space_group_name_H-M "P 4/M M M"
_symmetry_group_IT_number 123
_symmetry_cell_setting 'tetragonal'
loop_
_space_group_symop_operation_xyz
x,y,z
-y,x,z
-x,-y,z
y,-x,z
x,-y,-z
-x,y,-z
y,x,-z
-y,-x,-z
-x,-y,-z
y,-x,-z
x,y,-z
-y,x,-z
-x,y,z
x,-y,z
-y,-x,z
y,x,z
loop_
_atom_site_type_symbol
_atom_site_label
_atom_site_fract_x
_atom_site_fract_y
_atom_site_fract_z
Si Si1 0.240016 0.392553 0.457060
Si Si2 0.394010 0.891040 0.245993
Si Si3 0.737820 0.890142 0.683831
Si Si4 0.606639 0.108671 0.612948
Si Si5 0.606100 0.757395 0.822731
Si Si6 0.608314 0.239179 0.911162
Si Si7 0.106779 0.742815 0.045474
O O1 0.204509 0.378116 0.500000
O O2 0.265054 0.500000 0.453922
O O3 0.327543 0.327543 0.452035
O O4 0.165997 0.372553 0.424691
O O5 0.500000 0.871199 0.257409
O O6 0.323592 0.867567 0.279309
O O7 0.374857 0.837013 0.207397
O O8 0.387901 0.000000 0.239481
O O9 0.828905 0.828905 0.683405
O O10 0.675356 0.869597 0.647083
O O11 0.756180 0.000000 0.684186
O O12 0.500000 0.126855 0.623856
O O13 0.613685 0.000000 0.605241
O O14 0.500000 0.729545 0.818257
O O15 0.673318 0.673318 0.815233
O O16 0.617607 0.785154 0.866613
O O17 0.500000 0.249207 0.919683
O O18 0.666857 0.333143 0.917118
O O19 0.658346 0.160626 0.935424
O O20 0.165618 0.834383 0.055059
O O21 0.000000 0.748393 0.056816
O O22 0.109886 0.732635 0.000000
#
# Coordination Sequence:
#
# PCOD9561752 Si02
#       7
#    16  16  16  16  16  16  16
#     4   9  17  28  42  61  85 112 140 169 201 240
#     4   9  17  29  45  65  87 110 139 175 213 252
#     4  10  19  30  45  63  84 111 140 171 208 249
#     4   9  17  29  45  64  84 106 135 172 212 250
#     4   9  17  29  45  65  89 116 145 177 213 253
#     4   9  18  31  46  66  92 121 153 187 221 259
#     4   9  18  32  49  69  92 117 146 182 224 269
#
# _framework density 14.951722999999999
#
# number of rings (size 3 to 8) (size 9 to 14) (size 15 to 20)
#    0.000    2.857    0.000    1.286    0.000    3.857 
#    0.000    6.429    0.000    0.000    0.000    2.000 
#    0.000   13.714    0.000   13.286    0.000    0.286 
#
# Total GULP energy -623699.486784 kJ/mol
# GULP energy per Si atom -5568.745418 kJ/mol
# Density = 1.491769 g / cm^3
# Si number density = 14.951723 Si / 1000 Ang^3
#
#
#
# Elastic Constant Matrix: (Units=GPa)
#
#
# Indices 1 2 3 4 5 6 
#
# 1 87.1994 60.2061 53.1692 0.0000 0.0000 0.0000
# 2 60.2061 87.1994 53.1692 0.0000 0.0000 0.0000
# 3 53.1692 53.1692 59.5075 0.0000 0.0000 0.0000
# 4 0.0000 0.0000 0.0000 24.6855 0.0000 0.0000
# 5 0.0000 0.0000 0.0000 0.0000 24.6855 0.0000
# 6 0.0000 0.0000 0.0000 0.0000 0.0000 22.9103
#
#
#
# Elastic Compliance Matrix: (Units=1/GPa)
#
#
# Indices 1 2 3 4 5 6 
#
# 1 0.028066 -0.008980 -0.017053 0.000000 0.000000 0.000000
# 2 -0.008980 0.028066 -0.017053 0.000000 0.000000 0.000000
# 3 -0.017053 -0.017053 0.047279 0.000000 0.000000 0.000000
# 4 0.000000 0.000000 0.000000 0.040510 0.000000 0.000000
# 5 0.000000 0.000000 0.000000 0.000000 0.040510 0.000000
# 6 0.000000 0.000000 0.000000 0.000000 0.000000 0.043649
#
#
# Mechanical properties :
#
#
# Convention : Reuss Voigt Hill
#
# Bulk Modulus (GPa) = 58.01247 62.99949 60.50598
# Shear Modulus (GPa) = 15.62505 18.94703 17.28604
#
# Velocity S-wave (km/s) = 3.23620 3.56366 3.40387
# Velocity P-wave (km/s) = 7.26967 7.69153 7.48357
#
# Compressibility (1/GPa) = 0.01723767
#
# Stress axis : x y z
#
# Youngs Moduli (GPa) = 35.62991 35.62991 21.15111
#
# Poissons Ratio (x) = 0.31995 0.36070
# Poissons Ratio (y) = 0.31995 0.36070
# Poissons Ratio (z) = 0.60761 0.60761
#
# Static dielectric constant tensor:
#      x y z
#    x 1.478520 0.000000 0.000000 
#    y 0.000000 1.478520 0.000000 
#    z 0.000000 0.000000 1.492190 
# 
# From -- ./inp_files/8164.got.cif
#   From: 2010.05.17/outbox.cif.g08.bks.cpg/sg123_5_cif.got.tgz:8164.got - 2010.05.20 11:43:04.
