data_PCOD9561640
_publ_section_title
;
Structure prediction by ZEFSAII (Michael W. Deem and Ramdas Pophale) SiO2 
 PCOD9561640
Probable space group: P 4/M M M
;
_chemical_formula_sum "Si O2"
_cell_formula_units_Z 64
_cell_length_a 20.687345
_cell_length_b 20.687345
_cell_length_c 7.311289
_cell_angle_alpha 90.000000
_cell_angle_beta 90.000000
_cell_angle_gamma 90.000000
_cell_volume 3128.984886
_symmetry_space_group_name_H-M "P 4/M M M"
_symmetry_group_IT_number 123
_symmetry_cell_setting 'tetragonal'
loop_
_space_group_symop_operation_xyz
x,y,z
-y,x,z
-x,-y,z
y,-x,z
x,-y,-z
-x,y,-z
y,x,-z
-y,-x,-z
-x,-y,-z
y,-x,-z
x,y,-z
-y,x,-z
-x,y,z
x,-y,z
-y,-x,z
y,x,z
loop_
_atom_site_type_symbol
_atom_site_label
_atom_site_fract_x
_atom_site_fract_y
_atom_site_fract_z
Si Si1 0.093023 0.428247 0.210870
Si Si2 0.191196 0.191196 0.791849
Si Si3 0.072744 0.280726 0.222103
Si Si4 0.702605 0.702605 0.277588
Si Si5 0.244160 0.568375 0.279088
O O1 0.073583 0.500000 0.286885
O O2 0.076953 0.356341 0.286257
O O3 0.170415 0.429019 0.216810
O O4 0.071563 0.428147 0.000000
O O5 0.230210 0.128357 0.714325
O O6 0.246004 0.246004 0.791628
O O7 0.173129 0.173129 0.000000
O O8 0.000000 0.258061 0.263646
O O9 0.080029 0.284252 0.000000
O O10 0.705366 0.705366 0.500000
O O11 0.631608 0.720481 0.215918
O O12 0.242759 0.569850 0.500000
O O13 0.272919 0.500000 0.221752
#
# Coordination Sequence:
#
# PCOD9561640 Si02
#       5
#    16   8  16   8  16
#     4   9  16  26  42  64  89 116 146 177 209 254
#     4  10  18  30  48  67  87 113 147 184 220 261
#     4   9  17  28  43  65  91 117 145 180 221 260
#     4  10  18  28  46  67  87 115 149 186 220 255
#     4   9  17  28  42  62  89 118 145 177 220 262
#
# _framework density 20.453918000000002
#
# number of rings (size 3 to 8) (size 9 to 14) (size 15 to 20)
#    0.000    2.750    2.500    0.000    0.000    0.500 
#    0.000    2.500    0.000    3.750    0.000    8.750 
#    0.000    0.000    0.000    8.500    0.000    9.000 
#
# Total GULP energy -356478.349971 kJ/mol
# GULP energy per Si atom -5569.974218 kJ/mol
# Density = 2.040736 g / cm^3
# Si number density = 20.453918 Si / 1000 Ang^3
#
#
#
# Elastic Constant Matrix: (Units=GPa)
#
#
# Indices 1 2 3 4 5 6 
#
# 1 168.9410 103.0199 4.5440 0.0000 0.0000 0.0000
# 2 103.0199 168.9410 4.5440 0.0000 0.0000 0.0000
# 3 4.5440 4.5440 81.8994 0.0000 0.0000 0.0000
# 4 0.0000 0.0000 0.0000 -0.4394 0.0000 0.0000
# 5 0.0000 0.0000 0.0000 0.0000 -0.4394 0.0000
# 6 0.0000 0.0000 0.0000 0.0000 0.0000 16.2943
#
#
#
# Elastic Compliance Matrix: (Units=1/GPa)
#
#
# Indices 1 2 3 4 5 6 
#
# 1 0.009427 -0.005743 -0.000204 0.000000 0.000000 0.000000
# 2 -0.005743 0.009427 -0.000204 0.000000 0.000000 0.000000
# 3 -0.000204 -0.000204 0.012233 0.000000 0.000000 0.000000
# 4 0.000000 0.000000 0.000000 -2.275631 0.000000 0.000000
# 5 0.000000 0.000000 0.000000 0.000000 -2.275631 0.000000
# 6 0.000000 0.000000 0.000000 0.000000 0.000000 0.061371
#
#
# Mechanical properties :
#
#
# Convention : Reuss Voigt Hill
#
# Bulk Modulus (GPa) = 53.23996 71.55525 62.39760
# Shear Modulus (GPa) = -1.12607 23.59466 11.23430
#
# Velocity S-wave (km/s) = -0.74279 3.40008 2.34615
# Velocity P-wave (km/s) = 5.03489 7.10448 6.15726
#
# Compressibility (1/GPa) = 0.01878289
#
# Stress axis : x y z
#
# Youngs Moduli (GPa) = 106.08122 106.08122 81.74760
#
# Poissons Ratio (x) = 0.60922 0.01671
# Poissons Ratio (y) = 0.60922 0.01671
# Poissons Ratio (z) = 0.02168 0.02168
#
# Static dielectric constant tensor:
#      x y z
#    x 1.726010 0.000000 0.000000 
#    y 0.000000 1.726010 0.000000 
#    z 0.000000 0.000000 1.789150 
# 
# From -- ./inp_files/922.got.cif
#   From: 2010.05.17/outbox.cif.g08.bks.cpg/sg123_1_cif.got.tgz:922.got - 2010.05.20 11:43:04.
