data_PCOD9561466
_publ_section_title
;
Structure prediction by ZEFSAII (Michael W. Deem and Ramdas Pophale) SiO2 
 PCOD9561466
Probable space group: I -4 2 D
;
_chemical_formula_sum "Si O2"
_cell_formula_units_Z 96
_cell_length_a 19.487171
_cell_length_b 19.487171
_cell_length_c 10.039579
_cell_angle_alpha 90.000000
_cell_angle_beta 90.000000
_cell_angle_gamma 90.000000
_cell_volume 3812.528454
_symmetry_space_group_name_H-M "I -4 2 D"
_symmetry_group_IT_number 122
_symmetry_cell_setting 'tetragonal'
loop_
_space_group_symop_operation_xyz
x,y,z
y,-x,-z
-x,-y,z
-y,x,-z
x,1/2-y,1/4-z
-x,1/2+y,1/4-z
-y,1/2-x,1/4+z
y,1/2+x,1/4+z
1/2+x,1/2+y,1/2+z
1/2+y,1/2-x,1/2-z
1/2-x,1/2-y,1/2+z
1/2-y,1/2+x,1/2-z
1/2+x,-y,3/4-z
1/2-x,y,3/4-z
1/2-y,-x,3/4+z
1/2+y,x,3/4+z
loop_
_atom_site_type_symbol
_atom_site_label
_atom_site_fract_x
_atom_site_fract_y
_atom_site_fract_z
Si Si1 0.804456 0.657067 0.704575
Si Si2 0.409518 0.937340 0.731745
Si Si3 0.329373 0.003660 0.219813
Si Si4 0.721058 0.378933 0.699184
Si Si5 0.447384 0.063091 0.060766
Si Si6 0.823168 0.155049 0.911929
O O1 0.808076 0.580775 0.762772
O O2 0.825591 0.714067 0.811195
O O3 0.855117 0.679968 0.581781
O O4 0.729923 0.667695 0.641784
O O5 0.485566 0.908855 0.716274
O O6 0.391701 0.948685 0.573536
O O7 0.383308 0.896442 0.863831
O O8 0.264005 0.951796 0.201986
O O9 0.386335 0.970790 0.318186
O O10 0.373883 0.027017 0.091111
O O11 0.675789 0.357046 0.571350
O O12 0.500000 0.000000 0.051989
O O13 0.750000 0.126219 0.875000
#
# Coordination Sequence:
#
# PCOD9561466 Si02
#       6
#    16  16  16  16  16  16
#     4  11  25  50  76 109 158 204 247 333 384 465
#     4  11  27  49  74 111 157 208 256 330 397 477
#     4  12  24  44  81 119 147 204 264 323 400 463
#     4  11  25  48  76 111 158 202 257 320 401 464
#     4  12  21  43  75 117 160 189 255 331 393 458
#     4  12  28  48  77 109 157 206 261 314 391 486
#
# _framework density 25.180139
#
# number of rings (size 3 to 8) (size 9 to 14) (size 15 to 20)
#    0.000    0.500    6.667    1.500    7.000    1.333 
#    0.000    3.333    0.000    0.000    0.000    0.000 
#    0.000    0.000    0.000    0.000    0.000    0.000 
#
# Total GULP energy -267535.496599 kJ/mol
# GULP energy per Si atom -5573.656179 kJ/mol
# Density = 2.512283 g / cm^3
# Si number density = 25.180139 Si / 1000 Ang^3
#
#
#
# Elastic Constant Matrix: (Units=GPa)
#
#
# Indices 1 2 3 4 5 6 
#
# 1 118.1726 -100.9921 -29.6790 0.0000 0.0000 0.0000
# 2 -100.9921 118.1726 -29.6790 0.0000 0.0000 0.0000
# 3 -29.6790 -29.6790 46.8313 0.0000 0.0000 0.0000
# 4 0.0000 0.0000 0.0000 82.5656 0.0000 0.0000
# 5 0.0000 0.0000 0.0000 0.0000 82.5656 0.0000
# 6 0.0000 0.0000 0.0000 0.0000 0.0000 54.1662
#
#
#
# Elastic Compliance Matrix: (Units=1/GPa)
#
#
# Indices 1 2 3 4 5 6 
#
# 1 -0.022184 -0.026747 -0.031009 0.000000 0.000000 0.000000
# 2 -0.026747 -0.022184 -0.031009 0.000000 0.000000 0.000000
# 3 -0.031009 -0.031009 -0.017951 0.000000 0.000000 0.000000
# 4 0.000000 0.000000 0.000000 0.012112 0.000000 0.000000
# 5 0.000000 0.000000 0.000000 0.000000 0.012112 0.000000
# 6 0.000000 0.000000 0.000000 0.000000 0.000000 0.018462
#
#
# Mechanical properties :
#
#
# Convention : Reuss Voigt Hill
#
# Bulk Modulus (GPa) = -4.16929 -4.16929 -4.16929
# Shear Modulus (GPa) = 64.14576 73.42793 68.78685
#
# Velocity S-wave (km/s) = 5.05273 5.40596 5.23232
# Velocity P-wave (km/s) = 5.69040 6.10790 5.90284
#
# Compressibility (1/GPa) = -0.23984892
#
# Stress axis : x y z
#
# Youngs Moduli (GPa) = -45.07788 -45.07788 -55.70821
#
# Poissons Ratio (x) = -1.20568 -1.72748
# Poissons Ratio (y) = -1.20568 -1.72748
# Poissons Ratio (z) = -1.39784 -1.39784
#
# Static dielectric constant tensor:
#      x y z
#    x 1.847260 0.000000 0.000000 
#    y 0.000000 1.847260 0.000000 
#    z 0.000000 0.000000 2.157830 
# 
# From -- ./inp_files/4453.got.cif
#   From: 2010.05.17/outbox.cif.g08.bks.cpg/sg122_3_cif.got.tgz:4453.got - 2010.05.20 11:37:33.
