data_PCOD9561979
_publ_section_title
;
Structure prediction by ZEFSAII (Michael W. Deem and Ramdas Pophale) SiO2 
 PCOD9561979
Probable space group: P 4/M M M
;
_chemical_formula_sum "Si O2"
_cell_formula_units_Z 88
_cell_length_a 13.742809
_cell_length_b 13.742809
_cell_length_c 28.636241
_cell_angle_alpha 90.000000
_cell_angle_beta 90.000000
_cell_angle_gamma 90.000000
_cell_volume 5408.377907
_symmetry_space_group_name_H-M "P 4/M M M"
_symmetry_group_IT_number 123
_symmetry_cell_setting 'tetragonal'
loop_
_space_group_symop_operation_xyz
x,y,z
-y,x,z
-x,-y,z
y,-x,z
x,-y,-z
-x,y,-z
y,x,-z
-y,-x,-z
-x,-y,-z
y,-x,-z
x,y,-z
-y,x,-z
-x,y,z
x,-y,z
-y,-x,z
y,x,z
loop_
_atom_site_type_symbol
_atom_site_label
_atom_site_fract_x
_atom_site_fract_y
_atom_site_fract_z
Si Si1 0.273418 0.883988 0.355247
Si Si2 0.881854 0.612304 0.552025
Si Si3 0.884298 0.274888 0.917248
Si Si4 0.886017 0.386308 0.178781
Si Si5 0.225400 0.615286 0.274590
Si Si6 0.384434 0.777296 0.000000
O O1 0.171765 0.828236 0.349556
O O2 0.320917 0.853576 0.404755
O O3 0.343781 0.846863 0.314137
O O4 0.263537 0.000000 0.353981
O O5 0.850081 0.643497 0.500000
O O6 0.851322 0.500000 0.559162
O O7 0.000000 0.611941 0.551646
O O8 0.826144 0.173857 0.922140
O O9 0.866706 0.319425 0.865862
O O10 0.000000 0.265020 0.924206
O O11 0.838248 0.348004 0.955135
O O12 0.871124 0.500000 0.166004
O O13 0.821139 0.364585 0.223804
O O14 0.000000 0.375360 0.191432
O O15 0.237713 0.500000 0.279513
O O16 0.325153 0.674847 0.279193
O O17 0.500000 0.763936 0.000000
O O18 0.323709 0.676292 0.000000
#
# Coordination Sequence:
#
# PCOD9561979 Si02
#       6
#    16  16  16  16  16   8
#     4  10  20  32  47  68  94 125 161 200 241 286
#     4   8  14  26  45  67  89 115 150 192 234 274
#     4  10  20  33  50  73 101 133 168 204 240 279
#     4   9  17  30  50  74  97 124 160 200 240 283
#     4  10  20  33  50  72  97 125 158 197 241 289
#     4  10  21  36  54  76 100 126 159 200 246 296
#
# _framework density 16.271052999999998
#
# number of rings (size 3 to 8) (size 9 to 14) (size 15 to 20)
#    0.000    2.545    0.000    3.000    0.000    4.273 
#    0.000    0.000    0.000    1.636    0.000    7.636 
#    0.000    0.000    0.000   16.909    0.000    0.909 
#
# Total GULP energy -490559.365124 kJ/mol
# GULP energy per Si atom -5574.538240 kJ/mol
# Density = 1.623402 g / cm^3
# Si number density = 16.271053 Si / 1000 Ang^3
#
#
#
# Elastic Constant Matrix: (Units=GPa)
#
#
# Indices 1 2 3 4 5 6 
#
# 1 100.7342 63.9168 58.5985 0.0000 0.0000 0.0000
# 2 63.9168 100.7338 58.5985 0.0000 0.0000 0.0000
# 3 58.5985 58.5985 101.7654 0.0000 0.0000 0.0000
# 4 0.0000 0.0000 0.0000 20.2922 0.0000 0.0000
# 5 0.0000 0.0000 0.0000 0.0000 20.2919 0.0000
# 6 0.0000 0.0000 0.0000 0.0000 0.0000 9.6220
#
#
#
# Elastic Compliance Matrix: (Units=1/GPa)
#
#
# Indices 1 2 3 4 5 6 
#
# 1 0.018726 -0.008435 -0.005926 0.000000 0.000000 0.000000
# 2 -0.008435 0.018726 -0.005926 0.000000 0.000000 0.000000
# 3 -0.005926 -0.005926 0.016651 0.000000 0.000000 0.000000
# 4 0.000000 0.000000 0.000000 0.049280 0.000000 0.000000
# 5 0.000000 0.000000 0.000000 0.000000 0.049281 0.000000
# 6 0.000000 0.000000 0.000000 0.000000 0.000000 0.103928
#
#
# Mechanical properties :
#
#
# Convention : Reuss Voigt Hill
#
# Bulk Modulus (GPa) = 73.90955 73.94008 73.92482
# Shear Modulus (GPa) = 16.57401 18.18254 17.37828
#
# Velocity S-wave (km/s) = 3.19504 3.34650 3.27165
# Velocity P-wave (km/s) = 7.68984 7.77647 7.73327
#
# Compressibility (1/GPa) = 0.01353005
#
# Stress axis : x y z
#
# Youngs Moduli (GPa) = 53.40070 53.40035 60.05549
#
# Poissons Ratio (x) = 0.45042 0.35589
# Poissons Ratio (y) = 0.45042 0.35590
# Poissons Ratio (z) = 0.31646 0.31646
#
# Static dielectric constant tensor:
#      x y z
#    x 1.524130 0.000000 0.000000 
#    y 0.000000 1.524130 0.000000 
#    z 0.000000 0.000000 1.550040 
# 
# From -- ./inp_files/7156.got.cif
#   From: 2010.05.17/outbox.cif.g08.bks.cpg/sg123_4_cif.got.tgz:7156.got - 2010.05.20 11:43:04.
