data_PCOD9561554
_publ_section_title
;
Structure prediction by ZEFSAII (Michael W. Deem and Ramdas Pophale) SiO2 
 PCOD9561554
Probable space group: I -4 2 D
;
_chemical_formula_sum "Si O2"
_cell_formula_units_Z 52
_cell_length_a 21.257949
_cell_length_b 21.257949
_cell_length_c 4.829026
_cell_angle_alpha 90.000000
_cell_angle_beta 90.000000
_cell_angle_gamma 90.000000
_cell_volume 2182.238760
_symmetry_space_group_name_H-M "I -4 2 D"
_symmetry_group_IT_number 122
_symmetry_cell_setting 'tetragonal'
loop_
_space_group_symop_operation_xyz
x,y,z
y,-x,-z
-x,-y,z
-y,x,-z
x,1/2-y,1/4-z
-x,1/2+y,1/4-z
-y,1/2-x,1/4+z
y,1/2+x,1/4+z
1/2+x,1/2+y,1/2+z
1/2+y,1/2-x,1/2-z
1/2-x,1/2-y,1/2+z
1/2-y,1/2+x,1/2-z
1/2+x,-y,3/4-z
1/2-x,y,3/4-z
1/2-y,-x,3/4+z
1/2+y,x,3/4+z
loop_
_atom_site_type_symbol
_atom_site_label
_atom_site_fract_x
_atom_site_fract_y
_atom_site_fract_z
Si Si1 0.082037 0.295532 0.890768
Si Si2 0.103453 0.675589 0.579351
Si Si3 0.500000 0.000000 0.250000
Si Si4 0.121520 0.465895 0.442347
O O1 0.086334 0.250000 0.625000
O O2 0.147344 0.327955 0.984933
O O3 0.028909 0.349501 0.919178
O O4 0.057774 0.250000 0.125000
O O5 0.097877 0.750000 0.625000
O O6 0.091743 0.648468 0.883184
O O7 0.052317 0.644821 0.366488
O O8 0.469163 0.950565 0.464218
#
# Coordination Sequence:
#
# PCOD9561554 Si02
#       4
#    16  16   4  16
#     4  12  26  45  73 106 150 202 254 315 384 462
#     4  12  27  47  74 107 149 204 256 317 384 466
#     4  12  28  46  84 118 156 202 256 338 396 474
#     4  12  26  47  74 110 154 191 257 320 402 455
#
# _framework density 23.82874
#
# number of rings (size 3 to 8) (size 9 to 14) (size 15 to 20)
#    0.000    0.000    3.077    7.385    4.308    2.462 
#    0.000    0.000    0.000    0.000    0.000    0.000 
#    0.000    0.000    0.000    0.000    0.000    0.000 
#
# Total GULP energy -145075.784125 kJ/mol
# GULP energy per Si atom -5579.837851 kJ/mol
# Density = 2.377450 g / cm^3
# Si number density = 23.828740 Si / 1000 Ang^3
#
#
#
# Elastic Constant Matrix: (Units=GPa)
#
#
# Indices 1 2 3 4 5 6 
#
# 1 85.4322 18.0124 15.6917 0.0000 0.0000 0.0000
# 2 18.0124 85.4322 15.6917 0.0000 0.0000 0.0000
# 3 15.6917 15.6917 119.0174 0.0000 0.0000 0.0000
# 4 0.0000 0.0000 0.0000 32.8387 0.0000 0.0000
# 5 0.0000 0.0000 0.0000 0.0000 32.8387 0.0000
# 6 0.0000 0.0000 0.0000 0.0000 0.0000 33.5031
#
#
#
# Elastic Compliance Matrix: (Units=1/GPa)
#
#
# Indices 1 2 3 4 5 6 
#
# 1 0.012451 -0.002381 -0.001328 0.000000 0.000000 0.000000
# 2 -0.002381 0.012451 -0.001328 0.000000 0.000000 0.000000
# 3 -0.001328 -0.001328 0.008752 0.000000 0.000000 0.000000
# 4 0.000000 0.000000 0.000000 0.030452 0.000000 0.000000
# 5 0.000000 0.000000 0.000000 0.000000 0.030452 0.000000
# 6 0.000000 0.000000 0.000000 0.000000 0.000000 0.029848
#
#
# Mechanical properties :
#
#
# Convention : Reuss Voigt Hill
#
# Bulk Modulus (GPa) = 42.40658 43.18593 42.79625
# Shear Modulus (GPa) = 35.12719 35.86848 35.49784
#
# Velocity S-wave (km/s) = 3.84363 3.88398 3.86386
# Velocity P-wave (km/s) = 6.12642 6.18680 6.15669
#
# Compressibility (1/GPa) = 0.02358125
#
# Stress axis : x y z
#
# Youngs Moduli (GPa) = 80.31408 80.31408 114.25687
#
# Poissons Ratio (x) = 0.19125 0.15169
# Poissons Ratio (y) = 0.19125 0.15169
# Poissons Ratio (z) = 0.10663 0.10663
#
# Static dielectric constant tensor:
#      x y z
#    x 1.862950 0.000000 0.000000 
#    y 0.000000 1.862950 0.000000 
#    z 0.000000 0.000000 1.838150 
# 
# From -- ./inp_files/840.got.cif
#   From: 2010.05.17/outbox.cif.g08.bks.cpg/sg122_1_cif.got.tgz:840.got - 2010.05.20 11:37:33.
