data_PCOD9561881
_publ_section_title
;
Structure prediction by ZEFSAII (Michael W. Deem and Ramdas Pophale) SiO2 
 PCOD9561881
Probable space group: P 4/M M M
;
_chemical_formula_sum "Si O2"
_cell_formula_units_Z 72
_cell_length_a 20.997588
_cell_length_b 20.997588
_cell_length_c 7.529425
_cell_angle_alpha 90.000000
_cell_angle_beta 90.000000
_cell_angle_gamma 90.000000
_cell_volume 3319.713708
_symmetry_space_group_name_H-M "P 4/M M M"
_symmetry_group_IT_number 123
_symmetry_cell_setting 'tetragonal'
loop_
_space_group_symop_operation_xyz
x,y,z
-y,x,z
-x,-y,z
y,-x,z
x,-y,-z
-x,y,-z
y,x,-z
-y,-x,-z
-x,-y,-z
y,-x,-z
x,y,-z
-y,x,-z
-x,y,z
x,-y,z
-y,-x,z
y,x,z
loop_
_atom_site_type_symbol
_atom_site_label
_atom_site_fract_x
_atom_site_fract_y
_atom_site_fract_z
Si Si1 0.749446 0.644953 0.717366
Si Si2 0.000000 0.572945 0.718102
Si Si3 0.000000 0.101957 0.714721
Si Si4 0.255933 0.500000 0.303485
Si Si5 0.664242 0.110235 0.705396
Si Si6 0.396475 0.500000 0.212593
Si Si7 0.000000 0.246721 0.798061
O O1 0.744142 0.643169 0.500000
O O2 0.689431 0.689431 0.776062
O O3 0.754894 0.570568 0.777057
O O4 0.818158 0.673651 0.773376
O O5 0.063992 0.609036 0.780255
O O6 0.000000 0.500000 0.769430
O O7 0.000000 0.576793 0.500000
O O8 0.061352 0.061352 0.768747
O O9 0.000000 0.105264 0.500000
O O10 0.000000 0.171808 0.787962
O O11 0.225120 0.500000 0.500000
O O12 0.331857 0.500000 0.314468
O O13 0.647026 0.120000 0.500000
O O14 0.725138 0.064155 0.713759
O O15 0.438778 0.438778 0.254023
O O16 0.384721 0.500000 0.000000
O O17 0.000000 0.268879 0.000000
#
# Coordination Sequence:
#
# PCOD9561881 Si02
#       7
#    16   8   8   8  16   8   8
#     4   9  18  31  49  77 109 138 174 224 276 328
#     4   8  14  24  45  73  94 115 160 222 272 311
#     4   9  19  37  61  87 112 141 180 220 259 311
#     4  10  19  31  51  77 105 132 168 222 285 334
#     4   9  18  33  52  74 102 140 185 223 265 323
#     4   9  18  32  48  66  91 127 171 214 260 325
#     4  11  22  36  55  81 116 149 181 221 269 319
#
# _framework density 21.688617000000001
#
# number of rings (size 3 to 8) (size 9 to 14) (size 15 to 20)
#    0.000    2.778    0.000    3.000    1.556    2.667 
#    0.000    4.444    0.000    6.667    0.000    0.000 
#    0.000    0.000    0.000    0.000    0.000    0.000 
#
# Total GULP energy -401189.038625 kJ/mol
# GULP energy per Si atom -5572.069981 kJ/mol
# Density = 2.163925 g / cm^3
# Si number density = 21.688617 Si / 1000 Ang^3
#
#
#
# Elastic Constant Matrix: (Units=GPa)
#
#
# Indices 1 2 3 4 5 6 
#
# 1 152.9586 56.5521 0.1185 0.0000 0.0000 0.0000
# 2 56.5521 152.9586 0.1185 0.0000 0.0000 0.0000
# 3 0.1185 0.1185 44.5682 0.0000 0.0000 0.0000
# 4 0.0000 0.0000 0.0000 16.0609 0.0000 0.0000
# 5 0.0000 0.0000 0.0000 0.0000 16.0609 0.0000
# 6 0.0000 0.0000 0.0000 0.0000 0.0000 -68.2950
#
#
#
# Elastic Compliance Matrix: (Units=1/GPa)
#
#
# Indices 1 2 3 4 5 6 
#
# 1 0.007573 -0.002800 -0.000013 0.000000 0.000000 0.000000
# 2 -0.002800 0.007573 -0.000013 0.000000 0.000000 0.000000
# 3 -0.000013 -0.000013 0.022438 0.000000 0.000000 0.000000
# 4 0.000000 0.000000 0.000000 0.062263 0.000000 0.000000
# 5 0.000000 0.000000 0.000000 0.000000 0.062263 0.000000
# 6 0.000000 0.000000 0.000000 0.000000 0.000000 -0.014642
#
#
# Mechanical properties :
#
#
# Convention : Reuss Voigt Hill
#
# Bulk Modulus (GPa) = 31.31567 51.56262 41.43914
# Shear Modulus (GPa) = 30.53210 12.34510 21.43860
#
# Velocity S-wave (km/s) = 3.75607 2.38837 3.14741
# Velocity P-wave (km/s) = 5.76895 5.60637 5.68824
#
# Compressibility (1/GPa) = 0.03193290
#
# Stress axis : x y z
#
# Youngs Moduli (GPa) = 132.04991 132.04991 44.56810
#
# Poissons Ratio (x) = 0.36972 0.00057
# Poissons Ratio (y) = 0.36972 0.00057
# Poissons Ratio (z) = 0.00168 0.00168
#
# Static dielectric constant tensor:
#      x y z
#    x 1.788550 0.000000 0.000000 
#    y 0.000000 1.788550 0.000000 
#    z 0.000000 0.000000 1.844350 
# 
# From -- ./inp_files/1239.got.cif
#   From: 2010.05.17/outbox.cif.g08.bks.cpg/sg123_1_cif.got.tgz:1239.got - 2010.05.20 11:43:04.
