data_PCOD9561424
_publ_section_title
;
Structure prediction by ZEFSAII (Michael W. Deem and Ramdas Pophale) SiO2 
 PCOD9561424
Probable space group: I -4 2 D
;
_chemical_formula_sum "Si O2"
_cell_formula_units_Z 56
_cell_length_a 13.593653
_cell_length_b 13.593653
_cell_length_c 13.859889
_cell_angle_alpha 90.000000
_cell_angle_beta 90.000000
_cell_angle_gamma 90.000000
_cell_volume 2561.132879
_symmetry_space_group_name_H-M "I -4 2 D"
_symmetry_group_IT_number 122
_symmetry_cell_setting 'tetragonal'
loop_
_space_group_symop_operation_xyz
x,y,z
y,-x,-z
-x,-y,z
-y,x,-z
x,1/2-y,1/4-z
-x,1/2+y,1/4-z
-y,1/2-x,1/4+z
y,1/2+x,1/4+z
1/2+x,1/2+y,1/2+z
1/2+y,1/2-x,1/2-z
1/2-x,1/2-y,1/2+z
1/2-y,1/2+x,1/2-z
1/2+x,-y,3/4-z
1/2-x,y,3/4-z
1/2-y,-x,3/4+z
1/2+y,x,3/4+z
loop_
_atom_site_type_symbol
_atom_site_label
_atom_site_fract_x
_atom_site_fract_y
_atom_site_fract_z
Si Si1 0.000000 0.000000 0.000000
Si Si2 0.301403 0.224326 0.737298
Si Si3 0.712708 0.984349 0.673442
Si Si4 0.500000 0.500000 0.000000
Si Si5 0.420218 0.699726 0.031587
O O1 0.017959 0.906076 0.931965
O O2 0.316987 0.250000 0.625000
O O3 0.261595 0.111927 0.739356
O O4 0.407565 0.238621 0.787348
O O5 0.224561 0.304643 0.774704
O O6 0.756960 0.963878 0.567964
O O7 0.585707 0.560173 0.949669
O O8 0.465692 0.750000 0.125000
#
# Coordination Sequence:
#
# PCOD9561424 Si02
#       5
#     4  16  16   4  16
#     4   8  16  34  68 100 124 154 208 278 328 360
#     4   9  19  37  63  92 121 158 205 261 314 363
#     4   9  18  37  63  95 126 157 206 263 315 367
#     4  12  28  46  60  84 120 162 208 246 300 380
#     4  11  24  41  60  85 123 166 207 252 312 386
#
# _framework density 21.865324999999999
#
# number of rings (size 3 to 8) (size 9 to 14) (size 15 to 20)
#    0.000    2.286    0.000    1.714    0.000    5.714 
#    0.000   11.429    0.000    0.000    0.000    0.000 
#    0.000    0.000    0.000    0.000    0.000    0.000 
#
# Total GULP energy -156123.837556 kJ/mol
# GULP energy per Si atom -5575.851341 kJ/mol
# Density = 2.181556 g / cm^3
# Si number density = 21.865325 Si / 1000 Ang^3
#
#
#
# Elastic Constant Matrix: (Units=GPa)
#
#
# Indices 1 2 3 4 5 6 
#
# 1 113.5320 69.5286 33.8939 0.0000 0.0000 0.0000
# 2 69.5286 113.5320 33.8939 0.0000 0.0000 0.0000
# 3 33.8939 33.8939 102.2816 0.0000 0.0000 0.0000
# 4 0.0000 0.0000 0.0000 10.6584 0.0000 0.0000
# 5 0.0000 0.0000 0.0000 0.0000 10.6584 0.0000
# 6 0.0000 0.0000 0.0000 0.0000 0.0000 40.7507
#
#
#
# Elastic Compliance Matrix: (Units=1/GPa)
#
#
# Indices 1 2 3 4 5 6 
#
# 1 0.014476 -0.008249 -0.002063 0.000000 0.000000 0.000000
# 2 -0.008249 0.014476 -0.002063 0.000000 0.000000 0.000000
# 3 -0.002063 -0.002063 0.011144 0.000000 0.000000 0.000000
# 4 0.000000 0.000000 0.000000 0.093823 0.000000 0.000000
# 5 0.000000 0.000000 0.000000 0.000000 0.093823 0.000000
# 6 0.000000 0.000000 0.000000 0.000000 0.000000 0.024539
#
#
# Mechanical properties :
#
#
# Convention : Reuss Voigt Hill
#
# Bulk Modulus (GPa) = 65.17062 67.10870 66.13966
# Shear Modulus (GPa) = 17.72111 25.21543 21.46827
#
# Velocity S-wave (km/s) = 2.84996 3.39959 3.13683
# Velocity P-wave (km/s) = 6.37964 6.79471 6.59044
#
# Compressibility (1/GPa) = 0.01534434
#
# Stress axis : x y z
#
# Youngs Moduli (GPa) = 69.07925 69.07925 89.73060
#
# Poissons Ratio (x) = 0.56986 0.18515
# Poissons Ratio (y) = 0.56986 0.18515
# Poissons Ratio (z) = 0.14254 0.14254
#
# Static dielectric constant tensor:
#      x y z
#    x 1.885030 0.000000 0.000000 
#    y 0.000000 1.885030 0.000000 
#    z 0.000000 0.000000 1.823740 
# 
# From -- ./inp_files/5087.got.cif
#   From: 2010.05.17/outbox.cif.g08.bks.cpg/sg122_3_cif.got.tgz:5087.got - 2010.05.20 11:37:33.
