data_PCOD9561817
_publ_section_title
;
Structure prediction by ZEFSAII (Michael W. Deem and Ramdas Pophale) SiO2 
 PCOD9561817
Probable space group: P 4/M M M
;
_chemical_formula_sum "Si O2"
_cell_formula_units_Z 96
_cell_length_a 25.013841
_cell_length_b 25.013841
_cell_length_c 7.435410
_cell_angle_alpha 90.000000
_cell_angle_beta 90.000000
_cell_angle_gamma 90.000000
_cell_volume 4652.278350
_symmetry_space_group_name_H-M "P 4/M M M"
_symmetry_group_IT_number 123
_symmetry_cell_setting 'tetragonal'
loop_
_space_group_symop_operation_xyz
x,y,z
-y,x,z
-x,-y,z
y,-x,z
x,-y,-z
-x,y,-z
y,x,-z
-y,-x,-z
-x,-y,-z
y,-x,-z
x,y,-z
-y,x,-z
-x,y,z
x,-y,z
-y,-x,z
y,x,z
loop_
_atom_site_type_symbol
_atom_site_label
_atom_site_fract_x
_atom_site_fract_y
_atom_site_fract_z
Si Si1 0.231747 0.559990 0.217206
Si Si2 0.441091 0.938084 0.280632
Si Si3 0.765910 0.851446 0.285199
Si Si4 0.147388 0.938981 0.216000
Si Si5 0.857045 0.354229 0.710109
Si Si6 0.440212 0.645309 0.219236
O O1 0.214796 0.500000 0.277107
O O2 0.195229 0.608633 0.279021
O O3 0.293230 0.567784 0.273463
O O4 0.230256 0.559724 0.000000
O O5 0.441094 0.935578 0.500000
O O6 0.500000 0.918882 0.222189
O O7 0.392156 0.903189 0.212060
O O8 0.435937 0.000000 0.231418
O O9 0.762791 0.843692 0.500000
O O10 0.803846 0.803846 0.213438
O O11 0.798297 0.906421 0.255302
O O12 0.705391 0.851459 0.213943
O O13 0.098361 0.901640 0.282253
O O14 0.146987 0.000000 0.282794
O O15 0.142655 0.941280 0.000000
O O16 0.870278 0.346690 0.500000
O O17 0.500000 0.628760 0.273303
O O18 0.394806 0.605195 0.282458
O O19 0.439252 0.645076 0.000000
#
# Coordination Sequence:
#
# PCOD9561817 Si02
#       6
#    16  16  16  16  16  16
#     4   9  18  31  45  64  93 124 151 187 238 289
#     4   8  14  25  41  62  86 107 132 175 225 264
#     4   9  19  34  48  66  96 129 159 196 240 279
#     4   9  18  33  53  76 101 129 161 197 236 278
#     4  10  19  30  48  70  88 115 158 197 226 269
#     4   8  14  25  41  62  88 117 150 188 230 277
#
# _framework density 20.635052000000002
#
# number of rings (size 3 to 8) (size 9 to 14) (size 15 to 20)
#    0.000    3.167    0.000    2.000    0.000    3.667 
#    0.000    3.333    0.000    0.500    0.000    4.667 
#    0.000    0.000    0.000    3.667    0.000    3.667 
#
# Total GULP energy -535452.415999 kJ/mol
# GULP energy per Si atom -5577.629333 kJ/mol
# Density = 2.058809 g / cm^3
# Si number density = 20.635052 Si / 1000 Ang^3
#
#
#
# Elastic Constant Matrix: (Units=GPa)
#
#
# Indices 1 2 3 4 5 6 
#
# 1 180.9943 115.3410 -0.2903 0.0000 0.0000 0.0000
# 2 115.3410 180.9943 -0.2903 0.0000 0.0000 0.0000
# 3 -0.2903 -0.2903 64.9023 0.0000 0.0000 0.0000
# 4 0.0000 0.0000 0.0000 -6.3353 0.0000 0.0000
# 5 0.0000 0.0000 0.0000 0.0000 -6.3353 0.0000
# 6 0.0000 0.0000 0.0000 0.0000 0.0000 40.4633
#
#
#
# Elastic Compliance Matrix: (Units=1/GPa)
#
#
# Indices 1 2 3 4 5 6 
#
# 1 0.009303 -0.005928 0.000015 0.000000 0.000000 0.000000
# 2 -0.005928 0.009303 0.000015 0.000000 0.000000 0.000000
# 3 0.000015 0.000015 0.015408 0.000000 0.000000 0.000000
# 4 0.000000 0.000000 0.000000 -0.157846 0.000000 0.000000
# 5 0.000000 0.000000 0.000000 0.000000 -0.157846 0.000000
# 6 0.000000 0.000000 0.000000 0.000000 0.000000 0.024714
#
#
# Mechanical properties :
#
#
# Convention : Reuss Voigt Hill
#
# Bulk Modulus (GPa) = 45.00965 72.93464 58.97214
# Shear Modulus (GPa) = -21.02940 26.36725 2.66893
#
# Velocity S-wave (km/s) = -3.19581 3.57850 1.13851
# Velocity P-wave (km/s) = 2.87088 7.24541 5.51080
#
# Compressibility (1/GPa) = 0.02221746
#
# Stress axis : x y z
#
# Youngs Moduli (GPa) = 107.49163 107.49163 64.90171
#
# Poissons Ratio (x) = 0.63726 -0.00098
# Poissons Ratio (y) = 0.63726 -0.00098
# Poissons Ratio (z) = -0.00162 -0.00162
#
# Static dielectric constant tensor:
#      x y z
#    x 1.722660 0.000000 0.000000 
#    y 0.000000 1.722660 0.000000 
#    z 0.000000 0.000000 1.786020 
# 
# From -- ./inp_files/1586.got.cif
#   From: 2010.05.17/outbox.cif.g08.bks.cpg/sg123_1_cif.got.tgz:1586.got - 2010.05.20 11:43:04.
