data_PCOD9561067
_publ_section_title
;
Structure prediction by ZEFSAII (Michael W. Deem and Ramdas Pophale) SiO2 
 PCOD9561067
Probable space group: I -4 2 D
;
_chemical_formula_sum "Si O2"
_cell_formula_units_Z 72
_cell_length_a 19.784772
_cell_length_b 19.784772
_cell_length_c 8.208110
_cell_angle_alpha 90.000000
_cell_angle_beta 90.000000
_cell_angle_gamma 90.000000
_cell_volume 3212.959621
_symmetry_space_group_name_H-M "I -4 2 D"
_symmetry_group_IT_number 122
_symmetry_cell_setting 'tetragonal'
loop_
_space_group_symop_operation_xyz
x,y,z
y,-x,-z
-x,-y,z
-y,x,-z
x,1/2-y,1/4-z
-x,1/2+y,1/4-z
-y,1/2-x,1/4+z
y,1/2+x,1/4+z
1/2+x,1/2+y,1/2+z
1/2+y,1/2-x,1/2-z
1/2-x,1/2-y,1/2+z
1/2-y,1/2+x,1/2-z
1/2+x,-y,3/4-z
1/2-x,y,3/4-z
1/2-y,-x,3/4+z
1/2+y,x,3/4+z
loop_
_atom_site_type_symbol
_atom_site_label
_atom_site_fract_x
_atom_site_fract_y
_atom_site_fract_z
Si Si1 0.862157 0.250000 0.625000
Si Si2 0.250000 0.575195 0.375000
Si Si3 0.500000 0.500000 0.500000
Si Si4 0.744801 0.148065 0.546931
Si Si5 0.889555 0.283734 0.959938
Si Si6 0.000000 0.500000 0.750000
Si Si7 0.499058 0.883717 0.493995
O O1 0.814115 0.185443 0.595489
O O2 0.901054 0.241993 0.794979
O O3 0.278597 0.614223 0.534763
O O4 0.183703 0.540133 0.457200
O O5 0.490995 0.567573 0.603297
O O6 0.750000 0.106594 0.375000
O O7 0.689295 0.203178 0.492023
O O8 0.915957 0.250000 0.125000
O O9 0.926759 0.354659 0.939651
O O10 0.064046 0.524461 0.643104
#
# Coordination Sequence:
#
# PCOD9561067 Si02
#       7
#     8   8   4  16  16   4  16
#     4  10  22  37  62 102 141 180 202 280 374 420
#     4  12  24  43  70 108 129 172 240 304 324 416
#     4  10  24  50  76  90 144 202 216 298 364 430
#     4  10  22  38  65 100 142 176 212 281 365 419
#     4  11  21  41  64  99 136 179 230 281 340 423
#     4  10  28  50  68  90 148 194 224 286 368 434
#     4  11  25  48  69 100 132 186 246 281 352 419
#
# _framework density 22.409244999999999
#
# number of rings (size 3 to 8) (size 9 to 14) (size 15 to 20)
#    0.000    1.333    2.222    2.667    7.778    0.000 
#    6.000    0.000    0.000    0.000    0.000    0.000 
#    0.000    0.000    0.000    0.000    0.000    0.000 
#
# Total GULP energy -200570.056246 kJ/mol
# GULP energy per Si atom -5571.390451 kJ/mol
# Density = 2.235824 g / cm^3
# Si number density = 22.409245 Si / 1000 Ang^3
#
#
#
# Elastic Constant Matrix: (Units=GPa)
#
#
# Indices 1 2 3 4 5 6 
#
# 1 52.4288 15.6428 44.3784 0.0000 0.0000 0.0000
# 2 15.6428 52.4288 44.3784 0.0000 0.0000 0.0000
# 3 44.3784 44.3784 210.1187 0.0000 0.0000 0.0000
# 4 0.0000 0.0000 0.0000 18.0299 0.0000 0.0000
# 5 0.0000 0.0000 0.0000 0.0000 18.0299 0.0000
# 6 0.0000 0.0000 0.0000 0.0000 0.0000 22.0838
#
#
#
# Elastic Compliance Matrix: (Units=1/GPa)
#
#
# Indices 1 2 3 4 5 6 
#
# 1 0.023729 -0.003455 -0.004282 0.000000 0.000000 0.000000
# 2 -0.003455 0.023729 -0.004282 0.000000 0.000000 0.000000
# 3 -0.004282 -0.004282 0.006568 0.000000 0.000000 0.000000
# 4 0.000000 0.000000 0.000000 0.055463 0.000000 0.000000
# 5 0.000000 0.000000 0.000000 0.000000 0.055463 0.000000
# 6 0.000000 0.000000 0.000000 0.000000 0.000000 0.045282
#
#
# Mechanical properties :
#
#
# Convention : Reuss Voigt Hill
#
# Bulk Modulus (GPa) = 33.34741 58.19725 45.77233
# Shear Modulus (GPa) = 20.46926 25.66717 23.06822
#
# Velocity S-wave (km/s) = 3.02558 3.38802 3.21192
# Velocity P-wave (km/s) = 5.20758 6.42896 5.85023
#
# Compressibility (1/GPa) = 0.02998733
#
# Stress axis : x y z
#
# Youngs Moduli (GPa) = 42.14279 42.14279 152.25494
#
# Poissons Ratio (x) = 0.14562 0.65194
# Poissons Ratio (y) = 0.14562 0.65194
# Poissons Ratio (z) = 0.18045 0.18045
#
# Static dielectric constant tensor:
#      x y z
#    x 1.830610 0.000000 0.000000 
#    y 0.000000 1.830610 0.000000 
#    z 0.000000 0.000000 1.960400 
# 
# From -- ./inp_files/2726.got.cif
#   From: 2010.05.17/outbox.cif.g08.bks.cpg/sg122_2_cif.got.tgz:2726.got - 2010.05.20 11:37:33.
