data_PCOD9561381
_publ_section_title
;
Structure prediction by ZEFSAII (Michael W. Deem and Ramdas Pophale) SiO2 
 PCOD9561381
Probable space group: I -4 2 D
;
_chemical_formula_sum "Si O2"
_cell_formula_units_Z 80
_cell_length_a 14.051728
_cell_length_b 14.051728
_cell_length_c 20.206349
_cell_angle_alpha 90.000000
_cell_angle_beta 90.000000
_cell_angle_gamma 90.000000
_cell_volume 3989.765024
_symmetry_space_group_name_H-M "I -4 2 D"
_symmetry_group_IT_number 122
_symmetry_cell_setting 'tetragonal'
loop_
_space_group_symop_operation_xyz
x,y,z
y,-x,-z
-x,-y,z
-y,x,-z
x,1/2-y,1/4-z
-x,1/2+y,1/4-z
-y,1/2-x,1/4+z
y,1/2+x,1/4+z
1/2+x,1/2+y,1/2+z
1/2+y,1/2-x,1/2-z
1/2-x,1/2-y,1/2+z
1/2-y,1/2+x,1/2-z
1/2+x,-y,3/4-z
1/2-x,y,3/4-z
1/2-y,-x,3/4+z
1/2+y,x,3/4+z
loop_
_atom_site_type_symbol
_atom_site_label
_atom_site_fract_x
_atom_site_fract_y
_atom_site_fract_z
Si Si1 0.666786 0.700552 0.194264
Si Si2 0.853993 0.604990 0.344873
Si Si3 0.022008 0.097815 0.786934
Si Si4 0.185067 0.848257 0.808791
Si Si5 0.731477 0.993648 0.719296
O O1 0.637011 0.750000 0.125000
O O2 0.582873 0.673333 0.244316
O O3 0.750116 0.771180 0.220429
O O4 0.718968 0.597683 0.186515
O O5 0.750000 0.629157 0.375000
O O6 0.911111 0.556186 0.404211
O O7 0.839102 0.549648 0.275850
O O8 0.929350 0.686706 0.329202
O O9 0.928222 0.150165 0.814349
O O10 0.000000 0.000000 0.747030
O O11 0.250000 0.862371 0.875000
O O12 0.203465 0.937217 0.762119
#
# Coordination Sequence:
#
# PCOD9561381 Si02
#       5
#    16  16  16  16  16
#     4  11  24  45  66  97 139 184 233 281 342 407
#     4  12  24  39  61 106 142 180 225 277 353 432
#     4  12  23  41  71  98 138 185 228 281 347 417
#     4  11  22  42  68  99 138 180 220 284 352 407
#     4  12  22  40  66 100 141 177 226 282 348 420
#
# _framework density 20.051306
#
# number of rings (size 3 to 8) (size 9 to 14) (size 15 to 20)
#    0.000    0.400    6.000    4.200    2.800    0.000 
#    0.000    3.000    0.000    0.000    0.000    0.000 
#    0.000    0.000    0.000    0.000    0.000    0.000 
#
# Total GULP energy -222792.062011 kJ/mol
# GULP energy per Si atom -5569.801550 kJ/mol
# Density = 2.000567 g / cm^3
# Si number density = 20.051306 Si / 1000 Ang^3
#
#
#
# Elastic Constant Matrix: (Units=GPa)
#
#
# Indices 1 2 3 4 5 6 
#
# 1 143.3920 51.0991 42.4113 0.0000 0.0000 0.0000
# 2 51.0991 143.3920 42.4113 0.0000 0.0000 0.0000
# 3 42.4113 42.4113 64.0048 0.0000 0.0000 0.0000
# 4 0.0000 0.0000 0.0000 16.5379 0.0000 0.0000
# 5 0.0000 0.0000 0.0000 0.0000 16.5379 0.0000
# 6 0.0000 0.0000 0.0000 0.0000 0.0000 6.6638
#
#
#
# Elastic Compliance Matrix: (Units=1/GPa)
#
#
# Indices 1 2 3 4 5 6 
#
# 1 0.009033 -0.001802 -0.004792 0.000000 0.000000 0.000000
# 2 -0.001802 0.009033 -0.004792 0.000000 0.000000 0.000000
# 3 -0.004792 -0.004792 0.021974 0.000000 0.000000 0.000000
# 4 0.000000 0.000000 0.000000 0.060467 0.000000 0.000000
# 5 0.000000 0.000000 0.000000 0.000000 0.060467 0.000000
# 6 0.000000 0.000000 0.000000 0.000000 0.000000 0.150064
#
#
# Mechanical properties :
#
#
# Convention : Reuss Voigt Hill
#
# Bulk Modulus (GPa) = 57.90391 69.18136 63.54263
# Shear Modulus (GPa) = 14.72467 22.27240 18.49854
#
# Velocity S-wave (km/s) = 2.71283 3.33644 3.04066
# Velocity P-wave (km/s) = 6.22520 7.02990 6.63975
#
# Compressibility (1/GPa) = 0.01726999
#
# Stress axis : x y z
#
# Youngs Moduli (GPa) = 110.70214 110.70214 45.50814
#
# Poissons Ratio (x) = 0.19947 0.21806
# Poissons Ratio (y) = 0.19947 0.21806
# Poissons Ratio (z) = 0.53046 0.53046
#
# Static dielectric constant tensor:
#      x y z
#    x 1.774810 0.000000 0.000000 
#    y 0.000000 1.774810 0.000000 
#    z 0.000000 0.000000 1.939640 
# 
# From -- ./inp_files/7086.got.cif
#   From: 2010.05.17/outbox.cif.g08.bks.cpg/sg122_4_cif.got.tgz:7086.got - 2010.05.20 11:37:33.
