data_PCOD9561433
_publ_section_title
;
Structure prediction by ZEFSAII (Michael W. Deem and Ramdas Pophale) SiO2 
 PCOD9561433
Probable space group: I -4 2 D
;
_chemical_formula_sum "Si O2"
_cell_formula_units_Z 112
_cell_length_a 14.616777
_cell_length_b 14.616777
_cell_length_c 23.778762
_cell_angle_alpha 90.000000
_cell_angle_beta 90.000000
_cell_angle_gamma 90.000000
_cell_volume 5080.336541
_symmetry_space_group_name_H-M "I -4 2 D"
_symmetry_group_IT_number 122
_symmetry_cell_setting 'tetragonal'
loop_
_space_group_symop_operation_xyz
x,y,z
y,-x,-z
-x,-y,z
-y,x,-z
x,1/2-y,1/4-z
-x,1/2+y,1/4-z
-y,1/2-x,1/4+z
y,1/2+x,1/4+z
1/2+x,1/2+y,1/2+z
1/2+y,1/2-x,1/2-z
1/2-x,1/2-y,1/2+z
1/2-y,1/2+x,1/2-z
1/2+x,-y,3/4-z
1/2-x,y,3/4-z
1/2-y,-x,3/4+z
1/2+y,x,3/4+z
loop_
_atom_site_type_symbol
_atom_site_label
_atom_site_fract_x
_atom_site_fract_y
_atom_site_fract_z
Si Si1 0.957075 0.867026 0.522647
Si Si2 0.644866 0.812692 0.008445
Si Si3 0.349702 0.086736 0.891561
Si Si4 0.391548 0.888003 0.865824
Si Si5 0.408034 0.052493 0.107776
Si Si6 0.158435 0.273393 0.032763
Si Si7 0.741412 0.444527 0.580624
O O1 0.934172 0.763646 0.507448
O O2 0.929612 0.890998 0.586280
O O3 0.061663 0.896913 0.513766
O O4 0.630816 0.877071 0.062222
O O5 0.740032 0.756153 0.013096
O O6 0.641919 0.879505 0.955165
O O7 0.250000 0.054892 0.875000
O O8 0.365517 0.178697 0.855946
O O9 0.406122 0.995601 0.877109
O O10 0.361767 0.844723 0.926309
O O11 0.308408 0.875174 0.822719
O O12 0.472570 0.831320 0.836514
O O13 0.500000 0.000000 0.089592
O O14 0.329083 0.976765 0.115812
O O15 0.089066 0.276236 0.980122
#
# Coordination Sequence:
#
# PCOD9561433 Si02
#       7
#    16  16  16  16  16  16  16
#     4  11  24  49  77 104 145 195 250 312 383 462
#     4  12  26  46  77 107 152 192 251 318 385 456
#     4  12  25  46  65 108 153 194 243 308 373 456
#     4  11  25  44  72 105 149 194 253 302 370 460
#     4  12  26  46  74 113 148 190 257 318 379 459
#     4  11  24  44  73 106 149 198 248 307 380 460
#     4  12  26  45  76 105 146 198 250 306 387 449
#
# _framework density 22.045784999999999
#
# number of rings (size 3 to 8) (size 9 to 14) (size 15 to 20)
#    0.000    0.429    5.714    3.429    4.000    3.429 
#    0.000    0.000    0.000    0.000    0.000    0.000 
#    0.000    0.000    0.000    0.000    0.000    0.000 
#
# Total GULP energy -313040.489588 kJ/mol
# GULP energy per Si atom -5590.008743 kJ/mol
# Density = 2.199561 g / cm^3
# Si number density = 22.045785 Si / 1000 Ang^3
#
#
#
# Elastic Constant Matrix: (Units=GPa)
#
#
# Indices 1 2 3 4 5 6 
#
# 1 74.2565 8.2396 -16.2192 0.0000 0.0000 0.0000
# 2 8.2396 74.2565 -16.2192 0.0000 0.0000 0.0000
# 3 -16.2192 -16.2192 80.4132 0.0000 0.0000 0.0000
# 4 0.0000 0.0000 0.0000 20.2965 0.0000 0.0000
# 5 0.0000 0.0000 0.0000 0.0000 20.2965 0.0000
# 6 0.0000 0.0000 0.0000 0.0000 0.0000 26.3367
#
#
#
# Elastic Compliance Matrix: (Units=1/GPa)
#
#
# Indices 1 2 3 4 5 6 
#
# 1 0.014157 -0.000991 0.002656 0.000000 0.000000 0.000000
# 2 -0.000991 0.014157 0.002656 0.000000 0.000000 0.000000
# 3 0.002656 0.002656 0.013507 0.000000 0.000000 0.000000
# 4 0.000000 0.000000 0.000000 0.049270 0.000000 0.000000
# 5 0.000000 0.000000 0.000000 0.000000 0.049270 0.000000
# 6 0.000000 0.000000 0.000000 0.000000 0.000000 0.037970
#
#
# Mechanical properties :
#
#
# Convention : Reuss Voigt Hill
#
# Bulk Modulus (GPa) = 19.81722 20.05874 19.93798
# Shear Modulus (GPa) = 26.80827 30.26093 28.53460
#
# Velocity S-wave (km/s) = 3.49094 3.70894 3.60159
# Velocity P-wave (km/s) = 5.02569 5.24023 5.13408
#
# Compressibility (1/GPa) = 0.05046118
#
# Stress axis : x y z
#
# Youngs Moduli (GPa) = 70.63742 70.63742 74.03565
#
# Poissons Ratio (x) = 0.06999 -0.19661
# Poissons Ratio (y) = 0.06999 -0.19661
# Poissons Ratio (z) = -0.18758 -0.18758
#
# Static dielectric constant tensor:
#      x y z
#    x 1.804760 0.000000 0.000000 
#    y 0.000000 1.804760 0.000000 
#    z 0.000000 0.000000 1.812080 
# 
# From -- ./inp_files/8134.got.cif
#   From: 2010.05.17/outbox.cif.g08.bks.cpg/sg122_5_cif.got.tgz:8134.got - 2010.05.20 11:37:33.
