data_PCOD9561755
_publ_section_title
;
Structure prediction by ZEFSAII (Michael W. Deem and Ramdas Pophale) SiO2 
 PCOD9561755
Probable space group: P 4/M M M
;
_chemical_formula_sum "Si O2"
_cell_formula_units_Z 96
_cell_length_a 18.614910
_cell_length_b 18.614910
_cell_length_c 18.464030
_cell_angle_alpha 90.000000
_cell_angle_beta 90.000000
_cell_angle_gamma 90.000000
_cell_volume 6398.061035
_symmetry_space_group_name_H-M "P 4/M M M"
_symmetry_group_IT_number 123
_symmetry_cell_setting 'tetragonal'
loop_
_space_group_symop_operation_xyz
x,y,z
-y,x,z
-x,-y,z
y,-x,z
x,-y,-z
-x,y,-z
y,x,-z
-y,-x,-z
-x,-y,-z
y,-x,-z
x,y,-z
-y,x,-z
-x,y,z
x,-y,z
-y,-x,z
y,x,z
loop_
_atom_site_type_symbol
_atom_site_label
_atom_site_fract_x
_atom_site_fract_y
_atom_site_fract_z
Si Si1 0.584041 0.297338 0.085611
Si Si2 0.414345 0.704674 0.650023
Si Si3 0.585523 0.853927 0.420130
Si Si4 0.776871 0.657954 0.788207
Si Si5 0.085108 0.201004 0.581672
Si Si6 0.916461 0.679400 0.699271
O O1 0.500000 0.307108 0.102473
O O2 0.630638 0.369363 0.100422
O O3 0.619167 0.236061 0.135388
O O4 0.590456 0.281921 0.000000
O O5 0.500000 0.691009 0.646168
O O6 0.365199 0.634802 0.636775
O O7 0.394703 0.770847 0.596671
O O8 0.392125 0.737148 0.728317
O O9 0.610083 0.875797 0.500000
O O10 0.500000 0.855935 0.418921
O O11 0.614333 0.904114 0.356724
O O12 0.732532 0.732532 0.788460
O O13 0.858345 0.670254 0.762718
O O14 0.102730 0.227881 0.500000
O O15 0.127545 0.127545 0.590797
O O16 0.104520 0.254027 0.646963
O O17 0.000000 0.191132 0.584345
O O18 0.000000 0.685008 0.720768
#
# Coordination Sequence:
#
# PCOD9561755 Si02
#       6
#    16  16  16  16  16  16
#     4   9  17  29  47  71  96 121 147 174 206 246
#     4   9  17  28  42  60  81 107 139 173 210 253
#     4   9  18  31  43  55  75 103 134 171 216 261
#     4   9  17  30  46  63  86 115 143 170 206 255
#     4   9  17  28  42  62  88 115 142 173 211 258
#     4  10  19  30  45  64  83 105 139 182 220 250
#
# _framework density 15.004545999999999
#
# number of rings (size 3 to 8) (size 9 to 14) (size 15 to 20)
#    0.000    2.833    0.000    1.500    0.000    3.500 
#    0.000    2.500    0.000    3.500    0.000    3.500 
#    0.000    0.000    0.000    0.000    0.000    0.000 
#
# Total GULP energy -534491.672161 kJ/mol
# GULP energy per Si atom -5567.621585 kJ/mol
# Density = 1.497040 g / cm^3
# Si number density = 15.004546 Si / 1000 Ang^3
#
#
#
# Elastic Constant Matrix: (Units=GPa)
#
#
# Indices 1 2 3 4 5 6 
#
# 1 44.5591 32.1896 30.2112 0.0000 0.0000 0.0000
# 2 32.1896 44.5591 30.2112 0.0000 0.0000 0.0000
# 3 30.2112 30.2112 63.4636 0.0000 0.0000 0.0000
# 4 0.0000 0.0000 0.0000 15.9238 0.0000 0.0000
# 5 0.0000 0.0000 0.0000 0.0000 15.9238 0.0000
# 6 0.0000 0.0000 0.0000 0.0000 0.0000 18.4192
#
#
#
# Elastic Compliance Matrix: (Units=1/GPa)
#
#
# Indices 1 2 3 4 5 6 
#
# 1 0.050842 -0.030002 -0.009921 0.000000 0.000000 0.000000
# 2 -0.030002 0.050842 -0.009921 0.000000 0.000000 0.000000
# 3 -0.009921 -0.009921 0.025202 0.000000 0.000000 0.000000
# 4 0.000000 0.000000 0.000000 0.062799 0.000000 0.000000
# 5 0.000000 0.000000 0.000000 0.000000 0.062799 0.000000
# 6 0.000000 0.000000 0.000000 0.000000 0.000000 0.054291
#
#
# Mechanical properties :
#
#
# Convention : Reuss Voigt Hill
#
# Bulk Modulus (GPa) = 36.76537 37.53398 37.14968
# Shear Modulus (GPa) = 12.03288 14.05134 13.04211
#
# Velocity S-wave (km/s) = 2.83494 3.06350 2.95144
# Velocity P-wave (km/s) = 5.93901 6.13048 6.03551
#
# Compressibility (1/GPa) = 0.02719951
#
# Stress axis : x y z
#
# Youngs Moduli (GPa) = 19.66887 19.66887 39.67902
#
# Poissons Ratio (x) = 0.59011 0.39364
# Poissons Ratio (y) = 0.59011 0.39364
# Poissons Ratio (z) = 0.19513 0.19513
#
# Static dielectric constant tensor:
#      x y z
#    x 1.499370 0.000000 0.000000 
#    y 0.000000 1.499370 0.000000 
#    z 0.000000 0.000000 1.508460 
# 
# From -- ./inp_files/5465.got.cif
#   From: 2010.05.17/outbox.cif.g08.bks.cpg/sg123_3_cif.got.tgz:5465.got - 2010.05.20 11:43:04.
