data_PCOD9561576
_publ_section_title
;
Structure prediction by ZEFSAII (Michael W. Deem and Ramdas Pophale) SiO2 
 PCOD9561576
Probable space group: I -4 2 D
;
_chemical_formula_sum "Si O2"
_cell_formula_units_Z 40
_cell_length_a 16.693878
_cell_length_b 16.693878
_cell_length_c 5.289353
_cell_angle_alpha 90.000000
_cell_angle_beta 90.000000
_cell_angle_gamma 90.000000
_cell_volume 1474.066317
_symmetry_space_group_name_H-M "I -4 2 D"
_symmetry_group_IT_number 122
_symmetry_cell_setting 'tetragonal'
loop_
_space_group_symop_operation_xyz
x,y,z
y,-x,-z
-x,-y,z
-y,x,-z
x,1/2-y,1/4-z
-x,1/2+y,1/4-z
-y,1/2-x,1/4+z
y,1/2+x,1/4+z
1/2+x,1/2+y,1/2+z
1/2+y,1/2-x,1/2-z
1/2-x,1/2-y,1/2+z
1/2-y,1/2+x,1/2-z
1/2+x,-y,3/4-z
1/2-x,y,3/4-z
1/2-y,-x,3/4+z
1/2+y,x,3/4+z
loop_
_atom_site_type_symbol
_atom_site_label
_atom_site_fract_x
_atom_site_fract_y
_atom_site_fract_z
Si Si1 0.034448 0.377308 0.227313
Si Si2 0.837413 0.681224 0.807244
Si Si3 0.250000 0.467892 0.875000
O O1 0.081037 0.451488 0.358492
O O2 0.095510 0.339703 0.019541
O O3 0.006242 0.311465 0.427821
O O4 0.868747 0.750000 0.625000
O O5 0.805540 0.594819 0.715697
O O6 0.750000 0.717718 0.875000
#
# Coordination Sequence:
#
# PCOD9561576 Si02
#       3
#    16  16   8
#     4   9  17  36  72 121 170 227 286 349 429 514
#     4   9  19  38  71 116 165 213 282 356 423 509
#     4   8  18  36  70 120 164 226 288 342 436 516
#
# _framework density 27.135821
#
# number of rings (size 3 to 8) (size 9 to 14) (size 15 to 20)
#    1.200    2.000    0.000    0.000    0.000    0.000 
#    0.000    4.000    4.400    2.400   31.200    0.000 
#   12.000    0.000    0.000    0.000    0.000    0.000 
#
# Total GULP energy -111416.939301 kJ/mol
# GULP energy per Si atom -5570.846965 kJ/mol
# Density = 2.707406 g / cm^3
# Si number density = 27.135821 Si / 1000 Ang^3
#
#
#
# Elastic Constant Matrix: (Units=GPa)
#
#
# Indices 1 2 3 4 5 6 
#
# 1 216.8739 118.6801 105.2495 0.0000 0.0000 0.0000
# 2 118.6801 216.8739 105.2495 0.0000 0.0000 0.0000
# 3 105.2495 105.2495 93.9117 0.0000 0.0000 0.0000
# 4 0.0000 0.0000 0.0000 61.6601 0.0000 0.0000
# 5 0.0000 0.0000 0.0000 0.0000 61.6601 0.0000
# 6 0.0000 0.0000 0.0000 0.0000 0.0000 17.8773
#
#
#
# Elastic Compliance Matrix: (Units=1/GPa)
#
#
# Indices 1 2 3 4 5 6 
#
# 1 0.010110 -0.000074 -0.011248 0.000000 0.000000 0.000000
# 2 -0.000074 0.010110 -0.011248 0.000000 0.000000 0.000000
# 3 -0.011248 -0.011248 0.035859 0.000000 0.000000 0.000000
# 4 0.000000 0.000000 0.000000 0.016218 0.000000 0.000000
# 5 0.000000 0.000000 0.000000 0.000000 0.016218 0.000000
# 6 0.000000 0.000000 0.000000 0.000000 0.000000 0.055937
#
#
# Mechanical properties :
#
#
# Convention : Reuss Voigt Hill
#
# Bulk Modulus (GPa) = 91.40051 131.77973 111.59012
# Shear Modulus (GPa) = 25.87496 41.47155 33.67326
#
# Velocity S-wave (km/s) = 3.09129 3.91358 3.52648
# Velocity P-wave (km/s) = 6.81888 8.31204 7.60221
#
# Compressibility (1/GPa) = 0.01094086
#
# Stress axis : x y z
#
# Youngs Moduli (GPa) = 98.91256 98.91256 27.88681
#
# Poissons Ratio (x) = 0.00732 0.31366
# Poissons Ratio (y) = 0.00732 0.31366
# Poissons Ratio (z) = 1.11253 1.11253
#
# Static dielectric constant tensor:
#      x y z
#    x 1.986600 0.000000 0.000000 
#    y 0.000000 1.986600 0.000000 
#    z 0.000000 0.000000 2.300890 
# 
# From -- ./inp_files/421.got.cif
#   From: 2010.05.17/outbox.cif.g08.bks.cpg/sg122_1_cif.got.tgz:421.got - 2010.05.20 11:37:33.
