data_PCOD9561340
_publ_section_title
;
Structure prediction by ZEFSAII (Michael W. Deem and Ramdas Pophale) SiO2 
 PCOD9561340
Probable space group: I -4 2 D
;
_chemical_formula_sum "Si O2"
_cell_formula_units_Z 56
_cell_length_a 9.647572
_cell_length_b 9.647572
_cell_length_c 23.453254
_cell_angle_alpha 90.000000
_cell_angle_beta 90.000000
_cell_angle_gamma 90.000000
_cell_volume 2182.926755
_symmetry_space_group_name_H-M "I -4 2 D"
_symmetry_group_IT_number 122
_symmetry_cell_setting 'tetragonal'
loop_
_space_group_symop_operation_xyz
x,y,z
y,-x,-z
-x,-y,z
-y,x,-z
x,1/2-y,1/4-z
-x,1/2+y,1/4-z
-y,1/2-x,1/4+z
y,1/2+x,1/4+z
1/2+x,1/2+y,1/2+z
1/2+y,1/2-x,1/2-z
1/2-x,1/2-y,1/2+z
1/2-y,1/2+x,1/2-z
1/2+x,-y,3/4-z
1/2-x,y,3/4-z
1/2-y,-x,3/4+z
1/2+y,x,3/4+z
loop_
_atom_site_type_symbol
_atom_site_label
_atom_site_fract_x
_atom_site_fract_y
_atom_site_fract_z
Si Si1 0.616591 0.750000 0.625000
Si Si2 0.654489 0.634298 0.975238
Si Si3 0.491554 0.830199 0.384676
Si Si4 0.337952 0.960633 0.987701
O O1 0.722962 0.624475 0.636877
O O2 0.519800 0.748337 0.569020
O O3 0.610734 0.690123 0.913600
O O4 0.664730 0.466429 0.978824
O O5 0.801043 0.683594 0.994672
O O6 0.474739 0.798862 0.451859
O O7 0.500000 0.000000 0.385358
O O8 0.500000 0.000000 0.976435
#
# Coordination Sequence:
#
# PCOD9561340 Si02
#       4
#     8  16  16  16
#     4  12  26  52  68 106 152 196 258 308 368 472
#     4  11  20  40  71 112 147 179 235 317 385 443
#     4  11  24  39  77 110 145 182 246 314 388 440
#     4  11  27  43  69 105 150 198 247 303 376 450
#
# _framework density 25.653632000000002
#
# number of rings (size 3 to 8) (size 9 to 14) (size 15 to 20)
#    0.000    0.857    5.714    0.857   16.000    0.000 
#    5.143    0.000    0.000    0.000    0.000    0.000 
#    0.000    0.000    0.000    0.000    0.000    0.000 
#
# Total GULP energy -156038.971115 kJ/mol
# GULP energy per Si atom -5572.820397 kJ/mol
# Density = 2.559524 g / cm^3
# Si number density = 25.653632 Si / 1000 Ang^3
#
#
#
# Elastic Constant Matrix: (Units=GPa)
#
#
# Indices 1 2 3 4 5 6 
#
# 1 59.4498 9.4754 39.0319 0.0000 0.0000 0.0000
# 2 9.4754 59.4498 39.0319 0.0000 0.0000 0.0000
# 3 39.0319 39.0319 150.0575 0.0000 0.0000 0.0000
# 4 0.0000 0.0000 0.0000 35.7357 0.0000 0.0000
# 5 0.0000 0.0000 0.0000 0.0000 35.7357 0.0000
# 6 0.0000 0.0000 0.0000 0.0000 0.0000 17.7735
#
#
#
# Elastic Compliance Matrix: (Units=1/GPa)
#
#
# Indices 1 2 3 4 5 6 
#
# 1 0.020289 0.000279 -0.005350 0.000000 0.000000 0.000000
# 2 0.000279 0.020289 -0.005350 0.000000 0.000000 0.000000
# 3 -0.005350 -0.005350 0.009447 0.000000 0.000000 0.000000
# 4 0.000000 0.000000 0.000000 0.027983 0.000000 0.000000
# 5 0.000000 0.000000 0.000000 0.000000 0.027983 0.000000
# 6 0.000000 0.000000 0.000000 0.000000 0.000000 0.056264
#
#
# Mechanical properties :
#
#
# Convention : Reuss Voigt Hill
#
# Bulk Modulus (GPa) = 34.26647 49.33727 41.80187
# Shear Modulus (GPa) = 25.93022 29.94351 27.93686
#
# Velocity S-wave (km/s) = 3.18273 3.42017 3.30358
# Velocity P-wave (km/s) = 5.18582 5.90513 5.55713
#
# Compressibility (1/GPa) = 0.02918305
#
# Stress axis : x y z
#
# Youngs Moduli (GPa) = 49.28783 49.28783 105.85056
#
# Poissons Ratio (x) = -0.01374 0.56629
# Poissons Ratio (y) = -0.01374 0.56629
# Poissons Ratio (z) = 0.26369 0.26369
#
# Static dielectric constant tensor:
#      x y z
#    x 2.114680 0.000000 0.000000 
#    y 0.000000 2.114680 0.000000 
#    z 0.000000 0.000000 2.165970 
# 
# From -- ./inp_files/7770.got.cif
#   From: 2010.05.17/outbox.cif.g08.bks.cpg/sg122_4_cif.got.tgz:7770.got - 2010.05.20 11:37:33.
