data_PCOD9561064
_publ_section_title
;
Structure prediction by ZEFSAII (Michael W. Deem and Ramdas Pophale) SiO2 
 PCOD9561064
Probable space group: I -4 2 D
;
_chemical_formula_sum "Si O2"
_cell_formula_units_Z 88
_cell_length_a 15.922658
_cell_length_b 15.922658
_cell_length_c 14.063040
_cell_angle_alpha 90.000000
_cell_angle_beta 90.000000
_cell_angle_gamma 90.000000
_cell_volume 3565.417126
_symmetry_space_group_name_H-M "I -4 2 D"
_symmetry_group_IT_number 122
_symmetry_cell_setting 'tetragonal'
loop_
_space_group_symop_operation_xyz
x,y,z
y,-x,-z
-x,-y,z
-y,x,-z
x,1/2-y,1/4-z
-x,1/2+y,1/4-z
-y,1/2-x,1/4+z
y,1/2+x,1/4+z
1/2+x,1/2+y,1/2+z
1/2+y,1/2-x,1/2-z
1/2-x,1/2-y,1/2+z
1/2-y,1/2+x,1/2-z
1/2+x,-y,3/4-z
1/2-x,y,3/4-z
1/2-y,-x,3/4+z
1/2+y,x,3/4+z
loop_
_atom_site_type_symbol
_atom_site_label
_atom_site_fract_x
_atom_site_fract_y
_atom_site_fract_z
Si Si1 0.391731 0.907696 0.236160
Si Si2 0.171675 0.022094 0.210223
Si Si3 0.351343 0.184032 0.465519
Si Si4 0.108696 0.351467 0.311162
Si Si5 0.413949 0.250000 0.125000
Si Si6 0.969348 0.876224 0.143459
O O1 0.489209 0.886161 0.258487
O O2 0.362099 0.875945 0.132455
O O3 0.323002 0.873950 0.311217
O O4 0.205060 0.116283 0.228264
O O5 0.193185 0.967393 0.118920
O O6 0.197165 0.968602 0.299977
O O7 0.073090 0.044249 0.197689
O O8 0.322378 0.278754 0.450279
O O9 0.431380 0.194132 0.537132
O O10 0.075972 0.381012 0.208993
O O11 0.131811 0.432838 0.372995
#
# Coordination Sequence:
#
# PCOD9561064 Si02
#       6
#    16  16  16  16   8  16
#     4  11  23  38  62  90 121 164 215 264 309 386
#     4  10  23  36  62  92 122 167 214 265 334 400
#     4  10  23  36  58  94 123 165 212 265 335 390
#     4  12  20  38  64  91 132 166 213 288 327 383
#     4  12  22  42  64  90 132 166 212 272 332 390
#     4  10  22  36  62  95 126 161 223 271 333 390
#
# _framework density 24.681545
#
# number of rings (size 3 to 8) (size 9 to 14) (size 15 to 20)
#    1.091    0.182    5.455    1.091    2.545    0.000 
#    0.000    0.000    4.000    2.182    0.000    0.000 
#    0.000    0.000    0.000    0.000    0.000    0.000 
#
# Total GULP energy -245251.513420 kJ/mol
# GULP energy per Si atom -5573.898032 kJ/mol
# Density = 2.462537 g / cm^3
# Si number density = 24.681545 Si / 1000 Ang^3
#
#
#
# Elastic Constant Matrix: (Units=GPa)
#
#
# Indices 1 2 3 4 5 6 
#
# 1 76.4903 9.2918 37.6181 0.0000 0.0000 0.0000
# 2 9.2918 76.4903 37.6181 0.0000 0.0000 0.0000
# 3 37.6181 37.6181 157.7096 0.0000 0.0000 0.0000
# 4 0.0000 0.0000 0.0000 23.1002 0.0000 0.0000
# 5 0.0000 0.0000 0.0000 0.0000 23.1002 0.0000
# 6 0.0000 0.0000 0.0000 0.0000 0.0000 4.1652
#
#
#
# Elastic Compliance Matrix: (Units=1/GPa)
#
#
# Indices 1 2 3 4 5 6 
#
# 1 0.014811 -0.000070 -0.003516 0.000000 0.000000 0.000000
# 2 -0.000070 0.014811 -0.003516 0.000000 0.000000 0.000000
# 3 -0.003516 -0.003516 0.008018 0.000000 0.000000 0.000000
# 4 0.000000 0.000000 0.000000 0.043290 0.000000 0.000000
# 5 0.000000 0.000000 0.000000 0.000000 0.043290 0.000000
# 6 0.000000 0.000000 0.000000 0.000000 0.000000 0.240086
#
#
# Mechanical properties :
#
#
# Convention : Reuss Voigt Hill
#
# Bulk Modulus (GPa) = 42.66928 53.30516 47.98722
# Shear Modulus (GPa) = 12.94253 25.15058 19.04655
#
# Velocity S-wave (km/s) = 2.29242 3.19565 2.78095
# Velocity P-wave (km/s) = 4.93279 5.93804 5.45860
#
# Compressibility (1/GPa) = 0.02343606
#
# Stress axis : x y z
#
# Youngs Moduli (GPa) = 67.51585 67.51585 124.71616
#
# Poissons Ratio (x) = 0.00472 0.43853
# Poissons Ratio (y) = 0.00472 0.43853
# Poissons Ratio (z) = 0.23740 0.23740
#
# Static dielectric constant tensor:
#      x y z
#    x 2.086050 0.000000 0.000000 
#    y 0.000000 2.086050 0.000000 
#    z 0.000000 0.000000 1.913920 
# 
# From -- ./inp_files/5399.got.cif
#   From: 2010.05.17/outbox.cif.g08.bks.cpg/sg122_3_cif.got.tgz:5399.got - 2010.05.20 11:37:33.
