data_PCOD9561171
_publ_section_title
;
Structure prediction by ZEFSAII (Michael W. Deem and Ramdas Pophale) SiO2 
 PCOD9561171
Probable space group: I -4 2 D
;
_chemical_formula_sum "Si O2"
_cell_formula_units_Z 80
_cell_length_a 11.902760
_cell_length_b 11.902760
_cell_length_c 28.382738
_cell_angle_alpha 90.000000
_cell_angle_beta 90.000000
_cell_angle_gamma 90.000000
_cell_volume 4021.144150
_symmetry_space_group_name_H-M "I -4 2 D"
_symmetry_group_IT_number 122
_symmetry_cell_setting 'tetragonal'
loop_
_space_group_symop_operation_xyz
x,y,z
y,-x,-z
-x,-y,z
-y,x,-z
x,1/2-y,1/4-z
-x,1/2+y,1/4-z
-y,1/2-x,1/4+z
y,1/2+x,1/4+z
1/2+x,1/2+y,1/2+z
1/2+y,1/2-x,1/2-z
1/2-x,1/2-y,1/2+z
1/2-y,1/2+x,1/2-z
1/2+x,-y,3/4-z
1/2-x,y,3/4-z
1/2-y,-x,3/4+z
1/2+y,x,3/4+z
loop_
_atom_site_type_symbol
_atom_site_label
_atom_site_fract_x
_atom_site_fract_y
_atom_site_fract_z
Si Si1 0.867135 0.867135 0.500000
Si Si2 0.711821 0.251379 0.821143
Si Si3 0.251379 0.788178 0.071143
Si Si4 0.000000 0.131959 0.274700
Si Si5 0.725416 0.500000 0.431184
O O1 0.790403 0.821658 0.542356
O O2 0.821659 0.790402 0.457644
O O3 0.000000 0.849785 0.508658
O O4 0.750000 0.261931 0.875000
O O5 0.609694 0.326511 0.802875
O O6 0.672919 0.122948 0.811298
O O7 0.261931 0.750000 0.125000
O O8 0.122948 0.827081 0.061298
O O9 0.326511 0.890306 0.052875
O O10 1.000000 0.177673 0.221011
O O11 0.000000 0.000000 0.272829
O O12 0.750000 0.500000 0.375000
#
# Coordination Sequence:
#
# PCOD9561171 Si02
#       5
#    16  16  16  16  16
#     4  11  24  42  66  95 136 176 214 275 340 412
#     4  11  25  44  67 100 136 175 229 281 343 414
#     4  11  25  44  67 100 136 175 229 281 343 414
#     4  12  24  43  73 102 138 182 229 288 346 424
#     4  10  22  45  68  97 134 180 228 283 344 404
#
# _framework density 19.894835
#
# number of rings (size 3 to 8) (size 9 to 14) (size 15 to 20)
#    0.000    1.000    4.000    1.200    2.800    4.000 
#   10.800    2.000    0.000    0.000    0.000    0.000 
#    0.000    0.000    0.000    0.000    0.000    0.000 
#
# Total GULP energy -222985.117700 kJ/mol
# GULP energy per Si atom -5574.627942 kJ/mol
# Density = 1.984955 g / cm^3
# Si number density = 19.894835 Si / 1000 Ang^3
#
#
#
# Elastic Constant Matrix: (Units=GPa)
#
#
# Indices 1 2 3 4 5 6 
#
# 1 80.7936 -3.2567 49.6901 0.0000 0.0000 0.0000
# 2 -3.2567 80.7936 49.6901 0.0000 0.0000 0.0000
# 3 49.6901 49.6901 143.9819 0.0000 0.0000 0.0000
# 4 0.0000 0.0000 0.0000 14.0808 0.0000 0.0000
# 5 0.0000 0.0000 0.0000 0.0000 14.0808 0.0000
# 6 0.0000 0.0000 0.0000 0.0000 0.0000 28.6642
#
#
#
# Elastic Compliance Matrix: (Units=1/GPa)
#
#
# Indices 1 2 3 4 5 6 
#
# 1 0.017512 0.005615 -0.007981 0.000000 0.000000 0.000000
# 2 0.005615 0.017512 -0.007981 0.000000 0.000000 0.000000
# 3 -0.007981 -0.007981 0.012454 0.000000 0.000000 0.000000
# 4 0.000000 0.000000 0.000000 0.071019 0.000000 0.000000
# 5 0.000000 0.000000 0.000000 0.000000 0.071019 0.000000
# 6 0.000000 0.000000 0.000000 0.000000 0.000000 0.034887
#
#
# Mechanical properties :
#
#
# Convention : Reuss Voigt Hill
#
# Bulk Modulus (GPa) = 37.33773 55.31292 46.32533
# Shear Modulus (GPa) = 19.68293 25.32819 22.50556
#
# Velocity S-wave (km/s) = 3.14880 3.57193 3.36702
# Velocity P-wave (km/s) = 5.65935 6.69885 6.20092
#
# Compressibility (1/GPa) = 0.02678256
#
# Stress axis : x y z
#
# Youngs Moduli (GPa) = 57.10266 57.10266 80.29339
#
# Poissons Ratio (x) = -0.32061 0.64086
# Poissons Ratio (y) = -0.32061 0.64086
# Poissons Ratio (z) = 0.45576 0.45576
#
# Static dielectric constant tensor:
#      x y z
#    x 1.705070 0.000000 0.000000 
#    y 0.000000 1.705070 0.000000 
#    z 0.000000 0.000000 0.947050 
# 
# From -- ./inp_files/9338.got.cif
#   From: 2010.05.17/outbox.cif.g08.bks.cpg/sg122_5_cif.got.tgz:9338.got - 2010.05.20 11:37:33.
