data_PCOD9561198
_publ_section_title
;
Structure prediction by ZEFSAII (Michael W. Deem and Ramdas Pophale) SiO2 
 PCOD9561198
Probable space group: I -4 2 D
;
_chemical_formula_sum "Si O2"
_cell_formula_units_Z 80
_cell_length_a 28.398696
_cell_length_b 28.398696
_cell_length_c 5.373800
_cell_angle_alpha 90.000000
_cell_angle_beta 90.000000
_cell_angle_gamma 90.000000
_cell_volume 4333.894115
_symmetry_space_group_name_H-M "I -4 2 D"
_symmetry_group_IT_number 122
_symmetry_cell_setting 'tetragonal'
loop_
_space_group_symop_operation_xyz
x,y,z
y,-x,-z
-x,-y,z
-y,x,-z
x,1/2-y,1/4-z
-x,1/2+y,1/4-z
-y,1/2-x,1/4+z
y,1/2+x,1/4+z
1/2+x,1/2+y,1/2+z
1/2+y,1/2-x,1/2-z
1/2-x,1/2-y,1/2+z
1/2-y,1/2+x,1/2-z
1/2+x,-y,3/4-z
1/2-x,y,3/4-z
1/2-y,-x,3/4+z
1/2+y,x,3/4+z
loop_
_atom_site_type_symbol
_atom_site_label
_atom_site_fract_x
_atom_site_fract_y
_atom_site_fract_z
Si Si1 0.209048 0.750000 0.125000
Si Si2 0.833620 0.750000 0.625000
Si Si3 0.086128 0.672631 0.866483
Si Si4 0.337233 0.888521 0.176483
Si Si5 0.783021 0.014772 0.625645
Si Si6 0.863746 0.304604 0.379175
O O1 0.239127 0.796314 0.160499
O O2 0.173933 0.736532 0.346960
O O3 0.863811 0.703788 0.663784
O O4 0.112297 0.622033 0.811419
O O5 0.103893 0.699662 0.620399
O O6 0.030999 0.683151 0.878062
O O7 0.107496 0.691472 0.123937
O O8 0.317829 0.940169 0.127238
O O9 0.339972 0.855731 0.930327
O O10 0.750000 0.015101 0.375000
O O11 0.750000 0.015271 0.875000
#
# Coordination Sequence:
#
# PCOD9561198 Si02
#       6
#     8   8  16  16  16  16
#     4  12  22  34  58  87 125 186 220 250 304 396
#     4  12  22  36  56  91 131 182 216 258 312 398
#     4  10  24  43  61  90 124 169 212 278 325 387
#     4  10  25  41  63  90 136 169 218 276 332 392
#     4  12  27  41  71  99 129 174 227 276 338 397
#     4  10  23  40  62  83 132 167 216 263 320 379
#
# _framework density 18.459152
#
# number of rings (size 3 to 8) (size 9 to 14) (size 15 to 20)
#    1.200    0.000    3.000    2.400    9.800    1.600 
#    0.000    0.000    0.000    0.600    0.000    0.000 
#    0.000    0.000    0.000    0.000    0.000    0.000 
#
# Total GULP energy -222696.452051 kJ/mol
# GULP energy per Si atom -5567.411301 kJ/mol
# Density = 1.841714 g / cm^3
# Si number density = 18.459152 Si / 1000 Ang^3
#
#
#
# Elastic Constant Matrix: (Units=GPa)
#
#
# Indices 1 2 3 4 5 6 
#
# 1 135.6317 67.2686 33.9182 0.0000 0.0000 0.0000
# 2 67.2686 135.6317 33.9182 0.0000 0.0000 0.0000
# 3 33.9182 33.9182 122.9075 0.0000 0.0000 0.0000
# 4 0.0000 0.0000 0.0000 21.2840 0.0000 0.0000
# 5 0.0000 0.0000 0.0000 0.0000 21.2840 0.0000
# 6 0.0000 0.0000 0.0000 0.0000 0.0000 37.7228
#
#
#
# Elastic Compliance Matrix: (Units=1/GPa)
#
#
# Indices 1 2 3 4 5 6 
#
# 1 0.010029 -0.004599 -0.001498 0.000000 0.000000 0.000000
# 2 -0.004599 0.010029 -0.001498 0.000000 0.000000 0.000000
# 3 -0.001498 -0.001498 0.008963 0.000000 0.000000 0.000000
# 4 0.000000 0.000000 0.000000 0.046984 0.000000 0.000000
# 5 0.000000 0.000000 0.000000 0.000000 0.046984 0.000000
# 6 0.000000 0.000000 0.000000 0.000000 0.000000 0.026509
#
#
# Mechanical properties :
#
#
# Convention : Reuss Voigt Hill
#
# Bulk Modulus (GPa) = 72.31312 73.82010 73.06661
# Shear Modulus (GPa) = 29.53368 33.32922 31.43145
#
# Velocity S-wave (km/s) = 4.00427 4.25381 4.13092
# Velocity P-wave (km/s) = 7.78708 8.01276 7.90073
#
# Compressibility (1/GPa) = 0.01382875
#
# Stress axis : x y z
#
# Youngs Moduli (GPa) = 99.71464 99.71464 111.56752
#
# Poissons Ratio (x) = 0.45860 0.16717
# Poissons Ratio (y) = 0.45860 0.16717
# Poissons Ratio (z) = 0.14941 0.14941
#
# Static dielectric constant tensor:
#      x y z
#    x 1.666560 0.000000 0.000000 
#    y 0.000000 1.666560 0.000000 
#    z 0.000000 0.000000 1.705830 
# 
# From -- ./inp_files/1326.got.cif
#   From: 2010.05.17/outbox.cif.g08.bks.cpg/sg122_1_cif.got.tgz:1326.got - 2010.05.20 11:37:33.
