data_PCOD9561707
_publ_section_title
;
Structure prediction by ZEFSAII (Michael W. Deem and Ramdas Pophale) SiO2 
 PCOD9561707
Probable space group: P 4/M M M
;
_chemical_formula_sum "Si O2"
_cell_formula_units_Z 68
_cell_length_a 18.352193
_cell_length_b 18.352193
_cell_length_c 11.141894
_cell_angle_alpha 90.000000
_cell_angle_beta 90.000000
_cell_angle_gamma 90.000000
_cell_volume 3752.623190
_symmetry_space_group_name_H-M "P 4/M M M"
_symmetry_group_IT_number 123
_symmetry_cell_setting 'tetragonal'
loop_
_space_group_symop_operation_xyz
x,y,z
-y,x,z
-x,-y,z
y,-x,z
x,-y,-z
-x,y,-z
y,x,-z
-y,-x,-z
-x,-y,-z
y,-x,-z
x,y,-z
-y,x,-z
-x,y,z
x,-y,z
-y,-x,z
y,x,z
loop_
_atom_site_type_symbol
_atom_site_label
_atom_site_fract_x
_atom_site_fract_y
_atom_site_fract_z
Si Si1 0.414957 0.000000 0.735958
Si Si2 0.647708 0.000000 0.000000
Si Si3 0.221820 0.109607 0.000000
Si Si4 0.296515 0.415596 0.353767
Si Si5 0.854099 0.661484 0.643286
Si Si6 0.191797 0.918678 0.730530
O O1 0.381576 0.073190 0.679895
O O2 0.500000 0.000000 0.714680
O O3 0.396741 0.000000 0.877330
O O4 0.697602 0.073743 0.000000
O O5 0.190165 0.079669 0.124715
O O6 0.194849 0.194849 0.000000
O O7 0.296270 0.416271 0.500000
O O8 0.302121 0.500000 0.314849
O O9 0.363785 0.363785 0.316697
O O10 0.219775 0.378916 0.316168
O O11 0.850394 0.667805 0.500000
O O12 0.866223 0.741389 0.697281
O O13 0.117821 0.882180 0.685872
O O14 0.205218 0.000000 0.684934
#
# Coordination Sequence:
#
# PCOD9561707 Si02
#       6
#     8   4   8  16  16  16
#     4  12  24  36  57  83 110 146 179 220 276 334
#     4  12  19  42  56  77 114 134 170 230 277 332
#     4  10  18  33  57  77  99 135 182 232 272 317
#     4   9  18  32  50  74 105 140 178 221 266 313
#     4  11  21  36  55  78 110 145 185 226 265 321
#     4  11  21  35  55  79 107 143 187 232 279 327
#
# _framework density 18.120657000000001
#
# number of rings (size 3 to 8) (size 9 to 14) (size 15 to 20)
#    0.000    1.412    4.706    1.941    0.000    3.765 
#    0.000    1.176    0.000    2.294    0.000    1.647 
#    0.000    0.000    0.000    0.000    0.000   28.000 
#
# Total GULP energy -378933.387387 kJ/mol
# GULP energy per Si atom -5572.549815 kJ/mol
# Density = 1.807941 g / cm^3
# Si number density = 18.120657 Si / 1000 Ang^3
#
#
#
# Elastic Constant Matrix: (Units=GPa)
#
#
# Indices 1 2 3 4 5 6 
#
# 1 119.2906 89.1634 17.3024 0.0000 0.0000 0.0000
# 2 89.1634 119.2906 17.3024 0.0000 0.0000 0.0000
# 3 17.3024 17.3024 35.4597 0.0000 0.0000 0.0000
# 4 0.0000 0.0000 0.0000 -14.1255 0.0000 0.0000
# 5 0.0000 0.0000 0.0000 0.0000 -14.1255 0.0000
# 6 0.0000 0.0000 0.0000 0.0000 0.0000 24.2447
#
#
#
# Elastic Compliance Matrix: (Units=1/GPa)
#
#
# Indices 1 2 3 4 5 6 
#
# 1 0.019206 -0.013986 -0.002547 0.000000 0.000000 0.000000
# 2 -0.013986 0.019206 -0.002547 0.000000 0.000000 0.000000
# 3 -0.002547 -0.002547 0.030687 0.000000 0.000000 0.000000
# 4 0.000000 0.000000 0.000000 -0.070794 0.000000 0.000000
# 5 0.000000 0.000000 0.000000 0.000000 -0.070794 0.000000
# 6 0.000000 0.000000 0.000000 0.000000 0.000000 0.041246
#
#
# Mechanical properties :
#
#
# Convention : Reuss Voigt Hill
#
# Bulk Modulus (GPa) = 32.32230 57.95305 45.13768
# Shear Modulus (GPa) = 290.16935 9.21691 149.69313
#
# Velocity S-wave (km/s) = 12.66805 2.25775 9.09882
# Velocity P-wave (km/s) = 15.22657 6.23280 11.63392
#
# Compressibility (1/GPa) = 0.03093839
#
# Stress axis : x y z
#
# Youngs Moduli (GPa) = 52.06614 52.06614 32.58741
#
# Poissons Ratio (x) = 0.72821 0.08300
# Poissons Ratio (y) = 0.72821 0.08300
# Poissons Ratio (z) = 0.13262 0.13262
#
# Static dielectric constant tensor:
#      x y z
#    x 1.641930 0.000000 0.000000 
#    y 0.000000 1.641930 0.000000 
#    z 0.000000 0.000000 1.617320 
# 
# From -- ./inp_files/2793.got.cif
#   From: 2010.05.17/outbox.cif.g08.bks.cpg/sg123_2_cif.got.tgz:2793.got - 2010.05.20 11:43:04.
