data_PCOD9561349
_publ_section_title
;
Structure prediction by ZEFSAII (Michael W. Deem and Ramdas Pophale) SiO2 
 PCOD9561349
Probable space group: I -4 2 D
;
_chemical_formula_sum "Si O2"
_cell_formula_units_Z 80
_cell_length_a 11.411766
_cell_length_b 11.411766
_cell_length_c 31.197188
_cell_angle_alpha 90.000000
_cell_angle_beta 90.000000
_cell_angle_gamma 90.000000
_cell_volume 4062.759979
_symmetry_space_group_name_H-M "I -4 2 D"
_symmetry_group_IT_number 122
_symmetry_cell_setting 'tetragonal'
loop_
_space_group_symop_operation_xyz
x,y,z
y,-x,-z
-x,-y,z
-y,x,-z
x,1/2-y,1/4-z
-x,1/2+y,1/4-z
-y,1/2-x,1/4+z
y,1/2+x,1/4+z
1/2+x,1/2+y,1/2+z
1/2+y,1/2-x,1/2-z
1/2-x,1/2-y,1/2+z
1/2-y,1/2+x,1/2-z
1/2+x,-y,3/4-z
1/2-x,y,3/4-z
1/2-y,-x,3/4+z
1/2+y,x,3/4+z
loop_
_atom_site_type_symbol
_atom_site_label
_atom_site_fract_x
_atom_site_fract_y
_atom_site_fract_z
Si Si1 0.334155 0.905157 0.237619
Si Si2 0.868274 0.444684 0.186194
Si Si3 0.174781 0.928707 0.831589
Si Si4 0.076743 0.320216 0.408593
Si Si5 0.787712 0.835472 0.018545
O O1 0.460328 0.846414 0.246882
O O2 0.291909 0.899830 0.188039
O O3 0.232657 0.833086 0.261748
O O4 0.820928 0.393014 0.141752
O O5 0.785367 0.549485 0.202201
O O6 0.869696 0.350768 0.224115
O O7 0.000000 0.500000 0.180188
O O8 0.250000 0.928643 0.875000
O O9 0.247009 0.874351 0.793060
O O10 0.061360 0.849080 0.839552
O O11 0.134841 0.061331 0.822991
#
# Coordination Sequence:
#
# PCOD9561349 Si02
#       5
#    16  16  16  16  16
#     4  11  26  46  67  83 125 190 242 270 315 387
#     4  12  22  38  68 110 141 161 197 283 369 418
#     4  11  21  38  66 100 130 168 210 267 348 414
#     4  11  23  39  65  97 130 168 220 271 337 415
#     4  12  22  40  67  98 136 170 210 273 344 409
#
# _framework density 19.691046
#
# number of rings (size 3 to 8) (size 9 to 14) (size 15 to 20)
#    0.000    0.600    8.000    1.200    2.800    0.000 
#    0.000    0.000   22.000    0.000    0.000    0.000 
#    0.000    0.000    0.000    0.000    0.000    0.000 
#
# Total GULP energy -223629.191408 kJ/mol
# GULP energy per Si atom -5590.729785 kJ/mol
# Density = 1.964623 g / cm^3
# Si number density = 19.691046 Si / 1000 Ang^3
#
#
#
# Elastic Constant Matrix: (Units=GPa)
#
#
# Indices 1 2 3 4 5 6 
#
# 1 60.8147 23.9237 27.2965 0.0000 0.0000 0.0000
# 2 23.9237 60.8147 27.2965 0.0000 0.0000 0.0000
# 3 27.2965 27.2965 121.2244 0.0000 0.0000 0.0000
# 4 0.0000 0.0000 0.0000 32.5296 0.0000 0.0000
# 5 0.0000 0.0000 0.0000 0.0000 32.5296 0.0000
# 6 0.0000 0.0000 0.0000 0.0000 0.0000 41.3699
#
#
#
# Elastic Compliance Matrix: (Units=1/GPa)
#
#
# Indices 1 2 3 4 5 6 
#
# 1 0.020455 -0.006652 -0.003108 0.000000 0.000000 0.000000
# 2 -0.006652 0.020455 -0.003108 0.000000 0.000000 0.000000
# 3 -0.003108 -0.003108 0.009649 0.000000 0.000000 0.000000
# 4 0.000000 0.000000 0.000000 0.030741 0.000000 0.000000
# 5 0.000000 0.000000 0.000000 0.000000 0.030741 0.000000
# 6 0.000000 0.000000 0.000000 0.000000 0.000000 0.024172
#
#
# Mechanical properties :
#
#
# Convention : Reuss Voigt Hill
#
# Bulk Modulus (GPa) = 40.28493 44.43191 42.35842
# Shear Modulus (GPa) = 29.37298 32.24161 30.80730
#
# Velocity S-wave (km/s) = 3.86643 4.05084 3.95971
# Velocity P-wave (km/s) = 6.35888 6.67027 6.51644
#
# Compressibility (1/GPa) = 0.02482318
#
# Stress axis : x y z
#
# Youngs Moduli (GPa) = 48.88740 48.88740 103.63853
#
# Poissons Ratio (x) = 0.32518 0.32213
# Poissons Ratio (y) = 0.32518 0.32213
# Poissons Ratio (z) = 0.15195 0.15195
#
# Static dielectric constant tensor:
#      x y z
#    x 1.705760 0.000000 0.000000 
#    y 0.000000 1.705760 0.000000 
#    z 0.000000 0.000000 1.714830 
# 
# From -- ./inp_files/9352.got.cif
#   From: 2010.05.17/outbox.cif.g08.bks.cpg/sg122_5_cif.got.tgz:9352.got - 2010.05.20 11:37:33.
