data_PCOD9561805
_publ_section_title
;
Structure prediction by ZEFSAII (Michael W. Deem and Ramdas Pophale) SiO2 
 PCOD9561805
Probable space group: P 4/M M M
;
_chemical_formula_sum "Si O2"
_cell_formula_units_Z 72
_cell_length_a 12.722841
_cell_length_b 12.722841
_cell_length_c 28.516010
_cell_angle_alpha 90.000000
_cell_angle_beta 90.000000
_cell_angle_gamma 90.000000
_cell_volume 4615.906018
_symmetry_space_group_name_H-M "P 4/M M M"
_symmetry_group_IT_number 123
_symmetry_cell_setting 'tetragonal'
loop_
_space_group_symop_operation_xyz
x,y,z
-y,x,z
-x,-y,z
y,-x,z
x,-y,-z
-x,y,-z
y,x,-z
-y,-x,-z
-x,-y,-z
y,-x,-z
x,y,-z
-y,x,-z
-x,y,z
x,-y,z
-y,-x,z
y,x,z
loop_
_atom_site_type_symbol
_atom_site_label
_atom_site_fract_x
_atom_site_fract_y
_atom_site_fract_z
Si Si1 0.376912 0.207604 0.316766
Si Si2 0.000000 0.372486 0.946402
Si Si3 0.374012 0.794172 0.887025
Si Si4 0.118880 0.373183 0.784669
Si Si5 0.826579 0.000000 0.443685
Si Si6 0.000000 0.379064 0.619138
O O1 0.500000 0.239062 0.316858
O O2 0.300548 0.300548 0.332839
O O3 0.346219 0.175652 0.263664
O O4 0.367737 0.103525 0.348521
O O5 0.105330 0.343114 0.918473
O O6 0.000000 0.500000 0.947059
O O7 0.000000 0.335218 0.000000
O O8 0.500000 0.778798 0.890925
O O9 0.307965 0.692036 0.900624
O O10 0.348622 0.823349 0.833054
O O11 0.111236 0.500000 0.783988
O O12 0.000000 0.330911 0.785278
O O13 0.714424 0.000000 0.418477
O O14 0.898109 0.898109 0.431294
O O15 0.814345 0.000000 0.500000
O O16 0.000000 0.500000 0.600671
#
# Coordination Sequence:
#
# PCOD9561805 Si02
#       6
#    16   8  16  16   8   8
#     4  10  19  30  46  69  97 128 160 194 232 276
#     4   9  18  33  51  69  89 118 158 192 219 268
#     4  10  19  31  50  74  98 124 153 189 233 278
#     4   9  15  28  47  67  92 122 160 196 225 265
#     4   9  18  33  52  72  95 124 157 198 252 304
#     4  10  19  31  48  71  97 127 165 202 234 275
#
# _framework density 15.598236999999999
#
# number of rings (size 3 to 8) (size 9 to 14) (size 15 to 20)
#    0.000    2.444    2.222    1.667    0.000    1.111 
#    0.000    0.000    0.000    4.333    0.000    5.444 
#    0.000    0.000    0.000   20.667    0.000    0.000 
#
# Total GULP energy -401002.492230 kJ/mol
# GULP energy per Si atom -5569.479059 kJ/mol
# Density = 1.556273 g / cm^3
# Si number density = 15.598237 Si / 1000 Ang^3
#
#
#
# Elastic Constant Matrix: (Units=GPa)
#
#
# Indices 1 2 3 4 5 6 
#
# 1 99.1941 69.8110 39.7883 0.0000 0.0000 0.0000
# 2 69.8110 99.1941 39.7883 0.0000 0.0000 0.0000
# 3 39.7883 39.7883 68.9522 0.0000 0.0000 0.0000
# 4 0.0000 0.0000 0.0000 4.5582 0.0000 0.0000
# 5 0.0000 0.0000 0.0000 0.0000 4.5582 0.0000
# 6 0.0000 0.0000 0.0000 0.0000 0.0000 13.9322
#
#
#
# Elastic Compliance Matrix: (Units=1/GPa)
#
#
# Indices 1 2 3 4 5 6 
#
# 1 0.021079 -0.012954 -0.004688 0.000000 0.000000 0.000000
# 2 -0.012954 0.021079 -0.004688 0.000000 0.000000 0.000000
# 3 -0.004688 -0.004688 0.019913 0.000000 0.000000 0.000000
# 4 0.000000 0.000000 0.000000 0.219387 0.000000 0.000000
# 5 0.000000 0.000000 0.000000 0.000000 0.219387 0.000000
# 6 0.000000 0.000000 0.000000 0.000000 0.000000 0.071776
#
#
# Mechanical properties :
#
#
# Convention : Reuss Voigt Hill
#
# Bulk Modulus (GPa) = 57.43955 62.90172 60.17064
# Shear Modulus (GPa) = 8.02458 12.47324 10.24891
#
# Velocity S-wave (km/s) = 2.27062 2.83089 2.56609
# Velocity P-wave (km/s) = 6.61654 7.14835 6.88758
#
# Compressibility (1/GPa) = 0.01740961
#
# Stress axis : x y z
#
# Youngs Moduli (GPa) = 47.44109 47.44109 50.21780
#
# Poissons Ratio (x) = 0.61457 0.23543
# Poissons Ratio (y) = 0.61457 0.23543
# Poissons Ratio (z) = 0.22241 0.22241
#
# Static dielectric constant tensor:
#      x y z
#    x 1.510930 0.000000 0.000000 
#    y 0.000000 1.510930 0.000000 
#    z 0.000000 0.000000 1.517110 
# 
# From -- ./inp_files/8302.got.cif
#   From: 2010.05.17/outbox.cif.g08.bks.cpg/sg123_5_cif.got.tgz:8302.got - 2010.05.20 11:43:04.
