data_PCOD9561199
_publ_section_title
;
Structure prediction by ZEFSAII (Michael W. Deem and Ramdas Pophale) SiO2 
 PCOD9561199
Probable space group: I -4 2 D
;
_chemical_formula_sum "Si O2"
_cell_formula_units_Z 128
_cell_length_a 23.117259
_cell_length_b 23.117259
_cell_length_c 11.939629
_cell_angle_alpha 90.000000
_cell_angle_beta 90.000000
_cell_angle_gamma 90.000000
_cell_volume 6380.629239
_symmetry_space_group_name_H-M "I -4 2 D"
_symmetry_group_IT_number 122
_symmetry_cell_setting 'tetragonal'
loop_
_space_group_symop_operation_xyz
x,y,z
y,-x,-z
-x,-y,z
-y,x,-z
x,1/2-y,1/4-z
-x,1/2+y,1/4-z
-y,1/2-x,1/4+z
y,1/2+x,1/4+z
1/2+x,1/2+y,1/2+z
1/2+y,1/2-x,1/2-z
1/2-x,1/2-y,1/2+z
1/2-y,1/2+x,1/2-z
1/2+x,-y,3/4-z
1/2-x,y,3/4-z
1/2-y,-x,3/4+z
1/2+y,x,3/4+z
loop_
_atom_site_type_symbol
_atom_site_label
_atom_site_fract_x
_atom_site_fract_y
_atom_site_fract_z
Si Si1 0.817520 0.163311 0.910766
Si Si2 0.921768 0.674236 0.531326
Si Si3 0.414601 0.804254 0.208406
Si Si4 0.009017 0.430837 0.114256
Si Si5 0.797255 0.681361 0.605381
Si Si6 0.583733 0.888628 0.824174
Si Si7 0.304235 0.958945 0.228704
Si Si8 0.399314 0.121077 0.454368
O O1 0.750000 0.154810 0.875000
O O2 0.826695 0.231437 0.935016
O O3 0.853683 0.141544 0.802664
O O4 0.842725 0.126778 0.015491
O O5 0.852452 0.663923 0.530728
O O6 0.949243 0.640392 0.427956
O O7 0.943867 0.661028 0.656394
O O8 0.935574 0.740621 0.505383
O O9 0.416631 0.750000 0.125000
O O10 0.356431 0.802606 0.281579
O O11 0.472012 0.802908 0.283406
O O12 0.415234 0.860365 0.130365
O O13 0.043392 0.410983 0.224458
O O14 0.000000 0.500000 0.112950
O O15 0.948869 0.395514 0.120878
O O16 0.048762 0.413575 0.010587
O O17 0.804459 0.750000 0.625000
O O18 0.328712 0.927126 0.121099
#
# Coordination Sequence:
#
# PCOD9561199 Si02
#       8
#    16  16  16  16  16  16  16  16
#     4  10  23  40  66 101 128 172 220 278 334 398
#     4  11  22  40  68  92 132 180 215 270 336 397
#     4  12  23  40  65 101 129 179 224 275 337 408
#     4  11  24  44  67  91 121 179 228 272 339 397
#     4  11  22  42  67  96 138 172 224 273 340 409
#     4  11  23  41  67  90 130 169 227 271 331 402
#     4  11  24  42  63  98 136 174 222 265 346 397
#     4  11  24  42  66  93 134 171 221 283 331 399
#
# _framework density 20.060718000000001
#
# number of rings (size 3 to 8) (size 9 to 14) (size 15 to 20)
#    0.000    1.000    6.250    0.750    3.500    1.500 
#    0.000    0.000    2.750    0.000    0.000    0.000 
#    0.000    0.000    0.000    0.000    0.000    0.000 
#
# Total GULP energy -357095.048761 kJ/mol
# GULP energy per Si atom -5579.610137 kJ/mol
# Density = 2.001506 g / cm^3
# Si number density = 20.060718 Si / 1000 Ang^3
#
#
#
# Elastic Constant Matrix: (Units=GPa)
#
#
# Indices 1 2 3 4 5 6 
#
# 1 82.8392 17.8131 11.1843 0.0000 0.0000 0.0000
# 2 17.8131 82.8392 11.1843 0.0000 0.0000 0.0000
# 3 11.1843 11.1843 55.1811 0.0000 0.0000 0.0000
# 4 0.0000 0.0000 0.0000 21.0546 0.0000 0.0000
# 5 0.0000 0.0000 0.0000 0.0000 21.0546 0.0000
# 6 0.0000 0.0000 0.0000 0.0000 0.0000 25.1056
#
#
#
# Elastic Compliance Matrix: (Units=1/GPa)
#
#
# Indices 1 2 3 4 5 6 
#
# 1 0.012891 -0.002487 -0.002109 0.000000 0.000000 0.000000
# 2 -0.002487 0.012891 -0.002109 0.000000 0.000000 0.000000
# 3 -0.002109 -0.002109 0.018977 0.000000 0.000000 0.000000
# 4 0.000000 0.000000 0.000000 0.047496 0.000000 0.000000
# 5 0.000000 0.000000 0.000000 0.000000 0.047496 0.000000
# 6 0.000000 0.000000 0.000000 0.000000 0.000000 0.039832
#
#
# Mechanical properties :
#
#
# Convention : Reuss Voigt Hill
#
# Bulk Modulus (GPa) = 31.89808 33.46920 32.68364
# Shear Modulus (GPa) = 24.57709 25.48814 25.03261
#
# Velocity S-wave (km/s) = 3.50399 3.56834 3.53631
# Velocity P-wave (km/s) = 5.68383 5.80496 5.74471
#
# Compressibility (1/GPa) = 0.03134985
#
# Stress axis : x y z
#
# Youngs Moduli (GPa) = 77.57273 77.57273 52.69557
#
# Poissons Ratio (x) = 0.19295 0.11112
# Poissons Ratio (y) = 0.19295 0.11112
# Poissons Ratio (z) = 0.16358 0.16358
#
# Static dielectric constant tensor:
#      x y z
#    x 1.732120 0.000000 0.000000 
#    y 0.000000 1.732120 0.000000 
#    z 0.000000 0.000000 1.703530 
# 
# From -- ./inp_files/4636.got.cif
#   From: 2010.05.17/outbox.cif.g08.bks.cpg/sg122_3_cif.got.tgz:4636.got - 2010.05.20 11:37:33.
