data_PCOD9561845
_publ_section_title
;
Structure prediction by ZEFSAII (Michael W. Deem and Ramdas Pophale) SiO2 
 PCOD9561845
Probable space group: P 4/M M M
;
_chemical_formula_sum "Si O2"
_cell_formula_units_Z 96
_cell_length_a 17.359294
_cell_length_b 17.359294
_cell_length_c 20.961479
_cell_angle_alpha 90.000000
_cell_angle_beta 90.000000
_cell_angle_gamma 90.000000
_cell_volume 6316.638738
_symmetry_space_group_name_H-M "P 4/M M M"
_symmetry_group_IT_number 123
_symmetry_cell_setting 'tetragonal'
loop_
_space_group_symop_operation_xyz
x,y,z
-y,x,z
-x,-y,z
y,-x,z
x,-y,-z
-x,y,-z
y,x,-z
-y,-x,-z
-x,-y,-z
y,-x,-z
x,y,-z
-y,x,-z
-x,y,z
x,-y,z
-y,-x,z
y,x,z
loop_
_atom_site_type_symbol
_atom_site_label
_atom_site_fract_x
_atom_site_fract_y
_atom_site_fract_z
Si Si1 0.793577 0.338676 0.070676
Si Si2 0.204214 0.664058 0.310663
Si Si3 0.718283 0.410110 0.574282
Si Si4 0.911329 0.784650 0.268169
Si Si5 0.215563 0.089092 0.114028
Si Si6 0.411564 0.719619 0.190906
O O1 0.727325 0.272676 0.071189
O O2 0.871336 0.291430 0.085130
O O3 0.769387 0.394919 0.127426
O O4 0.795682 0.373386 0.000000
O O5 0.267104 0.732897 0.309185
O O6 0.217420 0.620071 0.376807
O O7 0.124275 0.707555 0.298798
O O8 0.228036 0.609879 0.251841
O O9 0.740306 0.400808 0.500000
O O10 0.702086 0.500000 0.585783
O O11 0.642406 0.357595 0.584987
O O12 0.857037 0.857037 0.285585
O O13 0.906289 0.776965 0.191110
O O14 0.000000 0.796826 0.285277
O O15 0.142123 0.142123 0.096111
O O16 0.206379 0.000000 0.096030
O O17 0.500000 0.695057 0.193627
O O18 0.352909 0.647092 0.191003
#
# Coordination Sequence:
#
# PCOD9561845 Si02
#       6
#    16  16  16  16  16  16
#     4   9  17  30  46  62  83 116 155 185 214 264
#     4   9  16  29  47  66  91 123 156 184 212 257
#     4   9  17  28  44  68  96 125 155 187 224 266
#     4   9  16  27  46  70  95 121 149 184 224 265
#     4   9  16  27  44  67  93 119 148 182 221 265
#     4  10  19  31  48  68  88 112 144 184 229 272
#
# _framework density 15.197957000000001
#
# number of rings (size 3 to 8) (size 9 to 14) (size 15 to 20)
#    0.000    2.833    1.667    0.500    0.000    1.333 
#    0.000    2.500    0.000    7.000    0.000    7.000 
#    0.000    0.000    0.000    6.500    0.000    0.167 
#
# Total GULP energy -534516.360722 kJ/mol
# GULP energy per Si atom -5567.878758 kJ/mol
# Density = 1.516337 g / cm^3
# Si number density = 15.197957 Si / 1000 Ang^3
#
#
#
# Elastic Constant Matrix: (Units=GPa)
#
#
# Indices 1 2 3 4 5 6 
#
# 1 53.9493 53.8029 37.0495 0.0000 0.0000 0.0000
# 2 53.8029 53.9493 37.0495 0.0000 0.0000 0.0000
# 3 37.0495 37.0495 71.9787 0.0000 0.0000 0.0000
# 4 0.0000 0.0000 0.0000 12.3606 0.0000 0.0000
# 5 0.0000 0.0000 0.0000 0.0000 12.3606 0.0000
# 6 0.0000 0.0000 0.0000 0.0000 0.0000 13.5934
#
#
#
# Elastic Compliance Matrix: (Units=1/GPa)
#
#
# Indices 1 2 3 4 5 6 
#
# 1 3.421697 -3.407331 -0.007394 0.000000 0.000000 0.000000
# 2 -3.407331 3.421697 -0.007394 0.000000 0.000000 0.000000
# 3 -0.007394 -0.007394 0.021505 0.000000 0.000000 0.000000
# 4 0.000000 0.000000 0.000000 0.080902 0.000000 0.000000
# 5 0.000000 0.000000 0.000000 0.000000 0.080902 0.000000
# 6 0.000000 0.000000 0.000000 0.000000 0.000000 0.073565
#
#
# Mechanical properties :
#
#
# Convention : Reuss Voigt Hill
#
# Bulk Modulus (GPa) = 48.40553 48.40902 48.40728
# Shear Modulus (GPa) = 0.35839 11.12795 5.74317
#
# Velocity S-wave (km/s) = 0.48613 2.70886 1.94605
# Velocity P-wave (km/s) = 5.67752 6.45797 6.08028
#
# Compressibility (1/GPa) = 0.02065880
#
# Stress axis : x y z
#
# Youngs Moduli (GPa) = 0.29225 0.29225 46.50055
#
# Poissons Ratio (x) = 0.99580 0.34384
# Poissons Ratio (y) = 0.99580 0.34384
# Poissons Ratio (z) = 0.00216 0.00216
#
# Static dielectric constant tensor:
#      x y z
#    x 1.491090 0.000000 0.000000 
#    y 0.000000 1.491090 0.000000 
#    z 0.000000 0.000000 1.522890 
# 
# From -- ./inp_files/5459.got.cif
#   From: 2010.05.17/outbox.cif.g08.bks.cpg/sg123_3_cif.got.tgz:5459.got - 2010.05.20 11:43:04.
