data_PCOD9561580
_publ_section_title
;
Structure prediction by ZEFSAII (Michael W. Deem and Ramdas Pophale) SiO2 
 PCOD9561580
Probable space group: I -4 2 D
;
_chemical_formula_sum "Si O2"
_cell_formula_units_Z 48
_cell_length_a 7.646674
_cell_length_b 7.646674
_cell_length_c 31.426222
_cell_angle_alpha 90.000000
_cell_angle_beta 90.000000
_cell_angle_gamma 90.000000
_cell_volume 1837.542213
_symmetry_space_group_name_H-M "I -4 2 D"
_symmetry_group_IT_number 122
_symmetry_cell_setting 'tetragonal'
loop_
_space_group_symop_operation_xyz
x,y,z
y,-x,-z
-x,-y,z
-y,x,-z
x,1/2-y,1/4-z
-x,1/2+y,1/4-z
-y,1/2-x,1/4+z
y,1/2+x,1/4+z
1/2+x,1/2+y,1/2+z
1/2+y,1/2-x,1/2-z
1/2-x,1/2-y,1/2+z
1/2-y,1/2+x,1/2-z
1/2+x,-y,3/4-z
1/2-x,y,3/4-z
1/2-y,-x,3/4+z
1/2+y,x,3/4+z
loop_
_atom_site_type_symbol
_atom_site_label
_atom_site_fract_x
_atom_site_fract_y
_atom_site_fract_z
Si Si1 0.633956 0.248010 0.762073
Si Si2 0.583959 0.693296 0.937924
Si Si3 0.798493 0.020031 0.650020
O O1 0.436134 0.226519 0.745887
O O2 0.718565 0.401789 0.734259
O O3 0.616877 0.264219 0.812678
O O4 0.500000 0.500000 0.943848
O O5 0.786177 0.709501 0.920912
O O6 0.494481 0.785411 0.896527
O O7 0.000000 0.000000 0.639517
#
# Coordination Sequence:
#
# PCOD9561580 Si02
#       3
#    16  16  16
#     4   9  18  36  65  93 131 176 224 281 346 412
#     4   9  18  36  64  92 125 174 227 274 339 411
#     4   9  18  36  62  86 130 171 216 284 336 400
#
# _framework density 26.121846999999999
#
# number of rings (size 3 to 8) (size 9 to 14) (size 15 to 20)
#    0.000    3.000    0.000    0.000    0.000    0.000 
#   12.000    0.000   29.333    4.000    0.000    0.000 
#    0.000   12.000    0.000    0.000    0.000    0.000 
#
# Total GULP energy -133886.083505 kJ/mol
# GULP energy per Si atom -5578.586813 kJ/mol
# Density = 2.606239 g / cm^3
# Si number density = 26.121847 Si / 1000 Ang^3
#
#
#
# Elastic Constant Matrix: (Units=GPa)
#
#
# Indices 1 2 3 4 5 6 
#
# 1 94.5546 16.7254 79.9566 0.0000 0.0000 0.0000
# 2 16.7254 94.5546 79.9566 0.0000 0.0000 0.0000
# 3 79.9566 79.9566 256.3335 0.0000 0.0000 0.0000
# 4 0.0000 0.0000 0.0000 27.7470 0.0000 0.0000
# 5 0.0000 0.0000 0.0000 0.0000 27.7470 0.0000
# 6 0.0000 0.0000 0.0000 0.0000 0.0000 40.6308
#
#
#
# Elastic Compliance Matrix: (Units=1/GPa)
#
#
# Indices 1 2 3 4 5 6 
#
# 1 0.014568 0.001719 -0.005080 0.000000 0.000000 0.000000
# 2 0.001719 0.014568 -0.005080 0.000000 0.000000 0.000000
# 3 -0.005080 -0.005080 0.007070 0.000000 0.000000 0.000000
# 4 0.000000 0.000000 0.000000 0.036040 0.000000 0.000000
# 5 0.000000 0.000000 0.000000 0.000000 0.036040 0.000000
# 6 0.000000 0.000000 0.000000 0.000000 0.000000 0.024612
#
#
# Mechanical properties :
#
#
# Convention : Reuss Voigt Hill
#
# Bulk Modulus (GPa) = 51.75141 88.74664 70.24903
# Shear Modulus (GPa) = 32.00580 37.14522 34.57551
#
# Velocity S-wave (km/s) = 3.50415 3.77503 3.64211
# Velocity P-wave (km/s) = 6.01886 7.28347 6.68116
#
# Compressibility (1/GPa) = 0.01932314
#
# Stress axis : x y z
#
# Youngs Moduli (GPa) = 68.64476 68.64473 141.43304
#
# Poissons Ratio (x) = -0.11801 0.71852
# Poissons Ratio (y) = -0.11801 0.71852
# Poissons Ratio (z) = 0.34873 0.34873
#
# Static dielectric constant tensor:
#      x y z
#    x 2.035880 0.000000 0.000000 
#    y 0.000000 2.035880 0.000000 
#    z 0.000000 0.000000 2.276970 
# 
# From -- ./inp_files/9010.got.cif
#   From: 2010.05.17/outbox.cif.g08.bks.cpg/sg122_5_cif.got.tgz:9010.got - 2010.05.20 11:37:33.
