data_PCOD9561429
_publ_section_title
;
Structure prediction by ZEFSAII (Michael W. Deem and Ramdas Pophale) SiO2 
 PCOD9561429
Probable space group: I -4 2 D
;
_chemical_formula_sum "Si O2"
_cell_formula_units_Z 84
_cell_length_a 13.766279
_cell_length_b 13.766279
_cell_length_c 20.874480
_cell_angle_alpha 90.000000
_cell_angle_beta 90.000000
_cell_angle_gamma 90.000000
_cell_volume 3955.931838
_symmetry_space_group_name_H-M "I -4 2 D"
_symmetry_group_IT_number 122
_symmetry_cell_setting 'tetragonal'
loop_
_space_group_symop_operation_xyz
x,y,z
y,-x,-z
-x,-y,z
-y,x,-z
x,1/2-y,1/4-z
-x,1/2+y,1/4-z
-y,1/2-x,1/4+z
y,1/2+x,1/4+z
1/2+x,1/2+y,1/2+z
1/2+y,1/2-x,1/2-z
1/2-x,1/2-y,1/2+z
1/2-y,1/2+x,1/2-z
1/2+x,-y,3/4-z
1/2-x,y,3/4-z
1/2-y,-x,3/4+z
1/2+y,x,3/4+z
loop_
_atom_site_type_symbol
_atom_site_label
_atom_site_fract_x
_atom_site_fract_y
_atom_site_fract_z
Si Si1 0.176563 0.400048 0.136949
Si Si2 0.898116 0.744936 0.896213
Si Si3 0.000000 0.000000 0.000000
Si Si4 0.222469 0.768129 0.772025
Si Si5 0.039137 0.861703 0.108993
Si Si6 0.368095 0.585732 0.019874
O O1 0.234021 0.490966 0.165211
O O2 0.194975 0.312406 0.185889
O O3 0.211409 0.370105 0.066795
O O4 0.061864 0.416608 0.124866
O O5 0.871931 0.850886 0.865265
O O6 0.902824 0.659231 0.844540
O O7 0.825590 0.723575 0.954733
O O8 0.092403 0.045573 0.962414
O O9 0.214615 0.652786 0.762250
O O10 0.014629 0.750000 0.125000
O O11 0.475035 0.628020 0.004139
#
# Coordination Sequence:
#
# PCOD9561429 Si02
#       6
#    16  16   4  16  16  16
#     4  11  24  43  69 110 145 187 238 301 381 448
#     4  12  25  44  73 110 142 192 244 304 380 440
#     4  12  24  40  68 100 144 196 216 320 362 436
#     4  11  24  44  72 103 143 190 241 305 358 456
#     4  12  24  39  68 105 141 188 238 289 375 448
#     4  11  25  50  75  99 142 193 252 307 357 436
#
# _framework density 21.233934999999999
#
# number of rings (size 3 to 8) (size 9 to 14) (size 15 to 20)
#    0.000    0.571    5.714    2.857    2.667    1.524 
#    6.857    0.000    8.381    0.000    0.000    0.000 
#    0.000    0.000    0.000    0.000    0.000    0.000 
#
# Total GULP energy -233896.041855 kJ/mol
# GULP energy per Si atom -5568.953378 kJ/mol
# Density = 2.118561 g / cm^3
# Si number density = 21.233935 Si / 1000 Ang^3
#
#
#
# Elastic Constant Matrix: (Units=GPa)
#
#
# Indices 1 2 3 4 5 6 
#
# 1 110.8657 44.3049 51.3930 0.0000 0.0000 0.0000
# 2 44.3049 110.8657 51.3930 0.0000 0.0000 0.0000
# 3 51.3930 51.3930 90.3814 0.0000 0.0000 0.0000
# 4 0.0000 0.0000 0.0000 34.8524 0.0000 0.0000
# 5 0.0000 0.0000 0.0000 0.0000 34.8524 0.0000
# 6 0.0000 0.0000 0.0000 0.0000 0.0000 42.3592
#
#
#
# Elastic Compliance Matrix: (Units=1/GPa)
#
#
# Indices 1 2 3 4 5 6 
#
# 1 0.012681 -0.002343 -0.005879 0.000000 0.000000 0.000000
# 2 -0.002343 0.012681 -0.005879 0.000000 0.000000 0.000000
# 3 -0.005879 -0.005879 0.017750 0.000000 0.000000 0.000000
# 4 0.000000 0.000000 0.000000 0.028692 0.000000 0.000000
# 5 0.000000 0.000000 0.000000 0.000000 0.028692 0.000000
# 6 0.000000 0.000000 0.000000 0.000000 0.000000 0.023608
#
#
# Mechanical properties :
#
#
# Convention : Reuss Voigt Hill
#
# Bulk Modulus (GPa) = 67.06014 67.36605 67.21310
# Shear Modulus (GPa) = 31.79124 33.41427 32.60276
#
# Velocity S-wave (km/s) = 3.87355 3.97120 3.92268
# Velocity P-wave (km/s) = 7.18721 7.26786 7.22765
#
# Compressibility (1/GPa) = 0.01491199
#
# Stress axis : x y z
#
# Youngs Moduli (GPa) = 78.85641 78.85641 56.33835
#
# Poissons Ratio (x) = 0.18473 0.33120
# Poissons Ratio (y) = 0.18473 0.33120
# Poissons Ratio (z) = 0.46358 0.46358
#
# Static dielectric constant tensor:
#      x y z
#    x 1.838080 0.000000 0.000000 
#    y 0.000000 1.838080 0.000000 
#    z 0.000000 0.000000 1.883130 
# 
# From -- ./inp_files/7165.got.cif
#   From: 2010.05.17/outbox.cif.g08.bks.cpg/sg122_4_cif.got.tgz:7165.got - 2010.05.20 11:37:33.
