data_PCOD9561525
_publ_section_title
;
Structure prediction by ZEFSAII (Michael W. Deem and Ramdas Pophale) SiO2 
 PCOD9561525
Probable space group: I -4 2 D
;
_chemical_formula_sum "Si O2"
_cell_formula_units_Z 56
_cell_length_a 9.900033
_cell_length_b 9.900033
_cell_length_c 24.606344
_cell_angle_alpha 90.000000
_cell_angle_beta 90.000000
_cell_angle_gamma 90.000000
_cell_volume 2411.683853
_symmetry_space_group_name_H-M "I -4 2 D"
_symmetry_group_IT_number 122
_symmetry_cell_setting 'tetragonal'
loop_
_space_group_symop_operation_xyz
x,y,z
y,-x,-z
-x,-y,z
-y,x,-z
x,1/2-y,1/4-z
-x,1/2+y,1/4-z
-y,1/2-x,1/4+z
y,1/2+x,1/4+z
1/2+x,1/2+y,1/2+z
1/2+y,1/2-x,1/2-z
1/2-x,1/2-y,1/2+z
1/2-y,1/2+x,1/2-z
1/2+x,-y,3/4-z
1/2-x,y,3/4-z
1/2-y,-x,3/4+z
1/2+y,x,3/4+z
loop_
_atom_site_type_symbol
_atom_site_label
_atom_site_fract_x
_atom_site_fract_y
_atom_site_fract_z
Si Si1 0.129137 0.074990 0.659705
Si Si2 0.199857 0.590855 0.757139
Si Si3 0.141831 0.250000 0.125000
Si Si4 0.156405 0.469816 0.470683
O O1 0.080244 0.217101 0.686679
O O2 0.262380 0.117853 0.627933
O O3 0.171146 0.995228 0.715183
O O4 0.000000 0.000000 0.634026
O O5 0.167473 0.440308 0.738073
O O6 0.307327 0.667960 0.719163
O O7 0.051800 0.254357 0.071058
O O8 0.000000 0.500000 0.457882
#
# Coordination Sequence:
#
# PCOD9561525 Si02
#       4
#    16  16   8  16
#     4   9  22  42  67  98 143 173 243 301 349 451
#     4   9  17  37  71  95 131 185 224 300 364 419
#     4  12  22  46  68  98 146 194 238 298 386 422
#     4   9  21  42  64  94 138 180 232 292 353 451
#
# _framework density 23.220288
#
# number of rings (size 3 to 8) (size 9 to 14) (size 15 to 20)
#    1.714    0.857    0.000    1.714    0.000    0.000 
#   20.571    0.000    0.000    0.000    0.000    0.000 
#    0.000    0.000    0.000    0.000    0.000    0.000 
#
# Total GULP energy -156111.584453 kJ/mol
# GULP energy per Si atom -5575.413730 kJ/mol
# Density = 2.316744 g / cm^3
# Si number density = 23.220288 Si / 1000 Ang^3
#
#
#
# Elastic Constant Matrix: (Units=GPa)
#
#
# Indices 1 2 3 4 5 6 
#
# 1 102.8678 40.9538 37.8348 0.0000 0.0000 0.0000
# 2 40.9538 102.8678 37.8348 0.0000 0.0000 0.0000
# 3 37.8348 37.8348 77.1011 0.0000 0.0000 0.0000
# 4 0.0000 0.0000 0.0000 26.2429 0.0000 0.0000
# 5 0.0000 0.0000 0.0000 0.0000 26.2429 0.0000
# 6 0.0000 0.0000 0.0000 0.0000 0.0000 37.5059
#
#
#
# Elastic Compliance Matrix: (Units=1/GPa)
#
#
# Indices 1 2 3 4 5 6 
#
# 1 0.012762 -0.003389 -0.004599 0.000000 0.000000 0.000000
# 2 -0.003389 0.012762 -0.004599 0.000000 0.000000 0.000000
# 3 -0.004599 -0.004599 0.017484 0.000000 0.000000 0.000000
# 4 0.000000 0.000000 0.000000 0.038106 0.000000 0.000000
# 5 0.000000 0.000000 0.000000 0.000000 0.038106 0.000000
# 6 0.000000 0.000000 0.000000 0.000000 0.000000 0.026662
#
#
# Mechanical properties :
#
#
# Convention : Reuss Voigt Hill
#
# Bulk Modulus (GPa) = 56.07856 57.34263 56.71059
# Shear Modulus (GPa) = 28.24817 29.07922 28.66369
#
# Velocity S-wave (km/s) = 3.49166 3.54265 3.51725
# Velocity P-wave (km/s) = 6.36072 6.44069 6.40083
#
# Compressibility (1/GPa) = 0.01783213
#
# Stress axis : x y z
#
# Youngs Moduli (GPa) = 78.35628 78.35628 57.19489
#
# Poissons Ratio (x) = 0.26557 0.26307
# Poissons Ratio (y) = 0.26557 0.26307
# Poissons Ratio (z) = 0.36040 0.36040
#
# Static dielectric constant tensor:
#      x y z
#    x 1.886150 0.000000 0.000000 
#    y 0.000000 1.886150 0.000000 
#    z 0.000000 0.000000 1.916180 
# 
# From -- ./inp_files/8461.got.cif
#   From: 2010.05.17/outbox.cif.g08.bks.cpg/sg122_5_cif.got.tgz:8461.got - 2010.05.20 11:37:33.
