data_PCOD9561193
_publ_section_title
;
Structure prediction by ZEFSAII (Michael W. Deem and Ramdas Pophale) SiO2 
 PCOD9561193
Probable space group: I -4 2 D
;
_chemical_formula_sum "Si O2"
_cell_formula_units_Z 108
_cell_length_a 13.795192
_cell_length_b 13.795192
_cell_length_c 29.470449
_cell_angle_alpha 90.000000
_cell_angle_beta 90.000000
_cell_angle_gamma 90.000000
_cell_volume 5608.442237
_symmetry_space_group_name_H-M "I -4 2 D"
_symmetry_group_IT_number 122
_symmetry_cell_setting 'tetragonal'
loop_
_space_group_symop_operation_xyz
x,y,z
y,-x,-z
-x,-y,z
-y,x,-z
x,1/2-y,1/4-z
-x,1/2+y,1/4-z
-y,1/2-x,1/4+z
y,1/2+x,1/4+z
1/2+x,1/2+y,1/2+z
1/2+y,1/2-x,1/2-z
1/2-x,1/2-y,1/2+z
1/2-y,1/2+x,1/2-z
1/2+x,-y,3/4-z
1/2-x,y,3/4-z
1/2-y,-x,3/4+z
1/2+y,x,3/4+z
loop_
_atom_site_type_symbol
_atom_site_label
_atom_site_fract_x
_atom_site_fract_y
_atom_site_fract_z
Si Si1 0.827288 0.563464 0.540218
Si Si2 0.000000 0.000000 0.230982
Si Si3 0.500000 0.000000 0.750000
Si Si4 0.675826 0.638860 0.113188
Si Si5 0.101765 0.613785 0.765977
Si Si6 0.827527 0.028590 0.162004
Si Si7 0.211027 0.265264 0.468775
Si Si8 0.915235 0.843537 0.937811
O O1 0.906547 0.503584 0.512779
O O2 0.864884 0.596868 0.589586
O O3 0.804227 0.656653 0.509184
O O4 0.732477 0.498783 0.548172
O O5 0.907614 0.999726 0.198397
O O6 0.571883 0.937807 0.781238
O O7 0.704312 0.750000 0.125000
O O8 0.608124 0.632466 0.068758
O O9 0.761796 0.564991 0.098990
O O10 0.127328 0.512488 0.741443
O O11 0.161132 0.700237 0.742467
O O12 0.774156 0.122023 0.183540
O O13 0.870080 0.065801 0.114358
O O14 0.312185 0.292016 0.445506
#
# Coordination Sequence:
#
# PCOD9561193 Si02
#       8
#    16   8   4  16  16  16  16  16
#     4  10  23  38  63  94 123 166 217 266 325 397
#     4  10  23  42  62  87 131 170 210 267 330 392
#     4  12  22  40  68  96 132 172 220 274 344 400
#     4  11  22  41  65  93 127 166 218 277 325 397
#     4  11  24  42  67  95 130 176 219 268 333 402
#     4  10  23  43  61  93 127 170 220 271 324 409
#     4  11  21  41  67  90 130 174 210 271 336 389
#     4  11  23  40  64  97 128 168 220 277 329 394
#
# _framework density 19.256682999999999
#
# number of rings (size 3 to 8) (size 9 to 14) (size 15 to 20)
#    0.000    1.333    4.444    0.889    2.074    1.185 
#    0.000    1.481    0.000    0.000    0.000    0.000 
#    0.000    0.000    0.000    0.000    0.000    0.000 
#
# Total GULP energy -301368.448769 kJ/mol
# GULP energy per Si atom -5580.897199 kJ/mol
# Density = 1.921285 g / cm^3
# Si number density = 19.256683 Si / 1000 Ang^3
#
#
#
# Elastic Constant Matrix: (Units=GPa)
#
#
# Indices 1 2 3 4 5 6 
#
# 1 66.3229 24.5706 32.8915 0.0000 0.0000 0.0000
# 2 24.5706 66.3229 32.8915 0.0000 0.0000 0.0000
# 3 32.8915 32.8915 141.9133 0.0000 0.0000 0.0000
# 4 0.0000 0.0000 0.0000 27.5808 0.0000 0.0000
# 5 0.0000 0.0000 0.0000 0.0000 27.5808 0.0000
# 6 0.0000 0.0000 0.0000 0.0000 0.0000 28.8584
#
#
#
# Elastic Compliance Matrix: (Units=1/GPa)
#
#
# Indices 1 2 3 4 5 6 
#
# 1 0.018585 -0.005366 -0.003064 0.000000 0.000000 0.000000
# 2 -0.005366 0.018585 -0.003064 0.000000 0.000000 0.000000
# 3 -0.003064 -0.003064 0.008467 0.000000 0.000000 0.000000
# 4 0.000000 0.000000 0.000000 0.036257 0.000000 0.000000
# 5 0.000000 0.000000 0.000000 0.000000 0.036257 0.000000
# 6 0.000000 0.000000 0.000000 0.000000 0.000000 0.034652
#
#
# Mechanical properties :
#
#
# Convention : Reuss Voigt Hill
#
# Bulk Modulus (GPa) = 44.15016 50.58513 47.36764
# Shear Modulus (GPa) = 27.27171 29.08434 28.17803
#
# Velocity S-wave (km/s) = 3.76735 3.89054 3.82944
# Velocity P-wave (km/s) = 6.47309 6.81965 6.64863
#
# Compressibility (1/GPa) = 0.02264998
#
# Stress axis : x y z
#
# Youngs Moduli (GPa) = 53.80664 53.80664 118.10849
#
# Poissons Ratio (x) = 0.28871 0.36187
# Poissons Ratio (y) = 0.28871 0.36187
# Poissons Ratio (z) = 0.16486 0.16486
#
# Static dielectric constant tensor:
#      x y z
#    x 1.662340 0.000000 0.000000 
#    y 0.000000 1.662340 0.000000 
#    z 0.000000 0.000000 1.678840 
# 
# From -- ./inp_files/8834.got.cif
#   From: 2010.05.17/outbox.cif.g08.bks.cpg/sg122_5_cif.got.tgz:8834.got - 2010.05.20 11:37:33.
