data_PCOD9561872
_publ_section_title
;
Structure prediction by ZEFSAII (Michael W. Deem and Ramdas Pophale) SiO2 
 PCOD9561872
Probable space group: P 4/M M M
;
_chemical_formula_sum "Si O2"
_cell_formula_units_Z 120
_cell_length_a 28.539711
_cell_length_b 28.539711
_cell_length_c 7.628215
_cell_angle_alpha 90.000000
_cell_angle_beta 90.000000
_cell_angle_gamma 90.000000
_cell_volume 6213.296334
_symmetry_space_group_name_H-M "P 4/M M M"
_symmetry_group_IT_number 123
_symmetry_cell_setting 'tetragonal'
loop_
_space_group_symop_operation_xyz
x,y,z
-y,x,z
-x,-y,z
y,-x,z
x,-y,-z
-x,y,-z
y,x,-z
-y,-x,-z
-x,-y,-z
y,-x,-z
x,y,-z
-y,x,-z
-x,y,z
x,-y,z
-y,-x,z
y,x,z
loop_
_atom_site_type_symbol
_atom_site_label
_atom_site_fract_x
_atom_site_fract_y
_atom_site_fract_z
Si Si1 0.831574 0.554093 0.793537
Si Si2 0.799063 0.872659 0.298546
Si Si3 0.085315 0.381557 0.787393
Si Si4 0.000000 0.552918 0.213366
Si Si5 0.372831 0.553264 0.790636
Si Si6 0.276392 0.945749 0.706860
Si Si7 0.052419 0.875639 0.211228
Si Si8 0.728661 0.553445 0.291176
O O1 0.835243 0.500000 0.722266
O O2 0.867048 0.593383 0.724425
O O3 0.778339 0.571643 0.773129
O O4 0.841849 0.549826 0.000000
O O5 0.786678 0.860786 0.500000
O O6 0.825961 0.825961 0.224029
O O7 0.755861 0.903019 0.219317
O O8 0.839243 0.912126 0.294886
O O9 0.070603 0.330148 0.724996
O O10 0.045177 0.417988 0.734298
O O11 0.086383 0.378430 0.000000
O O12 0.000000 0.500000 0.277624
O O13 0.000000 0.551222 0.000000
O O14 0.374622 0.500000 0.719707
O O15 0.413434 0.586567 0.720162
O O16 0.321256 0.574477 0.758763
O O17 0.378604 0.550160 0.000000
O O18 0.264943 0.948438 0.500000
O O19 0.270503 0.000000 0.775404
O O20 0.072871 0.927130 0.244812
O O21 0.000000 0.868948 0.272693
O O22 0.053883 0.868385 0.000000
O O23 0.730908 0.552070 0.500000
O O24 0.726634 0.500000 0.221006
#
# Coordination Sequence:
#
# PCOD9561872 Si02
#       8
#    16  16  16   8  16  16  16  16
#     4   9  17  30  49  72  96 123 159 203 247 288
#     4   9  18  33  52  70  87 114 155 199 240 280
#     4  10  19  31  49  74 100 129 165 198 234 285
#     4   9  16  28  47  71 101 133 165 199 230 269
#     4   9  17  29  46  69  98 132 168 208 256 310
#     4  10  20  33  49  70  99 130 158 196 247 298
#     4   9  17  28  42  63  90 117 145 178 218 266
#     4   9  17  29  46  68  93 123 161 204 246 288
#
# _framework density 19.313420000000001
#
# number of rings (size 3 to 8) (size 9 to 14) (size 15 to 20)
#    0.000    2.733    0.667    1.200    0.000    5.600 
#    0.000    1.333    0.000    2.400    0.000    7.467 
#    0.000    0.000    0.000    0.000    0.000    0.000 
#
# Total GULP energy -668053.188661 kJ/mol
# GULP energy per Si atom -5567.109906 kJ/mol
# Density = 1.926946 g / cm^3
# Si number density = 19.313420 Si / 1000 Ang^3
#
#
#
# Elastic Constant Matrix: (Units=GPa)
#
#
# Indices 1 2 3 4 5 6 
#
# 1 125.0490 64.7285 -1.6989 0.0000 0.0000 0.0000
# 2 64.7285 125.0490 -1.6989 0.0000 0.0000 0.0000
# 3 -1.6989 -1.6989 38.6983 0.0000 0.0000 0.0000
# 4 0.0000 0.0000 0.0000 9.6679 0.0000 0.0000
# 5 0.0000 0.0000 0.0000 0.0000 9.6679 0.0000
# 6 0.0000 0.0000 0.0000 0.0000 0.0000 36.4372
#
#
#
# Elastic Compliance Matrix: (Units=1/GPa)
#
#
# Indices 1 2 3 4 5 6 
#
# 1 0.010926 -0.005652 0.000232 0.000000 0.000000 0.000000
# 2 -0.005652 0.010926 0.000232 0.000000 0.000000 0.000000
# 3 0.000232 0.000232 0.025861 0.000000 0.000000 0.000000
# 4 0.000000 0.000000 0.000000 0.103435 0.000000 0.000000
# 5 0.000000 0.000000 0.000000 0.000000 0.103435 0.000000
# 6 0.000000 0.000000 0.000000 0.000000 0.000000 0.027444
#
#
# Mechanical properties :
#
#
# Convention : Reuss Voigt Hill
#
# Bulk Modulus (GPa) = 26.78507 45.71754 36.25131
# Shear Modulus (GPa) = 16.40144 26.31896 21.36020
#
# Velocity S-wave (km/s) = 2.91731 3.69552 3.32923
# Velocity P-wave (km/s) = 5.02457 6.47549 5.79561
#
# Compressibility (1/GPa) = 0.03733423
#
# Stress axis : x y z
#
# Youngs Moduli (GPa) = 91.52658 91.52658 38.66789
#
# Poissons Ratio (x) = 0.51734 -0.00895
# Poissons Ratio (y) = 0.51734 -0.00895
# Poissons Ratio (z) = -0.02119 -0.02119
#
# Static dielectric constant tensor:
#      x y z
#    x 1.691380 0.000000 0.000000 
#    y 0.000000 1.691380 0.000000 
#    z 0.000000 0.000000 1.734300 
# 
# From -- ./inp_files/2054.got.cif
#   From: 2010.05.17/outbox.cif.g08.bks.cpg/sg123_2_cif.got.tgz:2054.got - 2010.05.20 11:43:04.
