data_PCOD9561104
_publ_section_title
;
Structure prediction by ZEFSAII (Michael W. Deem and Ramdas Pophale) SiO2 
 PCOD9561104
Probable space group: I -4 2 D
;
_chemical_formula_sum "Si O2"
_cell_formula_units_Z 120
_cell_length_a 20.290481
_cell_length_b 20.290481
_cell_length_c 15.078404
_cell_angle_alpha 90.000000
_cell_angle_beta 90.000000
_cell_angle_gamma 90.000000
_cell_volume 6207.833499
_symmetry_space_group_name_H-M "I -4 2 D"
_symmetry_group_IT_number 122
_symmetry_cell_setting 'tetragonal'
loop_
_space_group_symop_operation_xyz
x,y,z
y,-x,-z
-x,-y,z
-y,x,-z
x,1/2-y,1/4-z
-x,1/2+y,1/4-z
-y,1/2-x,1/4+z
y,1/2+x,1/4+z
1/2+x,1/2+y,1/2+z
1/2+y,1/2-x,1/2-z
1/2-x,1/2-y,1/2+z
1/2-y,1/2+x,1/2-z
1/2+x,-y,3/4-z
1/2-x,y,3/4-z
1/2-y,-x,3/4+z
1/2+y,x,3/4+z
loop_
_atom_site_type_symbol
_atom_site_label
_atom_site_fract_x
_atom_site_fract_y
_atom_site_fract_z
Si Si1 0.903615 0.449926 0.738264
Si Si2 0.119963 0.174110 0.141015
Si Si3 0.128379 0.173243 0.639211
Si Si4 0.122623 0.750000 0.125000
Si Si5 0.398794 0.955664 0.741259
Si Si6 0.241812 0.087779 0.073832
Si Si7 0.180140 0.890810 0.164087
Si Si8 0.194132 0.944128 0.666968
O O1 0.915132 0.525655 0.764294
O O2 0.857599 0.413777 0.809893
O O3 0.870446 0.449252 0.642342
O O4 0.142699 0.250000 0.125000
O O5 0.066737 0.152405 0.066920
O O6 0.179720 0.121709 0.124539
O O7 0.083476 0.176010 0.236057
O O8 0.142753 0.250000 0.625000
O O9 0.195878 0.132992 0.650315
O O10 0.091249 0.169375 0.733733
O O11 0.087890 0.730659 0.217252
O O12 0.162228 0.814725 0.151081
O O13 0.467569 0.916887 0.754955
O O14 0.366612 0.934124 0.648791
O O15 0.266394 0.013419 0.089585
O O16 0.254607 0.896247 0.131235
#
# Coordination Sequence:
#
# PCOD9561104 Si02
#       8
#    16  16  16   8  16  16  16  16
#     4  11  25  48  67  95 135 177 230 290 350 410
#     4  12  25  41  68 106 144 181 233 293 349 428
#     4  11  23  43  72  93 129 176 230 287 341 410
#     4  10  22  40  64  98 136 180 212 276 346 400
#     4  11  25  43  64  99 145 184 223 280 351 430
#     4  11  24  42  70 102 136 182 228 284 354 420
#     4  11  23  40  67  98 132 174 230 275 344 414
#     4  12  25  43  69 100 133 184 230 283 352 419
#
# _framework density 19.330414000000001
#
# number of rings (size 3 to 8) (size 9 to 14) (size 15 to 20)
#    0.000    0.800    5.333    1.200    4.667    3.200 
#    0.000    2.667    0.000    0.000    0.000    0.000 
#    0.000    0.000    0.000    0.000    0.000    0.000 
#
# Total GULP energy -334989.175660 kJ/mol
# GULP energy per Si atom -5583.152928 kJ/mol
# Density = 1.928642 g / cm^3
# Si number density = 19.330414 Si / 1000 Ang^3
#
#
#
# Elastic Constant Matrix: (Units=GPa)
#
#
# Indices 1 2 3 4 5 6 
#
# 1 64.2219 12.9485 57.7132 0.0000 0.0000 0.0000
# 2 12.9485 64.2219 57.7132 0.0000 0.0000 0.0000
# 3 57.7132 57.7132 122.0652 0.0000 0.0000 0.0000
# 4 0.0000 0.0000 0.0000 18.4739 0.0000 0.0000
# 5 0.0000 0.0000 0.0000 0.0000 18.4739 0.0000
# 6 0.0000 0.0000 0.0000 0.0000 0.0000 29.1166
#
#
#
# Elastic Compliance Matrix: (Units=1/GPa)
#
#
# Indices 1 2 3 4 5 6 
#
# 1 0.031879 0.012376 -0.020924 0.000000 0.000000 0.000000
# 2 0.012376 0.031879 -0.020924 0.000000 0.000000 0.000000
# 3 -0.020924 -0.020924 0.027979 0.000000 0.000000 0.000000
# 4 0.000000 0.000000 0.000000 0.054131 0.000000 0.000000
# 5 0.000000 0.000000 0.000000 0.000000 0.054131 0.000000
# 6 0.000000 0.000000 0.000000 0.000000 0.000000 0.034345
#
#
# Mechanical properties :
#
#
# Convention : Reuss Voigt Hill
#
# Bulk Modulus (GPa) = 30.49476 56.36210 43.42843
# Shear Modulus (GPa) = 16.43551 21.35512 18.89532
#
# Velocity S-wave (km/s) = 2.91905 3.32737 3.12988
# Velocity P-wave (km/s) = 5.21258 6.63192 5.96462
#
# Compressibility (1/GPa) = 0.03279252
#
# Stress axis : x y z
#
# Youngs Moduli (GPa) = 31.36815 31.36815 35.74147
#
# Poissons Ratio (x) = -0.38822 0.74787
# Poissons Ratio (y) = -0.38822 0.74787
# Poissons Ratio (z) = 0.65636 0.65636
#
# Static dielectric constant tensor:
#      x y z
#    x 1.688130 0.000000 0.000000 
#    y 0.000000 1.688130 0.000000 
#    z 0.000000 0.000000 1.682420 
# 
# From -- ./inp_files/5571.got.cif
#   From: 2010.05.17/outbox.cif.g08.bks.cpg/sg122_3_cif.got.tgz:5571.got - 2010.05.20 11:37:33.
