data_PCOD9561276
_publ_section_title
;
Structure prediction by ZEFSAII (Michael W. Deem and Ramdas Pophale) SiO2 
 PCOD9561276
Probable space group: I -4 2 D
;
_chemical_formula_sum "Si O2"
_cell_formula_units_Z 96
_cell_length_a 14.044423
_cell_length_b 14.044423
_cell_length_c 22.959990
_cell_angle_alpha 90.000000
_cell_angle_beta 90.000000
_cell_angle_gamma 90.000000
_cell_volume 4528.761995
_symmetry_space_group_name_H-M "I -4 2 D"
_symmetry_group_IT_number 122
_symmetry_cell_setting 'tetragonal'
loop_
_space_group_symop_operation_xyz
x,y,z
y,-x,-z
-x,-y,z
-y,x,-z
x,1/2-y,1/4-z
-x,1/2+y,1/4-z
-y,1/2-x,1/4+z
y,1/2+x,1/4+z
1/2+x,1/2+y,1/2+z
1/2+y,1/2-x,1/2-z
1/2-x,1/2-y,1/2+z
1/2-y,1/2+x,1/2-z
1/2+x,-y,3/4-z
1/2-x,y,3/4-z
1/2-y,-x,3/4+z
1/2+y,x,3/4+z
loop_
_atom_site_type_symbol
_atom_site_label
_atom_site_fract_x
_atom_site_fract_y
_atom_site_fract_z
Si Si1 0.520047 0.787064 0.229302
Si Si2 0.630726 0.764788 0.461496
Si Si3 0.563444 0.092750 0.965153
Si Si4 0.276639 0.207340 0.061498
Si Si5 0.657861 0.539021 0.584244
Si Si6 0.000000 0.000000 0.500000
Si Si7 0.250000 0.106944 0.375000
Si Si8 0.500000 0.000000 0.750000
O O1 0.475665 0.693219 0.259174
O O2 0.623680 0.753123 0.207685
O O3 0.513375 0.885137 0.266162
O O4 0.460123 0.805000 0.170421
O O5 0.573009 0.836099 0.503911
O O6 0.709530 0.728171 0.506497
O O7 0.569803 0.685551 0.428400
O O8 0.679608 0.828005 0.411813
O O9 0.563878 0.114891 0.896719
O O10 0.500000 0.000000 0.976345
O O11 0.250422 0.250000 0.125000
O O12 0.255529 0.096434 0.073165
O O13 0.572854 0.559576 0.539341
#
# Coordination Sequence:
#
# PCOD9561276 Si02
#       8
#    16  16  16  16  16   4   8   4
#     4  11  25  45  69 105 143 189 245 300 378 443
#     4  11  25  43  67 100 140 185 235 299 363 440
#     4  11  24  45  70 105 145 186 248 306 374 449
#     4  12  24  44  68  99 139 187 238 298 368 440
#     4  12  25  43  72 101 141 187 239 304 373 443
#     4  12  28  44  72 106 152 192 244 312 368 454
#     4  10  24  46  68 100 140 182 240 300 362 444
#     4  12  24  48  64 106 136 180 244 296 374 444
#
# _framework density 21.197846999999999
#
# number of rings (size 3 to 8) (size 9 to 14) (size 15 to 20)
#    0.000    0.667    5.000    3.000    4.667    0.000 
#    6.000    0.000    1.833    0.000    0.000    0.000 
#    0.000    0.000    0.000    0.000    0.000    0.000 
#
# Total GULP energy -267311.401425 kJ/mol
# GULP energy per Si atom -5568.987530 kJ/mol
# Density = 2.114960 g / cm^3
# Si number density = 21.197847 Si / 1000 Ang^3
#
#
#
# Elastic Constant Matrix: (Units=GPa)
#
#
# Indices 1 2 3 4 5 6 
#
# 1 59.8669 -9.9404 14.0059 0.0000 0.0000 0.0000
# 2 -9.9404 59.8669 14.0059 0.0000 0.0000 0.0000
# 3 14.0059 14.0059 103.7258 0.0000 0.0000 0.0000
# 4 0.0000 0.0000 0.0000 15.1793 0.0000 0.0000
# 5 0.0000 0.0000 0.0000 0.0000 15.1793 0.0000
# 6 0.0000 0.0000 0.0000 0.0000 0.0000 33.8238
#
#
#
# Elastic Compliance Matrix: (Units=1/GPa)
#
#
# Indices 1 2 3 4 5 6 
#
# 1 0.017998 0.003673 -0.002926 0.000000 0.000000 0.000000
# 2 0.003673 0.017998 -0.002926 0.000000 0.000000 0.000000
# 3 -0.002926 -0.002926 0.010431 0.000000 0.000000 0.000000
# 4 0.000000 0.000000 0.000000 0.065879 0.000000 0.000000
# 5 0.000000 0.000000 0.000000 0.000000 0.065879 0.000000
# 6 0.000000 0.000000 0.000000 0.000000 0.000000 0.029565
#
#
# Mechanical properties :
#
#
# Convention : Reuss Voigt Hill
#
# Bulk Modulus (GPa) = 23.77072 28.84472 26.30772
# Shear Modulus (GPa) = 22.11097 26.52905 24.32001
#
# Velocity S-wave (km/s) = 3.23317 3.54149 3.39084
# Velocity P-wave (km/s) = 5.01757 5.50997 5.26952
#
# Compressibility (1/GPa) = 0.04206857
#
# Stress axis : x y z
#
# Youngs Moduli (GPa) = 55.56118 55.56118 95.86762
#
# Poissons Ratio (x) = -0.20408 0.28053
# Poissons Ratio (y) = -0.20408 0.28053
# Poissons Ratio (z) = 0.16258 0.16258
#
# Static dielectric constant tensor:
#      x y z
#    x 1.808780 0.000000 0.000000 
#    y 0.000000 1.808780 0.000000 
#    z 0.000000 0.000000 1.759300 
# 
# From -- ./inp_files/7374.got.cif
#   From: 2010.05.17/outbox.cif.g08.bks.cpg/sg122_4_cif.got.tgz:7374.got - 2010.05.20 11:37:33.
