data_PCOD9561333
_publ_section_title
;
Structure prediction by ZEFSAII (Michael W. Deem and Ramdas Pophale) SiO2 
 PCOD9561333
Probable space group: I -4 2 D
;
_chemical_formula_sum "Si O2"
_cell_formula_units_Z 64
_cell_length_a 10.965036
_cell_length_b 10.965036
_cell_length_c 25.917268
_cell_angle_alpha 90.000000
_cell_angle_beta 90.000000
_cell_angle_gamma 90.000000
_cell_volume 3116.085341
_symmetry_space_group_name_H-M "I -4 2 D"
_symmetry_group_IT_number 122
_symmetry_cell_setting 'tetragonal'
loop_
_space_group_symop_operation_xyz
x,y,z
y,-x,-z
-x,-y,z
-y,x,-z
x,1/2-y,1/4-z
-x,1/2+y,1/4-z
-y,1/2-x,1/4+z
y,1/2+x,1/4+z
1/2+x,1/2+y,1/2+z
1/2+y,1/2-x,1/2-z
1/2-x,1/2-y,1/2+z
1/2-y,1/2+x,1/2-z
1/2+x,-y,3/4-z
1/2-x,y,3/4-z
1/2-y,-x,3/4+z
1/2+y,x,3/4+z
loop_
_atom_site_type_symbol
_atom_site_label
_atom_site_fract_x
_atom_site_fract_y
_atom_site_fract_z
Si Si1 0.584135 0.828778 0.352101
Si Si2 0.211884 0.717614 0.016082
Si Si3 0.037390 0.145048 0.275816
Si Si4 0.671143 0.399610 0.923401
O O1 0.671010 0.731447 0.324537
O O2 0.552970 0.832118 0.412596
O O3 0.453705 0.826522 0.324977
O O4 0.641679 0.959893 0.338189
O O5 0.296759 0.835593 0.006024
O O6 0.261436 0.615235 0.976836
O O7 0.071106 0.723966 0.999796
O O8 0.000000 0.000000 0.268879
O O9 0.750000 0.354434 0.875000
#
# Coordination Sequence:
#
# PCOD9561333 Si02
#       4
#    16  16  16  16
#     4  11  21  38  69  98 132 172 229 295 356 410
#     4  12  25  40  70 100 137 187 233 285 360 429
#     4  12  24  46  69  99 144 182 234 299 356 422
#     4  11  19  37  63  99 131 164 218 294 354 402
#
# _framework density 20.538589999999999
#
# number of rings (size 3 to 8) (size 9 to 14) (size 15 to 20)
#    0.000    0.500    5.000    6.750    0.000    2.500 
#    0.000    2.500    5.500    0.000    0.000    0.000 
#    0.000    0.000    0.000    0.000    0.000    0.000 
#
# Total GULP energy -178529.449059 kJ/mol
# GULP energy per Si atom -5579.045283 kJ/mol
# Density = 2.049184 g / cm^3
# Si number density = 20.538590 Si / 1000 Ang^3
#
#
#
# Elastic Constant Matrix: (Units=GPa)
#
#
# Indices 1 2 3 4 5 6 
#
# 1 114.6940 41.9517 41.3951 0.0000 0.0000 0.0000
# 2 41.9517 114.6940 41.3951 0.0000 0.0000 0.0000
# 3 41.3951 41.3951 95.9257 0.0000 0.0000 0.0000
# 4 0.0000 0.0000 0.0000 23.1013 0.0000 0.0000
# 5 0.0000 0.0000 0.0000 0.0000 23.1013 0.0000
# 6 0.0000 0.0000 0.0000 0.0000 0.0000 20.6322
#
#
#
# Elastic Compliance Matrix: (Units=1/GPa)
#
#
# Indices 1 2 3 4 5 6 
#
# 1 0.011009 -0.002739 -0.003569 0.000000 0.000000 0.000000
# 2 -0.002739 0.011009 -0.003569 0.000000 0.000000 0.000000
# 3 -0.003569 -0.003569 0.013505 0.000000 0.000000 0.000000
# 4 0.000000 0.000000 0.000000 0.043288 0.000000 0.000000
# 5 0.000000 0.000000 0.000000 0.000000 0.043288 0.000000
# 6 0.000000 0.000000 0.000000 0.000000 0.000000 0.048468
#
#
# Mechanical properties :
#
#
# Convention : Reuss Voigt Hill
#
# Bulk Modulus (GPa) = 63.41267 63.86637 63.63952
# Shear Modulus (GPa) = 25.56575 26.73839 26.15207
#
# Velocity S-wave (km/s) = 3.53195 3.61205 3.57222
# Velocity P-wave (km/s) = 6.89745 6.96844 6.93304
#
# Compressibility (1/GPa) = 0.01576972
#
# Stress axis : x y z
#
# Youngs Moduli (GPa) = 90.83823 90.83823 74.04764
#
# Poissons Ratio (x) = 0.24877 0.26426
# Poissons Ratio (y) = 0.24877 0.26426
# Poissons Ratio (z) = 0.32418 0.32418
#
# Static dielectric constant tensor:
#      x y z
#    x 1.780600 0.000000 0.000000 
#    y 0.000000 1.780600 0.000000 
#    z 0.000000 0.000000 1.759120 
# 
# From -- ./inp_files/7847.got.cif
#   From: 2010.05.17/outbox.cif.g08.bks.cpg/sg122_4_cif.got.tgz:7847.got - 2010.05.20 11:37:33.
