data_PCOD9561178
_publ_section_title
;
Structure prediction by ZEFSAII (Michael W. Deem and Ramdas Pophale) SiO2 
 PCOD9561178
Probable space group: I -4 2 D
;
_chemical_formula_sum "Si O2"
_cell_formula_units_Z 72
_cell_length_a 11.313774
_cell_length_b 11.313774
_cell_length_c 25.478772
_cell_angle_alpha 90.000000
_cell_angle_beta 90.000000
_cell_angle_gamma 90.000000
_cell_volume 3261.320579
_symmetry_space_group_name_H-M "I -4 2 D"
_symmetry_group_IT_number 122
_symmetry_cell_setting 'tetragonal'
loop_
_space_group_symop_operation_xyz
x,y,z
y,-x,-z
-x,-y,z
-y,x,-z
x,1/2-y,1/4-z
-x,1/2+y,1/4-z
-y,1/2-x,1/4+z
y,1/2+x,1/4+z
1/2+x,1/2+y,1/2+z
1/2+y,1/2-x,1/2-z
1/2-x,1/2-y,1/2+z
1/2-y,1/2+x,1/2-z
1/2+x,-y,3/4-z
1/2-x,y,3/4-z
1/2-y,-x,3/4+z
1/2+y,x,3/4+z
loop_
_atom_site_type_symbol
_atom_site_label
_atom_site_fract_x
_atom_site_fract_y
_atom_site_fract_z
Si Si1 0.501600 0.825394 0.277109
Si Si2 0.250000 0.738153 0.875000
Si Si3 0.866638 0.977108 0.650891
Si Si4 0.909740 0.090948 0.807125
Si Si5 0.481868 0.304744 0.489167
O O1 0.609727 0.885294 0.246354
O O2 0.510886 0.857873 0.339088
O O3 0.483668 0.685282 0.272626
O O4 0.162883 0.656226 0.907671
O O5 0.161372 0.823859 0.845307
O O6 0.758255 0.035403 0.682787
O O7 0.000000 0.000000 0.668986
O O8 0.808657 0.020885 0.776689
O O9 0.000000 0.000000 0.832964
O O10 0.378472 0.396649 0.505053
#
# Coordination Sequence:
#
# PCOD9561178 Si02
#       5
#    16   8  16  16  16
#     4  10  22  45  72 108 149 180 244 326 376 442
#     4  10  24  46  68 104 152 186 254 328 356 456
#     4  11  22  44  75 108 138 201 244 304 396 440
#     4  11  25  41  73 102 144 196 249 302 379 445
#     4  11  25  45  69 102 152 197 252 305 362 455
#
# _framework density 22.076948000000002
#
# number of rings (size 3 to 8) (size 9 to 14) (size 15 to 20)
#    0.000    1.333    4.444    0.667    3.111    7.111 
#    0.000    0.000    0.000    0.000    0.000    0.000 
#    0.000    0.000    0.000    0.000    0.000    0.000 
#
# Total GULP energy -200972.334899 kJ/mol
# GULP energy per Si atom -5582.564858 kJ/mol
# Density = 2.202670 g / cm^3
# Si number density = 22.076948 Si / 1000 Ang^3
#
#
#
# Elastic Constant Matrix: (Units=GPa)
#
#
# Indices 1 2 3 4 5 6 
#
# 1 120.9700 68.2176 33.5892 0.0000 0.0000 0.0000
# 2 68.2176 120.9700 33.5892 0.0000 0.0000 0.0000
# 3 33.5892 33.5892 96.2959 0.0000 0.0000 0.0000
# 4 0.0000 0.0000 0.0000 33.6172 0.0000 0.0000
# 5 0.0000 0.0000 0.0000 0.0000 33.6172 0.0000
# 6 0.0000 0.0000 0.0000 0.0000 0.0000 47.4210
#
#
#
# Elastic Compliance Matrix: (Units=1/GPa)
#
#
# Indices 1 2 3 4 5 6 
#
# 1 0.012495 -0.006462 -0.002104 0.000000 0.000000 0.000000
# 2 -0.006462 0.012495 -0.002104 0.000000 0.000000 0.000000
# 3 -0.002104 -0.002104 0.011853 0.000000 0.000000 0.000000
# 4 0.000000 0.000000 0.000000 0.029747 0.000000 0.000000
# 5 0.000000 0.000000 0.000000 0.000000 0.029747 0.000000
# 6 0.000000 0.000000 0.000000 0.000000 0.000000 0.021088
#
#
# Mechanical properties :
#
#
# Convention : Reuss Voigt Hill
#
# Bulk Modulus (GPa) = 64.51117 67.66976 66.09047
# Shear Modulus (GPa) = 34.73879 36.45375 35.59627
#
# Velocity S-wave (km/s) = 3.97108 4.06792 4.01979
# Velocity P-wave (km/s) = 7.09299 7.26514 7.17958
#
# Compressibility (1/GPa) = 0.01550119
#
# Stress axis : x y z
#
# Youngs Moduli (GPa) = 80.03364 80.03364 84.36880
#
# Poissons Ratio (x) = 0.51716 0.17754
# Poissons Ratio (y) = 0.51716 0.17754
# Poissons Ratio (z) = 0.16842 0.16842
#
# Static dielectric constant tensor:
#      x y z
#    x 1.836220 0.000000 0.000000 
#    y 0.000000 1.836220 0.000000 
#    z 0.000000 0.000000 1.917700 
# 
# From -- ./inp_files/8588.got.cif
#   From: 2010.05.17/outbox.cif.g08.bks.cpg/sg122_5_cif.got.tgz:8588.got - 2010.05.20 11:37:33.
