data_PCOD9561365
_publ_section_title
;
Structure prediction by ZEFSAII (Michael W. Deem and Ramdas Pophale) SiO2 
 PCOD9561365
Probable space group: I -4 2 D
;
_chemical_formula_sum "Si O2"
_cell_formula_units_Z 64
_cell_length_a 11.500937
_cell_length_b 11.500937
_cell_length_c 21.861911
_cell_angle_alpha 90.000000
_cell_angle_beta 90.000000
_cell_angle_gamma 90.000000
_cell_volume 2891.708895
_symmetry_space_group_name_H-M "I -4 2 D"
_symmetry_group_IT_number 122
_symmetry_cell_setting 'tetragonal'
loop_
_space_group_symop_operation_xyz
x,y,z
y,-x,-z
-x,-y,z
-y,x,-z
x,1/2-y,1/4-z
-x,1/2+y,1/4-z
-y,1/2-x,1/4+z
y,1/2+x,1/4+z
1/2+x,1/2+y,1/2+z
1/2+y,1/2-x,1/2-z
1/2-x,1/2-y,1/2+z
1/2-y,1/2+x,1/2-z
1/2+x,-y,3/4-z
1/2-x,y,3/4-z
1/2-y,-x,3/4+z
1/2+y,x,3/4+z
loop_
_atom_site_type_symbol
_atom_site_label
_atom_site_fract_x
_atom_site_fract_y
_atom_site_fract_z
Si Si1 0.841616 0.791350 0.720903
Si Si2 0.573126 0.381339 0.904995
Si Si3 0.944459 0.630481 0.405248
Si Si4 0.378081 0.359455 0.480132
O O1 0.873306 0.861219 0.660238
O O2 0.894415 0.664954 0.710232
O O3 0.878946 0.862037 0.780517
O O4 0.703873 0.774505 0.731849
O O5 0.500000 0.500000 0.903949
O O6 0.517849 0.251607 0.908561
O O7 0.871546 0.646767 0.342839
O O8 0.000000 0.500000 0.399540
O O9 0.344140 0.488012 0.502520
#
# Coordination Sequence:
#
# PCOD9561365 Si02
#       4
#    16  16  16  16
#     4  11  26  44  75 102 144 204 249 314 385 470
#     4  11  27  50  70 103 151 201 256 313 384 465
#     4  12  25  44  76 111 145 196 254 324 385 461
#     4  11  21  45  70 110 150 184 245 322 387 457
#
# _framework density 22.132242999999999
#
# number of rings (size 3 to 8) (size 9 to 14) (size 15 to 20)
#    0.000    0.750    5.000    1.500    7.000    2.000 
#    4.500    0.000    0.000    0.000    0.000    0.000 
#    0.000    0.000    0.000    0.000    0.000    0.000 
#
# Total GULP energy -178527.444237 kJ/mol
# GULP energy per Si atom -5578.982632 kJ/mol
# Density = 2.208187 g / cm^3
# Si number density = 22.132243 Si / 1000 Ang^3
#
#
#
# Elastic Constant Matrix: (Units=GPa)
#
#
# Indices 1 2 3 4 5 6 
#
# 1 104.3744 63.5802 39.6865 0.0000 0.0000 0.0000
# 2 63.5802 104.3744 39.6865 0.0000 0.0000 0.0000
# 3 39.6865 39.6865 120.1995 0.0000 0.0000 0.0000
# 4 0.0000 0.0000 0.0000 38.8874 0.0000 0.0000
# 5 0.0000 0.0000 0.0000 0.0000 38.8874 0.0000
# 6 0.0000 0.0000 0.0000 0.0000 0.0000 19.4282
#
#
#
# Elastic Compliance Matrix: (Units=1/GPa)
#
#
# Indices 1 2 3 4 5 6 
#
# 1 0.015784 -0.008729 -0.002329 0.000000 0.000000 0.000000
# 2 -0.008729 0.015784 -0.002329 0.000000 0.000000 0.000000
# 3 -0.002329 -0.002329 0.009858 0.000000 0.000000 0.000000
# 4 0.000000 0.000000 0.000000 0.025715 0.000000 0.000000
# 5 0.000000 0.000000 0.000000 0.000000 0.025715 0.000000
# 6 0.000000 0.000000 0.000000 0.000000 0.000000 0.051472
#
#
# Mechanical properties :
#
#
# Convention : Reuss Voigt Hill
#
# Bulk Modulus (GPa) = 68.25922 68.31718 68.28820
# Shear Modulus (GPa) = 28.41121 31.84026 30.12573
#
# Velocity S-wave (km/s) = 3.58677 3.79705 3.69341
# Velocity P-wave (km/s) = 6.93265 7.08224 7.00785
#
# Compressibility (1/GPa) = 0.01465004
#
# Stress axis : x y z
#
# Youngs Moduli (GPa) = 63.35519 63.35519 101.44425
#
# Poissons Ratio (x) = 0.55304 0.23629
# Poissons Ratio (y) = 0.55304 0.23629
# Poissons Ratio (z) = 0.14757 0.14757
#
# Static dielectric constant tensor:
#      x y z
#    x 1.867290 0.000000 0.000000 
#    y 0.000000 1.867290 0.000000 
#    z 0.000000 0.000000 1.779180 
# 
# From -- ./inp_files/6903.got.cif
#   From: 2010.05.17/outbox.cif.g08.bks.cpg/sg122_4_cif.got.tgz:6903.got - 2010.05.20 11:37:33.
