data_PCOD9561825
_publ_section_title
;
Structure prediction by ZEFSAII (Michael W. Deem and Ramdas Pophale) SiO2 
 PCOD9561825
Probable space group: P 4/M M M
;
_chemical_formula_sum "Si O2"
_cell_formula_units_Z 96
_cell_length_a 25.031076
_cell_length_b 25.031076
_cell_length_c 7.424022
_cell_angle_alpha 90.000000
_cell_angle_beta 90.000000
_cell_angle_gamma 90.000000
_cell_volume 4651.556365
_symmetry_space_group_name_H-M "P 4/M M M"
_symmetry_group_IT_number 123
_symmetry_cell_setting 'tetragonal'
loop_
_space_group_symop_operation_xyz
x,y,z
-y,x,z
-x,-y,z
y,-x,z
x,-y,-z
-x,y,-z
y,x,-z
-y,-x,-z
-x,-y,-z
y,-x,-z
x,y,-z
-y,x,-z
-x,y,z
x,-y,z
-y,-x,z
y,x,z
loop_
_atom_site_type_symbol
_atom_site_label
_atom_site_fract_x
_atom_site_fract_y
_atom_site_fract_z
Si Si1 0.938879 0.438796 0.280294
Si Si2 0.355172 0.560225 0.217380
Si Si3 0.147468 0.767619 0.782473
Si Si4 0.145231 0.060603 0.219538
Si Si5 0.351900 0.267734 0.287141
Si Si6 0.149699 0.355946 0.289633
O O1 0.939571 0.437716 0.500000
O O2 0.925219 0.500000 0.228674
O O3 0.896398 0.394691 0.216094
O O4 0.000000 0.427790 0.222914
O O5 0.352384 0.500000 0.284113
O O6 0.407371 0.592629 0.279190
O O7 0.304654 0.596279 0.267585
O O8 0.356916 0.558679 0.000000
O O9 0.202274 0.797727 0.723604
O O10 0.098660 0.805801 0.725882
O O11 0.138807 0.707299 0.721501
O O12 0.148629 0.766886 0.000000
O O13 0.091194 0.091194 0.273344
O O14 0.148975 0.000000 0.282302
O O15 0.145848 0.059775 0.000000
O O16 0.341360 0.261066 0.500000
O O17 0.301958 0.301958 0.212067
O O18 0.361372 0.209138 0.209710
O O19 0.153321 0.370812 0.500000
#
# Coordination Sequence:
#
# PCOD9561825 Si02
#       6
#    16  16  16  16  16  16
#     4   8  15  29  47  67  93 121 147 181 227 274
#     4   9  18  32  49  69  93 121 152 185 221 262
#     4   9  18  31  45  64  94 128 154 180 224 278
#     4   8  14  25  41  62  89 121 157 195 232 270
#     4   9  18  31  45  64  92 121 148 185 231 270
#     4  10  19  30  49  74  92 113 152 193 224 263
#
# _framework density 20.638254
#
# number of rings (size 3 to 8) (size 9 to 14) (size 15 to 20)
#    0.000    3.167    0.000    2.000    0.000    3.667 
#    0.000    5.000    0.000    0.500    0.000    3.500 
#    0.000    0.000    0.000    3.667    0.000    3.667 
#
# Total GULP energy -535459.563982 kJ/mol
# GULP energy per Si atom -5577.703791 kJ/mol
# Density = 2.059128 g / cm^3
# Si number density = 20.638254 Si / 1000 Ang^3
#
#
#
# Elastic Constant Matrix: (Units=GPa)
#
#
# Indices 1 2 3 4 5 6 
#
# 1 181.8618 120.2101 -0.3900 0.0000 0.0000 0.0000
# 2 120.2101 181.8618 -0.3900 0.0000 0.0000 0.0000
# 3 -0.3900 -0.3900 65.8021 0.0000 0.0000 0.0000
# 4 0.0000 0.0000 0.0000 13.9075 0.0000 0.0000
# 5 0.0000 0.0000 0.0000 0.0000 13.9075 0.0000
# 6 0.0000 0.0000 0.0000 0.0000 0.0000 24.0711
#
#
#
# Elastic Compliance Matrix: (Units=1/GPa)
#
#
# Indices 1 2 3 4 5 6 
#
# 1 0.009765 -0.006455 0.000020 0.000000 0.000000 0.000000
# 2 -0.006455 0.009765 0.000020 0.000000 0.000000 0.000000
# 3 0.000020 0.000020 0.015197 0.000000 0.000000 0.000000
# 4 0.000000 0.000000 0.000000 0.071904 0.000000 0.000000
# 5 0.000000 0.000000 0.000000 0.000000 0.071904 0.000000
# 6 0.000000 0.000000 0.000000 0.000000 0.000000 0.041544
#
#
# Mechanical properties :
#
#
# Convention : Reuss Voigt Hill
#
# Bulk Modulus (GPa) = 45.66873 74.26512 59.96693
# Shear Modulus (GPa) = 20.81518 31.05025 25.93272
#
# Velocity S-wave (km/s) = 3.17925 3.88300 3.54861
# Velocity P-wave (km/s) = 5.97102 7.49439 6.77565
#
# Compressibility (1/GPa) = 0.02189682
#
# Stress axis : x y z
#
# Youngs Moduli (GPa) = 102.40304 102.40304 65.80114
#
# Poissons Ratio (x) = 0.66099 -0.00129
# Poissons Ratio (y) = 0.66099 -0.00129
# Poissons Ratio (z) = -0.00201 -0.00201
#
# Static dielectric constant tensor:
#      x y z
#    x 1.718870 0.000000 0.000000 
#    y 0.000000 1.718870 0.000000 
#    z 0.000000 0.000000 1.795670 
# 
# From -- ./inp_files/1621.got.cif
#   From: 2010.05.17/outbox.cif.g08.bks.cpg/sg123_1_cif.got.tgz:1621.got - 2010.05.20 11:43:04.
