data_PCOD9561508
_publ_section_title
;
Structure prediction by ZEFSAII (Michael W. Deem and Ramdas Pophale) SiO2 
 PCOD9561508
Probable space group: I -4 2 D
;
_chemical_formula_sum "Si O2"
_cell_formula_units_Z 20
_cell_length_a 7.138040
_cell_length_b 7.138040
_cell_length_c 14.193632
_cell_angle_alpha 90.000000
_cell_angle_beta 90.000000
_cell_angle_gamma 90.000000
_cell_volume 723.188474
_symmetry_space_group_name_H-M "I -4 2 D"
_symmetry_group_IT_number 122
_symmetry_cell_setting 'tetragonal'
loop_
_space_group_symop_operation_xyz
x,y,z
y,-x,-z
-x,-y,z
-y,x,-z
x,1/2-y,1/4-z
-x,1/2+y,1/4-z
-y,1/2-x,1/4+z
y,1/2+x,1/4+z
1/2+x,1/2+y,1/2+z
1/2+y,1/2-x,1/2-z
1/2-x,1/2-y,1/2+z
1/2-y,1/2+x,1/2-z
1/2+x,-y,3/4-z
1/2-x,y,3/4-z
1/2-y,-x,3/4+z
1/2+y,x,3/4+z
loop_
_atom_site_type_symbol
_atom_site_label
_atom_site_fract_x
_atom_site_fract_y
_atom_site_fract_z
Si Si1 0.232860 0.203700 0.516837
Si Si2 0.500000 0.500000 0.500000
O O1 0.283646 0.250000 0.625000
O O2 0.377078 0.329439 0.457356
O O3 0.015143 0.254342 0.504541
#
# Coordination Sequence:
#
# PCOD9561508 Si02
#       2
#    16   4
#     4  11  29  50  81 114 164 207 268 334 399 473
#     4  12  28  44  84 112 152 212 266 320 404 480
#
# _framework density 27.65531
#
# number of rings (size 3 to 8) (size 9 to 14) (size 15 to 20)
#    0.000    0.800    0.000    2.400   33.600    0.000 
#    0.000    0.000    0.000    0.000    0.000    0.000 
#    0.000    0.000    0.000    0.000    0.000    0.000 
#
# Total GULP energy -55990.649703 kJ/mol
# GULP energy per Si atom -5599.064970 kJ/mol
# Density = 2.759237 g / cm^3
# Si number density = 27.655310 Si / 1000 Ang^3
#
#
#
# Elastic Constant Matrix: (Units=GPa)
#
#
# Indices 1 2 3 4 5 6 
#
# 1 218.9789 118.3611 2.0630 0.0000 0.0000 0.0000
# 2 118.3611 218.9789 2.0630 0.0000 0.0000 0.0000
# 3 2.0630 2.0630 122.1192 0.0000 0.0000 0.0000
# 4 0.0000 0.0000 0.0000 29.7808 0.0000 0.0000
# 5 0.0000 0.0000 0.0000 0.0000 29.7808 0.0000
# 6 0.0000 0.0000 0.0000 0.0000 0.0000 78.6855
#
#
#
# Elastic Compliance Matrix: (Units=1/GPa)
#
#
# Indices 1 2 3 4 5 6 
#
# 1 0.006452 -0.003487 -0.000050 0.000000 0.000000 0.000000
# 2 -0.003487 0.006452 -0.000050 0.000000 0.000000 0.000000
# 3 -0.000050 -0.000050 0.008190 0.000000 0.000000 0.000000
# 4 0.000000 0.000000 0.000000 0.033579 0.000000 0.000000
# 5 0.000000 0.000000 0.000000 0.000000 0.033579 0.000000
# 6 0.000000 0.000000 0.000000 0.000000 0.000000 0.012709
#
#
# Mechanical properties :
#
#
# Convention : Reuss Voigt Hill
#
# Bulk Modulus (GPa) = 71.83901 89.45017 80.64459
# Shear Modulus (GPa) = 44.33640 56.82208 50.57924
#
# Velocity S-wave (km/s) = 4.00832 4.53775 4.28122
# Velocity P-wave (km/s) = 6.88876 7.73755 7.32546
#
# Compressibility (1/GPa) = 0.01392001
#
# Stress axis : x y z
#
# Youngs Moduli (GPa) = 154.99575 154.99575 122.09400
#
# Poissons Ratio (x) = 0.54044 0.00612
# Poissons Ratio (y) = 0.54044 0.00612
# Poissons Ratio (z) = 0.00776 0.00776
#
# Static dielectric constant tensor:
#      x y z
#    x 2.067410 0.000000 0.000000 
#    y 0.000000 2.067410 0.000000 
#    z 0.000000 0.000000 2.225830 
# 
# From -- ./inp_files/4660.got.cif
#   From: 2010.05.17/outbox.cif.g08.bks.cpg/sg122_3_cif.got.tgz:4660.got - 2010.05.20 11:37:33.
