data_PCOD9561593
_publ_section_title
;
Structure prediction by ZEFSAII (Michael W. Deem and Ramdas Pophale) SiO2 
 PCOD9561593
Probable space group: P 4/M M M
;
_chemical_formula_sum "Si O2"
_cell_formula_units_Z 84
_cell_length_a 20.988892
_cell_length_b 20.988892
_cell_length_c 11.927487
_cell_angle_alpha 90.000000
_cell_angle_beta 90.000000
_cell_angle_gamma 90.000000
_cell_volume 5254.458637
_symmetry_space_group_name_H-M "P 4/M M M"
_symmetry_group_IT_number 123
_symmetry_cell_setting 'tetragonal'
loop_
_space_group_symop_operation_xyz
x,y,z
-y,x,z
-x,-y,z
y,-x,z
x,-y,-z
-x,y,-z
y,x,-z
-y,-x,-z
-x,-y,-z
y,-x,-z
x,y,-z
-y,x,-z
-x,y,z
x,-y,z
-y,-x,z
y,x,z
loop_
_atom_site_type_symbol
_atom_site_label
_atom_site_fract_x
_atom_site_fract_y
_atom_site_fract_z
Si Si1 0.500000 0.127220 0.000000
Si Si2 0.500000 0.897625 0.252273
Si Si3 0.174206 0.276299 0.000000
Si Si4 0.500000 0.763354 0.629015
Si Si5 0.610488 0.286965 0.761872
Si Si6 0.634769 0.927257 0.368957
Si Si7 0.176113 0.282668 0.752419
Si Si8 0.406112 0.243471 0.000000
O O1 0.500000 0.091633 0.118569
O O2 0.560138 0.174974 0.000000
O O3 0.500000 0.822989 0.285581
O O4 0.566959 0.921111 0.304247
O O5 0.144298 0.281797 0.877082
O O6 0.208984 0.208984 0.000000
O O7 0.228612 0.330930 0.000000
O O8 0.500000 0.784088 0.500000
O O9 0.438324 0.723372 0.661990
O O10 0.647256 0.352745 0.756567
O O11 0.662983 0.230689 0.753644
O O12 0.578850 0.278621 0.884415
O O13 0.621079 0.915764 0.500000
O O14 0.688757 0.877459 0.329183
O O15 0.657099 0.000000 0.355025
O O16 0.216389 0.216389 0.732158
#
# Coordination Sequence:
#
# PCOD9561593 Si02
#       8
#     4   8   8   8  16  16  16   8
#     4  12  20  30  55  76  96 125 162 210 256 296
#     4  12  21  37  51  71 100 134 173 206 245 293
#     4   8  14  26  46  69  95 123 151 192 254 305
#     4  12  22  33  49  68  98 130 159 199 244 294
#     4  10  19  31  50  74  95 121 159 204 255 304
#     4  11  23  37  51  69 101 145 182 206 240 296
#     4   9  17  31  51  75  99 125 163 213 258 294
#     4  10  14  28  44  70  97 120 147 196 255 299
#
# _framework density 15.986425000000001
#
# number of rings (size 3 to 8) (size 9 to 14) (size 15 to 20)
#    0.000    1.714    3.810    4.286    0.000    1.524 
#    0.000    4.286    0.000    0.286    0.000    0.667 
#    0.000    2.667    0.000    2.095    0.000    5.333 
#
# Total GULP energy -467622.648808 kJ/mol
# GULP energy per Si atom -5566.936295 kJ/mol
# Density = 1.595004 g / cm^3
# Si number density = 15.986425 Si / 1000 Ang^3
#
#
#
# Elastic Constant Matrix: (Units=GPa)
#
#
# Indices 1 2 3 4 5 6 
#
# 1 57.3090 29.1720 32.8831 0.0000 0.0000 0.0000
# 2 29.1720 57.3090 32.8831 0.0000 0.0000 0.0000
# 3 32.8831 32.8831 110.1632 0.0000 0.0000 0.0000
# 4 0.0000 0.0000 0.0000 74.8390 0.0000 0.0000
# 5 0.0000 0.0000 0.0000 0.0000 74.8390 0.0000
# 6 0.0000 0.0000 0.0000 0.0000 0.0000 -14.3173
#
#
#
# Elastic Compliance Matrix: (Units=1/GPa)
#
#
# Indices 1 2 3 4 5 6 
#
# 1 0.025250 -0.010291 -0.004465 0.000000 0.000000 0.000000
# 2 -0.010291 0.025250 -0.004465 0.000000 0.000000 0.000000
# 3 -0.004465 -0.004465 0.011743 0.000000 0.000000 0.000000
# 4 0.000000 0.000000 0.000000 0.013362 0.000000 0.000000
# 5 0.000000 0.000000 0.000000 0.000000 0.013362 0.000000
# 6 0.000000 0.000000 0.000000 0.000000 0.000000 -0.069846
#
#
# Mechanical properties :
#
#
# Convention : Reuss Voigt Hill
#
# Bulk Modulus (GPa) = 42.01643 46.07308 44.04476
# Shear Modulus (GPa) = 76.34048 35.72833 56.03440
#
# Velocity S-wave (km/s) = 6.91787 4.73262 5.92683
# Velocity P-wave (km/s) = 9.49468 7.66461 8.62830
#
# Compressibility (1/GPa) = 0.02380021
#
# Stress axis : x y z
#
# Youngs Moduli (GPa) = 39.60459 39.60459 85.15658
#
# Poissons Ratio (x) = 0.40756 0.38023
# Poissons Ratio (y) = 0.40756 0.38023
# Poissons Ratio (z) = 0.17684 0.17684
#
# Static dielectric constant tensor:
#      x y z
#    x 1.544500 0.000000 0.000000 
#    y 0.000000 1.544500 0.000000 
#    z 0.000000 0.000000 1.590100 
# 
# From -- ./inp_files/3121.got.cif
#   From: 2010.05.17/outbox.cif.g08.bks.cpg/sg123_2_cif.got.tgz:3121.got - 2010.05.20 11:43:04.
