data_PCOD9561726
_publ_section_title
;
Structure prediction by ZEFSAII (Michael W. Deem and Ramdas Pophale) SiO2 
 PCOD9561726
Probable space group: P 4/M M M
;
_chemical_formula_sum "Si O2"
_cell_formula_units_Z 88
_cell_length_a 13.729530
_cell_length_b 13.729530
_cell_length_c 29.208020
_cell_angle_alpha 90.000000
_cell_angle_beta 90.000000
_cell_angle_gamma 90.000000
_cell_volume 5505.711595
_symmetry_space_group_name_H-M "P 4/M M M"
_symmetry_group_IT_number 123
_symmetry_cell_setting 'tetragonal'
loop_
_space_group_symop_operation_xyz
x,y,z
-y,x,z
-x,-y,z
y,-x,z
x,-y,-z
-x,y,-z
y,x,-z
-y,-x,-z
-x,-y,-z
y,-x,-z
x,y,-z
-y,x,-z
-x,y,z
x,-y,z
-y,-x,z
y,x,z
loop_
_atom_site_type_symbol
_atom_site_label
_atom_site_fract_x
_atom_site_fract_y
_atom_site_fract_z
Si Si1 0.224011 0.616583 0.675073
Si Si2 0.611297 0.882171 0.500000
Si Si3 0.381628 0.112855 0.949190
Si Si4 0.276812 0.883343 0.593283
Si Si5 0.618040 0.889134 0.232067
Si Si6 0.227787 0.383009 0.141405
O O1 0.234994 0.500000 0.672575
O O2 0.325430 0.674571 0.671153
O O3 0.154274 0.655879 0.634799
O O4 0.173975 0.643248 0.723490
O O5 0.500000 0.845343 0.500000
O O6 0.669379 0.855773 0.454149
O O7 0.606178 0.000000 0.500000
O O8 0.500000 0.113548 0.949244
O O9 0.351979 0.176875 0.906047
O O10 0.352384 0.000000 0.943260
O O11 0.350217 0.145854 0.000000
O O12 0.175597 0.824404 0.595931
O O13 0.264532 0.000000 0.594932
O O14 0.500000 0.893419 0.231318
O O15 0.647023 0.838055 0.184735
O O16 0.654143 0.000000 0.235361
O O17 0.236210 0.500000 0.141714
O O18 0.331049 0.331049 0.145393
#
# Coordination Sequence:
#
# PCOD9561726 Si02
#       6
#    16   8  16  16  16  16
#     4  10  20  33  50  73 100 130 163 197 236 285
#     4   9  17  30  49  71  95 125 161 201 244 289
#     4   8  14  26  44  63  82 107 142 186 233 271
#     4  10  20  33  50  73 100 131 168 208 251 297
#     4   9  17  30  48  67  87 114 150 193 238 277
#     4  10  19  29  42  62  90 123 155 185 220 266
#
# _framework density 15.983402
#
# number of rings (size 3 to 8) (size 9 to 14) (size 15 to 20)
#    0.000    2.636    0.000    3.000    0.000    4.909 
#    0.000    0.000    0.000    4.909    0.000    2.545 
#    0.000   22.545    0.000    8.000    0.000    0.727 
#
# Total GULP energy -490224.176176 kJ/mol
# GULP energy per Si atom -5570.729275 kJ/mol
# Density = 1.594702 g / cm^3
# Si number density = 15.983402 Si / 1000 Ang^3
#
#
#
# Elastic Constant Matrix: (Units=GPa)
#
#
# Indices 1 2 3 4 5 6 
#
# 1 76.6355 45.7942 47.1300 0.0000 0.0000 0.0000
# 2 45.7942 76.6355 47.1300 0.0000 0.0000 0.0000
# 3 47.1300 47.1300 140.3865 0.0000 0.0000 0.0000
# 4 0.0000 0.0000 0.0000 16.2837 0.0000 0.0000
# 5 0.0000 0.0000 0.0000 0.0000 16.2837 0.0000
# 6 0.0000 0.0000 0.0000 0.0000 0.0000 6.8981
#
#
#
# Elastic Compliance Matrix: (Units=1/GPa)
#
#
# Indices 1 2 3 4 5 6 
#
# 1 0.021720 -0.010704 -0.003698 0.000000 0.000000 0.000000
# 2 -0.010704 0.021720 -0.003698 0.000000 0.000000 0.000000
# 3 -0.003698 -0.003698 0.009606 0.000000 0.000000 0.000000
# 4 0.000000 0.000000 0.000000 0.061411 0.000000 0.000000
# 5 0.000000 0.000000 0.000000 0.000000 0.061411 0.000000
# 6 0.000000 0.000000 0.000000 0.000000 0.000000 0.144966
#
#
# Mechanical properties :
#
#
# Convention : Reuss Voigt Hill
#
# Bulk Modulus (GPa) = 59.36670 63.75177 61.55923
# Shear Modulus (GPa) = 13.78742 18.13332 15.96037
#
# Velocity S-wave (km/s) = 2.94021 3.37190 3.16343
# Velocity P-wave (km/s) = 6.98210 7.42512 7.20702
#
# Compressibility (1/GPa) = 0.01684446
#
# Stress axis : x y z
#
# Youngs Moduli (GPa) = 46.04155 46.04155 104.10057
#
# Poissons Ratio (x) = 0.49285 0.38496
# Poissons Ratio (y) = 0.49285 0.38496
# Poissons Ratio (z) = 0.17026 0.17026
#
# Static dielectric constant tensor:
#      x y z
#    x 1.515330 0.000000 0.000000 
#    y 0.000000 1.515330 0.000000 
#    z 0.000000 0.000000 1.547940 
# 
# From -- ./inp_files/8498.got.cif
#   From: 2010.05.17/outbox.cif.g08.bks.cpg/sg123_5_cif.got.tgz:8498.got - 2010.05.20 11:43:04.
