data_PCOD9561361
_publ_section_title
;
Structure prediction by ZEFSAII (Michael W. Deem and Ramdas Pophale) SiO2 
 PCOD9561361
Probable space group: I -4 2 D
;
_chemical_formula_sum "Si O2"
_cell_formula_units_Z 64
_cell_length_a 15.132285
_cell_length_b 15.132285
_cell_length_c 13.364800
_cell_angle_alpha 90.000000
_cell_angle_beta 90.000000
_cell_angle_gamma 90.000000
_cell_volume 3060.352752
_symmetry_space_group_name_H-M "I -4 2 D"
_symmetry_group_IT_number 122
_symmetry_cell_setting 'tetragonal'
loop_
_space_group_symop_operation_xyz
x,y,z
y,-x,-z
-x,-y,z
-y,x,-z
x,1/2-y,1/4-z
-x,1/2+y,1/4-z
-y,1/2-x,1/4+z
y,1/2+x,1/4+z
1/2+x,1/2+y,1/2+z
1/2+y,1/2-x,1/2-z
1/2-x,1/2-y,1/2+z
1/2-y,1/2+x,1/2-z
1/2+x,-y,3/4-z
1/2-x,y,3/4-z
1/2-y,-x,3/4+z
1/2+y,x,3/4+z
loop_
_atom_site_type_symbol
_atom_site_label
_atom_site_fract_x
_atom_site_fract_y
_atom_site_fract_z
Si Si1 0.055464 0.119910 0.954685
Si Si2 0.851485 0.708028 0.906380
Si Si3 0.486561 0.604156 0.229959
Si Si4 0.134369 0.946545 0.474131
O O1 0.018905 0.118212 0.841796
O O2 0.112340 0.208106 0.967006
O O3 0.111449 0.030883 0.975070
O O4 0.750000 0.716532 0.875000
O O5 0.868842 0.615552 0.963724
O O6 0.905239 0.701604 0.802092
O O7 0.500000 0.500000 0.207557
O O8 0.542698 0.652226 0.143162
O O9 0.045448 0.888885 0.488995
#
# Coordination Sequence:
#
# PCOD9561361 Si02
#       4
#    16  16  16  16
#     4  11  26  49  68  98 145 205 243 282 377 450
#     4  11  26  42  71 115 142 176 252 318 357 439
#     4  11  21  42  74  98 138 191 235 295 371 445
#     4   9  17  37  66  99 132 177 223 288 377 418
#
# _framework density 20.912621999999999
#
# number of rings (size 3 to 8) (size 9 to 14) (size 15 to 20)
#    0.000    1.500    7.500    0.000    7.000    3.000 
#    0.000    2.500    0.000    0.000    0.000    0.000 
#    0.000    0.000    0.000    0.000    0.000    0.000 
#
# Total GULP energy -178763.942242 kJ/mol
# GULP energy per Si atom -5586.373195 kJ/mol
# Density = 2.086502 g / cm^3
# Si number density = 20.912622 Si / 1000 Ang^3
#
#
#
# Elastic Constant Matrix: (Units=GPa)
#
#
# Indices 1 2 3 4 5 6 
#
# 1 96.3362 79.8853 30.8269 0.0000 0.0000 0.0000
# 2 79.8853 96.3362 30.8269 0.0000 0.0000 0.0000
# 3 30.8269 30.8269 121.9168 0.0000 0.0000 0.0000
# 4 0.0000 0.0000 0.0000 24.8483 0.0000 0.0000
# 5 0.0000 0.0000 0.0000 0.0000 24.8483 0.0000
# 6 0.0000 0.0000 0.0000 0.0000 0.0000 16.2674
#
#
#
# Elastic Compliance Matrix: (Units=1/GPa)
#
#
# Indices 1 2 3 4 5 6 
#
# 1 0.033506 -0.027281 -0.001574 0.000000 0.000000 0.000000
# 2 -0.027281 0.033506 -0.001574 0.000000 0.000000 0.000000
# 3 -0.001574 -0.001574 0.008998 0.000000 0.000000 0.000000
# 4 0.000000 0.000000 0.000000 0.040244 0.000000 0.000000
# 5 0.000000 0.000000 0.000000 0.000000 0.040244 0.000000
# 6 0.000000 0.000000 0.000000 0.000000 0.000000 0.061473
#
#
# Mechanical properties :
#
#
# Convention : Reuss Voigt Hill
#
# Bulk Modulus (GPa) = 65.99472 66.40750 66.20111
# Shear Modulus (GPa) = 17.61305 24.72946 21.17125
#
# Velocity S-wave (km/s) = 2.90525 3.44250 3.18522
# Velocity P-wave (km/s) = 6.54827 6.90107 6.72698
#
# Compressibility (1/GPa) = 0.01515273
#
# Stress axis : x y z
#
# Youngs Moduli (GPa) = 29.84531 29.84531 111.13155
#
# Poissons Ratio (x) = 0.81420 0.17493
# Poissons Ratio (y) = 0.81420 0.17493
# Poissons Ratio (z) = 0.04698 0.04698
#
# Static dielectric constant tensor:
#      x y z
#    x 1.765600 0.000000 0.000000 
#    y 0.000000 1.765600 0.000000 
#    z 0.000000 0.000000 1.757920 
# 
# From -- ./inp_files/5141.got.cif
#   From: 2010.05.17/outbox.cif.g08.bks.cpg/sg122_3_cif.got.tgz:5141.got - 2010.05.20 11:37:33.
