data_PCOD9561831
_publ_section_title
;
Structure prediction by ZEFSAII (Michael W. Deem and Ramdas Pophale) SiO2 
 PCOD9561831
Probable space group: P 4/M M M
;
_chemical_formula_sum "Si O2"
_cell_formula_units_Z 88
_cell_length_a 19.536810
_cell_length_b 19.536810
_cell_length_c 15.412291
_cell_angle_alpha 90.000000
_cell_angle_beta 90.000000
_cell_angle_gamma 90.000000
_cell_volume 5882.670267
_symmetry_space_group_name_H-M "P 4/M M M"
_symmetry_group_IT_number 123
_symmetry_cell_setting 'tetragonal'
loop_
_space_group_symop_operation_xyz
x,y,z
-y,x,z
-x,-y,z
y,-x,z
x,-y,-z
-x,y,-z
y,x,-z
-y,-x,-z
-x,-y,-z
y,-x,-z
x,y,-z
-y,x,-z
-x,y,z
x,-y,z
-y,-x,z
y,x,z
loop_
_atom_site_type_symbol
_atom_site_label
_atom_site_fract_x
_atom_site_fract_y
_atom_site_fract_z
Si Si1 0.305318 0.419798 0.599980
Si Si2 0.081081 0.658888 0.325120
Si Si3 0.920939 0.808115 0.603179
Si Si4 0.917235 0.576997 0.500000
Si Si5 0.580647 0.802534 0.752636
Si Si6 0.308276 0.421019 0.897526
O O1 0.281536 0.410362 0.500000
O O2 0.324222 0.500000 0.610018
O O3 0.369656 0.369656 0.613335
O O4 0.246924 0.404779 0.670324
O O5 0.092639 0.738733 0.344413
O O6 0.099715 0.617820 0.413234
O O7 0.130609 0.627222 0.253658
O O8 0.000000 0.648917 0.308725
O O9 0.914765 0.792313 0.500000
O O10 0.868072 0.868072 0.623877
O O11 0.000000 0.828574 0.617703
O O12 0.888575 0.500000 0.500000
O O13 0.000000 0.572363 0.500000
O O14 0.500000 0.820955 0.748817
O O15 0.592786 0.757184 0.837906
O O16 0.328846 0.500000 0.881361
O O17 0.369215 0.369215 0.875553
O O18 0.293271 0.414283 0.000000
#
# Coordination Sequence:
#
# PCOD9561831 Si02
#       6
#    16  16  16   8  16  16
#     4   9  18  30  42  59  85 117 153 189 222 261
#     4  10  19  31  45  64  89 118 154 192 226 266
#     4   9  17  29  43  60  84 113 147 188 231 273
#     4   9  16  26  41  60  83 115 153 190 225 254
#     4  10  20  31  45  65  90 118 149 187 230 276
#     4   9  18  33  52  73  96 121 152 193 239 284
#
# _framework density 14.959194
#
# number of rings (size 3 to 8) (size 9 to 14) (size 15 to 20)
#    0.000    2.636    0.909    1.091    1.273    3.091 
#    0.000    4.545    0.000    3.818    0.000    2.545 
#    0.000    0.000    0.000    0.000    0.000    0.000 
#
# Total GULP energy -490602.893456 kJ/mol
# GULP energy per Si atom -5575.032880 kJ/mol
# Density = 1.492515 g / cm^3
# Si number density = 14.959194 Si / 1000 Ang^3
#
#
#
# Elastic Constant Matrix: (Units=GPa)
#
#
# Indices 1 2 3 4 5 6 
#
# 1 92.6315 76.2368 39.3000 0.0000 0.0000 0.0000
# 2 76.2368 92.6315 39.3000 0.0000 0.0000 0.0000
# 3 39.3000 39.3000 38.1963 0.0000 0.0000 0.0000
# 4 0.0000 0.0000 0.0000 18.0387 0.0000 0.0000
# 5 0.0000 0.0000 0.0000 0.0000 18.0387 0.0000
# 6 0.0000 0.0000 0.0000 0.0000 0.0000 26.6198
#
#
#
# Elastic Compliance Matrix: (Units=1/GPa)
#
#
# Indices 1 2 3 4 5 6 
#
# 1 0.036180 -0.024816 -0.011692 0.000000 0.000000 0.000000
# 2 -0.024816 0.036180 -0.011692 0.000000 0.000000 0.000000
# 3 -0.011692 -0.011692 0.050241 0.000000 0.000000 0.000000
# 4 0.000000 0.000000 0.000000 0.055436 0.000000 0.000000
# 5 0.000000 0.000000 0.000000 0.000000 0.055436 0.000000
# 6 0.000000 0.000000 0.000000 0.000000 0.000000 0.037566
#
#
# Mechanical properties :
#
#
# Convention : Reuss Voigt Hill
#
# Bulk Modulus (GPa) = 38.16867 59.23700 48.70283
# Shear Modulus (GPa) = 13.29177 17.11430 15.20303
#
# Velocity S-wave (km/s) = 2.98406 3.38607 3.19141
# Velocity P-wave (km/s) = 6.11910 7.41433 6.79764
#
# Compressibility (1/GPa) = 0.02619950
#
# Stress axis : x y z
#
# Youngs Moduli (GPa) = 27.63984 27.63984 19.90412
#
# Poissons Ratio (x) = 0.68590 0.23273
# Poissons Ratio (y) = 0.68590 0.23273
# Poissons Ratio (z) = 0.32317 0.32317
#
# Static dielectric constant tensor:
#      x y z
#    x 1.492680 0.000000 0.000000 
#    y 0.000000 1.492680 0.000000 
#    z 0.000000 0.000000 1.492930 
# 
# From -- ./inp_files/4119.got.cif
#   From: 2010.05.17/outbox.cif.g08.bks.cpg/sg123_3_cif.got.tgz:4119.got - 2010.05.20 11:43:04.
