data_PCOD9561206
_publ_section_title
;
Structure prediction by ZEFSAII (Michael W. Deem and Ramdas Pophale) SiO2 
 PCOD9561206
Probable space group: I -4 2 D
;
_chemical_formula_sum "Si O2"
_cell_formula_units_Z 48
_cell_length_a 15.932847
_cell_length_b 15.932847
_cell_length_c 9.334849
_cell_angle_alpha 90.000000
_cell_angle_beta 90.000000
_cell_angle_gamma 90.000000
_cell_volume 2369.703820
_symmetry_space_group_name_H-M "I -4 2 D"
_symmetry_group_IT_number 122
_symmetry_cell_setting 'tetragonal'
loop_
_space_group_symop_operation_xyz
x,y,z
y,-x,-z
-x,-y,z
-y,x,-z
x,1/2-y,1/4-z
-x,1/2+y,1/4-z
-y,1/2-x,1/4+z
y,1/2+x,1/4+z
1/2+x,1/2+y,1/2+z
1/2+y,1/2-x,1/2-z
1/2-x,1/2-y,1/2+z
1/2-y,1/2+x,1/2-z
1/2+x,-y,3/4-z
1/2-x,y,3/4-z
1/2-y,-x,3/4+z
1/2+y,x,3/4+z
loop_
_atom_site_type_symbol
_atom_site_label
_atom_site_fract_x
_atom_site_fract_y
_atom_site_fract_z
Si Si1 0.119703 0.750000 0.625000
Si Si2 0.000000 0.000000 0.500000
Si Si3 0.864426 0.495781 0.003877
Si Si4 0.317742 0.277653 0.276531
Si Si5 0.500000 0.500000 0.500000
O O1 0.185285 0.674215 0.652476
O O2 0.058505 0.714617 0.504062
O O3 0.994931 0.079361 0.609097
O O4 0.827567 0.402168 0.007461
O O5 0.921578 0.510793 0.142690
O O6 0.250000 0.323927 0.375000
O O7 0.279805 0.250000 0.125000
#
# Coordination Sequence:
#
# PCOD9561206 Si02
#       5
#     8   4  16  16   4
#     4  10  24  38  72  92 134 168 222 276 346 394
#     4  10  24  42  72  94 132 194 212 278 340 410
#     4  11  22  46  67  97 136 171 230 272 338 409
#     4  10  23  41  65  99 125 171 222 273 336 396
#     4  10  28  42  64  98 136 182 212 286 336 390
#
# _framework density 20.255694999999999
#
# number of rings (size 3 to 8) (size 9 to 14) (size 15 to 20)
#    1.000    0.667    1.667    2.000    4.667    0.000 
#    0.000    0.000    0.000    0.000    0.000    0.000 
#    0.000    0.000    0.000    0.000    0.000    0.000 
#
# Total GULP energy -133601.681363 kJ/mol
# GULP energy per Si atom -5566.736723 kJ/mol
# Density = 2.020959 g / cm^3
# Si number density = 20.255695 Si / 1000 Ang^3
#
#
#
# Elastic Constant Matrix: (Units=GPa)
#
#
# Indices 1 2 3 4 5 6 
#
# 1 78.7095 5.1663 14.1437 0.0000 0.0000 0.0000
# 2 5.1663 78.7095 14.1437 0.0000 0.0000 0.0000
# 3 14.1437 14.1437 93.4979 0.0000 0.0000 0.0000
# 4 0.0000 0.0000 0.0000 26.1206 0.0000 0.0000
# 5 0.0000 0.0000 0.0000 0.0000 26.1206 0.0000
# 6 0.0000 0.0000 0.0000 0.0000 0.0000 30.0264
#
#
#
# Elastic Compliance Matrix: (Units=1/GPa)
#
#
# Indices 1 2 3 4 5 6 
#
# 1 0.013080 -0.000517 -0.001900 0.000000 0.000000 0.000000
# 2 -0.000517 0.013080 -0.001900 0.000000 0.000000 0.000000
# 3 -0.001900 -0.001900 0.011270 0.000000 0.000000 0.000000
# 4 0.000000 0.000000 0.000000 0.038284 0.000000 0.000000
# 5 0.000000 0.000000 0.000000 0.000000 0.038284 0.000000
# 6 0.000000 0.000000 0.000000 0.000000 0.000000 0.033304
#
#
# Mechanical properties :
#
#
# Convention : Reuss Voigt Hill
#
# Bulk Modulus (GPa) = 34.72811 35.31381 35.02096
# Shear Modulus (GPa) = 30.20464 30.95108 30.57786
#
# Velocity S-wave (km/s) = 3.86575 3.91323 3.88956
# Velocity P-wave (km/s) = 6.09159 6.15546 6.12361
#
# Compressibility (1/GPa) = 0.02879512
#
# Stress axis : x y z
#
# Youngs Moduli (GPa) = 76.45028 76.45028 88.72792
#
# Poissons Ratio (x) = 0.03953 0.16863
# Poissons Ratio (y) = 0.03953 0.16863
# Poissons Ratio (z) = 0.14529 0.14529
#
# Static dielectric constant tensor:
#      x y z
#    x 1.744090 0.000000 0.000000 
#    y 0.000000 1.744090 0.000000 
#    z 0.000000 0.000000 1.791630 
# 
# From -- ./inp_files/2130.got.cif
#   From: 2010.05.17/outbox.cif.g08.bks.cpg/sg122_2_cif.got.tgz:2130.got - 2010.05.20 11:37:33.
