data_PCOD9561777
_publ_section_title
;
Structure prediction by ZEFSAII (Michael W. Deem and Ramdas Pophale) SiO2 
 PCOD9561777
Probable space group: P 4/M M M
;
_chemical_formula_sum "Si O2"
_cell_formula_units_Z 72
_cell_length_a 13.877807
_cell_length_b 13.877807
_cell_length_c 23.582026
_cell_angle_alpha 90.000000
_cell_angle_beta 90.000000
_cell_angle_gamma 90.000000
_cell_volume 4541.745564
_symmetry_space_group_name_H-M "P 4/M M M"
_symmetry_group_IT_number 123
_symmetry_cell_setting 'tetragonal'
loop_
_space_group_symop_operation_xyz
x,y,z
-y,x,z
-x,-y,z
y,-x,z
x,-y,-z
-x,y,-z
y,x,-z
-y,-x,-z
-x,-y,-z
y,-x,-z
x,y,-z
-y,x,-z
-x,y,z
x,-y,z
-y,-x,z
y,x,z
loop_
_atom_site_type_symbol
_atom_site_label
_atom_site_fract_x
_atom_site_fract_y
_atom_site_fract_z
Si Si1 0.614829 0.769967 0.000000
Si Si2 0.273407 0.885221 0.771461
Si Si3 0.387470 0.885876 0.886904
Si Si4 0.889215 0.616912 0.436483
Si Si5 0.227916 0.615428 0.674998
O O1 0.640841 0.828491 0.056807
O O2 0.500000 0.758525 0.000000
O O3 0.669884 0.669884 0.000000
O O4 0.174289 0.825712 0.766936
O O5 0.322044 0.865334 0.832528
O O6 0.344738 0.843023 0.723633
O O7 0.261579 0.000000 0.765234
O O8 0.500000 0.864048 0.873883
O O9 0.381737 0.000000 0.898726
O O10 0.860859 0.648731 0.500000
O O11 0.890390 0.500000 0.437228
O O12 0.819375 0.643659 0.385426
O O13 0.000000 0.647741 0.426053
O O14 0.237061 0.500000 0.678018
O O15 0.328702 0.671299 0.681467
#
# Coordination Sequence:
#
# PCOD9561777 Si02
#       5
#     8  16  16  16  16
#     4  10  19  30  45  65  92 124 155 189 226 265
#     4  10  20  33  50  72  96 122 153 190 234 284
#     4   9  17  30  49  71  92 116 150 191 232 273
#     4   8  14  26  45  67  89 115 150 192 234 273
#     4  10  20  32  47  68  94 125 161 199 238 281
#
# _framework density 15.852936
#
# number of rings (size 3 to 8) (size 9 to 14) (size 15 to 20)
#    0.000    2.667    0.000    3.000    0.000    4.556 
#    0.000    0.000    0.000    0.000    0.000    6.222 
#    0.000    8.000    0.000   20.667    0.000    1.111 
#
# Total GULP energy -401166.248446 kJ/mol
# GULP energy per Si atom -5571.753451 kJ/mol
# Density = 1.581685 g / cm^3
# Si number density = 15.852936 Si / 1000 Ang^3
#
#
#
# Elastic Constant Matrix: (Units=GPa)
#
#
# Indices 1 2 3 4 5 6 
#
# 1 76.2352 51.1154 56.9102 0.0000 0.0000 0.0000
# 2 51.1154 76.2352 56.9102 0.0000 0.0000 0.0000
# 3 56.9102 56.9102 119.8645 0.0000 0.0000 0.0000
# 4 0.0000 0.0000 0.0000 16.2651 0.0000 0.0000
# 5 0.0000 0.0000 0.0000 0.0000 16.2651 0.0000
# 6 0.0000 0.0000 0.0000 0.0000 0.0000 14.0062
#
#
#
# Elastic Compliance Matrix: (Units=1/GPa)
#
#
# Indices 1 2 3 4 5 6 
#
# 1 0.026725 -0.013084 -0.006476 0.000000 0.000000 0.000000
# 2 -0.013084 0.026725 -0.006476 0.000000 0.000000 0.000000
# 3 -0.006476 -0.006476 0.014493 0.000000 0.000000 0.000000
# 4 0.000000 0.000000 0.000000 0.061481 0.000000 0.000000
# 5 0.000000 0.000000 0.000000 0.000000 0.061481 0.000000
# 6 0.000000 0.000000 0.000000 0.000000 0.000000 0.071397
#
#
# Mechanical properties :
#
#
# Convention : Reuss Voigt Hill
#
# Bulk Modulus (GPa) = 63.01887 66.91183 64.96535
# Shear Modulus (GPa) = 15.64132 16.46721 16.05426
#
# Velocity S-wave (km/s) = 3.14451 3.22646 3.18575
# Velocity P-wave (km/s) = 7.28165 7.49530 7.38925
#
# Compressibility (1/GPa) = 0.01586826
#
# Stress axis : x y z
#
# Youngs Moduli (GPa) = 37.41824 37.41824 69.00067
#
# Poissons Ratio (x) = 0.48959 0.44688
# Poissons Ratio (y) = 0.48959 0.44688
# Poissons Ratio (z) = 0.24234 0.24234
#
# Static dielectric constant tensor:
#      x y z
#    x 1.509050 0.000000 0.000000 
#    y 0.000000 1.509050 0.000000 
#    z 0.000000 0.000000 1.535780 
# 
# From -- ./inp_files/7089.got.cif
#   From: 2010.05.17/outbox.cif.g08.bks.cpg/sg123_4_cif.got.tgz:7089.got - 2010.05.20 11:43:04.
