data_PCOD9561042
_publ_section_title
;
Structure prediction by ZEFSAII (Michael W. Deem and Ramdas Pophale) SiO2 
 PCOD9561042
Probable space group: I -4 2 D
;
_chemical_formula_sum "Si O2"
_cell_formula_units_Z 112
_cell_length_a 15.323066
_cell_length_b 15.323066
_cell_length_c 22.312813
_cell_angle_alpha 90.000000
_cell_angle_beta 90.000000
_cell_angle_gamma 90.000000
_cell_volume 5238.967087
_symmetry_space_group_name_H-M "I -4 2 D"
_symmetry_group_IT_number 122
_symmetry_cell_setting 'tetragonal'
loop_
_space_group_symop_operation_xyz
x,y,z
y,-x,-z
-x,-y,z
-y,x,-z
x,1/2-y,1/4-z
-x,1/2+y,1/4-z
-y,1/2-x,1/4+z
y,1/2+x,1/4+z
1/2+x,1/2+y,1/2+z
1/2+y,1/2-x,1/2-z
1/2-x,1/2-y,1/2+z
1/2-y,1/2+x,1/2-z
1/2+x,-y,3/4-z
1/2-x,y,3/4-z
1/2-y,-x,3/4+z
1/2+y,x,3/4+z
loop_
_atom_site_type_symbol
_atom_site_label
_atom_site_fract_x
_atom_site_fract_y
_atom_site_fract_z
Si Si1 0.006744 0.790836 0.850428
Si Si2 0.352211 0.347629 0.133626
Si Si3 0.588660 0.045253 0.499829
Si Si4 0.217554 0.420356 0.440803
Si Si5 0.515860 0.365090 0.476646
Si Si6 0.815512 0.721576 0.825266
Si Si7 0.589474 0.895361 0.235057
O O1 0.082385 0.721848 0.866130
O O2 0.009769 0.858082 0.905535
O O3 0.012293 0.840610 0.786356
O O4 0.910746 0.746319 0.851962
O O5 0.317142 0.250000 0.125000
O O6 0.398990 0.366661 0.196613
O O7 0.423353 0.358731 0.081150
O O8 0.559164 0.116668 0.549016
O O9 0.500000 0.000000 0.477911
O O10 0.250000 0.445541 0.375000
O O11 0.272816 0.465589 0.492526
O O12 0.224780 0.314656 0.444968
O O13 0.428343 0.406572 0.502966
O O14 0.750000 0.684320 0.875000
O O15 0.837320 0.658118 0.770492
O O16 0.497211 0.888034 0.268171
#
# Coordination Sequence:
#
# PCOD9561042 Si02
#       7
#    16  16  16  16  16  16  16
#     4  11  24  47  69 108 142 190 249 301 363 448
#     4  12  26  49  73 103 149 189 243 313 370 440
#     4  11  26  47  73 105 146 190 245 309 368 437
#     4  10  21  42  68  98 139 184 235 292 358 428
#     4  11  23  39  69 101 141 188 236 288 363 433
#     4  10  21  44  74 101 138 188 243 296 368 437
#     4  11  25  44  71 102 141 183 238 293 365 439
#
# _framework density 21.378260999999998
#
# number of rings (size 3 to 8) (size 9 to 14) (size 15 to 20)
#    0.000    1.143    2.857    4.286    6.000    0.571 
#    5.143    0.000    0.000    0.000    0.000    0.000 
#    0.000    0.000    0.000    0.000    0.000    0.000 
#
# Total GULP energy -312847.977302 kJ/mol
# GULP energy per Si atom -5586.571023 kJ/mol
# Density = 2.132960 g / cm^3
# Si number density = 21.378261 Si / 1000 Ang^3
#
#
#
# Elastic Constant Matrix: (Units=GPa)
#
#
# Indices 1 2 3 4 5 6 
#
# 1 59.1713 26.2347 26.6883 0.0000 0.0000 0.0000
# 2 26.2347 59.1714 26.6883 0.0000 0.0000 0.0000
# 3 26.6883 26.6883 116.9414 0.0000 0.0000 0.0000
# 4 0.0000 0.0000 0.0000 31.7689 0.0000 0.0000
# 5 0.0000 0.0000 0.0000 0.0000 31.7689 0.0000
# 6 0.0000 0.0000 0.0000 0.0000 0.0000 30.2368
#
#
#
# Elastic Compliance Matrix: (Units=1/GPa)
#
#
# Indices 1 2 3 4 5 6 
#
# 1 0.022009 -0.008352 -0.003117 0.000000 0.000000 0.000000
# 2 -0.008352 0.022009 -0.003117 0.000000 0.000000 0.000000
# 3 -0.003117 -0.003117 0.009974 0.000000 0.000000 0.000000
# 4 0.000000 0.000000 0.000000 0.031477 0.000000 0.000000
# 5 0.000000 0.000000 0.000000 0.000000 0.031477 0.000000
# 6 0.000000 0.000000 0.000000 0.000000 0.000000 0.033072
#
#
# Mechanical properties :
#
#
# Convention : Reuss Voigt Hill
#
# Bulk Modulus (GPa) = 40.28960 43.83410 42.06185
# Shear Modulus (GPa) = 26.67180 29.13308 27.90244
#
# Velocity S-wave (km/s) = 3.53599 3.69554 3.61664
# Velocity P-wave (km/s) = 5.96305 6.22559 6.09573
#
# Compressibility (1/GPa) = 0.02482030
#
# Stress axis : x y z
#
# Youngs Moduli (GPa) = 45.43598 45.43598 100.26191
#
# Poissons Ratio (x) = 0.37950 0.31249
# Poissons Ratio (y) = 0.37950 0.31249
# Poissons Ratio (z) = 0.14161 0.14161
#
# Static dielectric constant tensor:
#      x y z
#    x 1.790380 0.000000 0.000000 
#    y 0.000000 1.790380 0.000000 
#    z 0.000000 0.000000 1.803620 
# 
# From -- ./inp_files/8149.got.cif
#   From: 2010.05.17/outbox.cif.g08.bks.cpg/sg122_5_cif.got.tgz:8149.got - 2010.05.20 11:37:33.
