data_PCOD9561841
_publ_section_title
;
Structure prediction by ZEFSAII (Michael W. Deem and Ramdas Pophale) SiO2 
 PCOD9561841
Probable space group: P 4/M M M
;
_chemical_formula_sum "Si O2"
_cell_formula_units_Z 112
_cell_length_a 19.779602
_cell_length_b 19.779602
_cell_length_c 18.658637
_cell_angle_alpha 90.000000
_cell_angle_beta 90.000000
_cell_angle_gamma 90.000000
_cell_volume 7299.868097
_symmetry_space_group_name_H-M "P 4/M M M"
_symmetry_group_IT_number 123
_symmetry_cell_setting 'tetragonal'
loop_
_space_group_symop_operation_xyz
x,y,z
-y,x,z
-x,-y,z
y,-x,z
x,-y,-z
-x,y,-z
y,x,-z
-y,-x,-z
-x,-y,-z
y,-x,-z
x,y,-z
-y,x,-z
-x,y,z
x,-y,z
-y,-x,z
y,x,z
loop_
_atom_site_type_symbol
_atom_site_label
_atom_site_fract_x
_atom_site_fract_y
_atom_site_fract_z
Si Si1 0.580328 0.078671 0.717140
Si Si2 0.839248 0.579239 0.137935
Si Si3 0.690540 0.578446 0.914610
Si Si4 0.335458 0.081944 0.421366
Si Si5 0.920064 0.301597 0.920845
Si Si6 0.920998 0.190580 0.636322
Si Si7 0.190045 0.078835 0.805359
O O1 0.500000 0.077922 0.703406
O O2 0.592394 0.127876 0.784096
O O3 0.619492 0.102185 0.646328
O O4 0.600386 0.000000 0.733964
O O5 0.850460 0.500000 0.121079
O O6 0.759343 0.591750 0.129141
O O7 0.878942 0.629609 0.086434
O O8 0.670578 0.500000 0.902703
O O9 0.631012 0.631012 0.897580
O O10 0.705846 0.585034 0.000000
O O11 0.357348 0.106094 0.500000
O O12 0.257312 0.099070 0.407022
O O13 0.338874 0.000000 0.421973
O O14 0.900111 0.250449 0.857766
O O15 0.000000 0.315450 0.912894
O O16 0.909290 0.271593 0.000000
O O17 0.872436 0.127565 0.621603
O O18 0.915465 0.208045 0.721193
O O19 0.000000 0.175068 0.622153
O O20 0.125383 0.125383 0.817978
O O21 0.175418 0.000000 0.819490
#
# Coordination Sequence:
#
# PCOD9561841 Si02
#       7
#    16  16  16  16  16  16  16
#     4   9  17  29  46  67  90 117 147 178 212 250
#     4  10  19  31  47  66  90 119 149 180 214 254
#     4   9  18  32  49  69  92 117 146 181 220 261
#     4   9  17  29  45  64  86 112 142 177 215 254
#     4  10  20  31  43  61  86 116 149 185 222 260
#     4   9  17  29  45  63  83 109 140 176 219 263
#     4   9  18  32  48  65  85 110 144 187 232 276
#
# _framework density 15.342744
#
# number of rings (size 3 to 8) (size 9 to 14) (size 15 to 20)
#    0.000    2.714    0.000    1.714    0.000    5.857 
#    0.000    5.000    0.000    0.000    0.000    4.000 
#    0.000    0.000    0.000    0.000    0.000    0.143 
#
# Total GULP energy -624041.754309 kJ/mol
# GULP energy per Si atom -5571.801378 kJ/mol
# Density = 1.530782 g / cm^3
# Si number density = 15.342744 Si / 1000 Ang^3
#
#
#
# Elastic Constant Matrix: (Units=GPa)
#
#
# Indices 1 2 3 4 5 6 
#
# 1 51.6681 36.5810 36.9464 0.0000 0.0000 0.0000
# 2 36.5810 51.6681 36.9464 0.0000 0.0000 0.0000
# 3 36.9464 36.9464 57.2862 0.0000 0.0000 0.0000
# 4 0.0000 0.0000 0.0000 11.8047 0.0000 0.0000
# 5 0.0000 0.0000 0.0000 0.0000 11.8047 0.0000
# 6 0.0000 0.0000 0.0000 0.0000 0.0000 19.6985
#
#
#
# Elastic Compliance Matrix: (Units=1/GPa)
#
#
# Indices 1 2 3 4 5 6 
#
# 1 0.045458 -0.020823 -0.015888 0.000000 0.000000 0.000000
# 2 -0.020823 0.045458 -0.015888 0.000000 0.000000 0.000000
# 3 -0.015888 -0.015888 0.037950 0.000000 0.000000 0.000000
# 4 0.000000 0.000000 0.000000 0.084712 0.000000 0.000000
# 5 0.000000 0.000000 0.000000 0.000000 0.084712 0.000000
# 6 0.000000 0.000000 0.000000 0.000000 0.000000 0.050765
#
#
# Mechanical properties :
#
#
# Convention : Reuss Voigt Hill
#
# Bulk Modulus (GPa) = 42.25208 42.39664 42.32436
# Shear Modulus (GPa) = 10.81910 12.00481 11.41196
#
# Velocity S-wave (km/s) = 2.65837 2.80025 2.73023
# Velocity P-wave (km/s) = 6.08450 6.17643 6.13063
#
# Compressibility (1/GPa) = 0.02366747
#
# Stress axis : x y z
#
# Youngs Moduli (GPa) = 21.99814 21.99814 26.35028
#
# Poissons Ratio (x) = 0.45807 0.41866
# Poissons Ratio (y) = 0.45807 0.41866
# Poissons Ratio (z) = 0.34951 0.34951
#
# Static dielectric constant tensor:
#      x y z
#    x 1.499010 0.000000 0.000000 
#    y 0.000000 1.499010 0.000000 
#    z 0.000000 0.000000 1.529330 
# 
# From -- ./inp_files/5881.got.cif
#   From: 2010.05.17/outbox.cif.g08.bks.cpg/sg123_3_cif.got.tgz:5881.got - 2010.05.20 11:43:04.
