data_PCOD9561411
_publ_section_title
;
Structure prediction by ZEFSAII (Michael W. Deem and Ramdas Pophale) SiO2 
 PCOD9561411
Probable space group: I -4 2 D
;
_chemical_formula_sum "Si O2"
_cell_formula_units_Z 72
_cell_length_a 13.053096
_cell_length_b 13.053096
_cell_length_c 18.347568
_cell_angle_alpha 90.000000
_cell_angle_beta 90.000000
_cell_angle_gamma 90.000000
_cell_volume 3126.119461
_symmetry_space_group_name_H-M "I -4 2 D"
_symmetry_group_IT_number 122
_symmetry_cell_setting 'tetragonal'
loop_
_space_group_symop_operation_xyz
x,y,z
y,-x,-z
-x,-y,z
-y,x,-z
x,1/2-y,1/4-z
-x,1/2+y,1/4-z
-y,1/2-x,1/4+z
y,1/2+x,1/4+z
1/2+x,1/2+y,1/2+z
1/2+y,1/2-x,1/2-z
1/2-x,1/2-y,1/2+z
1/2-y,1/2+x,1/2-z
1/2+x,-y,3/4-z
1/2-x,y,3/4-z
1/2-y,-x,3/4+z
1/2+y,x,3/4+z
loop_
_atom_site_type_symbol
_atom_site_label
_atom_site_fract_x
_atom_site_fract_y
_atom_site_fract_z
Si Si1 0.917211 0.824899 0.312514
Si Si2 0.385970 0.018739 0.646592
Si Si3 0.783449 0.779002 0.048424
Si Si4 0.051880 0.750000 0.625000
Si Si5 0.370272 0.917164 0.490225
O O1 0.842462 0.811056 0.242784
O O2 0.849741 0.873467 0.377717
O O3 0.952213 0.708526 0.324074
O O4 0.020281 0.889924 0.297888
O O5 0.359442 0.133515 0.671819
O O6 0.500000 0.000000 0.672926
O O7 0.386747 0.982208 0.562621
O O8 0.730291 0.750000 0.125000
O O9 0.696095 0.824367 0.996375
O O10 0.979561 0.710539 0.559507
#
# Coordination Sequence:
#
# PCOD9561411 Si02
#       5
#    16  16  16   8  16
#     4  11  26  43  72 107 144 193 246 303 377 451
#     4  11  25  42  69 105 147 192 236 303 377 446
#     4  11  23  43  69 106 144 188 246 303 366 448
#     4  12  22  46  72  94 144 192 244 304 358 446
#     4  11  24  45  72 102 145 194 244 308 376 442
#
# _framework density 23.031749999999999
#
# number of rings (size 3 to 8) (size 9 to 14) (size 15 to 20)
#    0.000    0.889    1.111    6.000    6.222    0.000 
#    2.000    0.000    0.000    0.000    0.000    0.000 
#    0.000    0.000    0.000    0.000    0.000    0.000 
#
# Total GULP energy -200806.471634 kJ/mol
# GULP energy per Si atom -5577.957545 kJ/mol
# Density = 2.297933 g / cm^3
# Si number density = 23.031750 Si / 1000 Ang^3
#
#
#
# Elastic Constant Matrix: (Units=GPa)
#
#
# Indices 1 2 3 4 5 6 
#
# 1 151.7636 46.7936 47.6603 0.0000 0.0000 0.0000
# 2 46.7936 151.7636 47.6603 0.0000 0.0000 0.0000
# 3 47.6603 47.6603 110.3232 0.0000 0.0000 0.0000
# 4 0.0000 0.0000 0.0000 22.1048 0.0000 0.0000
# 5 0.0000 0.0000 0.0000 0.0000 22.1048 0.0000
# 6 0.0000 0.0000 0.0000 0.0000 0.0000 39.3997
#
#
#
# Elastic Compliance Matrix: (Units=1/GPa)
#
#
# Indices 1 2 3 4 5 6 
#
# 1 0.007940 -0.001586 -0.002745 0.000000 0.000000 0.000000
# 2 -0.001586 0.007940 -0.002745 0.000000 0.000000 0.000000
# 3 -0.002745 -0.002745 0.011436 0.000000 0.000000 0.000000
# 4 0.000000 0.000000 0.000000 0.045239 0.000000 0.000000
# 5 0.000000 0.000000 0.000000 0.000000 0.045239 0.000000
# 6 0.000000 0.000000 0.000000 0.000000 0.000000 0.025381
#
#
# Mechanical properties :
#
#
# Convention : Reuss Voigt Hill
#
# Bulk Modulus (GPa) = 75.96379 77.56435 76.76407
# Shear Modulus (GPa) = 30.91837 34.83762 32.87800
#
# Velocity S-wave (km/s) = 3.66789 3.89342 3.78234
# Velocity P-wave (km/s) = 7.14084 7.34588 7.24409
#
# Compressibility (1/GPa) = 0.01316417
#
# Stress axis : x y z
#
# Youngs Moduli (GPa) = 125.93940 125.93940 87.44312
#
# Poissons Ratio (x) = 0.19977 0.24003
# Poissons Ratio (y) = 0.19977 0.24003
# Poissons Ratio (z) = 0.34571 0.34571
#
# Static dielectric constant tensor:
#      x y z
#    x 1.938580 0.000000 0.000000 
#    y 0.000000 1.938580 0.000000 
#    z 0.000000 0.000000 1.909610 
# 
# From -- ./inp_files/6118.got.cif
#   From: 2010.05.17/outbox.cif.g08.bks.cpg/sg122_4_cif.got.tgz:6118.got - 2010.05.20 11:37:33.
