data_PCOD9561562
_publ_section_title
;
Structure prediction by ZEFSAII (Michael W. Deem and Ramdas Pophale) SiO2 
 PCOD9561562
Probable space group: I -4 2 D
;
_chemical_formula_sum "Si O2"
_cell_formula_units_Z 52
_cell_length_a 20.032813
_cell_length_b 20.032813
_cell_length_c 4.693279
_cell_angle_alpha 90.000000
_cell_angle_beta 90.000000
_cell_angle_gamma 90.000000
_cell_volume 1883.476676
_symmetry_space_group_name_H-M "I -4 2 D"
_symmetry_group_IT_number 122
_symmetry_cell_setting 'tetragonal'
loop_
_space_group_symop_operation_xyz
x,y,z
y,-x,-z
-x,-y,z
-y,x,-z
x,1/2-y,1/4-z
-x,1/2+y,1/4-z
-y,1/2-x,1/4+z
y,1/2+x,1/4+z
1/2+x,1/2+y,1/2+z
1/2+y,1/2-x,1/2-z
1/2-x,1/2-y,1/2+z
1/2-y,1/2+x,1/2-z
1/2+x,-y,3/4-z
1/2-x,y,3/4-z
1/2-y,-x,3/4+z
1/2+y,x,3/4+z
loop_
_atom_site_type_symbol
_atom_site_label
_atom_site_fract_x
_atom_site_fract_y
_atom_site_fract_z
Si Si1 0.180058 0.045653 0.488548
Si Si2 0.500000 0.000000 0.750000
Si Si3 0.532803 0.861064 0.754105
Si Si4 0.814686 0.829124 0.077397
O O1 0.250000 0.018726 0.375000
O O2 0.178998 0.120829 0.354757
O O3 0.132906 0.994274 0.322267
O O4 0.174470 0.025429 0.817765
O O5 0.530972 0.933815 0.615595
O O6 0.608012 0.833941 0.776340
O O7 0.803866 0.750000 0.125000
O O8 0.750000 0.848097 0.875000
#
# Coordination Sequence:
#
# PCOD9561562 Si02
#       4
#    16   4  16  16
#     4  12  27  49  79 116 163 222 288 352 444 532
#     4  12  28  54  84 126 168 226 308 362 456 534
#     4  12  29  51  83 119 168 223 290 372 443 540
#     4  12  28  51  85 129 182 239 303 382 467 559
#
# _framework density 27.608516999999999
#
# number of rings (size 3 to 8) (size 9 to 14) (size 15 to 20)
#    0.000    0.000    3.077    5.538    4.308    4.923 
#    0.000    0.000    0.000    0.000    0.000    0.000 
#    0.000    0.000    0.000    0.000    0.000    0.000 
#
# Total GULP energy -144767.426979 kJ/mol
# GULP energy per Si atom -5567.977961 kJ/mol
# Density = 2.754568 g / cm^3
# Si number density = 27.608517 Si / 1000 Ang^3
#
#
#
# Elastic Constant Matrix: (Units=GPa)
#
#
# Indices 1 2 3 4 5 6 
#
# 1 210.6648 35.2719 44.2994 0.0000 0.0000 0.0000
# 2 35.2719 210.6648 44.2994 0.0000 0.0000 0.0000
# 3 44.2994 44.2994 147.2308 0.0000 0.0000 0.0000
# 4 0.0000 0.0000 0.0000 33.5428 0.0000 0.0000
# 5 0.0000 0.0000 0.0000 0.0000 33.5428 0.0000
# 6 0.0000 0.0000 0.0000 0.0000 0.0000 51.8552
#
#
#
# Elastic Compliance Matrix: (Units=1/GPa)
#
#
# Indices 1 2 3 4 5 6 
#
# 1 0.005131 -0.000571 -0.001372 0.000000 0.000000 0.000000
# 2 -0.000571 0.005131 -0.001372 0.000000 0.000000 0.000000
# 3 -0.001372 -0.001372 0.007618 0.000000 0.000000 0.000000
# 4 0.000000 0.000000 0.000000 0.029813 0.000000 0.000000
# 5 0.000000 0.000000 0.000000 0.000000 0.029813 0.000000
# 6 0.000000 0.000000 0.000000 0.000000 0.000000 0.019284
#
#
# Mechanical properties :
#
#
# Convention : Reuss Voigt Hill
#
# Bulk Modulus (GPa) = 88.88908 90.70019 89.79464
# Shear Modulus (GPa) = 46.65524 53.43415 50.04470
#
# Velocity S-wave (km/s) = 4.11528 4.40412 4.26215
# Velocity P-wave (km/s) = 7.40587 7.66715 7.53764
#
# Compressibility (1/GPa) = 0.01124998
#
# Stress axis : x y z
#
# Youngs Moduli (GPa) = 194.89587 194.89587 131.27191
#
# Poissons Ratio (x) = 0.11120 0.18013
# Poissons Ratio (y) = 0.11120 0.18013
# Poissons Ratio (z) = 0.26743 0.26743
#
# Static dielectric constant tensor:
#      x y z
#    x 2.268490 0.000000 0.000000 
#    y 0.000000 2.268490 0.000000 
#    z 0.000000 0.000000 2.269760 
# 
# From -- ./inp_files/817.got.cif
#   From: 2010.05.17/outbox.cif.g08.bks.cpg/sg122_1_cif.got.tgz:817.got - 2010.05.20 11:37:33.
