data_PCOD9561975
_publ_section_title
;
Structure prediction by ZEFSAII (Michael W. Deem and Ramdas Pophale) SiO2 
 PCOD9561975
Probable space group: P 4/M M M
;
_chemical_formula_sum "Si O2"
_cell_formula_units_Z 80
_cell_length_a 18.389035
_cell_length_b 18.389035
_cell_length_c 15.792419
_cell_angle_alpha 90.000000
_cell_angle_beta 90.000000
_cell_angle_gamma 90.000000
_cell_volume 5340.310845
_symmetry_space_group_name_H-M "P 4/M M M"
_symmetry_group_IT_number 123
_symmetry_cell_setting 'tetragonal'
loop_
_space_group_symop_operation_xyz
x,y,z
-y,x,z
-x,-y,z
y,-x,z
x,-y,-z
-x,y,-z
y,x,-z
-y,-x,-z
-x,-y,-z
y,-x,-z
x,y,-z
-y,x,-z
-x,y,z
x,-y,z
-y,-x,z
y,x,z
loop_
_atom_site_type_symbol
_atom_site_label
_atom_site_fract_x
_atom_site_fract_y
_atom_site_fract_z
Si Si1 0.778393 0.336156 0.403817
Si Si2 0.663862 0.778406 0.903817
Si Si3 0.301775 0.585155 0.249991
Si Si4 0.416890 0.915494 0.352451
Si Si5 0.583108 0.084507 0.147552
O O1 0.760159 0.357759 0.500000
O O2 0.745580 0.254421 0.392958
O O3 0.737988 0.383258 0.332731
O O4 0.862620 0.355681 0.389482
O O5 0.745599 0.745599 0.892959
O O6 0.616762 0.737996 0.832733
O O7 0.644326 0.862631 0.889481
O O8 0.642260 0.760172 0.000000
O O9 0.298263 0.500000 0.249977
O O10 0.382445 0.617556 0.249990
O O11 0.500000 0.893796 0.377416
O O12 0.414143 0.910826 0.250001
O O13 0.407363 0.000000 0.375779
O O14 0.500000 0.106213 0.122588
O O15 0.592627 0.000000 0.124224
#
# Coordination Sequence:
#
# PCOD9561975 Si02
#       5
#    16  16  16  16  16
#     4  10  20  32  47  67  90 119 154 188 223 268
#     4  10  20  32  47  67  90 119 154 188 223 268
#     4  10  20  33  47  63  85 113 148 192 234 270
#     4   9  17  29  46  69  95 120 148 185 228 274
#     4   9  17  29  46  69  95 120 148 185 228 274
#
# _framework density 14.980402
#
# number of rings (size 3 to 8) (size 9 to 14) (size 15 to 20)
#    0.000    2.400    2.000    2.400    0.000    4.200 
#    0.000    2.000    0.000    0.000    0.000    5.600 
#    0.000    0.800    0.000    8.800    0.000    6.400 
#
# Total GULP energy -445337.841261 kJ/mol
# GULP energy per Si atom -5566.723016 kJ/mol
# Density = 1.494631 g / cm^3
# Si number density = 14.980402 Si / 1000 Ang^3
#
#
#
# Elastic Constant Matrix: (Units=GPa)
#
#
# Indices 1 2 3 4 5 6 
#
# 1 91.0420 47.9076 26.2744 0.0000 0.0000 0.0000
# 2 47.9076 91.0420 26.2744 0.0000 0.0000 0.0000
# 3 26.2744 26.2744 75.5983 0.0000 0.0000 0.0000
# 4 0.0000 0.0000 0.0000 -14.8053 0.0000 0.0000
# 5 0.0000 0.0000 0.0000 0.0000 -14.8053 0.0000
# 6 0.0000 0.0000 0.0000 0.0000 0.0000 26.9927
#
#
#
# Elastic Compliance Matrix: (Units=1/GPa)
#
#
# Indices 1 2 3 4 5 6 
#
# 1 0.015735 -0.007449 -0.002880 0.000000 0.000000 0.000000
# 2 -0.007449 0.015735 -0.002880 0.000000 0.000000 0.000000
# 3 -0.002880 -0.002880 0.015230 0.000000 0.000000 0.000000
# 4 0.000000 0.000000 0.000000 -0.067543 0.000000 0.000000
# 5 0.000000 0.000000 0.000000 0.000000 -0.067543 0.000000
# 6 0.000000 0.000000 0.000000 0.000000 0.000000 0.037047
#
#
# Mechanical properties :
#
#
# Convention : Reuss Voigt Hill
#
# Bulk Modulus (GPa) = 49.30413 50.95498 50.12956
# Shear Modulus (GPa) = -275.27473 9.95816 -132.65828
#
# Velocity S-wave (km/s) = -13.57039 2.58106 -9.42055
# Velocity P-wave (km/s) = 14.57933 6.55521 9.20831
#
# Compressibility (1/GPa) = 0.02028228
#
# Stress axis : x y z
#
# Youngs Moduli (GPa) = 63.55399 63.55399 65.66169
#
# Poissons Ratio (x) = 0.47339 0.18909
# Poissons Ratio (y) = 0.47339 0.18909
# Poissons Ratio (z) = 0.18302 0.18302
#
# Static dielectric constant tensor:
#      x y z
#    x 1.509880 0.000000 0.000000 
#    y 0.000000 1.509880 0.000000 
#    z 0.000000 0.000000 1.532360 
# 
# From -- ./inp_files/3913.got.cif
#   From: 2010.05.17/outbox.cif.g08.bks.cpg/sg123_2_cif.got.tgz:3913.got - 2010.05.20 11:43:04.
