data_PCOD9561888
_publ_section_title
;
Structure prediction by ZEFSAII (Michael W. Deem and Ramdas Pophale) SiO2 
 PCOD9561888
Probable space group: P 4/M M M
;
_chemical_formula_sum "Si O2"
_cell_formula_units_Z 120
_cell_length_a 23.538098
_cell_length_b 23.538098
_cell_length_c 13.985103
_cell_angle_alpha 90.000000
_cell_angle_beta 90.000000
_cell_angle_gamma 90.000000
_cell_volume 7748.335240
_symmetry_space_group_name_H-M "P 4/M M M"
_symmetry_group_IT_number 123
_symmetry_cell_setting 'tetragonal'
loop_
_space_group_symop_operation_xyz
x,y,z
-y,x,z
-x,-y,z
y,-x,z
x,-y,-z
-x,y,-z
y,x,-z
-y,-x,-z
-x,-y,-z
y,-x,-z
x,y,-z
-y,x,-z
-x,y,z
x,-y,z
-y,-x,z
y,x,z
loop_
_atom_site_type_symbol
_atom_site_label
_atom_site_fract_x
_atom_site_fract_y
_atom_site_fract_z
Si Si1 0.657828 0.565894 0.883775
Si Si2 0.378219 0.778261 0.887047
Si Si3 0.620144 0.933401 0.611288
Si Si4 0.000000 0.430693 0.889281
Si Si5 0.258822 0.167914 0.887589
Si Si6 0.935242 0.158865 0.389408
Si Si7 0.566411 0.114819 0.214828
Si Si8 0.065129 0.268936 0.741985
O O1 0.656364 0.500000 0.852110
O O2 0.604438 0.604438 0.852210
O O3 0.716983 0.597178 0.858018
O O4 0.656431 0.565109 0.000000
O O5 0.310850 0.787562 0.876992
O O6 0.405483 0.829184 0.827118
O O7 0.391984 0.785943 0.000000
O O8 0.624169 0.918479 0.500000
O O9 0.577770 0.895489 0.673540
O O10 0.679970 0.927740 0.666241
O O11 0.603016 0.000000 0.617102
O O12 0.057480 0.410996 0.837364
O O13 0.000000 0.500000 0.884731
O O14 0.000000 0.414187 0.000000
O O15 0.200977 0.200977 0.861765
O O16 0.270460 0.113030 0.823042
O O17 0.256524 0.152665 0.000000
O O18 0.927976 0.178070 0.500000
O O19 0.890354 0.109647 0.370518
O O20 0.928307 0.211028 0.317816
O O21 0.000000 0.137728 0.380677
O O22 0.500000 0.118222 0.194861
O O23 0.000000 0.271884 0.778792
#
# Coordination Sequence:
#
# PCOD9561888 Si02
#       8
#    16  16  16   8  16  16  16  16
#     4   9  17  29  46  69  97 129 164 199 237 285
#     4  10  19  32  48  69  97 131 165 200 242 289
#     4  10  20  34  50  67  91 123 161 207 252 292
#     4   9  18  30  43  63  93 125 158 202 246 281
#     4  10  20  33  50  72  97 126 160 198 241 289
#     4   9  17  29  47  71  96 122 152 189 237 291
#     4  11  20  31  46  67  92 123 165 205 247 292
#     4  10  19  33  50  69  94 124 161 201 243 286
#
# _framework density 15.487197
#
# number of rings (size 3 to 8) (size 9 to 14) (size 15 to 20)
#    0.000    2.200    2.000    2.000    0.000    5.333 
#    0.000    2.000    0.000    0.000    0.000    0.000 
#    0.000    0.000    0.000   12.400    0.000    0.267 
#
# Total GULP energy -668994.659405 kJ/mol
# GULP energy per Si atom -5574.955495 kJ/mol
# Density = 1.545195 g / cm^3
# Si number density = 15.487197 Si / 1000 Ang^3
#
#
#
# Elastic Constant Matrix: (Units=GPa)
#
#
# Indices 1 2 3 4 5 6 
#
# 1 67.0791 32.3845 23.4578 0.0000 0.0000 0.0000
# 2 32.3845 67.0791 23.4578 0.0000 0.0000 0.0000
# 3 23.4578 23.4578 55.7693 0.0000 0.0000 0.0000
# 4 0.0000 0.0000 0.0000 17.0211 0.0000 0.0000
# 5 0.0000 0.0000 0.0000 0.0000 17.0211 0.0000
# 6 0.0000 0.0000 0.0000 0.0000 0.0000 25.2268
#
#
#
# Elastic Compliance Matrix: (Units=1/GPa)
#
#
# Indices 1 2 3 4 5 6 
#
# 1 0.020683 -0.008140 -0.005276 0.000000 0.000000 0.000000
# 2 -0.008140 0.020683 -0.005276 0.000000 0.000000 0.000000
# 3 -0.005276 -0.005276 0.022369 0.000000 0.000000 0.000000
# 4 0.000000 0.000000 0.000000 0.058751 0.000000 0.000000
# 5 0.000000 0.000000 0.000000 0.000000 0.058751 0.000000
# 6 0.000000 0.000000 0.000000 0.000000 0.000000 0.039640
#
#
# Mechanical properties :
#
#
# Convention : Reuss Voigt Hill
#
# Bulk Modulus (GPa) = 37.94864 38.72531 38.33697
# Shear Modulus (GPa) = 18.72358 19.22894 18.97626
#
# Velocity S-wave (km/s) = 3.48080 3.52746 3.50421
# Velocity P-wave (km/s) = 6.38052 6.45365 6.41719
#
# Compressibility (1/GPa) = 0.02635141
#
# Stress axis : x y z
#
# Youngs Moduli (GPa) = 48.34966 48.34966 44.70461
#
# Poissons Ratio (x) = 0.39358 0.23584
# Poissons Ratio (y) = 0.39358 0.23584
# Poissons Ratio (z) = 0.25507 0.25507
#
# Static dielectric constant tensor:
#      x y z
#    x 1.521520 0.000000 0.000000 
#    y 0.000000 1.521520 0.000000 
#    z 0.000000 0.000000 1.496120 
# 
# From -- ./inp_files/3483.got.cif
#   From: 2010.05.17/outbox.cif.g08.bks.cpg/sg123_2_cif.got.tgz:3483.got - 2010.05.20 11:43:04.
