data_PCOD9561253
_publ_section_title
;
Structure prediction by ZEFSAII (Michael W. Deem and Ramdas Pophale) SiO2 
 PCOD9561253
Probable space group: I -4 2 D
;
_chemical_formula_sum "Si O2"
_cell_formula_units_Z 84
_cell_length_a 14.246030
_cell_length_b 14.246030
_cell_length_c 20.449089
_cell_angle_alpha 90.000000
_cell_angle_beta 90.000000
_cell_angle_gamma 90.000000
_cell_volume 4150.129745
_symmetry_space_group_name_H-M "I -4 2 D"
_symmetry_group_IT_number 122
_symmetry_cell_setting 'tetragonal'
loop_
_space_group_symop_operation_xyz
x,y,z
y,-x,-z
-x,-y,z
-y,x,-z
x,1/2-y,1/4-z
-x,1/2+y,1/4-z
-y,1/2-x,1/4+z
y,1/2+x,1/4+z
1/2+x,1/2+y,1/2+z
1/2+y,1/2-x,1/2-z
1/2-x,1/2-y,1/2+z
1/2-y,1/2+x,1/2-z
1/2+x,-y,3/4-z
1/2-x,y,3/4-z
1/2-y,-x,3/4+z
1/2+y,x,3/4+z
loop_
_atom_site_type_symbol
_atom_site_label
_atom_site_fract_x
_atom_site_fract_y
_atom_site_fract_z
Si Si1 0.226388 0.250000 0.625000
Si Si2 0.112329 0.178063 0.051519
Si Si3 0.648669 0.954896 0.138900
Si Si4 0.000000 0.000000 0.276955
Si Si5 0.511598 0.364312 0.342263
Si Si6 0.000000 0.500000 0.750000
Si Si7 0.908279 0.169846 0.083962
O O1 0.300847 0.253794 0.565366
O O2 0.167606 0.344192 0.628412
O O3 0.007030 0.214542 0.060000
O O4 0.119048 0.096057 0.106172
O O5 0.128902 0.138391 0.980360
O O6 0.590018 0.987368 0.074964
O O7 0.584899 0.972914 0.202047
O O8 0.751256 0.000279 0.152490
O O9 0.089204 0.021601 0.229308
O O10 0.419320 0.415669 0.369484
O O11 0.856512 0.250000 0.125000
#
# Coordination Sequence:
#
# PCOD9561253 Si02
#       7
#     8  16  16   8  16   4  16
#     4  10  24  42  68  96 130 174 218 292 334 408
#     4  11  22  40  60  93 134 176 220 270 344 404
#     4  10  26  45  71 100 132 179 232 278 349 402
#     4  11  24  45  71 100 139 176 226 294 339 406
#     4  11  24  39  66  96 135 179 221 278 343 402
#     4  10  24  52  72  96 134 176 238 288 334 404
#     4  12  24  37  62  95 138 176 224 275 337 413
#
# _framework density 20.240331999999999
#
# number of rings (size 3 to 8) (size 9 to 14) (size 15 to 20)
#    0.000    1.143    4.762    0.000    8.000    3.048 
#    0.000    0.000    0.000    0.000    0.000    0.000 
#    0.000    0.000    0.000    0.000    0.000    0.000 
#
# Total GULP energy -234301.881964 kJ/mol
# GULP energy per Si atom -5578.616237 kJ/mol
# Density = 2.019426 g / cm^3
# Si number density = 20.240332 Si / 1000 Ang^3
#
#
#
# Elastic Constant Matrix: (Units=GPa)
#
#
# Indices 1 2 3 4 5 6 
#
# 1 100.2605 20.0820 49.4738 0.0000 0.0000 0.0000
# 2 20.0820 100.2605 49.4738 0.0000 0.0000 0.0000
# 3 49.4738 49.4738 147.4118 0.0000 0.0000 0.0000
# 4 0.0000 0.0000 0.0000 -16.5487 0.0000 0.0000
# 5 0.0000 0.0000 0.0000 0.0000 -16.5487 0.0000
# 6 0.0000 0.0000 0.0000 0.0000 0.0000 30.1602
#
#
#
# Elastic Compliance Matrix: (Units=1/GPa)
#
#
# Indices 1 2 3 4 5 6 
#
# 1 0.011974 -0.000498 -0.003852 0.000000 0.000000 0.000000
# 2 -0.000498 0.011974 -0.003852 0.000000 0.000000 0.000000
# 3 -0.003852 -0.003852 0.009369 0.000000 0.000000 0.000000
# 4 0.000000 0.000000 0.000000 -0.060428 0.000000 0.000000
# 5 0.000000 0.000000 0.000000 0.000000 -0.060428 0.000000
# 6 0.000000 0.000000 0.000000 0.000000 0.000000 0.033156
#
#
# Mechanical properties :
#
#
# Convention : Reuss Voigt Hill
#
# Bulk Modulus (GPa) = 59.11787 65.11024 62.11405
# Shear Modulus (GPa) = -154.60756 14.67274 -69.96741
#
# Velocity S-wave (km/s) = -8.74938 2.69537 -5.88586
# Velocity P-wave (km/s) = 8.53215 6.47496 3.92890
#
# Compressibility (1/GPa) = 0.01691536
#
# Stress axis : x y z
#
# Youngs Moduli (GPa) = 83.51168 83.51168 106.73357
#
# Poissons Ratio (x) = 0.04157 0.41111
# Poissons Ratio (y) = 0.04157 0.41111
# Poissons Ratio (z) = 0.32166 0.32166
#
# Static dielectric constant tensor:
#      x y z
#    x 1.780840 0.000000 0.000000 
#    y 0.000000 1.780840 0.000000 
#    z 0.000000 0.000000 1.689030 
# 
# From -- ./inp_files/7231.got.cif
#   From: 2010.05.17/outbox.cif.g08.bks.cpg/sg122_4_cif.got.tgz:7231.got - 2010.05.20 11:37:33.
