data_PCOD9561588
_publ_section_title
;
Structure prediction by ZEFSAII (Michael W. Deem and Ramdas Pophale) SiO2 
 PCOD9561588
Probable space group: I -4 2 D
;
_chemical_formula_sum "Si O2"
_cell_formula_units_Z 24
_cell_length_a 9.000000
_cell_length_b 9.000000
_cell_length_c 30.000000
_cell_angle_alpha 90.000000
_cell_angle_beta 90.000000
_cell_angle_gamma 90.000000
_cell_volume 2430.000000
_symmetry_space_group_name_H-M "I -4 2 D"
_symmetry_group_IT_number 122
_symmetry_cell_setting 'tetragonal'
loop_
_space_group_symop_operation_xyz
x,y,z
y,-x,-z
-x,-y,z
-y,x,-z
x,1/2-y,1/4-z
-x,1/2+y,1/4-z
-y,1/2-x,1/4+z
y,1/2+x,1/4+z
1/2+x,1/2+y,1/2+z
1/2+y,1/2-x,1/2-z
1/2-x,1/2-y,1/2+z
1/2-y,1/2+x,1/2-z
1/2+x,-y,3/4-z
1/2-x,y,3/4-z
1/2-y,-x,3/4+z
1/2+y,x,3/4+z
loop_
_atom_site_type_symbol
_atom_site_label
_atom_site_fract_x
_atom_site_fract_y
_atom_site_fract_z
Si Si1 0.156400 0.589153 0.460611
Si Si2 0.821626 0.712339 0.308632
Si Si3 0.481547 0.181114 0.353138
O O1 0.224221 0.641796 0.508755
O O2 0.274425 0.463468 0.443038
O O3 0.000000 0.500000 0.468070
O O4 0.107818 0.722392 0.425151
O O5 0.671114 0.791674 0.325886
O O6 0.946139 0.751563 0.346855
O O7 0.500000 0.000000 0.355880
#
# Coordination Sequence:
#
# PCOD9561588 Si02
#       3
#    16  16  16
#     4  10  23  44  70 102 144 187 243 304 372 443
#     4  10  23  46  65 106 140 188 237 299 374 436
#     4  10  23  44  73 101 143 187 250 302 359 443
#
# _framework density 9.8765429999999999
#
# number of rings (size 3 to 8) (size 9 to 14) (size 15 to 20)
#    0.000    2.000    0.000    1.000    9.333    0.667 
#   36.000    0.000    0.000    0.000    0.000    0.000 
#    0.000    0.000    0.000    0.000    0.000    0.000 
#
# Total GULP energy -133882.489691 kJ/mol
# GULP energy per Si atom -5578.437070 kJ/mol
# Density = 0.985406 g / cm^3
# Si number density = 9.876543 Si / 1000 Ang^3
#
#
#
# Elastic Constant Matrix: (Units=GPa)
#
#
# Indices 1 2 3 4 5 6 
#
# 1 122.2565 45.2195 69.8341 0.0000 0.0000 0.0000
# 2 45.2195 122.2565 69.8341 0.0000 0.0000 0.0000
# 3 69.8341 69.8341 181.7049 0.0000 0.0000 0.0000
# 4 0.0000 0.0000 0.0000 46.0026 0.0000 0.0000
# 5 0.0000 0.0000 0.0000 0.0000 46.0026 0.0000
# 6 0.0000 0.0000 0.0000 0.0000 0.0000 35.7205
#
#
#
# Elastic Compliance Matrix: (Units=1/GPa)
#
#
# Indices 1 2 3 4 5 6 
#
# 1 0.010884 -0.002097 -0.003377 0.000000 0.000000 0.000000
# 2 -0.002097 0.010884 -0.003377 0.000000 0.000000 0.000000
# 3 -0.003377 -0.003377 0.008099 0.000000 0.000000 0.000000
# 4 0.000000 0.000000 0.000000 0.021738 0.000000 0.000000
# 5 0.000000 0.000000 0.000000 0.000000 0.021738 0.000000
# 6 0.000000 0.000000 0.000000 0.000000 0.000000 0.027995
#
#
# Mechanical properties :
#
#
# Convention : Reuss Voigt Hill
#
# Bulk Modulus (GPa) = 82.20094 88.44367 85.32231
# Shear Modulus (GPa) = 40.61869 41.63384 41.12626
#
# Velocity S-wave (km/s) = 4.53959 4.59596 4.56786
# Velocity P-wave (km/s) = 8.31755 8.54609 8.43260
#
# Compressibility (1/GPa) = 0.01216531
#
# Stress axis : x y z
#
# Youngs Moduli (GPa) = 91.87670 91.87670 123.46602
#
# Poissons Ratio (x) = 0.19263 0.41698
# Poissons Ratio (y) = 0.19263 0.41698
# Poissons Ratio (z) = 0.31029 0.31029
#
# Static dielectric constant tensor:
#      x y z
#    x 1.728160 0.000000 0.000000 
#    y 0.000000 1.728160 0.000000 
#    z 0.000000 0.000000 1.711720 
# 
# From -- ./inp_files/8994.got.cif
#   From: 2010.05.17/outbox.ucp.g08.bks.cvg/sg122_5_cif.got.tgz:8994.got - 2010.06.11 11:35:26.
