data_PCOD9561413
_publ_section_title
;
Structure prediction by ZEFSAII (Michael W. Deem and Ramdas Pophale) SiO2 
 PCOD9561413
Probable space group: I -4 2 D
;
_chemical_formula_sum "Si O2"
_cell_formula_units_Z 72
_cell_length_a 19.440511
_cell_length_b 19.440511
_cell_length_c 8.250104
_cell_angle_alpha 90.000000
_cell_angle_beta 90.000000
_cell_angle_gamma 90.000000
_cell_volume 3117.990416
_symmetry_space_group_name_H-M "I -4 2 D"
_symmetry_group_IT_number 122
_symmetry_cell_setting 'tetragonal'
loop_
_space_group_symop_operation_xyz
x,y,z
y,-x,-z
-x,-y,z
-y,x,-z
x,1/2-y,1/4-z
-x,1/2+y,1/4-z
-y,1/2-x,1/4+z
y,1/2+x,1/4+z
1/2+x,1/2+y,1/2+z
1/2+y,1/2-x,1/2-z
1/2-x,1/2-y,1/2+z
1/2-y,1/2+x,1/2-z
1/2+x,-y,3/4-z
1/2-x,y,3/4-z
1/2-y,-x,3/4+z
1/2+y,x,3/4+z
loop_
_atom_site_type_symbol
_atom_site_label
_atom_site_fract_x
_atom_site_fract_y
_atom_site_fract_z
Si Si1 0.525820 0.250000 0.125000
Si Si2 0.802718 0.399855 0.055179
Si Si3 0.792164 0.864855 0.583311
Si Si4 0.250000 0.035339 0.875000
Si Si5 0.479991 0.395523 0.495643
Si Si6 0.180933 0.250000 0.125000
O O1 0.471269 0.264865 0.265932
O O2 0.581207 0.194141 0.188420
O O3 0.877435 0.426718 0.104762
O O4 0.772706 0.360346 0.212292
O O5 0.819063 0.354703 0.897074
O O6 0.766932 0.913672 0.728074
O O7 0.729706 0.811452 0.563033
O O8 0.322742 0.995769 0.835796
O O9 0.433999 0.454128 0.581904
#
# Coordination Sequence:
#
# PCOD9561413 Si02
#       6
#     8  16  16   8  16   8
#     4  12  31  45  70 112 168 200 248 328 410 485
#     4  12  26  48  74 114 154 204 262 329 403 487
#     4  12  26  49  74 118 155 202 262 334 406 478
#     4  12  21  47  74 107 149 198 272 326 383 482
#     4  11  23  43  73 107 143 203 265 323 391 480
#     4  12  26  46  90 111 149 204 272 340 401 473
#
# _framework density 23.091798000000001
#
# number of rings (size 3 to 8) (size 9 to 14) (size 15 to 20)
#    0.000    0.222    6.667    1.333    6.222    0.000 
#    4.000    0.000    0.000    0.000    0.000    0.000 
#    0.000    0.000    0.000    0.000    0.000    0.000 
#
# Total GULP energy -200458.391847 kJ/mol
# GULP energy per Si atom -5568.288662 kJ/mol
# Density = 2.303924 g / cm^3
# Si number density = 23.091798 Si / 1000 Ang^3
#
#
#
# Elastic Constant Matrix: (Units=GPa)
#
#
# Indices 1 2 3 4 5 6 
#
# 1 153.7000 76.6959 43.4841 0.0000 0.0000 0.0000
# 2 76.6959 153.7000 43.4841 0.0000 0.0000 0.0000
# 3 43.4841 43.4841 48.0594 0.0000 0.0000 0.0000
# 4 0.0000 0.0000 0.0000 20.0502 0.0000 0.0000
# 5 0.0000 0.0000 0.0000 0.0000 20.0502 0.0000
# 6 0.0000 0.0000 0.0000 0.0000 0.0000 -168.8248
#
#
#
# Elastic Compliance Matrix: (Units=1/GPa)
#
#
# Indices 1 2 3 4 5 6 
#
# 1 0.009789 -0.003197 -0.005964 0.000000 0.000000 0.000000
# 2 -0.003197 0.009789 -0.005964 0.000000 0.000000 0.000000
# 3 -0.005964 -0.005964 0.031600 0.000000 0.000000 0.000000
# 4 0.000000 0.000000 0.000000 0.049875 0.000000 0.000000
# 5 0.000000 0.000000 0.000000 0.000000 0.049875 0.000000
# 6 0.000000 0.000000 0.000000 0.000000 0.000000 -0.005923
#
#
# Mechanical properties :
#
#
# Convention : Reuss Voigt Hill
#
# Bulk Modulus (GPa) = 47.78499 75.86528 61.82514
# Shear Modulus (GPa) = 27.43769 -12.95851 7.23959
#
# Velocity S-wave (km/s) = 3.45077 -2.37148 1.77255
# Velocity P-wave (km/s) = 6.05107 5.04247 5.56965
#
# Compressibility (1/GPa) = 0.02092707
#
# Stress axis : x y z
#
# Youngs Moduli (GPa) = 102.15565 102.15565 31.64536
#
# Poissons Ratio (x) = 0.32663 0.18874
# Poissons Ratio (y) = 0.32663 0.18874
# Poissons Ratio (z) = 0.60927 0.60927
#
# Static dielectric constant tensor:
#      x y z
#    x 1.948300 0.000000 0.000000 
#    y 0.000000 1.948300 0.000000 
#    z 0.000000 0.000000 2.032320 
# 
# From -- ./inp_files/2698.got.cif
#   From: 2010.05.17/outbox.cif.g08.bks.cpg/sg122_2_cif.got.tgz:2698.got - 2010.05.20 11:37:33.
