data_PCOD9561423
_publ_section_title
;
Structure prediction by ZEFSAII (Michael W. Deem and Ramdas Pophale) SiO2 
 PCOD9561423
Probable space group: I -4 2 D
;
_chemical_formula_sum "Si O2"
_cell_formula_units_Z 36
_cell_length_a 13.380623
_cell_length_b 13.380623
_cell_length_c 8.596231
_cell_angle_alpha 90.000000
_cell_angle_beta 90.000000
_cell_angle_gamma 90.000000
_cell_volume 1539.078412
_symmetry_space_group_name_H-M "I -4 2 D"
_symmetry_group_IT_number 122
_symmetry_cell_setting 'tetragonal'
loop_
_space_group_symop_operation_xyz
x,y,z
y,-x,-z
-x,-y,z
-y,x,-z
x,1/2-y,1/4-z
-x,1/2+y,1/4-z
-y,1/2-x,1/4+z
y,1/2+x,1/4+z
1/2+x,1/2+y,1/2+z
1/2+y,1/2-x,1/2-z
1/2-x,1/2-y,1/2+z
1/2-y,1/2+x,1/2-z
1/2+x,-y,3/4-z
1/2-x,y,3/4-z
1/2-y,-x,3/4+z
1/2+y,x,3/4+z
loop_
_atom_site_type_symbol
_atom_site_label
_atom_site_fract_x
_atom_site_fract_y
_atom_site_fract_z
Si Si1 0.639892 0.847109 0.824315
Si Si2 0.443307 0.362282 0.752079
Si Si3 0.500000 0.000000 0.250000
O O1 0.750000 0.813658 0.875000
O O2 0.570326 0.748930 0.820435
O O3 0.630513 0.877445 0.642917
O O4 0.620118 0.945379 0.929190
O O5 0.427060 0.438099 0.890696
#
# Coordination Sequence:
#
# PCOD9561423 Si02
#       3
#    16  16   4
#     4  11  23  51  78 106 151 216 267 340 415 498
#     4  11  26  47  79 111 161 206 274 340 418 505
#     4  12  28  42  72 124 160 210 268 344 420 498
#
# _framework density 23.390622
#
# number of rings (size 3 to 8) (size 9 to 14) (size 15 to 20)
#    0.000    0.889    4.444    2.667    0.000    8.889 
#    0.000    0.000    0.000    0.000    0.000    0.000 
#    0.000    0.000    0.000    0.000    0.000    0.000 
#
# Total GULP energy -100533.355046 kJ/mol
# GULP energy per Si atom -5585.186391 kJ/mol
# Density = 2.333738 g / cm^3
# Si number density = 23.390622 Si / 1000 Ang^3
#
#
#
# Elastic Constant Matrix: (Units=GPa)
#
#
# Indices 1 2 3 4 5 6 
#
# 1 120.2440 30.5678 58.9151 0.0000 0.0000 0.0000
# 2 30.5678 120.2440 58.9151 0.0000 0.0000 0.0000
# 3 58.9151 58.9151 101.2986 0.0000 0.0000 0.0000
# 4 0.0000 0.0000 0.0000 45.2818 0.0000 0.0000
# 5 0.0000 0.0000 0.0000 0.0000 45.2818 0.0000
# 6 0.0000 0.0000 0.0000 0.0000 0.0000 28.9255
#
#
#
# Elastic Compliance Matrix: (Units=1/GPa)
#
#
# Indices 1 2 3 4 5 6 
#
# 1 0.011652 0.000501 -0.007068 0.000000 0.000000 0.000000
# 2 0.000501 0.011652 -0.007068 0.000000 0.000000 0.000000
# 3 -0.007068 -0.007068 0.018094 0.000000 0.000000 0.000000
# 4 0.000000 0.000000 0.000000 0.022084 0.000000 0.000000
# 5 0.000000 0.000000 0.000000 0.000000 0.022084 0.000000
# 6 0.000000 0.000000 0.000000 0.000000 0.000000 0.034572
#
#
# Mechanical properties :
#
#
# Convention : Reuss Voigt Hill
#
# Bulk Modulus (GPa) = 70.78680 70.95362 70.87021
# Shear Modulus (GPa) = 32.86925 36.79042 34.82984
#
# Velocity S-wave (km/s) = 3.75271 3.97025 3.86301
# Velocity P-wave (km/s) = 7.00755 7.17058 7.08953
#
# Compressibility (1/GPa) = 0.01412693
#
# Stress axis : x y z
#
# Youngs Moduli (GPa) = 85.82016 85.82016 55.26789
#
# Poissons Ratio (x) = -0.04300 0.39065
# Poissons Ratio (y) = -0.04300 0.39065
# Poissons Ratio (z) = 0.60661 0.60661
#
# Static dielectric constant tensor:
#      x y z
#    x 1.926050 0.000000 0.000000 
#    y 0.000000 1.926050 0.000000 
#    z 0.000000 0.000000 1.840320 
# 
# From -- ./inp_files/1750.got.cif
#   From: 2010.05.17/outbox.cif.g08.bks.cpg/sg122_1_cif.got.tgz:1750.got - 2010.05.20 11:37:33.
