data_PCOD9561075
_publ_section_title
;
Structure prediction by ZEFSAII (Michael W. Deem and Ramdas Pophale) SiO2 
 PCOD9561075
Probable space group: I -4 2 D
;
_chemical_formula_sum "Si O2"
_cell_formula_units_Z 32
_cell_length_a 13.154891
_cell_length_b 13.154891
_cell_length_c 6.708004
_cell_angle_alpha 90.000000
_cell_angle_beta 90.000000
_cell_angle_gamma 90.000000
_cell_volume 1160.827855
_symmetry_space_group_name_H-M "I -4 2 D"
_symmetry_group_IT_number 122
_symmetry_cell_setting 'tetragonal'
loop_
_space_group_symop_operation_xyz
x,y,z
y,-x,-z
-x,-y,z
-y,x,-z
x,1/2-y,1/4-z
-x,1/2+y,1/4-z
-y,1/2-x,1/4+z
y,1/2+x,1/4+z
1/2+x,1/2+y,1/2+z
1/2+y,1/2-x,1/2-z
1/2-x,1/2-y,1/2+z
1/2-y,1/2+x,1/2-z
1/2+x,-y,3/4-z
1/2-x,y,3/4-z
1/2-y,-x,3/4+z
1/2+y,x,3/4+z
loop_
_atom_site_type_symbol
_atom_site_label
_atom_site_fract_x
_atom_site_fract_y
_atom_site_fract_z
Si Si1 0.750000 0.229177 0.875000
Si Si2 0.432080 0.374201 0.402147
Si Si3 0.566799 0.250000 0.125000
O O1 0.709645 0.151200 0.704541
O O2 0.854812 0.279600 0.801447
O O3 0.381753 0.485174 0.415605
O O4 0.497221 0.338561 0.213768
#
# Coordination Sequence:
#
# PCOD9561075 Si02
#       3
#     8  16   8
#     4  10  22  38  62  94 128 168 218 272 330 392
#     4   9  20  39  60  88 124 168 217 268 325 393
#     4  10  22  38  62  92 128 168 216 276 332 388
#
# _framework density 27.566531999999999
#
# number of rings (size 3 to 8) (size 9 to 14) (size 15 to 20)
#    0.000    2.500    0.000    0.000    0.000   14.000 
#    0.000    0.000    0.000    0.000    0.000    0.000 
#    0.000    0.000    0.000    0.000    0.000    0.000 
#
# Total GULP energy -89455.413800 kJ/mol
# GULP energy per Si atom -5590.963363 kJ/mol
# Density = 2.750379 g / cm^3
# Si number density = 27.566532 Si / 1000 Ang^3
#
#
#
# Elastic Constant Matrix: (Units=GPa)
#
#
# Indices 1 2 3 4 5 6 
#
# 1 156.7039 67.0373 40.3453 0.0000 0.0000 0.0000
# 2 67.0373 156.7039 40.3453 0.0000 0.0000 0.0000
# 3 40.3453 40.3453 95.5491 0.0000 0.0000 0.0000
# 4 0.0000 0.0000 0.0000 69.5472 0.0000 0.0000
# 5 0.0000 0.0000 0.0000 0.0000 69.5472 0.0000
# 6 0.0000 0.0000 0.0000 0.0000 0.0000 48.3121
#
#
#
# Elastic Compliance Matrix: (Units=1/GPa)
#
#
# Indices 1 2 3 4 5 6 
#
# 1 0.008212 -0.002940 -0.002226 0.000000 0.000000 0.000000
# 2 -0.002940 0.008212 -0.002226 0.000000 0.000000 0.000000
# 3 -0.002226 -0.002226 0.012346 0.000000 0.000000 0.000000
# 4 0.000000 0.000000 0.000000 0.014379 0.000000 0.000000
# 5 0.000000 0.000000 0.000000 0.000000 0.014379 0.000000
# 6 0.000000 0.000000 0.000000 0.000000 0.000000 0.020699
#
#
# Mechanical properties :
#
#
# Convention : Reuss Voigt Hill
#
# Bulk Modulus (GPa) = 71.50204 78.26805 74.88505
# Shear Modulus (GPa) = 51.19090 54.89658 53.04374
#
# Velocity S-wave (km/s) = 4.31396 4.46738 4.39134
# Velocity P-wave (km/s) = 7.12797 7.42051 7.27571
#
# Compressibility (1/GPa) = 0.01398562
#
# Stress axis : x y z
#
# Youngs Moduli (GPa) = 121.76749 121.76749 80.99890
#
# Poissons Ratio (x) = 0.35800 0.18032
# Poissons Ratio (y) = 0.35800 0.18032
# Poissons Ratio (z) = 0.27108 0.27108
#
# Static dielectric constant tensor:
#      x y z
#    x 2.116130 0.000000 0.000000 
#    y 0.000000 2.116130 0.000000 
#    z 0.000000 0.000000 2.436210 
# 
# From -- ./inp_files/289.got.cif
#   From: 2010.05.17/outbox.cif.g08.bks.cpg/sg122_1_cif.got.tgz:289.got - 2010.05.20 11:37:33.
