data_PCOD9561575
_publ_section_title
;
Structure prediction by ZEFSAII (Michael W. Deem and Ramdas Pophale) SiO2 
 PCOD9561575
Probable space group: I -4 2 D
;
_chemical_formula_sum "Si O2"
_cell_formula_units_Z 48
_cell_length_a 8.070878
_cell_length_b 8.070878
_cell_length_c 30.500297
_cell_angle_alpha 90.000000
_cell_angle_beta 90.000000
_cell_angle_gamma 90.000000
_cell_volume 1986.761033
_symmetry_space_group_name_H-M "I -4 2 D"
_symmetry_group_IT_number 122
_symmetry_cell_setting 'tetragonal'
loop_
_space_group_symop_operation_xyz
x,y,z
y,-x,-z
-x,-y,z
-y,x,-z
x,1/2-y,1/4-z
-x,1/2+y,1/4-z
-y,1/2-x,1/4+z
y,1/2+x,1/4+z
1/2+x,1/2+y,1/2+z
1/2+y,1/2-x,1/2-z
1/2-x,1/2-y,1/2+z
1/2-y,1/2+x,1/2-z
1/2+x,-y,3/4-z
1/2-x,y,3/4-z
1/2-y,-x,3/4+z
1/2+y,x,3/4+z
loop_
_atom_site_type_symbol
_atom_site_label
_atom_site_fract_x
_atom_site_fract_y
_atom_site_fract_z
Si Si1 0.110075 0.832115 0.712534
Si Si2 0.726573 0.810830 0.194587
Si Si3 0.701139 0.005618 0.116268
O O1 0.199805 0.810532 0.758387
O O2 0.220455 0.845431 0.668471
O O3 0.969884 0.694479 0.705180
O O4 0.000000 0.000000 0.716739
O O5 0.754829 0.651351 0.163811
O O6 0.771933 0.968162 0.164288
O O7 0.500000 0.000000 0.121883
#
# Coordination Sequence:
#
# PCOD9561575 Si02
#       3
#    16  16  16
#     4   9  19  32  51  78 105 130 175 215 253 320
#     4   9  17  31  52  73 102 137 159 215 270 289
#     4   8  17  32  49  74 104 125 168 217 249 305
#
# _framework density 24.159927
#
# number of rings (size 3 to 8) (size 9 to 14) (size 15 to 20)
#    0.000    4.000    0.000    0.000    4.667    0.000 
#    0.000    0.000   29.333    9.000    0.000    0.000 
#    0.000    0.000    0.000    0.000    0.000    0.000 
#
# Total GULP energy -133606.444783 kJ/mol
# GULP energy per Si atom -5566.935199 kJ/mol
# Density = 2.410494 g / cm^3
# Si number density = 24.159927 Si / 1000 Ang^3
#
#
#
# Elastic Constant Matrix: (Units=GPa)
#
#
# Indices 1 2 3 4 5 6 
#
# 1 38.8750 7.1855 13.8526 0.0000 0.0000 0.0000
# 2 7.1855 38.8750 13.8526 0.0000 0.0000 0.0000
# 3 13.8526 13.8526 188.7996 0.0000 0.0000 0.0000
# 4 0.0000 0.0000 0.0000 38.2139 0.0000 0.0000
# 5 0.0000 0.0000 0.0000 0.0000 38.2139 0.0000
# 6 0.0000 0.0000 0.0000 0.0000 0.0000 5.6261
#
#
#
# Elastic Compliance Matrix: (Units=1/GPa)
#
#
# Indices 1 2 3 4 5 6 
#
# 1 0.027135 -0.004422 -0.001666 0.000000 0.000000 0.000000
# 2 -0.004422 0.027135 -0.001666 0.000000 0.000000 0.000000
# 3 -0.001666 -0.001666 0.005541 0.000000 0.000000 0.000000
# 4 0.000000 0.000000 0.000000 0.026168 0.000000 0.000000
# 5 0.000000 0.000000 0.000000 0.000000 0.026168 0.000000
# 6 0.000000 0.000000 0.000000 0.000000 0.000000 0.177744
#
#
# Mechanical properties :
#
#
# Convention : Reuss Voigt Hill
#
# Bulk Modulus (GPa) = 22.57278 37.37010 29.97144
# Shear Modulus (GPa) = 15.61681 31.85469 23.73575
#
# Velocity S-wave (km/s) = 2.54518 3.63505 3.13780
# Velocity P-wave (km/s) = 4.24272 5.75495 5.05569
#
# Compressibility (1/GPa) = 0.04430115
#
# Stress axis : x y z
#
# Youngs Moduli (GPa) = 36.85331 36.85333 180.46733
#
# Poissons Ratio (x) = 0.16295 0.30075
# Poissons Ratio (y) = 0.16295 0.30075
# Poissons Ratio (z) = 0.06142 0.06142
#
# Static dielectric constant tensor:
#      x y z
#    x 1.896090 0.000000 0.000000 
#    y 0.000000 1.896090 0.000000 
#    z 0.000000 0.000000 1.997520 
# 
# From -- ./inp_files/9012.got.cif
#   From: 2010.05.17/outbox.cif.g08.bks.cpg/sg122_5_cif.got.tgz:9012.got - 2010.05.20 11:37:33.
