data_PCOD9561372
_publ_section_title
;
Structure prediction by ZEFSAII (Michael W. Deem and Ramdas Pophale) SiO2 
 PCOD9561372
Probable space group: I -4 2 D
;
_chemical_formula_sum "Si O2"
_cell_formula_units_Z 96
_cell_length_a 20.501309
_cell_length_b 20.501309
_cell_length_c 11.188259
_cell_angle_alpha 90.000000
_cell_angle_beta 90.000000
_cell_angle_gamma 90.000000
_cell_volume 4702.466327
_symmetry_space_group_name_H-M "I -4 2 D"
_symmetry_group_IT_number 122
_symmetry_cell_setting 'tetragonal'
loop_
_space_group_symop_operation_xyz
x,y,z
y,-x,-z
-x,-y,z
-y,x,-z
x,1/2-y,1/4-z
-x,1/2+y,1/4-z
-y,1/2-x,1/4+z
y,1/2+x,1/4+z
1/2+x,1/2+y,1/2+z
1/2+y,1/2-x,1/2-z
1/2-x,1/2-y,1/2+z
1/2-y,1/2+x,1/2-z
1/2+x,-y,3/4-z
1/2-x,y,3/4-z
1/2-y,-x,3/4+z
1/2+y,x,3/4+z
loop_
_atom_site_type_symbol
_atom_site_label
_atom_site_fract_x
_atom_site_fract_y
_atom_site_fract_z
Si Si1 0.324041 0.345444 0.350827
Si Si2 0.924506 0.682102 0.580007
Si Si3 0.659606 0.984657 0.638802
Si Si4 0.489012 0.808670 0.486730
Si Si5 0.585539 0.856501 0.676255
Si Si6 0.968445 0.905309 0.472865
O O1 0.250000 0.327751 0.375000
O O2 0.356593 0.309504 0.238786
O O3 0.324261 0.422681 0.311601
O O4 0.366441 0.330106 0.469285
O O5 0.952081 0.750000 0.625000
O O6 0.972113 0.654563 0.479031
O O7 0.921295 0.637364 0.695284
O O8 0.736044 0.981577 0.680388
O O9 0.622618 0.022936 0.744728
O O10 0.626765 0.915247 0.621345
O O11 0.552236 0.813863 0.572664
O O12 0.502663 0.862814 0.384930
O O13 0.028825 0.929514 0.555554
#
# Coordination Sequence:
#
# PCOD9561372 Si02
#       6
#    16  16  16  16  16  16
#     4  11  22  42  67  91 129 171 213 270 323 379
#     4  11  23  42  63  92 128 173 216 262 322 384
#     4  11  23  39  65  93 129 168 208 272 319 392
#     4  12  21  42  66  90 134 170 211 270 330 389
#     4  11  22  38  63  97 123 164 216 260 332 382
#     4  11  23  40  64  95 129 167 213 264 330 400
#
# _framework density 20.414819000000001
#
# number of rings (size 3 to 8) (size 9 to 14) (size 15 to 20)
#    0.000    0.833    6.667    1.500    0.000    0.333 
#    0.000    3.333    0.000    0.000    0.000    0.000 
#    0.000    0.000    0.000    0.000    0.000    0.000 
#
# Total GULP energy -267712.996582 kJ/mol
# GULP energy per Si atom -5577.354095 kJ/mol
# Density = 2.036835 g / cm^3
# Si number density = 20.414819 Si / 1000 Ang^3
#
#
#
# Elastic Constant Matrix: (Units=GPa)
#
#
# Indices 1 2 3 4 5 6 
#
# 1 49.6348 10.4797 14.6524 0.0000 0.0000 0.0000
# 2 10.4797 49.6348 14.6524 0.0000 0.0000 0.0000
# 3 14.6524 14.6524 63.1063 0.0000 0.0000 0.0000
# 4 0.0000 0.0000 0.0000 26.9697 0.0000 0.0000
# 5 0.0000 0.0000 0.0000 0.0000 26.9697 0.0000
# 6 0.0000 0.0000 0.0000 0.0000 0.0000 22.2002
#
#
#
# Elastic Compliance Matrix: (Units=1/GPa)
#
#
# Indices 1 2 3 4 5 6 
#
# 1 0.022149 -0.003391 -0.004355 0.000000 0.000000 0.000000
# 2 -0.003391 0.022149 -0.004355 0.000000 0.000000 0.000000
# 3 -0.004355 -0.004355 0.017869 0.000000 0.000000 0.000000
# 4 0.000000 0.000000 0.000000 0.037079 0.000000 0.000000
# 5 0.000000 0.000000 0.000000 0.000000 0.037079 0.000000
# 6 0.000000 0.000000 0.000000 0.000000 0.000000 0.045045
#
#
# Mechanical properties :
#
#
# Convention : Reuss Voigt Hill
#
# Bulk Modulus (GPa) = 26.34108 26.88275 26.61192
# Shear Modulus (GPa) = 22.91206 23.40067 23.15636
#
# Velocity S-wave (km/s) = 3.35375 3.38932 3.37158
# Velocity P-wave (km/s) = 5.28467 5.33980 5.31231
#
# Compressibility (1/GPa) = 0.03796352
#
# Stress axis : x y z
#
# Youngs Moduli (GPa) = 45.14920 45.14920 55.96351
#
# Poissons Ratio (x) = 0.15309 0.24374
# Poissons Ratio (y) = 0.15309 0.24374
# Poissons Ratio (z) = 0.19664 0.19664
#
# Static dielectric constant tensor:
#      x y z
#    x 1.757800 0.000000 0.000000 
#    y 0.000000 1.757800 0.000000 
#    z 0.000000 0.000000 1.727140 
# 
# From -- ./inp_files/4454.got.cif
#   From: 2010.05.17/outbox.cif.g08.bks.cpg/sg122_3_cif.got.tgz:4454.got - 2010.05.20 11:37:33.
