data_PCOD9561144
_publ_section_title
;
Structure prediction by ZEFSAII (Michael W. Deem and Ramdas Pophale) SiO2 
 PCOD9561144
Probable space group: I -4 2 D
;
_chemical_formula_sum "Si O2"
_cell_formula_units_Z 96
_cell_length_a 14.477768
_cell_length_b 14.477768
_cell_length_c 19.133054
_cell_angle_alpha 90.000000
_cell_angle_beta 90.000000
_cell_angle_gamma 90.000000
_cell_volume 4010.398445
_symmetry_space_group_name_H-M "I -4 2 D"
_symmetry_group_IT_number 122
_symmetry_cell_setting 'tetragonal'
loop_
_space_group_symop_operation_xyz
x,y,z
y,-x,-z
-x,-y,z
-y,x,-z
x,1/2-y,1/4-z
-x,1/2+y,1/4-z
-y,1/2-x,1/4+z
y,1/2+x,1/4+z
1/2+x,1/2+y,1/2+z
1/2+y,1/2-x,1/2-z
1/2-x,1/2-y,1/2+z
1/2-y,1/2+x,1/2-z
1/2+x,-y,3/4-z
1/2-x,y,3/4-z
1/2-y,-x,3/4+z
1/2+y,x,3/4+z
loop_
_atom_site_type_symbol
_atom_site_label
_atom_site_fract_x
_atom_site_fract_y
_atom_site_fract_z
Si Si1 0.835896 0.017793 0.920128
Si Si2 0.012894 0.708363 0.852486
Si Si3 0.693700 0.280306 0.807284
Si Si4 0.869996 0.692485 0.306250
Si Si5 0.000000 0.000000 0.837065
Si Si6 0.976915 0.843726 0.735812
Si Si7 0.000000 0.000000 0.624800
O O1 0.750000 0.048223 0.875000
O O2 0.929257 0.054475 0.885332
O O3 0.844777 0.908051 0.915435
O O4 0.824980 0.052093 0.997780
O O5 0.914789 0.742307 0.885343
O O6 0.032944 0.771766 0.784225
O O7 0.013454 0.598482 0.837019
O O8 0.088146 0.723181 0.914383
O O9 0.750000 0.252269 0.875000
O O10 0.719538 0.218190 0.740770
O O11 0.709965 0.387160 0.789777
O O12 0.051667 0.072624 0.788079
O O13 0.015965 0.906833 0.672650
#
# Coordination Sequence:
#
# PCOD9561144 Si02
#       7
#    16  16  16  16   8  16   8
#     4  12  24  38  60  98 140 176 212 266 330 405
#     4  11  23  42  68 100 131 181 228 276 352 402
#     4  11  25  45  64  97 138 176 230 282 332 405
#     4  12  23  37  62  97 135 173 216 266 338 414
#     4  11  20  37  63  97 140 175 213 268 340 399
#     4  10  22  42  69  95 133 178 223 283 335 400
#     4   9  24  42  69 102 143 172 229 290 338 417
#
# _framework density 23.937771000000001
#
# number of rings (size 3 to 8) (size 9 to 14) (size 15 to 20)
#    0.000    1.000    3.333    3.500    7.000    0.000 
#    0.000    3.333    0.000    2.000    0.000    0.000 
#    0.000    0.000    0.000    0.000    0.000    0.000 
#
# Total GULP energy -268152.451411 kJ/mol
# GULP energy per Si atom -5586.509404 kJ/mol
# Density = 2.388329 g / cm^3
# Si number density = 23.937771 Si / 1000 Ang^3
#
#
#
# Elastic Constant Matrix: (Units=GPa)
#
#
# Indices 1 2 3 4 5 6 
#
# 1 93.0071 3.6347 13.3872 0.0000 0.0000 0.0000
# 2 3.6347 93.0071 13.3872 0.0000 0.0000 0.0000
# 3 13.3872 13.3872 29.9217 0.0000 0.0000 0.0000
# 4 0.0000 0.0000 0.0000 57.0161 0.0000 0.0000
# 5 0.0000 0.0000 0.0000 0.0000 57.0161 0.0000
# 6 0.0000 0.0000 0.0000 0.0000 0.0000 10.0404
#
#
#
# Elastic Compliance Matrix: (Units=1/GPa)
#
#
# Indices 1 2 3 4 5 6 
#
# 1 0.011500 0.000311 -0.005285 0.000000 0.000000 0.000000
# 2 0.000311 0.011500 -0.005285 0.000000 0.000000 0.000000
# 3 -0.005285 -0.005285 0.038149 0.000000 0.000000 0.000000
# 4 0.000000 0.000000 0.000000 0.017539 0.000000 0.000000
# 5 0.000000 0.000000 0.000000 0.000000 0.017539 0.000000
# 6 0.000000 0.000000 0.000000 0.000000 0.000000 0.099598
#
#
# Mechanical properties :
#
#
# Convention : Reuss Voigt Hill
#
# Bulk Modulus (GPa) = 24.60989 30.75047 27.68018
# Shear Modulus (GPa) = 21.74989 37.18295 29.46642
#
# Velocity S-wave (km/s) = 3.01757 3.94549 3.51231
# Velocity P-wave (km/s) = 4.73752 5.79912 5.29499
#
# Compressibility (1/GPa) = 0.04063407
#
# Stress axis : x y z
#
# Youngs Moduli (GPa) = 86.95377 86.95377 26.21276
#
# Poissons Ratio (x) = -0.02706 0.13852
# Poissons Ratio (y) = -0.02706 0.13852
# Poissons Ratio (z) = 0.45952 0.45952
#
# Static dielectric constant tensor:
#      x y z
#    x 1.926610 0.000000 0.000000 
#    y 0.000000 1.926610 0.000000 
#    z 0.000000 0.000000 1.903130 
# 
# From -- ./inp_files/7348.got.cif
#   From: 2010.05.17/outbox.cif.g08.bks.cpg/sg122_4_cif.got.tgz:7348.got - 2010.05.20 11:37:33.
