data_PCOD9561039
_publ_section_title
;
Structure prediction by ZEFSAII (Michael W. Deem and Ramdas Pophale) SiO2 
 PCOD9561039
Probable space group: I -4 2 D
;
_chemical_formula_sum "Si O2"
_cell_formula_units_Z 96
_cell_length_a 13.230503
_cell_length_b 13.230503
_cell_length_c 20.923194
_cell_angle_alpha 90.000000
_cell_angle_beta 90.000000
_cell_angle_gamma 90.000000
_cell_volume 3662.525803
_symmetry_space_group_name_H-M "I -4 2 D"
_symmetry_group_IT_number 122
_symmetry_cell_setting 'tetragonal'
loop_
_space_group_symop_operation_xyz
x,y,z
y,-x,-z
-x,-y,z
-y,x,-z
x,1/2-y,1/4-z
-x,1/2+y,1/4-z
-y,1/2-x,1/4+z
y,1/2+x,1/4+z
1/2+x,1/2+y,1/2+z
1/2+y,1/2-x,1/2-z
1/2-x,1/2-y,1/2+z
1/2-y,1/2+x,1/2-z
1/2+x,-y,3/4-z
1/2-x,y,3/4-z
1/2-y,-x,3/4+z
1/2+y,x,3/4+z
loop_
_atom_site_type_symbol
_atom_site_label
_atom_site_fract_x
_atom_site_fract_y
_atom_site_fract_z
Si Si1 0.862909 0.250000 0.625000
Si Si2 0.875355 0.660279 0.677588
Si Si3 0.032757 0.103741 0.685460
Si Si4 0.652084 0.924491 0.749935
Si Si5 0.668367 0.895452 0.607110
Si Si6 0.514834 0.250000 0.625000
Si Si7 0.761990 0.406571 0.043175
O O1 0.790634 0.181122 0.581964
O O2 0.935235 0.173843 0.666678
O O3 0.892348 0.750000 0.625000
O O4 0.911805 0.572059 0.630798
O O5 0.755423 0.655658 0.685944
O O6 0.937456 0.672411 0.742319
O O7 0.106533 0.156229 0.736770
O O8 0.000000 0.000000 0.717212
O O9 0.629135 0.043969 0.741030
O O10 0.714297 0.919772 0.815073
O O11 0.693079 0.886651 0.682247
O O12 0.560679 0.840458 0.602201
O O13 0.683655 0.011219 0.587174
#
# Coordination Sequence:
#
# PCOD9561039 Si02
#       7
#     8  16  16  16  16   8  16
#     4  12  24  47  79 120 160 218 266 341 421 498
#     4  10  21  42  65 102 148 192 249 322 380 467
#     4  11  24  48  76 116 161 211 275 339 410 497
#     4   9  21  45  68 103 146 186 252 315 378 465
#     4  11  22  43  71 105 144 200 248 323 385 470
#     4  10  22  43  77 104 142 198 250 313 399 450
#     4  11  25  44  73 112 160 200 272 329 406 487
#
# _framework density 26.211418999999999
#
# number of rings (size 3 to 8) (size 9 to 14) (size 15 to 20)
#    0.000    1.500    3.333    2.000    0.000    4.000 
#   15.000    0.000    0.000    0.000    6.500    0.000 
#    0.000    0.000    0.000    0.000    0.000    0.000 
#
# Total GULP energy -267948.716311 kJ/mol
# GULP energy per Si atom -5582.264923 kJ/mol
# Density = 2.615176 g / cm^3
# Si number density = 26.211419 Si / 1000 Ang^3
#
#
#
# Elastic Constant Matrix: (Units=GPa)
#
#
# Indices 1 2 3 4 5 6 
#
# 1 80.7472 27.6983 29.1445 0.0000 0.0000 0.0000
# 2 27.6983 80.7472 29.1445 0.0000 0.0000 0.0000
# 3 29.1445 29.1445 125.2575 0.0000 0.0000 0.0000
# 4 0.0000 0.0000 0.0000 37.7010 0.0000 0.0000
# 5 0.0000 0.0000 0.0000 0.0000 37.7010 0.0000
# 6 0.0000 0.0000 0.0000 0.0000 0.0000 -9.5267
#
#
#
# Elastic Compliance Matrix: (Units=1/GPa)
#
#
# Indices 1 2 3 4 5 6 
#
# 1 0.014695 -0.004156 -0.002452 0.000000 0.000000 0.000000
# 2 -0.004156 0.014695 -0.002452 0.000000 0.000000 0.000000
# 3 -0.002452 -0.002452 0.009125 0.000000 0.000000 0.000000
# 4 0.000000 0.000000 0.000000 0.026525 0.000000 0.000000
# 5 0.000000 0.000000 0.000000 0.000000 0.026525 0.000000
# 6 0.000000 0.000000 0.000000 0.000000 0.000000 -0.104968
#
#
# Mechanical properties :
#
#
# Convention : Reuss Voigt Hill
#
# Bulk Modulus (GPa) = 49.03328 50.96961 50.00144
# Shear Modulus (GPa) = 434.25250 26.55935 230.40592
#
# Velocity S-wave (km/s) = 12.88537 3.18665 9.38582
# Velocity P-wave (km/s) = 15.49595 5.74695 11.68657
#
# Compressibility (1/GPa) = 0.02039431
#
# Stress axis : x y z
#
# Youngs Moduli (GPa) = 68.05071 68.05071 109.59250
#
# Poissons Ratio (x) = 0.28279 0.26875
# Poissons Ratio (y) = 0.28279 0.26875
# Poissons Ratio (z) = 0.16688 0.16688
#
# Static dielectric constant tensor:
#      x y z
#    x 2.254730 0.000000 0.000000 
#    y 0.000000 2.254730 0.000000 
#    z 0.000000 0.000000 2.096970 
# 
# From -- ./inp_files/7362.got.cif
#   From: 2010.05.17/outbox.cif.g08.bks.cpg/sg122_4_cif.got.tgz:7362.got - 2010.05.20 11:37:33.
