data_PCOD9561535
_publ_section_title
;
Structure prediction by ZEFSAII (Michael W. Deem and Ramdas Pophale) SiO2 
 PCOD9561535
Probable space group: I -4 2 D
;
_chemical_formula_sum "Si O2"
_cell_formula_units_Z 40
_cell_length_a 19.262084
_cell_length_b 19.262084
_cell_length_c 4.941882
_cell_angle_alpha 90.000000
_cell_angle_beta 90.000000
_cell_angle_gamma 90.000000
_cell_volume 1833.576002
_symmetry_space_group_name_H-M "I -4 2 D"
_symmetry_group_IT_number 122
_symmetry_cell_setting 'tetragonal'
loop_
_space_group_symop_operation_xyz
x,y,z
y,-x,-z
-x,-y,z
-y,x,-z
x,1/2-y,1/4-z
-x,1/2+y,1/4-z
-y,1/2-x,1/4+z
y,1/2+x,1/4+z
1/2+x,1/2+y,1/2+z
1/2+y,1/2-x,1/2-z
1/2-x,1/2-y,1/2+z
1/2-y,1/2+x,1/2-z
1/2+x,-y,3/4-z
1/2-x,y,3/4-z
1/2-y,-x,3/4+z
1/2+y,x,3/4+z
loop_
_atom_site_type_symbol
_atom_site_label
_atom_site_fract_x
_atom_site_fract_y
_atom_site_fract_z
Si Si1 0.102965 0.873571 0.168246
Si Si2 0.833306 0.981436 0.343783
Si Si3 0.250000 0.296054 0.375000
O O1 0.037148 0.865391 0.366006
O O2 0.156129 0.811719 0.234842
O O3 0.139680 0.946079 0.226255
O O4 0.077371 0.859275 0.864766
O O5 0.750000 0.981405 0.375000
O O6 0.275905 0.250000 0.625000
#
# Coordination Sequence:
#
# PCOD9561535 Si02
#       3
#    16  16   8
#     4  12  26  45  73 102 146 191 234 307 365 439
#     4  12  25  47  70 104 146 187 243 300 368 438
#     4  12  24  44  72 104 136 184 252 294 360 426
#
# _framework density 21.815293
#
# number of rings (size 3 to 8) (size 9 to 14) (size 15 to 20)
#    0.000    0.000    4.000    6.000    0.000    8.000 
#    0.000    0.000    0.000    0.000    0.000    0.000 
#    0.000    0.000    0.000    0.000    0.000    0.000 
#
# Total GULP energy -112021.005192 kJ/mol
# GULP energy per Si atom -5601.050260 kJ/mol
# Density = 2.176564 g / cm^3
# Si number density = 21.815293 Si / 1000 Ang^3
#
#
#
# Elastic Constant Matrix: (Units=GPa)
#
#
# Indices 1 2 3 4 5 6 
#
# 1 102.1845 36.0791 13.6604 0.0000 0.0000 0.0000
# 2 36.0791 102.1845 13.6604 0.0000 0.0000 0.0000
# 3 13.6604 13.6604 94.0643 0.0000 0.0000 0.0000
# 4 0.0000 0.0000 0.0000 33.3328 0.0000 0.0000
# 5 0.0000 0.0000 0.0000 0.0000 33.3328 0.0000
# 6 0.0000 0.0000 0.0000 0.0000 0.0000 -333.1852
#
#
#
# Elastic Compliance Matrix: (Units=1/GPa)
#
#
# Indices 1 2 3 4 5 6 
#
# 1 0.011287 -0.003841 -0.001081 0.000000 0.000000 0.000000
# 2 -0.003841 0.011287 -0.001081 0.000000 0.000000 0.000000
# 3 -0.001081 -0.001081 0.010945 0.000000 0.000000 0.000000
# 4 0.000000 0.000000 0.000000 0.030001 0.000000 0.000000
# 5 0.000000 0.000000 0.000000 0.000000 0.030001 0.000000
# 6 0.000000 0.000000 0.000000 0.000000 0.000000 -0.003001
#
#
# Mechanical properties :
#
#
# Convention : Reuss Voigt Hill
#
# Bulk Modulus (GPa) = 46.48546 47.24811 46.86678
# Shear Modulus (GPa) = 45.58064 -37.63503 3.97281
#
# Velocity S-wave (km/s) = 4.57594 -4.15802 1.35095
# Velocity P-wave (km/s) = 7.01954 1.16056 4.89525
#
# Compressibility (1/GPa) = 0.02151210
#
# Stress axis : x y z
#
# Youngs Moduli (GPa) = 88.59907 88.59907 91.36503
#
# Poissons Ratio (x) = 0.34027 0.09880
# Poissons Ratio (y) = 0.34027 0.09880
# Poissons Ratio (z) = 0.09581 0.09581
#
# Static dielectric constant tensor:
#      x y z
#    x 1.776570 0.000000 0.000000 
#    y 0.000000 1.776570 0.000000 
#    z 0.000000 0.000000 1.806610 
# 
# From -- ./inp_files/403.got.cif
#   From: 2010.05.17/outbox.cif.g08.bks.cpg/sg122_1_cif.got.tgz:403.got - 2010.05.20 11:37:33.
