data_PCOD9561460
_publ_section_title
;
Structure prediction by ZEFSAII (Michael W. Deem and Ramdas Pophale) SiO2 
 PCOD9561460
Probable space group: I -4 2 D
;
_chemical_formula_sum "Si O2"
_cell_formula_units_Z 108
_cell_length_a 28.796257
_cell_length_b 28.796257
_cell_length_c 6.195973
_cell_angle_alpha 90.000000
_cell_angle_beta 90.000000
_cell_angle_gamma 90.000000
_cell_volume 5137.852100
_symmetry_space_group_name_H-M "I -4 2 D"
_symmetry_group_IT_number 122
_symmetry_cell_setting 'tetragonal'
loop_
_space_group_symop_operation_xyz
x,y,z
y,-x,-z
-x,-y,z
-y,x,-z
x,1/2-y,1/4-z
-x,1/2+y,1/4-z
-y,1/2-x,1/4+z
y,1/2+x,1/4+z
1/2+x,1/2+y,1/2+z
1/2+y,1/2-x,1/2-z
1/2-x,1/2-y,1/2+z
1/2-y,1/2+x,1/2-z
1/2+x,-y,3/4-z
1/2-x,y,3/4-z
1/2-y,-x,3/4+z
1/2+y,x,3/4+z
loop_
_atom_site_type_symbol
_atom_site_label
_atom_site_fract_x
_atom_site_fract_y
_atom_site_fract_z
Si Si1 0.883966 0.549004 0.889053
Si Si2 0.592633 0.019498 0.011231
Si Si3 0.299007 0.795061 0.488225
Si Si4 0.203907 0.393598 0.729648
Si Si5 0.500000 0.000000 0.750000
Si Si6 0.606192 0.773292 0.873394
Si Si7 0.750000 0.547436 0.375000
Si Si8 0.326632 0.984211 0.699708
O O1 0.926729 0.580468 0.958900
O O2 0.904863 0.514915 0.710788
O O3 0.841413 0.581822 0.821925
O O4 0.862279 0.513312 0.058028
O O5 0.548673 0.000466 0.876700
O O6 0.644997 0.019075 0.920361
O O7 0.312574 0.750000 0.625000
O O8 0.250000 0.785023 0.375000
O O9 0.339490 0.804184 0.316197
O O10 0.292292 0.841373 0.629080
O O11 0.215532 0.420068 0.507645
O O12 0.250000 0.398766 0.875000
O O13 0.599161 0.750000 0.625000
O O14 0.566293 0.812182 0.881927
O O15 0.603409 0.750000 0.125000
O O16 0.720161 0.513962 0.527430
#
# Coordination Sequence:
#
# PCOD9561460 Si02
#       8
#    16  16  16  16   4  16   8  16
#     4  12  28  45  74 109 148 195 253 318 391 465
#     4  12  27  46  72 104 145 196 245 317 384 465
#     4  11  25  47  75 109 154 199 250 313 389 462
#     4  12  26  45  75 110 148 196 253 313 378 465
#     4  12  24  50  64  96 146 188 248 306 384 468
#     4  11  28  48  78 115 153 204 259 320 388 464
#     4  12  24  50  72 108 144 194 246 316 386 456
#     4  12  27  46  78 105 150 196 256 319 389 459
#
# _framework density 21.020457
#
# number of rings (size 3 to 8) (size 9 to 14) (size 15 to 20)
#    0.000    0.296    5.926    1.778    6.222    4.741 
#    0.000    0.000    0.000    0.000    0.000    0.000 
#    0.000    0.000    0.000    0.000    0.000    0.000 
#
# Total GULP energy -301235.231554 kJ/mol
# GULP energy per Si atom -5578.430214 kJ/mol
# Density = 2.097261 g / cm^3
# Si number density = 21.020457 Si / 1000 Ang^3
#
#
#
# Elastic Constant Matrix: (Units=GPa)
#
#
# Indices 1 2 3 4 5 6 
#
# 1 85.8684 3.4945 4.9317 0.0000 0.0000 0.0000
# 2 3.4945 85.8684 4.9317 0.0000 0.0000 0.0000
# 3 4.9317 4.9317 39.2070 0.0000 0.0000 0.0000
# 4 0.0000 0.0000 0.0000 15.0088 0.0000 0.0000
# 5 0.0000 0.0000 0.0000 0.0000 15.0088 0.0000
# 6 0.0000 0.0000 0.0000 0.0000 0.0000 -44.6421
#
#
#
# Elastic Compliance Matrix: (Units=1/GPa)
#
#
# Indices 1 2 3 4 5 6 
#
# 1 0.011744 -0.000396 -0.001427 0.000000 0.000000 0.000000
# 2 -0.000396 0.011744 -0.001427 0.000000 0.000000 0.000000
# 3 -0.001427 -0.001427 0.025865 0.000000 0.000000 0.000000
# 4 0.000000 0.000000 0.000000 0.066628 0.000000 0.000000
# 5 0.000000 0.000000 0.000000 0.000000 0.066628 0.000000
# 6 0.000000 0.000000 0.000000 0.000000 0.000000 -0.022400
#
#
# Mechanical properties :
#
#
# Convention : Reuss Voigt Hill
#
# Bulk Modulus (GPa) = 23.33675 26.40663 24.87169
# Shear Modulus (GPa) = 27.62544 10.24749 18.93646
#
# Velocity S-wave (km/s) = 3.62915 2.21034 3.00469
# Velocity P-wave (km/s) = 5.35602 4.37078 4.88829
#
# Compressibility (1/GPa) = 0.04285086
#
# Stress axis : x y z
#
# Youngs Moduli (GPa) = 85.15114 85.15114 38.66261
#
# Poissons Ratio (x) = 0.03371 0.05519
# Poissons Ratio (y) = 0.03371 0.05519
# Poissons Ratio (z) = 0.12155 0.12155
#
# Static dielectric constant tensor:
#      x y z
#    x 1.745760 0.000000 0.000000 
#    y 0.000000 1.745760 0.000000 
#    z 0.000000 0.000000 1.845280 
# 
# From -- ./inp_files/1569.got.cif
#   From: 2010.05.17/outbox.cif.g08.bks.cpg/sg122_1_cif.got.tgz:1569.got - 2010.05.20 11:37:33.
