data_PCOD9561113
_publ_section_title
;
Structure prediction by ZEFSAII (Michael W. Deem and Ramdas Pophale) SiO2 
 PCOD9561113
Probable space group: I -4 2 D
;
_chemical_formula_sum "Si O2"
_cell_formula_units_Z 88
_cell_length_a 13.063736
_cell_length_b 13.063736
_cell_length_c 21.071074
_cell_angle_alpha 90.000000
_cell_angle_beta 90.000000
_cell_angle_gamma 90.000000
_cell_volume 3596.014738
_symmetry_space_group_name_H-M "I -4 2 D"
_symmetry_group_IT_number 122
_symmetry_cell_setting 'tetragonal'
loop_
_space_group_symop_operation_xyz
x,y,z
y,-x,-z
-x,-y,z
-y,x,-z
x,1/2-y,1/4-z
-x,1/2+y,1/4-z
-y,1/2-x,1/4+z
y,1/2+x,1/4+z
1/2+x,1/2+y,1/2+z
1/2+y,1/2-x,1/2-z
1/2-x,1/2-y,1/2+z
1/2-y,1/2+x,1/2-z
1/2+x,-y,3/4-z
1/2-x,y,3/4-z
1/2-y,-x,3/4+z
1/2+y,x,3/4+z
loop_
_atom_site_type_symbol
_atom_site_label
_atom_site_fract_x
_atom_site_fract_y
_atom_site_fract_z
Si Si1 0.626017 0.337316 0.189255
Si Si2 0.159739 0.267460 0.487624
Si Si3 0.956869 0.291974 0.188702
Si Si4 0.309412 0.531338 0.570562
Si Si5 0.465026 0.617913 0.316177
Si Si6 0.431851 0.250000 0.125000
O O1 0.684219 0.227196 0.197721
O O2 0.698495 0.425883 0.163006
O O3 0.617849 0.372411 0.262165
O O4 0.517439 0.330807 0.152986
O O5 0.221878 0.373795 0.476927
O O6 0.136720 0.233472 0.561049
O O7 0.050352 0.300534 0.458920
O O8 0.007635 0.250000 0.125000
O O9 0.888614 0.381397 0.158966
O O10 0.025810 0.327164 0.246026
O O11 0.343033 0.437515 0.613826
O O12 0.500000 0.500000 0.315410
#
# Coordination Sequence:
#
# PCOD9561113 Si02
#       6
#    16  16  16  16  16   8
#     4  10  23  43  68  96 137 187 222 287 354 411
#     4  10  22  43  67  98 132 179 227 281 342 423
#     4  11  24  42  64  94 134 170 225 278 338 416
#     4  11  25  40  68  94 134 181 218 276 355 413
#     4  11  23  41  69 100 137 173 234 290 342 412
#     4  10  22  40  70  94 130 172 236 278 330 416
#
# _framework density 24.471536
#
# number of rings (size 3 to 8) (size 9 to 14) (size 15 to 20)
#    0.000    1.455    1.818    2.182    7.636    0.000 
#    3.273    0.000    8.000    4.909    0.000    0.000 
#    0.000    0.000    0.000    0.000    0.000    0.000 
#
# Total GULP energy -245261.732577 kJ/mol
# GULP energy per Si atom -5574.130286 kJ/mol
# Density = 2.441584 g / cm^3
# Si number density = 24.471536 Si / 1000 Ang^3
#
#
#
# Elastic Constant Matrix: (Units=GPa)
#
#
# Indices 1 2 3 4 5 6 
#
# 1 50.6521 12.8211 26.4160 0.0000 0.0000 0.0000
# 2 12.8211 50.6521 26.4160 0.0000 0.0000 0.0000
# 3 26.4160 26.4160 193.1935 0.0000 0.0000 0.0000
# 4 0.0000 0.0000 0.0000 31.2176 0.0000 0.0000
# 5 0.0000 0.0000 0.0000 0.0000 31.2176 0.0000
# 6 0.0000 0.0000 0.0000 0.0000 0.0000 5.4921
#
#
#
# Elastic Compliance Matrix: (Units=1/GPa)
#
#
# Indices 1 2 3 4 5 6 
#
# 1 0.022106 -0.004328 -0.002431 0.000000 0.000000 0.000000
# 2 -0.004328 0.022106 -0.002431 0.000000 0.000000 0.000000
# 3 -0.002431 -0.002431 0.005841 0.000000 0.000000 0.000000
# 4 0.000000 0.000000 0.000000 0.032033 0.000000 0.000000
# 5 0.000000 0.000000 0.000000 0.000000 0.032033 0.000000
# 6 0.000000 0.000000 0.000000 0.000000 0.000000 0.182078
#
#
# Mechanical properties :
#
#
# Convention : Reuss Voigt Hill
#
# Bulk Modulus (GPa) = 31.57208 47.31152 39.44180
# Shear Modulus (GPa) = 15.37829 28.84177 22.11003
#
# Velocity S-wave (km/s) = 2.50954 3.43678 3.00909
# Velocity P-wave (km/s) = 4.61808 5.92654 5.31274
#
# Compressibility (1/GPa) = 0.03167356
#
# Stress axis : x y z
#
# Youngs Moduli (GPa) = 45.23725 45.23725 171.20616
#
# Poissons Ratio (x) = 0.19577 0.41618
# Poissons Ratio (y) = 0.19577 0.41618
# Poissons Ratio (z) = 0.10996 0.10996
#
# Static dielectric constant tensor:
#      x y z
#    x 1.977040 0.000000 0.000000 
#    y 0.000000 1.977040 0.000000 
#    z 0.000000 0.000000 2.111370 
# 
# From -- ./inp_files/7172.got.cif
#   From: 2010.05.17/outbox.cif.g08.bks.cpg/sg122_4_cif.got.tgz:7172.got - 2010.05.20 11:37:33.
