data_PCOD9561735
_publ_section_title
;
Structure prediction by ZEFSAII (Michael W. Deem and Ramdas Pophale) SiO2 
 PCOD9561735
Probable space group: P 4/M M M
;
_chemical_formula_sum "Si O2"
_cell_formula_units_Z 104
_cell_length_a 27.400794
_cell_length_b 27.400794
_cell_length_c 8.826801
_cell_angle_alpha 90.000000
_cell_angle_beta 90.000000
_cell_angle_gamma 90.000000
_cell_volume 6627.193189
_symmetry_space_group_name_H-M "P 4/M M M"
_symmetry_group_IT_number 123
_symmetry_cell_setting 'tetragonal'
loop_
_space_group_symop_operation_xyz
x,y,z
-y,x,z
-x,-y,z
y,-x,z
x,-y,-z
-x,y,-z
y,x,-z
-y,-x,-z
-x,-y,-z
y,-x,-z
x,y,-z
-y,x,-z
-x,y,z
x,-y,z
-y,-x,z
y,x,z
loop_
_atom_site_type_symbol
_atom_site_label
_atom_site_fract_x
_atom_site_fract_y
_atom_site_fract_z
Si Si1 0.555572 0.000000 0.184415
Si Si2 0.370165 0.289967 0.680825
Si Si3 0.945644 0.262382 0.681277
Si Si4 0.367128 0.919625 0.817265
Si Si5 0.187868 0.658459 0.818411
Si Si6 0.153574 0.232750 0.817339
Si Si7 0.556080 0.364417 0.817107
O O1 0.587048 0.952528 0.228930
O O2 0.500000 0.000000 0.239456
O O3 0.553927 0.000000 0.000000
O O4 0.373970 0.290247 0.500000
O O5 0.323364 0.323364 0.724547
O O6 0.362267 0.235641 0.740256
O O7 0.416733 0.317213 0.751199
O O8 0.942024 0.263075 0.500000
O O9 0.939377 0.317506 0.743252
O O10 0.900484 0.232372 0.748906
O O11 0.000000 0.244991 0.723802
O O12 0.369958 0.862215 0.780867
O O13 0.361545 0.923482 0.000000
O O14 0.177859 0.715060 0.775643
O O15 0.194532 0.656900 0.000000
O O16 0.188670 0.188670 0.769911
O O17 0.149836 0.232436 0.000000
O O18 0.500000 0.368277 0.768476
O O19 0.588810 0.411191 0.771889
O O20 0.557070 0.361704 0.000000
#
# Coordination Sequence:
#
# PCOD9561735 Si02
#       7
#     8  16  16  16  16  16  16
#     4   9  16  28  49  71  87 109 149 201 248 285
#     4  10  20  32  47  68  94 125 157 186 220 268
#     4  10  19  29  44  67  94 125 160 195 232 279
#     4   9  17  30  48  67  89 118 155 198 241 284
#     4   9  17  29  46  68  92 120 154 192 233 278
#     4   9  18  31  47  69  96 125 158 196 237 280
#     4   9  18  33  53  75  96 118 145 180 224 272
#
# _framework density 15.692919
#
# number of rings (size 3 to 8) (size 9 to 14) (size 15 to 20)
#    0.000    2.692    0.769    2.308    0.000    5.692 
#    0.000    1.538    0.000    3.692    0.000    2.154 
#    0.000    0.308    0.000    3.385    0.000    2.462 
#
# Total GULP energy -579673.824703 kJ/mol
# GULP energy per Si atom -5573.786776 kJ/mol
# Density = 1.565720 g / cm^3
# Si number density = 15.692919 Si / 1000 Ang^3
#
#
#
# Elastic Constant Matrix: (Units=GPa)
#
#
# Indices 1 2 3 4 5 6 
#
# 1 140.1659 81.6437 31.8993 0.0000 0.0000 0.0000
# 2 81.6437 140.1659 31.8993 0.0000 0.0000 0.0000
# 3 31.8993 31.8993 14.9656 0.0000 0.0000 0.0000
# 4 0.0000 0.0000 0.0000 12.4190 0.0000 0.0000
# 5 0.0000 0.0000 0.0000 0.0000 12.4190 0.0000
# 6 0.0000 0.0000 0.0000 0.0000 0.0000 20.8177
#
#
#
# Elastic Compliance Matrix: (Units=1/GPa)
#
#
# Indices 1 2 3 4 5 6 
#
# 1 0.014370 -0.002718 -0.024836 0.000000 0.000000 0.000000
# 2 -0.002718 0.014370 -0.024836 0.000000 0.000000 0.000000
# 3 -0.024836 -0.024836 0.172697 0.000000 0.000000 0.000000
# 4 0.000000 0.000000 0.000000 0.080522 0.000000 0.000000
# 5 0.000000 0.000000 0.000000 0.000000 0.080522 0.000000
# 6 0.000000 0.000000 0.000000 0.000000 0.000000 0.048036
#
#
# Mechanical properties :
#
#
# Convention : Reuss Voigt Hill
#
# Bulk Modulus (GPa) = 10.34597 65.13132 37.73864
# Shear Modulus (GPa) = 9.13218 19.12150 14.12684
#
# Velocity S-wave (km/s) = 2.41494 3.49446 3.00360
# Velocity P-wave (km/s) = 3.79249 7.60759 6.01076
#
# Compressibility (1/GPa) = 0.09665603
#
# Stress axis : x y z
#
# Youngs Moduli (GPa) = 69.59073 69.59073 5.79049
#
# Poissons Ratio (x) = 0.18913 0.14381
# Poissons Ratio (y) = 0.18913 0.14381
# Poissons Ratio (z) = 1.72837 1.72837
#
# Static dielectric constant tensor:
#      x y z
#    x 1.516100 0.000000 0.000000 
#    y 0.000000 1.516100 0.000000 
#    z 0.000000 0.000000 1.522380 
# 
# From -- ./inp_files/1950.got.cif
#   From: 2010.05.17/outbox.cif.g08.bks.cpg/sg123_1_cif.got.tgz:1950.got - 2010.05.20 11:43:04.
