data_PCOD9561827
_publ_section_title
;
Structure prediction by ZEFSAII (Michael W. Deem and Ramdas Pophale) SiO2 
 PCOD9561827
Probable space group: P 4/M M M
;
_chemical_formula_sum "Si O2"
_cell_formula_units_Z 120
_cell_length_a 27.193497
_cell_length_b 27.193497
_cell_length_c 7.920676
_cell_angle_alpha 90.000000
_cell_angle_beta 90.000000
_cell_angle_gamma 90.000000
_cell_volume 5857.231223
_symmetry_space_group_name_H-M "P 4/M M M"
_symmetry_group_IT_number 123
_symmetry_cell_setting 'tetragonal'
loop_
_space_group_symop_operation_xyz
x,y,z
-y,x,z
-x,-y,z
y,-x,z
x,-y,-z
-x,y,-z
y,x,-z
-y,-x,-z
-x,-y,-z
y,-x,-z
x,y,-z
-y,x,-z
-x,y,z
x,-y,z
-y,-x,z
y,x,z
loop_
_atom_site_type_symbol
_atom_site_label
_atom_site_fract_x
_atom_site_fract_y
_atom_site_fract_z
Si Si1 0.320534 0.597259 0.815332
Si Si2 0.650955 0.944026 0.203689
Si Si3 0.243040 0.097228 0.794943
Si Si4 0.552559 0.365460 0.500000
Si Si5 0.612383 0.213543 0.698037
Si Si6 0.137395 0.943582 0.206554
Si Si7 0.119303 0.444647 0.296624
Si Si8 0.721342 0.201667 0.203801
O O1 0.353851 0.646150 0.792905
O O2 0.333456 0.560517 0.666155
O O3 0.263828 0.610383 0.799366
O O4 0.331975 0.577077 0.000000
O O5 0.704094 0.923862 0.264147
O O6 0.601320 0.915204 0.250500
O O7 0.646123 0.000000 0.261051
O O8 0.653453 0.942789 0.000000
O O9 0.192579 0.071901 0.737183
O O10 0.244662 0.155073 0.755247
O O11 0.243142 0.092558 0.000000
O O12 0.500000 0.389517 0.500000
O O13 0.594143 0.405858 0.500000
O O14 0.604007 0.223672 0.500000
O O15 0.572823 0.173664 0.757808
O O16 0.667689 0.193714 0.719966
O O17 0.096161 0.903840 0.260133
O O18 0.126953 0.000000 0.257086
O O19 0.137753 0.942615 0.000000
O O20 0.119803 0.446661 0.500000
O O21 0.106867 0.500000 0.235296
O O22 0.748323 0.251678 0.258547
O O23 0.715999 0.203148 0.000000
#
# Coordination Sequence:
#
# PCOD9561827 Si02
#       8
#    16  16  16   8  16  16  16  16
#     4  10  21  38  61  89 123 163 204 245 294 357
#     4  10  20  35  57  81 103 133 179 234 285 336
#     4   9  16  29  47  69 100 135 177 225 278 338
#     4  10  22  41  64  92 126 162 205 257 305 353
#     4  11  21  35  55  82 113 149 190 234 284 345
#     4   9  16  25  39  62  95 137 183 230 281 338
#     4  10  23  41  57  76 106 144 184 227 277 338
#     4  10  19  30  49  77 108 144 183 223 272 336
#
# _framework density 20.487496
#
# number of rings (size 3 to 8) (size 9 to 14) (size 15 to 20)
#    0.000    2.133    2.000    1.600    0.000    7.400 
#    0.000    2.000    0.000    0.000    0.000    1.867 
#    0.000    0.000    0.000    0.000    0.000    1.067 
#
# Total GULP energy -669572.005622 kJ/mol
# GULP energy per Si atom -5579.766714 kJ/mol
# Density = 2.044087 g / cm^3
# Si number density = 20.487496 Si / 1000 Ang^3
#
#
#
# Elastic Constant Matrix: (Units=GPa)
#
#
# Indices 1 2 3 4 5 6 
#
# 1 124.9797 54.1125 18.8338 0.0000 0.0000 0.0000
# 2 54.1125 124.9778 18.8337 0.0000 0.0000 0.0000
# 3 18.8338 18.8337 40.8832 0.0000 0.0000 0.0000
# 4 0.0000 0.0000 0.0000 -1.5220 0.0000 0.0000
# 5 0.0000 0.0000 0.0000 0.0000 -1.5300 0.0000
# 6 0.0000 0.0000 0.0000 0.0000 0.0000 -26.2523
#
#
#
# Elastic Compliance Matrix: (Units=1/GPa)
#
#
# Indices 1 2 3 4 5 6 
#
# 1 0.010147 -0.003964 -0.002848 0.000000 0.000000 0.000000
# 2 -0.003964 0.010147 -0.002848 0.000000 0.000000 0.000000
# 3 -0.002848 -0.002848 0.027084 0.000000 0.000000 0.000000
# 4 0.000000 0.000000 0.000000 -0.657023 0.000000 0.000000
# 5 0.000000 0.000000 0.000000 0.000000 -0.653615 0.000000
# 6 0.000000 0.000000 0.000000 0.000000 0.000000 -0.038092
#
#
# Mechanical properties :
#
#
# Convention : Reuss Voigt Hill
#
# Bulk Modulus (GPa) = 35.64201 52.71117 44.17659
# Shear Modulus (GPa) = -3.92872 7.40985 1.74056
#
# Velocity S-wave (km/s) = -1.38628 1.90384 0.92272
# Velocity P-wave (km/s) = 3.85647 5.53328 4.76914
#
# Compressibility (1/GPa) = 0.02805678
#
# Stress axis : x y z
#
# Youngs Moduli (GPa) = 98.55252 98.55101 36.92198
#
# Poissons Ratio (x) = 0.39067 0.10516
# Poissons Ratio (y) = 0.39068 0.10516
# Poissons Ratio (z) = 0.28070 0.28070
#
# Static dielectric constant tensor:
#      x y z
#    x 1.718430 0.000000 0.000000 
#    y 0.000000 1.718430 0.000000 
#    z 0.000000 0.000000 1.795790 
# 
# From -- ./inp_files/2017.got.cif
#   From: 2010.05.17/outbox.cif.g08.bks.cpg/sg123_2_cif.got.tgz:2017.got - 2010.05.20 11:43:04.
