data_PCOD9561162
_publ_section_title
;
Structure prediction by ZEFSAII (Michael W. Deem and Ramdas Pophale) SiO2 
 PCOD9561162
Probable space group: I -4 2 D
;
_chemical_formula_sum "Si O2"
_cell_formula_units_Z 64
_cell_length_a 14.442395
_cell_length_b 14.442395
_cell_length_c 15.115808
_cell_angle_alpha 90.000000
_cell_angle_beta 90.000000
_cell_angle_gamma 90.000000
_cell_volume 3152.897154
_symmetry_space_group_name_H-M "I -4 2 D"
_symmetry_group_IT_number 122
_symmetry_cell_setting 'tetragonal'
loop_
_space_group_symop_operation_xyz
x,y,z
y,-x,-z
-x,-y,z
-y,x,-z
x,1/2-y,1/4-z
-x,1/2+y,1/4-z
-y,1/2-x,1/4+z
y,1/2+x,1/4+z
1/2+x,1/2+y,1/2+z
1/2+y,1/2-x,1/2-z
1/2-x,1/2-y,1/2+z
1/2-y,1/2+x,1/2-z
1/2+x,-y,3/4-z
1/2-x,y,3/4-z
1/2-y,-x,3/4+z
1/2+y,x,3/4+z
loop_
_atom_site_type_symbol
_atom_site_label
_atom_site_fract_x
_atom_site_fract_y
_atom_site_fract_z
Si Si1 0.468394 0.605465 0.897849
Si Si2 0.836668 0.656238 0.813624
Si Si3 0.628174 0.941492 0.787362
Si Si4 0.333816 0.129886 0.979269
O O1 0.500000 0.500000 0.908882
O O2 0.565619 0.658043 0.884349
O O3 0.400761 0.610481 0.814839
O O4 0.414510 0.647175 0.982397
O O5 0.750000 0.629671 0.875000
O O6 0.822060 0.760259 0.779271
O O7 0.549814 0.890071 0.729720
O O8 0.620741 0.910922 0.889841
O O9 0.731508 0.913246 0.761539
#
# Coordination Sequence:
#
# PCOD9561162 Si02
#       4
#    16  16  16  16
#     4  12  27  46  72 107 140 195 251 303 377 450
#     4  12  25  48  70 103 146 189 242 312 370 450
#     4  10  22  44  68 104 142 184 246 303 372 446
#     4  11  25  44  71 105 143 188 247 301 381 440
#
# _framework density 20.298791999999999
#
# number of rings (size 3 to 8) (size 9 to 14) (size 15 to 20)
#    0.000    0.750    5.000    2.250    7.000    2.000 
#    4.500    0.000    0.000    0.000    0.000    0.000 
#    0.000    0.000    0.000    0.000    0.000    0.000 
#
# Total GULP energy -178817.331677 kJ/mol
# GULP energy per Si atom -5588.041615 kJ/mol
# Density = 2.025259 g / cm^3
# Si number density = 20.298792 Si / 1000 Ang^3
#
#
#
# Elastic Constant Matrix: (Units=GPa)
#
#
# Indices 1 2 3 4 5 6 
#
# 1 109.5723 29.6305 61.8184 0.0000 0.0000 0.0000
# 2 29.6305 109.5722 61.8184 0.0000 0.0000 0.0000
# 3 61.8184 61.8184 124.0113 0.0000 0.0000 0.0000
# 4 0.0000 0.0000 0.0000 26.7089 0.0000 0.0000
# 5 0.0000 0.0000 0.0000 0.0000 26.7089 0.0000
# 6 0.0000 0.0000 0.0000 0.0000 0.0000 24.2317
#
#
#
# Elastic Compliance Matrix: (Units=1/GPa)
#
#
# Indices 1 2 3 4 5 6 
#
# 1 0.012700 0.000191 -0.006426 0.000000 0.000000 0.000000
# 2 0.000191 0.012700 -0.006426 0.000000 0.000000 0.000000
# 3 -0.006426 -0.006426 0.014471 0.000000 0.000000 0.000000
# 4 0.000000 0.000000 0.000000 0.037441 0.000000 0.000000
# 5 0.000000 0.000000 0.000000 0.000000 0.037441 0.000000
# 6 0.000000 0.000000 0.000000 0.000000 0.000000 0.041268
#
#
# Mechanical properties :
#
#
# Convention : Reuss Voigt Hill
#
# Bulk Modulus (GPa) = 68.73573 72.18783 70.46178
# Shear Modulus (GPa) = 26.85385 28.18912 27.52148
#
# Velocity S-wave (km/s) = 3.64115 3.73058 3.68614
# Velocity P-wave (km/s) = 7.18421 7.36180 7.27355
#
# Compressibility (1/GPa) = 0.01454847
#
# Stress axis : x y z
#
# Youngs Moduli (GPa) = 78.73852 78.73852 69.10551
#
# Poissons Ratio (x) = -0.01505 0.44409
# Poissons Ratio (y) = -0.01505 0.44409
# Poissons Ratio (z) = 0.50599 0.50599
#
# Static dielectric constant tensor:
#      x y z
#    x 1.735240 0.000000 0.000000 
#    y 0.000000 1.735240 0.000000 
#    z 0.000000 0.000000 1.729980 
# 
# From -- ./inp_files/5157.got.cif
#   From: 2010.05.17/outbox.cif.g08.bks.cpg/sg122_3_cif.got.tgz:5157.got - 2010.05.20 11:37:33.
