data_PCOD9561324
_publ_section_title
;
Structure prediction by ZEFSAII (Michael W. Deem and Ramdas Pophale) SiO2 
 PCOD9561324
Probable space group: I -4 2 D
;
_chemical_formula_sum "Si O2"
_cell_formula_units_Z 64
_cell_length_a 18.730848
_cell_length_b 18.730848
_cell_length_c 7.443216
_cell_angle_alpha 90.000000
_cell_angle_beta 90.000000
_cell_angle_gamma 90.000000
_cell_volume 2611.412637
_symmetry_space_group_name_H-M "I -4 2 D"
_symmetry_group_IT_number 122
_symmetry_cell_setting 'tetragonal'
loop_
_space_group_symop_operation_xyz
x,y,z
y,-x,-z
-x,-y,z
-y,x,-z
x,1/2-y,1/4-z
-x,1/2+y,1/4-z
-y,1/2-x,1/4+z
y,1/2+x,1/4+z
1/2+x,1/2+y,1/2+z
1/2+y,1/2-x,1/2-z
1/2-x,1/2-y,1/2+z
1/2-y,1/2+x,1/2-z
1/2+x,-y,3/4-z
1/2-x,y,3/4-z
1/2-y,-x,3/4+z
1/2+y,x,3/4+z
loop_
_atom_site_type_symbol
_atom_site_label
_atom_site_fract_x
_atom_site_fract_y
_atom_site_fract_z
Si Si1 0.520421 0.785420 0.422042
Si Si2 0.043946 0.850566 0.822976
Si Si3 0.170071 0.200376 0.301274
Si Si4 0.952139 0.071569 0.213023
O O1 0.524853 0.750000 0.625000
O O2 0.463219 0.733837 0.335309
O O3 0.599706 0.772639 0.344430
O O4 0.486644 0.864758 0.422642
O O5 0.120878 0.859782 0.737282
O O6 0.968391 0.878226 0.743948
O O7 0.050474 0.891359 0.016203
O O8 0.175572 0.250000 0.125000
O O9 0.250000 0.199035 0.375000
O O10 0.000000 0.000000 0.219741
#
# Coordination Sequence:
#
# PCOD9561324 Si02
#       4
#    16  16  16  16
#     4   9  20  34  58  95 126 158 211 260 310 380
#     4  11  19  34  60  92 121 160 214 261 316 370
#     4  11  24  42  61  90 129 168 213 264 322 389
#     4  11  16  31  61  94 124 160 207 267 307 361
#
# _framework density 24.507809000000002
#
# number of rings (size 3 to 8) (size 9 to 14) (size 15 to 20)
#    0.000    1.500    5.000    3.000    0.000    5.000 
#    0.000    3.750    0.000    0.000    0.000    0.000 
#    0.000    0.000    0.000    0.000    0.000    0.000 
#
# Total GULP energy -178247.393744 kJ/mol
# GULP energy per Si atom -5570.231054 kJ/mol
# Density = 2.445203 g / cm^3
# Si number density = 24.507809 Si / 1000 Ang^3
#
#
#
# Elastic Constant Matrix: (Units=GPa)
#
#
# Indices 1 2 3 4 5 6 
#
# 1 161.5604 41.3717 22.0819 0.0000 0.0000 0.0000
# 2 41.3717 161.5604 22.0819 0.0000 0.0000 0.0000
# 3 22.0819 22.0819 50.3473 0.0000 0.0000 0.0000
# 4 0.0000 0.0000 0.0000 18.7596 0.0000 0.0000
# 5 0.0000 0.0000 0.0000 0.0000 18.7596 0.0000
# 6 0.0000 0.0000 0.0000 0.0000 0.0000 30.6920
#
#
#
# Elastic Compliance Matrix: (Units=1/GPa)
#
#
# Indices 1 2 3 4 5 6 
#
# 1 0.006884 -0.001436 -0.002389 0.000000 0.000000 0.000000
# 2 -0.001436 0.006884 -0.002389 0.000000 0.000000 0.000000
# 3 -0.002389 -0.002389 0.021958 0.000000 0.000000 0.000000
# 4 0.000000 0.000000 0.000000 0.053306 0.000000 0.000000
# 5 0.000000 0.000000 0.000000 0.000000 0.053306 0.000000
# 6 0.000000 0.000000 0.000000 0.000000 0.000000 0.032582
#
#
# Mechanical properties :
#
#
# Convention : Reuss Voigt Hill
#
# Bulk Modulus (GPa) = 42.92569 60.50433 51.71501
# Shear Modulus (GPa) = 25.62594 32.83776 29.23185
#
# Velocity S-wave (km/s) = 3.23712 3.66442 3.45738
# Velocity P-wave (km/s) = 5.61472 6.53034 6.08976
#
# Compressibility (1/GPa) = 0.02329607
#
# Stress axis : x y z
#
# Youngs Moduli (GPa) = 145.26444 145.26444 45.54171
#
# Poissons Ratio (x) = 0.20864 0.10881
# Poissons Ratio (y) = 0.20864 0.10881
# Poissons Ratio (z) = 0.34708 0.34708
#
# Static dielectric constant tensor:
#      x y z
#    x 1.992310 0.000000 0.000000 
#    y 0.000000 1.992310 0.000000 
#    z 0.000000 0.000000 2.058910 
# 
# From -- ./inp_files/4075.got.cif
#   From: 2010.05.17/outbox.cif.g08.bks.cpg/sg122_3_cif.got.tgz:4075.got - 2010.05.20 11:37:33.
