data_PCOD9561851
_publ_section_title
;
Structure prediction by ZEFSAII (Michael W. Deem and Ramdas Pophale) SiO2 
 PCOD9561851
Probable space group: P 4/M M M
;
_chemical_formula_sum "Si O2"
_cell_formula_units_Z 104
_cell_length_a 27.573175
_cell_length_b 27.573175
_cell_length_c 8.316351
_cell_angle_alpha 90.000000
_cell_angle_beta 90.000000
_cell_angle_gamma 90.000000
_cell_volume 6322.755168
_symmetry_space_group_name_H-M "P 4/M M M"
_symmetry_group_IT_number 123
_symmetry_cell_setting 'tetragonal'
loop_
_space_group_symop_operation_xyz
x,y,z
-y,x,z
-x,-y,z
y,-x,z
x,-y,-z
-x,y,-z
y,x,-z
-y,-x,-z
-x,-y,-z
y,-x,-z
x,y,-z
-y,x,-z
-x,y,z
x,-y,z
-y,-x,z
y,x,z
loop_
_atom_site_type_symbol
_atom_site_label
_atom_site_fract_x
_atom_site_fract_y
_atom_site_fract_z
Si Si1 0.555335 0.000000 0.308016
Si Si2 0.369446 0.290430 0.694132
Si Si3 0.946888 0.262899 0.804005
Si Si4 0.372050 0.918418 0.807747
Si Si5 0.183702 0.657641 0.692873
Si Si6 0.157132 0.234890 0.805510
Si Si7 0.555112 0.366580 0.805932
O O1 0.585493 0.047135 0.253639
O O2 0.500000 0.000000 0.246277
O O3 0.553764 0.000000 0.500000
O O4 0.370219 0.290502 0.500000
O O5 0.323488 0.323488 0.745350
O O6 0.363231 0.235256 0.749053
O O7 0.417004 0.317984 0.754762
O O8 0.939055 0.319200 0.756169
O O9 0.899053 0.233956 0.750920
O O10 0.000000 0.246347 0.749252
O O11 0.946957 0.262085 0.000000
O O12 0.372546 0.862913 0.750350
O O13 0.372593 0.919329 0.000000
O O14 0.183628 0.658825 0.500000
O O15 0.177427 0.712660 0.754687
O O16 0.191823 0.191823 0.746838
O O17 0.157034 0.233504 0.000000
O O18 0.500000 0.368904 0.747274
O O19 0.588508 0.411493 0.749358
O O20 0.554248 0.368277 0.000000
#
# Coordination Sequence:
#
# PCOD9561851 Si02
#       7
#     8  16  16  16  16  16  16
#     4  11  23  37  53  73  97 123 155 201 250 291
#     4   9  18  32  49  69  95 127 159 188 224 277
#     4   8  13  24  43  64  86 116 152 191 233 277
#     4  10  19  33  52  72  93 120 158 201 240 284
#     4  10  19  31  48  70  95 125 157 192 237 289
#     4   9  17  27  41  65  95 124 157 198 240 285
#     4   9  18  32  50  72  95 118 146 182 225 273
#
# _framework density 16.448525
#
# number of rings (size 3 to 8) (size 9 to 14) (size 15 to 20)
#    0.000    2.692    0.769    2.538    0.000    3.231 
#    0.000    3.077    0.000    0.923    0.000    2.154 
#    0.000    0.308    0.000    4.308    0.000    0.000 
#
# Total GULP energy -579637.053435 kJ/mol
# GULP energy per Si atom -5573.433206 kJ/mol
# Density = 1.641109 g / cm^3
# Si number density = 16.448525 Si / 1000 Ang^3
#
#
#
# Elastic Constant Matrix: (Units=GPa)
#
#
# Indices 1 2 3 4 5 6 
#
# 1 151.7217 87.5101 15.1204 0.0000 0.0000 0.0000
# 2 87.5101 151.7217 15.1204 0.0000 0.0000 0.0000
# 3 15.1204 15.1204 14.0401 0.0000 0.0000 0.0000
# 4 0.0000 0.0000 0.0000 16.9719 0.0000 0.0000
# 5 0.0000 0.0000 0.0000 0.0000 16.9719 0.0000
# 6 0.0000 0.0000 0.0000 0.0000 0.0000 24.9639
#
#
#
# Elastic Compliance Matrix: (Units=1/GPa)
#
#
# Indices 1 2 3 4 5 6 
#
# 1 0.010206 -0.005367 -0.005211 0.000000 0.000000 0.000000
# 2 -0.005367 0.010206 -0.005211 0.000000 0.000000 0.000000
# 3 -0.005211 -0.005211 0.082449 0.000000 0.000000 0.000000
# 4 0.000000 0.000000 0.000000 0.058921 0.000000 0.000000
# 5 0.000000 0.000000 0.000000 0.000000 0.058921 0.000000
# 6 0.000000 0.000000 0.000000 0.000000 0.000000 0.040058
#
#
# Mechanical properties :
#
#
# Convention : Reuss Voigt Hill
#
# Bulk Modulus (GPa) = 14.02881 61.44279 37.73580
# Shear Modulus (GPa) = 15.81777 25.09706 20.45742
#
# Velocity S-wave (km/s) = 3.10442 3.91038 3.53047
# Velocity P-wave (km/s) = 4.62572 7.60419 6.29369
#
# Compressibility (1/GPa) = 0.07128189
#
# Stress axis : x y z
#
# Youngs Moduli (GPa) = 97.98023 97.98023 12.12877
#
# Poissons Ratio (x) = 0.52590 0.06320
# Poissons Ratio (y) = 0.52590 0.06320
# Poissons Ratio (z) = 0.51058 0.51058
#
# Static dielectric constant tensor:
#      x y z
#    x 1.555040 0.000000 0.000000 
#    y 0.000000 1.555040 0.000000 
#    z 0.000000 0.000000 1.568470 
# 
# From -- ./inp_files/1948.got.cif
#   From: 2010.05.17/outbox.cif.g08.bks.cpg/sg123_1_cif.got.tgz:1948.got - 2010.05.20 11:43:04.
