data_PCOD9561644
_publ_section_title
;
Structure prediction by ZEFSAII (Michael W. Deem and Ramdas Pophale) SiO2 
 PCOD9561644
Probable space group: P 4/M M M
;
_chemical_formula_sum "Si O2"
_cell_formula_units_Z 96
_cell_length_a 25.010093
_cell_length_b 25.010093
_cell_length_c 7.446336
_cell_angle_alpha 90.000000
_cell_angle_beta 90.000000
_cell_angle_gamma 90.000000
_cell_volume 4657.718552
_symmetry_space_group_name_H-M "P 4/M M M"
_symmetry_group_IT_number 123
_symmetry_cell_setting 'tetragonal'
loop_
_space_group_symop_operation_xyz
x,y,z
-y,x,z
-x,-y,z
y,-x,z
x,-y,-z
-x,y,-z
y,x,-z
-y,-x,-z
-x,-y,-z
y,-x,-z
x,y,-z
-y,x,-z
-x,y,z
x,-y,z
-y,-x,z
y,x,z
loop_
_atom_site_type_symbol
_atom_site_label
_atom_site_fract_x
_atom_site_fract_y
_atom_site_fract_z
Si Si1 0.354487 0.440091 0.283085
Si Si2 0.856545 0.354680 0.292177
Si Si3 0.229899 0.559948 0.210217
Si Si4 0.061886 0.559021 0.719215
Si Si5 0.851910 0.061317 0.281186
Si Si6 0.765805 0.851929 0.280657
O O1 0.356342 0.439896 0.500000
O O2 0.369239 0.500000 0.222736
O O3 0.395058 0.395058 0.217583
O O4 0.293075 0.430730 0.231639
O O5 0.871502 0.346241 0.500000
O O6 0.803843 0.391462 0.288803
O O7 0.902193 0.392784 0.212577
O O8 0.850586 0.295243 0.216373
O O9 0.218317 0.500000 0.284461
O O10 0.217311 0.558743 0.000000
O O11 0.064126 0.559063 0.500000
O O12 0.080900 0.500000 0.776535
O O13 0.000000 0.564629 0.769013
O O14 0.852266 0.060436 0.500000
O O15 0.903384 0.096617 0.226314
O O16 0.799397 0.095285 0.228344
O O17 0.852440 0.000000 0.220046
O O18 0.765644 0.850741 0.500000
O O19 0.800904 0.800904 0.223232
#
# Coordination Sequence:
#
# PCOD9561644 Si02
#       6
#    16  16  16  16  16  16
#     4   9  18  33  53  76 100 125 154 189 230 277
#     4  10  18  28  47  69  86 114 157 195 229 279
#     4  10  21  35  49  67  94 125 155 191 234 276
#     4   8  14  24  38  60  88 109 130 174 231 274
#     4   8  13  21  33  51  80 118 155 190 228 270
#     4   8  15  26  37  54  82 111 141 183 230 267
#
# _framework density 20.610949999999999
#
# number of rings (size 3 to 8) (size 9 to 14) (size 15 to 20)
#    0.000    3.167    0.000    2.500    0.000    3.667 
#    0.000    6.667    0.000    0.500    0.000    4.667 
#    0.000    0.000    0.000    0.500    0.000    0.833 
#
# Total GULP energy -535478.134063 kJ/mol
# GULP energy per Si atom -5577.897230 kJ/mol
# Density = 2.056404 g / cm^3
# Si number density = 20.610950 Si / 1000 Ang^3
#
#
#
# Elastic Constant Matrix: (Units=GPa)
#
#
# Indices 1 2 3 4 5 6 
#
# 1 187.6581 118.4150 0.9364 0.0000 0.0000 0.0000
# 2 118.4150 187.6581 0.9364 0.0000 0.0000 0.0000
# 3 0.9364 0.9364 63.3739 0.0000 0.0000 0.0000
# 4 0.0000 0.0000 0.0000 -48.3980 0.0000 0.0000
# 5 0.0000 0.0000 0.0000 0.0000 -48.3980 0.0000
# 6 0.0000 0.0000 0.0000 0.0000 0.0000 56.7391
#
#
#
# Elastic Compliance Matrix: (Units=1/GPa)
#
#
# Indices 1 2 3 4 5 6 
#
# 1 0.008855 -0.005587 -0.000048 0.000000 0.000000 0.000000
# 2 -0.005587 0.008855 -0.000048 0.000000 0.000000 0.000000
# 3 -0.000048 -0.000048 0.015781 0.000000 0.000000 0.000000
# 4 0.000000 0.000000 0.000000 -0.020662 0.000000 0.000000
# 5 0.000000 0.000000 0.000000 0.000000 -0.020662 0.000000
# 6 0.000000 0.000000 0.000000 0.000000 0.000000 0.017625
#
#
# Mechanical properties :
#
#
# Convention : Reuss Voigt Hill
#
# Bulk Modulus (GPa) = 45.20257 75.47400 60.33828
# Shear Modulus (GPa) = 175.23950 13.21544 94.22747
#
# Velocity S-wave (km/s) = 9.23077 2.53491 6.76878
# Velocity P-wave (km/s) = 11.64424 6.72797 9.50931
#
# Compressibility (1/GPa) = 0.02212264
#
# Stress axis : x y z
#
# Youngs Moduli (GPa) = 112.93467 112.93467 63.36820
#
# Poissons Ratio (x) = 0.63099 0.00306
# Poissons Ratio (y) = 0.63099 0.00306
# Poissons Ratio (z) = 0.00545 0.00545
#
# Static dielectric constant tensor:
#      x y z
#    x 1.716070 0.000000 0.000000 
#    y 0.000000 1.716070 0.000000 
#    z 0.000000 0.000000 1.779730 
# 
# From -- ./inp_files/1623.got.cif
#   From: 2010.05.17/outbox.cif.g08.bks.cpg/sg123_1_cif.got.tgz:1623.got - 2010.05.20 11:43:04.
