data_PCOD9561241
_publ_section_title
;
Structure prediction by ZEFSAII (Michael W. Deem and Ramdas Pophale) SiO2 
 PCOD9561241
Probable space group: I -4 2 D
;
_chemical_formula_sum "Si O2"
_cell_formula_units_Z 72
_cell_length_a 10.901923
_cell_length_b 10.901923
_cell_length_c 26.841634
_cell_angle_alpha 90.000000
_cell_angle_beta 90.000000
_cell_angle_gamma 90.000000
_cell_volume 3190.179874
_symmetry_space_group_name_H-M "I -4 2 D"
_symmetry_group_IT_number 122
_symmetry_cell_setting 'tetragonal'
loop_
_space_group_symop_operation_xyz
x,y,z
y,-x,-z
-x,-y,z
-y,x,-z
x,1/2-y,1/4-z
-x,1/2+y,1/4-z
-y,1/2-x,1/4+z
y,1/2+x,1/4+z
1/2+x,1/2+y,1/2+z
1/2+y,1/2-x,1/2-z
1/2-x,1/2-y,1/2+z
1/2-y,1/2+x,1/2-z
1/2+x,-y,3/4-z
1/2-x,y,3/4-z
1/2-y,-x,3/4+z
1/2+y,x,3/4+z
loop_
_atom_site_type_symbol
_atom_site_label
_atom_site_fract_x
_atom_site_fract_y
_atom_site_fract_z
Si Si1 0.000000 0.500000 0.470829
Si Si2 0.749764 0.879523 0.257937
Si Si3 0.862271 0.382880 0.118955
Si Si4 0.367497 0.121034 0.772423
Si Si5 0.871235 0.473731 0.668527
O O1 0.050823 0.617936 0.501441
O O2 0.097573 0.443525 0.430287
O O3 0.780747 0.735136 0.260151
O O4 0.657970 0.893383 0.304622
O O5 0.668037 0.930314 0.211895
O O6 0.802408 0.250000 0.125000
O O7 0.929713 0.382323 0.171284
O O8 0.747454 0.472628 0.116248
O O9 0.503753 0.165976 0.759490
O O10 0.000000 0.500000 0.643107
#
# Coordination Sequence:
#
# PCOD9561241 Si02
#       5
#     8  16  16  16  16
#     4  10  24  36  65  98 124 170 224 265 322 402
#     4  11  21  39  66  93 125 174 218 265 328 399
#     4  11  22  42  64  94 133 169 215 275 334 383
#     4  11  24  42  67  93 130 175 219 271 338 398
#     4  11  22  41  65  92 130 172 219 269 329 394
#
# _framework density 22.569261000000001
#
# number of rings (size 3 to 8) (size 9 to 14) (size 15 to 20)
#    0.000    1.111    4.444    2.667    3.111    0.000 
#    2.000    5.556    0.000    0.000    0.000    0.000 
#    0.000    0.000    0.000    0.000    0.000    0.000 
#
# Total GULP energy -200450.389616 kJ/mol
# GULP energy per Si atom -5568.066378 kJ/mol
# Density = 2.251789 g / cm^3
# Si number density = 22.569261 Si / 1000 Ang^3
#
#
#
# Elastic Constant Matrix: (Units=GPa)
#
#
# Indices 1 2 3 4 5 6 
#
# 1 93.6034 -3.4373 -6.2278 0.0000 0.0000 0.0000
# 2 -3.4373 93.6034 -6.2278 0.0000 0.0000 0.0000
# 3 -6.2278 -6.2278 39.9012 0.0000 0.0000 0.0000
# 4 0.0000 0.0000 0.0000 2.2433 0.0000 0.0000
# 5 0.0000 0.0000 0.0000 0.0000 2.2433 0.0000
# 6 0.0000 0.0000 0.0000 0.0000 0.0000 43.0528
#
#
#
# Elastic Compliance Matrix: (Units=1/GPa)
#
#
# Indices 1 2 3 4 5 6 
#
# 1 0.010820 0.000515 0.001769 0.000000 0.000000 0.000000
# 2 0.000515 0.010820 0.001769 0.000000 0.000000 0.000000
# 3 0.001769 0.001769 0.025614 0.000000 0.000000 0.000000
# 4 0.000000 0.000000 0.000000 0.445764 0.000000 0.000000
# 5 0.000000 0.000000 0.000000 0.000000 0.445764 0.000000
# 6 0.000000 0.000000 0.000000 0.000000 0.000000 0.023227
#
#
# Mechanical properties :
#
#
# Convention : Reuss Voigt Hill
#
# Bulk Modulus (GPa) = 18.06327 21.70246 19.88286
# Shear Modulus (GPa) = 5.14215 25.70794 15.42505
#
# Velocity S-wave (km/s) = 1.51107 3.37867 2.61713
# Velocity P-wave (km/s) = 3.32645 4.98572 4.23808
#
# Compressibility (1/GPa) = 0.05536097
#
# Stress axis : x y z
#
# Youngs Moduli (GPa) = 92.42143 92.42143 39.04091
#
# Poissons Ratio (x) = -0.04760 -0.06907
# Poissons Ratio (y) = -0.04760 -0.06907
# Poissons Ratio (z) = -0.16351 -0.16351
#
# Static dielectric constant tensor:
#      x y z
#    x 1.896450 0.000000 0.000000 
#    y 0.000000 1.896450 0.000000 
#    z 0.000000 0.000000 1.887890 
# 
# From -- ./inp_files/8611.got.cif
#   From: 2010.05.17/outbox.cif.g08.bks.cpg/sg122_5_cif.got.tgz:8611.got - 2010.05.20 11:37:33.
