data_PCOD9561407
_publ_section_title
;
Structure prediction by ZEFSAII (Michael W. Deem and Ramdas Pophale) SiO2 
 PCOD9561407
Probable space group: I -4 2 D
;
_chemical_formula_sum "Si O2"
_cell_formula_units_Z 44
_cell_length_a 7.841813
_cell_length_b 7.841813
_cell_length_c 26.925929
_cell_angle_alpha 90.000000
_cell_angle_beta 90.000000
_cell_angle_gamma 90.000000
_cell_volume 1655.783916
_symmetry_space_group_name_H-M "I -4 2 D"
_symmetry_group_IT_number 122
_symmetry_cell_setting 'tetragonal'
loop_
_space_group_symop_operation_xyz
x,y,z
y,-x,-z
-x,-y,z
-y,x,-z
x,1/2-y,1/4-z
-x,1/2+y,1/4-z
-y,1/2-x,1/4+z
y,1/2+x,1/4+z
1/2+x,1/2+y,1/2+z
1/2+y,1/2-x,1/2-z
1/2-x,1/2-y,1/2+z
1/2-y,1/2+x,1/2-z
1/2+x,-y,3/4-z
1/2-x,y,3/4-z
1/2-y,-x,3/4+z
1/2+y,x,3/4+z
loop_
_atom_site_type_symbol
_atom_site_label
_atom_site_fract_x
_atom_site_fract_y
_atom_site_fract_z
Si Si1 0.848484 0.366453 0.481048
Si Si2 0.920313 0.688685 0.907313
Si Si3 0.000000 0.000000 0.500000
Si Si4 0.750000 0.377315 0.375000
O O1 0.764435 0.380748 0.535501
O O2 0.752174 0.432634 0.432430
O O3 0.000000 0.500000 0.484982
O O4 0.908776 0.166754 0.474921
O O5 0.750000 0.691855 0.875000
O O6 0.000000 0.500000 0.908264
O O7 0.062822 0.793493 0.878354
#
# Coordination Sequence:
#
# PCOD9561407 Si02
#       4
#    16  16   4   8
#     4  11  26  47  76 120 159 203 276 329 404 488
#     4  11  23  42  78 119 157 209 268 335 402 490
#     4  12  24  52  88 108 164 212 264 340 404 498
#     4  12  26  50  74 114 166 212 266 334 410 492
#
# _framework density 26.573512999999998
#
# number of rings (size 3 to 8) (size 9 to 14) (size 15 to 20)
#    0.000    0.727    1.818    6.545    5.091    0.000 
#   16.364    0.000    0.000    0.000    0.000    0.000 
#    0.000    0.000    0.000    0.000    0.000    0.000 
#
# Total GULP energy -122780.433964 kJ/mol
# GULP energy per Si atom -5580.928817 kJ/mol
# Density = 2.651303 g / cm^3
# Si number density = 26.573513 Si / 1000 Ang^3
#
#
#
# Elastic Constant Matrix: (Units=GPa)
#
#
# Indices 1 2 3 4 5 6 
#
# 1 154.9423 22.0571 65.7330 0.0000 0.0000 0.0000
# 2 22.0571 154.9423 65.7330 0.0000 0.0000 0.0000
# 3 65.7330 65.7330 291.9339 0.0000 0.0000 0.0000
# 4 0.0000 0.0000 0.0000 13.0171 0.0000 0.0000
# 5 0.0000 0.0000 0.0000 0.0000 13.0171 0.0000
# 6 0.0000 0.0000 0.0000 0.0000 0.0000 28.9107
#
#
#
# Elastic Compliance Matrix: (Units=1/GPa)
#
#
# Indices 1 2 3 4 5 6 
#
# 1 0.007155 -0.000370 -0.001528 0.000000 0.000000 0.000000
# 2 -0.000370 0.007155 -0.001528 0.000000 0.000000 0.000000
# 3 -0.001528 -0.001528 0.004113 0.000000 0.000000 0.000000
# 4 0.000000 0.000000 0.000000 0.076822 0.000000 0.000000
# 5 0.000000 0.000000 0.000000 0.000000 0.076822 0.000000
# 6 0.000000 0.000000 0.000000 0.000000 0.000000 0.034589
#
#
# Mechanical properties :
#
#
# Convention : Reuss Voigt Hill
#
# Bulk Modulus (GPa) = 86.41783 100.98498 93.70141
# Shear Modulus (GPa) = 23.00282 40.87534 31.93908
#
# Velocity S-wave (km/s) = 2.94535 3.92624 3.47062
# Velocity P-wave (km/s) = 6.64512 7.65758 7.16924
#
# Compressibility (1/GPa) = 0.01157169
#
# Stress axis : x y z
#
# Youngs Moduli (GPa) = 139.76585 139.76583 243.11075
#
# Poissons Ratio (x) = 0.05178 0.37137
# Poissons Ratio (y) = 0.05178 0.37137
# Poissons Ratio (z) = 0.21351 0.21351
#
# Static dielectric constant tensor:
#      x y z
#    x 2.113080 0.000000 0.000000 
#    y 0.000000 2.113080 0.000000 
#    z 0.000000 0.000000 2.116720 
# 
# From -- ./inp_files/9063.got.cif
#   From: 2010.05.17/outbox.cif.g08.bks.cpg/sg122_5_cif.got.tgz:9063.got - 2010.05.20 11:37:33.
