data_PCOD9561989
_publ_section_title
;
Structure prediction by ZEFSAII (Michael W. Deem and Ramdas Pophale) SiO2 
 PCOD9561989
Probable space group: P 4/M M M
;
_chemical_formula_sum "Si O2"
_cell_formula_units_Z 104
_cell_length_a 26.458274
_cell_length_b 26.458274
_cell_length_c 8.458346
_cell_angle_alpha 90.000000
_cell_angle_beta 90.000000
_cell_angle_gamma 90.000000
_cell_volume 5921.182759
_symmetry_space_group_name_H-M "P 4/M M M"
_symmetry_group_IT_number 123
_symmetry_cell_setting 'tetragonal'
loop_
_space_group_symop_operation_xyz
x,y,z
-y,x,z
-x,-y,z
y,-x,z
x,-y,-z
-x,y,-z
y,x,-z
-y,-x,-z
-x,-y,-z
y,-x,-z
x,y,-z
-y,x,-z
-x,y,z
x,-y,z
-y,-x,z
y,x,z
loop_
_atom_site_type_symbol
_atom_site_label
_atom_site_fract_x
_atom_site_fract_y
_atom_site_fract_z
Si Si1 0.848257 0.302089 0.818231
Si Si2 0.000000 0.439286 0.316496
Si Si3 0.663125 0.743820 0.689771
Si Si4 0.054982 0.752333 0.187761
Si Si5 0.109867 0.584307 0.820813
Si Si6 0.216014 0.555081 0.689253
Si Si7 0.055455 0.863453 0.312441
O O1 0.794958 0.306296 0.731104
O O2 0.892870 0.268833 0.743808
O O3 0.873668 0.357322 0.822343
O O4 0.838153 0.286229 0.000000
O O5 0.052998 0.421260 0.242195
O O6 0.000000 0.500000 0.304062
O O7 0.000000 0.424784 0.500000
O O8 0.659944 0.739579 0.500000
O O9 0.694970 0.694970 0.747778
O O10 0.605673 0.755175 0.750068
O O11 0.056193 0.811819 0.216763
O O12 0.000000 0.733626 0.249260
O O13 0.055740 0.740839 0.000000
O O14 0.156031 0.559320 0.725366
O O15 0.111073 0.564790 0.000000
O O16 0.221840 0.555513 0.500000
O O17 0.233681 0.500000 0.749113
O O18 0.061276 0.851839 0.500000
O O19 0.098985 0.901016 0.262976
O O20 0.000000 0.887076 0.293587
#
# Coordination Sequence:
#
# PCOD9561989 Si02
#       7
#    16   8  16  16  16  16  16
#     4   9  19  33  49  68  90 120 154 189 231 277
#     4  11  23  35  45  61  89 123 157 195 240 283
#     4   9  18  32  49  70  97 125 155 193 233 275
#     4   9  18  32  49  65  85 114 146 181 221 266
#     4  10  20  32  48  68  90 118 156 200 239 278
#     4   9  17  31  50  69  93 125 158 192 234 283
#     4   9  18  32  48  66  87 108 133 168 211 261
#
# _framework density 17.564057999999999
#
# number of rings (size 3 to 8) (size 9 to 14) (size 15 to 20)
#    0.000    2.692    0.000    1.154    1.077    5.385 
#    0.000    3.846    0.000    0.000    0.000    2.154 
#    0.000    0.308    0.000    4.308    0.000    0.000 
#
# Total GULP energy -578972.977886 kJ/mol
# GULP energy per Si atom -5567.047864 kJ/mol
# Density = 1.752408 g / cm^3
# Si number density = 17.564058 Si / 1000 Ang^3
#
#
#
# Elastic Constant Matrix: (Units=GPa)
#
#
# Indices 1 2 3 4 5 6 
#
# 1 84.4909 57.6062 6.4385 0.0000 0.0000 0.0000
# 2 57.6062 84.4909 6.4385 0.0000 0.0000 0.0000
# 3 6.4385 6.4385 9.4872 0.0000 0.0000 0.0000
# 4 0.0000 0.0000 0.0000 9.1595 0.0000 0.0000
# 5 0.0000 0.0000 0.0000 0.0000 9.1595 0.0000
# 6 0.0000 0.0000 0.0000 0.0000 0.0000 23.8057
#
#
#
# Elastic Compliance Matrix: (Units=1/GPa)
#
#
# Indices 1 2 3 4 5 6 
#
# 1 0.022347 -0.014849 -0.005089 0.000000 0.000000 0.000000
# 2 -0.014849 0.022347 -0.005089 0.000000 0.000000 0.000000
# 3 -0.005089 -0.005089 0.112312 0.000000 0.000000 0.000000
# 4 0.000000 0.000000 0.000000 0.109176 0.000000 0.000000
# 5 0.000000 0.000000 0.000000 0.000000 0.109176 0.000000
# 6 0.000000 0.000000 0.000000 0.000000 0.000000 0.042007
#
#
# Mechanical properties :
#
#
# Convention : Reuss Voigt Hill
#
# Bulk Modulus (GPa) = 9.34986 35.49281 22.42134
# Shear Modulus (GPa) = 9.93900 15.62401 12.78151
#
# Velocity S-wave (km/s) = 2.38139 2.98576 2.70053
# Velocity P-wave (km/s) = 3.59113 5.66903 4.74521
#
# Compressibility (1/GPa) = 0.10695344
#
# Stress axis : x y z
#
# Youngs Moduli (GPa) = 44.74831 44.74831 8.90379
#
# Poissons Ratio (x) = 0.66445 0.04531
# Poissons Ratio (y) = 0.66445 0.04531
# Poissons Ratio (z) = 0.22772 0.22772
#
# Static dielectric constant tensor:
#      x y z
#    x 1.620620 0.000000 0.000000 
#    y 0.000000 1.620620 0.000000 
#    z 0.000000 0.000000 1.627110 
# 
# From -- ./inp_files/1905.got.cif
#   From: 2010.05.17/outbox.cif.g08.bks.cpg/sg123_1_cif.got.tgz:1905.got - 2010.05.20 11:43:04.
