data_PCOD9561609
_publ_section_title
;
Structure prediction by ZEFSAII (Michael W. Deem and Ramdas Pophale) SiO2 
 PCOD9561609
Probable space group: P 4/M M M
;
_chemical_formula_sum "Si O2"
_cell_formula_units_Z 72
_cell_length_a 20.548209
_cell_length_b 20.548209
_cell_length_c 10.477324
_cell_angle_alpha 90.000000
_cell_angle_beta 90.000000
_cell_angle_gamma 90.000000
_cell_volume 4423.828915
_symmetry_space_group_name_H-M "P 4/M M M"
_symmetry_group_IT_number 123
_symmetry_cell_setting 'tetragonal'
loop_
_space_group_symop_operation_xyz
x,y,z
-y,x,z
-x,-y,z
y,-x,z
x,-y,-z
-x,y,-z
y,x,-z
-y,-x,-z
-x,-y,-z
y,-x,-z
x,y,-z
-y,x,-z
-x,y,z
x,-y,z
-y,-x,z
y,x,z
loop_
_atom_site_type_symbol
_atom_site_label
_atom_site_fract_x
_atom_site_fract_y
_atom_site_fract_z
Si Si1 0.179954 0.926160 0.155014
Si Si2 0.327477 0.116004 0.845154
Si Si3 0.316989 0.426172 0.000000
Si Si4 0.744017 0.634194 0.245483
Si Si5 0.574725 0.000000 0.154436
Si Si6 0.686209 0.576596 0.500000
O O1 0.127846 0.872154 0.199181
O O2 0.254568 0.908100 0.186648
O O3 0.165307 0.000000 0.197576
O O4 0.177168 0.926348 0.000000
O O5 0.343362 0.182569 0.773903
O O6 0.382095 0.062758 0.811344
O O7 0.329271 0.126020 0.000000
O O8 0.275341 0.410243 0.125228
O O9 0.338608 0.500000 0.000000
O O10 0.377929 0.377929 0.000000
O O11 0.697187 0.697187 0.240251
O O12 0.726929 0.596924 0.375115
O O13 0.500000 0.000000 0.201382
O O14 0.571590 0.000000 0.000000
O O15 0.671983 0.500000 0.500000
O O16 0.620680 0.620680 0.500000
#
# Coordination Sequence:
#
# PCOD9561609 Si02
#       6
#    16  16   8  16   8   8
#     4   9  16  25  40  63  96 135 172 212 256 304
#     4  10  17  30  48  71 102 133 170 210 261 310
#     4  10  20  33  50  75 101 127 166 210 258 312
#     4  10  20  34  53  76 101 132 170 214 256 304
#     4   9  18  28  40  65  98 130 166 208 248 299
#     4  10  22  39  56  77 105 135 172 214 260 316
#
# _framework density 16.275493999999998
#
# number of rings (size 3 to 8) (size 9 to 14) (size 15 to 20)
#    0.000    2.333    2.222    1.333    0.000    3.111 
#    0.000    1.111    0.000    4.667    0.000    1.556 
#    0.000    0.000    0.000    0.000    0.000   10.889 
#
# Total GULP energy -401326.185938 kJ/mol
# GULP energy per Si atom -5573.974805 kJ/mol
# Density = 1.623845 g / cm^3
# Si number density = 16.275494 Si / 1000 Ang^3
#
#
#
# Elastic Constant Matrix: (Units=GPa)
#
#
# Indices 1 2 3 4 5 6 
#
# 1 140.2307 59.6221 33.9874 0.0000 0.0000 0.0000
# 2 59.6221 140.2307 33.9874 0.0000 0.0000 0.0000
# 3 33.9874 33.9874 71.4239 0.0000 0.0000 0.0000
# 4 0.0000 0.0000 0.0000 29.4470 0.0000 0.0000
# 5 0.0000 0.0000 0.0000 0.0000 29.4470 0.0000
# 6 0.0000 0.0000 0.0000 0.0000 0.0000 1.4662
#
#
#
# Elastic Compliance Matrix: (Units=1/GPa)
#
#
# Indices 1 2 3 4 5 6 
#
# 1 0.009188 -0.003218 -0.002841 0.000000 0.000000 0.000000
# 2 -0.003218 0.009188 -0.002841 0.000000 0.000000 0.000000
# 3 -0.002841 -0.002841 0.016705 0.000000 0.000000 0.000000
# 4 0.000000 0.000000 0.000000 0.033959 0.000000 0.000000
# 5 0.000000 0.000000 0.000000 0.000000 0.033959 0.000000
# 6 0.000000 0.000000 0.000000 0.000000 0.000000 0.682027
#
#
# Mechanical properties :
#
#
# Convention : Reuss Voigt Hill
#
# Bulk Modulus (GPa) = 57.86660 67.45323 62.65992
# Shear Modulus (GPa) = 6.18364 27.02460 16.60412
#
# Velocity S-wave (km/s) = 1.95131 4.07928 3.19751
# Velocity P-wave (km/s) = 6.38032 7.98261 7.22601
#
# Compressibility (1/GPa) = 0.01728113
#
# Stress axis : x y z
#
# Youngs Moduli (GPa) = 108.84033 108.84033 59.86394
#
# Poissons Ratio (x) = 0.35023 0.17006
# Poissons Ratio (y) = 0.35023 0.17006
# Poissons Ratio (z) = 0.30919 0.30919
#
# Static dielectric constant tensor:
#      x y z
#    x 1.541780 0.000000 0.000000 
#    y 0.000000 1.541780 0.000000 
#    z 0.000000 0.000000 1.528450 
# 
# From -- ./inp_files/1152.got.cif
#   From: 2010.05.17/outbox.cif.g08.bks.cpg/sg123_1_cif.got.tgz:1152.got - 2010.05.20 11:43:04.
