data_PCOD9561097
_publ_section_title
;
Structure prediction by ZEFSAII (Michael W. Deem and Ramdas Pophale) SiO2 
 PCOD9561097
Probable space group: I -4 2 D
;
_chemical_formula_sum "Si O2"
_cell_formula_units_Z 48
_cell_length_a 9.183164
_cell_length_b 9.183164
_cell_length_c 25.890501
_cell_angle_alpha 90.000000
_cell_angle_beta 90.000000
_cell_angle_gamma 90.000000
_cell_volume 2183.358922
_symmetry_space_group_name_H-M "I -4 2 D"
_symmetry_group_IT_number 122
_symmetry_cell_setting 'tetragonal'
loop_
_space_group_symop_operation_xyz
x,y,z
y,-x,-z
-x,-y,z
-y,x,-z
x,1/2-y,1/4-z
-x,1/2+y,1/4-z
-y,1/2-x,1/4+z
y,1/2+x,1/4+z
1/2+x,1/2+y,1/2+z
1/2+y,1/2-x,1/2-z
1/2-x,1/2-y,1/2+z
1/2-y,1/2+x,1/2-z
1/2+x,-y,3/4-z
1/2-x,y,3/4-z
1/2-y,-x,3/4+z
1/2+y,x,3/4+z
loop_
_atom_site_type_symbol
_atom_site_label
_atom_site_fract_x
_atom_site_fract_y
_atom_site_fract_z
Si Si1 0.762761 0.043647 0.500144
Si Si2 0.250000 0.511280 0.375000
Si Si3 0.523330 0.698237 0.360882
Si Si4 0.500000 0.500000 0.829866
O O1 0.694772 0.094269 0.554220
O O2 0.641663 0.022701 0.456406
O O3 0.891055 0.156360 0.487437
O O4 0.366832 0.624027 0.351594
O O5 0.371092 0.398444 0.397148
O O6 0.514897 0.858311 0.384208
#
# Coordination Sequence:
#
# PCOD9561097 Si02
#       4
#    16   8  16   8
#     4  11  24  40  61  93 127 162 211 263 316 377
#     4  10  22  40  62  88 128 166 200 264 328 368
#     4  11  23  42  64  92 127 166 213 265 318 382
#     4  12  24  40  69  96 124 174 221 260 320 392
#
# _framework density 21.984473999999999
#
# number of rings (size 3 to 8) (size 9 to 14) (size 15 to 20)
#    0.000    1.000    0.000    8.000    0.000    4.000 
#    0.000    0.000    0.000   12.000    0.000    0.000 
#    0.000    0.000    0.000    0.000    0.000    0.000 
#
# Total GULP energy -133674.677936 kJ/mol
# GULP energy per Si atom -5569.778247 kJ/mol
# Density = 2.193444 g / cm^3
# Si number density = 21.984474 Si / 1000 Ang^3
#
#
#
# Elastic Constant Matrix: (Units=GPa)
#
#
# Indices 1 2 3 4 5 6 
#
# 1 116.9703 30.6195 21.4043 0.0000 0.0000 0.0000
# 2 30.6195 116.9703 21.4043 0.0000 0.0000 0.0000
# 3 21.4043 21.4043 75.2278 0.0000 0.0000 0.0000
# 4 0.0000 0.0000 0.0000 11.7350 0.0000 0.0000
# 5 0.0000 0.0000 0.0000 0.0000 11.7350 0.0000
# 6 0.0000 0.0000 0.0000 0.0000 0.0000 34.1326
#
#
#
# Elastic Compliance Matrix: (Units=1/GPa)
#
#
# Indices 1 2 3 4 5 6 
#
# 1 0.009483 -0.002098 -0.002101 0.000000 0.000000 0.000000
# 2 -0.002098 0.009483 -0.002101 0.000000 0.000000 0.000000
# 3 -0.002101 -0.002101 0.014489 0.000000 0.000000 0.000000
# 4 0.000000 0.000000 0.000000 0.085215 0.000000 0.000000
# 5 0.000000 0.000000 0.000000 0.000000 0.085215 0.000000
# 6 0.000000 0.000000 0.000000 0.000000 0.000000 0.029298
#
#
# Mechanical properties :
#
#
# Convention : Reuss Voigt Hill
#
# Bulk Modulus (GPa) = 47.95298 50.66939 49.31119
# Shear Modulus (GPa) = 19.78361 27.23653 23.51007
#
# Velocity S-wave (km/s) = 3.00307 3.52362 3.27371
# Velocity P-wave (km/s) = 5.82101 6.29701 6.06368
#
# Compressibility (1/GPa) = 0.02085376
#
# Stress axis : x y z
#
# Youngs Moduli (GPa) = 105.45375 105.45375 69.01943
#
# Poissons Ratio (x) = 0.22122 0.14503
# Poissons Ratio (y) = 0.22122 0.14503
# Poissons Ratio (z) = 0.22158 0.22158
#
# Static dielectric constant tensor:
#      x y z
#    x 1.860080 0.000000 0.000000 
#    y 0.000000 1.860080 0.000000 
#    z 0.000000 0.000000 1.788920 
# 
# From -- ./inp_files/9127.got.cif
#   From: 2010.05.17/outbox.cif.g08.bks.cpg/sg122_5_cif.got.tgz:9127.got - 2010.05.20 11:37:33.
