data_PCOD9561772
_publ_section_title
;
Structure prediction by ZEFSAII (Michael W. Deem and Ramdas Pophale) SiO2 
 PCOD9561772
Probable space group: P 4/M M M
;
_chemical_formula_sum "Si O2"
_cell_formula_units_Z 72
_cell_length_a 14.344026
_cell_length_b 14.344026
_cell_length_c 22.761618
_cell_angle_alpha 90.000000
_cell_angle_beta 90.000000
_cell_angle_gamma 90.000000
_cell_volume 4683.227529
_symmetry_space_group_name_H-M "P 4/M M M"
_symmetry_group_IT_number 123
_symmetry_cell_setting 'tetragonal'
loop_
_space_group_symop_operation_xyz
x,y,z
-y,x,z
-x,-y,z
y,-x,z
x,-y,-z
-x,y,-z
y,x,-z
-y,-x,-z
-x,-y,-z
y,-x,-z
x,y,-z
-y,x,-z
-x,y,z
x,-y,z
-y,-x,z
y,x,z
loop_
_atom_site_type_symbol
_atom_site_label
_atom_site_fract_x
_atom_site_fract_y
_atom_site_fract_z
Si Si1 0.890900 0.736955 0.645970
Si Si2 0.761768 0.608521 0.430161
Si Si3 0.605705 0.112852 0.111010
Si Si4 0.262755 0.109266 0.216146
Si Si5 0.887719 0.265561 0.000000
O O1 0.831519 0.831519 0.636480
O O2 0.843321 0.658127 0.606325
O O3 0.881215 0.712489 0.715116
O O4 0.000000 0.748875 0.633144
O O5 0.780739 0.615641 0.500000
O O6 0.751677 0.500000 0.415315
O O7 0.668079 0.668079 0.418484
O O8 0.500000 0.148257 0.105148
O O9 0.654774 0.138183 0.172306
O O10 0.600335 0.000000 0.109900
O O11 0.672920 0.137867 0.057087
O O12 0.173159 0.173159 0.204618
O O13 0.241953 0.000000 0.205440
O O14 0.829623 0.170378 0.000000
O O15 0.000000 0.250504 0.000000
#
# Coordination Sequence:
#
# PCOD9561772 Si02
#       5
#    16  16  16  16   8
#     4   9  18  31  46  66  93 124 157 191 225 264
#     4   9  18  32  49  69  92 117 147 186 232 281
#     4   9  17  29  44  62  86 116 148 181 216 254
#     4   9  17  29  45  66  92 120 149 181 217 259
#     4  10  19  30  45  65  90 118 147 181 220 265
#
# _framework density 15.374012
#
# number of rings (size 3 to 8) (size 9 to 14) (size 15 to 20)
#    0.000    2.889    0.000    1.000    0.000    3.889 
#    0.000    6.667    0.000    4.000    0.000    3.111 
#    0.000   18.222    0.000    0.000    0.000    0.000 
#
# Total GULP energy -400966.359522 kJ/mol
# GULP energy per Si atom -5568.977216 kJ/mol
# Density = 1.533902 g / cm^3
# Si number density = 15.374012 Si / 1000 Ang^3
#
#
#
# Elastic Constant Matrix: (Units=GPa)
#
#
# Indices 1 2 3 4 5 6 
#
# 1 106.0867 58.2939 57.7109 0.0000 0.0000 0.0000
# 2 58.2939 106.0894 57.7114 0.0000 0.0000 0.0000
# 3 57.7109 57.7114 58.9999 0.0000 0.0000 0.0000
# 4 0.0000 0.0000 0.0000 22.0935 0.0000 0.0000
# 5 0.0000 0.0000 0.0000 0.0000 22.0933 0.0000
# 6 0.0000 0.0000 0.0000 0.0000 0.0000 7.5798
#
#
#
# Elastic Compliance Matrix: (Units=1/GPa)
#
#
# Indices 1 2 3 4 5 6 
#
# 1 0.020174 -0.000749 -0.019001 0.000000 0.000000 0.000000
# 2 -0.000749 0.020174 -0.019000 0.000000 0.000000 0.000000
# 3 -0.019001 -0.019000 0.054120 0.000000 0.000000 0.000000
# 4 0.000000 0.000000 0.000000 0.045262 0.000000 0.000000
# 5 0.000000 0.000000 0.000000 0.000000 0.045263 0.000000
# 6 0.000000 0.000000 0.000000 0.000000 0.000000 0.131930
#
#
# Mechanical properties :
#
#
# Convention : Reuss Voigt Hill
#
# Bulk Modulus (GPa) = 58.93545 68.73427 63.83486
# Shear Modulus (GPa) = 12.49755 16.85063 14.67409
#
# Velocity S-wave (km/s) = 2.85423 3.31425 3.09281
# Velocity P-wave (km/s) = 7.01996 7.71044 7.37329
#
# Compressibility (1/GPa) = 0.01696772
#
# Stress axis : x y z
#
# Youngs Moduli (GPa) = 49.56829 49.56983 18.47750
#
# Poissons Ratio (x) = 0.03714 0.35108
# Poissons Ratio (y) = 0.03714 0.35108
# Poissons Ratio (z) = 0.94183 0.94184
#
# Static dielectric constant tensor:
#      x y z
#    x 1.493460 0.000000 0.000000 
#    y 0.000000 1.493460 0.000000 
#    z 0.000000 0.000000 1.522200 
# 
# From -- ./inp_files/5154.got.cif
#   From: 2010.05.17/outbox.cif.g08.bks.cpg/sg123_3_cif.got.tgz:5154.got - 2010.05.20 11:43:04.
