data_PCOD9561757
_publ_section_title
;
Structure prediction by ZEFSAII (Michael W. Deem and Ramdas Pophale) SiO2 
 PCOD9561757
Probable space group: P 4/M M M
;
_chemical_formula_sum "Si O2"
_cell_formula_units_Z 72
_cell_length_a 14.529945
_cell_length_b 14.529945
_cell_length_c 23.186421
_cell_angle_alpha 90.000000
_cell_angle_beta 90.000000
_cell_angle_gamma 90.000000
_cell_volume 4895.101011
_symmetry_space_group_name_H-M "P 4/M M M"
_symmetry_group_IT_number 123
_symmetry_cell_setting 'tetragonal'
loop_
_space_group_symop_operation_xyz
x,y,z
-y,x,z
-x,-y,z
y,-x,z
x,-y,-z
-x,y,-z
y,x,-z
-y,-x,-z
-x,-y,-z
y,-x,-z
x,y,-z
-y,x,-z
-x,y,z
x,-y,z
-y,-x,z
y,x,z
loop_
_atom_site_type_symbol
_atom_site_label
_atom_site_fract_x
_atom_site_fract_y
_atom_site_fract_z
Si Si1 0.892261 0.260516 0.934555
Si Si2 0.262230 0.108259 0.500000
Si Si3 0.609126 0.237522 0.280614
Si Si4 0.893125 0.609045 0.827405
Si Si5 0.607209 0.107268 0.609543
O O1 0.827460 0.172541 0.926996
O O2 0.871844 0.334378 0.885087
O O3 0.000000 0.235809 0.929765
O O4 0.877704 0.296160 0.000000
O O5 0.175083 0.175083 0.500000
O O6 0.325312 0.124983 0.443732
O O7 0.236621 0.000000 0.500000
O O8 0.500000 0.259658 0.278543
O O9 0.673276 0.326725 0.282020
O O10 0.631619 0.175166 0.224783
O O11 0.624768 0.174777 0.337160
O O12 0.886025 0.500000 0.838528
O O13 0.000000 0.627694 0.811235
O O14 0.500000 0.118245 0.591829
O O15 0.618156 0.000000 0.627258
#
# Coordination Sequence:
#
# PCOD9561757 Si02
#       5
#    16   8  16  16  16
#     4   9  17  28  42  61  85 112 140 170 205 247
#     4  10  19  30  45  65  90 118 145 173 206 247
#     4  10  19  30  45  64  87 114 141 171 208 251
#     4   9  17  29  45  64  84 107 138 176 215 250
#     4   9  17  30  48  68  87 108 139 179 218 250
#
# _framework density 14.708583000000001
#
# number of rings (size 3 to 8) (size 9 to 14) (size 15 to 20)
#    0.000    2.667    0.000    2.333    0.000    5.000 
#    0.000    3.333    0.000    0.000    0.000    0.000 
#    0.000   24.000    0.000   20.667    0.000    0.444 
#
# Total GULP energy -401155.628469 kJ/mol
# GULP energy per Si atom -5571.605951 kJ/mol
# Density = 1.467511 g / cm^3
# Si number density = 14.708583 Si / 1000 Ang^3
#
#
#
# Elastic Constant Matrix: (Units=GPa)
#
#
# Indices 1 2 3 4 5 6 
#
# 1 82.0472 71.4918 74.9986 0.0000 0.0000 0.0000
# 2 71.4918 82.0472 74.9986 0.0000 0.0000 0.0000
# 3 74.9986 74.9986 119.6907 0.0000 0.0000 0.0000
# 4 0.0000 0.0000 0.0000 19.7163 0.0000 0.0000
# 5 0.0000 0.0000 0.0000 0.0000 19.7163 0.0000
# 6 0.0000 0.0000 0.0000 0.0000 0.0000 30.7785
#
#
#
# Elastic Compliance Matrix: (Units=1/GPa)
#
#
# Indices 1 2 3 4 5 6 
#
# 1 0.055765 -0.038973 -0.010522 0.000000 0.000000 0.000000
# 2 -0.038973 0.055765 -0.010522 0.000000 0.000000 0.000000
# 3 -0.010522 -0.010522 0.021541 0.000000 0.000000 0.000000
# 4 0.000000 0.000000 0.000000 0.050720 0.000000 0.000000
# 5 0.000000 0.000000 0.000000 0.000000 0.050720 0.000000
# 6 0.000000 0.000000 0.000000 0.000000 0.000000 0.032490
#
#
# Mechanical properties :
#
#
# Convention : Reuss Voigt Hill
#
# Bulk Modulus (GPa) = 76.70200 80.75145 78.72673
# Shear Modulus (GPa) = 12.77524 18.19527 15.48526
#
# Velocity S-wave (km/s) = 2.95033 3.52099 3.24821
# Velocity P-wave (km/s) = 7.99168 8.45872 8.22851
#
# Compressibility (1/GPa) = 0.01303747
#
# Stress axis : x y z
#
# Youngs Moduli (GPa) = 17.93229 17.93229 46.42213
#
# Poissons Ratio (x) = 0.69887 0.48847
# Poissons Ratio (y) = 0.69887 0.48847
# Poissons Ratio (z) = 0.18869 0.18869
#
# Static dielectric constant tensor:
#      x y z
#    x 1.465770 0.000000 0.000000 
#    y 0.000000 1.465770 0.000000 
#    z 0.000000 0.000000 1.478840 
# 
# From -- ./inp_files/5130.got.cif
#   From: 2010.05.17/outbox.cif.g08.bks.cpg/sg123_3_cif.got.tgz:5130.got - 2010.05.20 11:43:04.
