data_PCOD9561402
_publ_section_title
;
Structure prediction by ZEFSAII (Michael W. Deem and Ramdas Pophale) SiO2 
 PCOD9561402
Probable space group: I -4 2 D
;
_chemical_formula_sum "Si O2"
_cell_formula_units_Z 52
_cell_length_a 16.829868
_cell_length_b 16.829868
_cell_length_c 9.549541
_cell_angle_alpha 90.000000
_cell_angle_beta 90.000000
_cell_angle_gamma 90.000000
_cell_volume 2704.854554
_symmetry_space_group_name_H-M "I -4 2 D"
_symmetry_group_IT_number 122
_symmetry_cell_setting 'tetragonal'
loop_
_space_group_symop_operation_xyz
x,y,z
y,-x,-z
-x,-y,z
-y,x,-z
x,1/2-y,1/4-z
-x,1/2+y,1/4-z
-y,1/2-x,1/4+z
y,1/2+x,1/4+z
1/2+x,1/2+y,1/2+z
1/2+y,1/2-x,1/2-z
1/2-x,1/2-y,1/2+z
1/2-y,1/2+x,1/2-z
1/2+x,-y,3/4-z
1/2-x,y,3/4-z
1/2-y,-x,3/4+z
1/2+y,x,3/4+z
loop_
_atom_site_type_symbol
_atom_site_label
_atom_site_fract_x
_atom_site_fract_y
_atom_site_fract_z
Si Si1 0.866415 0.748940 0.469856
Si Si2 0.113151 0.750000 0.625000
Si Si3 0.380224 0.750000 0.625000
Si Si4 0.500000 0.500000 0.500000
Si Si5 0.325777 0.482353 0.612995
O O1 0.901540 0.750000 0.625000
O O2 0.819337 0.828871 0.433854
O O3 0.802794 0.678140 0.468286
O O4 0.934799 0.722519 0.363492
O O5 0.064023 0.792752 0.749898
O O6 0.433009 0.697613 0.523531
O O7 0.420561 0.495779 0.597100
#
# Coordination Sequence:
#
# PCOD9561402 Si02
#       5
#    16   8   8   4  16
#     4  11  23  42  67  97 133 178 227 275 340 404
#     4  11  26  42  68  97 132 180 228 275 336 410
#     4  11  24  42  66  95 136 178 224 279 332 410
#     4  12  28  44  68 110 140 180 224 294 356 404
#     4  12  25  44  67  99 139 175 227 281 343 410
#
# _framework density 19.224692999999998
#
# number of rings (size 3 to 8) (size 9 to 14) (size 15 to 20)
#    0.000    0.615    7.692    0.000    4.308    0.000 
#    0.000    0.000    0.000    1.846    0.000    0.000 
#    0.000    0.000    0.000    0.000    0.000    0.000 
#
# Total GULP energy -145038.234300 kJ/mol
# GULP energy per Si atom -5578.393627 kJ/mol
# Density = 1.918094 g / cm^3
# Si number density = 19.224693 Si / 1000 Ang^3
#
#
#
# Elastic Constant Matrix: (Units=GPa)
#
#
# Indices 1 2 3 4 5 6 
#
# 1 115.1159 44.4107 31.1274 0.0000 0.0000 0.0000
# 2 44.4107 115.1159 31.1274 0.0000 0.0000 0.0000
# 3 31.1274 31.1274 73.7682 0.0000 0.0000 0.0000
# 4 0.0000 0.0000 0.0000 3.0579 0.0000 0.0000
# 5 0.0000 0.0000 0.0000 0.0000 3.0579 0.0000
# 6 0.0000 0.0000 0.0000 0.0000 0.0000 26.9279
#
#
#
# Elastic Compliance Matrix: (Units=1/GPa)
#
#
# Indices 1 2 3 4 5 6 
#
# 1 0.010824 -0.003319 -0.003167 0.000000 0.000000 0.000000
# 2 -0.003319 0.010824 -0.003167 0.000000 0.000000 0.000000
# 3 -0.003167 -0.003167 0.016228 0.000000 0.000000 0.000000
# 4 0.000000 0.000000 0.000000 0.327019 0.000000 0.000000
# 5 0.000000 0.000000 0.000000 0.000000 0.327019 0.000000
# 6 0.000000 0.000000 0.000000 0.000000 0.000000 0.037136
#
#
# Mechanical properties :
#
#
# Convention : Reuss Voigt Hill
#
# Bulk Modulus (GPa) = 53.84811 57.48120 55.66466
# Shear Modulus (GPa) = 6.62651 19.76438 13.19545
#
# Velocity S-wave (km/s) = 1.85859 3.20984 2.62273
# Velocity P-wave (km/s) = 5.71633 6.61075 6.17974
#
# Compressibility (1/GPa) = 0.01857075
#
# Stress axis : x y z
#
# Youngs Moduli (GPa) = 92.38936 92.38936 61.62082
#
# Poissons Ratio (x) = 0.30669 0.19512
# Poissons Ratio (y) = 0.30669 0.19512
# Poissons Ratio (z) = 0.29255 0.29255
#
# Static dielectric constant tensor:
#      x y z
#    x 1.674090 0.000000 0.000000 
#    y 0.000000 1.674090 0.000000 
#    z 0.000000 0.000000 1.704790 
# 
# From -- ./inp_files/2218.got.cif
#   From: 2010.05.17/outbox.cif.g08.bks.cpg/sg122_2_cif.got.tgz:2218.got - 2010.05.20 11:37:33.
