data_PCOD9561629
_publ_section_title
;
Structure prediction by ZEFSAII (Michael W. Deem and Ramdas Pophale) SiO2 
 PCOD9561629
Probable space group: P 4/M M M
;
_chemical_formula_sum "Si O2"
_cell_formula_units_Z 104
_cell_length_a 17.176317
_cell_length_b 17.176317
_cell_length_c 23.582017
_cell_angle_alpha 90.000000
_cell_angle_beta 90.000000
_cell_angle_gamma 90.000000
_cell_volume 6957.304980
_symmetry_space_group_name_H-M "P 4/M M M"
_symmetry_group_IT_number 123
_symmetry_cell_setting 'tetragonal'
loop_
_space_group_symop_operation_xyz
x,y,z
-y,x,z
-x,-y,z
y,-x,z
x,-y,-z
-x,y,-z
y,x,-z
-y,-x,-z
-x,-y,-z
y,-x,-z
x,y,-z
-y,x,-z
-x,y,z
x,-y,z
-y,-x,z
y,x,z
loop_
_atom_site_type_symbol
_atom_site_label
_atom_site_fract_x
_atom_site_fract_y
_atom_site_fract_z
Si Si1 0.409101 0.279163 0.934131
Si Si2 0.590641 0.723494 0.500000
Si Si3 0.090115 0.218701 0.217011
Si Si4 0.780336 0.090715 0.647090
Si Si5 0.796344 0.663163 0.830175
Si Si6 0.341374 0.208242 0.612265
Si Si7 0.721353 0.410947 0.277231
O O1 0.500000 0.295967 0.924327
O O2 0.355850 0.355850 0.924953
O O3 0.379309 0.214656 0.889963
O O4 0.399418 0.256164 0.000000
O O5 0.500000 0.701104 0.500000
O O6 0.648096 0.648096 0.500000
O O7 0.611097 0.774082 0.555567
O O8 0.144430 0.144430 0.203628
O O9 0.098597 0.232491 0.284850
O O10 0.123635 0.293495 0.184188
O O11 0.000000 0.204250 0.204865
O O12 0.855363 0.144638 0.633473
O O13 0.704601 0.127154 0.616935
O O14 0.792593 0.000000 0.634240
O O15 0.732582 0.732582 0.829101
O O16 0.770893 0.606943 0.779101
O O17 0.272396 0.272396 0.613688
O O18 0.391878 0.226194 0.667923
O O19 0.695489 0.500000 0.278309
O O20 0.648489 0.351512 0.277894
#
# Coordination Sequence:
#
# PCOD9561629 Si02
#       7
#    16   8  16  16  16  16  16
#     4   9  17  28  43  64  89 118 153 192 231 269
#     4  10  20  33  51  71  90 116 152 194 236 276
#     4   9  16  27  46  71  96 120 146 180 222 267
#     4   9  16  28  48  72  97 122 148 182 222 266
#     4   9  16  28  44  63  88 120 152 179 216 266
#     4   9  17  31  47  65  89 121 155 181 217 274
#     4  10  18  28  44  63  85 114 147 186 229 270
#
# _framework density 14.948316999999999
#
# number of rings (size 3 to 8) (size 9 to 14) (size 15 to 20)
#    0.000    2.769    1.538    0.923    0.000    0.692 
#    0.000    2.692    0.000   11.077    0.000    1.077 
#    0.000    3.077    0.000    6.000    0.000    0.154 
#
# Total GULP energy -578974.145313 kJ/mol
# GULP energy per Si atom -5567.059090 kJ/mol
# Density = 1.491429 g / cm^3
# Si number density = 14.948317 Si / 1000 Ang^3
#
#
#
# Elastic Constant Matrix: (Units=GPa)
#
#
# Indices 1 2 3 4 5 6 
#
# 1 68.4632 65.7204 41.4195 0.0000 0.0000 0.0000
# 2 65.7204 68.4632 41.4195 0.0000 0.0000 0.0000
# 3 41.4195 41.4195 77.4633 0.0000 0.0000 0.0000
# 4 0.0000 0.0000 0.0000 15.8897 0.0000 0.0000
# 5 0.0000 0.0000 0.0000 0.0000 15.8897 0.0000
# 6 0.0000 0.0000 0.0000 0.0000 0.0000 14.2968
#
#
#
# Elastic Compliance Matrix: (Units=1/GPa)
#
#
# Indices 1 2 3 4 5 6 
#
# 1 0.187858 -0.176734 -0.005948 0.000000 0.000000 0.000000
# 2 -0.176734 0.187858 -0.005948 0.000000 0.000000 0.000000
# 3 -0.005948 -0.005948 0.019270 0.000000 0.000000 0.000000
# 4 0.000000 0.000000 0.000000 0.062934 0.000000 0.000000
# 5 0.000000 0.000000 0.000000 0.000000 0.062934 0.000000
# 6 0.000000 0.000000 0.000000 0.000000 0.000000 0.069946
#
#
# Mechanical properties :
#
#
# Convention : Reuss Voigt Hill
#
# Bulk Modulus (GPa) = 56.41279 56.83428 56.62353
# Shear Modulus (GPa) = 5.13363 13.60395 9.36879
#
# Velocity S-wave (km/s) = 1.85518 3.02000 2.50620
# Velocity P-wave (km/s) = 6.51225 7.08968 6.80709
#
# Compressibility (1/GPa) = 0.01772648
#
# Stress axis : x y z
#
# Youngs Moduli (GPa) = 5.32316 5.32316 51.89279
#
# Poissons Ratio (x) = 0.94078 0.30868
# Poissons Ratio (y) = 0.94078 0.30868
# Poissons Ratio (z) = 0.03166 0.03166
#
# Static dielectric constant tensor:
#      x y z
#    x 1.485640 0.000000 0.000000 
#    y 0.000000 1.485640 0.000000 
#    z 0.000000 0.000000 1.505020 
# 
# From -- ./inp_files/6692.got.cif
#   From: 2010.05.17/outbox.cif.g08.bks.cpg/sg123_4_cif.got.tgz:6692.got - 2010.05.20 11:43:04.
