data_PCOD9561966
_publ_section_title
;
Structure prediction by ZEFSAII (Michael W. Deem and Ramdas Pophale) SiO2 
 PCOD9561966
Probable space group: P 4/M M M
;
_chemical_formula_sum "Si O2"
_cell_formula_units_Z 72
_cell_length_a 18.944085
_cell_length_b 18.944085
_cell_length_c 11.507112
_cell_angle_alpha 90.000000
_cell_angle_beta 90.000000
_cell_angle_gamma 90.000000
_cell_volume 4129.653442
_symmetry_space_group_name_H-M "P 4/M M M"
_symmetry_group_IT_number 123
_symmetry_cell_setting 'tetragonal'
loop_
_space_group_symop_operation_xyz
x,y,z
-y,x,z
-x,-y,z
y,-x,z
x,-y,-z
-x,y,-z
y,x,-z
-y,-x,-z
-x,-y,-z
y,-x,-z
x,y,-z
-y,x,-z
-x,y,z
x,-y,z
-y,-x,z
y,x,z
loop_
_atom_site_type_symbol
_atom_site_label
_atom_site_fract_x
_atom_site_fract_y
_atom_site_fract_z
Si Si1 0.418206 0.815230 0.208781
Si Si2 0.918904 0.301093 0.863416
Si Si3 0.083987 0.916014 0.371216
Si Si4 0.296400 0.583516 0.000000
Si Si5 0.309632 0.578440 0.361454
Si Si6 0.148041 0.851960 0.864739
O O1 0.500000 0.837183 0.197565
O O2 0.364951 0.879484 0.198762
O O3 0.404578 0.755908 0.109547
O O4 0.407965 0.770464 0.325584
O O5 0.872696 0.230049 0.854244
O O6 0.000000 0.288821 0.825477
O O7 0.920905 0.319267 0.000000
O O8 0.110136 0.889865 0.500000
O O9 0.112934 0.887067 0.248938
O O10 0.000000 0.903778 0.370381
O O11 0.317172 0.500000 0.000000
O O12 0.361874 0.638127 0.000000
O O13 0.315643 0.577400 0.500000
O O14 0.328139 0.500000 0.316771
O O15 0.363054 0.636947 0.315102
O O16 0.126996 0.873005 0.000000
#
# Coordination Sequence:
#
# PCOD9561966 Si02
#       6
#    16  16   8   8  16   8
#     4  10  20  34  52  75 103 139 178 221 271 318
#     4  10  21  35  54  81 108 138 178 223 271 322
#     4   9  18  34  56  80 110 148 180 210 260 328
#     4  10  20  31  49  75 105 140 176 210 258 316
#     4   9  18  32  51  76 106 142 184 227 269 316
#     4  10  21  35  55  82 112 142 178 229 280 332
#
# _framework density 17.434877
#
# number of rings (size 3 to 8) (size 9 to 14) (size 15 to 20)
#    0.000    2.333    1.111    1.667    3.111    2.111 
#    0.000    3.889    0.000    6.000    0.000    3.111 
#    0.000    0.000    0.000    0.000    0.000    0.000 
#
# Total GULP energy -400937.100453 kJ/mol
# GULP energy per Si atom -5568.570840 kJ/mol
# Density = 1.739519 g / cm^3
# Si number density = 17.434877 Si / 1000 Ang^3
#
#
#
# Elastic Constant Matrix: (Units=GPa)
#
#
# Indices 1 2 3 4 5 6 
#
# 1 88.3421 80.9165 19.7469 0.0000 0.0000 0.0000
# 2 80.9165 88.3415 19.7465 0.0000 0.0000 0.0000
# 3 19.7469 19.7465 58.8587 0.0000 0.0000 0.0000
# 4 0.0000 0.0000 0.0000 22.9135 0.0000 0.0000
# 5 0.0000 0.0000 0.0000 0.0000 22.9134 0.0000
# 6 0.0000 0.0000 0.0000 0.0000 0.0000 33.5651
#
#
#
# Elastic Compliance Matrix: (Units=1/GPa)
#
#
# Indices 1 2 3 4 5 6 
#
# 1 0.070542 -0.064133 -0.002151 0.000000 0.000000 0.000000
# 2 -0.064133 0.070543 -0.002150 0.000000 0.000000 0.000000
# 3 -0.002151 -0.002150 0.018433 0.000000 0.000000 0.000000
# 4 0.000000 0.000000 0.000000 0.043642 0.000000 0.000000
# 5 0.000000 0.000000 0.000000 0.000000 0.043643 0.000000
# 6 0.000000 0.000000 0.000000 0.000000 0.000000 0.029793
#
#
# Mechanical properties :
#
#
# Convention : Reuss Voigt Hill
#
# Bulk Modulus (GPa) = 44.14881 52.92914 48.53897
# Shear Modulus (GPa) = 11.87610 23.55389 17.71500
#
# Velocity S-wave (km/s) = 2.61275 3.67953 3.19104
# Velocity P-wave (km/s) = 5.87189 6.96248 6.44031
#
# Compressibility (1/GPa) = 0.02265067
#
# Stress axis : x y z
#
# Youngs Moduli (GPa) = 14.17586 14.17579 54.25120
#
# Poissons Ratio (x) = 0.90913 0.11668
# Poissons Ratio (y) = 0.90914 0.11665
# Poissons Ratio (z) = 0.03049 0.03048
#
# Static dielectric constant tensor:
#      x y z
#    x 1.590100 0.000000 0.000000 
#    y 0.000000 1.590100 0.000000 
#    z 0.000000 0.000000 1.651480 
# 
# From -- ./inp_files/2764.got.cif
#   From: 2010.05.17/outbox.cif.g08.bks.cpg/sg123_2_cif.got.tgz:2764.got - 2010.05.20 11:43:04.
