data_PCOD9561871
_publ_section_title
;
Structure prediction by ZEFSAII (Michael W. Deem and Ramdas Pophale) SiO2 
 PCOD9561871
Probable space group: P 4/M M M
;
_chemical_formula_sum "Si O2"
_cell_formula_units_Z 56
_cell_length_a 12.793880
_cell_length_b 12.793880
_cell_length_c 21.713372
_cell_angle_alpha 90.000000
_cell_angle_beta 90.000000
_cell_angle_gamma 90.000000
_cell_volume 3554.117804
_symmetry_space_group_name_H-M "P 4/M M M"
_symmetry_group_IT_number 123
_symmetry_cell_setting 'tetragonal'
loop_
_space_group_symop_operation_xyz
x,y,z
-y,x,z
-x,-y,z
y,-x,z
x,-y,-z
-x,y,-z
y,x,-z
-y,-x,-z
-x,-y,-z
y,-x,-z
x,y,-z
-y,x,-z
-x,y,z
x,-y,z
-y,-x,z
y,x,z
loop_
_atom_site_type_symbol
_atom_site_label
_atom_site_fract_x
_atom_site_fract_y
_atom_site_fract_z
Si Si1 0.206194 0.374380 0.134097
Si Si2 0.794106 0.377664 0.573191
Si Si3 0.000000 0.373344 0.788712
Si Si4 0.627074 0.000000 0.352320
Si Si5 0.625970 0.118490 0.000000
O O1 0.222238 0.500000 0.139160
O O2 0.307501 0.307501 0.151702
O O3 0.105472 0.344356 0.175110
O O4 0.176355 0.348890 0.063334
O O5 0.816508 0.370405 0.500000
O O6 0.773064 0.500000 0.586767
O O7 0.695211 0.304790 0.586754
O O8 0.895302 0.342563 0.611438
O O9 0.000000 0.500000 0.788055
O O10 0.000000 0.336742 0.718245
O O11 0.500000 0.000000 0.352050
O O12 0.500000 0.110288 0.000000
O O13 0.667967 0.000000 0.000000
#
# Coordination Sequence:
#
# PCOD9561871 Si02
#       5
#    16  16   8   8   8
#     4  10  19  31  49  73  99 126 157 194 237 285
#     4   9  17  29  47  72 100 128 157 191 233 281
#     4   9  18  32  48  67  90 124 168 202 229 274
#     4   9  17  30  48  67  91 124 164 204 235 267
#     4   9  15  28  49  70  94 124 161 197 230 274
#
# _framework density 15.756371
#
# number of rings (size 3 to 8) (size 9 to 14) (size 15 to 20)
#    0.000    2.714    1.429    0.857    0.000    3.429 
#    0.000    1.429    0.000    3.429    0.000   13.000 
#    0.000    0.000    0.000    0.000    0.000    0.000 
#
# Total GULP energy -311834.315065 kJ/mol
# GULP energy per Si atom -5568.469912 kJ/mol
# Density = 1.572051 g / cm^3
# Si number density = 15.756371 Si / 1000 Ang^3
#
#
#
# Elastic Constant Matrix: (Units=GPa)
#
#
# Indices 1 2 3 4 5 6 
#
# 1 88.3016 63.2592 54.1242 0.0000 0.0000 0.0000
# 2 63.2592 88.3016 54.1242 0.0000 0.0000 0.0000
# 3 54.1242 54.1242 90.3437 0.0000 0.0000 0.0000
# 4 0.0000 0.0000 0.0000 7.1377 0.0000 0.0000
# 5 0.0000 0.0000 0.0000 0.0000 7.1377 0.0000
# 6 0.0000 0.0000 0.0000 0.0000 0.0000 0.8498
#
#
#
# Elastic Compliance Matrix: (Units=1/GPa)
#
#
# Indices 1 2 3 4 5 6 
#
# 1 0.025732 -0.014200 -0.006909 0.000000 0.000000 0.000000
# 2 -0.014200 0.025732 -0.006909 0.000000 0.000000 0.000000
# 3 -0.006909 -0.006909 0.019347 0.000000 0.000000 0.000000
# 4 0.000000 0.000000 0.000000 0.140102 0.000000 0.000000
# 5 0.000000 0.000000 0.000000 0.000000 0.140102 0.000000
# 6 0.000000 0.000000 0.000000 0.000000 0.000000 1.176740
#
#
# Mechanical properties :
#
#
# Convention : Reuss Voigt Hill
#
# Bulk Modulus (GPa) = 67.67699 67.77357 67.72528
# Shear Modulus (GPa) = 3.14719 9.38765 6.26742
#
# Velocity S-wave (km/s) = 1.41483 2.44355 1.99658
# Velocity P-wave (km/s) = 6.76124 7.14619 6.95638
#
# Compressibility (1/GPa) = 0.01477607
#
# Stress axis : x y z
#
# Youngs Moduli (GPa) = 38.86146 38.86146 51.68688
#
# Poissons Ratio (x) = 0.55182 0.35711
# Poissons Ratio (y) = 0.55182 0.35711
# Poissons Ratio (z) = 0.26850 0.26850
#
# Static dielectric constant tensor:
#      x y z
#    x 1.510180 0.000000 0.000000 
#    y 0.000000 1.510180 0.000000 
#    z 0.000000 0.000000 1.537590 
# 
# From -- ./inp_files/6981.got.cif
#   From: 2010.05.17/outbox.cif.g08.bks.cpg/sg123_4_cif.got.tgz:6981.got - 2010.05.20 11:43:04.
