data_PCOD9561147
_publ_section_title
;
Structure prediction by ZEFSAII (Michael W. Deem and Ramdas Pophale) SiO2 
 PCOD9561147
Probable space group: I -4 2 D
;
_chemical_formula_sum "Si O2"
_cell_formula_units_Z 88
_cell_length_a 17.262867
_cell_length_b 17.262867
_cell_length_c 12.817265
_cell_angle_alpha 90.000000
_cell_angle_beta 90.000000
_cell_angle_gamma 90.000000
_cell_volume 3819.629270
_symmetry_space_group_name_H-M "I -4 2 D"
_symmetry_group_IT_number 122
_symmetry_cell_setting 'tetragonal'
loop_
_space_group_symop_operation_xyz
x,y,z
y,-x,-z
-x,-y,z
-y,x,-z
x,1/2-y,1/4-z
-x,1/2+y,1/4-z
-y,1/2-x,1/4+z
y,1/2+x,1/4+z
1/2+x,1/2+y,1/2+z
1/2+y,1/2-x,1/2-z
1/2-x,1/2-y,1/2+z
1/2-y,1/2+x,1/2-z
1/2+x,-y,3/4-z
1/2-x,y,3/4-z
1/2-y,-x,3/4+z
1/2+y,x,3/4+z
loop_
_atom_site_type_symbol
_atom_site_label
_atom_site_fract_x
_atom_site_fract_y
_atom_site_fract_z
Si Si1 0.342702 0.165340 0.967501
Si Si2 0.904690 0.421532 0.220476
Si Si3 0.115430 0.525913 0.729171
Si Si4 0.801708 0.834864 0.103386
Si Si5 0.545176 0.750000 0.125000
Si Si6 0.666255 0.669328 0.841792
O O1 0.384933 0.103266 0.893761
O O2 0.330858 0.242618 0.893301
O O3 0.265611 0.132629 0.026275
O O4 0.400559 0.195062 0.055486
O O5 0.898974 0.513792 0.225869
O O6 0.838583 0.380313 0.288091
O O7 0.072412 0.446976 0.699489
O O8 0.192357 0.505962 0.792907
O O9 0.135606 0.587305 0.639699
O O10 0.768093 0.750000 0.125000
O O11 0.829179 0.646164 0.030082
O O12 0.750000 0.638594 0.875000
#
# Coordination Sequence:
#
# PCOD9561147 Si02
#       6
#    16  16  16  16   8  16
#     4  11  21  44  70 101 143 179 239 297 364 428
#     4  11  27  47  66  99 146 193 240 292 355 435
#     4  10  24  44  66 102 148 189 243 305 366 445
#     4  12  21  40  72 102 135 180 231 302 359 421
#     4  10  22  42  72 104 138 190 234 304 374 434
#     4  11  21  40  70 103 135 179 239 294 363 443
#
# _framework density 23.038885000000001
#
# number of rings (size 3 to 8) (size 9 to 14) (size 15 to 20)
#    0.000    1.091    4.545    1.636    1.273    4.364 
#    9.818    3.636    0.000    0.000    0.000    0.000 
#    0.000    0.000    0.000    0.000    0.000    0.000 
#
# Total GULP energy -244998.227473 kJ/mol
# GULP energy per Si atom -5568.141533 kJ/mol
# Density = 2.298645 g / cm^3
# Si number density = 23.038885 Si / 1000 Ang^3
#
#
#
# Elastic Constant Matrix: (Units=GPa)
#
#
# Indices 1 2 3 4 5 6 
#
# 1 65.7393 25.6569 30.5964 0.0000 0.0000 0.0000
# 2 25.6569 65.7393 30.5964 0.0000 0.0000 0.0000
# 3 30.5964 30.5964 137.9534 0.0000 0.0000 0.0000
# 4 0.0000 0.0000 0.0000 17.6300 0.0000 0.0000
# 5 0.0000 0.0000 0.0000 0.0000 17.6300 0.0000
# 6 0.0000 0.0000 0.0000 0.0000 0.0000 34.3737
#
#
#
# Elastic Compliance Matrix: (Units=1/GPa)
#
#
# Indices 1 2 3 4 5 6 
#
# 1 0.018899 -0.006050 -0.002850 0.000000 0.000000 0.000000
# 2 -0.006050 0.018899 -0.002850 0.000000 0.000000 0.000000
# 3 -0.002850 -0.002850 0.008513 0.000000 0.000000 0.000000
# 4 0.000000 0.000000 0.000000 0.056722 0.000000 0.000000
# 5 0.000000 0.000000 0.000000 0.000000 0.056722 0.000000
# 6 0.000000 0.000000 0.000000 0.000000 0.000000 0.029092
#
#
# Mechanical properties :
#
#
# Convention : Reuss Voigt Hill
#
# Bulk Modulus (GPa) = 43.83574 49.23683 46.53629
# Shear Modulus (GPa) = 22.73256 26.09889 24.41572
#
# Velocity S-wave (km/s) = 3.14459 3.36939 3.25893
# Velocity P-wave (km/s) = 5.67915 6.04604 5.86547
#
# Compressibility (1/GPa) = 0.02281243
#
# Stress axis : x y z
#
# Youngs Moduli (GPa) = 52.91274 52.91274 117.46808
#
# Poissons Ratio (x) = 0.32010 0.33477
# Poissons Ratio (y) = 0.32010 0.33477
# Poissons Ratio (z) = 0.15079 0.15079
#
# Static dielectric constant tensor:
#      x y z
#    x 1.876110 0.000000 0.000000 
#    y 0.000000 1.876110 0.000000 
#    z 0.000000 0.000000 2.030300 
# 
# From -- ./inp_files/5363.got.cif
#   From: 2010.05.17/outbox.cif.g08.bks.cpg/sg122_3_cif.got.tgz:5363.got - 2010.05.20 11:37:33.
