data_PCOD9561327
_publ_section_title
;
Structure prediction by ZEFSAII (Michael W. Deem and Ramdas Pophale) SiO2 
 PCOD9561327
Probable space group: I -4 2 D
;
_chemical_formula_sum "Si O2"
_cell_formula_units_Z 72
_cell_length_a 17.339640
_cell_length_b 17.339640
_cell_length_c 15.091397
_cell_angle_alpha 90.000000
_cell_angle_beta 90.000000
_cell_angle_gamma 90.000000
_cell_volume 4537.426437
_symmetry_space_group_name_H-M "I -4 2 D"
_symmetry_group_IT_number 122
_symmetry_cell_setting 'tetragonal'
loop_
_space_group_symop_operation_xyz
x,y,z
y,-x,-z
-x,-y,z
-y,x,-z
x,1/2-y,1/4-z
-x,1/2+y,1/4-z
-y,1/2-x,1/4+z
y,1/2+x,1/4+z
1/2+x,1/2+y,1/2+z
1/2+y,1/2-x,1/2-z
1/2-x,1/2-y,1/2+z
1/2-y,1/2+x,1/2-z
1/2+x,-y,3/4-z
1/2-x,y,3/4-z
1/2-y,-x,3/4+z
1/2+y,x,3/4+z
loop_
_atom_site_type_symbol
_atom_site_label
_atom_site_fract_x
_atom_site_fract_y
_atom_site_fract_z
Si Si1 0.196538 0.054043 0.075780
Si Si2 0.111167 0.117702 0.905078
Si Si3 0.507177 0.683316 0.699809
Si Si4 0.685671 0.813371 0.546011
Si Si5 0.768229 0.250000 0.125000
O O1 0.209649 0.106070 0.161028
O O2 0.156655 0.971857 0.092748
O O3 0.141170 0.098227 0.004695
O O4 0.278243 0.039449 0.029216
O O5 0.175641 0.175909 0.866244
O O6 0.114711 0.039439 0.847079
O O7 0.507645 0.750000 0.625000
O O8 0.595418 0.673814 0.726882
O O9 0.690645 0.750000 0.625000
O O10 0.732431 0.782638 0.461813
#
# Coordination Sequence:
#
# PCOD9561327 Si02
#       5
#    16  16  16  16   8
#     4  11  19  32  54  82 111 141 174 222 281 332
#     4  11  19  32  55  84 111 137 175 227 286 340
#     4   9  17  30  50  80 112 136 166 216 274 335
#     4  11  20  34  53  77 109 147 178 221 274 323
#     4  12  20  34  56  76 104 150 188 214 272 338
#
# _framework density 15.868026
#
# number of rings (size 3 to 8) (size 9 to 14) (size 15 to 20)
#    0.000    1.333    7.778    2.667    0.000    3.111 
#    0.000    0.000    7.333    0.000    0.000    0.000 
#    0.000    0.000    0.000    0.000    0.000    0.000 
#
# Total GULP energy -200746.882931 kJ/mol
# GULP energy per Si atom -5576.302304 kJ/mol
# Density = 1.583191 g / cm^3
# Si number density = 15.868026 Si / 1000 Ang^3
#
#
#
# Elastic Constant Matrix: (Units=GPa)
#
#
# Indices 1 2 3 4 5 6 
#
# 1 63.4457 20.6843 47.2282 0.0000 0.0000 0.0000
# 2 20.6843 63.4457 47.2282 0.0000 0.0000 0.0000
# 3 47.2282 47.2282 88.7731 0.0000 0.0000 0.0000
# 4 0.0000 0.0000 0.0000 27.1879 0.0000 0.0000
# 5 0.0000 0.0000 0.0000 0.0000 27.1879 0.0000
# 6 0.0000 0.0000 0.0000 0.0000 0.0000 11.3743
#
#
#
# Elastic Compliance Matrix: (Units=1/GPa)
#
#
# Indices 1 2 3 4 5 6 
#
# 1 0.026452 0.003066 -0.015704 0.000000 0.000000 0.000000
# 2 0.003066 0.026452 -0.015704 0.000000 0.000000 0.000000
# 3 -0.015704 -0.015704 0.027974 0.000000 0.000000 0.000000
# 4 0.000000 0.000000 0.000000 0.036781 0.000000 0.000000
# 5 0.000000 0.000000 0.000000 0.000000 0.036781 0.000000
# 6 0.000000 0.000000 0.000000 0.000000 0.000000 0.087918
#
#
# Mechanical properties :
#
#
# Convention : Reuss Voigt Hill
#
# Bulk Modulus (GPa) = 41.33228 49.54955 45.44091
# Shear Modulus (GPa) = 16.28116 19.85161 18.06639
#
# Velocity S-wave (km/s) = 3.20665 3.54085 3.37789
# Velocity P-wave (km/s) = 6.30985 6.92897 6.62665
#
# Compressibility (1/GPa) = 0.02419416
#
# Stress axis : x y z
#
# Youngs Moduli (GPa) = 37.80504 37.80504 35.74804
#
# Poissons Ratio (x) = -0.11591 0.56137
# Poissons Ratio (y) = -0.11591 0.56137
# Poissons Ratio (z) = 0.59367 0.59367
#
# Static dielectric constant tensor:
#      x y z
#    x 1.551830 0.000000 0.000000 
#    y 0.000000 1.551830 0.000000 
#    z 0.000000 0.000000 1.536790 
# 
# From -- ./inp_files/4199.got.cif
#   From: 2010.05.17/outbox.cif.g08.bks.cpg/sg122_3_cif.got.tgz:4199.got - 2010.05.20 11:37:33.
