data_PCOD9561389
_publ_section_title
;
Structure prediction by ZEFSAII (Michael W. Deem and Ramdas Pophale) SiO2 
 PCOD9561389
Probable space group: I -4 2 D
;
_chemical_formula_sum "Si O2"
_cell_formula_units_Z 48
_cell_length_a 8.927544
_cell_length_b 8.927544
_cell_length_c 27.209142
_cell_angle_alpha 90.000000
_cell_angle_beta 90.000000
_cell_angle_gamma 90.000000
_cell_volume 2168.596966
_symmetry_space_group_name_H-M "I -4 2 D"
_symmetry_group_IT_number 122
_symmetry_cell_setting 'tetragonal'
loop_
_space_group_symop_operation_xyz
x,y,z
y,-x,-z
-x,-y,z
-y,x,-z
x,1/2-y,1/4-z
-x,1/2+y,1/4-z
-y,1/2-x,1/4+z
y,1/2+x,1/4+z
1/2+x,1/2+y,1/2+z
1/2+y,1/2-x,1/2-z
1/2-x,1/2-y,1/2+z
1/2-y,1/2+x,1/2-z
1/2+x,-y,3/4-z
1/2-x,y,3/4-z
1/2-y,-x,3/4+z
1/2+y,x,3/4+z
loop_
_atom_site_type_symbol
_atom_site_label
_atom_site_fract_x
_atom_site_fract_y
_atom_site_fract_z
Si Si1 0.334212 0.569523 0.125016
Si Si2 0.447592 0.223623 0.769754
Si Si3 0.545254 0.275117 0.981045
O O1 0.500000 0.500000 0.127790
O O2 0.342374 0.750000 0.125000
O O3 0.242809 0.518700 0.172884
O O4 0.263612 0.514968 0.073933
O O5 0.591735 0.172743 0.739336
O O6 0.371628 0.375124 0.750903
O O7 0.410535 0.333497 0.015545
#
# Coordination Sequence:
#
# PCOD9561389 Si02
#       3
#    16  16  16
#     4  12  25  43  78 111 138 191 249 295 360 432
#     4  11  28  49  66 107 153 190 236 297 368 433
#     4  11  22  46  76 109 137 182 250 299 351 425
#
# _framework density 22.134126999999999
#
# number of rings (size 3 to 8) (size 9 to 14) (size 15 to 20)
#    0.000    0.667    6.667    0.000    9.333    0.000 
#   12.000    0.000    0.000    0.000    0.000    0.000 
#    0.000    0.000    0.000    0.000    0.000    0.000 
#
# Total GULP energy -134449.059933 kJ/mol
# GULP energy per Si atom -5602.044164 kJ/mol
# Density = 2.208375 g / cm^3
# Si number density = 22.134127 Si / 1000 Ang^3
#
#
#
# Elastic Constant Matrix: (Units=GPa)
#
#
# Indices 1 2 3 4 5 6 
#
# 1 53.2717 39.5271 37.7272 0.0000 0.0000 0.0000
# 2 39.5271 53.2717 37.7272 0.0000 0.0000 0.0000
# 3 37.7272 37.7272 197.9560 0.0000 0.0000 0.0000
# 4 0.0000 0.0000 0.0000 24.1906 0.0000 0.0000
# 5 0.0000 0.0000 0.0000 0.0000 24.1906 0.0000
# 6 0.0000 0.0000 0.0000 0.0000 0.0000 54.6691
#
#
#
# Elastic Compliance Matrix: (Units=1/GPa)
#
#
# Indices 1 2 3 4 5 6 
#
# 1 0.042754 -0.030002 -0.002430 0.000000 0.000000 0.000000
# 2 -0.030002 0.042754 -0.002430 0.000000 0.000000 0.000000
# 3 -0.002430 -0.002430 0.005978 0.000000 0.000000 0.000000
# 4 0.000000 0.000000 0.000000 0.041338 0.000000 0.000000
# 5 0.000000 0.000000 0.000000 0.000000 0.041338 0.000000
# 6 0.000000 0.000000 0.000000 0.000000 0.000000 0.018292
#
#
# Mechanical properties :
#
#
# Convention : Reuss Voigt Hill
#
# Bulk Modulus (GPa) = 45.95412 59.38472 52.66942
# Shear Modulus (GPa) = 18.55748 33.24458 25.90103
#
# Velocity S-wave (km/s) = 2.89867 3.87972 3.42451
# Velocity P-wave (km/s) = 5.65772 6.85254 6.28360
#
# Compressibility (1/GPa) = 0.02176083
#
# Stress axis : x y z
#
# Youngs Moduli (GPa) = 23.38968 23.38966 167.28015
#
# Poissons Ratio (x) = 0.70173 0.40655
# Poissons Ratio (y) = 0.70173 0.40655
# Poissons Ratio (z) = 0.05684 0.05684
#
# Static dielectric constant tensor:
#      x y z
#    x 1.836860 0.000000 0.000000 
#    y 0.000000 1.836860 0.000000 
#    z 0.000000 0.000000 1.772800 
# 
# From -- ./inp_files/9026.got.cif
#   From: 2010.05.17/outbox.cif.g08.bks.cpg/sg122_5_cif.got.tgz:9026.got - 2010.05.20 11:37:33.
