data_PCOD9561654
_publ_section_title
;
Structure prediction by ZEFSAII (Michael W. Deem and Ramdas Pophale) SiO2 
 PCOD9561654
Probable space group: P 4/M M M
;
_chemical_formula_sum "Si O2"
_cell_formula_units_Z 104
_cell_length_a 26.392717
_cell_length_b 26.392717
_cell_length_c 7.369587
_cell_angle_alpha 90.000000
_cell_angle_beta 90.000000
_cell_angle_gamma 90.000000
_cell_volume 5133.473828
_symmetry_space_group_name_H-M "P 4/M M M"
_symmetry_group_IT_number 123
_symmetry_cell_setting 'tetragonal'
loop_
_space_group_symop_operation_xyz
x,y,z
-y,x,z
-x,-y,z
y,-x,z
x,-y,-z
-x,y,-z
y,x,-z
-y,-x,-z
-x,-y,-z
y,-x,-z
x,y,-z
-y,x,-z
-x,y,z
x,-y,z
-y,-x,z
y,x,z
loop_
_atom_site_type_symbol
_atom_site_label
_atom_site_fract_x
_atom_site_fract_y
_atom_site_fract_z
Si Si1 0.364506 0.716167 0.705841
Si Si2 0.098474 0.616584 0.280431
Si Si3 0.732009 0.907265 0.209615
Si Si4 0.283780 0.798751 0.207678
Si Si5 0.917665 0.000000 0.779281
Si Si6 0.797831 0.559288 0.278097
Si Si7 0.000000 0.443160 0.721212
Si Si8 0.000000 0.800145 0.222721
O O1 0.377164 0.701128 0.500000
O O2 0.331099 0.668902 0.785344
O O3 0.324913 0.763045 0.700499
O O4 0.413781 0.745158 0.783782
O O5 0.100678 0.618791 0.500000
O O6 0.081943 0.672250 0.215462
O O7 0.152727 0.592745 0.222881
O O8 0.052259 0.581781 0.222040
O O9 0.730696 0.851665 0.294822
O O10 0.768242 0.950772 0.283441
O O11 0.748259 0.900841 0.000000
O O12 0.233500 0.766501 0.198530
O O13 0.302230 0.806957 0.000000
O O14 0.950673 0.950673 0.724297
O O15 0.859031 0.000000 0.721367
O O16 0.917120 0.000000 0.000000
O O17 0.797232 0.560367 0.500000
O O18 0.802133 0.500000 0.225512
O O19 0.000000 0.500000 0.781260
O O20 0.000000 0.441361 0.500000
O O21 0.000000 0.799274 0.000000
#
# Coordination Sequence:
#
# PCOD9561654 Si02
#       8
#    16  16  16  16   8  16   8   8
#     4   9  16  27  44  64  85 110 140 174 213 255
#     4  10  18  29  45  62  81 111 146 181 220 255
#     4  10  19  30  43  60  86 116 143 172 212 261
#     4   9  17  28  42  60  82 110 142 172 206 253
#     4   8  14  26  45  67  89 113 143 183 229 272
#     4   9  16  26  42  64  87 111 143 182 220 255
#     4   9  17  28  43  62  79  99 139 188 221 250
#     4   9  18  29  41  60  86 117 146 176 221 272
#
# _framework density 20.259188000000002
#
# number of rings (size 3 to 8) (size 9 to 14) (size 15 to 20)
#    0.000    2.769    1.538    1.154    0.000    2.462 
#    0.000    3.077    0.000    3.692    0.000    0.000 
#    0.000    2.154    0.000    7.692    0.000    3.077 
#
# Total GULP energy -579236.796541 kJ/mol
# GULP energy per Si atom -5569.584582 kJ/mol
# Density = 2.021308 g / cm^3
# Si number density = 20.259188 Si / 1000 Ang^3
#
#
#
# Elastic Constant Matrix: (Units=GPa)
#
#
# Indices 1 2 3 4 5 6 
#
# 1 118.7174 54.0225 -2.8676 0.0000 0.0000 0.0000
# 2 54.0225 118.7174 -2.8676 0.0000 0.0000 0.0000
# 3 -2.8676 -2.8676 73.2994 0.0000 0.0000 0.0000
# 4 0.0000 0.0000 0.0000 -9.3288 0.0000 0.0000
# 5 0.0000 0.0000 0.0000 0.0000 -9.3288 0.0000
# 6 0.0000 0.0000 0.0000 0.0000 0.0000 23.3734
#
#
#
# Elastic Compliance Matrix: (Units=1/GPa)
#
#
# Indices 1 2 3 4 5 6 
#
# 1 0.010627 -0.004830 0.000227 0.000000 0.000000 0.000000
# 2 -0.004830 0.010627 0.000227 0.000000 0.000000 0.000000
# 3 0.000227 0.000227 0.013660 0.000000 0.000000 0.000000
# 4 0.000000 0.000000 0.000000 -0.107195 0.000000 0.000000
# 5 0.000000 0.000000 0.000000 0.000000 -0.107195 0.000000
# 6 0.000000 0.000000 0.000000 0.000000 0.000000 0.042784
#
#
# Mechanical properties :
#
#
# Convention : Reuss Voigt Hill
#
# Bulk Modulus (GPa) = 38.22533 45.25654 41.74093
# Shear Modulus (GPa) = -41.94004 18.43960 -11.75022
#
# Velocity S-wave (km/s) = -4.55485 3.02020 -2.41092
# Velocity P-wave (km/s) = 2.95857 5.87787 3.59140
#
# Compressibility (1/GPa) = 0.02616067
#
# Stress axis : x y z
#
# Youngs Moduli (GPa) = 94.10098 94.10098 73.20419
#
# Poissons Ratio (x) = 0.45454 -0.01660
# Poissons Ratio (y) = 0.45454 -0.01660
# Poissons Ratio (z) = -0.02134 -0.02134
#
# Static dielectric constant tensor:
#      x y z
#    x 1.691960 0.000000 0.000000 
#    y 0.000000 1.691960 0.000000 
#    z 0.000000 0.000000 1.760380 
# 
# From -- ./inp_files/1981.got.cif
#   From: 2010.05.17/outbox.cif.g08.bks.cpg/sg123_1_cif.got.tgz:1981.got - 2010.05.20 11:43:04.
