data_PCOD9561009
_publ_section_title
;
Structure prediction by ZEFSAII (Michael W. Deem and Ramdas Pophale) SiO2 
 PCOD9561009
Probable space group: I -4 2 D
;
_chemical_formula_sum "Si O2"
_cell_formula_units_Z 108
_cell_length_a 12.856778
_cell_length_b 12.856778
_cell_length_c 27.972121
_cell_angle_alpha 90.000000
_cell_angle_beta 90.000000
_cell_angle_gamma 90.000000
_cell_volume 4623.700427
_symmetry_space_group_name_H-M "I -4 2 D"
_symmetry_group_IT_number 122
_symmetry_cell_setting 'tetragonal'
loop_
_space_group_symop_operation_xyz
x,y,z
y,-x,-z
-x,-y,z
-y,x,-z
x,1/2-y,1/4-z
-x,1/2+y,1/4-z
-y,1/2-x,1/4+z
y,1/2+x,1/4+z
1/2+x,1/2+y,1/2+z
1/2+y,1/2-x,1/2-z
1/2-x,1/2-y,1/2+z
1/2-y,1/2+x,1/2-z
1/2+x,-y,3/4-z
1/2-x,y,3/4-z
1/2-y,-x,3/4+z
1/2+y,x,3/4+z
loop_
_atom_site_type_symbol
_atom_site_label
_atom_site_fract_x
_atom_site_fract_y
_atom_site_fract_z
Si Si1 0.669206 0.980586 0.679001
Si Si2 0.154124 0.570517 0.403729
Si Si3 0.237893 0.734922 0.954363
Si Si4 0.856535 0.069018 0.630270
Si Si5 0.500000 0.000000 0.750000
Si Si6 0.607980 0.622909 0.981008
Si Si7 0.862267 0.044350 0.323712
Si Si8 0.500000 0.000000 0.983104
O O1 0.603504 0.928945 0.636247
O O2 0.726749 0.882499 0.705122
O O3 0.745893 0.062470 0.655324
O O4 0.594638 0.032872 0.716976
O O5 0.250000 0.518171 0.375000
O O6 0.200704 0.676733 0.426150
O O7 0.097746 0.515057 0.447812
O O8 0.229841 0.625595 0.926657
O O9 0.300731 0.699201 0.000932
O O10 0.856974 0.083024 0.574138
O O11 0.931297 0.152328 0.654891
O O12 0.903972 0.955703 0.645141
O O13 0.638079 0.502951 0.991698
O O14 0.906166 0.025854 0.269782
#
# Coordination Sequence:
#
# PCOD9561009 Si02
#       8
#    16  16  16  16   4  16  16   8
#     4  10  23  43  69  95 132 176 224 290 334 411
#     4  10  22  40  66 101 139 173 230 279 344 411
#     4  10  23  39  64 100 134 176 223 270 337 410
#     4   9  19  38  62  95 136 171 224 274 332 392
#     4  12  26  48  76  92 128 184 232 282 364 392
#     4  11  22  37  62  97 137 183 218 265 325 409
#     4   9  20  39  65  95 134 186 215 278 338 408
#     4  10  21  38  70  99 131 184 232 283 350 398
#
# _framework density 23.357914000000001
#
# number of rings (size 3 to 8) (size 9 to 14) (size 15 to 20)
#    0.000    2.222    0.000    3.111    4.148   11.852 
#    0.000    0.000    0.000    0.000    0.000    0.000 
#    0.000    0.000    0.000    0.000    0.000    0.000 
#
# Total GULP energy -301836.832562 kJ/mol
# GULP energy per Si atom -5589.570973 kJ/mol
# Density = 2.330475 g / cm^3
# Si number density = 23.357914 Si / 1000 Ang^3
#
#
#
# Elastic Constant Matrix: (Units=GPa)
#
#
# Indices 1 2 3 4 5 6 
#
# 1 51.7531 31.8228 55.0135 0.0000 0.0000 0.0000
# 2 31.8228 51.7531 55.0135 0.0000 0.0000 0.0000
# 3 55.0135 55.0135 177.3228 0.0000 0.0000 0.0000
# 4 0.0000 0.0000 0.0000 24.5008 0.0000 0.0000
# 5 0.0000 0.0000 0.0000 0.0000 24.5008 0.0000
# 6 0.0000 0.0000 0.0000 0.0000 0.0000 32.6637
#
#
#
# Elastic Compliance Matrix: (Units=1/GPa)
#
#
# Indices 1 2 3 4 5 6 
#
# 1 0.035200 -0.014974 -0.006275 0.000000 0.000000 0.000000
# 2 -0.014974 0.035200 -0.006275 0.000000 0.000000 0.000000
# 3 -0.006275 -0.006275 0.009533 0.000000 0.000000 0.000000
# 4 0.000000 0.000000 0.000000 0.040815 0.000000 0.000000
# 5 0.000000 0.000000 0.000000 0.000000 0.040815 0.000000
# 6 0.000000 0.000000 0.000000 0.000000 0.000000 0.030615
#
#
# Mechanical properties :
#
#
# Convention : Reuss Voigt Hill
#
# Bulk Modulus (GPa) = 40.18448 62.72539 51.45494
# Shear Modulus (GPa) = 19.56772 25.59837 22.58305
#
# Velocity S-wave (km/s) = 2.89750 3.31406 3.11276
# Velocity P-wave (km/s) = 5.33247 6.44642 5.91572
#
# Compressibility (1/GPa) = 0.02488523
#
# Stress axis : x y z
#
# Youngs Moduli (GPa) = 28.40871 28.40871 104.89810
#
# Poissons Ratio (x) = 0.42540 0.65825
# Poissons Ratio (y) = 0.42540 0.65825
# Poissons Ratio (z) = 0.17827 0.17827
#
# Static dielectric constant tensor:
#      x y z
#    x 1.933280 0.000000 0.000000 
#    y 0.000000 1.933280 0.000000 
#    z 0.000000 0.000000 1.850350 
# 
# From -- ./inp_files/8173.got.cif
#   From: 2010.05.17/outbox.cif.g08.bks.cpg/sg122_5_cif.got.tgz:8173.got - 2010.05.20 11:37:33.
