data_PCOD9561396
_publ_section_title
;
Structure prediction by ZEFSAII (Michael W. Deem and Ramdas Pophale) SiO2 
 PCOD9561396
Probable space group: I -4 2 D
;
_chemical_formula_sum "Si O2"
_cell_formula_units_Z 56
_cell_length_a 24.521594
_cell_length_b 24.521594
_cell_length_c 5.033597
_cell_angle_alpha 90.000000
_cell_angle_beta 90.000000
_cell_angle_gamma 90.000000
_cell_volume 3026.745026
_symmetry_space_group_name_H-M "I -4 2 D"
_symmetry_group_IT_number 122
_symmetry_cell_setting 'tetragonal'
loop_
_space_group_symop_operation_xyz
x,y,z
y,-x,-z
-x,-y,z
-y,x,-z
x,1/2-y,1/4-z
-x,1/2+y,1/4-z
-y,1/2-x,1/4+z
y,1/2+x,1/4+z
1/2+x,1/2+y,1/2+z
1/2+y,1/2-x,1/2-z
1/2-x,1/2-y,1/2+z
1/2-y,1/2+x,1/2-z
1/2+x,-y,3/4-z
1/2-x,y,3/4-z
1/2-y,-x,3/4+z
1/2+y,x,3/4+z
loop_
_atom_site_type_symbol
_atom_site_label
_atom_site_fract_x
_atom_site_fract_y
_atom_site_fract_z
Si Si1 0.085025 0.313064 0.047271
Si Si2 0.855135 0.857185 0.711948
Si Si3 0.211810 0.750000 0.125000
Si Si4 0.789825 0.536150 0.618265
O O1 0.122146 0.328167 0.798897
O O2 0.022515 0.315698 0.949301
O O3 0.093946 0.250000 0.125000
O O4 0.101206 0.350288 0.299534
O O5 0.801723 0.825382 0.811115
O O6 0.835712 0.917392 0.627653
O O7 0.250000 0.738085 0.375000
O O8 0.750000 0.549956 0.375000
O O9 0.750000 0.533680 0.875000
#
# Coordination Sequence:
#
# PCOD9561396 Si02
#       4
#    16  16   8  16
#     4  11  23  40  61  87 121 161 207 249 300 373
#     4  12  23  39  60  89 122 161 202 251 307 367
#     4  12  24  34  54  88 128 154 182 236 314 378
#     4  11  23  41  62  87 120 165 210 249 302 372
#
# _framework density 18.501726000000001
#
# number of rings (size 3 to 8) (size 9 to 14) (size 15 to 20)
#    0.000    0.571    1.429   10.286    2.000    0.000 
#    0.000    0.000    0.000    5.143    0.000    0.000 
#    0.000    0.000    0.000    0.000    0.000    0.000 
#
# Total GULP energy -156597.492801 kJ/mol
# GULP energy per Si atom -5592.767600 kJ/mol
# Density = 1.845961 g / cm^3
# Si number density = 18.501726 Si / 1000 Ang^3
#
#
#
# Elastic Constant Matrix: (Units=GPa)
#
#
# Indices 1 2 3 4 5 6 
#
# 1 118.3171 81.6482 55.4097 0.0000 0.0000 0.0000
# 2 81.6482 118.3171 55.4097 0.0000 0.0000 0.0000
# 3 55.4097 55.4097 151.4992 0.0000 0.0000 0.0000
# 4 0.0000 0.0000 0.0000 -19.0037 0.0000 0.0000
# 5 0.0000 0.0000 0.0000 0.0000 -19.0037 0.0000
# 6 0.0000 0.0000 0.0000 0.0000 0.0000 -13.2640
#
#
#
# Elastic Compliance Matrix: (Units=1/GPa)
#
#
# Indices 1 2 3 4 5 6 
#
# 1 0.016772 -0.010499 -0.002294 0.000000 0.000000 0.000000
# 2 -0.010499 0.016772 -0.002294 0.000000 0.000000 0.000000
# 3 -0.002294 -0.002294 0.008279 0.000000 0.000000 0.000000
# 4 0.000000 0.000000 0.000000 -0.052621 0.000000 0.000000
# 5 0.000000 0.000000 0.000000 0.000000 -0.052621 0.000000
# 6 0.000000 0.000000 0.000000 0.000000 0.000000 -0.075392
#
#
# Mechanical properties :
#
#
# Convention : Reuss Voigt Hill
#
# Bulk Modulus (GPa) = 85.85846 85.89655 85.87751
# Shear Modulus (GPa) = -47.73015 2.79011 -22.47002
#
# Velocity S-wave (km/s) = -5.08465 1.22935 -3.48872
# Velocity P-wave (km/s) = 3.46912 6.96722 5.50349
#
# Compressibility (1/GPa) = 0.01164708
#
# Stress axis : x y z
#
# Youngs Moduli (GPa) = 59.62446 59.62446 120.79153
#
# Poissons Ratio (x) = 0.62602 0.27710
# Poissons Ratio (y) = 0.62602 0.27710
# Poissons Ratio (z) = 0.13678 0.13678
#
# Static dielectric constant tensor:
#      x y z
#    x 1.687070 0.000000 0.000000 
#    y 0.000000 1.687070 0.000000 
#    z 0.000000 0.000000 1.675620 
# 
# From -- ./inp_files/1010.got.cif
#   From: 2010.05.17/outbox.cif.g08.bks.cpg/sg122_1_cif.got.tgz:1010.got - 2010.05.20 11:37:33.
