data_PCOD9561887
_publ_section_title
;
Structure prediction by ZEFSAII (Michael W. Deem and Ramdas Pophale) SiO2 
 PCOD9561887
Probable space group: P 4/M M M
;
_chemical_formula_sum "Si O2"
_cell_formula_units_Z 64
_cell_length_a 21.518382
_cell_length_b 21.518382
_cell_length_c 8.481426
_cell_angle_alpha 90.000000
_cell_angle_beta 90.000000
_cell_angle_gamma 90.000000
_cell_volume 3927.245974
_symmetry_space_group_name_H-M "P 4/M M M"
_symmetry_group_IT_number 123
_symmetry_cell_setting 'tetragonal'
loop_
_space_group_symop_operation_xyz
x,y,z
-y,x,z
-x,-y,z
y,-x,z
x,-y,-z
-x,y,-z
y,x,-z
-y,-x,-z
-x,-y,-z
y,-x,-z
x,y,-z
-y,x,-z
-x,y,z
x,-y,z
-y,-x,z
y,x,z
loop_
_atom_site_type_symbol
_atom_site_label
_atom_site_fract_x
_atom_site_fract_y
_atom_site_fract_z
Si Si1 0.500000 0.102881 0.317190
Si Si2 0.284985 0.186702 0.811733
Si Si3 0.232930 0.500000 0.826087
Si Si4 0.715696 0.616457 0.318468
Si Si5 0.639997 0.071698 0.310316
O O1 0.500000 0.082857 0.500000
O O2 0.500000 0.176890 0.297742
O O3 0.568078 0.082480 0.253276
O O4 0.216226 0.216226 0.777167
O O5 0.332739 0.232102 0.722577
O O6 0.309102 0.118662 0.761527
O O7 0.293573 0.192322 0.000000
O O8 0.273720 0.560064 0.797029
O O9 0.204755 0.500000 0.000000
O O10 0.722868 0.596769 0.500000
O O11 0.650332 0.650332 0.299812
O O12 0.639256 0.081919 0.500000
O O13 0.655652 0.000000 0.279465
#
# Coordination Sequence:
#
# PCOD9561887 Si02
#       5
#     8  16   8  16  16
#     4  10  19  32  48  68  98 136 171 202 237 285
#     4  10  20  33  49  71  99 129 163 206 251 289
#     4  12  22  31  49  74 100 125 157 202 250 295
#     4  10  20  34  52  71  92 123 162 203 248 296
#     4  10  20  33  50  72 100 136 173 207 245 289
#
# _framework density 16.296408
#
# number of rings (size 3 to 8) (size 9 to 14) (size 15 to 20)
#    0.000    1.750    2.500    3.000    0.000    5.000 
#    0.000    0.000    0.000    2.625    0.000    2.625 
#    0.000    0.500    0.000    5.500    0.000    4.000 
#
# Total GULP energy -356541.779790 kJ/mol
# GULP energy per Si atom -5570.965309 kJ/mol
# Density = 1.625932 g / cm^3
# Si number density = 16.296408 Si / 1000 Ang^3
#
#
#
# Elastic Constant Matrix: (Units=GPa)
#
#
# Indices 1 2 3 4 5 6 
#
# 1 79.0982 44.7650 13.7040 0.0000 0.0000 0.0000
# 2 44.7650 79.0982 13.7040 0.0000 0.0000 0.0000
# 3 13.7040 13.7040 16.9037 0.0000 0.0000 0.0000
# 4 0.0000 0.0000 0.0000 32.2640 0.0000 0.0000
# 5 0.0000 0.0000 0.0000 0.0000 32.2640 0.0000
# 6 0.0000 0.0000 0.0000 0.0000 0.0000 -20.7818
#
#
#
# Elastic Compliance Matrix: (Units=1/GPa)
#
#
# Indices 1 2 3 4 5 6 
#
# 1 0.019482 -0.009644 -0.007976 0.000000 0.000000 0.000000
# 2 -0.009644 0.019482 -0.007976 0.000000 0.000000 0.000000
# 3 -0.007976 -0.007976 0.072091 0.000000 0.000000 0.000000
# 4 0.000000 0.000000 0.000000 0.030994 0.000000 0.000000
# 5 0.000000 0.000000 0.000000 0.000000 0.030994 0.000000
# 6 0.000000 0.000000 0.000000 0.000000 0.000000 -0.048119
#
#
# Mechanical properties :
#
#
# Convention : Reuss Voigt Hill
#
# Bulk Modulus (GPa) = 16.70465 35.49404 26.09934
# Shear Modulus (GPa) = 25.50086 15.61106 20.55596
#
# Velocity S-wave (km/s) = 3.96007 3.09843 3.55544
# Velocity P-wave (km/s) = 5.58411 5.88455 5.73629
#
# Compressibility (1/GPa) = 0.05986358
#
# Stress axis : x y z
#
# Youngs Moduli (GPa) = 51.32858 51.32858 13.87136
#
# Poissons Ratio (x) = 0.49501 0.11064
# Poissons Ratio (y) = 0.49501 0.11064
# Poissons Ratio (z) = 0.40940 0.40940
#
# Static dielectric constant tensor:
#      x y z
#    x 1.556330 0.000000 0.000000 
#    y 0.000000 1.556330 0.000000 
#    z 0.000000 0.000000 1.566780 
# 
# From -- ./inp_files/905.got.cif
#   From: 2010.05.17/outbox.cif.g08.bks.cpg/sg123_1_cif.got.tgz:905.got - 2010.05.20 11:43:04.
