data_PCOD9561079
_publ_section_title
;
Structure prediction by ZEFSAII (Michael W. Deem and Ramdas Pophale) SiO2 
 PCOD9561079
Probable space group: I -4 2 D
;
_chemical_formula_sum "Si O2"
_cell_formula_units_Z 72
_cell_length_a 13.885780
_cell_length_b 13.885780
_cell_length_c 17.134038
_cell_angle_alpha 90.000000
_cell_angle_beta 90.000000
_cell_angle_gamma 90.000000
_cell_volume 3303.697587
_symmetry_space_group_name_H-M "I -4 2 D"
_symmetry_group_IT_number 122
_symmetry_cell_setting 'tetragonal'
loop_
_space_group_symop_operation_xyz
x,y,z
y,-x,-z
-x,-y,z
-y,x,-z
x,1/2-y,1/4-z
-x,1/2+y,1/4-z
-y,1/2-x,1/4+z
y,1/2+x,1/4+z
1/2+x,1/2+y,1/2+z
1/2+y,1/2-x,1/2-z
1/2-x,1/2-y,1/2+z
1/2-y,1/2+x,1/2-z
1/2+x,-y,3/4-z
1/2-x,y,3/4-z
1/2-y,-x,3/4+z
1/2+y,x,3/4+z
loop_
_atom_site_type_symbol
_atom_site_label
_atom_site_fract_x
_atom_site_fract_y
_atom_site_fract_z
Si Si1 0.717032 0.655132 0.172921
Si Si2 0.325592 0.944983 0.041125
Si Si3 0.546515 0.228805 0.036382
Si Si4 0.599326 0.750000 0.625000
Si Si5 0.354363 0.266725 0.945728
O O1 0.679290 0.750000 0.125000
O O2 0.669601 0.550069 0.168833
O O3 0.827889 0.660589 0.145080
O O4 0.705344 0.682360 0.263734
O O5 0.422695 0.882907 0.028367
O O6 0.271965 0.874139 0.103533
O O7 0.275228 0.951836 0.956376
O O8 0.520309 0.250000 0.125000
O O9 0.637702 0.299190 0.024860
O O10 0.459606 0.256476 0.982037
#
# Coordination Sequence:
#
# PCOD9561079 Si02
#       5
#    16  16  16   8  16
#     4  10  22  42  65  92 137 173 224 293 359 412
#     4  11  22  38  64  96 128 175 236 278 355 437
#     4  10  22  38  63  96 128 175 225 282 351 425
#     4  10  22  40  60  96 128 176 228 278 354 420
#     4  11  21  40  63  90 134 178 224 289 358 417
#
# _framework density 21.793762999999998
#
# number of rings (size 3 to 8) (size 9 to 14) (size 15 to 20)
#    0.667    0.889    2.222    3.333    0.000    3.111 
#    0.000    4.444    0.000    3.333    0.000    0.000 
#    0.000    0.000    0.000    0.000    0.000    0.000 
#
# Total GULP energy -200417.578947 kJ/mol
# GULP energy per Si atom -5567.154971 kJ/mol
# Density = 2.174416 g / cm^3
# Si number density = 21.793763 Si / 1000 Ang^3
#
#
#
# Elastic Constant Matrix: (Units=GPa)
#
#
# Indices 1 2 3 4 5 6 
#
# 1 110.7046 47.4647 26.2990 0.0000 0.0000 0.0000
# 2 47.4647 110.7046 26.2990 0.0000 0.0000 0.0001
# 3 26.2990 26.2990 113.2105 0.0000 0.0000 0.0000
# 4 0.0000 0.0000 0.0000 35.1803 0.0000 0.0001
# 5 0.0000 0.0000 0.0000 0.0000 35.1803 0.0000
# 6 0.0000 0.0001 0.0000 0.0001 0.0000 -683.9205
#
#
#
# Elastic Compliance Matrix: (Units=1/GPa)
#
#
# Indices 1 2 3 4 5 6 
#
# 1 0.011332 -0.004481 -0.001592 0.000000 0.000000 0.000000
# 2 -0.004481 0.011332 -0.001592 0.000000 0.000000 0.000000
# 3 -0.001592 -0.001592 0.009573 0.000000 0.000000 0.000000
# 4 0.000000 0.000000 0.000000 0.028425 0.000000 0.000000
# 5 0.000000 0.000000 0.000000 0.000000 0.028425 0.000000
# 6 0.000000 0.000000 0.000000 0.000000 0.000000 -0.001462
#
#
# Mechanical properties :
#
#
# Convention : Reuss Voigt Hill
#
# Bulk Modulus (GPa) = 59.13915 59.41609 59.27762
# Shear Modulus (GPa) = 46.04514 -107.07487 -30.51486
#
# Velocity S-wave (km/s) = 4.60147 -7.01695 -3.74594
# Velocity P-wave (km/s) = 7.44487 6.19097 2.92387
#
# Compressibility (1/GPa) = 0.01690927
#
# Stress axis : x y z
#
# Youngs Moduli (GPa) = 88.24398 88.24399 104.46496
#
# Poissons Ratio (x) = 0.39539 0.16627
# Poissons Ratio (y) = 0.39539 0.16627
# Poissons Ratio (z) = 0.14045 0.14045
#
# Static dielectric constant tensor:
#      x y z
#    x 1.830290 0.000000 0.000000 
#    y 0.000000 1.830290 0.000000 
#    z 0.000000 0.000000 2.004870 
# 
# From -- ./inp_files/6149.got.cif
#   From: 2010.05.17/outbox.cif.g08.bks.cpg/sg122_4_cif.got.tgz:6149.got - 2010.05.20 11:37:33.
