data_PCOD9561367
_publ_section_title
;
Structure prediction by ZEFSAII (Michael W. Deem and Ramdas Pophale) SiO2 
 PCOD9561367
Probable space group: I -4 2 D
;
_chemical_formula_sum "Si O2"
_cell_formula_units_Z 108
_cell_length_a 28.213200
_cell_length_b 28.213200
_cell_length_c 6.614218
_cell_angle_alpha 90.000000
_cell_angle_beta 90.000000
_cell_angle_gamma 90.000000
_cell_volume 5264.816028
_symmetry_space_group_name_H-M "I -4 2 D"
_symmetry_group_IT_number 122
_symmetry_cell_setting 'tetragonal'
loop_
_space_group_symop_operation_xyz
x,y,z
y,-x,-z
-x,-y,z
-y,x,-z
x,1/2-y,1/4-z
-x,1/2+y,1/4-z
-y,1/2-x,1/4+z
y,1/2+x,1/4+z
1/2+x,1/2+y,1/2+z
1/2+y,1/2-x,1/2-z
1/2-x,1/2-y,1/2+z
1/2-y,1/2+x,1/2-z
1/2+x,-y,3/4-z
1/2-x,y,3/4-z
1/2-y,-x,3/4+z
1/2+y,x,3/4+z
loop_
_atom_site_type_symbol
_atom_site_label
_atom_site_fract_x
_atom_site_fract_y
_atom_site_fract_z
Si Si1 0.623039 0.645923 0.317224
Si Si2 0.074724 0.703287 0.249218
Si Si3 0.062534 0.386287 0.819839
Si Si4 0.712785 0.803630 0.053949
Si Si5 0.000000 0.500000 0.250000
Si Si6 0.378332 0.750000 0.125000
Si Si7 0.834091 0.027068 0.954790
Si Si8 0.983974 0.410094 0.511071
O O1 0.656054 0.603295 0.416511
O O2 0.660590 0.686962 0.278246
O O3 0.579395 0.667758 0.445026
O O4 0.598264 0.629815 0.107130
O O5 0.090128 0.750000 0.125000
O O6 0.090082 0.715748 0.480593
O O7 0.017769 0.701236 0.212402
O O8 0.088120 0.428610 0.940274
O O9 0.015380 0.405531 0.710334
O O10 0.041415 0.348500 0.977539
O O11 0.718260 0.750000 0.125000
O O12 0.721558 0.842485 0.228771
O O13 0.750000 0.810451 0.875000
O O14 0.997840 0.457108 0.399312
O O15 0.872591 0.001274 0.097532
#
# Coordination Sequence:
#
# PCOD9561367 Si02
#       8
#    16  16  16  16   4   8  16  16
#     4  11  25  45  70 107 141 189 248 295 378 446
#     4  12  26  47  74 104 141 193 259 294 370 469
#     4  11  23  40  65  92 137 189 235 296 364 416
#     4  12  25  48  77 116 144 179 242 310 375 454
#     4  12  20  34  52  88 134 172 236 302 352 408
#     4  12  24  46  82 104 140 196 238 310 366 444
#     4  11  26  43  63  99 140 179 236 305 353 431
#     4  11  22  36  57  90 127 179 233 286 348 420
#
# _framework density 20.513538
#
# number of rings (size 3 to 8) (size 9 to 14) (size 15 to 20)
#    0.000    0.593    5.185    2.667    6.222    2.370 
#    4.000    0.000    0.000    0.000    0.000    0.000 
#    0.000    0.000    0.000    0.000    0.000    0.000 
#
# Total GULP energy -300965.559967 kJ/mol
# GULP energy per Si atom -5573.436296 kJ/mol
# Density = 2.046685 g / cm^3
# Si number density = 20.513538 Si / 1000 Ang^3
#
#
#
# Elastic Constant Matrix: (Units=GPa)
#
#
# Indices 1 2 3 4 5 6 
#
# 1 125.6008 50.8327 58.4506 0.0000 0.0000 0.0000
# 2 50.8327 125.6008 58.4506 0.0000 0.0000 0.0000
# 3 58.4506 58.4506 138.5969 0.0000 0.0000 0.0000
# 4 0.0000 0.0000 0.0000 65.7380 0.0000 0.0000
# 5 0.0000 0.0000 0.0000 0.0000 65.7380 0.0000
# 6 0.0000 0.0000 0.0000 0.0000 0.0000 34.6621
#
#
#
# Elastic Compliance Matrix: (Units=1/GPa)
#
#
# Indices 1 2 3 4 5 6 
#
# 1 0.010620 -0.002754 -0.003317 0.000000 0.000000 0.000000
# 2 -0.002754 0.010620 -0.003317 0.000000 0.000000 0.000000
# 3 -0.003317 -0.003317 0.010013 0.000000 0.000000 0.000000
# 4 0.000000 0.000000 0.000000 0.015212 0.000000 0.000000
# 5 0.000000 0.000000 0.000000 0.000000 0.015212 0.000000
# 6 0.000000 0.000000 0.000000 0.000000 0.000000 0.028850
#
#
# Mechanical properties :
#
#
# Convention : Reuss Voigt Hill
#
# Bulk Modulus (GPa) = 80.15558 80.58515 80.37036
# Shear Modulus (GPa) = 44.06692 48.03195 46.04944
#
# Velocity S-wave (km/s) = 4.63988 4.84413 4.74311
# Velocity P-wave (km/s) = 8.23796 8.40575 8.32228
#
# Compressibility (1/GPa) = 0.01247574
#
# Stress axis : x y z
#
# Youngs Moduli (GPa) = 94.15985 94.15985 99.86880
#
# Poissons Ratio (x) = 0.25936 0.33129
# Poissons Ratio (y) = 0.25936 0.33129
# Poissons Ratio (z) = 0.31235 0.31235
#
# Static dielectric constant tensor:
#      x y z
#    x 1.881290 0.000000 0.000000 
#    y 0.000000 1.881290 0.000000 
#    z 0.000000 0.000000 1.768750 
# 
# From -- ./inp_files/1577.got.cif
#   From: 2010.05.17/outbox.cif.g08.bks.cpg/sg122_1_cif.got.tgz:1577.got - 2010.05.20 11:37:33.
