data_PCOD9561928
_publ_section_title
;
Structure prediction by ZEFSAII (Michael W. Deem and Ramdas Pophale) SiO2 
 PCOD9561928
Probable space group: P 4/M M M
;
_chemical_formula_sum "Si O2"
_cell_formula_units_Z 88
_cell_length_a 19.054506
_cell_length_b 19.054506
_cell_length_c 13.929989
_cell_angle_alpha 90.000000
_cell_angle_beta 90.000000
_cell_angle_gamma 90.000000
_cell_volume 5057.619597
_symmetry_space_group_name_H-M "P 4/M M M"
_symmetry_group_IT_number 123
_symmetry_cell_setting 'tetragonal'
loop_
_space_group_symop_operation_xyz
x,y,z
-y,x,z
-x,-y,z
y,-x,z
x,-y,-z
-x,y,-z
y,x,-z
-y,-x,-z
-x,-y,-z
y,-x,-z
x,y,-z
-y,x,-z
-x,y,z
x,-y,z
-y,-x,z
y,x,z
loop_
_atom_site_type_symbol
_atom_site_label
_atom_site_fract_x
_atom_site_fract_y
_atom_site_fract_z
Si Si1 0.918130 0.801699 0.285461
Si Si2 0.659676 0.079922 0.612467
Si Si3 0.583166 0.198738 0.893644
Si Si4 0.415915 0.695106 0.500000
Si Si5 0.081685 0.298691 0.107644
Si Si6 0.583814 0.784761 0.314883
O O1 0.866090 0.866090 0.298244
O O2 0.910695 0.742344 0.367284
O O3 0.900676 0.758537 0.188055
O O4 0.000000 0.822834 0.281074
O O5 0.644221 0.086945 0.500000
O O6 0.618080 0.139270 0.668969
O O7 0.642198 0.000000 0.642499
O O8 0.500000 0.181043 0.890245
O O9 0.633267 0.130953 0.888226
O O10 0.598808 0.239888 0.794382
O O11 0.595709 0.231210 0.000000
O O12 0.500000 0.690967 0.500000
O O13 0.380025 0.619976 0.500000
O O14 0.393006 0.736195 0.596549
O O15 0.000000 0.318013 0.121717
O O16 0.089013 0.269020 0.000000
O O17 0.500000 0.791319 0.323846
#
# Coordination Sequence:
#
# PCOD9561928 Si02
#       6
#    16  16  16   8  16  16
#     4  10  21  36  52  70  92 122 165 216 270 321
#     4  10  20  34  50  73 105 138 171 206 253 314
#     4   9  17  29  47  73 108 147 177 203 241 296
#     4  10  22  39  59  83 109 139 176 218 262 304
#     4   9  17  30  47  68  96 128 165 210 255 301
#     4  10  19  33  52  79 113 143 176 214 251 297
#
# _framework density 17.39949
#
# number of rings (size 3 to 8) (size 9 to 14) (size 15 to 20)
#    0.000    2.364    2.727    0.000    0.000    2.455 
#    0.000    4.545    0.000    0.545    0.000    5.091 
#    0.000    0.000    0.000    7.091    0.000    0.000 
#
# Total GULP energy -489966.680642 kJ/mol
# GULP energy per Si atom -5567.803189 kJ/mol
# Density = 1.735989 g / cm^3
# Si number density = 17.399490 Si / 1000 Ang^3
#
#
#
# Elastic Constant Matrix: (Units=GPa)
#
#
# Indices 1 2 3 4 5 6 
#
# 1 20.0736 15.2544 16.0480 0.0000 0.0000 0.0000
# 2 15.2544 20.0798 16.0502 0.0000 0.0000 0.0000
# 3 16.0480 16.0502 123.4051 0.0000 0.0000 0.0000
# 4 0.0000 0.0000 0.0000 11.6217 0.0000 0.0000
# 5 0.0000 0.0000 0.0000 0.0000 11.6216 0.0000
# 6 0.0000 0.0000 0.0000 0.0000 0.0000 27.7882
#
#
#
# Elastic Compliance Matrix: (Units=1/GPa)
#
#
# Indices 1 2 3 4 5 6 
#
# 1 0.119751 -0.087637 -0.004175 0.000000 0.000000 0.000000
# 2 -0.087637 0.119714 -0.004174 0.000000 0.000000 0.000000
# 3 -0.004175 -0.004174 0.009189 0.000000 0.000000 0.000000
# 4 0.000000 0.000000 0.000000 0.086046 0.000000 0.000000
# 5 0.000000 0.000000 0.000000 0.000000 0.086047 0.000000
# 6 0.000000 0.000000 0.000000 0.000000 0.000000 0.035987
#
#
# Mechanical properties :
#
#
# Convention : Reuss Voigt Hill
#
# Bulk Modulus (GPa) = 17.64157 28.69597 23.16877
# Shear Modulus (GPa) = 7.48952 17.95334 12.72143
#
# Velocity S-wave (km/s) = 2.07697 3.21570 2.70689
# Velocity P-wave (km/s) = 3.98909 5.50598 4.80774
#
# Compressibility (1/GPa) = 0.05668428
#
# Stress axis : x y z
#
# Youngs Moduli (GPa) = 8.35063 8.35321 108.82454
#
# Poissons Ratio (x) = 0.73205 0.45431
# Poissons Ratio (y) = 0.73182 0.45419
# Poissons Ratio (z) = 0.03486 0.03486
#
# Static dielectric constant tensor:
#      x y z
#    x 1.556800 0.000000 0.000000 
#    y 0.000000 1.556800 0.000000 
#    z 0.000000 0.000000 1.669130 
# 
# From -- ./inp_files/4041.got.cif
#   From: 2010.05.17/outbox.cif.g08.bks.cpg/sg123_3_cif.got.tgz:4041.got - 2010.05.20 11:43:04.
