data_PCOD9561425
_publ_section_title
;
Structure prediction by ZEFSAII (Michael W. Deem and Ramdas Pophale) SiO2 
 PCOD9561425
Probable space group: I -4 2 D
;
_chemical_formula_sum "Si O2"
_cell_formula_units_Z 56
_cell_length_a 19.215598
_cell_length_b 19.215598
_cell_length_c 7.900850
_cell_angle_alpha 90.000000
_cell_angle_beta 90.000000
_cell_angle_gamma 90.000000
_cell_volume 2917.303585
_symmetry_space_group_name_H-M "I -4 2 D"
_symmetry_group_IT_number 122
_symmetry_cell_setting 'tetragonal'
loop_
_space_group_symop_operation_xyz
x,y,z
y,-x,-z
-x,-y,z
-y,x,-z
x,1/2-y,1/4-z
-x,1/2+y,1/4-z
-y,1/2-x,1/4+z
y,1/2+x,1/4+z
1/2+x,1/2+y,1/2+z
1/2+y,1/2-x,1/2-z
1/2-x,1/2-y,1/2+z
1/2-y,1/2+x,1/2-z
1/2+x,-y,3/4-z
1/2-x,y,3/4-z
1/2-y,-x,3/4+z
1/2+y,x,3/4+z
loop_
_atom_site_type_symbol
_atom_site_label
_atom_site_fract_x
_atom_site_fract_y
_atom_site_fract_z
Si Si1 0.832361 0.429246 0.355954
Si Si2 0.073901 0.696038 0.278638
Si Si3 0.476139 0.750000 0.125000
Si Si4 0.472779 0.110991 0.278618
O O1 0.750000 0.418547 0.375000
O O2 0.867835 0.362195 0.277739
O O3 0.840485 0.498932 0.246217
O O4 0.866295 0.444879 0.538178
O O5 0.069498 0.734798 0.458470
O O6 0.081386 0.750000 0.125000
O O7 0.520595 0.819049 0.167610
O O8 0.549966 0.077022 0.291180
#
# Coordination Sequence:
#
# PCOD9561425 Si02
#       4
#    16  16   8  16
#     4  11  24  44  66  99 137 175 226 280 337 403
#     4  11  25  44  68  97 137 176 225 278 340 407
#     4  12  22  44  68  94 140 172 214 286 336 400
#     4  11  24  41  69 102 129 174 230 275 336 401
#
# _framework density 19.195809000000001
#
# number of rings (size 3 to 8) (size 9 to 14) (size 15 to 20)
#    0.000    0.857    8.571    0.000    4.000    0.571 
#    2.571    0.000    0.000    0.000    0.000    0.000 
#    0.000    0.000    0.000    0.000    0.000    0.000 
#
# Total GULP energy -156458.653161 kJ/mol
# GULP energy per Si atom -5587.809041 kJ/mol
# Density = 1.915212 g / cm^3
# Si number density = 19.195809 Si / 1000 Ang^3
#
#
#
# Elastic Constant Matrix: (Units=GPa)
#
#
# Indices 1 2 3 4 5 6 
#
# 1 105.0911 54.6658 32.0712 0.0000 0.0000 0.0000
# 2 54.6658 105.0911 32.0712 0.0000 0.0000 0.0000
# 3 32.0712 32.0712 91.4029 0.0000 0.0000 0.0000
# 4 0.0000 0.0000 0.0000 -34.2305 0.0000 0.0000
# 5 0.0000 0.0000 0.0000 0.0000 -34.2305 0.0000
# 6 0.0000 0.0000 0.0000 0.0000 0.0000 38.7303
#
#
#
# Elastic Compliance Matrix: (Units=1/GPa)
#
#
# Indices 1 2 3 4 5 6 
#
# 1 0.013559 -0.006273 -0.002556 0.000000 0.000000 0.000000
# 2 -0.006273 0.013559 -0.002556 0.000000 0.000000 0.000000
# 3 -0.002556 -0.002556 0.012735 0.000000 0.000000 0.000000
# 4 0.000000 0.000000 0.000000 -0.029214 0.000000 0.000000
# 5 0.000000 0.000000 0.000000 0.000000 -0.029214 0.000000
# 6 0.000000 0.000000 0.000000 0.000000 0.000000 0.025820
#
#
# Mechanical properties :
#
#
# Convention : Reuss Voigt Hill
#
# Bulk Modulus (GPa) = 58.54603 59.91128 59.22865
# Shear Modulus (GPa) = 140.02145 6.23897 73.13021
#
# Velocity S-wave (km/s) = 8.54998 1.80478 6.17897
# Velocity P-wave (km/s) = 11.31526 5.96836 9.04589
#
# Compressibility (1/GPa) = 0.01708058
#
# Stress axis : x y z
#
# Youngs Moduli (GPa) = 73.75381 73.75381 78.52628
#
# Poissons Ratio (x) = 0.46263 0.20075
# Poissons Ratio (y) = 0.46263 0.20075
# Poissons Ratio (z) = 0.18855 0.18855
#
# Static dielectric constant tensor:
#      x y z
#    x 1.694510 0.000000 0.000000 
#    y 0.000000 1.694510 0.000000 
#    z 0.000000 0.000000 1.685670 
# 
# From -- ./inp_files/2160.got.cif
#   From: 2010.05.17/outbox.cif.g08.bks.cpg/sg122_2_cif.got.tgz:2160.got - 2010.05.20 11:37:33.
