data_PCOD9561291
_publ_section_title
;
Structure prediction by ZEFSAII (Michael W. Deem and Ramdas Pophale) SiO2 
 PCOD9561291
Probable space group: I -4 2 D
;
_chemical_formula_sum "Si O2"
_cell_formula_units_Z 24
_cell_length_a 13.020053
_cell_length_b 13.020053
_cell_length_c 5.086390
_cell_angle_alpha 90.000000
_cell_angle_beta 90.000000
_cell_angle_gamma 90.000000
_cell_volume 862.253887
_symmetry_space_group_name_H-M "I -4 2 D"
_symmetry_group_IT_number 122
_symmetry_cell_setting 'tetragonal'
loop_
_space_group_symop_operation_xyz
x,y,z
y,-x,-z
-x,-y,z
-y,x,-z
x,1/2-y,1/4-z
-x,1/2+y,1/4-z
-y,1/2-x,1/4+z
y,1/2+x,1/4+z
1/2+x,1/2+y,1/2+z
1/2+y,1/2-x,1/2-z
1/2-x,1/2-y,1/2+z
1/2-y,1/2+x,1/2-z
1/2+x,-y,3/4-z
1/2-x,y,3/4-z
1/2-y,-x,3/4+z
1/2+y,x,3/4+z
loop_
_atom_site_type_symbol
_atom_site_label
_atom_site_fract_x
_atom_site_fract_y
_atom_site_fract_z
Si Si1 0.750000 0.175987 0.875000
Si Si2 0.372141 0.451439 0.873069
O O1 0.733240 0.250000 0.625000
O O2 0.852199 0.111640 0.811601
O O3 0.250000 0.460759 0.875000
O O4 0.415383 0.567190 0.860861
#
# Coordination Sequence:
#
# PCOD9561291 Si02
#       2
#     8  16
#     4  10  24  52  86 122 180 234 298 380 446 550
#     4  10  24  50  86 128 176 237 302 372 461 544
#
# _framework density 27.834026999999999
#
# number of rings (size 3 to 8) (size 9 to 14) (size 15 to 20)
#    0.000    2.000    0.000    0.000   18.667    0.000 
#   24.000    0.000    0.000    0.000    0.000    0.000 
#    0.000    0.000    0.000    0.000    0.000    0.000 
#
# Total GULP energy -66902.840147 kJ/mol
# GULP energy per Si atom -5575.236679 kJ/mol
# Density = 2.777068 g / cm^3
# Si number density = 27.834027 Si / 1000 Ang^3
#
#
#
# Elastic Constant Matrix: (Units=GPa)
#
#
# Indices 1 2 3 4 5 6 
#
# 1 233.8283 85.0728 69.4734 0.0000 0.0000 0.0000
# 2 85.0728 233.8283 69.4734 0.0000 0.0000 0.0000
# 3 69.4734 69.4734 156.8462 0.0000 0.0000 0.0000
# 4 0.0000 0.0000 0.0000 42.9969 0.0000 0.0000
# 5 0.0000 0.0000 0.0000 0.0000 42.9969 0.0000
# 6 0.0000 0.0000 0.0000 0.0000 0.0000 91.5838
#
#
#
# Elastic Compliance Matrix: (Units=1/GPa)
#
#
# Indices 1 2 3 4 5 6 
#
# 1 0.005304 -0.001418 -0.001721 0.000000 0.000000 0.000000
# 2 -0.001418 0.005304 -0.001721 0.000000 0.000000 0.000000
# 3 -0.001721 -0.001721 0.007900 0.000000 0.000000 0.000000
# 4 0.000000 0.000000 0.000000 0.023257 0.000000 0.000000
# 5 0.000000 0.000000 0.000000 0.000000 0.023257 0.000000
# 6 0.000000 0.000000 0.000000 0.000000 0.000000 0.010919
#
#
# Mechanical properties :
#
#
# Convention : Reuss Voigt Hill
#
# Bulk Modulus (GPa) = 113.80132 119.17132 116.48632
# Shear Modulus (GPa) = 56.43805 62.21442 59.32623
#
# Velocity S-wave (km/s) = 4.50784 4.73291 4.62175
# Velocity P-wave (km/s) = 8.25037 8.53084 8.39178
#
# Compressibility (1/GPa) = 0.00878724
#
# Stress axis : x y z
#
# Youngs Moduli (GPa) = 188.53511 188.53511 126.57634
#
# Poissons Ratio (x) = 0.26742 0.21785
# Poissons Ratio (y) = 0.26742 0.21785
# Poissons Ratio (z) = 0.32449 0.32449
#
# Static dielectric constant tensor:
#      x y z
#    x 2.214440 0.000000 0.000000 
#    y 0.000000 2.214440 0.000000 
#    z 0.000000 0.000000 2.257020 
# 
# From -- ./inp_files/92.got.cif
#   From: 2010.05.17/outbox.cif.g08.bks.cpg/sg122_1_cif.got.tgz:92.got - 2010.05.20 11:37:33.
