data_PCOD9561690
_publ_section_title
;
Structure prediction by ZEFSAII (Michael W. Deem and Ramdas Pophale) SiO2 
 PCOD9561690
Probable space group: P 4/M M M
;
_chemical_formula_sum "Si O2"
_cell_formula_units_Z 96
_cell_length_a 24.839432
_cell_length_b 24.839432
_cell_length_c 7.506202
_cell_angle_alpha 90.000000
_cell_angle_beta 90.000000
_cell_angle_gamma 90.000000
_cell_volume 4631.306983
_symmetry_space_group_name_H-M "P 4/M M M"
_symmetry_group_IT_number 123
_symmetry_cell_setting 'tetragonal'
loop_
_space_group_symop_operation_xyz
x,y,z
-y,x,z
-x,-y,z
y,-x,z
x,-y,-z
-x,y,-z
y,x,-z
-y,-x,-z
-x,-y,-z
y,-x,-z
x,y,-z
-y,x,-z
-x,y,z
x,-y,z
-y,-x,z
y,x,z
loop_
_atom_site_type_symbol
_atom_site_label
_atom_site_fract_x
_atom_site_fract_y
_atom_site_fract_z
Si Si1 0.436456 0.348708 0.716791
Si Si2 0.417775 0.058007 0.286706
Si Si3 0.641531 0.748957 0.699827
Si Si4 0.059280 0.710146 0.285289
Si Si5 0.738162 0.178695 0.282777
Si Si6 0.443675 0.174713 0.797023
O O1 0.438092 0.345811 0.500000
O O2 0.500000 0.345963 0.774749
O O3 0.403878 0.403878 0.763408
O O4 0.396404 0.299218 0.775424
O O5 0.425948 0.060576 0.500000
O O6 0.353917 0.060262 0.252937
O O7 0.442608 0.110839 0.206109
O O8 0.437464 0.000000 0.224319
O O9 0.654975 0.731622 0.500000
O O10 0.694175 0.777098 0.783419
O O11 0.603933 0.800929 0.689068
O O12 0.058969 0.717674 0.500000
O O13 0.117226 0.731243 0.219798
O O14 0.000000 0.729823 0.220966
O O15 0.731564 0.177776 0.500000
O O16 0.796017 0.203984 0.242791
O O17 0.500000 0.195167 0.724587
O O18 0.437818 0.192824 0.000000
#
# Coordination Sequence:
#
# PCOD9561690 Si02
#       6
#    16  16  16  16  16  16
#     4   9  17  28  44  68  94 118 146 183 231 288
#     4   9  17  31  50  68  86 114 155 195 229 267
#     4  10  18  31  49  68  89 116 150 189 230 272
#     4   8  13  23  40  63  90 116 143 180 223 263
#     4   9  15  23  41  69  93 113 143 186 232 271
#     4  11  23  34  44  62  90 122 155 192 233 276
#
# _framework density 20.728490000000001
#
# number of rings (size 3 to 8) (size 9 to 14) (size 15 to 20)
#    0.000    2.667    1.667    2.500    0.000    4.833 
#    0.000    2.500    0.000    2.000    0.000    0.000 
#    0.000    0.333    0.000    8.167    0.000    3.333 
#
# Total GULP energy -534821.191609 kJ/mol
# GULP energy per Si atom -5571.054079 kJ/mol
# Density = 2.068131 g / cm^3
# Si number density = 20.728490 Si / 1000 Ang^3
#
#
#
# Elastic Constant Matrix: (Units=GPa)
#
#
# Indices 1 2 3 4 5 6 
#
# 1 128.6509 91.7935 11.7731 0.0000 0.0000 0.0000
# 2 91.7935 128.6509 11.7731 0.0000 0.0000 0.0000
# 3 11.7731 11.7731 46.9937 0.0000 0.0000 0.0000
# 4 0.0000 0.0000 0.0000 -12.5626 0.0000 0.0000
# 5 0.0000 0.0000 0.0000 0.0000 -12.5626 0.0000
# 6 0.0000 0.0000 0.0000 0.0000 0.0000 21.4293
#
#
#
# Elastic Compliance Matrix: (Units=1/GPa)
#
#
# Indices 1 2 3 4 5 6 
#
# 1 0.015896 -0.011235 -0.001168 0.000000 0.000000 0.000000
# 2 -0.011235 0.015896 -0.001168 0.000000 0.000000 0.000000
# 3 -0.001168 -0.001168 0.021865 0.000000 0.000000 0.000000
# 4 0.000000 0.000000 0.000000 -0.079601 0.000000 0.000000
# 5 0.000000 0.000000 0.000000 0.000000 -0.079601 0.000000
# 6 0.000000 0.000000 0.000000 0.000000 0.000000 0.046665
#
#
# Mechanical properties :
#
#
# Convention : Reuss Voigt Hill
#
# Bulk Modulus (GPa) = 37.71345 59.44167 48.57756
# Shear Modulus (GPa) = -218.33972 11.85785 -103.24093
#
# Velocity S-wave (km/s) = -10.27433 2.39436 -7.06501
# Velocity P-wave (km/s) = 11.06868 6.03179 6.56251
#
# Compressibility (1/GPa) = 0.02651574
#
# Stress axis : x y z
#
# Youngs Moduli (GPa) = 62.90768 62.90768 45.73620
#
# Poissons Ratio (x) = 0.70679 0.05341
# Poissons Ratio (y) = 0.70679 0.05341
# Poissons Ratio (z) = 0.07346 0.07346
#
# Static dielectric constant tensor:
#      x y z
#    x 1.765370 0.000000 0.000000 
#    y 0.000000 1.765370 0.000000 
#    z 0.000000 0.000000 1.788400 
# 
# From -- ./inp_files/1608.got.cif
#   From: 2010.05.17/outbox.cif.g08.bks.cpg/sg123_1_cif.got.tgz:1608.got - 2010.05.20 11:43:04.
