data_PCOD9561179
_publ_section_title
;
Structure prediction by ZEFSAII (Michael W. Deem and Ramdas Pophale) SiO2 
 PCOD9561179
Probable space group: I -4 2 D
;
_chemical_formula_sum "Si O2"
_cell_formula_units_Z 64
_cell_length_a 13.417496
_cell_length_b 13.417496
_cell_length_c 17.164252
_cell_angle_alpha 90.000000
_cell_angle_beta 90.000000
_cell_angle_gamma 90.000000
_cell_volume 3090.066537
_symmetry_space_group_name_H-M "I -4 2 D"
_symmetry_group_IT_number 122
_symmetry_cell_setting 'tetragonal'
loop_
_space_group_symop_operation_xyz
x,y,z
y,-x,-z
-x,-y,z
-y,x,-z
x,1/2-y,1/4-z
-x,1/2+y,1/4-z
-y,1/2-x,1/4+z
y,1/2+x,1/4+z
1/2+x,1/2+y,1/2+z
1/2+y,1/2-x,1/2-z
1/2-x,1/2-y,1/2+z
1/2-y,1/2+x,1/2-z
1/2+x,-y,3/4-z
1/2-x,y,3/4-z
1/2-y,-x,3/4+z
1/2+y,x,3/4+z
loop_
_atom_site_type_symbol
_atom_site_label
_atom_site_fract_x
_atom_site_fract_y
_atom_site_fract_z
Si Si1 0.280445 0.611391 0.758262
Si Si2 0.344764 0.309688 0.546079
Si Si3 0.586232 0.079450 0.350562
Si Si4 0.786575 0.015155 0.097897
O O1 0.293269 0.729590 0.771147
O O2 0.346576 0.555666 0.823321
O O3 0.165013 0.588378 0.779796
O O4 0.316463 0.578665 0.673429
O O5 0.363361 0.250000 0.625000
O O6 0.356719 0.425663 0.568690
O O7 0.413627 0.273875 0.475928
O O8 0.537840 0.185553 0.372148
O O9 0.500000 0.000000 0.339383
#
# Coordination Sequence:
#
# PCOD9561179 Si02
#       4
#    16  16  16  16
#     4  10  22  46  65  96 142 174 229 285 350 408
#     4  11  24  48  64 100 139 180 233 288 353 414
#     4  10  23  39  66 102 134 176 229 282 345 420
#     4  11  25  41  72  95 136 186 223 290 344 425
#
# _framework density 20.711528000000001
#
# number of rings (size 3 to 8) (size 9 to 14) (size 15 to 20)
#    0.000    1.500    5.000    0.750    7.000    4.500 
#    4.500    0.000    0.000    0.000    0.000    0.000 
#    0.000    0.000    0.000    0.000    0.000    0.000 
#
# Total GULP energy -178744.633206 kJ/mol
# GULP energy per Si atom -5585.769788 kJ/mol
# Density = 2.066439 g / cm^3
# Si number density = 20.711528 Si / 1000 Ang^3
#
#
#
# Elastic Constant Matrix: (Units=GPa)
#
#
# Indices 1 2 3 4 5 6 
#
# 1 64.4206 16.6985 37.2003 0.0000 0.0000 0.0000
# 2 16.6985 64.4206 37.2003 0.0000 0.0000 0.0000
# 3 37.2003 37.2003 142.2273 0.0000 0.0000 0.0000
# 4 0.0000 0.0000 0.0000 4.2896 0.0000 0.0000
# 5 0.0000 0.0000 0.0000 0.0000 4.2896 0.0000
# 6 0.0000 0.0000 0.0000 0.0000 0.0000 13.7335
#
#
#
# Elastic Compliance Matrix: (Units=1/GPa)
#
#
# Indices 1 2 3 4 5 6 
#
# 1 0.018586 -0.002368 -0.004242 0.000000 0.000000 0.000000
# 2 -0.002368 0.018586 -0.004242 0.000000 0.000000 0.000000
# 3 -0.004242 -0.004242 0.009250 0.000000 0.000000 0.000000
# 4 0.000000 0.000000 0.000000 0.233120 0.000000 0.000000
# 5 0.000000 0.000000 0.000000 0.000000 0.233120 0.000000
# 6 0.000000 0.000000 0.000000 0.000000 0.000000 0.072814
#
#
# Mechanical properties :
#
#
# Convention : Reuss Voigt Hill
#
# Bulk Modulus (GPa) = 40.45545 50.36298 45.40921
# Shear Modulus (GPa) = 8.12451 16.46052 12.29252
#
# Velocity S-wave (km/s) = 1.98273 2.82219 2.43885
# Velocity P-wave (km/s) = 4.98165 5.91514 5.46835
#
# Compressibility (1/GPa) = 0.02471855
#
# Stress axis : x y z
#
# Youngs Moduli (GPa) = 53.80277 53.80277 108.10807
#
# Poissons Ratio (x) = 0.12742 0.45859
# Poissons Ratio (y) = 0.12742 0.45859
# Poissons Ratio (z) = 0.22823 0.22823
#
# Static dielectric constant tensor:
#      x y z
#    x 1.761760 0.000000 0.000000 
#    y 0.000000 1.761760 0.000000 
#    z 0.000000 0.000000 1.739410 
# 
# From -- ./inp_files/5166.got.cif
#   From: 2010.05.17/outbox.cif.g08.bks.cpg/sg122_3_cif.got.tgz:5166.got - 2010.05.20 11:37:33.
