data_PCOD9561743
_publ_section_title
;
Structure prediction by ZEFSAII (Michael W. Deem and Ramdas Pophale) SiO2 
 PCOD9561743
Probable space group: P 4/M M M
;
_chemical_formula_sum "Si O2"
_cell_formula_units_Z 64
_cell_length_a 13.013575
_cell_length_b 13.013575
_cell_length_c 22.740125
_cell_angle_alpha 90.000000
_cell_angle_beta 90.000000
_cell_angle_gamma 90.000000
_cell_volume 3851.111443
_symmetry_space_group_name_H-M "P 4/M M M"
_symmetry_group_IT_number 123
_symmetry_cell_setting 'tetragonal'
loop_
_space_group_symop_operation_xyz
x,y,z
-y,x,z
-x,-y,z
y,-x,z
x,-y,-z
-x,y,-z
y,x,-z
-y,-x,-z
-x,-y,-z
y,-x,-z
x,y,-z
-y,x,-z
-x,y,z
x,-y,z
-y,-x,z
y,x,z
loop_
_atom_site_type_symbol
_atom_site_label
_atom_site_fract_x
_atom_site_fract_y
_atom_site_fract_z
Si Si1 0.281230 0.122623 0.500000
Si Si2 0.875315 0.616255 0.621707
Si Si3 0.000000 0.375469 0.932555
Si Si4 0.715028 0.877279 0.746187
Si Si5 0.206958 0.378644 0.862171
O O1 0.167585 0.167585 0.500000
O O2 0.336338 0.158314 0.440250
O O3 0.281288 0.000000 0.500000
O O4 0.838003 0.500000 0.627257
O O5 0.850441 0.678426 0.680431
O O6 0.000000 0.613642 0.619443
O O7 0.894123 0.346476 0.899787
O O8 0.000000 0.500000 0.932261
O O9 0.000000 0.340141 0.000000
O O10 0.825780 0.825780 0.756127
O O11 0.640239 0.827499 0.794662
O O12 0.715323 0.000000 0.752607
O O13 0.227986 0.500000 0.872201
O O14 0.303863 0.303863 0.874465
#
# Coordination Sequence:
#
# PCOD9561743 Si02
#       5
#     8  16   8  16  16
#     4  10  19  30  43  63  92 124 159 199 246 301
#     4   9  17  29  46  65  88 121 161 207 253 295
#     4   9  18  34  56  79 105 138 176 215 253 303
#     4  10  19  31  49  74 103 136 172 211 256 307
#     4  10  20  34  54  80 109 141 178 220 265 311
#
# _framework density 16.618579
#
# number of rings (size 3 to 8) (size 9 to 14) (size 15 to 20)
#    0.000    2.375    1.250    1.875    0.000    3.625 
#    0.000    0.000    0.000    4.875    0.000    4.375 
#    0.000   19.000    0.000    0.000    0.000    0.000 
#
# Total GULP energy -356425.506807 kJ/mol
# GULP energy per Si atom -5569.148544 kJ/mol
# Density = 1.658075 g / cm^3
# Si number density = 16.618579 Si / 1000 Ang^3
#
#
#
# Elastic Constant Matrix: (Units=GPa)
#
#
# Indices 1 2 3 4 5 6 
#
# 1 79.9333 55.6179 29.1387 0.0000 0.0000 0.0000
# 2 55.6179 79.9333 29.1387 0.0000 0.0000 0.0000
# 3 29.1387 29.1387 103.3750 0.0000 0.0000 0.0000
# 4 0.0000 0.0000 0.0000 13.2069 0.0000 0.0000
# 5 0.0000 0.0000 0.0000 0.0000 13.2069 0.0000
# 6 0.0000 0.0000 0.0000 0.0000 0.0000 15.5492
#
#
#
# Elastic Compliance Matrix: (Units=1/GPa)
#
#
# Indices 1 2 3 4 5 6 
#
# 1 0.024760 -0.016366 -0.002366 0.000000 0.000000 0.000000
# 2 -0.016366 0.024760 -0.002366 0.000000 0.000000 0.000000
# 3 -0.002366 -0.002366 0.011007 0.000000 0.000000 0.000000
# 4 0.000000 0.000000 0.000000 0.075718 0.000000 0.000000
# 5 0.000000 0.000000 0.000000 0.000000 0.075718 0.000000
# 6 0.000000 0.000000 0.000000 0.000000 0.000000 0.064312
#
#
# Mechanical properties :
#
#
# Convention : Reuss Voigt Hill
#
# Bulk Modulus (GPa) = 54.55006 54.55915 54.55460
# Shear Modulus (GPa) = 15.40439 18.34903 16.87671
#
# Velocity S-wave (km/s) = 3.04787 3.32645 3.19020
# Velocity P-wave (km/s) = 6.72919 6.90327 6.81679
#
# Compressibility (1/GPa) = 0.01833178
#
# Stress axis : x y z
#
# Youngs Moduli (GPa) = 40.38707 40.38707 90.84736
#
# Poissons Ratio (x) = 0.66097 0.21496
# Poissons Ratio (y) = 0.66097 0.21496
# Poissons Ratio (z) = 0.09556 0.09556
#
# Static dielectric constant tensor:
#      x y z
#    x 1.550030 0.000000 0.000000 
#    y 0.000000 1.550030 0.000000 
#    z 0.000000 0.000000 1.577890 
# 
# From -- ./inp_files/7062.got.cif
#   From: 2010.05.17/outbox.cif.g08.bks.cpg/sg123_4_cif.got.tgz:7062.got - 2010.05.20 11:43:04.
