data_PCOD9561012
_publ_section_title
;
Structure prediction by ZEFSAII (Michael W. Deem and Ramdas Pophale) SiO2 
 PCOD9561012
Probable space group: I -4 2 D
;
_chemical_formula_sum "Si O2"
_cell_formula_units_Z 80
_cell_length_a 11.055095
_cell_length_b 11.055095
_cell_length_c 27.887613
_cell_angle_alpha 90.000000
_cell_angle_beta 90.000000
_cell_angle_gamma 90.000000
_cell_volume 3408.288122
_symmetry_space_group_name_H-M "I -4 2 D"
_symmetry_group_IT_number 122
_symmetry_cell_setting 'tetragonal'
loop_
_space_group_symop_operation_xyz
x,y,z
y,-x,-z
-x,-y,z
-y,x,-z
x,1/2-y,1/4-z
-x,1/2+y,1/4-z
-y,1/2-x,1/4+z
y,1/2+x,1/4+z
1/2+x,1/2+y,1/2+z
1/2+y,1/2-x,1/2-z
1/2-x,1/2-y,1/2+z
1/2-y,1/2+x,1/2-z
1/2+x,-y,3/4-z
1/2-x,y,3/4-z
1/2-y,-x,3/4+z
1/2+y,x,3/4+z
loop_
_atom_site_type_symbol
_atom_site_label
_atom_site_fract_x
_atom_site_fract_y
_atom_site_fract_z
Si Si1 0.286007 0.711319 0.515390
Si Si2 0.046922 0.261447 0.432508
Si Si3 0.373076 0.069316 0.849527
Si Si4 0.458861 0.622211 0.225657
Si Si5 0.287067 0.647914 0.929327
O O1 0.225771 0.829153 0.541296
O O2 0.399739 0.670365 0.545794
O O3 0.183736 0.612886 0.521989
O O4 0.286654 0.752170 0.460611
O O5 0.090306 0.312354 0.381387
O O6 0.003182 0.367054 0.469134
O O7 0.931507 0.172374 0.432931
O O8 0.250000 0.018116 0.875000
O O9 0.500000 0.000000 0.849022
O O10 0.500000 0.500000 0.201019
O O11 0.521566 0.735970 0.199745
O O12 0.250000 0.659244 0.875000
#
# Coordination Sequence:
#
# PCOD9561012 Si02
#       5
#    16  16  16  16  16
#     4   9  21  42  66  94 136 175 222 284 342 407
#     4   9  20  40  66  92 130 177 223 272 340 408
#     4  10  21  40  70 100 134 185 228 284 349 413
#     4  10  21  39  63  94 136 176 215 282 348 400
#     4  10  22  39  64  97 131 177 225 274 342 420
#
# _framework density 23.472196
#
# number of rings (size 3 to 8) (size 9 to 14) (size 15 to 20)
#    0.000    2.400    0.000    0.600    2.800    4.000 
#    0.000    8.000    0.000    9.600    0.000    0.000 
#    0.000    0.000    0.000    0.000    0.000    0.000 
#
# Total GULP energy -222925.151592 kJ/mol
# GULP energy per Si atom -5573.128790 kJ/mol
# Density = 2.341877 g / cm^3
# Si number density = 23.472196 Si / 1000 Ang^3
#
#
#
# Elastic Constant Matrix: (Units=GPa)
#
#
# Indices 1 2 3 4 5 6 
#
# 1 72.6132 18.6861 -2.8837 0.0000 0.0000 0.0000
# 2 18.6861 72.6132 -2.8838 0.0000 0.0000 0.0000
# 3 -2.8837 -2.8838 97.4716 0.0000 0.0000 0.0000
# 4 0.0000 0.0000 0.0000 5.2778 0.0000 0.0000
# 5 0.0000 0.0000 0.0000 0.0000 5.2778 0.0000
# 6 0.0000 0.0000 0.0000 0.0000 0.0000 20.3517
#
#
#
# Elastic Compliance Matrix: (Units=1/GPa)
#
#
# Indices 1 2 3 4 5 6 
#
# 1 0.014759 -0.003785 0.000325 0.000000 0.000000 0.000000
# 2 -0.003785 0.014759 0.000325 0.000000 0.000000 0.000000
# 3 0.000325 0.000325 0.010279 0.000000 0.000000 0.000000
# 4 0.000000 0.000000 0.000000 0.189472 0.000000 0.000000
# 5 0.000000 0.000000 0.000000 0.000000 0.189472 0.000000
# 6 0.000000 0.000000 0.000000 0.000000 0.000000 0.049136
#
#
# Mechanical properties :
#
#
# Convention : Reuss Voigt Hill
#
# Bulk Modulus (GPa) = 29.82917 29.83724 29.83321
# Shear Modulus (GPa) = 10.30245 21.50010 15.90127
#
# Velocity S-wave (km/s) = 2.09732 3.02980 2.60561
# Velocity P-wave (km/s) = 4.31287 4.99789 4.66797
#
# Compressibility (1/GPa) = 0.03352423
#
# Stress axis : x y z
#
# Youngs Moduli (GPa) = 67.75744 67.75744 97.28939
#
# Poissons Ratio (x) = 0.25646 -0.03159
# Poissons Ratio (y) = 0.25646 -0.03159
# Poissons Ratio (z) = -0.02200 -0.02200
#
# Static dielectric constant tensor:
#      x y z
#    x 1.913700 0.000000 0.000000 
#    y 0.000000 1.913700 0.000000 
#    z 0.000000 0.000000 1.883440 
# 
# From -- ./inp_files/9394.got.cif
#   From: 2010.05.17/outbox.cif.g08.bks.cpg/sg122_5_cif.got.tgz:9394.got - 2010.05.20 11:37:33.
