data_PCOD9561948
_publ_section_title
;
Structure prediction by ZEFSAII (Michael W. Deem and Ramdas Pophale) SiO2 
 PCOD9561948
Probable space group: P 4/M M M
;
_chemical_formula_sum "Si O2"
_cell_formula_units_Z 58
_cell_length_a 12.557782
_cell_length_b 12.557782
_cell_length_c 20.603552
_cell_angle_alpha 90.000000
_cell_angle_beta 90.000000
_cell_angle_gamma 90.000000
_cell_volume 3249.136651
_symmetry_space_group_name_H-M "P 4/M M M"
_symmetry_group_IT_number 123
_symmetry_cell_setting 'tetragonal'
loop_
_space_group_symop_operation_xyz
x,y,z
-y,x,z
-x,-y,z
y,-x,z
x,-y,-z
-x,y,-z
y,x,-z
-y,-x,-z
-x,-y,-z
y,-x,-z
x,y,-z
-y,x,-z
-x,y,z
x,-y,z
-y,-x,z
y,x,z
loop_
_atom_site_type_symbol
_atom_site_label
_atom_site_fract_x
_atom_site_fract_y
_atom_site_fract_z
Si Si1 0.699535 0.126031 0.000000
Si Si2 0.000000 0.623141 0.231553
Si Si3 0.797261 0.620857 0.861427
Si Si4 0.000000 0.259030 0.635064
Si Si5 0.793716 0.377292 0.421594
Si Si6 0.000000 0.000000 0.374578
O O1 0.639161 0.161923 0.934930
O O2 0.811637 0.188364 0.000000
O O3 0.712803 0.000000 0.000000
O O4 0.896452 0.636778 0.186669
O O5 0.000000 0.500000 0.256007
O O6 0.000000 0.706460 0.289714
O O7 0.759198 0.500000 0.854551
O O8 0.705507 0.705507 0.848067
O O9 0.104199 0.313415 0.603823
O O10 0.000000 0.132554 0.625651
O O11 0.798033 0.378325 0.500000
O O12 0.794058 0.500000 0.399095
O O13 0.688030 0.311971 0.402282
#
# Coordination Sequence:
#
# PCOD9561948 Si02
#       6
#     8   8  16   8  16   2
#     4  10  19  34  56  80 114 147 184 233 280 334
#     4  10  22  38  61  83 108 148 193 235 280 340
#     4  10  21  36  56  84 111 146 186 228 281 336
#     4  12  23  43  58  85 120 156 198 240 294 347
#     4  10  21  38  62  90 120 155 194 238 289 345
#     4  12  28  40  61  88 116 161 192 244 294 340
#
# _framework density 17.850895999999999
#
# number of rings (size 3 to 8) (size 9 to 14) (size 15 to 20)
#    0.000    1.655    2.759    2.069    1.931    2.345 
#    0.000    2.759    0.000    2.483    0.000    3.862 
#    0.000    0.000    0.000    0.000    0.000    0.000 
#
# Total GULP energy -323343.634218 kJ/mol
# GULP energy per Si atom -5574.890245 kJ/mol
# Density = 1.781027 g / cm^3
# Si number density = 17.850896 Si / 1000 Ang^3
#
#
#
# Elastic Constant Matrix: (Units=GPa)
#
#
# Indices 1 2 3 4 5 6 
#
# 1 175.8100 92.1386 29.0453 0.0000 0.0000 0.0000
# 2 92.1386 175.8064 29.0464 0.0000 0.0000 0.0000
# 3 29.0453 29.0464 26.1611 0.0000 0.0000 0.0000
# 4 0.0000 0.0000 0.0000 5.5748 0.0000 0.0000
# 5 0.0000 0.0000 0.0000 0.0000 5.5754 0.0000
# 6 0.0000 0.0000 0.0000 0.0000 0.0000 18.8735
#
#
#
# Elastic Compliance Matrix: (Units=1/GPa)
#
#
# Indices 1 2 3 4 5 6 
#
# 1 0.008433 -0.003518 -0.005457 0.000000 0.000000 0.000000
# 2 -0.003518 0.008434 -0.005458 0.000000 0.000000 0.000000
# 3 -0.005457 -0.005458 0.050343 0.000000 0.000000 0.000000
# 4 0.000000 0.000000 0.000000 0.179380 0.000000 0.000000
# 5 0.000000 0.000000 0.000000 0.000000 0.179360 0.000000
# 6 0.000000 0.000000 0.000000 0.000000 0.000000 0.052984
#
#
# Mechanical properties :
#
#
# Convention : Reuss Voigt Hill
#
# Bulk Modulus (GPa) = 26.07950 75.35980 50.71965
# Shear Modulus (GPa) = 9.60466 21.17454 15.38960
#
# Velocity S-wave (km/s) = 2.32210 3.44785 2.93937
# Velocity P-wave (km/s) = 4.67236 7.62615 6.32412
#
# Compressibility (1/GPa) = 0.03834429
#
# Stress axis : x y z
#
# Youngs Moduli (GPa) = 118.57713 118.57218 19.86381
#
# Poissons Ratio (x) = 0.41717 0.10839
# Poissons Ratio (y) = 0.41719 0.10841
# Poissons Ratio (z) = 0.64705 0.64713
#
# Static dielectric constant tensor:
#      x y z
#    x 1.588710 0.000000 0.000000 
#    y 0.000000 1.588710 0.000000 
#    z 0.000000 0.000000 1.611160 
# 
# From -- ./inp_files/6198.got.cif
#   From: 2010.05.17/outbox.cif.g08.bks.cpg/sg123_4_cif.got.tgz:6198.got - 2010.05.20 11:43:04.
