data_PCOD9561272
_publ_section_title
;
Structure prediction by ZEFSAII (Michael W. Deem and Ramdas Pophale) SiO2 
 PCOD9561272
Probable space group: I -4 2 D
;
_chemical_formula_sum "Si O2"
_cell_formula_units_Z 40
_cell_length_a 11.421802
_cell_length_b 11.421802
_cell_length_c 15.021984
_cell_angle_alpha 90.000000
_cell_angle_beta 90.000000
_cell_angle_gamma 90.000000
_cell_volume 1959.731393
_symmetry_space_group_name_H-M "I -4 2 D"
_symmetry_group_IT_number 122
_symmetry_cell_setting 'tetragonal'
loop_
_space_group_symop_operation_xyz
x,y,z
y,-x,-z
-x,-y,z
-y,x,-z
x,1/2-y,1/4-z
-x,1/2+y,1/4-z
-y,1/2-x,1/4+z
y,1/2+x,1/4+z
1/2+x,1/2+y,1/2+z
1/2+y,1/2-x,1/2-z
1/2-x,1/2-y,1/2+z
1/2-y,1/2+x,1/2-z
1/2+x,-y,3/4-z
1/2-x,y,3/4-z
1/2-y,-x,3/4+z
1/2+y,x,3/4+z
loop_
_atom_site_type_symbol
_atom_site_label
_atom_site_fract_x
_atom_site_fract_y
_atom_site_fract_z
Si Si1 0.238609 0.131114 0.215370
Si Si2 0.450381 0.250000 0.125000
Si Si3 0.369799 0.874070 0.780856
O O1 0.363374 0.149287 0.164420
O O2 0.203575 0.260225 0.250211
O O3 0.150433 0.108342 0.134603
O O4 0.226513 0.035479 0.291568
O O5 0.489785 0.843923 0.732204
#
# Coordination Sequence:
#
# PCOD9561272 Si02
#       3
#    16   8  16
#     4  10  24  45  65 103 133 180 223 282 340 420
#     4  10  24  46  66  98 142 176 230 278 350 408
#     4   9  20  43  65  99 127 175 225 277 330 397
#
# _framework density 20.410958999999998
#
# number of rings (size 3 to 8) (size 9 to 14) (size 15 to 20)
#    0.000    2.800    0.000    0.000    5.600    4.000 
#   50.400    0.000    0.000    0.000    0.000    0.000 
#    0.000    0.000    0.000    0.000    0.000    0.000 
#
# Total GULP energy -111460.100067 kJ/mol
# GULP energy per Si atom -5573.005003 kJ/mol
# Density = 2.036450 g / cm^3
# Si number density = 20.410959 Si / 1000 Ang^3
#
#
#
# Elastic Constant Matrix: (Units=GPa)
#
#
# Indices 1 2 3 4 5 6 
#
# 1 124.5010 23.5167 64.8420 0.0000 0.0000 0.0000
# 2 23.5167 124.5010 64.8420 0.0000 0.0000 0.0000
# 3 64.8420 64.8420 121.5403 0.0000 0.0000 0.0000
# 4 0.0000 0.0000 0.0000 -17.4377 0.0000 0.0000
# 5 0.0000 0.0000 0.0000 0.0000 -17.4377 0.0000
# 6 0.0000 0.0000 0.0000 0.0000 0.0000 45.1778
#
#
#
# Elastic Compliance Matrix: (Units=1/GPa)
#
#
# Indices 1 2 3 4 5 6 
#
# 1 0.011294 0.001391 -0.006768 0.000000 0.000000 0.000000
# 2 0.001391 0.011294 -0.006768 0.000000 0.000000 0.000000
# 3 -0.006768 -0.006768 0.015449 0.000000 0.000000 0.000000
# 4 0.000000 0.000000 0.000000 -0.057347 0.000000 0.000000
# 5 0.000000 0.000000 0.000000 0.000000 -0.057347 0.000000
# 6 0.000000 0.000000 0.000000 0.000000 0.000000 0.022135
#
#
# Mechanical properties :
#
#
# Convention : Reuss Voigt Hill
#
# Bulk Modulus (GPa) = 72.73303 75.21597 73.97450
# Shear Modulus (GPa) = -194.91815 16.54992 -89.18411
#
# Velocity S-wave (km/s) = -9.78285 2.85061 -6.61733
# Velocity P-wave (km/s) = 9.58613 6.91125 4.69726
#
# Compressibility (1/GPa) = 0.01374891
#
# Stress axis : x y z
#
# Youngs Moduli (GPa) = 88.54293 88.54293 64.72965
#
# Poissons Ratio (x) = -0.12320 0.43807
# Poissons Ratio (y) = -0.12320 0.43807
# Poissons Ratio (z) = 0.59923 0.59923
#
# Static dielectric constant tensor:
#      x y z
#    x 1.761220 0.000000 0.000000 
#    y 0.000000 1.761220 0.000000 
#    z 0.000000 0.000000 1.679560 
# 
# From -- ./inp_files/4896.got.cif
#   From: 2010.05.17/outbox.cif.g08.bks.cpg/sg122_3_cif.got.tgz:4896.got - 2010.05.20 11:37:33.
