data_PCOD9561664
_publ_section_title
;
Structure prediction by ZEFSAII (Michael W. Deem and Ramdas Pophale) SiO2 
 PCOD9561664
Probable space group: P 4/M M M
;
_chemical_formula_sum "Si O2"
_cell_formula_units_Z 104
_cell_length_a 15.595956
_cell_length_b 15.595956
_cell_length_c 26.044618
_cell_angle_alpha 90.000000
_cell_angle_beta 90.000000
_cell_angle_gamma 90.000000
_cell_volume 6334.932540
_symmetry_space_group_name_H-M "P 4/M M M"
_symmetry_group_IT_number 123
_symmetry_cell_setting 'tetragonal'
loop_
_space_group_symop_operation_xyz
x,y,z
-y,x,z
-x,-y,z
y,-x,z
x,-y,-z
-x,y,-z
y,x,-z
-y,-x,-z
-x,-y,-z
y,-x,-z
x,y,-z
-y,x,-z
-x,y,z
x,-y,z
-y,-x,z
y,x,z
loop_
_atom_site_type_symbol
_atom_site_label
_atom_site_fract_x
_atom_site_fract_y
_atom_site_fract_z
Si Si1 0.903495 0.601834 0.631214
Si Si2 0.096397 0.649703 0.255153
Si Si3 0.269884 0.407611 0.791688
Si Si4 0.599437 0.743412 0.000000
Si Si5 0.904812 0.763289 0.160072
Si Si6 0.832922 0.597499 0.891586
Si Si7 0.740502 0.599601 0.438738
O O1 0.897673 0.500000 0.644927
O O2 0.894996 0.655229 0.683738
O O3 0.827542 0.620079 0.591783
O O4 0.000000 0.615272 0.610460
O O5 0.177350 0.596539 0.235293
O O6 0.101336 0.734567 0.219914
O O7 0.000000 0.613768 0.245599
O O8 0.310148 0.500000 0.781608
O O9 0.329892 0.329892 0.775512
O O10 0.247230 0.400031 0.851990
O O11 0.612057 0.800202 0.948981
O O12 0.500000 0.714663 0.000000
O O13 0.664901 0.664901 0.000000
O O14 0.830118 0.830118 0.147868
O O15 0.891737 0.674806 0.128462
O O16 0.000000 0.797469 0.150478
O O17 0.868829 0.500000 0.887655
O O18 0.754693 0.606646 0.500000
O O19 0.718132 0.500000 0.427975
O O20 0.664286 0.664286 0.424497
#
# Coordination Sequence:
#
# PCOD9561664 Si02
#       7
#    16  16  16   8  16  16  16
#     4   9  17  29  46  69  94 119 152 194 238 282
#     4   9  17  30  49  70  90 114 147 189 235 278
#     4  10  19  30  44  63  91 124 156 190 225 266
#     4  10  18  29  47  69  96 128 160 196 237 284
#     4  10  20  34  52  73  98 126 156 191 232 281
#     4   9  18  32  50  71  93 120 155 195 238 279
#     4   9  18  31  46  66  93 126 162 196 230 269
#
# _framework density 16.416907999999999
#
# number of rings (size 3 to 8) (size 9 to 14) (size 15 to 20)
#    0.000    2.615    0.000    3.231    0.000    3.923 
#    0.000    7.308    0.000    4.154    0.000    2.154 
#    0.000    2.154    0.000    1.692    0.000    1.385 
#
# Total GULP energy -578942.204445 kJ/mol
# GULP energy per Si atom -5566.751966 kJ/mol
# Density = 1.637954 g / cm^3
# Si number density = 16.416908 Si / 1000 Ang^3
#
#
#
# Elastic Constant Matrix: (Units=GPa)
#
#
# Indices 1 2 3 4 5 6 
#
# 1 89.0473 61.6426 43.7597 0.0000 0.0000 0.0000
# 2 61.6426 89.0473 43.7597 0.0000 0.0000 0.0000
# 3 43.7597 43.7597 63.3171 0.0000 0.0000 0.0000
# 4 0.0000 0.0000 0.0000 14.4261 0.0000 0.0000
# 5 0.0000 0.0000 0.0000 0.0000 14.4261 0.0000
# 6 0.0000 0.0000 0.0000 0.0000 0.0000 5.9970
#
#
#
# Elastic Compliance Matrix: (Units=1/GPa)
#
#
# Indices 1 2 3 4 5 6 
#
# 1 0.023788 -0.012702 -0.007662 0.000000 0.000000 0.000000
# 2 -0.012702 0.023788 -0.007662 0.000000 0.000000 0.000000
# 3 -0.007662 -0.007662 0.026384 0.000000 0.000000 0.000000
# 4 0.000000 0.000000 0.000000 0.069319 0.000000 0.000000
# 5 0.000000 0.000000 0.000000 0.000000 0.069319 0.000000
# 6 0.000000 0.000000 0.000000 0.000000 0.000000 0.166751
#
#
# Mechanical properties :
#
#
# Convention : Reuss Voigt Hill
#
# Bulk Modulus (GPa) = 55.83822 59.97067 57.90444
# Shear Modulus (GPa) = 11.32836 13.11980 12.22408
#
# Velocity S-wave (km/s) = 2.62972 2.83002 2.73170
# Velocity P-wave (km/s) = 6.58081 6.87661 6.73033
#
# Compressibility (1/GPa) = 0.01790888
#
# Stress axis : x y z
#
# Youngs Moduli (GPa) = 42.03789 42.03789 37.90184
#
# Poissons Ratio (x) = 0.53397 0.29040
# Poissons Ratio (y) = 0.53397 0.29040
# Poissons Ratio (z) = 0.32209 0.32209
#
# Static dielectric constant tensor:
#      x y z
#    x 1.550310 0.000000 0.000000 
#    y 0.000000 1.550310 0.000000 
#    z 0.000000 0.000000 1.558920 
# 
# From -- ./inp_files/7505.got.cif
#   From: 2010.05.17/outbox.cif.g08.bks.cpg/sg123_4_cif.got.tgz:7505.got - 2010.05.20 11:43:04.
