data_PCOD9561062
_publ_section_title
;
Structure prediction by ZEFSAII (Michael W. Deem and Ramdas Pophale) SiO2 
 PCOD9561062
Probable space group: I -4 2 D
;
_chemical_formula_sum "Si O2"
_cell_formula_units_Z 88
_cell_length_a 14.134508
_cell_length_b 14.134508
_cell_length_c 20.581412
_cell_angle_alpha 90.000000
_cell_angle_beta 90.000000
_cell_angle_gamma 90.000000
_cell_volume 4111.843327
_symmetry_space_group_name_H-M "I -4 2 D"
_symmetry_group_IT_number 122
_symmetry_cell_setting 'tetragonal'
loop_
_space_group_symop_operation_xyz
x,y,z
y,-x,-z
-x,-y,z
-y,x,-z
x,1/2-y,1/4-z
-x,1/2+y,1/4-z
-y,1/2-x,1/4+z
y,1/2+x,1/4+z
1/2+x,1/2+y,1/2+z
1/2+y,1/2-x,1/2-z
1/2-x,1/2-y,1/2+z
1/2-y,1/2+x,1/2-z
1/2+x,-y,3/4-z
1/2-x,y,3/4-z
1/2-y,-x,3/4+z
1/2+y,x,3/4+z
loop_
_atom_site_type_symbol
_atom_site_label
_atom_site_fract_x
_atom_site_fract_y
_atom_site_fract_z
Si Si1 0.250000 0.054925 0.875000
Si Si2 0.091981 0.049385 0.792991
Si Si3 0.242332 0.387845 0.952938
Si Si4 0.678645 0.032167 0.069309
Si Si5 0.232380 0.574714 0.711013
Si Si6 0.953773 0.356269 0.246350
O O1 0.178247 0.999288 0.829558
O O2 0.313520 0.100040 0.817020
O O3 0.099379 0.159610 0.807998
O O4 0.101764 0.033512 0.716313
O O5 0.000000 0.000000 0.818264
O O6 0.250000 0.398342 0.875000
O O7 0.137321 0.342201 0.959857
O O8 0.327256 0.320258 0.978519
O O9 0.256593 0.489452 0.987612
O O10 0.678767 0.038163 0.146585
O O11 0.775935 0.981821 0.047305
O O12 0.055726 0.397443 0.224528
#
# Coordination Sequence:
#
# PCOD9561062 Si02
#       6
#     8  16  16  16  16  16
#     4  10  24  36  60  96 128 172 216 262 320 406
#     4  11  23  42  69  97 137 182 220 272 346 408
#     4  10  24  44  67  98 127 171 228 281 340 401
#     4  10  23  41  63  98 135 169 223 269 331 414
#     4  11  24  43  69  93 133 176 222 288 337 399
#     4  10  22  36  58  90 127 168 210 259 317 390
#
# _framework density 21.401595
#
# number of rings (size 3 to 8) (size 9 to 14) (size 15 to 20)
#    0.000    1.636    1.818    1.091   14.000    1.818 
#    0.000    0.000    8.000    0.000    0.000    0.000 
#    0.000    0.000    0.000    0.000    0.000    0.000 
#
# Total GULP energy -245067.300323 kJ/mol
# GULP energy per Si atom -5569.711371 kJ/mol
# Density = 2.135288 g / cm^3
# Si number density = 21.401595 Si / 1000 Ang^3
#
#
#
# Elastic Constant Matrix: (Units=GPa)
#
#
# Indices 1 2 3 4 5 6 
#
# 1 89.7615 12.8816 10.9916 0.0000 0.0000 0.0000
# 2 12.8816 89.7615 10.9916 0.0000 0.0000 0.0000
# 3 10.9916 10.9916 56.9568 0.0000 0.0000 0.0000
# 4 0.0000 0.0000 0.0000 27.8348 0.0000 0.0000
# 5 0.0000 0.0000 0.0000 0.0000 27.8348 0.0000
# 6 0.0000 0.0000 0.0000 0.0000 0.0000 26.0156
#
#
#
# Elastic Compliance Matrix: (Units=1/GPa)
#
#
# Indices 1 2 3 4 5 6 
#
# 1 0.011585 -0.001422 -0.001961 0.000000 0.000000 0.000000
# 2 -0.001422 0.011585 -0.001961 0.000000 0.000000 0.000000
# 3 -0.001961 -0.001961 0.018314 0.000000 0.000000 0.000000
# 4 0.000000 0.000000 0.000000 0.035926 0.000000 0.000000
# 5 0.000000 0.000000 0.000000 0.000000 0.035926 0.000000
# 6 0.000000 0.000000 0.000000 0.000000 0.000000 0.038438
#
#
# Mechanical properties :
#
#
# Convention : Reuss Voigt Hill
#
# Bulk Modulus (GPa) = 32.47340 34.02327 33.24833
# Shear Modulus (GPa) = 28.94705 29.77804 29.36255
#
# Velocity S-wave (km/s) = 3.68171 3.73419 3.70804
# Velocity P-wave (km/s) = 5.76885 5.87573 5.82254
#
# Compressibility (1/GPa) = 0.03079443
#
# Stress axis : x y z
#
# Youngs Moduli (GPa) = 86.31911 86.31911 54.60275
#
# Poissons Ratio (x) = 0.12278 0.10709
# Poissons Ratio (y) = 0.12278 0.10709
# Poissons Ratio (z) = 0.16929 0.16929
#
# Static dielectric constant tensor:
#      x y z
#    x 1.810610 0.000000 0.000000 
#    y 0.000000 1.810610 0.000000 
#    z 0.000000 0.000000 1.840000 
# 
# From -- ./inp_files/7200.got.cif
#   From: 2010.05.17/outbox.cif.g08.bks.cpg/sg122_4_cif.got.tgz:7200.got - 2010.05.20 11:37:33.
