data_PCOD9561595
_publ_section_title
;
Structure prediction by ZEFSAII (Michael W. Deem and Ramdas Pophale) SiO2 
 PCOD9561595
Probable space group: P 4/M M M
;
_chemical_formula_sum "Si O2"
_cell_formula_units_Z 96
_cell_length_a 21.111404
_cell_length_b 21.111404
_cell_length_c 17.328098
_cell_angle_alpha 90.000000
_cell_angle_beta 90.000000
_cell_angle_gamma 90.000000
_cell_volume 7722.983890
_symmetry_space_group_name_H-M "P 4/M M M"
_symmetry_group_IT_number 123
_symmetry_cell_setting 'tetragonal'
loop_
_space_group_symop_operation_xyz
x,y,z
-y,x,z
-x,-y,z
y,-x,z
x,-y,-z
-x,y,-z
y,x,-z
-y,-x,-z
-x,-y,-z
y,-x,-z
x,y,-z
-y,x,-z
-x,y,z
x,-y,z
-y,-x,z
y,x,z
loop_
_atom_site_type_symbol
_atom_site_label
_atom_site_fract_x
_atom_site_fract_y
_atom_site_fract_z
Si Si1 0.925249 0.823251 0.000000
Si Si2 0.076277 0.570358 0.320316
Si Si3 0.926146 0.177381 0.679918
Si Si4 0.875665 0.774147 0.837365
Si Si5 0.076099 0.636658 0.838782
Si Si6 0.694959 0.077052 0.410984
Si Si7 0.427909 0.076667 0.000000
O O1 0.902281 0.788357 0.922546
O O2 0.891166 0.891166 0.000000
O O3 0.000000 0.827530 0.000000
O O4 0.100639 0.500000 0.339338
O O5 0.086478 0.587517 0.230608
O O6 0.099418 0.629984 0.370634
O O7 0.000000 0.568497 0.330958
O O8 0.880843 0.119158 0.658546
O O9 0.916431 0.191358 0.770885
O O10 0.905693 0.241612 0.635645
O O11 0.000000 0.165306 0.663673
O O12 0.806242 0.806242 0.832474
O O13 0.884355 0.699961 0.823530
O O14 0.093679 0.608011 0.921555
O O15 0.000000 0.652081 0.838770
O O16 0.698273 0.096764 0.500000
O O17 0.693339 0.000000 0.409051
O O18 0.500000 0.100199 0.000000
O O19 0.430581 0.000000 0.000000
#
# Coordination Sequence:
#
# PCOD9561595 Si02
#       7
#     8  16  16  16  16  16   8
#     4  10  19  28  38  52  68  88 118 153 190 232
#     4   9  16  25  39  58  77  96 117 143 179 227
#     4  10  19  31  45  59  76  98 128 166 207 248
#     4  10  19  29  41  56  73  96 128 160 192 233
#     4  10  16  25  40  54  75 101 122 150 189 225
#     4   9  17  29  43  57  74  95 118 148 191 241
#     4   9  17  25  35  56  79  99 123 147 179 228
#
# _framework density 12.430429
#
# number of rings (size 3 to 8) (size 9 to 14) (size 15 to 20)
#    0.000    2.417    1.667    2.500    0.000    3.583 
#    0.000    1.667    0.000    3.000    0.000    2.333 
#    0.000    0.000    0.000    0.000    0.000    0.000 
#
# Total GULP energy -534569.839680 kJ/mol
# GULP energy per Si atom -5568.435830 kJ/mol
# Density = 1.240214 g / cm^3
# Si number density = 12.430429 Si / 1000 Ang^3
#
#
#
# Elastic Constant Matrix: (Units=GPa)
#
#
# Indices 1 2 3 4 5 6 
#
# 1 62.5919 31.8945 20.7846 0.0000 0.0000 0.0000
# 2 31.8945 62.5919 20.7846 0.0000 0.0000 0.0000
# 3 20.7846 20.7846 73.3660 0.0000 0.0000 0.0000
# 4 0.0000 0.0000 0.0000 6.9077 0.0000 0.0000
# 5 0.0000 0.0000 0.0000 0.0000 6.9077 0.0000
# 6 0.0000 0.0000 0.0000 0.0000 0.0000 4.5431
#
#
#
# Elastic Compliance Matrix: (Units=1/GPa)
#
#
# Indices 1 2 3 4 5 6 
#
# 1 0.022333 -0.010243 -0.003425 0.000000 0.000000 0.000000
# 2 -0.010243 0.022333 -0.003425 0.000000 0.000000 0.000000
# 3 -0.003425 -0.003425 0.015571 0.000000 0.000000 0.000000
# 4 0.000000 0.000000 0.000000 0.144766 0.000000 0.000000
# 5 0.000000 0.000000 0.000000 0.000000 0.144766 0.000000
# 6 0.000000 0.000000 0.000000 0.000000 0.000000 0.220113
#
#
# Mechanical properties :
#
#
# Convention : Reuss Voigt Hill
#
# Bulk Modulus (GPa) = 38.38617 38.38633 38.38625
# Shear Modulus (GPa) = 8.15988 12.01078 10.08533
#
# Velocity S-wave (km/s) = 2.56490 3.11181 2.85150
# Velocity P-wave (km/s) = 6.30234 6.62262 6.46446
#
# Compressibility (1/GPa) = 0.02605105
#
# Stress axis : x y z
#
# Youngs Moduli (GPa) = 44.77632 44.77632 64.22184
#
# Poissons Ratio (x) = 0.45863 0.21997
# Poissons Ratio (y) = 0.45863 0.21997
# Poissons Ratio (z) = 0.15337 0.15337
#
# Static dielectric constant tensor:
#      x y z
#    x 1.393020 0.000000 0.000000 
#    y 0.000000 1.393020 0.000000 
#    z 0.000000 0.000000 1.429400 
# 
# From -- ./inp_files/5819.got.cif
#   From: 2010.05.17/outbox.cif.g08.bks.cpg/sg123_3_cif.got.tgz:5819.got - 2010.05.20 11:43:04.
