data_PCOD9561418
_publ_section_title
;
Structure prediction by ZEFSAII (Michael W. Deem and Ramdas Pophale) SiO2 
 PCOD9561418
Probable space group: I -4 2 D
;
_chemical_formula_sum "Si O2"
_cell_formula_units_Z 48
_cell_length_a 8.879450
_cell_length_b 8.879450
_cell_length_c 27.211887
_cell_angle_alpha 90.000000
_cell_angle_beta 90.000000
_cell_angle_gamma 90.000000
_cell_volume 2145.511225
_symmetry_space_group_name_H-M "I -4 2 D"
_symmetry_group_IT_number 122
_symmetry_cell_setting 'tetragonal'
loop_
_space_group_symop_operation_xyz
x,y,z
y,-x,-z
-x,-y,z
-y,x,-z
x,1/2-y,1/4-z
-x,1/2+y,1/4-z
-y,1/2-x,1/4+z
y,1/2+x,1/4+z
1/2+x,1/2+y,1/2+z
1/2+y,1/2-x,1/2-z
1/2-x,1/2-y,1/2+z
1/2-y,1/2+x,1/2-z
1/2+x,-y,3/4-z
1/2-x,y,3/4-z
1/2-y,-x,3/4+z
1/2+y,x,3/4+z
loop_
_atom_site_type_symbol
_atom_site_label
_atom_site_fract_x
_atom_site_fract_y
_atom_site_fract_z
Si Si1 0.451469 0.270720 0.981546
Si Si2 0.454726 0.721729 0.479579
Si Si3 0.568908 0.832403 0.377117
O O1 0.487155 0.260955 0.924099
O O2 0.329186 0.405760 0.988063
O O3 0.374321 0.123672 0.002907
O O4 0.589223 0.668248 0.515069
O O5 0.516375 0.742006 0.424914
O O6 0.750000 0.838273 0.375000
O O7 0.500000 0.000000 0.379635
#
# Coordination Sequence:
#
# PCOD9561418 Si02
#       3
#    16  16  16
#     4  11  23  45  77 115 146 194 256 309 372 450
#     4  11  26  47  72 107 156 197 246 313 384 449
#     4  12  24  46  81 109 148 200 254 311 376 458
#
# _framework density 22.372292000000002
#
# number of rings (size 3 to 8) (size 9 to 14) (size 15 to 20)
#    0.000    0.667    6.667    2.000    0.000    0.000 
#    0.000   13.333    0.000    0.000    0.000    0.000 
#    0.000    0.000    0.000    0.000    0.000    0.000 
#
# Total GULP energy -134439.198449 kJ/mol
# GULP energy per Si atom -5601.633269 kJ/mol
# Density = 2.232137 g / cm^3
# Si number density = 22.372292 Si / 1000 Ang^3
#
#
#
# Elastic Constant Matrix: (Units=GPa)
#
#
# Indices 1 2 3 4 5 6 
#
# 1 61.3363 76.8789 56.5786 0.0000 0.0000 0.0000
# 2 76.8789 61.3363 56.5786 0.0000 0.0000 0.0000
# 3 56.5786 56.5786 212.7925 0.0000 0.0000 0.0000
# 4 0.0000 0.0000 0.0000 24.0570 0.0000 0.0000
# 5 0.0000 0.0000 0.0000 0.0000 24.0569 0.0000
# 6 0.0000 0.0000 0.0000 0.0000 0.0000 52.6845
#
#
#
# Elastic Compliance Matrix: (Units=1/GPa)
#
#
# Indices 1 2 3 4 5 6 
#
# 1 -0.027546 0.036794 -0.002459 0.000000 0.000000 0.000000
# 2 0.036794 -0.027546 -0.002459 0.000000 0.000000 0.000000
# 3 -0.002459 -0.002459 0.006007 0.000000 0.000000 0.000000
# 4 0.000000 0.000000 0.000000 0.041568 0.000000 0.000000
# 5 0.000000 0.000000 0.000000 0.000000 0.041568 0.000000
# 6 0.000000 0.000000 0.000000 0.000000 0.000000 0.018981
#
#
# Mechanical properties :
#
#
# Convention : Reuss Voigt Hill
#
# Bulk Modulus (GPa) = 68.17736 79.50414 73.84075
# Shear Modulus (GPa) = -857.71615 29.85495 -413.93060
#
# Velocity S-wave (km/s) = -19.60142 3.65699 -13.61694
# Velocity P-wave (km/s) = 21.94874 7.31064 14.63389
#
# Compressibility (1/GPa) = 0.01466763
#
# Stress axis : x y z
#
# Youngs Moduli (GPa) = -36.30355 -36.30355 166.47156
#
# Poissons Ratio (x) = 1.33574 0.40935
# Poissons Ratio (y) = 1.33574 0.40935
# Poissons Ratio (z) = -0.08927 -0.08927
#
# Static dielectric constant tensor:
#      x y z
#    x 1.858710 0.000000 0.000000 
#    y 0.000000 1.858710 0.000000 
#    z 0.000000 0.000000 1.777510 
# 
# From -- ./inp_files/8992.got.cif
#   From: 2010.05.17/outbox.cif.g08.bks.cpg/sg122_5_cif.got.tgz:8992.got - 2010.05.20 11:37:33.
