data_PCOD9561155
_publ_section_title
;
Structure prediction by ZEFSAII (Michael W. Deem and Ramdas Pophale) SiO2 
 PCOD9561155
Probable space group: I -4 2 D
;
_chemical_formula_sum "Si O2"
_cell_formula_units_Z 48
_cell_length_a 13.742208
_cell_length_b 13.742208
_cell_length_c 12.092248
_cell_angle_alpha 90.000000
_cell_angle_beta 90.000000
_cell_angle_gamma 90.000000
_cell_volume 2283.600245
_symmetry_space_group_name_H-M "I -4 2 D"
_symmetry_group_IT_number 122
_symmetry_cell_setting 'tetragonal'
loop_
_space_group_symop_operation_xyz
x,y,z
y,-x,-z
-x,-y,z
-y,x,-z
x,1/2-y,1/4-z
-x,1/2+y,1/4-z
-y,1/2-x,1/4+z
y,1/2+x,1/4+z
1/2+x,1/2+y,1/2+z
1/2+y,1/2-x,1/2-z
1/2-x,1/2-y,1/2+z
1/2-y,1/2+x,1/2-z
1/2+x,-y,3/4-z
1/2-x,y,3/4-z
1/2-y,-x,3/4+z
1/2+y,x,3/4+z
loop_
_atom_site_type_symbol
_atom_site_label
_atom_site_fract_x
_atom_site_fract_y
_atom_site_fract_z
Si Si1 0.500000 0.500000 0.837129
Si Si2 0.812456 0.250000 0.125000
Si Si3 0.636934 0.333449 0.848276
Si Si4 0.121832 0.820663 0.722810
O O1 0.569613 0.420076 0.892867
O O2 0.422087 0.432437 0.774749
O O3 0.869249 0.189105 0.217567
O O4 0.736591 0.321697 0.189935
O O5 0.750000 0.353958 0.875000
O O6 0.610395 0.236712 0.914253
O O7 0.081945 0.750000 0.625000
#
# Coordination Sequence:
#
# PCOD9561155 Si02
#       4
#     8   8  16  16
#     4  12  24  37  71 100 118 168 219 253 318 382
#     4   8  20  46  62  82 134 172 194 260 324 356
#     4  10  22  44  63  90 135 163 205 264 315 372
#     4   9  22  39  62  93 124 163 205 253 320 366
#
# _framework density 21.019438999999998
#
# number of rings (size 3 to 8) (size 9 to 14) (size 15 to 20)
#    1.000    1.333    0.000    1.000    4.667    4.000 
#    9.000    1.667    0.000    0.000    0.000    0.000 
#    0.000    0.000    0.000    0.000    0.000    0.000 
#
# Total GULP energy -133654.606063 kJ/mol
# GULP energy per Si atom -5568.941919 kJ/mol
# Density = 2.097160 g / cm^3
# Si number density = 21.019439 Si / 1000 Ang^3
#
#
#
# Elastic Constant Matrix: (Units=GPa)
#
#
# Indices 1 2 3 4 5 6 
#
# 1 99.4551 42.7010 13.0824 0.0000 0.0000 0.0000
# 2 42.7010 99.4551 13.0824 0.0000 0.0000 0.0000
# 3 13.0824 13.0824 85.4372 0.0000 0.0000 0.0000
# 4 0.0000 0.0000 0.0000 10.1657 0.0000 0.0000
# 5 0.0000 0.0000 0.0000 0.0000 10.1657 0.0000
# 6 0.0000 0.0000 0.0000 0.0000 0.0000 41.8057
#
#
#
# Elastic Compliance Matrix: (Units=1/GPa)
#
#
# Indices 1 2 3 4 5 6 
#
# 1 0.012429 -0.005191 -0.001108 0.000000 0.000000 0.000000
# 2 -0.005191 0.012429 -0.001108 0.000000 0.000000 0.000000
# 3 -0.001108 -0.001108 0.012044 0.000000 0.000000 0.000000
# 4 0.000000 0.000000 0.000000 0.098370 0.000000 0.000000
# 5 0.000000 0.000000 0.000000 0.000000 0.098370 0.000000
# 6 0.000000 0.000000 0.000000 0.000000 0.000000 0.023920
#
#
# Mechanical properties :
#
#
# Convention : Reuss Voigt Hill
#
# Bulk Modulus (GPa) = 45.27458 46.89768 46.08613
# Shear Modulus (GPa) = 17.87370 26.79284 22.33327
#
# Velocity S-wave (km/s) = 2.91922 3.57412 3.26315
# Velocity P-wave (km/s) = 5.74009 6.27634 6.01420
#
# Compressibility (1/GPa) = 0.02208745
#
# Stress axis : x y z
#
# Youngs Moduli (GPa) = 80.45577 80.45577 83.02925
#
# Poissons Ratio (x) = 0.41762 0.09203
# Poissons Ratio (y) = 0.41762 0.09203
# Poissons Ratio (z) = 0.08918 0.08918
#
# Static dielectric constant tensor:
#      x y z
#    x 1.769630 0.000000 0.000000 
#    y 0.000000 1.769630 0.000000 
#    z 0.000000 0.000000 1.764290 
# 
# From -- ./inp_files/3839.got.cif
#   From: 2010.05.17/outbox.cif.g08.bks.cpg/sg122_2_cif.got.tgz:3839.got - 2010.05.20 11:37:33.
