data_PCOD9561722
_publ_section_title
;
Structure prediction by ZEFSAII (Michael W. Deem and Ramdas Pophale) SiO2 
 PCOD9561722
Probable space group: P 4/M M M
;
_chemical_formula_sum "Si O2"
_cell_formula_units_Z 80
_cell_length_a 14.185761
_cell_length_b 14.185761
_cell_length_c 25.592235
_cell_angle_alpha 90.000000
_cell_angle_beta 90.000000
_cell_angle_gamma 90.000000
_cell_volume 5150.074272
_symmetry_space_group_name_H-M "P 4/M M M"
_symmetry_group_IT_number 123
_symmetry_cell_setting 'tetragonal'
loop_
_space_group_symop_operation_xyz
x,y,z
-y,x,z
-x,-y,z
y,-x,z
x,-y,-z
-x,y,-z
y,x,-z
-y,-x,-z
-x,-y,-z
y,-x,-z
x,y,-z
-y,x,-z
-x,y,z
x,-y,z
-y,-x,z
y,x,z
loop_
_atom_site_type_symbol
_atom_site_label
_atom_site_fract_x
_atom_site_fract_y
_atom_site_fract_z
Si Si1 0.112293 0.734690 0.843519
Si Si2 0.114597 0.391431 0.058639
Si Si3 0.264026 0.890219 0.437644
Si Si4 0.610668 0.890506 0.741171
Si Si5 0.611765 0.767984 0.362083
O O1 0.168944 0.831057 0.840781
O O2 0.144041 0.675984 0.894523
O O3 0.130550 0.673454 0.791586
O O4 0.000000 0.749315 0.847028
O O5 0.143885 0.500000 0.067309
O O6 0.000000 0.391646 0.059014
O O7 0.144047 0.362726 0.000000
O O8 0.280183 0.885106 0.500000
O O9 0.168027 0.831974 0.426497
O O10 0.346042 0.836516 0.406572
O O11 0.257463 0.000000 0.422925
O O12 0.500000 0.883289 0.755208
O O13 0.628791 0.821526 0.692869
O O14 0.627649 0.000000 0.725705
O O15 0.500000 0.753640 0.368221
O O16 0.672037 0.672037 0.363548
#
# Coordination Sequence:
#
# PCOD9561722 Si02
#       5
#    16  16  16  16  16
#     4  10  19  29  42  61  88 121 151 178 210 253
#     4   8  14  26  44  63  81 103 136 181 227 260
#     4   9  18  32  50  73  99 125 154 189 229 273
#     4   9  17  30  49  70  88 109 143 188 236 278
#     4  10  20  33  49  69  94 123 155 192 232 275
#
# _framework density 15.533756
#
# number of rings (size 3 to 8) (size 9 to 14) (size 15 to 20)
#    0.000    2.800    0.000    2.400    0.000    5.000 
#    0.000    2.000    0.000    0.000    0.000    8.400 
#    0.000    3.600    0.000    8.800    0.000    0.800 
#
# Total GULP energy -445687.511368 kJ/mol
# GULP energy per Si atom -5571.093892 kJ/mol
# Density = 1.549840 g / cm^3
# Si number density = 15.533756 Si / 1000 Ang^3
#
#
#
# Elastic Constant Matrix: (Units=GPa)
#
#
# Indices 1 2 3 4 5 6 
#
# 1 91.4916 60.8495 57.3389 0.0000 0.0000 0.0000
# 2 60.8495 91.4916 57.3389 0.0000 0.0000 0.0000
# 3 57.3389 57.3389 73.2657 0.0000 0.0000 0.0000
# 4 0.0000 0.0000 0.0000 17.0066 0.0000 0.0000
# 5 0.0000 0.0000 0.0000 0.0000 17.0066 0.0000
# 6 0.0000 0.0000 0.0000 0.0000 0.0000 15.1805
#
#
#
# Elastic Compliance Matrix: (Units=1/GPa)
#
#
# Indices 1 2 3 4 5 6 
#
# 1 0.024306 -0.008329 -0.012503 0.000000 0.000000 0.000000
# 2 -0.008329 0.024306 -0.012503 0.000000 0.000000 0.000000
# 3 -0.012503 -0.012503 0.033220 0.000000 0.000000 0.000000
# 4 0.000000 0.000000 0.000000 0.058801 0.000000 0.000000
# 5 0.000000 0.000000 0.000000 0.000000 0.058801 0.000000
# 6 0.000000 0.000000 0.000000 0.000000 0.000000 0.065874
#
#
# Mechanical properties :
#
#
# Convention : Reuss Voigt Hill
#
# Bulk Modulus (GPa) = 65.96784 67.47819 66.72302
# Shear Modulus (GPa) = 14.83543 15.22019 15.02781
#
# Velocity S-wave (km/s) = 3.09373 3.13359 3.11373
# Velocity P-wave (km/s) = 7.43782 7.52506 7.48157
#
# Compressibility (1/GPa) = 0.01515890
#
# Stress axis : x y z
#
# Youngs Moduli (GPa) = 41.14279 41.14279 30.10270
#
# Poissons Ratio (x) = 0.34269 0.37638
# Poissons Ratio (y) = 0.34269 0.37638
# Poissons Ratio (z) = 0.51442 0.51442
#
# Static dielectric constant tensor:
#      x y z
#    x 1.499320 0.000000 0.000000 
#    y 0.000000 1.499320 0.000000 
#    z 0.000000 0.000000 1.520740 
# 
# From -- ./inp_files/6289.got.cif
#   From: 2010.05.17/outbox.cif.g08.bks.cpg/sg123_4_cif.got.tgz:6289.got - 2010.05.20 11:43:04.
