data_PCOD9561988
_publ_section_title
;
Structure prediction by ZEFSAII (Michael W. Deem and Ramdas Pophale) SiO2 
 PCOD9561988
Probable space group: P 4/M M M
;
_chemical_formula_sum "Si O2"
_cell_formula_units_Z 104
_cell_length_a 20.604455
_cell_length_b 20.604455
_cell_length_c 14.564861
_cell_angle_alpha 90.000000
_cell_angle_beta 90.000000
_cell_angle_gamma 90.000000
_cell_volume 6183.418025
_symmetry_space_group_name_H-M "P 4/M M M"
_symmetry_group_IT_number 123
_symmetry_cell_setting 'tetragonal'
loop_
_space_group_symop_operation_xyz
x,y,z
-y,x,z
-x,-y,z
y,-x,z
x,-y,-z
-x,y,-z
y,x,-z
-y,-x,-z
-x,-y,-z
y,-x,-z
x,y,-z
-y,x,-z
-x,y,z
x,-y,z
-y,-x,z
y,x,z
loop_
_atom_site_type_symbol
_atom_site_label
_atom_site_fract_x
_atom_site_fract_y
_atom_site_fract_z
Si Si1 0.000000 0.578456 0.390126
Si Si2 0.136948 0.760726 0.780845
Si Si3 0.243885 0.346128 0.729913
Si Si4 0.142915 0.423013 0.610354
Si Si5 0.422849 0.797914 0.893404
Si Si6 0.183501 0.076124 0.600788
Si Si7 0.347670 0.928192 0.889878
O O1 0.071091 0.601458 0.356438
O O2 0.000000 0.500000 0.379531
O O3 0.000000 0.590914 0.500000
O O4 0.172956 0.827045 0.812358
O O5 0.194046 0.710449 0.758606
O O6 0.100285 0.774899 0.686002
O O7 0.091079 0.722802 0.850889
O O8 0.310109 0.310109 0.701306
O O9 0.203783 0.387119 0.655335
O O10 0.250383 0.389750 0.821291
O O11 0.144371 0.415960 0.500000
O O12 0.146504 0.500000 0.631010
O O13 0.500000 0.795757 0.886840
O O14 0.397524 0.870215 0.867090
O O15 0.404093 0.786254 0.000000
O O16 0.214006 0.089014 0.500000
O O17 0.117373 0.117373 0.603630
O O18 0.171390 0.000000 0.607838
O O19 0.367198 0.000000 0.857138
O O20 0.344742 0.929700 0.000000
#
# Coordination Sequence:
#
# PCOD9561988 Si02
#       7
#     8  16  16  16  16  16  16
#     4   7  12  26  46  66  91 125 165 206 243 280
#     4   9  18  31  44  59  84 118 153 189 227 272
#     4  10  20  32  47  69  98 130 164 200 238 286
#     4   9  17  31  50  71  99 132 166 206 247 289
#     4   9  18  33  51  70  95 126 159 196 237 283
#     4   9  17  29  44  60  79 105 139 184 238 290
#     4   9  17  29  46  68  92 117 148 188 232 279
#
# _framework density 16.819175999999999
#
# number of rings (size 3 to 8) (size 9 to 14) (size 15 to 20)
#    0.000    3.000    0.000    1.846    0.000    2.000 
#    6.923    6.923    0.000    0.000    0.000    0.000 
#    0.000    4.923    0.000   27.846    0.000    0.769 
#
# Total GULP energy -579082.778688 kJ/mol
# GULP energy per Si atom -5568.103641 kJ/mol
# Density = 1.678090 g / cm^3
# Si number density = 16.819176 Si / 1000 Ang^3
#
#
#
# Elastic Constant Matrix: (Units=GPa)
#
#
# Indices 1 2 3 4 5 6 
#
# 1 62.8271 27.4853 26.0277 0.0000 0.0000 0.0000
# 2 27.4853 62.8271 26.0277 0.0000 0.0000 0.0000
# 3 26.0277 26.0277 33.5452 0.0000 0.0000 0.0000
# 4 0.0000 0.0000 0.0000 65.3956 0.0000 0.0000
# 5 0.0000 0.0000 0.0000 0.0000 65.3956 0.0000
# 6 0.0000 0.0000 0.0000 0.0000 0.0000 13.0686
#
#
#
# Elastic Compliance Matrix: (Units=1/GPa)
#
#
# Indices 1 2 3 4 5 6 
#
# 1 0.024163 -0.004132 -0.015542 0.000000 0.000000 0.000000
# 2 -0.004132 0.024163 -0.015542 0.000000 0.000000 0.000000
# 3 -0.015542 -0.015542 0.053929 0.000000 0.000000 0.000000
# 4 0.000000 0.000000 0.000000 0.015292 0.000000 0.000000
# 5 0.000000 0.000000 0.000000 0.000000 0.015292 0.000000
# 6 0.000000 0.000000 0.000000 0.000000 0.000000 0.076519
#
#
# Mechanical properties :
#
#
# Convention : Reuss Voigt Hill
#
# Bulk Modulus (GPa) = 31.42435 35.36454 33.39445
# Shear Modulus (GPa) = 17.21784 34.08254 25.65019
#
# Velocity S-wave (km/s) = 3.20301 4.50645 3.90943
# Velocity P-wave (km/s) = 5.69238 6.93898 6.34636
#
# Compressibility (1/GPa) = 0.03182246
#
# Stress axis : x y z
#
# Youngs Moduli (GPa) = 41.38558 41.38558 18.54307
#
# Poissons Ratio (x) = 0.17101 0.28820
# Poissons Ratio (y) = 0.17101 0.28820
# Poissons Ratio (z) = 0.64321 0.64321
#
# Static dielectric constant tensor:
#      x y z
#    x 1.579740 0.000000 0.000000 
#    y 0.000000 1.579740 0.000000 
#    z 0.000000 0.000000 1.600120 
# 
# From -- ./inp_files/5632.got.cif
#   From: 2010.05.17/outbox.cif.g08.bks.cpg/sg123_3_cif.got.tgz:5632.got - 2010.05.20 11:43:04.
