data_PCOD9561683
_publ_section_title
;
Structure prediction by ZEFSAII (Michael W. Deem and Ramdas Pophale) SiO2 
 PCOD9561683
Probable space group: P 4/M M M
;
_chemical_formula_sum "Si O2"
_cell_formula_units_Z 96
_cell_length_a 17.376393
_cell_length_b 17.376393
_cell_length_c 20.238342
_cell_angle_alpha 90.000000
_cell_angle_beta 90.000000
_cell_angle_gamma 90.000000
_cell_volume 6110.745427
_symmetry_space_group_name_H-M "P 4/M M M"
_symmetry_group_IT_number 123
_symmetry_cell_setting 'tetragonal'
loop_
_space_group_symop_operation_xyz
x,y,z
-y,x,z
-x,-y,z
y,-x,z
x,-y,-z
-x,y,-z
y,x,-z
-y,-x,-z
-x,-y,-z
y,-x,-z
x,y,-z
-y,x,-z
-x,y,z
x,-y,z
-y,-x,z
y,x,z
loop_
_atom_site_type_symbol
_atom_site_label
_atom_site_fract_x
_atom_site_fract_y
_atom_site_fract_z
Si Si1 0.286480 0.412010 0.098858
Si Si2 0.291421 0.159393 0.072457
Si Si3 0.910436 0.219630 0.800212
Si Si4 0.412378 0.092456 0.577772
Si Si5 0.586846 0.293204 0.258143
Si Si6 0.171945 0.297196 0.677651
O O1 0.292767 0.500000 0.076668
O O2 0.357502 0.357502 0.077609
O O3 0.207494 0.370258 0.078609
O O4 0.287440 0.412422 0.178712
O O5 0.225336 0.225336 0.074023
O O6 0.272997 0.107518 0.135819
O O7 0.287894 0.121427 0.000000
O O8 0.854855 0.145146 0.805256
O O9 0.885110 0.263791 0.733493
O O10 0.000000 0.199630 0.798656
O O11 0.404188 0.110765 0.500000
O O12 0.500000 0.115311 0.598026
O O13 0.345307 0.130422 0.620645
O O14 0.408121 0.000000 0.584422
O O15 0.500000 0.285711 0.281871
O O16 0.625382 0.374619 0.275939
O O17 0.642396 0.228013 0.286005
O O18 0.226496 0.226496 0.654542
#
# Coordination Sequence:
#
# PCOD9561683 Si02
#       6
#    16  16  16  16  16  16
#     4   9  16  27  43  64  91 122 158 197 235 274
#     4   9  17  31  49  66  88 121 158 192 229 277
#     4  10  20  34  52  74  96 118 148 186 232 286
#     4   9  18  32  49  70  97 127 158 195 238 278
#     4   9  16  26  42  64  91 122 155 192 229 264
#     4  10  18  30  49  71  97 126 157 192 226 273
#
# _framework density 15.71003
#
# number of rings (size 3 to 8) (size 9 to 14) (size 15 to 20)
#    0.000    2.667    1.667    1.500    0.000    1.500 
#    0.000    1.667    0.000    1.500    0.000    5.833 
#    0.000    0.000    0.000   31.000    0.000    0.167 
#
# Total GULP energy -534705.840821 kJ/mol
# GULP energy per Si atom -5569.852509 kJ/mol
# Density = 1.567427 g / cm^3
# Si number density = 15.710030 Si / 1000 Ang^3
#
#
#
# Elastic Constant Matrix: (Units=GPa)
#
#
# Indices 1 2 3 4 5 6 
#
# 1 86.3066 41.7436 46.6867 0.0000 0.0000 0.0000
# 2 41.7436 86.3066 46.6867 0.0000 0.0000 0.0000
# 3 46.6867 46.6867 82.9470 0.0000 0.0000 0.0000
# 4 0.0000 0.0000 0.0000 3.3878 0.0000 0.0000
# 5 0.0000 0.0000 0.0000 0.0000 3.3878 0.0000
# 6 0.0000 0.0000 0.0000 0.0000 0.0000 17.6651
#
#
#
# Elastic Compliance Matrix: (Units=1/GPa)
#
#
# Indices 1 2 3 4 5 6 
#
# 1 0.017843 -0.004597 -0.007455 0.000000 0.000000 0.000000
# 2 -0.004597 0.017843 -0.007455 0.000000 0.000000 0.000000
# 3 -0.007455 -0.007455 0.020449 0.000000 0.000000 0.000000
# 4 0.000000 0.000000 0.000000 0.295174 0.000000 0.000000
# 5 0.000000 0.000000 0.000000 0.000000 0.295174 0.000000
# 6 0.000000 0.000000 0.000000 0.000000 0.000000 0.056609
#
#
# Mechanical properties :
#
#
# Convention : Reuss Voigt Hill
#
# Bulk Modulus (GPa) = 58.41637 58.42157 58.41897
# Shear Modulus (GPa) = 6.68615 12.91770 9.80193
#
# Velocity S-wave (km/s) = 2.06524 2.87061 2.50056
# Velocity P-wave (km/s) = 6.55376 6.94661 6.75304
#
# Compressibility (1/GPa) = 0.01711849
#
# Stress axis : x y z
#
# Youngs Moduli (GPa) = 56.04425 56.04425 48.90332
#
# Poissons Ratio (x) = 0.25764 0.36460
# Poissons Ratio (y) = 0.25764 0.36460
# Poissons Ratio (z) = 0.41784 0.41784
#
# Static dielectric constant tensor:
#      x y z
#    x 1.514270 0.000000 0.000000 
#    y 0.000000 1.514270 0.000000 
#    z 0.000000 0.000000 1.534230 
# 
# From -- ./inp_files/5481.got.cif
#   From: 2010.05.17/outbox.cif.g08.bks.cpg/sg123_3_cif.got.tgz:5481.got - 2010.05.20 11:43:04.
