data_PCOD9561674
_publ_section_title
;
Structure prediction by ZEFSAII (Michael W. Deem and Ramdas Pophale) SiO2 
 PCOD9561674
Probable space group: P 4/M M M
;
_chemical_formula_sum "Si O2"
_cell_formula_units_Z 96
_cell_length_a 22.314386
_cell_length_b 22.314386
_cell_length_c 12.941625
_cell_angle_alpha 90.000000
_cell_angle_beta 90.000000
_cell_angle_gamma 90.000000
_cell_volume 6444.046923
_symmetry_space_group_name_H-M "P 4/M M M"
_symmetry_group_IT_number 123
_symmetry_cell_setting 'tetragonal'
loop_
_space_group_symop_operation_xyz
x,y,z
-y,x,z
-x,-y,z
y,-x,z
x,-y,-z
-x,y,-z
y,x,-z
-y,-x,-z
-x,-y,-z
y,-x,-z
x,y,-z
-y,x,-z
-x,y,z
x,-y,z
-y,-x,z
y,x,z
loop_
_atom_site_type_symbol
_atom_site_label
_atom_site_fract_x
_atom_site_fract_y
_atom_site_fract_z
Si Si1 0.643100 0.740214 0.613232
Si Si2 0.758081 0.429626 0.180348
Si Si3 0.572189 0.668594 0.000000
Si Si4 0.746261 0.158921 0.380930
Si Si5 0.430673 0.927022 0.500000
Si Si6 0.895793 0.570109 0.880452
Si Si7 0.069645 0.652642 0.692646
O O1 0.613666 0.744440 0.500000
O O2 0.676212 0.676212 0.621674
O O3 0.602260 0.752634 0.710526
O O4 0.696087 0.789097 0.615708
O O5 0.749719 0.500000 0.195640
O O6 0.707780 0.409357 0.099506
O O7 0.824101 0.421988 0.131985
O O8 0.500000 0.663076 0.000000
O O9 0.605915 0.605915 0.000000
O O10 0.754762 0.138248 0.500000
O O11 0.807497 0.192504 0.346567
O O12 0.713894 0.107493 0.314850
O O13 0.500000 0.906095 0.500000
O O14 0.392701 0.908766 0.398895
O O15 0.433010 0.000000 0.500000
O O16 0.909825 0.500000 0.855308
O O17 0.923819 0.615975 0.798975
O O18 0.912728 0.580186 0.000000
O O19 0.000000 0.665418 0.673436
#
# Coordination Sequence:
#
# PCOD9561674 Si02
#       7
#    16  16   8  16   8  16  16
#     4   9  17  29  45  65  89 116 147 185 232 284
#     4  10  18  30  47  66  89 117 153 195 236 281
#     4  10  20  33  50  70  89 115 153 199 254 304
#     4   9  17  30  47  67  93 122 152 189 234 282
#     4   9  18  30  43  66  98 126 156 195 236 275
#     4  10  20  34  48  63  92 130 167 202 232 274
#     4  11  20  31  49  70  95 126 161 201 239 281
#
# _framework density 14.897470999999999
#
# number of rings (size 3 to 8) (size 9 to 14) (size 15 to 20)
#    0.000    2.250    3.333    2.000    0.000    1.750 
#    0.000    0.833    0.000    0.000    0.000    0.000 
#    0.000    0.333    0.000   17.333    0.000    0.000 
#
# Total GULP energy -534904.323093 kJ/mol
# GULP energy per Si atom -5571.920032 kJ/mol
# Density = 1.486356 g / cm^3
# Si number density = 14.897471 Si / 1000 Ang^3
#
#
#
# Elastic Constant Matrix: (Units=GPa)
#
#
# Indices 1 2 3 4 5 6 
#
# 1 44.5110 34.0479 24.2389 0.0000 0.0000 0.0000
# 2 34.0479 44.5110 24.2389 0.0000 0.0000 0.0000
# 3 24.2389 24.2389 85.7453 0.0000 0.0000 0.0000
# 4 0.0000 0.0000 0.0000 11.5185 0.0000 0.0000
# 5 0.0000 0.0000 0.0000 0.0000 11.5185 0.0000
# 6 0.0000 0.0000 0.0000 0.0000 0.0000 18.3381
#
#
#
# Elastic Compliance Matrix: (Units=1/GPa)
#
#
# Indices 1 2 3 4 5 6 
#
# 1 0.055497 -0.040078 -0.004359 0.000000 0.000000 0.000000
# 2 -0.040078 0.055497 -0.004359 0.000000 0.000000 0.000000
# 3 -0.004359 -0.004359 0.014127 0.000000 0.000000 0.000000
# 4 0.000000 0.000000 0.000000 0.086817 0.000000 0.000000
# 5 0.000000 0.000000 0.000000 0.000000 0.086817 0.000000
# 6 0.000000 0.000000 0.000000 0.000000 0.000000 0.054531
#
#
# Mechanical properties :
#
#
# Convention : Reuss Voigt Hill
#
# Bulk Modulus (GPa) = 36.32416 37.75762 37.04089
# Shear Modulus (GPa) = 10.86836 14.42447 12.64641
#
# Velocity S-wave (km/s) = 2.70394 3.11505 2.91674
# Velocity P-wave (km/s) = 5.84671 6.19177 6.02171
#
# Compressibility (1/GPa) = 0.02752989
#
# Stress axis : x y z
#
# Youngs Moduli (GPa) = 18.01914 18.01914 70.78776
#
# Poissons Ratio (x) = 0.72216 0.30854
# Poissons Ratio (y) = 0.72216 0.30854
# Poissons Ratio (z) = 0.07854 0.07854
#
# Static dielectric constant tensor:
#      x y z
#    x 1.494500 0.000000 0.000000 
#    y 0.000000 1.494500 0.000000 
#    z 0.000000 0.000000 1.504960 
# 
# From -- ./inp_files/3312.got.cif
#   From: 2010.05.17/outbox.cif.g08.bks.cpg/sg123_2_cif.got.tgz:3312.got - 2010.05.20 11:43:04.
