data_PCOD9561142
_publ_section_title
;
Structure prediction by ZEFSAII (Michael W. Deem and Ramdas Pophale) SiO2 
 PCOD9561142
Probable space group: I -4 2 D
;
_chemical_formula_sum "Si O2"
_cell_formula_units_Z 104
_cell_length_a 17.205433
_cell_length_b 17.205433
_cell_length_c 17.420572
_cell_angle_alpha 90.000000
_cell_angle_beta 90.000000
_cell_angle_gamma 90.000000
_cell_volume 5156.958356
_symmetry_space_group_name_H-M "I -4 2 D"
_symmetry_group_IT_number 122
_symmetry_cell_setting 'tetragonal'
loop_
_space_group_symop_operation_xyz
x,y,z
y,-x,-z
-x,-y,z
-y,x,-z
x,1/2-y,1/4-z
-x,1/2+y,1/4-z
-y,1/2-x,1/4+z
y,1/2+x,1/4+z
1/2+x,1/2+y,1/2+z
1/2+y,1/2-x,1/2-z
1/2-x,1/2-y,1/2+z
1/2-y,1/2+x,1/2-z
1/2+x,-y,3/4-z
1/2-x,y,3/4-z
1/2-y,-x,3/4+z
1/2+y,x,3/4+z
loop_
_atom_site_type_symbol
_atom_site_label
_atom_site_fract_x
_atom_site_fract_y
_atom_site_fract_z
Si Si1 0.067574 0.783002 0.813223
Si Si2 0.276375 0.456034 0.230938
Si Si3 0.874196 0.982025 0.481243
Si Si4 0.660064 0.317933 0.581343
Si Si5 0.588411 0.655520 0.263674
Si Si6 0.721958 0.124070 0.960126
Si Si7 0.055425 0.250000 0.625000
O O1 0.050902 0.697123 0.780847
O O2 0.151805 0.815496 0.794050
O O3 0.004032 0.840702 0.775333
O O4 0.054231 0.772897 0.903757
O O5 0.223233 0.417560 0.298214
O O6 0.358318 0.411041 0.227451
O O7 0.297977 0.543856 0.248729
O O8 0.942276 0.916670 0.480816
O O9 0.827431 0.007862 0.403270
O O10 0.706310 0.250000 0.625000
O O11 0.655818 0.381650 0.647965
O O12 0.706517 0.343423 0.507895
O O13 0.601753 0.725758 0.202197
O O14 0.750000 0.106525 0.875000
#
# Coordination Sequence:
#
# PCOD9561142 Si02
#       7
#    16  16  16  16  16  16   8
#     4  11  24  41  68 103 133 180 234 278 347 418
#     4  11  23  43  68  96 138 181 228 289 342 409
#     4  10  23  44  66  96 138 183 223 284 345 410
#     4  10  22  42  68  94 129 179 223 279 343 399
#     4  10  22  43  66  97 135 177 221 285 347 407
#     4  12  24  43  69  99 135 178 232 282 346 417
#     4  10  22  42  68  98 130 176 232 270 348 420
#
# _framework density 20.166927000000001
#
# number of rings (size 3 to 8) (size 9 to 14) (size 15 to 20)
#    0.000    1.385    3.077    2.308    0.000   10.462 
#    6.923    0.000    0.000    0.462    0.000    0.000 
#    0.000    0.000    0.000    0.000    0.000    0.000 
#
# Total GULP energy -289518.571733 kJ/mol
# GULP energy per Si atom -5567.664841 kJ/mol
# Density = 2.012103 g / cm^3
# Si number density = 20.166927 Si / 1000 Ang^3
#
#
#
# Elastic Constant Matrix: (Units=GPa)
#
#
# Indices 1 2 3 4 5 6 
#
# 1 84.6928 44.8157 11.6859 0.0000 0.0000 0.0000
# 2 44.8157 84.6928 11.6859 0.0000 0.0000 0.0000
# 3 11.6859 11.6859 94.4133 0.0000 0.0000 0.0000
# 4 0.0000 0.0000 0.0000 8.7574 0.0000 0.0000
# 5 0.0000 0.0000 0.0000 0.0000 8.7574 0.0000
# 6 0.0000 0.0000 0.0000 0.0000 0.0000 -11.9181
#
#
#
# Elastic Compliance Matrix: (Units=1/GPa)
#
#
# Indices 1 2 3 4 5 6 
#
# 1 0.016487 -0.008590 -0.000978 0.000000 0.000000 0.000000
# 2 -0.008590 0.016487 -0.000978 0.000000 0.000000 0.000000
# 3 -0.000978 -0.000978 0.010834 0.000000 0.000000 0.000000
# 4 0.000000 0.000000 0.000000 0.114189 0.000000 0.000000
# 5 0.000000 0.000000 0.000000 0.000000 0.114189 0.000000
# 6 0.000000 0.000000 0.000000 0.000000 0.000000 -0.083906
#
#
# Mechanical properties :
#
#
# Convention : Reuss Voigt Hill
#
# Bulk Modulus (GPa) = 44.01539 44.46377 44.23958
# Shear Modulus (GPa) = 23.04750 14.16011 18.60381
#
# Velocity S-wave (km/s) = 3.38425 2.65268 3.04055
# Velocity P-wave (km/s) = 6.09457 5.61052 5.85755
#
# Compressibility (1/GPa) = 0.02271933
#
# Stress axis : x y z
#
# Youngs Moduli (GPa) = 60.65214 60.65214 92.30445
#
# Poissons Ratio (x) = 0.52097 0.09023
# Poissons Ratio (y) = 0.52097 0.09023
# Poissons Ratio (z) = 0.05929 0.05929
#
# Static dielectric constant tensor:
#      x y z
#    x 1.764830 0.000000 0.000000 
#    y 0.000000 1.764830 0.000000 
#    z 0.000000 0.000000 1.762290 
# 
# From -- ./inp_files/6405.got.cif
#   From: 2010.05.17/outbox.cif.g08.bks.cpg/sg122_4_cif.got.tgz:6405.got - 2010.05.20 11:37:33.
