data_PCOD9561918
_publ_section_title
;
Structure prediction by ZEFSAII (Michael W. Deem and Ramdas Pophale) SiO2 
 PCOD9561918
Probable space group: P 4/M M M
;
_chemical_formula_sum "Si O2"
_cell_formula_units_Z 72
_cell_length_a 21.312811
_cell_length_b 21.312811
_cell_length_c 7.784665
_cell_angle_alpha 90.000000
_cell_angle_beta 90.000000
_cell_angle_gamma 90.000000
_cell_volume 3536.074412
_symmetry_space_group_name_H-M "P 4/M M M"
_symmetry_group_IT_number 123
_symmetry_cell_setting 'tetragonal'
loop_
_space_group_symop_operation_xyz
x,y,z
-y,x,z
-x,-y,z
y,-x,z
x,-y,-z
-x,y,-z
y,x,-z
-y,-x,-z
-x,-y,-z
y,-x,-z
x,y,-z
-y,x,-z
-x,y,z
x,-y,z
-y,-x,z
y,x,z
loop_
_atom_site_type_symbol
_atom_site_label
_atom_site_fract_x
_atom_site_fract_y
_atom_site_fract_z
Si Si1 0.696182 0.134679 0.706577
Si Si2 0.365705 0.262148 0.309209
Si Si3 0.678715 0.570842 0.000000
Si Si4 0.926426 0.567516 0.708559
Si Si5 0.172129 0.071569 0.204568
O O1 0.699000 0.128008 0.500000
O O2 0.682488 0.207351 0.744089
O O3 0.632418 0.102106 0.771922
O O4 0.760356 0.104574 0.770982
O O5 0.390687 0.245606 0.500000
O O6 0.324426 0.324426 0.324099
O O7 0.416265 0.277797 0.165876
O O8 0.654781 0.500000 0.000000
O O9 0.621868 0.621868 0.000000
O O10 0.920799 0.568243 0.500000
O O11 0.899907 0.500000 0.767491
O O12 0.000000 0.567908 0.748720
O O13 0.117399 0.117399 0.274266
O O14 0.171973 0.000000 0.273284
O O15 0.162456 0.067079 0.000000
#
# Coordination Sequence:
#
# PCOD9561918 Si02
#       5
#    16  16   8  16  16
#     4  10  19  32  55  83 108 141 185 231 283 349
#     4   9  19  35  55  82 115 149 187 236 294 352
#     4  10  22  39  60  86 117 157 200 246 298 348
#     4   8  14  25  42  67 100 135 169 207 254 311
#     4  10  22  38  56  79 108 146 192 244 301 360
#
# _framework density 20.361563
#
# number of rings (size 3 to 8) (size 9 to 14) (size 15 to 20)
#    0.000    2.667    0.000    2.000    1.556    4.333 
#    0.000    3.333    0.000    0.000    0.000    7.778 
#    0.000    0.000    0.000    0.000    0.000    0.000 
#
# Total GULP energy -401251.249693 kJ/mol
# GULP energy per Si atom -5572.934024 kJ/mol
# Density = 2.031522 g / cm^3
# Si number density = 20.361563 Si / 1000 Ang^3
#
#
#
# Elastic Constant Matrix: (Units=GPa)
#
#
# Indices 1 2 3 4 5 6 
#
# 1 116.0163 44.2928 31.9509 0.0000 0.0000 0.0000
# 2 44.2928 116.0163 31.9509 0.0000 0.0000 0.0000
# 3 31.9509 31.9509 49.0237 0.0000 0.0000 0.0000
# 4 0.0000 0.0000 0.0000 -27.0279 0.0000 0.0000
# 5 0.0000 0.0000 0.0000 0.0000 -27.0279 0.0000
# 6 0.0000 0.0000 0.0000 0.0000 0.0000 22.8056
#
#
#
# Elastic Compliance Matrix: (Units=1/GPa)
#
#
# Indices 1 2 3 4 5 6 
#
# 1 0.011185 -0.002758 -0.005492 0.000000 0.000000 0.000000
# 2 -0.002758 0.011185 -0.005492 0.000000 0.000000 0.000000
# 3 -0.005492 -0.005492 0.027558 0.000000 0.000000 0.000000
# 4 0.000000 0.000000 0.000000 -0.036999 0.000000 0.000000
# 5 0.000000 0.000000 0.000000 0.000000 -0.036999 0.000000
# 6 0.000000 0.000000 0.000000 0.000000 0.000000 0.043849
#
#
# Mechanical properties :
#
#
# Convention : Reuss Voigt Hill
#
# Bulk Modulus (GPa) = 44.55837 55.27171 49.91504
# Shear Modulus (GPa) = 91.33336 5.27407 48.30372
#
# Velocity S-wave (km/s) = 6.70471 1.61116 4.87591
# Velocity P-wave (km/s) = 9.04813 5.53761 7.50113
#
# Compressibility (1/GPa) = 0.02244248
#
# Stress axis : x y z
#
# Youngs Moduli (GPa) = 89.40635 89.40635 36.28757
#
# Poissons Ratio (x) = 0.24654 0.19931
# Poissons Ratio (y) = 0.24654 0.19931
# Poissons Ratio (z) = 0.49106 0.49106
#
# Static dielectric constant tensor:
#      x y z
#    x 1.729350 0.000000 0.000000 
#    y 0.000000 1.729350 0.000000 
#    z 0.000000 0.000000 1.788400 
# 
# From -- ./inp_files/1097.got.cif
#   From: 2010.05.17/outbox.cif.g08.bks.cpg/sg123_1_cif.got.tgz:1097.got - 2010.05.20 11:43:04.
