data_PCOD9561574
_publ_section_title
;
Structure prediction by ZEFSAII (Michael W. Deem and Ramdas Pophale) SiO2 
 PCOD9561574
Probable space group: I -4 2 D
;
_chemical_formula_sum "Si O2"
_cell_formula_units_Z 72
_cell_length_a 10.404382
_cell_length_b 10.404382
_cell_length_c 24.542542
_cell_angle_alpha 90.000000
_cell_angle_beta 90.000000
_cell_angle_gamma 90.000000
_cell_volume 2656.758759
_symmetry_space_group_name_H-M "I -4 2 D"
_symmetry_group_IT_number 122
_symmetry_cell_setting 'tetragonal'
loop_
_space_group_symop_operation_xyz
x,y,z
y,-x,-z
-x,-y,z
-y,x,-z
x,1/2-y,1/4-z
-x,1/2+y,1/4-z
-y,1/2-x,1/4+z
y,1/2+x,1/4+z
1/2+x,1/2+y,1/2+z
1/2+y,1/2-x,1/2-z
1/2-x,1/2-y,1/2+z
1/2-y,1/2+x,1/2-z
1/2+x,-y,3/4-z
1/2-x,y,3/4-z
1/2-y,-x,3/4+z
1/2+y,x,3/4+z
loop_
_atom_site_type_symbol
_atom_site_label
_atom_site_fract_x
_atom_site_fract_y
_atom_site_fract_z
Si Si1 0.458566 0.827168 0.784028
Si Si2 0.250000 0.148696 0.875000
Si Si3 0.423179 0.250000 0.125000
Si Si4 0.083471 0.668665 0.773979
Si Si5 0.000000 0.500000 0.384433
Si Si6 0.629922 0.116413 0.054474
O O1 0.360292 0.911041 0.749840
O O2 0.471873 0.675946 0.790939
O O3 0.449515 0.888917 0.843524
O O4 0.363883 0.063813 0.904068
O O5 0.180519 0.246273 0.915932
O O6 0.350692 0.167734 0.171946
O O7 0.518400 0.351680 0.153580
O O8 0.134777 0.568328 0.727064
O O9 0.096253 0.810409 0.750984
#
# Coordination Sequence:
#
# PCOD9561574 Si02
#       6
#    16   8   8  16   8  16
#     4   8  15  30  50  73 103 143 180 220 281 344
#     4   9  16  30  50  75 106 147 188 230 290 351
#     4   9  18  34  56  77 104 149 192 236 312 381
#     4   9  18  35  55  77 110 145 184 238 299 361
#     4   8  15  28  48  70 102 140 178 220 271 334
#     4   9  17  32  54  77 109 145 185 238 296 363
#
# _framework density 27.100691000000001
#
# number of rings (size 3 to 8) (size 9 to 14) (size 15 to 20)
#    0.000    3.556    0.000    0.000    0.000    0.000 
#    0.000   28.889    0.000    2.667    0.000    0.000 
#    0.000    0.000    0.000    0.000    0.000    0.000 
#
# Total GULP energy -200706.655128 kJ/mol
# GULP energy per Si atom -5575.184865 kJ/mol
# Density = 2.703901 g / cm^3
# Si number density = 27.100691 Si / 1000 Ang^3
#
#
#
# Elastic Constant Matrix: (Units=GPa)
#
#
# Indices 1 2 3 4 5 6 
#
# 1 75.1754 60.2406 17.9023 0.0000 0.0000 0.0000
# 2 60.2406 75.1754 17.9023 0.0000 0.0000 0.0000
# 3 17.9023 17.9023 88.0091 0.0000 0.0000 0.0000
# 4 0.0000 0.0000 0.0000 33.7224 0.0000 0.0000
# 5 0.0000 0.0000 0.0000 0.0000 33.7224 0.0000
# 6 0.0000 0.0000 0.0000 0.0000 0.0000 62.4204
#
#
#
# Elastic Compliance Matrix: (Units=1/GPa)
#
#
# Indices 1 2 3 4 5 6 
#
# 1 0.037381 -0.029577 -0.001588 0.000000 0.000000 0.000000
# 2 -0.029577 0.037381 -0.001588 0.000000 0.000000 0.000000
# 3 -0.001588 -0.001588 0.012008 0.000000 0.000000 0.000000
# 4 0.000000 0.000000 0.000000 0.029654 0.000000 0.000000
# 5 0.000000 0.000000 0.000000 0.000000 0.029654 0.000000
# 6 0.000000 0.000000 0.000000 0.000000 0.000000 0.016020
#
#
# Mechanical properties :
#
#
# Convention : Reuss Voigt Hill
#
# Bulk Modulus (GPa) = 47.02117 47.82779 47.42448
# Shear Modulus (GPa) = 21.30457 35.46071 28.38264
#
# Velocity S-wave (km/s) = 2.80684 3.62122 3.23972
# Velocity P-wave (km/s) = 5.28135 5.93050 5.61531
#
# Compressibility (1/GPa) = 0.02126702
#
# Stress axis : x y z
#
# Youngs Moduli (GPa) = 26.75142 26.75142 83.27570
#
# Poissons Ratio (x) = 0.79122 0.13220
# Poissons Ratio (y) = 0.79122 0.13220
# Poissons Ratio (z) = 0.04247 0.04247
#
# Static dielectric constant tensor:
#      x y z
#    x 2.234160 0.000000 0.000000 
#    y 0.000000 2.234160 0.000000 
#    z 0.000000 0.000000 2.156520 
# 
# From -- ./inp_files/9320.got.cif
#   From: 2010.05.17/outbox.cif.g08.bks.cpg/sg122_5_cif.got.tgz:9320.got - 2010.05.20 11:37:33.
