data_PCOD9561312
_publ_section_title
;
Structure prediction by ZEFSAII (Michael W. Deem and Ramdas Pophale) SiO2 
 PCOD9561312
Probable space group: I -4 2 D
;
_chemical_formula_sum "Si O2"
_cell_formula_units_Z 24
_cell_length_a 7.824762
_cell_length_b 7.824762
_cell_length_c 17.201137
_cell_angle_alpha 90.000000
_cell_angle_beta 90.000000
_cell_angle_gamma 90.000000
_cell_volume 1053.172301
_symmetry_space_group_name_H-M "I -4 2 D"
_symmetry_group_IT_number 122
_symmetry_cell_setting 'tetragonal'
loop_
_space_group_symop_operation_xyz
x,y,z
y,-x,-z
-x,-y,z
-y,x,-z
x,1/2-y,1/4-z
-x,1/2+y,1/4-z
-y,1/2-x,1/4+z
y,1/2+x,1/4+z
1/2+x,1/2+y,1/2+z
1/2+y,1/2-x,1/2-z
1/2-x,1/2-y,1/2+z
1/2-y,1/2+x,1/2-z
1/2+x,-y,3/4-z
1/2-x,y,3/4-z
1/2-y,-x,3/4+z
1/2+y,x,3/4+z
loop_
_atom_site_type_symbol
_atom_site_label
_atom_site_fract_x
_atom_site_fract_y
_atom_site_fract_z
Si Si1 0.000000 0.000000 0.000000
Si Si2 0.000000 0.000000 0.500000
Si Si3 0.048359 0.319954 0.894128
O O1 0.836498 0.989229 0.055426
O O2 0.038585 0.846011 0.440892
O O3 0.250000 0.310921 0.875000
O O4 0.000000 0.500000 0.934080
#
# Coordination Sequence:
#
# PCOD9561312 Si02
#       3
#     4   4  16
#     4  12  28  48  86 120 144 206 276 320 376 472
#     4   8  24  48  70 104 156 206 236 320 392 448
#     4  10  26  47  79 110 161 197 263 315 398 455
#
# _framework density 22.788294
#
# number of rings (size 3 to 8) (size 9 to 14) (size 15 to 20)
#    2.000    0.000    0.000    0.000    9.333    8.000 
#    0.000    0.000    0.000    0.000    0.000    0.000 
#    0.000    0.000    0.000    0.000    0.000    0.000 
#
# Total GULP energy -66965.231751 kJ/mol
# GULP energy per Si atom -5580.435979 kJ/mol
# Density = 2.273643 g / cm^3
# Si number density = 22.788294 Si / 1000 Ang^3
#
#
#
# Elastic Constant Matrix: (Units=GPa)
#
#
# Indices 1 2 3 4 5 6 
#
# 1 120.4904 11.1273 75.0180 0.0000 0.0000 0.0000
# 2 11.1273 120.4904 75.0180 0.0000 0.0000 0.0000
# 3 75.0180 75.0180 168.6039 0.0000 0.0000 0.0000
# 4 0.0000 0.0000 0.0000 179.5225 0.0000 0.0000
# 5 0.0000 0.0000 0.0000 0.0000 179.5225 0.0000
# 6 0.0000 0.0000 0.0000 0.0000 0.0000 23.3842
#
#
#
# Elastic Compliance Matrix: (Units=1/GPa)
#
#
# Indices 1 2 3 4 5 6 
#
# 1 0.012281 0.003137 -0.006860 0.000000 0.000000 0.000000
# 2 0.003137 0.012281 -0.006860 0.000000 0.000000 0.000000
# 3 -0.006860 -0.006860 0.012035 0.000000 0.000000 0.000000
# 4 0.000000 0.000000 0.000000 0.005570 0.000000 0.000000
# 5 0.000000 0.000000 0.000000 0.000000 0.005570 0.000000
# 6 0.000000 0.000000 0.000000 0.000000 0.000000 0.042764
#
#
# Mechanical properties :
#
#
# Convention : Reuss Voigt Hill
#
# Bulk Modulus (GPa) = 64.80372 81.32346 73.06359
# Shear Modulus (GPa) = 42.80430 93.04728 67.92579
#
# Velocity S-wave (km/s) = 4.33869 6.39686 5.46553
# Velocity P-wave (km/s) = 7.32107 9.50388 8.48297
#
# Compressibility (1/GPa) = 0.01543121
#
# Stress axis : x y z
#
# Youngs Moduli (GPa) = 81.42863 81.42862 83.08804
#
# Poissons Ratio (x) = -0.25543 0.56997
# Poissons Ratio (y) = -0.25543 0.56997
# Poissons Ratio (z) = 0.55859 0.55859
#
# Static dielectric constant tensor:
#      x y z
#    x 1.887000 0.000000 0.000000 
#    y 0.000000 1.887000 0.000000 
#    z 0.000000 0.000000 1.856520 
# 
# From -- ./inp_files/4661.got.cif
#   From: 2010.05.17/outbox.cif.g08.bks.cpg/sg122_3_cif.got.tgz:4661.got - 2010.05.20 11:37:33.
