data_PCOD9561677
_publ_section_title
;
Structure prediction by ZEFSAII (Michael W. Deem and Ramdas Pophale) SiO2 
 PCOD9561677
Probable space group: P 4/M M M
;
_chemical_formula_sum "Si O2"
_cell_formula_units_Z 104
_cell_length_a 27.599004
_cell_length_b 27.599004
_cell_length_c 7.717955
_cell_angle_alpha 90.000000
_cell_angle_beta 90.000000
_cell_angle_gamma 90.000000
_cell_volume 5878.805081
_symmetry_space_group_name_H-M "P 4/M M M"
_symmetry_group_IT_number 123
_symmetry_cell_setting 'tetragonal'
loop_
_space_group_symop_operation_xyz
x,y,z
-y,x,z
-x,-y,z
y,-x,z
x,-y,-z
-x,y,-z
y,x,-z
-y,-x,-z
-x,-y,-z
y,-x,-z
x,y,-z
-y,x,-z
-x,y,z
x,-y,z
-y,-x,z
y,x,z
loop_
_atom_site_type_symbol
_atom_site_label
_atom_site_fract_x
_atom_site_fract_y
_atom_site_fract_z
Si Si1 0.552890 0.241075 0.702347
Si Si2 0.680908 0.156155 0.295723
Si Si3 0.866735 0.055169 0.788315
Si Si4 0.055194 0.500000 0.211787
Si Si5 0.132678 0.577296 0.201293
Si Si6 0.264538 0.657524 0.287613
Si Si7 0.210905 0.866640 0.791163
O O1 0.550951 0.254379 0.500000
O O2 0.500000 0.251601 0.779922
O O3 0.562102 0.183171 0.710961
O O4 0.601780 0.265352 0.773988
O O5 0.671973 0.157207 0.500000
O O6 0.635112 0.128185 0.217300
O O7 0.678696 0.212131 0.233828
O O8 0.733654 0.134788 0.263285
O O9 0.913978 0.086023 0.736398
O O10 0.820078 0.086689 0.734123
O O11 0.866551 0.000000 0.727851
O O12 0.866528 0.054403 0.000000
O O13 0.086911 0.546684 0.265396
O O14 0.000000 0.500000 0.274210
O O15 0.052951 0.500000 0.000000
O O16 0.139153 0.564879 0.000000
O O17 0.265076 0.657196 0.500000
O O18 0.308030 0.691970 0.230131
O O19 0.180814 0.819187 0.731313
O O20 0.209877 0.866255 0.000000
#
# Coordination Sequence:
#
# PCOD9561677 Si02
#       7
#    16  16  16   8  16  16  16
#     4   9  16  26  42  63  88 115 143 179 221 265
#     4  10  19  30  45  65  88 117 149 184 223 267
#     4   8  14  25  42  65  91 117 146 181 222 268
#     4   9  18  32  49  67  85 107 141 185 228 271
#     4  10  18  30  48  67  85 109 144 184 224 267
#     4   8  14  24  38  58  83 110 140 174 211 252
#     4   9  17  29  45  66  92 120 150 184 221 265
#
# _framework density 17.690669
#
# number of rings (size 3 to 8) (size 9 to 14) (size 15 to 20)
#    0.000    3.000    0.769    3.231    0.000    1.077 
#    0.000    1.538    0.000   12.923    0.000    0.000 
#    0.000    0.308    0.000    7.692    0.000    3.385 
#
# Total GULP energy -579559.999655 kJ/mol
# GULP energy per Si atom -5572.692304 kJ/mol
# Density = 1.765040 g / cm^3
# Si number density = 17.690669 Si / 1000 Ang^3
#
#
#
# Elastic Constant Matrix: (Units=GPa)
#
#
# Indices 1 2 3 4 5 6 
#
# 1 148.8313 82.0446 1.3194 0.0000 0.0000 0.0000
# 2 82.0446 148.8313 1.3194 0.0000 0.0000 0.0000
# 3 1.3194 1.3194 28.8672 0.0000 0.0000 0.0000
# 4 0.0000 0.0000 0.0000 5.9679 0.0000 0.0000
# 5 0.0000 0.0000 0.0000 0.0000 5.9679 0.0000
# 6 0.0000 0.0000 0.0000 0.0000 0.0000 20.9654
#
#
#
# Elastic Compliance Matrix: (Units=1/GPa)
#
#
# Indices 1 2 3 4 5 6 
#
# 1 0.009653 -0.005320 -0.000198 0.000000 0.000000 0.000000
# 2 -0.005320 0.009653 -0.000198 0.000000 0.000000 0.000000
# 3 -0.000198 -0.000198 0.034660 0.000000 0.000000 0.000000
# 4 0.000000 0.000000 0.000000 0.167562 0.000000 0.000000
# 5 0.000000 0.000000 0.000000 0.000000 0.167562 0.000000
# 6 0.000000 0.000000 0.000000 0.000000 0.000000 0.047698
#
#
# Mechanical properties :
#
#
# Convention : Reuss Voigt Hill
#
# Bulk Modulus (GPa) = 23.51036 55.09960 39.30498
# Shear Modulus (GPa) = 10.81322 22.70336 16.75829
#
# Velocity S-wave (km/s) = 2.47501 3.58628 3.08116
# Velocity P-wave (km/s) = 4.63531 6.95430 5.90967
#
# Compressibility (1/GPa) = 0.04253445
#
# Stress axis : x y z
#
# Youngs Moduli (GPa) = 103.59131 103.59131 28.85211
#
# Poissons Ratio (x) = 0.55108 0.00571
# Poissons Ratio (y) = 0.55108 0.00571
# Poissons Ratio (z) = 0.02052 0.02052
#
# Static dielectric constant tensor:
#      x y z
#    x 1.604510 0.000000 0.000000 
#    y 0.000000 1.604510 0.000000 
#    z 0.000000 0.000000 1.684280 
# 
# From -- ./inp_files/1956.got.cif
#   From: 2010.05.17/outbox.cif.g08.bks.cpg/sg123_1_cif.got.tgz:1956.got - 2010.05.20 11:43:04.
