data_PCOD9561874
_publ_section_title
;
Structure prediction by ZEFSAII (Michael W. Deem and Ramdas Pophale) SiO2 
 PCOD9561874
Probable space group: P 4/M M M
;
_chemical_formula_sum "Si O2"
_cell_formula_units_Z 56
_cell_length_a 20.288248
_cell_length_b 20.288248
_cell_length_c 7.958773
_cell_angle_alpha 90.000000
_cell_angle_beta 90.000000
_cell_angle_gamma 90.000000
_cell_volume 3275.934486
_symmetry_space_group_name_H-M "P 4/M M M"
_symmetry_group_IT_number 123
_symmetry_cell_setting 'tetragonal'
loop_
_space_group_symop_operation_xyz
x,y,z
-y,x,z
-x,-y,z
y,-x,z
x,-y,-z
-x,y,-z
y,x,-z
-y,-x,-z
-x,-y,-z
y,-x,-z
x,y,-z
-y,x,-z
-x,y,z
x,-y,z
-y,-x,z
y,x,z
loop_
_atom_site_type_symbol
_atom_site_label
_atom_site_fract_x
_atom_site_fract_y
_atom_site_fract_z
Si Si1 0.075223 0.180862 0.796545
Si Si2 0.818911 0.711576 0.699996
Si Si3 0.318344 0.427530 0.500000
Si Si4 0.781612 0.573402 0.809872
O O1 0.115944 0.115944 0.743271
O O2 0.118213 0.242961 0.737462
O O3 0.000000 0.181692 0.737424
O O4 0.074730 0.181711 0.000000
O O5 0.812677 0.702836 0.500000
O O6 0.754693 0.754693 0.756833
O O7 0.823404 0.639778 0.783019
O O8 0.349381 0.500000 0.500000
O O9 0.370559 0.370559 0.500000
O O10 0.273212 0.422487 0.665473
O O11 0.813201 0.500000 0.790378
O O12 0.754988 0.575692 0.000000
#
# Coordination Sequence:
#
# PCOD9561874 Si02
#       4
#    16  16   8  16
#     4   9  18  32  50  74 104 138 175 213 255 304
#     4  10  19  31  50  75 101 131 170 216 263 310
#     4  10  20  33  48  70  99 131 170 212 256 310
#     4  10  20  33  51  75 102 133 169 214 266 313
#
# _framework density 17.094360000000002
#
# number of rings (size 3 to 8) (size 9 to 14) (size 15 to 20)
#    0.000    2.286    1.429    1.714    0.000    4.429 
#    0.000    1.429    0.000    0.857    0.000   14.000 
#    0.000    0.000    0.000    0.000    0.000    0.000 
#
# Total GULP energy -312001.943918 kJ/mol
# GULP energy per Si atom -5571.463284 kJ/mol
# Density = 1.705545 g / cm^3
# Si number density = 17.094360 Si / 1000 Ang^3
#
#
#
# Elastic Constant Matrix: (Units=GPa)
#
#
# Indices 1 2 3 4 5 6 
#
# 1 129.7379 62.9264 28.9655 0.0000 0.0000 0.0000
# 2 62.9264 129.7379 28.9655 0.0000 0.0000 0.0000
# 3 28.9655 28.9655 75.3414 0.0000 0.0000 0.0000
# 4 0.0000 0.0000 0.0000 15.6100 0.0000 0.0000
# 5 0.0000 0.0000 0.0000 0.0000 15.6100 0.0000
# 6 0.0000 0.0000 0.0000 0.0000 0.0000 14.3683
#
#
#
# Elastic Compliance Matrix: (Units=1/GPa)
#
#
# Indices 1 2 3 4 5 6 
#
# 1 0.010418 -0.004549 -0.002256 0.000000 0.000000 0.000000
# 2 -0.004549 0.010418 -0.002256 0.000000 0.000000 0.000000
# 3 -0.002256 -0.002256 0.015008 0.000000 0.000000 0.000000
# 4 0.000000 0.000000 0.000000 0.064061 0.000000 0.000000
# 5 0.000000 0.000000 0.000000 0.000000 0.064061 0.000000
# 6 0.000000 0.000000 0.000000 0.000000 0.000000 0.069598
#
#
# Mechanical properties :
#
#
# Convention : Reuss Voigt Hill
#
# Bulk Modulus (GPa) = 56.43271 64.05911 60.24591
# Shear Modulus (GPa) = 19.41030 23.38166 21.39598
#
# Velocity S-wave (km/s) = 3.37334 3.70239 3.54169
# Velocity P-wave (km/s) = 6.94671 7.47209 7.21418
#
# Compressibility (1/GPa) = 0.01772022
#
# Stress axis : x y z
#
# Youngs Moduli (GPa) = 95.98641 95.98641 66.63200
#
# Poissons Ratio (x) = 0.43667 0.15034
# Poissons Ratio (y) = 0.43667 0.15034
# Poissons Ratio (z) = 0.21657 0.21657
#
# Static dielectric constant tensor:
#      x y z
#    x 1.582010 0.000000 0.000000 
#    y 0.000000 1.582010 0.000000 
#    z 0.000000 0.000000 1.598430 
# 
# From -- ./inp_files/608.got.cif
#   From: 2010.05.17/outbox.cif.g08.bks.cpg/sg123_1_cif.got.tgz:608.got - 2010.05.20 11:43:04.
