data_PCOD9561986
_publ_section_title
;
Structure prediction by ZEFSAII (Michael W. Deem and Ramdas Pophale) SiO2 
 PCOD9561986
Probable space group: P 4/M M M
;
_chemical_formula_sum "Si O2"
_cell_formula_units_Z 72
_cell_length_a 13.399106
_cell_length_b 13.399106
_cell_length_c 23.750688
_cell_angle_alpha 90.000000
_cell_angle_beta 90.000000
_cell_angle_gamma 90.000000
_cell_volume 4264.104509
_symmetry_space_group_name_H-M "P 4/M M M"
_symmetry_group_IT_number 123
_symmetry_cell_setting 'tetragonal'
loop_
_space_group_symop_operation_xyz
x,y,z
-y,x,z
-x,-y,z
y,-x,z
x,-y,-z
-x,y,-z
y,x,-z
-y,-x,-z
-x,-y,-z
y,-x,-z
x,y,-z
-y,x,-z
-x,y,z
x,-y,z
-y,-x,z
y,x,z
loop_
_atom_site_type_symbol
_atom_site_label
_atom_site_fract_x
_atom_site_fract_y
_atom_site_fract_z
Si Si1 0.216214 0.381726 0.500000
Si Si2 0.283600 0.118146 0.391183
Si Si3 0.382424 0.783437 0.717127
Si Si4 0.878883 0.615490 0.062210
Si Si5 0.720831 0.880881 0.822350
O O1 0.230979 0.500000 0.500000
O O2 0.319874 0.319874 0.500000
O O3 0.155492 0.346183 0.554928
O O4 0.180113 0.180113 0.391753
O O5 0.342556 0.151500 0.335238
O O6 0.268678 0.000000 0.392599
O O7 0.500000 0.767242 0.713068
O O8 0.319046 0.680955 0.716337
O O9 0.353447 0.840965 0.774354
O O10 0.847664 0.500000 0.068940
O O11 0.850468 0.679283 0.116277
O O12 0.000000 0.615436 0.061619
O O13 0.846111 0.650467 0.000000
O O14 0.825595 0.825595 0.812667
O O15 0.728934 0.000000 0.819604
#
# Coordination Sequence:
#
# PCOD9561986 Si02
#       5
#     8  16  16  16  16
#     4  10  21  36  54  78 106 136 173 214 256 304
#     4  10  21  36  54  78 106 136 172 210 248 294
#     4  10  21  36  54  77 102 128 162 203 248 300
#     4   8  14  26  45  67  89 116 154 200 247 291
#     4  10  20  32  47  69  97 130 168 207 246 291
#
# _framework density 16.885138999999999
#
# number of rings (size 3 to 8) (size 9 to 14) (size 15 to 20)
#    0.000    2.444    0.000    3.000    0.000    5.667 
#    0.000    0.000    0.000   10.000    0.000    3.111 
#    0.000    0.000    0.000   20.667    0.000    1.111 
#
# Total GULP energy -401520.485575 kJ/mol
# GULP energy per Si atom -5576.673411 kJ/mol
# Density = 1.684671 g / cm^3
# Si number density = 16.885139 Si / 1000 Ang^3
#
#
#
# Elastic Constant Matrix: (Units=GPa)
#
#
# Indices 1 2 3 4 5 6 
#
# 1 102.3871 90.8295 53.7132 0.0000 0.0000 0.0000
# 2 90.8295 102.3871 53.7132 0.0000 0.0000 0.0000
# 3 53.7132 53.7132 132.9389 0.0000 0.0000 0.0000
# 4 0.0000 0.0000 0.0000 18.0210 0.0000 0.0000
# 5 0.0000 0.0000 0.0000 0.0000 18.0210 0.0000
# 6 0.0000 0.0000 0.0000 0.0000 0.0000 4.9675
#
#
#
# Elastic Compliance Matrix: (Units=1/GPa)
#
#
# Indices 1 2 3 4 5 6 
#
# 1 0.046599 -0.039924 -0.002697 0.000000 0.000000 0.000000
# 2 -0.039924 0.046599 -0.002697 0.000000 0.000000 0.000000
# 3 -0.002697 -0.002697 0.009702 0.000000 0.000000 0.000000
# 4 0.000000 0.000000 0.000000 0.055491 0.000000 0.000000
# 5 0.000000 0.000000 0.000000 0.000000 0.055491 0.000000
# 6 0.000000 0.000000 0.000000 0.000000 0.000000 0.201310
#
#
# Mechanical properties :
#
#
# Convention : Reuss Voigt Hill
#
# Bulk Modulus (GPa) = 81.54134 81.58054 81.56094
# Shear Modulus (GPa) = 9.80555 17.49903 13.65229
#
# Velocity S-wave (km/s) = 2.41243 3.22274 2.84657
# Velocity P-wave (km/s) = 7.49375 7.89101 7.69494
#
# Compressibility (1/GPa) = 0.01226372
#
# Stress axis : x y z
#
# Youngs Moduli (GPa) = 21.45969 21.45969 103.07487
#
# Poissons Ratio (x) = 0.85676 0.27799
# Poissons Ratio (y) = 0.85676 0.27799
# Poissons Ratio (z) = 0.05788 0.05788
#
# Static dielectric constant tensor:
#      x y z
#    x 1.544180 0.000000 0.000000 
#    y 0.000000 1.544180 0.000000 
#    z 0.000000 0.000000 1.586050 
# 
# From -- ./inp_files/7855.got.cif
#   From: 2010.05.17/outbox.cif.g08.bks.cpg/sg123_4_cif.got.tgz:7855.got - 2010.05.20 11:43:04.
