data_PCOD9561302
_publ_section_title
;
Structure prediction by ZEFSAII (Michael W. Deem and Ramdas Pophale) SiO2 
 PCOD9561302
Probable space group: I -4 2 D
;
_chemical_formula_sum "Si O2"
_cell_formula_units_Z 56
_cell_length_a 15.434821
_cell_length_b 15.434821
_cell_length_c 10.764353
_cell_angle_alpha 90.000000
_cell_angle_beta 90.000000
_cell_angle_gamma 90.000000
_cell_volume 2564.431636
_symmetry_space_group_name_H-M "I -4 2 D"
_symmetry_group_IT_number 122
_symmetry_cell_setting 'tetragonal'
loop_
_space_group_symop_operation_xyz
x,y,z
y,-x,-z
-x,-y,z
-y,x,-z
x,1/2-y,1/4-z
-x,1/2+y,1/4-z
-y,1/2-x,1/4+z
y,1/2+x,1/4+z
1/2+x,1/2+y,1/2+z
1/2+y,1/2-x,1/2-z
1/2-x,1/2-y,1/2+z
1/2-y,1/2+x,1/2-z
1/2+x,-y,3/4-z
1/2-x,y,3/4-z
1/2-y,-x,3/4+z
1/2+y,x,3/4+z
loop_
_atom_site_type_symbol
_atom_site_label
_atom_site_fract_x
_atom_site_fract_y
_atom_site_fract_z
Si Si1 0.428454 0.607956 0.056254
Si Si2 0.637902 0.168544 0.700107
Si Si3 0.250000 0.197177 0.375000
Si Si4 0.397531 0.011060 0.588613
O O1 0.360919 0.685163 0.044668
O O2 0.460659 0.613141 0.197435
O O3 0.513679 0.612621 0.970315
O O4 0.596812 0.250000 0.625000
O O5 0.737125 0.198253 0.714976
O O6 0.641291 0.083103 0.615170
O O7 0.581881 0.143298 0.819220
O O8 0.500000 0.000000 0.612199
#
# Coordination Sequence:
#
# PCOD9561302 Si02
#       4
#    16  16   8  16
#     4  11  26  50  76 110 154 211 255 315 393 475
#     4  10  25  46  74 118 147 200 264 327 392 468
#     4  10  28  48  76 116 156 200 254 338 380 476
#     4  12  22  48  79 105 153 208 258 323 394 462
#
# _framework density 21.837197
#
# number of rings (size 3 to 8) (size 9 to 14) (size 15 to 20)
#    0.857    0.286    5.714    0.000    4.000    5.714 
#    5.143    0.000    0.000    0.000    0.000    0.000 
#    0.000    0.000    0.000    0.000    0.000    0.000 
#
# Total GULP energy -156499.060136 kJ/mol
# GULP energy per Si atom -5589.252148 kJ/mol
# Density = 2.178749 g / cm^3
# Si number density = 21.837197 Si / 1000 Ang^3
#
#
#
# Elastic Constant Matrix: (Units=GPa)
#
#
# Indices 1 2 3 4 5 6 
#
# 1 141.2558 107.1991 50.7042 0.0000 0.0000 0.0000
# 2 107.1991 141.2558 50.7042 0.0000 0.0000 0.0000
# 3 50.7042 50.7042 140.4041 0.0000 0.0000 0.0000
# 4 0.0000 0.0000 0.0000 17.0989 0.0000 0.0000
# 5 0.0000 0.0000 0.0000 0.0000 17.0989 0.0000
# 6 0.0000 0.0000 0.0000 0.0000 0.0000 56.0752
#
#
#
# Elastic Compliance Matrix: (Units=1/GPa)
#
#
# Indices 1 2 3 4 5 6 
#
# 1 0.017042 -0.012321 -0.001705 0.000000 0.000000 0.000000
# 2 -0.012321 0.017042 -0.001705 0.000000 0.000000 0.000000
# 3 -0.001705 -0.001705 0.008354 0.000000 0.000000 0.000000
# 4 0.000000 0.000000 0.000000 0.058483 0.000000 0.000000
# 5 0.000000 0.000000 0.000000 0.000000 0.058483 0.000000
# 6 0.000000 0.000000 0.000000 0.000000 0.000000 0.017833
#
#
# Mechanical properties :
#
#
# Convention : Reuss Voigt Hill
#
# Bulk Modulus (GPa) = 91.10917 93.34784 92.22851
# Shear Modulus (GPa) = 23.54529 32.34182 27.94356
#
# Velocity S-wave (km/s) = 3.28719 3.85261 3.58107
# Velocity P-wave (km/s) = 7.49800 7.91392 7.70877
#
# Compressibility (1/GPa) = 0.01097584
#
# Stress axis : x y z
#
# Youngs Moduli (GPa) = 58.67935 58.67935 119.70894
#
# Poissons Ratio (x) = 0.72299 0.20408
# Poissons Ratio (y) = 0.72299 0.20408
# Poissons Ratio (z) = 0.10004 0.10004
#
# Static dielectric constant tensor:
#      x y z
#    x 1.810670 0.000000 0.000000 
#    y 0.000000 1.810670 0.000000 
#    z 0.000000 0.000000 1.788300 
# 
# From -- ./inp_files/3939.got.cif
#   From: 2010.05.17/outbox.cif.g08.bks.cpg/sg122_2_cif.got.tgz:3939.got - 2010.05.20 11:37:33.
