data_PCOD9561229
_publ_section_title
;
Structure prediction by ZEFSAII (Michael W. Deem and Ramdas Pophale) SiO2 
 PCOD9561229
Probable space group: I -4 2 D
;
_chemical_formula_sum "Si O2"
_cell_formula_units_Z 72
_cell_length_a 12.651338
_cell_length_b 12.651338
_cell_length_c 20.575262
_cell_angle_alpha 90.000000
_cell_angle_beta 90.000000
_cell_angle_gamma 90.000000
_cell_volume 3293.201402
_symmetry_space_group_name_H-M "I -4 2 D"
_symmetry_group_IT_number 122
_symmetry_cell_setting 'tetragonal'
loop_
_space_group_symop_operation_xyz
x,y,z
y,-x,-z
-x,-y,z
-y,x,-z
x,1/2-y,1/4-z
-x,1/2+y,1/4-z
-y,1/2-x,1/4+z
y,1/2+x,1/4+z
1/2+x,1/2+y,1/2+z
1/2+y,1/2-x,1/2-z
1/2-x,1/2-y,1/2+z
1/2-y,1/2+x,1/2-z
1/2+x,-y,3/4-z
1/2-x,y,3/4-z
1/2-y,-x,3/4+z
1/2+y,x,3/4+z
loop_
_atom_site_type_symbol
_atom_site_label
_atom_site_fract_x
_atom_site_fract_y
_atom_site_fract_z
Si Si1 0.873616 0.687687 0.299840
Si Si2 0.000000 0.000000 0.713068
Si Si3 0.467069 0.750000 0.625000
Si Si4 0.500000 0.000000 0.750000
Si Si5 0.130722 0.862212 0.805124
Si Si6 0.502555 0.325811 0.891994
Si Si7 0.500000 0.000000 0.250000
O O1 0.777782 0.610002 0.316148
O O2 0.970479 0.607143 0.287779
O O3 0.853790 0.764175 0.239191
O O4 0.905443 0.758612 0.362114
O O5 0.960701 0.095387 0.757788
O O6 0.904109 0.966047 0.666529
O O7 0.544459 0.655136 0.643956
O O8 0.094052 0.755245 0.838298
O O9 0.476420 0.400298 0.953287
#
# Coordination Sequence:
#
# PCOD9561229 Si02
#       7
#    16   8   8   4  16  16   4
#     4  11  24  39  67  95 137 172 222 282 347 406
#     4   9  22  46  66  96 145 171 223 294 342 408
#     4  12  24  40  66 102 132 170 226 282 344 406
#     4  12  20  46  60  94 140 170 208 292 332 426
#     4  11  23  42  68 100 129 180 226 275 347 417
#     4  10  23  45  67  96 134 182 227 279 349 402
#     4  10  24  48  68  98 140 180 234 292 326 412
#
# _framework density 21.863223000000001
#
# number of rings (size 3 to 8) (size 9 to 14) (size 15 to 20)
#    0.000    1.333    2.222    2.667    3.111    0.000 
#    4.000    0.000    0.000    0.000    0.000    0.000 
#    0.000    0.000    0.000    0.000    0.000    0.000 
#
# Total GULP energy -201251.250476 kJ/mol
# GULP energy per Si atom -5590.312513 kJ/mol
# Density = 2.181346 g / cm^3
# Si number density = 21.863223 Si / 1000 Ang^3
#
#
#
# Elastic Constant Matrix: (Units=GPa)
#
#
# Indices 1 2 3 4 5 6 
#
# 1 99.6197 40.4559 37.8820 0.0000 0.0000 0.0000
# 2 40.4559 99.6197 37.8820 0.0000 0.0000 0.0000
# 3 37.8820 37.8820 68.9398 0.0000 0.0000 0.0000
# 4 0.0000 0.0000 0.0000 27.0469 0.0000 0.0000
# 5 0.0000 0.0000 0.0000 0.0000 27.0469 0.0000
# 6 0.0000 0.0000 0.0000 0.0000 0.0000 38.9448
#
#
#
# Elastic Compliance Matrix: (Units=1/GPa)
#
#
# Indices 1 2 3 4 5 6 
#
# 1 0.013530 -0.003372 -0.005582 0.000000 0.000000 0.000000
# 2 -0.003372 0.013530 -0.005582 0.000000 0.000000 0.000000
# 3 -0.005582 -0.005582 0.020640 0.000000 0.000000 0.000000
# 4 0.000000 0.000000 0.000000 0.036973 0.000000 0.000000
# 5 0.000000 0.000000 0.000000 0.000000 0.036973 0.000000
# 6 0.000000 0.000000 0.000000 0.000000 0.000000 0.025677
#
#
# Mechanical properties :
#
#
# Convention : Reuss Voigt Hill
#
# Bulk Modulus (GPa) = 53.68062 55.62433 54.65247
# Shear Modulus (GPa) = 27.38165 28.73833 28.05999
#
# Velocity S-wave (km/s) = 3.54278 3.62948 3.58639
# Velocity P-wave (km/s) = 6.42972 6.56212 6.49625
#
# Compressibility (1/GPa) = 0.01862870
#
# Stress axis : x y z
#
# Youngs Moduli (GPa) = 73.90899 73.90899 48.45017
#
# Poissons Ratio (x) = 0.24923 0.27044
# Poissons Ratio (y) = 0.24923 0.27044
# Poissons Ratio (z) = 0.41255 0.41255
#
# Static dielectric constant tensor:
#      x y z
#    x 1.795310 0.000000 0.000000 
#    y 0.000000 1.795310 0.000000 
#    z 0.000000 0.000000 1.825720 
# 
# From -- ./inp_files/8689.got.cif
#   From: 2010.05.17/outbox.cif.g08.bks.cpg/sg122_5_cif.got.tgz:8689.got - 2010.05.20 11:37:33.
