data_PCOD9561037
_publ_section_title
;
Structure prediction by ZEFSAII (Michael W. Deem and Ramdas Pophale) SiO2 
 PCOD9561037
Probable space group: I -4 2 D
;
_chemical_formula_sum "Si O2"
_cell_formula_units_Z 56
_cell_length_a 19.886142
_cell_length_b 19.886142
_cell_length_c 7.583433
_cell_angle_alpha 90.000000
_cell_angle_beta 90.000000
_cell_angle_gamma 90.000000
_cell_volume 2998.934128
_symmetry_space_group_name_H-M "I -4 2 D"
_symmetry_group_IT_number 122
_symmetry_cell_setting 'tetragonal'
loop_
_space_group_symop_operation_xyz
x,y,z
y,-x,-z
-x,-y,z
-y,x,-z
x,1/2-y,1/4-z
-x,1/2+y,1/4-z
-y,1/2-x,1/4+z
y,1/2+x,1/4+z
1/2+x,1/2+y,1/2+z
1/2+y,1/2-x,1/2-z
1/2-x,1/2-y,1/2+z
1/2-y,1/2+x,1/2-z
1/2+x,-y,3/4-z
1/2-x,y,3/4-z
1/2-y,-x,3/4+z
1/2+y,x,3/4+z
loop_
_atom_site_type_symbol
_atom_site_label
_atom_site_fract_x
_atom_site_fract_y
_atom_site_fract_z
Si Si1 0.179104 0.867594 0.296351
Si Si2 0.403149 0.750000 0.625000
Si Si3 0.065521 0.919123 0.552435
Si Si4 0.697670 0.981959 0.536457
O O1 0.250000 0.844501 0.375000
O O2 0.143647 0.811647 0.181403
O O3 0.128207 0.886205 0.454458
O O4 0.191192 0.937760 0.195018
O O5 0.052180 0.726288 0.289883
O O6 0.046606 0.874604 0.721776
O O7 0.998341 0.918076 0.428597
O O8 0.750000 0.970358 0.375000
#
# Coordination Sequence:
#
# PCOD9561037 Si02
#       4
#    16   8  16  16
#     4  10  23  41  60  94 128 163 207 261 326 378
#     4  12  24  40  64  96 124 172 218 254 324 388
#     4   9  18  37  67  90 119 169 214 262 318 370
#     4  10  21  42  64  89 130 165 211 266 315 379
#
# _framework density 18.673300999999999
#
# number of rings (size 3 to 8) (size 9 to 14) (size 15 to 20)
#    0.000    2.000    2.857    0.000    0.000    4.571 
#    2.571    0.000    0.000    0.000    0.000    0.000 
#    0.000    0.000    0.000    0.000    0.000    0.000 
#
# Total GULP energy -156274.470377 kJ/mol
# GULP energy per Si atom -5581.231085 kJ/mol
# Density = 1.863080 g / cm^3
# Si number density = 18.673301 Si / 1000 Ang^3
#
#
#
# Elastic Constant Matrix: (Units=GPa)
#
#
# Indices 1 2 3 4 5 6 
#
# 1 101.6010 45.6780 70.5560 0.0000 0.0000 0.0000
# 2 45.6780 101.6010 70.5560 0.0000 0.0000 0.0000
# 3 70.5560 70.5560 106.5337 0.0000 0.0000 0.0000
# 4 0.0000 0.0000 0.0000 15.2543 0.0000 0.0000
# 5 0.0000 0.0000 0.0000 0.0000 15.2543 0.0000
# 6 0.0000 0.0000 0.0000 0.0000 0.0000 24.2894
#
#
#
# Elastic Compliance Matrix: (Units=1/GPa)
#
#
# Indices 1 2 3 4 5 6 
#
# 1 0.018231 0.000349 -0.012305 0.000000 0.000000 0.000000
# 2 0.000349 0.018231 -0.012305 0.000000 0.000000 0.000000
# 3 -0.012305 -0.012305 0.025686 0.000000 0.000000 0.000000
# 4 0.000000 0.000000 0.000000 0.065555 0.000000 0.000000
# 5 0.000000 0.000000 0.000000 0.000000 0.065555 0.000000
# 6 0.000000 0.000000 0.000000 0.000000 0.000000 0.041170
#
#
# Mechanical properties :
#
#
# Convention : Reuss Voigt Hill
#
# Bulk Modulus (GPa) = 73.39611 75.92398 74.66004
# Shear Modulus (GPa) = 17.39179 19.15598 18.27388
#
# Velocity S-wave (km/s) = 3.05515 3.20636 3.13167
# Velocity P-wave (km/s) = 7.19972 7.37937 7.29010
#
# Compressibility (1/GPa) = 0.01362470
#
# Stress axis : x y z
#
# Youngs Moduli (GPa) = 54.85253 54.85253 38.93211
#
# Poissons Ratio (x) = -0.01914 0.47906
# Poissons Ratio (y) = -0.01914 0.47906
# Poissons Ratio (z) = 0.67497 0.67497
#
# Static dielectric constant tensor:
#      x y z
#    x 1.662250 0.000000 0.000000 
#    y 0.000000 1.662250 0.000000 
#    z 0.000000 0.000000 1.616530 
# 
# From -- ./inp_files/4006.got.cif
#   From: 2010.05.17/outbox.cif.g08.bks.cpg/sg122_3_cif.got.tgz:4006.got - 2010.05.20 11:37:33.
