data_PCOD9561723
_publ_section_title
;
Structure prediction by ZEFSAII (Michael W. Deem and Ramdas Pophale) SiO2 
 PCOD9561723
Probable space group: P 4/M M M
;
_chemical_formula_sum "Si O2"
_cell_formula_units_Z 96
_cell_length_a 14.243694
_cell_length_b 14.243694
_cell_length_c 31.640279
_cell_angle_alpha 90.000000
_cell_angle_beta 90.000000
_cell_angle_gamma 90.000000
_cell_volume 6419.268990
_symmetry_space_group_name_H-M "P 4/M M M"
_symmetry_group_IT_number 123
_symmetry_cell_setting 'tetragonal'
loop_
_space_group_symop_operation_xyz
x,y,z
-y,x,z
-x,-y,z
y,-x,z
x,-y,-z
-x,y,-z
y,x,-z
-y,-x,-z
-x,-y,-z
y,-x,-z
x,y,-z
-y,x,-z
-x,y,z
x,-y,z
-y,-x,z
y,x,z
loop_
_atom_site_type_symbol
_atom_site_label
_atom_site_fract_x
_atom_site_fract_y
_atom_site_fract_z
Si Si1 0.391003 0.888387 0.871290
Si Si2 0.885998 0.392424 0.452239
Si Si3 0.733556 0.886877 0.372712
Si Si4 0.886326 0.392608 0.708307
Si Si5 0.389531 0.765648 0.952642
Si Si6 0.112751 0.267281 0.210721
O O1 0.500000 0.866413 0.860423
O O2 0.366523 0.835417 0.914474
O O3 0.323026 0.865302 0.832475
O O4 0.385800 0.000000 0.878111
O O5 0.855710 0.368015 0.500000
O O6 0.856566 0.500000 0.443051
O O7 0.859311 0.320218 0.415830
O O8 0.000000 0.393442 0.452399
O O9 0.829879 0.829879 0.369152
O O10 0.665732 0.861575 0.333532
O O11 0.747487 0.000000 0.372367
O O12 0.851353 0.500000 0.708178
O O13 0.860329 0.334196 0.749966
O O14 0.000000 0.397868 0.708612
O O15 0.500000 0.743678 0.949776
O O16 0.326563 0.673438 0.948620
O O17 0.372927 0.805313 0.000000
O O18 0.172144 0.172144 0.212804
O O19 0.000000 0.251384 0.212501
#
# Coordination Sequence:
#
# PCOD9561723 Si02
#       6
#    16  16  16  16  16  16
#     4   9  17  29  45  64  85 110 142 181 221 253
#     4   8  14  26  44  63  82 107 142 186 231 262
#     4  10  19  29  42  62  90 122 151 177 207 249
#     4   9  17  30  47  64  82 106 139 180 221 252
#     4   9  17  28  42  61  85 112 141 174 213 259
#     4  10  19  30  45  65  90 118 144 170 203 247
#
# _framework density 14.954974
#
# number of rings (size 3 to 8) (size 9 to 14) (size 15 to 20)
#    0.000    2.833    0.000    2.500    0.000    5.167 
#    0.000    2.500    0.000    3.000    0.000    2.333 
#    0.000   26.333    0.000   22.833    0.000    1.000 
#
# Total GULP energy -534472.172010 kJ/mol
# GULP energy per Si atom -5567.418458 kJ/mol
# Density = 1.492094 g / cm^3
# Si number density = 14.954974 Si / 1000 Ang^3
#
#
#
# Elastic Constant Matrix: (Units=GPa)
#
#
# Indices 1 2 3 4 5 6 
#
# 1 58.1058 40.7578 53.3518 0.0000 0.0000 0.0000
# 2 40.7578 58.1058 53.3518 0.0000 0.0000 0.0000
# 3 53.3518 53.3518 126.8913 0.0000 0.0000 0.0000
# 4 0.0000 0.0000 0.0000 16.5010 0.0000 0.0000
# 5 0.0000 0.0000 0.0000 0.0000 16.5010 0.0000
# 6 0.0000 0.0000 0.0000 0.0000 0.0000 15.0078
#
#
#
# Elastic Compliance Matrix: (Units=1/GPa)
#
#
# Indices 1 2 3 4 5 6 
#
# 1 0.038081 -0.019563 -0.007786 0.000000 0.000000 0.000000
# 2 -0.019563 0.038081 -0.007786 0.000000 0.000000 0.000000
# 3 -0.007786 -0.007786 0.014428 0.000000 0.000000 0.000000
# 4 0.000000 0.000000 0.000000 0.060602 0.000000 0.000000
# 5 0.000000 0.000000 0.000000 0.000000 0.060602 0.000000
# 6 0.000000 0.000000 0.000000 0.000000 0.000000 0.066632
#
#
# Mechanical properties :
#
#
# Convention : Reuss Voigt Hill
#
# Bulk Modulus (GPa) = 49.21109 59.78065 54.49587
# Shear Modulus (GPa) = 14.06585 15.97805 15.02195
#
# Velocity S-wave (km/s) = 3.07016 3.27220 3.17279
# Velocity P-wave (km/s) = 6.74874 7.37136 7.06691
#
# Compressibility (1/GPa) = 0.02032062
#
# Stress axis : x y z
#
# Youngs Moduli (GPa) = 26.25969 26.25969 69.30864
#
# Poissons Ratio (x) = 0.51371 0.53965
# Poissons Ratio (y) = 0.51371 0.53965
# Poissons Ratio (z) = 0.20446 0.20446
#
# Static dielectric constant tensor:
#      x y z
#    x 1.477560 0.000000 0.000000 
#    y 0.000000 1.477560 0.000000 
#    z 0.000000 0.000000 1.511460 
# 
# From -- ./inp_files/8612.got.cif
#   From: 2010.05.17/outbox.cif.g08.bks.cpg/sg123_5_cif.got.tgz:8612.got - 2010.05.20 11:43:04.
