data_PCOD9561220
_publ_section_title
;
Structure prediction by ZEFSAII (Michael W. Deem and Ramdas Pophale) SiO2 
 PCOD9561220
Probable space group: I -4 2 D
;
_chemical_formula_sum "Si O2"
_cell_formula_units_Z 116
_cell_length_a 18.160873
_cell_length_b 18.160873
_cell_length_c 15.670916
_cell_angle_alpha 90.000000
_cell_angle_beta 90.000000
_cell_angle_gamma 90.000000
_cell_volume 5168.539331
_symmetry_space_group_name_H-M "I -4 2 D"
_symmetry_group_IT_number 122
_symmetry_cell_setting 'tetragonal'
loop_
_space_group_symop_operation_xyz
x,y,z
y,-x,-z
-x,-y,z
-y,x,-z
x,1/2-y,1/4-z
-x,1/2+y,1/4-z
-y,1/2-x,1/4+z
y,1/2+x,1/4+z
1/2+x,1/2+y,1/2+z
1/2+y,1/2-x,1/2-z
1/2-x,1/2-y,1/2+z
1/2-y,1/2+x,1/2-z
1/2+x,-y,3/4-z
1/2-x,y,3/4-z
1/2-y,-x,3/4+z
1/2+y,x,3/4+z
loop_
_atom_site_type_symbol
_atom_site_label
_atom_site_fract_x
_atom_site_fract_y
_atom_site_fract_z
Si Si1 0.000000 0.500000 0.750000
Si Si2 0.097637 0.555551 0.228505
Si Si3 0.170986 0.144724 0.324950
Si Si4 0.880885 0.898689 0.488655
Si Si5 0.115717 0.230435 0.721318
Si Si6 0.255132 0.539024 0.228976
Si Si7 0.405349 0.674250 0.674107
Si Si8 0.537473 0.231869 0.949160
O O1 0.955515 0.572105 0.718954
O O2 0.080870 0.469563 0.211623
O O3 0.177422 0.558580 0.272908
O O4 0.094327 0.607795 0.144986
O O5 0.250000 0.157771 0.375000
O O6 0.126918 0.088869 0.387257
O O7 0.115309 0.210269 0.303069
O O8 0.187181 0.106247 0.234558
O O9 0.873098 0.810461 0.486928
O O10 0.815571 0.936965 0.538218
O O11 0.134062 0.250000 0.625000
O O12 0.158736 0.161388 0.760237
O O13 0.029832 0.214563 0.737217
O O14 0.309115 0.483664 0.279402
O O15 0.228047 0.493929 0.145380
O O16 0.388280 0.750000 0.625000
#
# Coordination Sequence:
#
# PCOD9561220 Si02
#       8
#     4  16  16  16  16  16  16  16
#     4  12  20  32  60  96 140 200 256 318 388 444
#     4  11  25  49  81 106 151 202 249 328 398 453
#     4  10  23  43  71 104 148 203 243 322 387 456
#     4  11  21  39  63  99 146 198 254 310 386 458
#     4  12  24  43  72 106 149 199 255 320 388 472
#     4  12  24  50  74 115 148 197 264 313 392 489
#     4  12  27  51  80 113 152 203 262 328 402 476
#     4  11  23  43  69 103 154 191 253 314 377 462
#
# _framework density 22.443477999999999
#
# number of rings (size 3 to 8) (size 9 to 14) (size 15 to 20)
#    0.000    0.690    5.517    2.069    0.000    6.621 
#    0.000    0.000    0.000    0.000    0.000    0.000 
#    0.000    0.000    0.000    0.000    0.000    0.000 
#
# Total GULP energy -323330.919676 kJ/mol
# GULP energy per Si atom -5574.671029 kJ/mol
# Density = 2.239240 g / cm^3
# Si number density = 22.443478 Si / 1000 Ang^3
#
#
#
# Elastic Constant Matrix: (Units=GPa)
#
#
# Indices 1 2 3 4 5 6 
#
# 1 118.4766 73.2693 35.2963 0.0000 0.0000 0.0000
# 2 73.2693 118.4766 35.2963 0.0000 0.0000 0.0000
# 3 35.2963 35.2963 82.9763 0.0000 0.0000 0.0000
# 4 0.0000 0.0000 0.0000 31.5286 0.0000 0.0000
# 5 0.0000 0.0000 0.0000 0.0000 31.5286 0.0000
# 6 0.0000 0.0000 0.0000 0.0000 0.0000 12.0995
#
#
#
# Elastic Compliance Matrix: (Units=1/GPa)
#
#
# Indices 1 2 3 4 5 6 
#
# 1 0.014152 -0.007968 -0.002630 0.000000 0.000000 0.000000
# 2 -0.007968 0.014152 -0.002630 0.000000 0.000000 0.000000
# 3 -0.002630 -0.002630 0.014289 0.000000 0.000000 0.000000
# 4 0.000000 0.000000 0.000000 0.031717 0.000000 0.000000
# 5 0.000000 0.000000 0.000000 0.000000 0.031717 0.000000
# 6 0.000000 0.000000 0.000000 0.000000 0.000000 0.082648
#
#
# Mechanical properties :
#
#
# Convention : Reuss Voigt Hill
#
# Bulk Modulus (GPa) = 61.97633 67.51701 64.74667
# Shear Modulus (GPa) = 22.67448 26.76918 24.72183
#
# Velocity S-wave (km/s) = 3.18196 3.45735 3.32251
# Velocity P-wave (km/s) = 6.41671 6.78868 6.60531
#
# Compressibility (1/GPa) = 0.01613519
#
# Stress axis : x y z
#
# Youngs Moduli (GPa) = 70.66150 70.66150 69.98170
#
# Poissons Ratio (x) = 0.56306 0.18408
# Poissons Ratio (y) = 0.56306 0.18408
# Poissons Ratio (z) = 0.18587 0.18587
#
# Static dielectric constant tensor:
#      x y z
#    x 1.894520 0.000000 0.000000 
#    y 0.000000 1.894520 0.000000 
#    z 0.000000 0.000000 1.982110 
# 
# From -- ./inp_files/6453.got.cif
#   From: 2010.05.17/outbox.cif.g08.bks.cpg/sg122_4_cif.got.tgz:6453.got - 2010.05.20 11:37:33.
