data_PCOD9561309
_publ_section_title
;
Structure prediction by ZEFSAII (Michael W. Deem and Ramdas Pophale) SiO2 
 PCOD9561309
Probable space group: I -4 2 D
;
_chemical_formula_sum "Si O2"
_cell_formula_units_Z 68
_cell_length_a 11.917429
_cell_length_b 11.917429
_cell_length_c 20.056068
_cell_angle_alpha 90.000000
_cell_angle_beta 90.000000
_cell_angle_gamma 90.000000
_cell_volume 2848.465343
_symmetry_space_group_name_H-M "I -4 2 D"
_symmetry_group_IT_number 122
_symmetry_cell_setting 'tetragonal'
loop_
_space_group_symop_operation_xyz
x,y,z
y,-x,-z
-x,-y,z
-y,x,-z
x,1/2-y,1/4-z
-x,1/2+y,1/4-z
-y,1/2-x,1/4+z
y,1/2+x,1/4+z
1/2+x,1/2+y,1/2+z
1/2+y,1/2-x,1/2-z
1/2-x,1/2-y,1/2+z
1/2-y,1/2+x,1/2-z
1/2+x,-y,3/4-z
1/2-x,y,3/4-z
1/2-y,-x,3/4+z
1/2+y,x,3/4+z
loop_
_atom_site_type_symbol
_atom_site_label
_atom_site_fract_x
_atom_site_fract_y
_atom_site_fract_z
Si Si1 0.156882 0.175213 0.758826
Si Si2 0.527280 0.750000 0.125000
Si Si3 0.812118 0.628686 0.160965
Si Si4 0.500000 0.000000 0.919316
Si Si5 0.062970 0.343166 0.855716
Si Si6 0.500000 0.500000 0.000000
O O1 0.285928 0.153469 0.738338
O O2 0.146995 0.256563 0.821550
O O3 0.099305 0.232552 0.692950
O O4 0.083247 0.070008 0.783060
O O5 0.446846 0.859961 0.122374
O O6 0.803694 0.750000 0.125000
O O7 0.920455 0.572285 0.128981
O O8 0.717254 0.531136 0.149338
O O9 0.989746 0.391453 0.794773
#
# Coordination Sequence:
#
# PCOD9561309 Si02
#       6
#    16   8  16   8  16   4
#     4  11  22  42  67 100 136 182 223 289 342 414
#     4  12  22  38  68 108 140 176 220 290 348 426
#     4  11  23  46  68  98 137 189 228 290 356 422
#     4  10  26  45  68  99 143 184 239 288 350 428
#     4  11  23  36  66 102 140 177 225 278 348 418
#     4  12  16  34  56 100 128 164 214 264 336 400
#
# _framework density 23.872503999999999
#
# number of rings (size 3 to 8) (size 9 to 14) (size 15 to 20)
#    0.000    0.941    3.529    4.235    3.294    0.000 
#    8.471    0.000    0.000    0.000    0.000    0.000 
#    0.000    0.000    0.000    0.000    0.000    0.000 
#
# Total GULP energy -189667.174287 kJ/mol
# GULP energy per Si atom -5578.446303 kJ/mol
# Density = 2.381817 g / cm^3
# Si number density = 23.872504 Si / 1000 Ang^3
#
#
#
# Elastic Constant Matrix: (Units=GPa)
#
#
# Indices 1 2 3 4 5 6 
#
# 1 112.0275 44.5381 30.4666 0.0000 0.0000 0.0000
# 2 44.5381 112.0275 30.4666 0.0000 0.0000 0.0000
# 3 30.4666 30.4666 41.8264 0.0000 0.0000 0.0000
# 4 0.0000 0.0000 0.0000 25.0195 0.0000 0.0000
# 5 0.0000 0.0000 0.0000 0.0000 25.0195 0.0000
# 6 0.0000 0.0000 0.0000 0.0000 0.0000 31.8493
#
#
#
# Elastic Compliance Matrix: (Units=1/GPa)
#
#
# Indices 1 2 3 4 5 6 
#
# 1 0.011866 -0.002952 -0.006493 0.000000 0.000000 0.000000
# 2 -0.002952 0.011866 -0.006493 0.000000 0.000000 0.000000
# 3 -0.006493 -0.006493 0.033367 0.000000 0.000000 0.000000
# 4 0.000000 0.000000 0.000000 0.039969 0.000000 0.000000
# 5 0.000000 0.000000 0.000000 0.000000 0.039969 0.000000
# 6 0.000000 0.000000 0.000000 0.000000 0.000000 0.031398
#
#
# Mechanical properties :
#
#
# Convention : Reuss Voigt Hill
#
# Bulk Modulus (GPa) = 39.64572 52.98045 46.31308
# Shear Modulus (GPa) = 23.95584 27.07168 25.51376
#
# Velocity S-wave (km/s) = 3.17123 3.37116 3.27272
# Velocity P-wave (km/s) = 5.48199 6.11508 5.80717
#
# Compressibility (1/GPa) = 0.02522341
#
# Stress axis : x y z
#
# Youngs Moduli (GPa) = 84.27706 84.27706 29.96928
#
# Poissons Ratio (x) = 0.24875 0.19459
# Poissons Ratio (y) = 0.24875 0.19459
# Poissons Ratio (z) = 0.54722 0.54722
#
# Static dielectric constant tensor:
#      x y z
#    x 1.976780 0.000000 0.000000 
#    y 0.000000 1.976780 0.000000 
#    z 0.000000 0.000000 1.905260 
# 
# From -- ./inp_files/8677.got.cif
#   From: 2010.05.17/outbox.cif.g08.bks.cpg/sg122_5_cif.got.tgz:8677.got - 2010.05.20 11:37:33.
