data_PCOD9561902
_publ_section_title
;
Structure prediction by ZEFSAII (Michael W. Deem and Ramdas Pophale) SiO2 
 PCOD9561902
Probable space group: P 4/M M M
;
_chemical_formula_sum "Si O2"
_cell_formula_units_Z 96
_cell_length_a 21.392806
_cell_length_b 21.392806
_cell_length_c 12.012482
_cell_angle_alpha 90.000000
_cell_angle_beta 90.000000
_cell_angle_gamma 90.000000
_cell_volume 5497.538197
_symmetry_space_group_name_H-M "P 4/M M M"
_symmetry_group_IT_number 123
_symmetry_cell_setting 'tetragonal'
loop_
_space_group_symop_operation_xyz
x,y,z
-y,x,z
-x,-y,z
y,-x,z
x,-y,-z
-x,y,-z
y,x,-z
-y,-x,-z
-x,-y,-z
y,-x,-z
x,y,-z
-y,x,-z
-x,y,z
x,-y,z
-y,-x,z
y,x,z
loop_
_atom_site_type_symbol
_atom_site_label
_atom_site_fract_x
_atom_site_fract_y
_atom_site_fract_z
Si Si1 0.573596 0.931942 0.134412
Si Si2 0.201718 0.631118 0.865916
Si Si3 0.845062 0.257011 0.267752
Si Si4 0.823640 0.928574 0.870368
Si Si5 0.812438 0.296585 0.500000
Si Si6 0.289972 0.395825 0.500000
Si Si7 0.571201 0.322107 0.252440
O O1 0.500000 0.930499 0.160322
O O2 0.602184 0.865685 0.169137
O O3 0.598688 0.000000 0.173912
O O4 0.579541 0.932535 0.000000
O O5 0.196431 0.699312 0.811928
O O6 0.261543 0.595484 0.815658
O O7 0.205829 0.632231 0.000000
O O8 0.805399 0.194602 0.288017
O O9 0.906376 0.234201 0.204432
O O10 0.851282 0.288657 0.387427
O O11 0.882557 0.882557 0.854175
O O12 0.840718 0.000000 0.848508
O O13 0.805071 0.922547 0.000000
O O14 0.757179 0.242822 0.500000
O O15 0.777198 0.362699 0.500000
O O16 0.339551 0.339551 0.500000
O O17 0.302648 0.429229 0.383115
O O18 0.500000 0.338410 0.219817
O O19 0.620851 0.379150 0.238581
#
# Coordination Sequence:
#
# PCOD9561902 Si02
#       7
#    16  16  16  16   8   8  16
#     4   8  15  29  47  67  94 127 161 198 242 294
#     4  11  21  32  51  79 109 138 173 217 268 330
#     4  10  19  32  51  75 102 132 168 216 273 326
#     4   9  18  32  50  75 109 148 189 231 274 323
#     4   9  16  31  54  75  99 130 164 207 266 332
#     4   9  17  35  58  80 102 128 170 222 275 335
#     4  11  23  38  57  80 107 141 183 232 284 338
#
# _framework density 17.462361999999999
#
# number of rings (size 3 to 8) (size 9 to 14) (size 15 to 20)
#    0.000    2.333    1.667    2.250    0.000    4.000 
#    0.000    2.917    0.000    1.500    0.000    1.750 
#    0.000    7.333    0.000    0.000    0.000    0.000 
#
# Total GULP energy -534483.150519 kJ/mol
# GULP energy per Si atom -5567.532818 kJ/mol
# Density = 1.742262 g / cm^3
# Si number density = 17.462362 Si / 1000 Ang^3
#
#
#
# Elastic Constant Matrix: (Units=GPa)
#
#
# Indices 1 2 3 4 5 6 
#
# 1 88.9373 43.1018 42.2974 0.0000 0.0000 0.0000
# 2 43.1018 88.9373 42.2974 0.0000 0.0000 0.0000
# 3 42.2974 42.2974 82.6018 0.0000 0.0000 0.0000
# 4 0.0000 0.0000 0.0000 5.2066 0.0000 0.0000
# 5 0.0000 0.0000 0.0000 0.0000 5.2136 0.0000
# 6 0.0000 0.0000 0.0000 0.0000 0.0000 14.9631
#
#
#
# Elastic Compliance Matrix: (Units=1/GPa)
#
#
# Indices 1 2 3 4 5 6 
#
# 1 0.016544 -0.005273 -0.005772 0.000000 0.000000 0.000000
# 2 -0.005273 0.016544 -0.005772 0.000000 0.000000 0.000000
# 3 -0.005772 -0.005772 0.018017 0.000000 0.000000 0.000000
# 4 0.000000 0.000000 0.000000 0.192064 0.000000 0.000000
# 5 0.000000 0.000000 0.000000 0.000000 0.191805 0.000000
# 6 0.000000 0.000000 0.000000 0.000000 0.000000 0.066831
#
#
# Mechanical properties :
#
#
# Convention : Reuss Voigt Hill
#
# Bulk Modulus (GPa) = 57.23039 57.31886 57.27463
# Shear Modulus (GPa) = 9.23767 13.92866 11.58317
#
# Velocity S-wave (km/s) = 2.30250 2.82731 2.57830
# Velocity P-wave (km/s) = 6.31771 6.59953 6.46015
#
# Compressibility (1/GPa) = 0.01747323
#
# Stress axis : x y z
#
# Youngs Moduli (GPa) = 60.44415 60.44416 55.50268
#
# Poissons Ratio (x) = 0.31872 0.32034
# Poissons Ratio (y) = 0.31872 0.32034
# Poissons Ratio (z) = 0.34886 0.34886
#
# Static dielectric constant tensor:
#      x y z
#    x 1.614890 0.000000 0.000000 
#    y 0.000000 1.614890 0.000000 
#    z 0.000000 0.000000 1.604240 
# 
# From -- ./inp_files/3178.got.cif
#   From: 2010.05.17/outbox.cif.g08.bks.cpg/sg123_2_cif.got.tgz:3178.got - 2010.05.20 11:43:04.
