data_PCOD9561597
_publ_section_title
;
Structure prediction by ZEFSAII (Michael W. Deem and Ramdas Pophale) SiO2 
 PCOD9561597
Probable space group: P 4/M M M
;
_chemical_formula_sum "Si O2"
_cell_formula_units_Z 92
_cell_length_a 23.192897
_cell_length_b 23.192897
_cell_length_c 9.248492
_cell_angle_alpha 90.000000
_cell_angle_beta 90.000000
_cell_angle_gamma 90.000000
_cell_volume 4974.860690
_symmetry_space_group_name_H-M "P 4/M M M"
_symmetry_group_IT_number 123
_symmetry_cell_setting 'tetragonal'
loop_
_space_group_symop_operation_xyz
x,y,z
-y,x,z
-x,-y,z
y,-x,z
x,-y,-z
-x,y,-z
y,x,-z
-y,-x,-z
-x,-y,-z
y,-x,-z
x,y,-z
-y,x,-z
-x,y,z
x,-y,z
-y,-x,z
y,x,z
loop_
_atom_site_type_symbol
_atom_site_label
_atom_site_fract_x
_atom_site_fract_y
_atom_site_fract_z
Si Si1 0.137436 0.400171 0.172926
Si Si2 0.568245 0.252066 0.664818
Si Si3 0.066091 0.840304 0.176674
Si Si4 0.429579 0.570422 0.000000
Si Si5 0.931759 0.500000 0.328463
Si Si6 0.358537 0.641464 0.243201
Si Si7 0.273698 0.132704 0.175130
Si Si8 0.737457 0.737457 0.171732
O O1 0.203517 0.406475 0.228326
O O2 0.099321 0.446211 0.255072
O O3 0.111036 0.337472 0.206163
O O4 0.137398 0.408699 0.000000
O O5 0.576594 0.231676 0.500000
O O6 0.500000 0.256601 0.693219
O O7 0.597242 0.314962 0.678876
O O8 0.106194 0.893807 0.220363
O O9 0.096274 0.780858 0.225985
O O10 0.000000 0.844646 0.224096
O O11 0.065793 0.839537 0.000000
O O12 0.420572 0.500000 0.000000
O O13 0.397054 0.602947 0.133244
O O14 0.921712 0.500000 0.500000
O O15 0.000000 0.500000 0.301865
O O16 0.310990 0.689011 0.190510
O O17 0.274969 0.198601 0.229153
O O18 0.268549 0.134562 0.000000
O O19 0.743001 0.743001 0.000000
#
# Coordination Sequence:
#
# PCOD9561597 Si02
#       8
#    16  16  16   4   8   8  16   8
#     4  11  22  36  61  91 116 149 197 254 303 352
#     4  11  24  40  59  85 121 156 195 245 304 373
#     4   9  16  26  41  63  99 146 191 235 285 339
#     4  11  26  44  60  90 128 158 198 272 333 376
#     4  11  25  45  63  81 119 169 203 234 291 364
#     4  12  22  38  61  87 112 157 201 249 304 380
#     4   9  17  29  47  75 107 142 179 236 300 351
#     4  10  16  28  49  78 110 137 181 236 292 347
#
# _framework density 18.492979999999999
#
# number of rings (size 3 to 8) (size 9 to 14) (size 15 to 20)
#    0.000    1.696    3.913    1.565    1.217    1.565 
#    0.000    2.609    0.000    0.000    0.000    3.652 
#    0.000    0.000    0.000    0.000    0.000    1.565 
#
# Total GULP energy -512533.623213 kJ/mol
# GULP energy per Si atom -5571.017644 kJ/mol
# Density = 1.845089 g / cm^3
# Si number density = 18.492980 Si / 1000 Ang^3
#
#
#
# Elastic Constant Matrix: (Units=GPa)
#
#
# Indices 1 2 3 4 5 6 
#
# 1 148.2992 87.4034 36.8222 0.0000 0.0000 0.0000
# 2 87.4034 148.2988 36.8222 0.0000 0.0000 0.0000
# 3 36.8222 36.8222 40.0367 0.0000 0.0000 0.0000
# 4 0.0000 0.0000 0.0000 3.8590 0.0000 0.0000
# 5 0.0000 0.0000 0.0000 0.0000 3.8591 0.0000
# 6 0.0000 0.0000 0.0000 0.0000 0.0000 14.2283
#
#
#
# Elastic Compliance Matrix: (Units=1/GPa)
#
#
# Indices 1 2 3 4 5 6 
#
# 1 0.011187 -0.005234 -0.005475 0.000000 0.000000 0.000000
# 2 -0.005234 0.011187 -0.005475 0.000000 0.000000 0.000000
# 3 -0.005475 -0.005475 0.035049 0.000000 0.000000 0.000000
# 4 0.000000 0.000000 0.000000 0.259136 0.000000 0.000000
# 5 0.000000 0.000000 0.000000 0.000000 0.259125 0.000000
# 6 0.000000 0.000000 0.000000 0.000000 0.000000 0.070282
#
#
# Mechanical properties :
#
#
# Convention : Reuss Voigt Hill
#
# Bulk Modulus (GPa) = 39.91403 73.19225 56.55314
# Shear Modulus (GPa) = 7.28133 16.09508 11.68820
#
# Velocity S-wave (km/s) = 1.98643 2.95334 2.51676
# Velocity P-wave (km/s) = 5.18569 7.16198 6.25241
#
# Compressibility (1/GPa) = 0.02505385
#
# Stress axis : x y z
#
# Youngs Moduli (GPa) = 89.38575 89.38549 28.53170
#
# Poissons Ratio (x) = 0.46785 0.15622
# Poissons Ratio (y) = 0.46785 0.15622
# Poissons Ratio (z) = 0.48943 0.48942
#
# Static dielectric constant tensor:
#      x y z
#    x 1.654460 0.000000 0.000000 
#    y 0.000000 1.654470 0.000000 
#    z 0.000000 0.000000 1.623860 
# 
# From -- ./inp_files/1755.got.cif
#   From: 2010.05.17/outbox.cif.g08.bks.cpg/sg123_1_cif.got.tgz:1755.got - 2010.05.20 11:43:04.
