data_PCOD9561412
_publ_section_title
;
Structure prediction by ZEFSAII (Michael W. Deem and Ramdas Pophale) SiO2 
 PCOD9561412
Probable space group: I -4 2 D
;
_chemical_formula_sum "Si O2"
_cell_formula_units_Z 48
_cell_length_a 7.376092
_cell_length_b 7.376092
_cell_length_c 32.318397
_cell_angle_alpha 90.000000
_cell_angle_beta 90.000000
_cell_angle_gamma 90.000000
_cell_volume 1758.338403
_symmetry_space_group_name_H-M "I -4 2 D"
_symmetry_group_IT_number 122
_symmetry_cell_setting 'tetragonal'
loop_
_space_group_symop_operation_xyz
x,y,z
y,-x,-z
-x,-y,z
-y,x,-z
x,1/2-y,1/4-z
-x,1/2+y,1/4-z
-y,1/2-x,1/4+z
y,1/2+x,1/4+z
1/2+x,1/2+y,1/2+z
1/2+y,1/2-x,1/2-z
1/2-x,1/2-y,1/2+z
1/2-y,1/2+x,1/2-z
1/2+x,-y,3/4-z
1/2-x,y,3/4-z
1/2-y,-x,3/4+z
1/2+y,x,3/4+z
loop_
_atom_site_type_symbol
_atom_site_label
_atom_site_fract_x
_atom_site_fract_y
_atom_site_fract_z
Si Si1 0.592359 0.309720 0.781403
Si Si2 0.755611 0.860215 0.934436
Si Si3 0.378957 0.739888 0.911153
O O1 0.500000 0.500000 0.778891
O O2 0.465155 0.205460 0.815988
O O3 0.606373 0.247633 0.734059
O O4 0.795292 0.336491 0.796862
O O5 0.688985 0.050339 0.915566
O O6 0.402782 0.267368 0.914949
O O7 0.250000 0.660798 0.875000
#
# Coordination Sequence:
#
# PCOD9561412 Si02
#       3
#    16  16  16
#     4  12  23  44  71  99 140 188 236 294 363 431
#     4  11  23  43  72 101 136 183 244 294 348 439
#     4  11  26  44  67 105 139 186 241 297 364 428
#
# _framework density 27.298497999999999
#
# number of rings (size 3 to 8) (size 9 to 14) (size 15 to 20)
#    0.000    0.667    6.667    1.000    9.333    1.333 
#    6.000    3.333    0.000    0.000    0.000    0.000 
#    0.000    0.000    0.000    0.000    0.000    0.000 
#
# Total GULP energy -133772.264598 kJ/mol
# GULP energy per Si atom -5573.844358 kJ/mol
# Density = 2.723637 g / cm^3
# Si number density = 27.298498 Si / 1000 Ang^3
#
#
#
# Elastic Constant Matrix: (Units=GPa)
#
#
# Indices 1 2 3 4 5 6 
#
# 1 111.0480 9.1565 13.6159 0.0000 0.0000 0.0000
# 2 9.1565 111.0480 13.6159 0.0000 0.0000 0.0000
# 3 13.6159 13.6159 111.3244 0.0000 0.0000 0.0000
# 4 0.0000 0.0000 0.0000 29.0112 0.0000 0.0000
# 5 0.0000 0.0000 0.0000 0.0000 29.0112 0.0000
# 6 0.0000 0.0000 0.0000 0.0000 0.0000 29.2603
#
#
#
# Elastic Compliance Matrix: (Units=1/GPa)
#
#
# Indices 1 2 3 4 5 6 
#
# 1 0.009185 -0.000629 -0.001046 0.000000 0.000000 0.000000
# 2 -0.000629 0.009185 -0.001046 0.000000 0.000000 0.000000
# 3 -0.001046 -0.001046 0.009239 0.000000 0.000000 0.000000
# 4 0.000000 0.000000 0.000000 0.034469 0.000000 0.000000
# 5 0.000000 0.000000 0.000000 0.000000 0.034469 0.000000
# 6 0.000000 0.000000 0.000000 0.000000 0.000000 0.034176
#
#
# Mechanical properties :
#
#
# Convention : Reuss Voigt Hill
#
# Bulk Modulus (GPa) = 45.11570 45.13298 45.12434
# Shear Modulus (GPa) = 34.82945 37.25870 36.04407
#
# Velocity S-wave (km/s) = 3.57581 3.69841 3.63763
# Velocity P-wave (km/s) = 5.79752 5.89972 5.84884
#
# Compressibility (1/GPa) = 0.02216523
#
# Stress axis : x y z
#
# Youngs Moduli (GPa) = 108.86960 108.86960 108.23982
#
# Poissons Ratio (x) = 0.06849 0.11327
# Poissons Ratio (y) = 0.06849 0.11327
# Poissons Ratio (z) = 0.11393 0.11393
#
# Static dielectric constant tensor:
#      x y z
#    x 2.297010 0.000000 0.000000 
#    y 0.000000 2.297010 0.000000 
#    z 0.000000 0.000000 2.135840 
# 
# From -- ./inp_files/9105.got.cif
#   From: 2010.05.17/outbox.cif.g08.bks.cpg/sg122_5_cif.got.tgz:9105.got - 2010.05.20 11:37:33.
