data_PCOD9561557
_publ_section_title
;
Structure prediction by ZEFSAII (Michael W. Deem and Ramdas Pophale) SiO2 
 PCOD9561557
Probable space group: I -4 2 D
;
_chemical_formula_sum "Si O2"
_cell_formula_units_Z 40
_cell_length_a 11.457108
_cell_length_b 11.457108
_cell_length_c 11.678138
_cell_angle_alpha 90.000000
_cell_angle_beta 90.000000
_cell_angle_gamma 90.000000
_cell_volume 1532.934565
_symmetry_space_group_name_H-M "I -4 2 D"
_symmetry_group_IT_number 122
_symmetry_cell_setting 'tetragonal'
loop_
_space_group_symop_operation_xyz
x,y,z
y,-x,-z
-x,-y,z
-y,x,-z
x,1/2-y,1/4-z
-x,1/2+y,1/4-z
-y,1/2-x,1/4+z
y,1/2+x,1/4+z
1/2+x,1/2+y,1/2+z
1/2+y,1/2-x,1/2-z
1/2-x,1/2-y,1/2+z
1/2-y,1/2+x,1/2-z
1/2+x,-y,3/4-z
1/2-x,y,3/4-z
1/2-y,-x,3/4+z
1/2+y,x,3/4+z
loop_
_atom_site_type_symbol
_atom_site_label
_atom_site_fract_x
_atom_site_fract_y
_atom_site_fract_z
Si Si1 0.870948 0.447309 0.917626
Si Si2 0.487940 0.250000 0.625000
Si Si3 0.939281 0.196258 0.874849
O O1 0.750000 0.506726 0.875000
O O2 0.884408 0.323456 0.855446
O O3 0.000000 0.500000 0.899317
O O4 0.838905 0.445241 0.053500
O O5 0.546815 0.301815 0.511577
O O6 0.401048 0.350558 0.668925
#
# Coordination Sequence:
#
# PCOD9561557 Si02
#       3
#    16   8  16
#     4  12  29  51  81 121 170 225 292 366 441 531
#     4  12  26  48  80 112 160 210 286 352 442 516
#     4  12  27  48  79 117 158 221 279 360 434 528
#
# _framework density 26.093741000000001
#
# number of rings (size 3 to 8) (size 9 to 14) (size 15 to 20)
#    0.000    0.000    6.000    2.400    5.600    0.000 
#    3.600    0.000    0.000    0.000    0.000    0.000 
#    0.000    0.000    0.000    0.000    0.000    0.000 
#
# Total GULP energy -111605.585323 kJ/mol
# GULP energy per Si atom -5580.279266 kJ/mol
# Density = 2.603435 g / cm^3
# Si number density = 26.093741 Si / 1000 Ang^3
#
#
#
# Elastic Constant Matrix: (Units=GPa)
#
#
# Indices 1 2 3 4 5 6 
#
# 1 121.4065 19.6918 29.2792 0.0000 0.0000 0.0000
# 2 19.6918 121.4065 29.2792 0.0000 0.0000 0.0000
# 3 29.2792 29.2792 115.5185 0.0000 0.0000 0.0000
# 4 0.0000 0.0000 0.0000 31.9604 0.0000 0.0000
# 5 0.0000 0.0000 0.0000 0.0000 31.9604 0.0000
# 6 0.0000 0.0000 0.0000 0.0000 0.0000 28.9969
#
#
#
# Elastic Compliance Matrix: (Units=1/GPa)
#
#
# Indices 1 2 3 4 5 6 
#
# 1 0.008876 -0.000956 -0.002007 0.000000 0.000000 0.000000
# 2 -0.000956 0.008876 -0.002007 0.000000 0.000000 0.000000
# 3 -0.002007 -0.002007 0.009674 0.000000 0.000000 0.000000
# 4 0.000000 0.000000 0.000000 0.031289 0.000000 0.000000
# 5 0.000000 0.000000 0.000000 0.000000 0.031289 0.000000
# 6 0.000000 0.000000 0.000000 0.000000 0.000000 0.034486
#
#
# Mechanical properties :
#
#
# Convention : Reuss Voigt Hill
#
# Bulk Modulus (GPa) = 57.19162 57.20355 57.19759
# Shear Modulus (GPa) = 35.64826 37.25563 36.45195
#
# Velocity S-wave (km/s) = 3.70017 3.78267 3.74165
# Velocity P-wave (km/s) = 6.34195 6.40688 6.37450
#
# Compressibility (1/GPa) = 0.01748508
#
# Stress axis : x y z
#
# Youngs Moduli (GPa) = 112.66443 112.66444 103.36708
#
# Poissons Ratio (x) = 0.10765 0.20751
# Poissons Ratio (y) = 0.10765 0.20751
# Poissons Ratio (z) = 0.22617 0.22617
#
# Static dielectric constant tensor:
#      x y z
#    x 2.131810 0.000000 0.000000 
#    y 0.000000 2.131810 0.000000 
#    z 0.000000 0.000000 2.195180 
# 
# From -- ./inp_files/4916.got.cif
#   From: 2010.05.17/outbox.cif.g08.bks.cpg/sg122_3_cif.got.tgz:4916.got - 2010.05.20 11:37:33.
