data_PCOD9561331
_publ_section_title
;
Structure prediction by ZEFSAII (Michael W. Deem and Ramdas Pophale) SiO2 
 PCOD9561331
Probable space group: I -4 2 D
;
_chemical_formula_sum "Si O2"
_cell_formula_units_Z 64
_cell_length_a 22.803394
_cell_length_b 22.803394
_cell_length_c 5.246139
_cell_angle_alpha 90.000000
_cell_angle_beta 90.000000
_cell_angle_gamma 90.000000
_cell_volume 2727.964884
_symmetry_space_group_name_H-M "I -4 2 D"
_symmetry_group_IT_number 122
_symmetry_cell_setting 'tetragonal'
loop_
_space_group_symop_operation_xyz
x,y,z
y,-x,-z
-x,-y,z
-y,x,-z
x,1/2-y,1/4-z
-x,1/2+y,1/4-z
-y,1/2-x,1/4+z
y,1/2+x,1/4+z
1/2+x,1/2+y,1/2+z
1/2+y,1/2-x,1/2-z
1/2-x,1/2-y,1/2+z
1/2-y,1/2+x,1/2-z
1/2+x,-y,3/4-z
1/2-x,y,3/4-z
1/2-y,-x,3/4+z
1/2+y,x,3/4+z
loop_
_atom_site_type_symbol
_atom_site_label
_atom_site_fract_x
_atom_site_fract_y
_atom_site_fract_z
Si Si1 0.434054 0.165732 0.740592
Si Si2 0.056471 0.693676 0.450244
Si Si3 0.325465 0.813455 0.605694
Si Si4 0.392064 0.115634 0.234735
O O1 0.374351 0.202309 0.796550
O O2 0.431134 0.144388 0.452550
O O3 0.495786 0.193872 0.799800
O O4 0.423474 0.115220 0.960411
O O5 0.058540 0.750000 0.625000
O O6 0.113243 0.692055 0.265683
O O7 0.059546 0.636493 0.633116
O O8 0.296252 0.750000 0.625000
O O9 0.344084 0.833961 0.322627
#
# Coordination Sequence:
#
# PCOD9561331 Si02
#       4
#    16  16  16  16
#     4   9  21  31  51  81 112 139 177 235 286 331
#     4  11  19  33  59  85 108 141 192 241 283 332
#     4   9  18  33  55  79 107 145 185 227 278 337
#     4   9  20  34  48  77 112 143 177 227 282 338
#
# _framework density 23.460713999999999
#
# number of rings (size 3 to 8) (size 9 to 14) (size 15 to 20)
#    1.500    1.000    2.500    0.000    3.500    0.000 
#    0.000    0.000    0.000   24.750    0.000   10.500 
#    0.000    0.000    0.000    0.000    0.000    0.000 
#
# Total GULP energy -178135.836496 kJ/mol
# GULP energy per Si atom -5566.744890 kJ/mol
# Density = 2.340732 g / cm^3
# Si number density = 23.460714 Si / 1000 Ang^3
#
#
#
# Elastic Constant Matrix: (Units=GPa)
#
#
# Indices 1 2 3 4 5 6 
#
# 1 60.9495 18.0752 37.9006 0.0000 0.0000 0.0000
# 2 18.0752 60.9495 37.9006 0.0000 0.0000 0.0000
# 3 37.9006 37.9006 156.7682 0.0000 0.0000 0.0000
# 4 0.0000 0.0000 0.0000 35.3021 0.0000 0.0000
# 5 0.0000 0.0000 0.0000 0.0000 35.3021 0.0000
# 6 0.0000 0.0000 0.0000 0.0000 0.0000 36.6523
#
#
#
# Elastic Compliance Matrix: (Units=1/GPa)
#
#
# Indices 1 2 3 4 5 6 
#
# 1 0.019899 -0.003425 -0.003983 0.000000 0.000000 0.000000
# 2 -0.003425 0.019899 -0.003983 0.000000 0.000000 0.000000
# 3 -0.003983 -0.003983 0.008305 0.000000 0.000000 0.000000
# 4 0.000000 0.000000 0.000000 0.028327 0.000000 0.000000
# 5 0.000000 0.000000 0.000000 0.000000 0.028327 0.000000
# 6 0.000000 0.000000 0.000000 0.000000 0.000000 0.027283
#
#
# Mechanical properties :
#
#
# Convention : Reuss Voigt Hill
#
# Bulk Modulus (GPa) = 39.49078 51.82445 45.65762
# Shear Modulus (GPa) = 30.62550 33.77069 32.19809
#
# Velocity S-wave (km/s) = 3.61694 3.79813 3.70865
# Velocity P-wave (km/s) = 5.85767 6.43213 6.15161
#
# Compressibility (1/GPa) = 0.02532237
#
# Stress axis : x y z
#
# Youngs Moduli (GPa) = 50.25280 50.25280 120.41353
#
# Poissons Ratio (x) = 0.17210 0.47961
# Poissons Ratio (y) = 0.17210 0.47961
# Poissons Ratio (z) = 0.20016 0.20016
#
# Static dielectric constant tensor:
#      x y z
#    x 1.958990 0.000000 0.000000 
#    y 0.000000 1.958990 0.000000 
#    z 0.000000 0.000000 1.934140 
# 
# From -- ./inp_files/1057.got.cif
#   From: 2010.05.17/outbox.cif.g08.bks.cpg/sg122_1_cif.got.tgz:1057.got - 2010.05.20 11:37:33.
