data_PCOD9561356
_publ_section_title
;
Structure prediction by ZEFSAII (Michael W. Deem and Ramdas Pophale) SiO2 
 PCOD9561356
Probable space group: I -4 2 D
;
_chemical_formula_sum "Si O2"
_cell_formula_units_Z 48
_cell_length_a 9.828057
_cell_length_b 9.828057
_cell_length_c 24.559244
_cell_angle_alpha 90.000000
_cell_angle_beta 90.000000
_cell_angle_gamma 90.000000
_cell_volume 2372.194677
_symmetry_space_group_name_H-M "I -4 2 D"
_symmetry_group_IT_number 122
_symmetry_cell_setting 'tetragonal'
loop_
_space_group_symop_operation_xyz
x,y,z
y,-x,-z
-x,-y,z
-y,x,-z
x,1/2-y,1/4-z
-x,1/2+y,1/4-z
-y,1/2-x,1/4+z
y,1/2+x,1/4+z
1/2+x,1/2+y,1/2+z
1/2+y,1/2-x,1/2-z
1/2-x,1/2-y,1/2+z
1/2-y,1/2+x,1/2-z
1/2+x,-y,3/4-z
1/2-x,y,3/4-z
1/2-y,-x,3/4+z
1/2+y,x,3/4+z
loop_
_atom_site_type_symbol
_atom_site_label
_atom_site_fract_x
_atom_site_fract_y
_atom_site_fract_z
Si Si1 0.910006 0.884207 0.162080
Si Si2 0.775466 0.987668 0.010527
Si Si3 0.132586 0.090313 0.625362
O O1 0.907290 0.750000 0.125000
O O2 0.983644 0.842602 0.217277
O O3 0.753991 0.929229 0.168399
O O4 0.000000 0.000000 0.134073
O O5 0.707706 0.949633 0.067930
O O6 0.867643 0.124249 0.009762
O O7 0.095783 0.250000 0.625000
O O8 0.000000 0.000000 0.617115
#
# Coordination Sequence:
#
# PCOD9561356 Si02
#       3
#    16  16  16
#     4  11  22  41  67 102 135 179 241 289 354 427
#     4  11  21  40  73 105 135 177 241 304 358 433
#     4  11  24  43  65 103 145 186 230 298 370 431
#
# _framework density 20.234428000000001
#
# number of rings (size 3 to 8) (size 9 to 14) (size 15 to 20)
#    0.000    1.000    6.667    3.000    0.000    4.000 
#    0.000    0.000    0.000    0.000    0.000    0.000 
#    0.000    0.000    0.000    0.000    0.000    0.000 
#
# Total GULP energy -134075.218990 kJ/mol
# GULP energy per Si atom -5586.467458 kJ/mol
# Density = 2.018837 g / cm^3
# Si number density = 20.234428 Si / 1000 Ang^3
#
#
#
# Elastic Constant Matrix: (Units=GPa)
#
#
# Indices 1 2 3 4 5 6 
#
# 1 134.2936 76.5723 1.5123 0.0000 0.0000 0.0000
# 2 76.5723 134.2936 1.5123 0.0000 0.0000 0.0000
# 3 1.5123 1.5123 45.4165 0.0000 0.0000 0.0000
# 4 0.0000 0.0000 0.0000 25.8715 0.0000 0.0000
# 5 0.0000 0.0000 0.0000 0.0000 25.8715 0.0000
# 6 0.0000 0.0000 0.0000 0.0000 0.0000 49.2732
#
#
#
# Elastic Compliance Matrix: (Units=1/GPa)
#
#
# Indices 1 2 3 4 5 6 
#
# 1 0.011035 -0.006290 -0.000158 0.000000 0.000000 0.000000
# 2 -0.006290 0.011035 -0.000158 0.000000 0.000000 0.000000
# 3 -0.000158 -0.000158 0.022029 0.000000 0.000000 0.000000
# 4 0.000000 0.000000 0.000000 0.038653 0.000000 0.000000
# 5 0.000000 0.000000 0.000000 0.000000 0.038653 0.000000
# 6 0.000000 0.000000 0.000000 0.000000 0.000000 0.020295
#
#
# Mechanical properties :
#
#
# Convention : Reuss Voigt Hill
#
# Bulk Modulus (GPa) = 32.37686 52.57747 42.47717
# Shear Modulus (GPa) = 30.26528 35.83034 33.04781
#
# Velocity S-wave (km/s) = 3.87166 4.21261 4.04573
# Velocity P-wave (km/s) = 6.00183 7.04996 6.54691
#
# Compressibility (1/GPa) = 0.03088625
#
# Stress axis : x y z
#
# Youngs Moduli (GPa) = 90.62387 90.62387 45.39479
#
# Poissons Ratio (x) = 0.57002 0.00717
# Poissons Ratio (y) = 0.57002 0.00717
# Poissons Ratio (z) = 0.01432 0.01432
#
# Static dielectric constant tensor:
#      x y z
#    x 1.726860 0.000000 0.000000 
#    y 0.000000 1.726860 0.000000 
#    z 0.000000 0.000000 1.745770 
# 
# From -- ./inp_files/9014.got.cif
#   From: 2010.05.17/outbox.cif.g08.bks.cpg/sg122_5_cif.got.tgz:9014.got - 2010.05.20 11:37:33.
