data_PCOD9561830
_publ_section_title
;
Structure prediction by ZEFSAII (Michael W. Deem and Ramdas Pophale) SiO2 
 PCOD9561830
Probable space group: P 4/M M M
;
_chemical_formula_sum "Si O2"
_cell_formula_units_Z 96
_cell_length_a 25.125447
_cell_length_b 25.125447
_cell_length_c 7.549858
_cell_angle_alpha 90.000000
_cell_angle_beta 90.000000
_cell_angle_gamma 90.000000
_cell_volume 4766.135414
_symmetry_space_group_name_H-M "P 4/M M M"
_symmetry_group_IT_number 123
_symmetry_cell_setting 'tetragonal'
loop_
_space_group_symop_operation_xyz
x,y,z
-y,x,z
-x,-y,z
y,-x,z
x,-y,-z
-x,y,-z
y,x,-z
-y,-x,-z
-x,-y,-z
y,-x,-z
x,y,-z
-y,x,-z
-x,y,z
x,-y,z
-y,-x,z
y,x,z
loop_
_atom_site_type_symbol
_atom_site_label
_atom_site_fract_x
_atom_site_fract_y
_atom_site_fract_z
Si Si1 0.731419 0.646937 0.289168
Si Si2 0.559906 0.644108 0.213677
Si Si3 0.439771 0.060191 0.212029
Si Si4 0.351295 0.149044 0.287156
Si Si5 0.230854 0.146200 0.283989
Si Si6 0.060091 0.855857 0.716143
O O1 0.736078 0.655639 0.500000
O O2 0.697684 0.697684 0.218361
O O3 0.694798 0.595613 0.260599
O O4 0.790912 0.637569 0.221072
O O5 0.500000 0.646955 0.280705
O O6 0.592502 0.592502 0.276467
O O7 0.557997 0.641582 0.000000
O O8 0.500000 0.073394 0.276061
O O9 0.395512 0.104721 0.248076
O O10 0.426352 0.000000 0.276069
O O11 0.442852 0.057108 0.000000
O O12 0.349294 0.150903 0.500000
O O13 0.291090 0.137845 0.223976
O O14 0.231436 0.146996 0.500000
O O15 0.201049 0.201049 0.230466
O O16 0.192772 0.097854 0.229010
O O17 0.059228 0.855054 0.500000
O O18 0.090213 0.909788 0.768754
O O19 0.000000 0.851981 0.778944
#
# Coordination Sequence:
#
# PCOD9561830 Si02
#       6
#    16  16  16  16  16  16
#     4   9  18  32  48  68  98 131 157 186 230 282
#     4   9  18  32  49  69  93 122 157 196 235 273
#     4   9  20  39  56  68  90 125 157 186 230 288
#     4  10  19  30  50  77  96 116 153 196 232 270
#     4   8  14  25  40  60  90 123 150 182 228 276
#     4   8  13  20  30  47  75 112 150 185 220 258
#
# _framework density 20.142105000000001
#
# number of rings (size 3 to 8) (size 9 to 14) (size 15 to 20)
#    0.000    3.167    0.000    2.000    0.000    5.333 
#    0.000    7.500    0.000    1.500    0.000    2.333 
#    0.000    0.000    0.000    0.000    0.000    0.000 
#
# Total GULP energy -535164.101886 kJ/mol
# GULP energy per Si atom -5574.626061 kJ/mol
# Density = 2.009626 g / cm^3
# Si number density = 20.142105 Si / 1000 Ang^3
#
#
#
# Elastic Constant Matrix: (Units=GPa)
#
#
# Indices 1 2 3 4 5 6 
#
# 1 198.2112 130.3111 6.0994 0.0000 0.0000 0.0000
# 2 130.3111 198.2112 6.0994 0.0000 0.0000 0.0000
# 3 6.0994 6.0994 47.3664 0.0000 0.0000 0.0000
# 4 0.0000 0.0000 0.0000 -5.7125 0.0000 0.0000
# 5 0.0000 0.0000 0.0000 0.0000 -5.7125 0.0000
# 6 0.0000 0.0000 0.0000 0.0000 0.0000 21.4449
#
#
#
# Elastic Compliance Matrix: (Units=1/GPa)
#
#
# Indices 1 2 3 4 5 6 
#
# 1 0.008893 -0.005834 -0.000394 0.000000 0.000000 0.000000
# 2 -0.005834 0.008893 -0.000394 0.000000 0.000000 0.000000
# 3 -0.000394 -0.000394 0.021213 0.000000 0.000000 0.000000
# 4 0.000000 0.000000 0.000000 -0.175055 0.000000 0.000000
# 5 0.000000 0.000000 0.000000 0.000000 -0.175055 0.000000
# 6 0.000000 0.000000 0.000000 0.000000 0.000000 0.046631
#
#
# Mechanical properties :
#
#
# Convention : Reuss Voigt Hill
#
# Bulk Modulus (GPa) = 38.82723 80.97876 59.90300
# Shear Modulus (GPa) = -20.60585 22.08923 0.74169
#
# Velocity S-wave (km/s) = -3.20194 3.31519 0.60748
# Velocity P-wave (km/s) = 2.37667 7.41249 5.50425
#
# Compressibility (1/GPa) = 0.02575512
#
# Stress axis : x y z
#
# Youngs Moduli (GPa) = 112.44743 112.44743 47.13996
#
# Poissons Ratio (x) = 0.65607 0.01857
# Poissons Ratio (y) = 0.65607 0.01857
# Poissons Ratio (z) = 0.04429 0.04429
#
# Static dielectric constant tensor:
#      x y z
#    x 1.700990 0.000000 0.000000 
#    y 0.000000 1.700990 0.000000 
#    z 0.000000 0.000000 1.785670 
# 
# From -- ./inp_files/1656.got.cif
#   From: 2010.05.17/outbox.cif.g08.bks.cpg/sg123_1_cif.got.tgz:1656.got - 2010.05.20 11:43:04.
