data_PCOD9561050
_publ_section_title
;
Structure prediction by ZEFSAII (Michael W. Deem and Ramdas Pophale) SiO2 
 PCOD9561050
Probable space group: I -4 2 D
;
_chemical_formula_sum "Si O2"
_cell_formula_units_Z 88
_cell_length_a 13.408133
_cell_length_b 13.408133
_cell_length_c 20.222483
_cell_angle_alpha 90.000000
_cell_angle_beta 90.000000
_cell_angle_gamma 90.000000
_cell_volume 3635.558166
_symmetry_space_group_name_H-M "I -4 2 D"
_symmetry_group_IT_number 122
_symmetry_cell_setting 'tetragonal'
loop_
_space_group_symop_operation_xyz
x,y,z
y,-x,-z
-x,-y,z
-y,x,-z
x,1/2-y,1/4-z
-x,1/2+y,1/4-z
-y,1/2-x,1/4+z
y,1/2+x,1/4+z
1/2+x,1/2+y,1/2+z
1/2+y,1/2-x,1/2-z
1/2-x,1/2-y,1/2+z
1/2-y,1/2+x,1/2-z
1/2+x,-y,3/4-z
1/2-x,y,3/4-z
1/2-y,-x,3/4+z
1/2+y,x,3/4+z
loop_
_atom_site_type_symbol
_atom_site_label
_atom_site_fract_x
_atom_site_fract_y
_atom_site_fract_z
Si Si1 0.717507 0.016586 0.260036
Si Si2 0.547819 0.369405 0.460395
Si Si3 0.000000 0.000000 0.161354
Si Si4 0.066735 0.410977 0.858958
Si Si5 0.770490 0.721892 0.550892
Si Si6 0.633075 0.105295 0.001958
O O1 0.646688 0.003533 0.196494
O O2 0.741465 0.133991 0.260914
O O3 0.658266 0.965625 0.321206
O O4 0.822777 0.963364 0.255026
O O5 0.456729 0.378007 0.511881
O O6 0.508189 0.406481 0.389247
O O7 0.608729 0.267284 0.456867
O O8 0.987649 0.903244 0.208081
O O9 0.090599 0.341385 0.921013
O O10 0.000000 0.500000 0.887611
O O11 0.798779 0.750000 0.625000
O O12 0.674140 0.786932 0.533343
#
# Coordination Sequence:
#
# PCOD9561050 Si02
#       6
#    16  16   8  16  16  16
#     4  12  25  43  67  99 140 184 231 287 343 424
#     4   9  22  45  71  95 136 178 224 283 354 413
#     4  10  21  44  64  99 134 178 226 294 342 419
#     4  12  22  44  68  96 138 188 224 284 355 411
#     4  12  24  43  70 102 136 180 233 288 347 424
#     4  12  25  41  69 104 139 179 241 288 350 425
#
# _framework density 24.205362000000001
#
# number of rings (size 3 to 8) (size 9 to 14) (size 15 to 20)
#    0.000    0.909    6.364    1.636    0.000    4.364 
#    3.273    0.000    0.000    0.000    0.000    0.000 
#    0.000    0.000    0.000    0.000    0.000    0.000 
#
# Total GULP energy -246110.411922 kJ/mol
# GULP energy per Si atom -5593.418453 kJ/mol
# Density = 2.415027 g / cm^3
# Si number density = 24.205362 Si / 1000 Ang^3
#
#
#
# Elastic Constant Matrix: (Units=GPa)
#
#
# Indices 1 2 3 4 5 6 
#
# 1 53.3597 29.8628 -1.8490 0.0000 0.0000 0.0000
# 2 29.8628 53.3597 -1.8490 0.0000 0.0000 0.0000
# 3 -1.8490 -1.8490 95.6338 0.0000 0.0000 0.0000
# 4 0.0000 0.0000 0.0000 -20.3108 0.0000 0.0000
# 5 0.0000 0.0000 0.0000 0.0000 -20.3108 0.0000
# 6 0.0000 0.0000 0.0000 0.0000 0.0000 45.6514
#
#
#
# Elastic Compliance Matrix: (Units=1/GPa)
#
#
# Indices 1 2 3 4 5 6 
#
# 1 0.027293 -0.015266 0.000233 0.000000 0.000000 0.000000
# 2 -0.015266 0.027293 0.000233 0.000000 0.000000 0.000000
# 3 0.000233 0.000233 0.010466 0.000000 0.000000 0.000000
# 4 0.000000 0.000000 0.000000 -0.049235 0.000000 0.000000
# 5 0.000000 0.000000 0.000000 0.000000 -0.049235 0.000000
# 6 0.000000 0.000000 0.000000 0.000000 0.000000 0.021905
#
#
# Mechanical properties :
#
#
# Convention : Reuss Voigt Hill
#
# Bulk Modulus (GPa) = 28.21014 28.29809 28.25411
# Shear Modulus (GPa) = 167.19862 12.75184 89.97523
#
# Velocity S-wave (km/s) = 8.32016 2.29774 6.10347
# Velocity P-wave (km/s) = 10.19705 4.33079 7.83376
#
# Compressibility (1/GPa) = 0.03544825
#
# Stress axis : x y z
#
# Youngs Moduli (GPa) = 36.64001 36.64001 95.55160
#
# Poissons Ratio (x) = 0.55936 -0.02222
# Poissons Ratio (y) = 0.55936 -0.02222
# Poissons Ratio (z) = -0.00852 -0.00852
#
# Static dielectric constant tensor:
#      x y z
#    x 1.947710 0.000000 0.000000 
#    y 0.000000 1.947710 0.000000 
#    z 0.000000 0.000000 1.898920 
# 
# From -- ./inp_files/7181.got.cif
#   From: 2010.05.17/outbox.cif.g08.bks.cpg/sg122_4_cif.got.tgz:7181.got - 2010.05.20 11:37:33.
