data_PCOD9561493
_publ_section_title
;
Structure prediction by ZEFSAII (Michael W. Deem and Ramdas Pophale) SiO2 
 PCOD9561493
Probable space group: I -4 2 D
;
_chemical_formula_sum "Si O2"
_cell_formula_units_Z 64
_cell_length_a 10.328739
_cell_length_b 10.328739
_cell_length_c 26.155871
_cell_angle_alpha 90.000000
_cell_angle_beta 90.000000
_cell_angle_gamma 90.000000
_cell_volume 2790.382845
_symmetry_space_group_name_H-M "I -4 2 D"
_symmetry_group_IT_number 122
_symmetry_cell_setting 'tetragonal'
loop_
_space_group_symop_operation_xyz
x,y,z
y,-x,-z
-x,-y,z
-y,x,-z
x,1/2-y,1/4-z
-x,1/2+y,1/4-z
-y,1/2-x,1/4+z
y,1/2+x,1/4+z
1/2+x,1/2+y,1/2+z
1/2+y,1/2-x,1/2-z
1/2-x,1/2-y,1/2+z
1/2-y,1/2+x,1/2-z
1/2+x,-y,3/4-z
1/2-x,y,3/4-z
1/2-y,-x,3/4+z
1/2+y,x,3/4+z
loop_
_atom_site_type_symbol
_atom_site_label
_atom_site_fract_x
_atom_site_fract_y
_atom_site_fract_z
Si Si1 0.550646 0.646044 0.430378
Si Si2 0.569473 0.188983 0.522869
Si Si3 0.916765 0.671587 0.735105
Si Si4 0.321122 0.126186 0.588556
O O1 0.500000 0.500000 0.438712
O O2 0.483213 0.737478 0.472286
O O3 0.702275 0.637496 0.441671
O O4 0.500657 0.681992 0.374089
O O5 0.683094 0.093909 0.505087
O O6 0.445150 0.133283 0.551648
O O7 0.867533 0.564233 0.776234
O O8 0.813284 0.649658 0.690494
O O9 0.339783 0.250000 0.625000
#
# Coordination Sequence:
#
# PCOD9561493 Si02
#       4
#    16  16  16  16
#     4  12  20  39  68 109 138 164 241 304 349 411
#     4  12  22  43  73 103 141 181 228 310 363 409
#     4  11  27  48  65  94 147 195 226 286 370 437
#     4  12  24  40  73 103 136 185 234 287 357 435
#
# _framework density 22.935921
#
# number of rings (size 3 to 8) (size 9 to 14) (size 15 to 20)
#    0.000    0.250   10.000    0.000    3.500    0.000 
#    0.000    6.250    0.000    0.000    0.000    0.000 
#    0.000    0.000    0.000    0.000    0.000    0.000 
#
# Total GULP energy -179194.669182 kJ/mol
# GULP energy per Si atom -5599.833412 kJ/mol
# Density = 2.288372 g / cm^3
# Si number density = 22.935921 Si / 1000 Ang^3
#
#
#
# Elastic Constant Matrix: (Units=GPa)
#
#
# Indices 1 2 3 4 5 6 
#
# 1 119.2669 20.4036 48.2751 0.0000 0.0000 0.0000
# 2 20.4036 119.2669 48.2751 0.0000 0.0000 0.0000
# 3 48.2751 48.2751 125.2337 0.0000 0.0000 0.0000
# 4 0.0000 0.0000 0.0000 31.7631 0.0000 0.0000
# 5 0.0000 0.0000 0.0000 0.0000 31.7631 0.0000
# 6 0.0000 0.0000 0.0000 0.0000 0.0000 37.6004
#
#
#
# Elastic Compliance Matrix: (Units=1/GPa)
#
#
# Indices 1 2 3 4 5 6 
#
# 1 0.009938 -0.000177 -0.003763 0.000000 0.000000 0.000000
# 2 -0.000177 0.009938 -0.003763 0.000000 0.000000 0.000000
# 3 -0.003763 -0.003763 0.010886 0.000000 0.000000 0.000000
# 4 0.000000 0.000000 0.000000 0.031483 0.000000 0.000000
# 5 0.000000 0.000000 0.000000 0.000000 0.031483 0.000000
# 6 0.000000 0.000000 0.000000 0.000000 0.000000 0.026595
#
#
# Mechanical properties :
#
#
# Convention : Reuss Voigt Hill
#
# Bulk Modulus (GPa) = 65.11693 66.40831 65.76262
# Shear Modulus (GPa) = 35.49964 36.67957 36.08960
#
# Velocity S-wave (km/s) = 3.93844 4.00336 3.97104
# Velocity P-wave (km/s) = 7.00958 7.09830 7.05408
#
# Compressibility (1/GPa) = 0.01535699
#
# Stress axis : x y z
#
# Youngs Moduli (GPa) = 100.62585 100.62585 91.86254
#
# Poissons Ratio (x) = 0.01783 0.34564
# Poissons Ratio (y) = 0.01783 0.34564
# Poissons Ratio (z) = 0.37861 0.37861
#
# Static dielectric constant tensor:
#      x y z
#    x 1.865260 0.000000 0.000000 
#    y 0.000000 1.865260 0.000000 
#    z 0.000000 0.000000 1.876090 
# 
# From -- ./inp_files/7837.got.cif
#   From: 2010.05.17/outbox.cif.g08.bks.cpg/sg122_4_cif.got.tgz:7837.got - 2010.05.20 11:37:33.
