data_PCOD9561691
_publ_section_title
;
Structure prediction by ZEFSAII (Michael W. Deem and Ramdas Pophale) SiO2 
 PCOD9561691
Probable space group: P 4/M M M
;
_chemical_formula_sum "Si O2"
_cell_formula_units_Z 72
_cell_length_a 21.427714
_cell_length_b 21.427714
_cell_length_c 7.336242
_cell_angle_alpha 90.000000
_cell_angle_beta 90.000000
_cell_angle_gamma 90.000000
_cell_volume 3368.412972
_symmetry_space_group_name_H-M "P 4/M M M"
_symmetry_group_IT_number 123
_symmetry_cell_setting 'tetragonal'
loop_
_space_group_symop_operation_xyz
x,y,z
-y,x,z
-x,-y,z
y,-x,z
x,-y,-z
-x,y,-z
y,x,-z
-y,-x,-z
-x,-y,-z
y,-x,-z
x,y,-z
-y,x,-z
-x,y,z
x,-y,z
-y,-x,z
y,x,z
loop_
_atom_site_type_symbol
_atom_site_label
_atom_site_fract_x
_atom_site_fract_y
_atom_site_fract_z
Si Si1 0.500000 0.926629 0.722148
Si Si2 0.830069 0.070057 0.777777
Si Si3 0.411192 0.183510 0.291675
Si Si4 0.830976 0.269026 0.219992
Si Si5 0.570818 0.326110 0.278095
O O1 0.500000 0.931105 0.500000
O O2 0.443316 0.880134 0.780182
O O3 0.500000 0.000000 0.783576
O O4 0.889543 0.110457 0.721392
O O5 0.768944 0.108062 0.722237
O O6 0.831387 0.000000 0.713204
O O7 0.830311 0.069417 0.000000
O O8 0.432707 0.188169 0.500000
O O9 0.338101 0.172687 0.288110
O O10 0.422402 0.253526 0.214286
O O11 0.771526 0.228475 0.277762
O O12 0.830720 0.270692 0.000000
O O13 0.574572 0.324876 0.500000
O O14 0.500000 0.346702 0.230688
O O15 0.625808 0.374192 0.218613
#
# Coordination Sequence:
#
# PCOD9561691 Si02
#       5
#     8  16  16  16  16
#     4   9  18  32  49  69  96 128 158 195 245 291
#     4   8  14  25  41  62  89 120 153 190 233 280
#     4  10  18  31  50  70  92 120 160 199 231 276
#     4   9  18  31  46  67  96 126 154 189 237 285
#     4   9  16  26  42  65  91 118 148 186 231 276
#
# _framework density 21.375052
#
# number of rings (size 3 to 8) (size 9 to 14) (size 15 to 20)
#    0.000    3.000    1.111    2.000    0.000    2.667 
#    0.000    2.778    0.000    0.667    0.000    0.000 
#    0.000    0.000    0.000    9.556    0.000    9.333 
#
# Total GULP energy -401343.729738 kJ/mol
# GULP energy per Si atom -5574.218469 kJ/mol
# Density = 2.132640 g / cm^3
# Si number density = 21.375052 Si / 1000 Ang^3
#
#
#
# Elastic Constant Matrix: (Units=GPa)
#
#
# Indices 1 2 3 4 5 6 
#
# 1 217.3559 106.5107 8.8314 0.0000 0.0000 0.0000
# 2 106.5107 217.3559 8.8314 0.0000 0.0000 0.0000
# 3 8.8314 8.8314 78.8291 0.0000 0.0000 0.0000
# 4 0.0000 0.0000 0.0000 -41.3744 0.0000 0.0000
# 5 0.0000 0.0000 0.0000 0.0000 -41.3744 0.0000
# 6 0.0000 0.0000 0.0000 0.0000 0.0000 -32.5763
#
#
#
# Elastic Compliance Matrix: (Units=1/GPa)
#
#
# Indices 1 2 3 4 5 6 
#
# 1 0.006064 -0.002957 -0.000348 0.000000 0.000000 0.000000
# 2 -0.002957 0.006064 -0.000348 0.000000 0.000000 0.000000
# 3 -0.000348 -0.000348 0.012764 0.000000 0.000000 0.000000
# 4 0.000000 0.000000 0.000000 -0.024170 0.000000 0.000000
# 5 0.000000 0.000000 0.000000 0.000000 -0.024170 0.000000
# 6 0.000000 0.000000 0.000000 0.000000 0.000000 -0.030697
#
#
# Mechanical properties :
#
#
# Convention : Reuss Voigt Hill
#
# Bulk Modulus (GPa) = 56.86726 84.65421 70.76074
# Shear Modulus (GPa) = -122.02367 2.89283 -59.56542
#
# Velocity S-wave (km/s) = -7.56379 1.16461 -5.28463
# Velocity P-wave (km/s) = 7.04407 6.44194 2.01498
#
# Compressibility (1/GPa) = 0.01758481
#
# Stress axis : x y z
#
# Youngs Moduli (GPa) = 164.90411 164.90411 78.34750
#
# Poissons Ratio (x) = 0.48770 0.02727
# Poissons Ratio (y) = 0.48770 0.02727
# Poissons Ratio (z) = 0.05739 0.05739
#
# Static dielectric constant tensor:
#      x y z
#    x 1.742340 0.000000 0.000000 
#    y 0.000000 1.742340 0.000000 
#    z 0.000000 0.000000 1.786210 
# 
# From -- ./inp_files/1061.got.cif
#   From: 2010.05.17/outbox.cif.g08.bks.cpg/sg123_1_cif.got.tgz:1061.got - 2010.05.20 11:43:04.
