data_PCOD9561824
_publ_section_title
;
Structure prediction by ZEFSAII (Michael W. Deem and Ramdas Pophale) SiO2 
 PCOD9561824
Probable space group: P 4/M M M
;
_chemical_formula_sum "Si O2"
_cell_formula_units_Z 80
_cell_length_a 13.018637
_cell_length_b 13.018637
_cell_length_c 29.241068
_cell_angle_alpha 90.000000
_cell_angle_beta 90.000000
_cell_angle_gamma 90.000000
_cell_volume 4955.919759
_symmetry_space_group_name_H-M "P 4/M M M"
_symmetry_group_IT_number 123
_symmetry_cell_setting 'tetragonal'
loop_
_space_group_symop_operation_xyz
x,y,z
-y,x,z
-x,-y,z
y,-x,z
x,-y,-z
-x,y,-z
y,x,-z
-y,-x,-z
-x,-y,-z
y,-x,-z
x,y,-z
-y,x,-z
-x,y,z
x,-y,z
-y,-x,z
y,x,z
loop_
_atom_site_type_symbol
_atom_site_label
_atom_site_fract_x
_atom_site_fract_y
_atom_site_fract_z
Si Si1 0.618164 0.211739 0.277341
Si Si2 0.830526 0.000000 0.055098
Si Si3 0.286197 0.886484 0.637525
Si Si4 0.206858 0.619706 0.171302
Si Si5 0.000000 0.379555 0.888719
Si Si6 0.790691 0.381688 0.448920
O O1 0.500000 0.238800 0.283332
O O2 0.689141 0.310860 0.284088
O O3 0.650416 0.131537 0.316025
O O4 0.633137 0.177511 0.224847
O O5 0.899984 0.899984 0.068162
O O6 0.716409 0.000000 0.076192
O O7 0.823470 0.000000 0.000000
O O8 0.195753 0.804248 0.637229
O O9 0.353983 0.864987 0.592664
O O10 0.243949 0.000000 0.636221
O O11 0.241877 0.500000 0.165954
O O12 0.297374 0.702627 0.161067
O O13 0.104257 0.632264 0.141170
O O14 0.000000 0.500000 0.905692
O O15 0.835366 0.365401 0.500000
O O16 0.759800 0.500000 0.445402
O O17 0.692586 0.307415 0.445015
#
# Coordination Sequence:
#
# PCOD9561824 Si02
#       6
#    16   8  16  16   8  16
#     4   9  18  31  47  69  95 122 154 189 226 274
#     4   9  18  33  53  75  99 132 173 212 250 294
#     4  10  21  35  50  67  87 116 152 191 235 278
#     4   9  18  31  47  69  97 130 166 203 244 291
#     4  10  19  30  48  74 103 134 164 204 254 296
#     4   9  18  32  49  71  97 120 145 178 218 271
#
# _framework density 16.142310999999999
#
# number of rings (size 3 to 8) (size 9 to 14) (size 15 to 20)
#    0.000    2.700    0.000    1.500    1.400    3.000 
#    0.000    4.000    0.000    3.600    0.000    2.800 
#    0.000    0.000    0.000   18.600    0.000    0.200 
#
# Total GULP energy -445363.221744 kJ/mol
# GULP energy per Si atom -5567.040272 kJ/mol
# Density = 1.610557 g / cm^3
# Si number density = 16.142311 Si / 1000 Ang^3
#
#
#
# Elastic Constant Matrix: (Units=GPa)
#
#
# Indices 1 2 3 4 5 6 
#
# 1 88.4368 26.0223 43.8431 0.0000 0.0000 0.0000
# 2 26.0223 88.4368 43.8431 0.0000 0.0000 0.0000
# 3 43.8431 43.8431 62.3009 0.0000 0.0000 0.0000
# 4 0.0000 0.0000 0.0000 9.9744 0.0000 0.0000
# 5 0.0000 0.0000 0.0000 0.0000 9.9744 0.0000
# 6 0.0000 0.0000 0.0000 0.0000 0.0000 9.2012
#
#
#
# Elastic Compliance Matrix: (Units=1/GPa)
#
#
# Indices 1 2 3 4 5 6 
#
# 1 0.017489 0.001467 -0.013340 0.000000 0.000000 0.000000
# 2 0.001467 0.017489 -0.013340 0.000000 0.000000 0.000000
# 3 -0.013340 -0.013340 0.034827 0.000000 0.000000 0.000000
# 4 0.000000 0.000000 0.000000 0.100257 0.000000 0.000000
# 5 0.000000 0.000000 0.000000 0.000000 0.100257 0.000000
# 6 0.000000 0.000000 0.000000 0.000000 0.000000 0.108681
#
#
# Mechanical properties :
#
#
# Convention : Reuss Voigt Hill
#
# Bulk Modulus (GPa) = 51.60225 51.84349 51.72287
# Shear Modulus (GPa) = 11.47085 14.19440 12.83262
#
# Velocity S-wave (km/s) = 2.66861 2.96856 2.82258
# Velocity P-wave (km/s) = 6.44452 6.62843 6.53712
#
# Compressibility (1/GPa) = 0.01937900
#
# Stress axis : x y z
#
# Youngs Moduli (GPa) = 57.17769 57.17769 28.71311
#
# Poissons Ratio (x) = -0.08390 0.38305
# Poissons Ratio (y) = -0.08390 0.38305
# Poissons Ratio (z) = 0.76278 0.76278
#
# Static dielectric constant tensor:
#      x y z
#    x 1.520140 0.000000 0.000000 
#    y 0.000000 1.520140 0.000000 
#    z 0.000000 0.000000 1.558700 
# 
# From -- ./inp_files/8382.got.cif
#   From: 2010.05.17/outbox.cif.g08.bks.cpg/sg123_5_cif.got.tgz:8382.got - 2010.05.20 11:43:04.
