data_PCOD9561450
_publ_section_title
;
Structure prediction by ZEFSAII (Michael W. Deem and Ramdas Pophale) SiO2 
 PCOD9561450
Probable space group: I -4 2 D
;
_chemical_formula_sum "Si O2"
_cell_formula_units_Z 36
_cell_length_a 8.972663
_cell_length_b 8.972663
_cell_length_c 17.598406
_cell_angle_alpha 90.000000
_cell_angle_beta 90.000000
_cell_angle_gamma 90.000000
_cell_volume 1416.824460
_symmetry_space_group_name_H-M "I -4 2 D"
_symmetry_group_IT_number 122
_symmetry_cell_setting 'tetragonal'
loop_
_space_group_symop_operation_xyz
x,y,z
y,-x,-z
-x,-y,z
-y,x,-z
x,1/2-y,1/4-z
-x,1/2+y,1/4-z
-y,1/2-x,1/4+z
y,1/2+x,1/4+z
1/2+x,1/2+y,1/2+z
1/2+y,1/2-x,1/2-z
1/2-x,1/2-y,1/2+z
1/2-y,1/2+x,1/2-z
1/2+x,-y,3/4-z
1/2-x,y,3/4-z
1/2-y,-x,3/4+z
1/2+y,x,3/4+z
loop_
_atom_site_type_symbol
_atom_site_label
_atom_site_fract_x
_atom_site_fract_y
_atom_site_fract_z
Si Si1 0.325411 0.468624 0.093391
Si Si2 0.322975 0.776528 0.502803
Si Si3 0.500000 0.500000 0.500000
O O1 0.500000 0.500000 0.076836
O O2 0.256881 0.332044 0.044239
O O3 0.326092 0.427572 0.182284
O O4 0.227724 0.606410 0.065365
O O5 0.413598 0.638209 0.537568
#
# Coordination Sequence:
#
# PCOD9561450 Si02
#       3
#    16  16   4
#     4  11  24  49  85 116 153 222 288 355 434 527
#     4  11  26  47  78 115 162 211 287 346 437 516
#     4  12  32  44  68 120 172 224 268 374 420 528
#
# _framework density 25.408933000000001
#
# number of rings (size 3 to 8) (size 9 to 14) (size 15 to 20)
#    0.000    0.889    4.444    0.000    6.222    8.889 
#    0.000    0.000    0.000    0.000    0.000    0.000 
#    0.000    0.000    0.000    0.000    0.000    0.000 
#
# Total GULP energy -100385.721764 kJ/mol
# GULP energy per Si atom -5576.984542 kJ/mol
# Density = 2.535110 g / cm^3
# Si number density = 25.408933 Si / 1000 Ang^3
#
#
#
# Elastic Constant Matrix: (Units=GPa)
#
#
# Indices 1 2 3 4 5 6 
#
# 1 165.1970 110.8981 74.4417 0.0000 0.0000 0.0000
# 2 110.8981 165.1970 74.4417 0.0000 0.0000 0.0000
# 3 74.4417 74.4417 159.1498 0.0000 0.0000 0.0000
# 4 0.0000 0.0000 0.0000 -40.8736 0.0000 0.0000
# 5 0.0000 0.0000 0.0000 0.0000 -40.8736 0.0000
# 6 0.0000 0.0000 0.0000 0.0000 0.0000 70.1409
#
#
#
# Elastic Compliance Matrix: (Units=1/GPa)
#
#
# Indices 1 2 3 4 5 6 
#
# 1 0.011630 -0.006786 -0.002266 0.000000 0.000000 0.000000
# 2 -0.006786 0.011630 -0.002266 0.000000 0.000000 0.000000
# 3 -0.002266 -0.002266 0.008403 0.000000 0.000000 0.000000
# 4 0.000000 0.000000 0.000000 -0.024466 0.000000 0.000000
# 5 0.000000 0.000000 0.000000 0.000000 -0.024466 0.000000
# 6 0.000000 0.000000 0.000000 0.000000 0.000000 0.014257
#
#
# Mechanical properties :
#
#
# Convention : Reuss Voigt Hill
#
# Bulk Modulus (GPa) = 110.76956 112.12297 111.44626
# Shear Modulus (GPa) = 220.91363 12.99623 116.95493
#
# Velocity S-wave (km/s) = 9.33445 2.26405 6.79183
# Velocity P-wave (km/s) = 12.64379 7.14547 10.26945
#
# Compressibility (1/GPa) = 0.00902775
#
# Stress axis : x y z
#
# Youngs Moduli (GPa) = 85.98372 85.98372 119.00733
#
# Poissons Ratio (x) = 0.58352 0.26962
# Poissons Ratio (y) = 0.58352 0.26962
# Poissons Ratio (z) = 0.19480 0.19480
#
# Static dielectric constant tensor:
#      x y z
#    x 2.147380 0.000000 0.000000 
#    y 0.000000 2.147380 0.000000 
#    z 0.000000 0.000000 2.005820 
# 
# From -- ./inp_files/6629.got.cif
#   From: 2010.05.17/outbox.cif.g08.bks.cpg/sg122_4_cif.got.tgz:6629.got - 2010.05.20 11:37:33.
