data_PCOD9561637
_publ_section_title
;
Structure prediction by ZEFSAII (Michael W. Deem and Ramdas Pophale) SiO2 
 PCOD9561637
Probable space group: P 4/M M M
;
_chemical_formula_sum "Si O2"
_cell_formula_units_Z 64
_cell_length_a 20.548933
_cell_length_b 20.548933
_cell_length_c 7.491983
_cell_angle_alpha 90.000000
_cell_angle_beta 90.000000
_cell_angle_gamma 90.000000
_cell_volume 3163.554608
_symmetry_space_group_name_H-M "P 4/M M M"
_symmetry_group_IT_number 123
_symmetry_cell_setting 'tetragonal'
loop_
_space_group_symop_operation_xyz
x,y,z
-y,x,z
-x,-y,z
y,-x,z
x,-y,-z
-x,y,-z
y,x,-z
-y,-x,-z
-x,-y,-z
y,-x,-z
x,y,-z
-y,x,-z
-x,y,z
x,-y,z
-y,-x,z
y,x,z
loop_
_atom_site_type_symbol
_atom_site_label
_atom_site_fract_x
_atom_site_fract_y
_atom_site_fract_z
Si Si1 0.358582 0.106197 0.780991
Si Si2 0.094889 0.500000 0.201754
Si Si3 0.744535 0.358697 0.786394
Si Si4 0.000000 0.894558 0.782302
Si Si5 0.500000 0.242915 0.706501
Si Si6 0.000000 0.254856 0.782250
O O1 0.429207 0.079595 0.719099
O O2 0.351810 0.181046 0.722205
O O3 0.297821 0.062226 0.727776
O O4 0.361172 0.105596 0.000000
O O5 0.173887 0.500000 0.192867
O O6 0.069874 0.500000 0.000000
O O7 0.695355 0.304646 0.715971
O O8 0.722340 0.432378 0.747963
O O9 0.747314 0.351771 0.000000
O O10 0.936736 0.936736 0.728432
O O11 0.000000 0.819873 0.721566
O O12 0.000000 0.893653 0.000000
O O13 0.500000 0.225423 0.500000
O O14 0.000000 0.253076 0.000000
#
# Coordination Sequence:
#
# PCOD9561637 Si02
#       6
#    16   8  16   8   8   8
#     4   8  14  23  36  57  82 109 141 177 218 259
#     4   8  14  27  42  56  83 119 151 178 211 265
#     4   9  17  30  47  65  88 119 153 187 224 269
#     4   8  14  23  31  40  64 107 147 174 213 270
#     4  10  18  28  45  68  92 116 147 186 226 270
#     4   9  15  21  33  57  83 105 141 193 232 254
#
# _framework density 20.230408000000001
#
# number of rings (size 3 to 8) (size 9 to 14) (size 15 to 20)
#    0.000    3.375    0.000    3.000    0.000    2.000 
#    0.000    7.500    0.000    0.375    0.000   30.625 
#    0.000    0.000    0.000    0.000    0.000    4.000 
#
# Total GULP energy -356736.395911 kJ/mol
# GULP energy per Si atom -5574.006186 kJ/mol
# Density = 2.018436 g / cm^3
# Si number density = 20.230408 Si / 1000 Ang^3
#
#
#
# Elastic Constant Matrix: (Units=GPa)
#
#
# Indices 1 2 3 4 5 6 
#
# 1 180.5629 110.5639 4.3764 0.0000 0.0000 0.0000
# 2 110.5639 180.5629 4.3764 0.0000 0.0000 0.0000
# 3 4.3764 4.3764 61.8878 0.0000 0.0000 0.0000
# 4 0.0000 0.0000 0.0000 -21.4600 0.0000 0.0000
# 5 0.0000 0.0000 0.0000 0.0000 -21.4600 0.0000
# 6 0.0000 0.0000 0.0000 0.0000 0.0000 48.8104
#
#
#
# Elastic Compliance Matrix: (Units=1/GPa)
#
#
# Indices 1 2 3 4 5 6 
#
# 1 0.008864 -0.005422 -0.000243 0.000000 0.000000 0.000000
# 2 -0.005422 0.008864 -0.000243 0.000000 0.000000 0.000000
# 3 -0.000243 -0.000243 0.016193 0.000000 0.000000 0.000000
# 4 0.000000 0.000000 0.000000 -0.046598 0.000000 0.000000
# 5 0.000000 0.000000 0.000000 0.000000 -0.046598 0.000000
# 6 0.000000 0.000000 0.000000 0.000000 0.000000 0.020487
#
#
# Mechanical properties :
#
#
# Convention : Reuss Voigt Hill
#
# Bulk Modulus (GPa) = 45.24166 73.51632 59.37899
# Shear Modulus (GPa) = -255.06176 21.42454 -116.81861
#
# Velocity S-wave (km/s) = -11.24065 3.25780 -7.60720
# Velocity P-wave (km/s) = 12.08543 7.11122 6.90971
#
# Compressibility (1/GPa) = 0.02210352
#
# Stress axis : x y z
#
# Youngs Moduli (GPa) = 112.81481 112.81481 61.75624
#
# Poissons Ratio (x) = 0.61166 0.01503
# Poissons Ratio (y) = 0.61166 0.01503
# Poissons Ratio (z) = 0.02746 0.02746
#
# Static dielectric constant tensor:
#      x y z
#    x 1.714260 0.000000 0.000000 
#    y 0.000000 1.714260 0.000000 
#    z 0.000000 0.000000 1.739320 
# 
# From -- ./inp_files/1012.got.cif
#   From: 2010.05.17/outbox.cif.g08.bks.cpg/sg123_1_cif.got.tgz:1012.got - 2010.05.20 11:43:04.
