data_PCOD9561579
_publ_section_title
;
Structure prediction by ZEFSAII (Michael W. Deem and Ramdas Pophale) SiO2 
 PCOD9561579
Probable space group: I -4 2 D
;
_chemical_formula_sum "Si O2"
_cell_formula_units_Z 80
_cell_length_a 27.938563
_cell_length_b 27.938563
_cell_length_c 5.180664
_cell_angle_alpha 90.000000
_cell_angle_beta 90.000000
_cell_angle_gamma 90.000000
_cell_volume 4043.836201
_symmetry_space_group_name_H-M "I -4 2 D"
_symmetry_group_IT_number 122
_symmetry_cell_setting 'tetragonal'
loop_
_space_group_symop_operation_xyz
x,y,z
y,-x,-z
-x,-y,z
-y,x,-z
x,1/2-y,1/4-z
-x,1/2+y,1/4-z
-y,1/2-x,1/4+z
y,1/2+x,1/4+z
1/2+x,1/2+y,1/2+z
1/2+y,1/2-x,1/2-z
1/2-x,1/2-y,1/2+z
1/2-y,1/2+x,1/2-z
1/2+x,-y,3/4-z
1/2-x,y,3/4-z
1/2-y,-x,3/4+z
1/2+y,x,3/4+z
loop_
_atom_site_type_symbol
_atom_site_label
_atom_site_fract_x
_atom_site_fract_y
_atom_site_fract_z
Si Si1 0.650994 0.943220 0.540512
Si Si2 0.349006 0.943220 0.540511
Si Si3 0.946048 0.446048 0.750000
Si Si4 0.298224 0.441812 0.220391
Si Si5 0.941812 0.798224 0.279609
O O1 0.596633 0.940189 0.450381
O O2 0.661390 0.925601 0.826775
O O3 0.661853 0.000000 0.555391
O O4 0.686485 0.924251 0.314088
O O5 0.403366 0.940189 0.450381
O O6 0.338610 0.925601 0.826775
O O7 0.313515 0.924251 0.314088
O O8 0.941720 0.500000 0.639061
O O9 0.250000 0.428359 0.375000
O O10 0.296656 0.500000 0.196070
O O11 0.928359 0.750000 0.125000
#
# Coordination Sequence:
#
# PCOD9561579 Si02
#       5
#    16  16  16  16  16
#     4   9  17  28  42  60  81 109 146 184 224 265
#     4   9  17  28  42  60  81 109 146 184 224 265
#     4   9  18  32  46  62  90 128 166 198 220 250
#     4   9  16  27  43  61  79 100 135 187 237 275
#     4   9  16  27  43  61  79 100 135 187 237 275
#
# _framework density 19.783196
#
# number of rings (size 3 to 8) (size 9 to 14) (size 15 to 20)
#    0.000    3.000    0.000    1.200    0.000    6.400 
#    0.000    6.000    0.000   16.800    0.000    0.000 
#    0.000    0.000    0.000    0.000    0.000   56.000 
#
# Total GULP energy -222808.273422 kJ/mol
# GULP energy per Si atom -5570.206836 kJ/mol
# Density = 1.973817 g / cm^3
# Si number density = 19.783196 Si / 1000 Ang^3
#
#
#
# Elastic Constant Matrix: (Units=GPa)
#
#
# Indices 1 2 3 4 5 6 
#
# 1 46.1013 -1.0223 -2.1150 0.0000 0.0000 0.0000
# 2 -1.0223 46.1013 -2.1150 0.0000 0.0000 0.0000
# 3 -2.1150 -2.1150 70.2252 0.0000 0.0000 0.0000
# 4 0.0000 0.0000 0.0000 16.0777 0.0000 0.0000
# 5 0.0000 0.0000 0.0000 0.0000 16.0777 0.0000
# 6 0.0000 0.0000 0.0000 0.0000 0.0000 2.1193
#
#
#
# Elastic Compliance Matrix: (Units=1/GPa)
#
#
# Indices 1 2 3 4 5 6 
#
# 1 0.021733 0.000513 0.000670 0.000000 0.000000 0.000000
# 2 0.000513 0.021733 0.000670 0.000000 0.000000 0.000000
# 3 0.000670 0.000670 0.014280 0.000000 0.000000 0.000000
# 4 0.000000 0.000000 0.000000 0.062198 0.000000 0.000000
# 5 0.000000 0.000000 0.000000 0.000000 0.062198 0.000000
# 6 0.000000 0.000000 0.000000 0.000000 0.000000 0.471849
#
#
# Mechanical properties :
#
#
# Convention : Reuss Voigt Hill
#
# Bulk Modulus (GPa) = 16.27272 16.88035 16.57653
# Shear Modulus (GPa) = 7.45411 18.03362 12.74386
#
# Velocity S-wave (km/s) = 1.94321 3.02248 2.54082
# Velocity P-wave (km/s) = 3.64392 4.55321 4.12371
#
# Compressibility (1/GPa) = 0.06145256
#
# Stress axis : x y z
#
# Youngs Moduli (GPa) = 46.01203 46.01203 70.02672
#
# Poissons Ratio (x) = -0.02359 -0.04692
# Poissons Ratio (y) = -0.02359 -0.04692
# Poissons Ratio (z) = -0.03083 -0.03083
#
# Static dielectric constant tensor:
#      x y z
#    x 1.742020 0.000000 0.000000 
#    y 0.000000 1.742020 0.000000 
#    z 0.000000 0.000000 1.763270 
# 
# From -- ./inp_files/1395.got.cif
#   From: 2010.05.17/outbox.cif.g08.bks.cpg/sg122_1_cif.got.tgz:1395.got - 2010.05.20 11:37:33.
