data_PCOD9561618
_publ_section_title
;
Structure prediction by ZEFSAII (Michael W. Deem and Ramdas Pophale) SiO2 
 PCOD9561618
Probable space group: P 4/M M M
;
_chemical_formula_sum "Si O2"
_cell_formula_units_Z 80
_cell_length_a 23.436261
_cell_length_b 23.436261
_cell_length_c 7.282772
_cell_angle_alpha 90.000000
_cell_angle_beta 90.000000
_cell_angle_gamma 90.000000
_cell_volume 4000.123184
_symmetry_space_group_name_H-M "P 4/M M M"
_symmetry_group_IT_number 123
_symmetry_cell_setting 'tetragonal'
loop_
_space_group_symop_operation_xyz
x,y,z
-y,x,z
-x,-y,z
y,-x,z
x,-y,-z
-x,y,-z
y,x,-z
-y,-x,-z
-x,-y,-z
y,-x,-z
x,y,-z
-y,x,-z
-x,y,z
x,-y,z
-y,-x,z
y,x,z
loop_
_atom_site_type_symbol
_atom_site_label
_atom_site_fract_x
_atom_site_fract_y
_atom_site_fract_z
Si Si1 0.349779 0.000000 0.223065
Si Si2 0.219320 0.000000 0.294372
Si Si3 0.778447 0.872986 0.723471
Si Si4 0.774784 0.437267 0.708407
Si Si5 0.438147 0.093123 0.221372
Si Si6 0.311546 0.217055 0.723025
O O1 0.386236 0.945427 0.280785
O O2 0.287667 0.000000 0.302888
O O3 0.345677 0.000000 0.000000
O O4 0.208217 0.062815 0.211289
O O5 0.193947 0.000000 0.500000
O O6 0.775928 0.875813 0.500000
O O7 0.828809 0.828809 0.771011
O O8 0.718676 0.842642 0.782182
O O9 0.752137 0.436818 0.500000
O O10 0.758882 0.500000 0.788184
O O11 0.843516 0.436984 0.703142
O O12 0.765272 0.374387 0.791228
O O13 0.500000 0.067631 0.267015
O O14 0.435546 0.097502 0.000000
O O15 0.315665 0.213781 0.500000
O O16 0.266031 0.266031 0.767489
#
# Coordination Sequence:
#
# PCOD9561618 Si02
#       6
#     8   8  16  16  16  16
#     4  10  19  28  38  54  77 101 127 159 186 214
#     4  10  18  27  43  62  76  94 122 157 194 228
#     4   8  14  24  38  57  78  98 122 151 183 226
#     4   9  16  25  38  57  77  94 121 165 201 216
#     4   9  17  28  39  50  70 104 136 154 178 222
#     4   8  13  22  36  53  75 102 126 148 183 232
#
# _framework density 19.999385
#
# number of rings (size 3 to 8) (size 9 to 14) (size 15 to 20)
#    0.000    3.200    0.000    2.700    0.000    3.600 
#    0.000    0.000    0.000    4.500    0.000    7.700 
#    0.000    0.400    0.000    6.500    0.000    1.200 
#
# Total GULP energy -445647.731346 kJ/mol
# GULP energy per Si atom -5570.596642 kJ/mol
# Density = 1.995387 g / cm^3
# Si number density = 19.999385 Si / 1000 Ang^3
#
#
#
# Elastic Constant Matrix: (Units=GPa)
#
#
# Indices 1 2 3 4 5 6 
#
# 1 113.5734 27.0916 2.1503 0.0000 0.0000 0.0000
# 2 27.0916 113.5734 2.1503 0.0000 0.0000 0.0000
# 3 2.1503 2.1503 83.3677 0.0000 0.0000 0.0000
# 4 0.0000 0.0000 0.0000 26.3507 0.0000 0.0000
# 5 0.0000 0.0000 0.0000 0.0000 26.3507 0.0000
# 6 0.0000 0.0000 0.0000 0.0000 0.0000 29.4926
#
#
#
# Elastic Compliance Matrix: (Units=1/GPa)
#
#
# Indices 1 2 3 4 5 6 
#
# 1 0.009339 -0.002224 -0.000184 0.000000 0.000000 0.000000
# 2 -0.002224 0.009339 -0.000184 0.000000 0.000000 0.000000
# 3 -0.000184 -0.000184 0.012005 0.000000 0.000000 0.000000
# 4 0.000000 0.000000 0.000000 0.037950 0.000000 0.000000
# 5 0.000000 0.000000 0.000000 0.000000 0.037950 0.000000
# 6 0.000000 0.000000 0.000000 0.000000 0.000000 0.033907
#
#
# Mechanical properties :
#
#
# Convention : Reuss Voigt Hill
#
# Bulk Modulus (GPa) = 39.21583 41.47762 40.34673
# Shear Modulus (GPa) = 32.43158 35.04698 33.73928
#
# Velocity S-wave (km/s) = 4.03131 4.19071 4.11179
# Velocity P-wave (km/s) = 6.42804 6.64835 6.53913
#
# Compressibility (1/GPa) = 0.02549990
#
# Stress axis : x y z
#
# Youngs Moduli (GPa) = 107.07882 107.07882 83.30197
#
# Poissons Ratio (x) = 0.23817 0.01529
# Poissons Ratio (y) = 0.23817 0.01529
# Poissons Ratio (z) = 0.01965 0.01965
#
# Static dielectric constant tensor:
#      x y z
#    x 1.724980 0.000000 0.000000 
#    y 0.000000 1.724980 0.000000 
#    z 0.000000 0.000000 1.761990 
# 
# From -- ./inp_files/1460.got.cif
#   From: 2010.05.17/outbox.cif.g08.bks.cpg/sg123_1_cif.got.tgz:1460.got - 2010.05.20 11:43:04.
