data_PCOD9561056
_publ_section_title
;
Structure prediction by ZEFSAII (Michael W. Deem and Ramdas Pophale) SiO2 
 PCOD9561056
Probable space group: I -4 2 D
;
_chemical_formula_sum "Si O2"
_cell_formula_units_Z 48
_cell_length_a 14.172531
_cell_length_b 14.172531
_cell_length_c 11.439068
_cell_angle_alpha 90.000000
_cell_angle_beta 90.000000
_cell_angle_gamma 90.000000
_cell_volume 2297.658462
_symmetry_space_group_name_H-M "I -4 2 D"
_symmetry_group_IT_number 122
_symmetry_cell_setting 'tetragonal'
loop_
_space_group_symop_operation_xyz
x,y,z
y,-x,-z
-x,-y,z
-y,x,-z
x,1/2-y,1/4-z
-x,1/2+y,1/4-z
-y,1/2-x,1/4+z
y,1/2+x,1/4+z
1/2+x,1/2+y,1/2+z
1/2+y,1/2-x,1/2-z
1/2-x,1/2-y,1/2+z
1/2-y,1/2+x,1/2-z
1/2+x,-y,3/4-z
1/2-x,y,3/4-z
1/2-y,-x,3/4+z
1/2+y,x,3/4+z
loop_
_atom_site_type_symbol
_atom_site_label
_atom_site_fract_x
_atom_site_fract_y
_atom_site_fract_z
Si Si1 0.130859 0.970621 0.063348
Si Si2 0.750000 0.541504 0.875000
Si Si3 0.500000 0.000000 0.473680
Si Si4 0.064712 0.171964 0.399143
O O1 0.237569 0.939112 0.064871
O O2 0.089552 0.002141 0.189339
O O3 0.059967 0.889306 0.019606
O O4 0.837476 0.616110 0.865283
O O5 0.783166 0.470050 0.771033
O O6 0.508077 0.091964 0.394073
#
# Coordination Sequence:
#
# PCOD9561056 Si02
#       4
#    16   8   8  16
#     4   9  22  43  69 106 140 193 244 305 377 450
#     4  12  28  44  76 104 150 192 258 296 394 438
#     4  10  21  45  70  96 156 184 242 316 372 436
#     4  12  24  48  69 107 143 198 239 315 363 464
#
# _framework density 20.890834999999999
#
# number of rings (size 3 to 8) (size 9 to 14) (size 15 to 20)
#    0.000    1.667    3.333    2.000    0.000    8.000 
#    0.000    0.000    0.000    0.000    0.000    0.000 
#    0.000    0.000    0.000    0.000    0.000    0.000 
#
# Total GULP energy -133616.232891 kJ/mol
# GULP energy per Si atom -5567.343037 kJ/mol
# Density = 2.084329 g / cm^3
# Si number density = 20.890835 Si / 1000 Ang^3
#
#
#
# Elastic Constant Matrix: (Units=GPa)
#
#
# Indices 1 2 3 4 5 6 
#
# 1 135.4188 27.0040 47.3948 0.0000 0.0000 0.0000
# 2 27.0040 135.4188 47.3948 0.0000 0.0000 0.0000
# 3 47.3948 47.3948 113.9570 0.0000 0.0000 0.0000
# 4 0.0000 0.0000 0.0000 15.3238 0.0000 0.0000
# 5 0.0000 0.0000 0.0000 0.0000 15.3238 0.0000
# 6 0.0000 0.0000 0.0000 0.0000 0.0000 33.7663
#
#
#
# Elastic Compliance Matrix: (Units=1/GPa)
#
#
# Indices 1 2 3 4 5 6 
#
# 1 0.008677 -0.000547 -0.003381 0.000000 0.000000 0.000000
# 2 -0.000547 0.008677 -0.003381 0.000000 0.000000 0.000000
# 3 -0.003381 -0.003381 0.011588 0.000000 0.000000 0.000000
# 4 0.000000 0.000000 0.000000 0.065258 0.000000 0.000000
# 5 0.000000 0.000000 0.000000 0.000000 0.065258 0.000000
# 6 0.000000 0.000000 0.000000 0.000000 0.000000 0.029615
#
#
# Mechanical properties :
#
#
# Convention : Reuss Voigt Hill
#
# Bulk Modulus (GPa) = 69.81894 69.82021 69.81957
# Shear Modulus (GPa) = 23.98467 30.41618 27.20043
#
# Velocity S-wave (km/s) = 3.39203 3.81984 3.61228
# Velocity P-wave (km/s) = 6.98817 7.27660 7.13385
#
# Compressibility (1/GPa) = 0.01432276
#
# Stress axis : x y z
#
# Youngs Moduli (GPa) = 115.24768 115.24768 86.29751
#
# Poissons Ratio (x) = 0.06302 0.29180
# Poissons Ratio (y) = 0.06302 0.29180
# Poissons Ratio (z) = 0.38969 0.38969
#
# Static dielectric constant tensor:
#      x y z
#    x 1.770030 0.000000 0.000000 
#    y 0.000000 1.770030 0.000000 
#    z 0.000000 0.000000 1.847720 
# 
# From -- ./inp_files/3829.got.cif
#   From: 2010.05.17/outbox.cif.g08.bks.cpg/sg122_2_cif.got.tgz:3829.got - 2010.05.20 11:37:33.
