data_PCOD9561612
_publ_section_title
;
Structure prediction by ZEFSAII (Michael W. Deem and Ramdas Pophale) SiO2 
 PCOD9561612
Probable space group: P 4/M M M
;
_chemical_formula_sum "Si O2"
_cell_formula_units_Z 64
_cell_length_a 20.722736
_cell_length_b 20.722736
_cell_length_c 7.739289
_cell_angle_alpha 90.000000
_cell_angle_beta 90.000000
_cell_angle_gamma 90.000000
_cell_volume 3323.496708
_symmetry_space_group_name_H-M "P 4/M M M"
_symmetry_group_IT_number 123
_symmetry_cell_setting 'tetragonal'
loop_
_space_group_symop_operation_xyz
x,y,z
-y,x,z
-x,-y,z
y,-x,z
x,-y,-z
-x,y,-z
y,x,-z
-y,-x,-z
-x,-y,-z
y,-x,-z
x,y,-z
-y,x,-z
-x,y,z
x,-y,z
-y,-x,z
y,x,z
loop_
_atom_site_type_symbol
_atom_site_label
_atom_site_fract_x
_atom_site_fract_y
_atom_site_fract_z
Si Si1 0.824056 0.608679 0.709569
Si Si2 0.572928 0.321650 0.711024
Si Si3 0.247529 0.139119 0.805853
Si Si4 0.500000 0.074675 0.289042
Si Si5 0.072427 0.181159 0.500000
O O1 0.823443 0.608784 0.500000
O O2 0.752331 0.586774 0.764843
O O3 0.838722 0.679958 0.773786
O O4 0.881788 0.561147 0.764177
O O5 0.574243 0.321824 0.500000
O O6 0.500000 0.339622 0.763374
O O7 0.627761 0.372240 0.768593
O O8 0.201065 0.201065 0.783374
O O9 0.224778 0.087738 0.665953
O O10 0.239553 0.114856 0.000000
O O11 0.500000 0.072837 0.500000
O O12 0.500000 0.000000 0.230518
O O13 0.122189 0.122189 0.500000
O O14 0.000000 0.157764 0.500000
#
# Coordination Sequence:
#
# PCOD9561612 Si02
#       5
#    16  16  16   8   8
#     4  10  17  31  52  77 108 143 192 238 288 347
#     4   9  16  25  41  66  98 139 186 238 293 352
#     4  10  21  37  59  88 119 151 191 240 289 338
#     4   9  18  30  47  73 106 145 184 225 278 343
#     4  10  22  41  64  91 123 157 192 234 286 342
#
# _framework density 19.256824999999999
#
# number of rings (size 3 to 8) (size 9 to 14) (size 15 to 20)
#    0.000    2.375    2.500    0.750    0.000    2.875 
#    0.000    1.875    0.000    0.750    0.000    3.500 
#    0.000    0.000    0.000    5.250    0.000    5.000 
#
# Total GULP energy -357242.492233 kJ/mol
# GULP energy per Si atom -5581.913941 kJ/mol
# Density = 1.921300 g / cm^3
# Si number density = 19.256825 Si / 1000 Ang^3
#
#
#
# Elastic Constant Matrix: (Units=GPa)
#
#
# Indices 1 2 3 4 5 6 
#
# 1 131.0636 45.9860 37.3168 0.0000 0.0000 0.0000
# 2 45.9860 131.0636 37.3168 0.0000 0.0000 0.0000
# 3 37.3168 37.3168 55.1829 0.0000 0.0000 0.0000
# 4 0.0000 0.0000 0.0000 -12.9522 0.0000 0.0000
# 5 0.0000 0.0000 0.0000 0.0000 -12.9522 0.0000
# 6 0.0000 0.0000 0.0000 0.0000 0.0000 0.6591
#
#
#
# Elastic Compliance Matrix: (Units=1/GPa)
#
#
# Indices 1 2 3 4 5 6 
#
# 1 0.009827 -0.001927 -0.005342 0.000000 0.000000 0.000000
# 2 -0.001927 0.009827 -0.005342 0.000000 0.000000 0.000000
# 3 -0.005342 -0.005342 0.025347 0.000000 0.000000 0.000000
# 4 0.000000 0.000000 0.000000 -0.077207 0.000000 0.000000
# 5 0.000000 0.000000 0.000000 0.000000 -0.077207 0.000000
# 6 0.000000 0.000000 0.000000 0.000000 0.000000 1.517262
#
#
# Mechanical properties :
#
#
# Convention : Reuss Voigt Hill
#
# Bulk Modulus (GPa) = 50.56182 62.06103 56.31143
# Shear Modulus (GPa) = 3.47303 8.06364 5.76833
#
# Velocity S-wave (km/s) = 1.34441 2.04854 1.73262
# Velocity P-wave (km/s) = 5.35943 6.15576 5.77135
#
# Compressibility (1/GPa) = 0.01977777
#
# Stress axis : x y z
#
# Youngs Moduli (GPa) = 101.75972 101.75972 39.45236
#
# Poissons Ratio (x) = 0.19608 0.21077
# Poissons Ratio (y) = 0.19608 0.21077
# Poissons Ratio (z) = 0.54364 0.54364
#
# Static dielectric constant tensor:
#      x y z
#    x 1.642740 0.000000 0.000000 
#    y 0.000000 1.642740 0.000000 
#    z 0.000000 0.000000 1.719690 
# 
# From -- ./inp_files/895.got.cif
#   From: 2010.05.17/outbox.cif.g08.bks.cpg/sg123_1_cif.got.tgz:895.got - 2010.05.20 11:43:04.
