data_PCOD9561689
_publ_section_title
;
Structure prediction by ZEFSAII (Michael W. Deem and Ramdas Pophale) SiO2 
 PCOD9561689
Probable space group: P 4/M M M
;
_chemical_formula_sum "Si O2"
_cell_formula_units_Z 76
_cell_length_a 14.715201
_cell_length_b 14.715201
_cell_length_c 17.584769
_cell_angle_alpha 90.000000
_cell_angle_beta 90.000000
_cell_angle_gamma 90.000000
_cell_volume 3807.755595
_symmetry_space_group_name_H-M "P 4/M M M"
_symmetry_group_IT_number 123
_symmetry_cell_setting 'tetragonal'
loop_
_space_group_symop_operation_xyz
x,y,z
-y,x,z
-x,-y,z
y,-x,z
x,-y,-z
-x,y,-z
y,x,-z
-y,-x,-z
-x,-y,-z
y,-x,-z
x,y,-z
-y,x,-z
-x,y,z
x,-y,z
-y,-x,z
y,x,z
loop_
_atom_site_type_symbol
_atom_site_label
_atom_site_fract_x
_atom_site_fract_y
_atom_site_fract_z
Si Si1 0.247090 0.247090 0.612133
Si Si2 0.500000 0.888799 0.086306
Si Si3 0.892544 0.892544 0.000000
Si Si4 0.897512 0.897512 0.320501
Si Si5 0.360840 0.891615 0.789631
Si Si6 0.841546 0.158455 0.169180
Si Si7 0.603658 0.109085 0.613996
Si Si8 0.392450 0.392450 0.408347
O O1 0.177407 0.177407 0.655904
O O2 0.171750 0.317602 0.579376
O O3 0.324004 0.324004 0.634970
O O4 0.582950 0.857663 0.138428
O O5 0.500000 0.000000 0.083058
O O6 0.500000 0.856628 0.000000
O O7 0.855713 0.855713 0.079938
O O8 0.000000 0.875320 0.000000
O O9 0.899764 0.899764 0.228679
O O10 0.000000 0.873949 0.347102
O O11 0.259518 0.864873 0.806769
O O12 0.391021 0.867008 0.704581
O O13 0.369826 0.000000 0.790344
O O14 0.500000 0.127150 0.588652
O O15 0.619607 0.000000 0.605339
O O16 0.500000 0.375105 0.392952
O O17 0.378836 0.378836 0.500000
#
# Coordination Sequence:
#
# PCOD9561689 Si02
#       8
#     8   8   4   8  16   8  16   8
#     4  12  20  32  56  89 115 145 191 234 269 319
#     4   9  18  30  46  62  82 121 172 219 272 339
#     4  11  24  36  44  60  94 136 178 229 288 346
#     4  11  22  35  52  75 112 160 205 247 292 340
#     4  10  18  31  47  64  90 126 166 217 276 331
#     4  12  22  33  49  70  96 134 187 243 290 347
#     4  10  19  32  50  75 108 143 178 225 284 334
#     4   9  20  41  67  95 128 159 181 209 264 338
#
# _framework density 19.959263
#
# number of rings (size 3 to 8) (size 9 to 14) (size 15 to 20)
#    0.000    1.632    3.158    3.474    1.474    0.842 
#    0.000    0.000    0.000    2.526    0.000    8.105 
#    0.000    0.421    0.000    0.947    0.000    0.632 
#
# Total GULP energy -423085.694287 kJ/mol
# GULP energy per Si atom -5566.917030 kJ/mol
# Density = 1.991383 g / cm^3
# Si number density = 19.959263 Si / 1000 Ang^3
#
#
#
# Elastic Constant Matrix: (Units=GPa)
#
#
# Indices 1 2 3 4 5 6 
#
# 1 126.3940 45.9508 41.9150 0.0000 0.0000 0.0000
# 2 45.9508 126.3940 41.9150 0.0000 0.0000 0.0000
# 3 41.9150 41.9150 125.6750 0.0000 0.0000 0.0000
# 4 0.0000 0.0000 0.0000 -172.5200 0.0000 0.0000
# 5 0.0000 0.0000 0.0000 0.0000 -172.5200 0.0000
# 6 0.0000 0.0000 0.0000 0.0000 0.0000 41.4110
#
#
#
# Elastic Compliance Matrix: (Units=1/GPa)
#
#
# Indices 1 2 3 4 5 6 
#
# 1 0.009679 -0.002753 -0.002310 0.000000 0.000000 0.000000
# 2 -0.002753 0.009679 -0.002310 0.000000 0.000000 0.000000
# 3 -0.002310 -0.002310 0.009498 0.000000 0.000000 0.000000
# 4 0.000000 0.000000 0.000000 -0.005796 0.000000 0.000000
# 5 0.000000 0.000000 0.000000 0.000000 -0.005796 0.000000
# 6 0.000000 0.000000 0.000000 0.000000 0.000000 0.024148
#
#
# Mechanical properties :
#
#
# Convention : Reuss Voigt Hill
#
# Bulk Modulus (GPa) = 70.87201 70.89163 70.88182
# Shear Modulus (GPa) = 82.15796 -44.14697 19.00549
#
# Velocity S-wave (km/s) = 6.42279 -4.70814 3.08914
# Velocity P-wave (km/s) = 9.51779 2.45761 6.95083
#
# Compressibility (1/GPa) = 0.01410994
#
# Stress axis : x y z
#
# Youngs Moduli (GPa) = 103.32176 103.32176 105.28717
#
# Poissons Ratio (x) = 0.28441 0.24320
# Poissons Ratio (y) = 0.28441 0.24320
# Poissons Ratio (z) = 0.23866 0.23866
#
# Static dielectric constant tensor:
#      x y z
#    x 1.746070 0.000000 0.000000 
#    y 0.000000 1.746070 0.000000 
#    z 0.000000 0.000000 1.755340 
# 
# From -- ./inp_files/6355.got.cif
#   From: 2010.05.17/outbox.cif.g08.bks.cpg/sg123_4_cif.got.tgz:6355.got - 2010.05.20 11:43:04.
