data_PCOD9561036
_publ_section_title
;
Structure prediction by ZEFSAII (Michael W. Deem and Ramdas Pophale) SiO2 
 PCOD9561036
Probable space group: I -4 2 D
;
_chemical_formula_sum "Si O2"
_cell_formula_units_Z 60
_cell_length_a 13.736636
_cell_length_b 13.736636
_cell_length_c 15.378556
_cell_angle_alpha 90.000000
_cell_angle_beta 90.000000
_cell_angle_gamma 90.000000
_cell_volume 2901.859217
_symmetry_space_group_name_H-M "I -4 2 D"
_symmetry_group_IT_number 122
_symmetry_cell_setting 'tetragonal'
loop_
_space_group_symop_operation_xyz
x,y,z
y,-x,-z
-x,-y,z
-y,x,-z
x,1/2-y,1/4-z
-x,1/2+y,1/4-z
-y,1/2-x,1/4+z
y,1/2+x,1/4+z
1/2+x,1/2+y,1/2+z
1/2+y,1/2-x,1/2-z
1/2-x,1/2-y,1/2+z
1/2-y,1/2+x,1/2-z
1/2+x,-y,3/4-z
1/2-x,y,3/4-z
1/2-y,-x,3/4+z
1/2+y,x,3/4+z
loop_
_atom_site_type_symbol
_atom_site_label
_atom_site_fract_x
_atom_site_fract_y
_atom_site_fract_z
Si Si1 0.750000 0.206155 0.375000
Si Si2 0.000000 0.000000 0.500000
Si Si3 0.649108 0.481057 0.846311
Si Si4 0.615128 0.651788 0.718717
Si Si5 0.350994 0.539820 0.474046
O O1 0.681013 0.129537 0.427175
O O2 0.686646 0.276935 0.313011
O O3 0.026103 0.085258 0.566986
O O4 0.750000 0.530707 0.875000
O O5 0.608583 0.553081 0.773267
O O6 0.556793 0.644574 0.628953
O O7 0.567019 0.746326 0.763502
O O8 0.431517 0.614452 0.508615
#
# Coordination Sequence:
#
# PCOD9561036 Si02
#       5
#     8   4  16  16  16
#     4   8  20  40  62  84 130 152 210 262 294 386
#     4  12  24  40  60  92 134 160 212 264 308 392
#     4  10  23  39  61  90 124 169 205 254 318 380
#     4  10  21  42  62  90 124 165 208 263 320 367
#     4   9  20  40  62  91 125 155 210 266 315 382
#
# _framework density 20.676399
#
# number of rings (size 3 to 8) (size 9 to 14) (size 15 to 20)
#    0.800    1.867    0.000    1.600    0.000    8.533 
#    4.800    8.000    0.000    0.000    0.000    0.000 
#    0.000    0.000    0.000    0.000    0.000    0.000 
#
# Total GULP energy -167045.662022 kJ/mol
# GULP energy per Si atom -5568.188734 kJ/mol
# Density = 2.062934 g / cm^3
# Si number density = 20.676399 Si / 1000 Ang^3
#
#
#
# Elastic Constant Matrix: (Units=GPa)
#
#
# Indices 1 2 3 4 5 6 
#
# 1 87.5395 2.2980 8.9570 0.0000 0.0000 0.0000
# 2 2.2980 87.5395 8.9570 0.0000 0.0000 0.0000
# 3 8.9570 8.9570 38.8777 0.0000 0.0000 0.0000
# 4 0.0000 0.0000 0.0000 55.5507 0.0000 0.0000
# 5 0.0000 0.0000 0.0000 0.0000 55.5507 0.0000
# 6 0.0000 0.0000 0.0000 0.0000 0.0000 29.8862
#
#
#
# Elastic Compliance Matrix: (Units=1/GPa)
#
#
# Indices 1 2 3 4 5 6 
#
# 1 0.011699 -0.000032 -0.002688 0.000000 0.000000 0.000000
# 2 -0.000032 0.011699 -0.002688 0.000000 0.000000 0.000000
# 3 -0.002688 -0.002688 0.026960 0.000000 0.000000 0.000000
# 4 0.000000 0.000000 0.000000 0.018002 0.000000 0.000000
# 5 0.000000 0.000000 0.000000 0.000000 0.018002 0.000000
# 6 0.000000 0.000000 0.000000 0.000000 0.000000 0.033460
#
#
# Mechanical properties :
#
#
# Convention : Reuss Voigt Hill
#
# Bulk Modulus (GPa) = 25.28915 28.26453 26.77684
# Shear Modulus (GPa) = 34.76587 41.11384 37.93985
#
# Velocity S-wave (km/s) = 4.10497 4.46403 4.28826
# Velocity P-wave (km/s) = 5.89281 6.34585 6.12352
#
# Compressibility (1/GPa) = 0.03954266
#
# Stress axis : x y z
#
# Youngs Moduli (GPa) = 85.47525 85.47526 37.09167
#
# Poissons Ratio (x) = 0.00274 0.09970
# Poissons Ratio (y) = 0.00274 0.09970
# Poissons Ratio (z) = 0.22976 0.22976
#
# Static dielectric constant tensor:
#      x y z
#    x 1.761970 0.000000 0.000000 
#    y 0.000000 1.761970 0.000000 
#    z 0.000000 0.000000 1.742400 
# 
# From -- ./inp_files/5201.got.cif
#   From: 2010.05.17/outbox.cif.g08.bks.cpg/sg122_3_cif.got.tgz:5201.got - 2010.05.20 11:37:33.
