data_PCOD9561235
_publ_section_title
;
Structure prediction by ZEFSAII (Michael W. Deem and Ramdas Pophale) SiO2 
 PCOD9561235
Probable space group: I -4 2 D
;
_chemical_formula_sum "Si O2"
_cell_formula_units_Z 64
_cell_length_a 19.658289
_cell_length_b 19.658289
_cell_length_c 7.631216
_cell_angle_alpha 90.000000
_cell_angle_beta 90.000000
_cell_angle_gamma 90.000000
_cell_volume 2949.070652
_symmetry_space_group_name_H-M "I -4 2 D"
_symmetry_group_IT_number 122
_symmetry_cell_setting 'tetragonal'
loop_
_space_group_symop_operation_xyz
x,y,z
y,-x,-z
-x,-y,z
-y,x,-z
x,1/2-y,1/4-z
-x,1/2+y,1/4-z
-y,1/2-x,1/4+z
y,1/2+x,1/4+z
1/2+x,1/2+y,1/2+z
1/2+y,1/2-x,1/2-z
1/2-x,1/2-y,1/2+z
1/2-y,1/2+x,1/2-z
1/2+x,-y,3/4-z
1/2-x,y,3/4-z
1/2-y,-x,3/4+z
1/2+y,x,3/4+z
loop_
_atom_site_type_symbol
_atom_site_label
_atom_site_fract_x
_atom_site_fract_y
_atom_site_fract_z
Si Si1 0.495976 0.157316 0.405840
Si Si2 0.860010 0.102122 0.338938
Si Si3 0.609447 0.827224 0.691656
Si Si4 0.247586 0.110786 0.584150
O O1 0.557554 0.103532 0.394440
O O2 0.446886 0.140611 0.565130
O O3 0.539473 0.226724 0.423196
O O4 0.450735 0.164502 0.232482
O O5 0.842107 0.181122 0.381957
O O6 0.835546 0.089251 0.143160
O O7 0.614978 0.750000 0.625000
O O8 0.682692 0.861470 0.659729
O O9 0.250000 0.101629 0.375000
#
# Coordination Sequence:
#
# PCOD9561235 Si02
#       4
#    16  16  16  16
#     4  10  25  46  73 103 149 197 243 315 380 444
#     4  10  25  45  71 106 150 194 255 306 377 456
#     4  12  26  42  75 113 143 200 250 311 389 445
#     4  10  23  47  71 101 157 184 252 315 366 446
#
# _framework density 21.701753
#
# number of rings (size 3 to 8) (size 9 to 14) (size 15 to 20)
#    1.500    0.000    2.500    0.750    7.000    4.500 
#    0.000    0.000    0.000    0.000    0.000    0.000 
#    0.000    0.000    0.000    0.000    0.000    0.000 
#
# Total GULP energy -178726.112995 kJ/mol
# GULP energy per Si atom -5585.191031 kJ/mol
# Density = 2.165236 g / cm^3
# Si number density = 21.701753 Si / 1000 Ang^3
#
#
#
# Elastic Constant Matrix: (Units=GPa)
#
#
# Indices 1 2 3 4 5 6 
#
# 1 83.3466 -2.7067 14.4167 0.0000 0.0000 0.0000
# 2 -2.7067 83.3466 14.4167 0.0000 0.0000 0.0000
# 3 14.4167 14.4167 165.6760 0.0000 0.0000 0.0000
# 4 0.0000 0.0000 0.0000 -22.3643 0.0000 0.0000
# 5 0.0000 0.0000 0.0000 0.0000 -22.3643 0.0000
# 6 0.0000 0.0000 0.0000 0.0000 0.0000 86.5223
#
#
#
# Elastic Compliance Matrix: (Units=1/GPa)
#
#
# Indices 1 2 3 4 5 6 
#
# 1 0.012210 0.000589 -0.001114 0.000000 0.000000 0.000000
# 2 0.000589 0.012210 -0.001114 0.000000 0.000000 0.000000
# 3 -0.001114 -0.001114 0.006230 0.000000 0.000000 0.000000
# 4 0.000000 0.000000 0.000000 -0.044714 0.000000 0.000000
# 5 0.000000 0.000000 0.000000 0.000000 -0.044714 0.000000
# 6 0.000000 0.000000 0.000000 0.000000 0.000000 0.011558
#
#
# Mechanical properties :
#
#
# Convention : Reuss Voigt Hill
#
# Bulk Modulus (GPa) = 36.53256 42.73582 39.63419
# Shear Modulus (GPa) = -143.59485 28.77491 -57.40997
#
# Velocity S-wave (km/s) = -8.14316 3.64528 -5.14893
# Velocity P-wave (km/s) = 8.45838 6.11984 4.12867
#
# Compressibility (1/GPa) = 0.02737284
#
# Stress axis : x y z
#
# Youngs Moduli (GPa) = 81.90094 81.90094 160.52126
#
# Poissons Ratio (x) = -0.04825 0.17878
# Poissons Ratio (y) = -0.04825 0.17878
# Poissons Ratio (z) = 0.09122 0.09122
#
# Static dielectric constant tensor:
#      x y z
#    x 1.812570 0.000000 0.000000 
#    y 0.000000 1.812570 0.000000 
#    z 0.000000 0.000000 1.742000 
# 
# From -- ./inp_files/2534.got.cif
#   From: 2010.05.17/outbox.cif.g08.bks.cpg/sg122_2_cif.got.tgz:2534.got - 2010.05.20 11:37:33.
