data_PCOD9561089
_publ_section_title
;
Structure prediction by ZEFSAII (Michael W. Deem and Ramdas Pophale) SiO2 
 PCOD9561089
Probable space group: I -4 2 D
;
_chemical_formula_sum "Si O2"
_cell_formula_units_Z 60
_cell_length_a 16.354232
_cell_length_b 16.354232
_cell_length_c 11.306720
_cell_angle_alpha 90.000000
_cell_angle_beta 90.000000
_cell_angle_gamma 90.000000
_cell_volume 3024.105556
_symmetry_space_group_name_H-M "I -4 2 D"
_symmetry_group_IT_number 122
_symmetry_cell_setting 'tetragonal'
loop_
_space_group_symop_operation_xyz
x,y,z
y,-x,-z
-x,-y,z
-y,x,-z
x,1/2-y,1/4-z
-x,1/2+y,1/4-z
-y,1/2-x,1/4+z
y,1/2+x,1/4+z
1/2+x,1/2+y,1/2+z
1/2+y,1/2-x,1/2-z
1/2-x,1/2-y,1/2+z
1/2-y,1/2+x,1/2-z
1/2+x,-y,3/4-z
1/2-x,y,3/4-z
1/2-y,-x,3/4+z
1/2+y,x,3/4+z
loop_
_atom_site_type_symbol
_atom_site_label
_atom_site_fract_x
_atom_site_fract_y
_atom_site_fract_z
Si Si1 0.994141 0.822047 0.540543
Si Si2 0.000000 0.000000 0.500000
Si Si3 0.846577 0.250000 0.625000
Si Si4 0.698698 0.082795 0.035592
Si Si5 0.963424 0.621722 0.201546
O O1 0.958311 0.750000 0.625000
O O2 0.957608 0.818632 0.411087
O O3 0.947499 0.712351 0.248217
O O4 0.090004 0.798008 0.539977
O O5 0.917160 0.013113 0.423749
O O6 0.799549 0.319316 0.553979
O O7 0.631313 0.058122 0.937434
O O8 0.906857 0.555082 0.267433
#
# Coordination Sequence:
#
# PCOD9561089 Si02
#       5
#    16   4   8  16  16
#     4  10  22  39  62 100 129 172 220 277 351 426
#     4  12  20  40  68  92 134 184 212 288 348 430
#     4  10  22  40  60  96 138 160 222 286 336 422
#     4  11  22  43  64  94 136 170 227 288 352 418
#     4  10  24  44  67  93 128 182 233 287 344 432
#
# _framework density 19.840577
#
# number of rings (size 3 to 8) (size 9 to 14) (size 15 to 20)
#    0.800    0.800    2.667    1.600    0.000    6.400 
#    4.800    0.000    0.000    0.000    0.000    0.000 
#    0.000    0.000    0.000    0.000    0.000    0.000 
#
# Total GULP energy -167108.277987 kJ/mol
# GULP energy per Si atom -5570.275933 kJ/mol
# Density = 1.979542 g / cm^3
# Si number density = 19.840577 Si / 1000 Ang^3
#
#
#
# Elastic Constant Matrix: (Units=GPa)
#
#
# Indices 1 2 3 4 5 6 
#
# 1 122.5401 15.1561 39.8507 0.0000 0.0000 0.0000
# 2 15.1561 122.5401 39.8507 0.0000 0.0000 0.0000
# 3 39.8507 39.8507 120.8329 0.0000 0.0000 0.0000
# 4 0.0000 0.0000 0.0000 23.2693 0.0000 0.0000
# 5 0.0000 0.0000 0.0000 0.0000 23.2693 0.0000
# 6 0.0000 0.0000 0.0000 0.0000 0.0000 19.8525
#
#
#
# Elastic Compliance Matrix: (Units=1/GPa)
#
#
# Indices 1 2 3 4 5 6 
#
# 1 0.009144 -0.000168 -0.002960 0.000000 0.000000 0.000000
# 2 -0.000168 0.009144 -0.002960 0.000000 0.000000 0.000000
# 3 -0.002960 -0.002960 0.010228 0.000000 0.000000 0.000000
# 4 0.000000 0.000000 0.000000 0.042975 0.000000 0.000000
# 5 0.000000 0.000000 0.000000 0.000000 0.042975 0.000000
# 6 0.000000 0.000000 0.000000 0.000000 0.000000 0.050371
#
#
# Mechanical properties :
#
#
# Convention : Reuss Voigt Hill
#
# Bulk Modulus (GPa) = 61.20262 61.73647 61.46954
# Shear Modulus (GPa) = 27.40294 31.34859 29.37576
#
# Velocity S-wave (km/s) = 3.72042 3.97926 3.85202
# Velocity P-wave (km/s) = 7.02635 7.23163 7.12973
#
# Compressibility (1/GPa) = 0.01633917
#
# Stress axis : x y z
#
# Youngs Moduli (GPa) = 109.36031 109.36031 97.76643
#
# Poissons Ratio (x) = 0.01840 0.28941
# Poissons Ratio (y) = 0.01840 0.28941
# Poissons Ratio (z) = 0.32373 0.32373
#
# Static dielectric constant tensor:
#      x y z
#    x 1.729130 0.000000 0.000000 
#    y 0.000000 1.729130 0.000000 
#    z 0.000000 0.000000 1.743980 
# 
# From -- ./inp_files/2330.got.cif
#   From: 2010.05.17/outbox.cif.g08.bks.cpg/sg122_2_cif.got.tgz:2330.got - 2010.05.20 11:37:33.
