data_PCOD9561181
_publ_section_title
;
Structure prediction by ZEFSAII (Michael W. Deem and Ramdas Pophale) SiO2 
 PCOD9561181
Probable space group: I -4 2 D
;
_chemical_formula_sum "Si O2"
_cell_formula_units_Z 56
_cell_length_a 15.595080
_cell_length_b 15.595080
_cell_length_c 11.378568
_cell_angle_alpha 90.000000
_cell_angle_beta 90.000000
_cell_angle_gamma 90.000000
_cell_volume 2767.341928
_symmetry_space_group_name_H-M "I -4 2 D"
_symmetry_group_IT_number 122
_symmetry_cell_setting 'tetragonal'
loop_
_space_group_symop_operation_xyz
x,y,z
y,-x,-z
-x,-y,z
-y,x,-z
x,1/2-y,1/4-z
-x,1/2+y,1/4-z
-y,1/2-x,1/4+z
y,1/2+x,1/4+z
1/2+x,1/2+y,1/2+z
1/2+y,1/2-x,1/2-z
1/2-x,1/2-y,1/2+z
1/2-y,1/2+x,1/2-z
1/2+x,-y,3/4-z
1/2-x,y,3/4-z
1/2-y,-x,3/4+z
1/2+y,x,3/4+z
loop_
_atom_site_type_symbol
_atom_site_label
_atom_site_fract_x
_atom_site_fract_y
_atom_site_fract_z
Si Si1 0.386472 0.452929 0.054444
Si Si2 0.273531 0.352321 0.626407
Si Si3 0.750000 0.568187 0.375000
Si Si4 0.906920 0.037357 0.809449
O O1 0.304590 0.392082 0.048301
O O2 0.386738 0.506038 0.176284
O O3 0.396661 0.526769 0.956010
O O4 0.281540 0.250000 0.625000
O O5 0.250011 0.376820 0.492710
O O6 0.361763 0.395637 0.669769
O O7 0.833522 0.508927 0.365683
O O8 0.000000 0.000000 0.839292
#
# Coordination Sequence:
#
# PCOD9561181 Si02
#       4
#    16  16   8  16
#     4  10  22  46  66 102 141 178 237 287 356 425
#     4  11  26  44  71 102 140 185 239 299 353 430
#     4  10  26  44  64 104 138 172 244 284 360 434
#     4  11  23  42  70  99 137 186 225 293 357 424
#
# _framework density 20.236025000000001
#
# number of rings (size 3 to 8) (size 9 to 14) (size 15 to 20)
#    0.000    1.429    4.286    0.000    4.000    8.000 
#    0.000    0.000    0.000    0.000    0.000    0.000 
#    0.000    0.000    0.000    0.000    0.000    0.000 
#
# Total GULP energy -156330.759124 kJ/mol
# GULP energy per Si atom -5583.241397 kJ/mol
# Density = 2.018997 g / cm^3
# Si number density = 20.236025 Si / 1000 Ang^3
#
#
#
# Elastic Constant Matrix: (Units=GPa)
#
#
# Indices 1 2 3 4 5 6 
#
# 1 162.0513 88.9936 8.0290 0.0000 0.0000 0.0000
# 2 88.9936 162.0513 8.0290 0.0000 0.0000 0.0000
# 3 8.0290 8.0290 33.8269 0.0000 0.0000 0.0000
# 4 0.0000 0.0000 0.0000 27.3319 0.0000 0.0000
# 5 0.0000 0.0000 0.0000 0.0000 27.3319 0.0000
# 6 0.0000 0.0000 0.0000 0.0000 0.0000 32.0116
#
#
#
# Elastic Compliance Matrix: (Units=1/GPa)
#
#
# Indices 1 2 3 4 5 6 
#
# 1 0.008866 -0.004822 -0.000960 0.000000 0.000000 0.000000
# 2 -0.004822 0.008866 -0.000960 0.000000 0.000000 0.000000
# 3 -0.000960 -0.000960 0.030018 0.000000 0.000000 0.000000
# 4 0.000000 0.000000 0.000000 0.036587 0.000000 0.000000
# 5 0.000000 0.000000 0.000000 0.000000 0.036587 0.000000
# 6 0.000000 0.000000 0.000000 0.000000 0.000000 0.031239
#
#
# Mechanical properties :
#
#
# Convention : Reuss Voigt Hill
#
# Bulk Modulus (GPa) = 29.18228 63.11476 46.14852
# Shear Modulus (GPa) = 28.23748 34.19360 31.21554
#
# Velocity S-wave (km/s) = 3.73957 4.11510 3.93182
# Velocity P-wave (km/s) = 5.75309 7.33729 6.59294
#
# Compressibility (1/GPa) = 0.03426737
#
# Stress axis : x y z
#
# Youngs Moduli (GPa) = 112.78685 112.78685 33.31328
#
# Poissons Ratio (x) = 0.54380 0.03198
# Poissons Ratio (y) = 0.54380 0.03198
# Poissons Ratio (z) = 0.10828 0.10828
#
# Static dielectric constant tensor:
#      x y z
#    x 1.721500 0.000000 0.000000 
#    y 0.000000 1.721500 0.000000 
#    z 0.000000 0.000000 1.771000 
# 
# From -- ./inp_files/3891.got.cif
#   From: 2010.05.17/outbox.cif.g08.bks.cpg/sg122_2_cif.got.tgz:3891.got - 2010.05.20 11:37:33.
