data_PCOD9561587
_publ_section_title
;
Structure prediction by ZEFSAII (Michael W. Deem and Ramdas Pophale) SiO2 
 PCOD9561587
Probable space group: I -4 2 D
;
_chemical_formula_sum "Si O2"
_cell_formula_units_Z 46
_cell_length_a 15.000000
_cell_length_b 15.000000
_cell_length_c 21.000000
_cell_angle_alpha 90.000000
_cell_angle_beta 90.000000
_cell_angle_gamma 90.000000
_cell_volume 4725.000000
_symmetry_space_group_name_H-M "I -4 2 D"
_symmetry_group_IT_number 122
_symmetry_cell_setting 'tetragonal'
loop_
_space_group_symop_operation_xyz
x,y,z
y,-x,-z
-x,-y,z
-y,x,-z
x,1/2-y,1/4-z
-x,1/2+y,1/4-z
-y,1/2-x,1/4+z
y,1/2+x,1/4+z
1/2+x,1/2+y,1/2+z
1/2+y,1/2-x,1/2-z
1/2-x,1/2-y,1/2+z
1/2-y,1/2+x,1/2-z
1/2+x,-y,3/4-z
1/2-x,y,3/4-z
1/2-y,-x,3/4+z
1/2+y,x,3/4+z
loop_
_atom_site_type_symbol
_atom_site_label
_atom_site_fract_x
_atom_site_fract_y
_atom_site_fract_z
Si Si1 0.662932 0.211728 0.551253
Si Si2 0.660091 0.177341 0.015344
Si Si3 0.750000 0.529029 0.875000
Si Si4 0.985339 0.252456 0.946847
Si Si5 0.500000 0.500000 0.000000
Si Si6 0.065942 0.924811 0.381017
Si Si7 0.612057 0.498543 0.667573
O O1 0.663764 0.250000 0.625000
O O2 0.755540 0.249260 0.516635
O O3 0.580224 0.251375 0.508812
O O4 0.645129 0.101692 0.556071
O O5 0.594261 0.218697 0.068415
O O6 0.710480 0.084311 0.034258
O O7 0.585919 0.148129 0.959401
O O8 0.836086 0.466572 0.863160
O O9 0.942191 0.332029 0.904246
O O10 0.992319 0.163865 0.901498
O O11 0.420693 0.473999 0.047430
O O12 0.000000 0.000000 0.349514
O O13 0.500000 0.500000 0.665504
#
# Coordination Sequence:
#
# PCOD9561587 Si02
#       7
#    16  16   8  16   4  16  16
#     4  12  27  51  81 114 153 213 270 326 407 479
#     4  12  25  48  79 111 157 208 254 325 399 470
#     4  12  22  40  76 104 154 198 246 302 386 468
#     4  12  26  51  76 111 157 200 264 329 394 473
#     4   8  20  40  60 100 148 180 232 278 372 468
#     4  10  23  40  68 107 149 193 241 300 375 477
#     4  12  28  50  84 115 160 211 266 336 405 474
#
# _framework density 9.7354500000000002
#
# number of rings (size 3 to 8) (size 9 to 14) (size 15 to 20)
#    0.522    0.000    6.087    1.043    2.435    4.870 
#    0.000    0.000    0.000    0.000    0.000    0.000 
#    0.000    0.000    0.000    0.000    0.000    0.000 
#
# Total GULP energy -256231.181266 kJ/mol
# GULP energy per Si atom -5570.243071 kJ/mol
# Density = 0.971329 g / cm^3
# Si number density = 9.735450 Si / 1000 Ang^3
#
#
#
# Elastic Constant Matrix: (Units=GPa)
#
#
# Indices 1 2 3 4 5 6 
#
# 1 141.7903 33.5662 30.2504 0.0000 0.0000 0.0000
# 2 33.5662 141.7903 30.2504 0.0000 0.0000 0.0000
# 3 30.2504 30.2504 92.9827 0.0000 0.0000 0.0000
# 4 0.0000 0.0000 0.0000 43.8268 0.0000 0.0000
# 5 0.0000 0.0000 0.0000 0.0000 43.8268 0.0000
# 6 0.0000 0.0000 0.0000 0.0000 0.0000 48.2396
#
#
#
# Elastic Compliance Matrix: (Units=1/GPa)
#
#
# Indices 1 2 3 4 5 6 
#
# 1 0.007832 -0.001408 -0.002090 0.000000 0.000000 0.000000
# 2 -0.001408 0.007832 -0.002090 0.000000 0.000000 0.000000
# 3 -0.002090 -0.002090 0.012114 0.000000 0.000000 0.000000
# 4 0.000000 0.000000 0.000000 0.022817 0.000000 0.000000
# 5 0.000000 0.000000 0.000000 0.000000 0.022817 0.000000
# 6 0.000000 0.000000 0.000000 0.000000 0.000000 0.020730
#
#
# Mechanical properties :
#
#
# Convention : Reuss Voigt Hill
#
# Bulk Modulus (GPa) = 60.23187 62.74413 61.48800
# Shear Modulus (GPa) = 45.10511 46.01174 45.55843
#
# Velocity S-wave (km/s) = 4.81827 4.86645 4.84242
# Velocity P-wave (km/s) = 7.87119 7.99193 7.93179
#
# Compressibility (1/GPa) = 0.01660251
#
# Stress axis : x y z
#
# Youngs Moduli (GPa) = 127.68312 127.68312 82.54586
#
# Poissons Ratio (x) = 0.17980 0.17251
# Poissons Ratio (y) = 0.17980 0.17251
# Poissons Ratio (z) = 0.26684 0.26684
#
# Static dielectric constant tensor:
#      x y z
#    x 1.716410 0.000000 0.000000 
#    y 0.000000 1.716410 0.000000 
#    z 0.000000 0.000000 1.736260 
# 
# From -- ./inp_files/7364.got.cif
#   From: 2010.05.17/outbox.ucp.g08.bks.cvg/sg122_4_cif.got.tgz:7364.got - 2010.06.11 11:35:26.
