data_PCOD9561251
_publ_section_title
;
Structure prediction by ZEFSAII (Michael W. Deem and Ramdas Pophale) SiO2 
 PCOD9561251
Probable space group: I -4 2 D
;
_chemical_formula_sum "Si O2"
_cell_formula_units_Z 76
_cell_length_a 14.326844
_cell_length_b 14.326844
_cell_length_c 18.994293
_cell_angle_alpha 90.000000
_cell_angle_beta 90.000000
_cell_angle_gamma 90.000000
_cell_volume 3898.739311
_symmetry_space_group_name_H-M "I -4 2 D"
_symmetry_group_IT_number 122
_symmetry_cell_setting 'tetragonal'
loop_
_space_group_symop_operation_xyz
x,y,z
y,-x,-z
-x,-y,z
-y,x,-z
x,1/2-y,1/4-z
-x,1/2+y,1/4-z
-y,1/2-x,1/4+z
y,1/2+x,1/4+z
1/2+x,1/2+y,1/2+z
1/2+y,1/2-x,1/2-z
1/2-x,1/2-y,1/2+z
1/2-y,1/2+x,1/2-z
1/2+x,-y,3/4-z
1/2-x,y,3/4-z
1/2-y,-x,3/4+z
1/2+y,x,3/4+z
loop_
_atom_site_type_symbol
_atom_site_label
_atom_site_fract_x
_atom_site_fract_y
_atom_site_fract_z
Si Si1 0.541579 0.602126 0.253011
Si Si2 0.585030 0.424913 0.899095
Si Si3 0.150274 0.401604 0.353269
Si Si4 0.784225 0.936132 0.476972
Si Si5 0.226092 0.750000 0.625000
Si Si6 0.000000 0.000000 0.000000
O O1 0.500000 0.500000 0.259660
O O2 0.601819 0.602598 0.181470
O O3 0.597126 0.619007 0.323895
O O4 0.459916 0.676916 0.240598
O O5 0.500000 0.500000 0.901527
O O6 0.671563 0.480645 0.931563
O O7 0.565534 0.339500 0.950139
O O8 0.250000 0.449478 0.375000
O O9 0.183650 0.297211 0.331657
O O10 0.082361 0.455773 0.299547
O O11 0.797452 0.842666 0.431278
#
# Coordination Sequence:
#
# PCOD9561251 Si02
#       6
#    16  16  16  16   8   4
#     4  11  24  41  65 101 131 183 232 283 351 422
#     4  11  22  36  66 102 138 177 221 274 361 432
#     4  10  26  47  72 102 137 185 244 297 360 414
#     4  12  20  40  68 100 148 181 221 293 353 419
#     4  10  24  42  68 104 140 180 236 298 346 420
#     4  12  24  56  80  96 144 190 244 304 360 452
#
# _framework density 19.493479000000001
#
# number of rings (size 3 to 8) (size 9 to 14) (size 15 to 20)
#    0.632    0.421    5.263    1.263    0.000    3.368 
#    0.000    0.000    0.000    0.000    0.000    0.000 
#    0.000    0.000    0.000    0.000    0.000    0.000 
#
# Total GULP energy -211862.129330 kJ/mol
# GULP energy per Si atom -5575.319193 kJ/mol
# Density = 1.944911 g / cm^3
# Si number density = 19.493479 Si / 1000 Ang^3
#
#
#
# Elastic Constant Matrix: (Units=GPa)
#
#
# Indices 1 2 3 4 5 6 
#
# 1 90.5149 13.7021 17.0174 0.0000 0.0000 0.0000
# 2 13.7021 90.5149 17.0174 0.0000 0.0000 0.0000
# 3 17.0174 17.0174 101.8884 0.0000 0.0000 0.0000
# 4 0.0000 0.0000 0.0000 28.7556 0.0000 0.0000
# 5 0.0000 0.0000 0.0000 0.0000 28.7556 0.0000
# 6 0.0000 0.0000 0.0000 0.0000 0.0000 25.0487
#
#
#
# Elastic Compliance Matrix: (Units=1/GPa)
#
#
# Indices 1 2 3 4 5 6 
#
# 1 0.011584 -0.001435 -0.001695 0.000000 0.000000 0.000000
# 2 -0.001435 0.011584 -0.001695 0.000000 0.000000 0.000000
# 3 -0.001695 -0.001695 0.010381 0.000000 0.000000 0.000000
# 4 0.000000 0.000000 0.000000 0.034776 0.000000 0.000000
# 5 0.000000 0.000000 0.000000 0.000000 0.034776 0.000000
# 6 0.000000 0.000000 0.000000 0.000000 0.000000 0.039922
#
#
# Mechanical properties :
#
#
# Convention : Reuss Voigt Hill
#
# Bulk Modulus (GPa) = 41.84374 42.04358 41.94366
# Shear Modulus (GPa) = 31.12580 32.19075 31.65828
#
# Velocity S-wave (km/s) = 4.00024 4.06810 4.03432
# Velocity P-wave (km/s) = 6.54584 6.60914 6.57757
#
# Compressibility (1/GPa) = 0.02389844
#
# Stress axis : x y z
#
# Youngs Moduli (GPa) = 86.32747 86.32747 96.33093
#
# Poissons Ratio (x) = 0.12387 0.16329
# Poissons Ratio (y) = 0.12387 0.16329
# Poissons Ratio (z) = 0.14633 0.14633
#
# Static dielectric constant tensor:
#      x y z
#    x 1.749450 0.000000 0.000000 
#    y 0.000000 1.749450 0.000000 
#    z 0.000000 0.000000 1.702200 
# 
# From -- ./inp_files/7127.got.cif
#   From: 2010.05.17/outbox.cif.g08.bks.cpg/sg122_4_cif.got.tgz:7127.got - 2010.05.20 11:37:33.
