data_PCOD9561231
_publ_section_title
;
Structure prediction by ZEFSAII (Michael W. Deem and Ramdas Pophale) SiO2 
 PCOD9561231
Probable space group: I -4 2 D
;
_chemical_formula_sum "Si O2"
_cell_formula_units_Z 88
_cell_length_a 11.924046
_cell_length_b 11.924046
_cell_length_c 30.654493
_cell_angle_alpha 90.000000
_cell_angle_beta 90.000000
_cell_angle_gamma 90.000000
_cell_volume 4358.543885
_symmetry_space_group_name_H-M "I -4 2 D"
_symmetry_group_IT_number 122
_symmetry_cell_setting 'tetragonal'
loop_
_space_group_symop_operation_xyz
x,y,z
y,-x,-z
-x,-y,z
-y,x,-z
x,1/2-y,1/4-z
-x,1/2+y,1/4-z
-y,1/2-x,1/4+z
y,1/2+x,1/4+z
1/2+x,1/2+y,1/2+z
1/2+y,1/2-x,1/2-z
1/2-x,1/2-y,1/2+z
1/2-y,1/2+x,1/2-z
1/2+x,-y,3/4-z
1/2-x,y,3/4-z
1/2-y,-x,3/4+z
1/2+y,x,3/4+z
loop_
_atom_site_type_symbol
_atom_site_label
_atom_site_fract_x
_atom_site_fract_y
_atom_site_fract_z
Si Si1 0.763590 0.250000 0.125000
Si Si2 0.000000 0.500000 0.827824
Si Si3 0.635304 0.200607 0.214417
Si Si4 0.500000 0.000000 0.949354
Si Si5 0.126363 0.665418 0.893621
Si Si6 0.074472 0.168422 0.737724
Si Si7 0.378914 0.509793 0.616262
O O1 0.687652 0.244485 0.168708
O O2 0.838248 0.137497 0.122409
O O3 0.904204 0.557415 0.799207
O O4 0.943985 0.405758 0.858455
O O5 0.734011 0.155265 0.244989
O O6 0.553934 0.287957 0.238312
O O7 0.460615 0.905825 0.914813
O O8 0.586334 0.937858 0.980665
O O9 0.250000 0.685811 0.875000
O O10 0.137982 0.597571 0.938126
O O11 0.061557 0.779810 0.903541
O O12 0.500000 0.500000 0.593477
#
# Coordination Sequence:
#
# PCOD9561231 Si02
#       7
#     8   8  16   8  16  16  16
#     4  12  22  46  70  94 132 184 224 270 340 408
#     4  12  21  45  64 103 144 178 215 274 364 426
#     4  12  24  41  67 101 140 174 217 281 356 413
#     4  10  23  46  62  95 131 176 230 280 326 405
#     4  12  25  42  69 105 137 181 224 280 346 415
#     4  12  25  40  66 102 135 174 222 289 344 409
#     4  10  25  46  71  93 129 185 234 268 332 402
#
# _framework density 20.190228999999999
#
# number of rings (size 3 to 8) (size 9 to 14) (size 15 to 20)
#    0.545    0.000    5.455    2.727    6.364    0.000 
#    0.000    0.000    0.000    0.000    0.000    0.000 
#    0.000    0.000    0.000    0.000    0.000    0.000 
#
# Total GULP energy -245842.481112 kJ/mol
# GULP energy per Si atom -5587.329116 kJ/mol
# Density = 2.014427 g / cm^3
# Si number density = 20.190229 Si / 1000 Ang^3
#
#
#
# Elastic Constant Matrix: (Units=GPa)
#
#
# Indices 1 2 3 4 5 6 
#
# 1 80.7137 40.5428 -3.2184 0.0000 0.0000 0.0000
# 2 40.5428 80.7137 -3.2184 0.0000 0.0000 0.0000
# 3 -3.2184 -3.2184 37.0276 0.0000 0.0000 0.0000
# 4 0.0000 0.0000 0.0000 4.1602 0.0000 0.0000
# 5 0.0000 0.0000 0.0000 0.0000 4.1602 0.0000
# 6 0.0000 0.0000 0.0000 0.0000 0.0000 17.7288
#
#
#
# Elastic Compliance Matrix: (Units=1/GPa)
#
#
# Indices 1 2 3 4 5 6 
#
# 1 0.016589 -0.008304 0.000720 0.000000 0.000000 0.000000
# 2 -0.008304 0.016589 0.000720 0.000000 0.000000 0.000000
# 3 0.000720 0.000720 0.027132 0.000000 0.000000 0.000000
# 4 0.000000 0.000000 0.000000 0.240371 0.000000 0.000000
# 5 0.000000 0.000000 0.000000 0.000000 0.240371 0.000000
# 6 0.000000 0.000000 0.000000 0.000000 0.000000 0.056405
#
#
# Mechanical properties :
#
#
# Convention : Reuss Voigt Hill
#
# Bulk Modulus (GPa) = 21.46703 29.62966 25.54835
# Shear Modulus (GPa) = 7.97812 16.16646 12.07229
#
# Velocity S-wave (km/s) = 1.98999 2.83275 2.44791
# Velocity P-wave (km/s) = 3.99193 5.04047 4.54653
#
# Compressibility (1/GPa) = 0.04658306
#
# Stress axis : x y z
#
# Youngs Moduli (GPa) = 60.27931 60.27931 36.85678
#
# Poissons Ratio (x) = 0.50057 -0.02654
# Poissons Ratio (y) = 0.50057 -0.02654
# Poissons Ratio (z) = -0.04341 -0.04341
#
# Static dielectric constant tensor:
#      x y z
#    x 1.718460 0.000000 0.000000 
#    y 0.000000 1.718460 0.000000 
#    z 0.000000 0.000000 1.699000 
# 
# From -- ./inp_files/9539.got.cif
#   From: 2010.05.17/outbox.cif.g08.bks.cpg/sg122_5_cif.got.tgz:9539.got - 2010.05.20 11:37:33.
