data_PCOD9561883
_publ_section_title
;
Structure prediction by ZEFSAII (Michael W. Deem and Ramdas Pophale) SiO2 
 PCOD9561883
Probable space group: P 4/M M M
;
_chemical_formula_sum "Si O2"
_cell_formula_units_Z 88
_cell_length_a 19.378088
_cell_length_b 19.378088
_cell_length_c 15.182631
_cell_angle_alpha 90.000000
_cell_angle_beta 90.000000
_cell_angle_gamma 90.000000
_cell_volume 5701.234239
_symmetry_space_group_name_H-M "P 4/M M M"
_symmetry_group_IT_number 123
_symmetry_cell_setting 'tetragonal'
loop_
_space_group_symop_operation_xyz
x,y,z
-y,x,z
-x,-y,z
y,-x,z
x,-y,-z
-x,y,-z
y,x,-z
-y,-x,-z
-x,-y,-z
y,-x,-z
x,y,-z
-y,x,-z
-x,y,z
x,-y,z
-y,-x,z
y,x,z
loop_
_atom_site_type_symbol
_atom_site_label
_atom_site_fract_x
_atom_site_fract_y
_atom_site_fract_z
Si Si1 0.306359 0.418593 0.602072
Si Si2 0.079586 0.661014 0.323134
Si Si3 0.924533 0.815424 0.605605
Si Si4 0.916485 0.577441 0.500000
Si Si5 0.661684 0.774914 0.753359
Si Si6 0.308658 0.419938 0.895451
O O1 0.284042 0.409556 0.500000
O O2 0.309987 0.500000 0.620542
O O3 0.380252 0.380252 0.610651
O O4 0.256509 0.379315 0.669436
O O5 0.077965 0.740003 0.354327
O O6 0.099993 0.616721 0.409683
O O7 0.142500 0.657918 0.254548
O O8 0.000000 0.642223 0.297133
O O9 0.918266 0.808255 0.500000
O O10 0.864110 0.864110 0.638134
O O11 0.000000 0.846278 0.623426
O O12 0.887874 0.500000 0.500000
O O13 0.000000 0.574087 0.500000
O O14 0.737103 0.737103 0.752238
O O15 0.621662 0.746998 0.838786
O O16 0.310822 0.500000 0.870094
O O17 0.381208 0.381208 0.878741
O O18 0.294908 0.415501 0.000000
#
# Coordination Sequence:
#
# PCOD9561883 Si02
#       6
#    16  16  16   8  16  16
#     4   9  18  30  43  62  88 118 151 184 219 262
#     4  10  19  32  46  62  85 117 157 196 233 271
#     4   9  16  26  41  61  86 116 149 186 229 276
#     4   9  18  30  41  56  79 109 149 194 233 264
#     4  10  20  32  47  69  93 119 152 188 230 278
#     4   9  18  33  53  76 100 124 151 186 230 280
#
# _framework density 15.435254
#
# number of rings (size 3 to 8) (size 9 to 14) (size 15 to 20)
#    0.000    2.636    0.909    1.091    1.273    2.000 
#    0.000    2.727    0.000    3.818    0.000    1.273 
#    0.000    0.000    0.000    0.000    0.000    0.000 
#
# Total GULP energy -490140.733394 kJ/mol
# GULP energy per Si atom -5569.781061 kJ/mol
# Density = 1.540012 g / cm^3
# Si number density = 15.435254 Si / 1000 Ang^3
#
#
#
# Elastic Constant Matrix: (Units=GPa)
#
#
# Indices 1 2 3 4 5 6 
#
# 1 95.4207 24.5338 26.4479 0.0000 0.0000 0.0000
# 2 24.5338 95.4207 26.4479 0.0000 0.0000 0.0000
# 3 26.4479 26.4479 31.4542 0.0000 0.0000 0.0000
# 4 0.0000 0.0000 0.0000 17.7543 0.0000 0.0000
# 5 0.0000 0.0000 0.0000 0.0000 17.7543 0.0000
# 6 0.0000 0.0000 0.0000 0.0000 0.0000 7.8625
#
#
#
# Elastic Compliance Matrix: (Units=1/GPa)
#
#
# Indices 1 2 3 4 5 6 
#
# 1 0.013678 -0.000429 -0.011140 0.000000 0.000000 0.000000
# 2 -0.000429 0.013678 -0.011140 0.000000 0.000000 0.000000
# 3 -0.011140 -0.011140 0.050526 0.000000 0.000000 0.000000
# 4 0.000000 0.000000 0.000000 0.056325 0.000000 0.000000
# 5 0.000000 0.000000 0.000000 0.000000 0.056325 0.000000
# 6 0.000000 0.000000 0.000000 0.000000 0.000000 0.127187
#
#
# Mechanical properties :
#
#
# Convention : Reuss Voigt Hill
#
# Bulk Modulus (GPa) = 30.80381 41.90607 36.35494
# Shear Modulus (GPa) = 13.37048 18.33193 15.85121
#
# Velocity S-wave (km/s) = 2.94637 3.44999 3.20808
# Velocity P-wave (km/s) = 5.61916 6.56342 6.10956
#
# Compressibility (1/GPa) = 0.03246352
#
# Stress axis : x y z
#
# Youngs Moduli (GPa) = 73.11033 73.11033 19.79161
#
# Poissons Ratio (x) = 0.03137 0.22048
# Poissons Ratio (y) = 0.03137 0.22048
# Poissons Ratio (z) = 0.81446 0.81446
#
# Static dielectric constant tensor:
#      x y z
#    x 1.531910 0.000000 0.000000 
#    y 0.000000 1.531910 0.000000 
#    z 0.000000 0.000000 1.499700 
# 
# From -- ./inp_files/4117.got.cif
#   From: 2010.05.17/outbox.cif.g08.bks.cpg/sg123_3_cif.got.tgz:4117.got - 2010.05.20 11:43:04.
