data_PCOD9561672
_publ_section_title
;
Structure prediction by ZEFSAII (Michael W. Deem and Ramdas Pophale) SiO2 
 PCOD9561672
Probable space group: P 4/M M M
;
_chemical_formula_sum "Si O2"
_cell_formula_units_Z 88
_cell_length_a 18.431603
_cell_length_b 18.431603
_cell_length_c 16.338134
_cell_angle_alpha 90.000000
_cell_angle_beta 90.000000
_cell_angle_gamma 90.000000
_cell_volume 5550.456058
_symmetry_space_group_name_H-M "P 4/M M M"
_symmetry_group_IT_number 123
_symmetry_cell_setting 'tetragonal'
loop_
_space_group_symop_operation_xyz
x,y,z
-y,x,z
-x,-y,z
y,-x,z
x,-y,-z
-x,y,-z
y,x,-z
-y,-x,-z
-x,-y,-z
y,-x,-z
x,y,-z
-y,x,-z
-x,y,z
x,-y,z
-y,-x,z
y,x,z
loop_
_atom_site_type_symbol
_atom_site_label
_atom_site_fract_x
_atom_site_fract_y
_atom_site_fract_z
Si Si1 0.583995 0.299154 0.401764
Si Si2 0.082904 0.413902 0.000000
Si Si3 0.690031 0.809451 0.691505
Si Si4 0.194622 0.921097 0.096300
Si Si5 0.916088 0.799353 0.598624
Si Si6 0.351291 0.916056 0.170985
O O1 0.585695 0.290178 0.500000
O O2 0.500000 0.298220 0.375512
O O3 0.625172 0.374828 0.382964
O O4 0.632842 0.236438 0.361570
O O5 0.112164 0.388407 0.087338
O O6 0.081003 0.500000 0.000000
O O7 0.000000 0.384108 0.000000
O O8 0.749952 0.749952 0.723210
O O9 0.736472 0.867381 0.638779
O O10 0.646296 0.857060 0.757728
O O11 0.141226 0.858775 0.122728
O O12 0.266663 0.920750 0.148584
O O13 0.159194 0.000000 0.102756
O O14 0.213405 0.910832 0.000000
O O15 0.914949 0.791020 0.500000
O O16 0.874974 0.874974 0.617723
O O17 0.000000 0.797603 0.625835
O O18 0.376088 0.000000 0.188876
#
# Coordination Sequence:
#
# PCOD9561672 Si02
#       6
#    16   8  16  16  16  16
#     4   9  18  33  53  76 101 126 150 179 218 268
#     4   9  18  32  47  62  81 107 143 188 235 276
#     4  10  19  30  46  70  96 124 155 188 229 279
#     4   9  16  26  40  58  82 112 147 188 232 276
#     4   9  17  29  45  65  91 125 165 207 245 277
#     4  10  18  30  46  64  86 117 156 195 232 274
#
# _framework density 15.854552999999999
#
# number of rings (size 3 to 8) (size 9 to 14) (size 15 to 20)
#    0.000    2.636    0.909    1.636    0.000    3.455 
#    0.000    2.727    0.000    1.636    0.000    8.909 
#    0.000    0.000    0.000    0.000    0.000   14.545 
#
# Total GULP energy -489894.019715 kJ/mol
# GULP energy per Si atom -5566.977497 kJ/mol
# Density = 1.581847 g / cm^3
# Si number density = 15.854553 Si / 1000 Ang^3
#
#
#
# Elastic Constant Matrix: (Units=GPa)
#
#
# Indices 1 2 3 4 5 6 
#
# 1 90.7414 40.7016 32.8967 0.0000 0.0000 0.0000
# 2 40.7016 90.7414 32.8967 0.0000 0.0000 0.0000
# 3 32.8967 32.8967 42.2104 0.0000 0.0000 0.0000
# 4 0.0000 0.0000 0.0000 9.1548 0.0000 0.0000
# 5 0.0000 0.0000 0.0000 0.0000 9.1548 0.0000
# 6 0.0000 0.0000 0.0000 0.0000 0.0000 8.9674
#
#
#
# Elastic Compliance Matrix: (Units=1/GPa)
#
#
# Indices 1 2 3 4 5 6 
#
# 1 0.016229 -0.003755 -0.009722 0.000000 0.000000 0.000000
# 2 -0.003755 0.016229 -0.009722 0.000000 0.000000 0.000000
# 3 -0.009722 -0.009722 0.038844 0.000000 0.000000 0.000000
# 4 0.000000 0.000000 0.000000 0.109232 0.000000 0.000000
# 5 0.000000 0.000000 0.000000 0.000000 0.109232 0.000000
# 6 0.000000 0.000000 0.000000 0.000000 0.000000 0.111515
#
#
# Mechanical properties :
#
#
# Convention : Reuss Voigt Hill
#
# Bulk Modulus (GPa) = 40.15181 48.52036 44.33608
# Shear Modulus (GPa) = 10.96541 13.26862 12.11702
#
# Velocity S-wave (km/s) = 2.63273 2.89605 2.76753
# Velocity P-wave (km/s) = 5.88403 6.46937 6.18363
#
# Compressibility (1/GPa) = 0.02490548
#
# Stress axis : x y z
#
# Youngs Moduli (GPa) = 61.61787 61.61787 25.74399
#
# Poissons Ratio (x) = 0.23138 0.25027
# Poissons Ratio (y) = 0.23138 0.25027
# Poissons Ratio (z) = 0.59903 0.59903
#
# Static dielectric constant tensor:
#      x y z
#    x 1.526940 0.000000 0.000000 
#    y 0.000000 1.526940 0.000000 
#    z 0.000000 0.000000 1.580340 
# 
# From -- ./inp_files/4055.got.cif
#   From: 2010.05.17/outbox.cif.g08.bks.cpg/sg123_3_cif.got.tgz:4055.got - 2010.05.20 11:43:04.
