data_PCOD9561176
_publ_section_title
;
Structure prediction by ZEFSAII (Michael W. Deem and Ramdas Pophale) SiO2 
 PCOD9561176
Probable space group: I -4 2 D
;
_chemical_formula_sum "Si O2"
_cell_formula_units_Z 48
_cell_length_a 15.522597
_cell_length_b 15.522597
_cell_length_c 8.800384
_cell_angle_alpha 90.000000
_cell_angle_beta 90.000000
_cell_angle_gamma 90.000000
_cell_volume 2120.461480
_symmetry_space_group_name_H-M "I -4 2 D"
_symmetry_group_IT_number 122
_symmetry_cell_setting 'tetragonal'
loop_
_space_group_symop_operation_xyz
x,y,z
y,-x,-z
-x,-y,z
-y,x,-z
x,1/2-y,1/4-z
-x,1/2+y,1/4-z
-y,1/2-x,1/4+z
y,1/2+x,1/4+z
1/2+x,1/2+y,1/2+z
1/2+y,1/2-x,1/2-z
1/2-x,1/2-y,1/2+z
1/2-y,1/2+x,1/2-z
1/2+x,-y,3/4-z
1/2-x,y,3/4-z
1/2-y,-x,3/4+z
1/2+y,x,3/4+z
loop_
_atom_site_type_symbol
_atom_site_label
_atom_site_fract_x
_atom_site_fract_y
_atom_site_fract_z
Si Si1 0.764405 0.750000 0.125000
Si Si2 0.384681 0.750000 0.125000
Si Si3 0.159361 0.397099 0.316439
Si Si4 0.502649 0.100938 0.981611
O O1 0.723833 0.822584 0.234258
O O2 0.821155 0.693332 0.238376
O O3 0.444255 0.667997 0.166893
O O4 0.250000 0.434776 0.375000
O O5 0.116536 0.455627 0.186418
O O6 0.097270 0.378903 0.456638
O O7 0.500000 0.000000 0.024661
#
# Coordination Sequence:
#
# PCOD9561176 Si02
#       4
#     8   8  16  16
#     4  10  22  45  71 116 146 212 246 315 388 453
#     4  10  24  45  81 116 162 192 268 315 384 473
#     4  11  22  39  75 106 152 196 256 311 376 468
#     4  11  23  46  73 115 151 206 253 320 388 455
#
# _framework density 22.636583000000002
#
# number of rings (size 3 to 8) (size 9 to 14) (size 15 to 20)
#    0.000    1.333    5.000    0.000    2.333    1.333 
#    0.000    0.000    0.000    8.000    4.333    0.000 
#    0.000    0.000    0.000    0.000    0.000    0.000 
#
# Total GULP energy -133905.206811 kJ/mol
# GULP energy per Si atom -5579.383617 kJ/mol
# Density = 2.258506 g / cm^3
# Si number density = 22.636583 Si / 1000 Ang^3
#
#
#
# Elastic Constant Matrix: (Units=GPa)
#
#
# Indices 1 2 3 4 5 6 
#
# 1 157.5434 54.7137 78.0452 0.0000 0.0000 0.0000
# 2 54.7137 157.5434 78.0452 0.0000 0.0000 0.0000
# 3 78.0452 78.0452 90.3673 0.0000 0.0000 0.0000
# 4 0.0000 0.0000 0.0000 20.1643 0.0000 0.0000
# 5 0.0000 0.0000 0.0000 0.0000 20.1643 0.0000
# 6 0.0000 0.0000 0.0000 0.0000 0.0000 9.0694
#
#
#
# Elastic Compliance Matrix: (Units=1/GPa)
#
#
# Indices 1 2 3 4 5 6 
#
# 1 0.011318 0.001593 -0.011151 0.000000 0.000000 0.000000
# 2 0.001593 0.011318 -0.011151 0.000000 0.000000 0.000000
# 3 -0.011151 -0.011151 0.030327 0.000000 0.000000 0.000000
# 4 0.000000 0.000000 0.000000 0.049593 0.000000 0.000000
# 5 0.000000 0.000000 0.000000 0.000000 0.049593 0.000000
# 6 0.000000 0.000000 0.000000 0.000000 0.000000 0.110261
#
#
# Mechanical properties :
#
#
# Convention : Reuss Voigt Hill
#
# Bulk Modulus (GPa) = 86.60953 91.89580 89.25267
# Shear Modulus (GPa) = 16.25092 22.85629 19.55360
#
# Velocity S-wave (km/s) = 2.68228 3.18103 2.94225
# Velocity P-wave (km/s) = 6.92364 7.36045 7.14538
#
# Compressibility (1/GPa) = 0.01154607
#
# Stress axis : x y z
#
# Youngs Moduli (GPa) = 88.35385 88.35385 32.97421
#
# Poissons Ratio (x) = -0.14078 0.36769
# Poissons Ratio (y) = -0.14078 0.36769
# Poissons Ratio (z) = 0.98522 0.98522
#
# Static dielectric constant tensor:
#      x y z
#    x 1.911300 0.000000 0.000000 
#    y 0.000000 1.911300 0.000000 
#    z 0.000000 0.000000 1.871670 
# 
# From -- ./inp_files/2119.got.cif
#   From: 2010.05.17/outbox.cif.g08.bks.cpg/sg122_2_cif.got.tgz:2119.got - 2010.05.20 11:37:33.
