data_PCOD9561634
_publ_section_title
;
Structure prediction by ZEFSAII (Michael W. Deem and Ramdas Pophale) SiO2 
 PCOD9561634
Probable space group: P 4/M M M
;
_chemical_formula_sum "Si O2"
_cell_formula_units_Z 112
_cell_length_a 18.113885
_cell_length_b 18.113885
_cell_length_c 21.990699
_cell_angle_alpha 90.000000
_cell_angle_beta 90.000000
_cell_angle_gamma 90.000000
_cell_volume 7215.430478
_symmetry_space_group_name_H-M "P 4/M M M"
_symmetry_group_IT_number 123
_symmetry_cell_setting 'tetragonal'
loop_
_space_group_symop_operation_xyz
x,y,z
-y,x,z
-x,-y,z
y,-x,z
x,-y,-z
-x,y,-z
y,x,-z
-y,-x,-z
-x,-y,-z
y,-x,-z
x,y,-z
-y,x,-z
-x,y,z
x,-y,z
-y,-x,z
y,x,z
loop_
_atom_site_type_symbol
_atom_site_label
_atom_site_fract_x
_atom_site_fract_y
_atom_site_fract_z
Si Si1 0.412789 0.084369 0.617174
Si Si2 0.300533 0.581201 0.687346
Si Si3 0.582949 0.858187 0.750676
Si Si4 0.294087 0.586073 0.072277
Si Si5 0.350148 0.767959 0.430117
Si Si6 0.308913 0.811651 0.149902
Si Si7 0.084985 0.203200 0.072406
O O1 0.500000 0.100554 0.604199
O O2 0.404392 0.093745 0.690078
O O3 0.362031 0.146138 0.585874
O O4 0.397922 0.000000 0.599229
O O5 0.333453 0.500000 0.690469
O O6 0.356916 0.643085 0.708101
O O7 0.226190 0.582615 0.726518
O O8 0.275053 0.599522 0.618563
O O9 0.500000 0.874951 0.774092
O O10 0.647532 0.858347 0.799637
O O11 0.296815 0.500000 0.088835
O O12 0.371765 0.628236 0.081571
O O13 0.234245 0.630816 0.111263
O O14 0.277025 0.591641 0.000000
O O15 0.371694 0.755774 0.500000
O O16 0.268650 0.731351 0.422349
O O17 0.249141 0.750860 0.173795
O O18 0.263849 0.866458 0.106618
O O19 0.124914 0.124914 0.083626
O O20 0.000000 0.203590 0.091411
O O21 0.088355 0.216770 0.000000
#
# Coordination Sequence:
#
# PCOD9561634 Si02
#       7
#    16  16  16  16  16  16  16
#     4   9  18  31  46  66  91 116 144 182 223 258
#     4   9  17  28  41  58  82 112 147 186 221 252
#     4   9  17  29  44  61  83 113 146 179 217 259
#     4   9  17  28  42  61  85 113 146 185 226 264
#     4   9  17  29  45  64  87 116 146 174 209 256
#     4  10  18  28  45  66  86 112 146 180 214 255
#     4   9  18  32  49  69  91 112 135 166 205 251
#
# _framework density 15.522290999999999
#
# number of rings (size 3 to 8) (size 9 to 14) (size 15 to 20)
#    0.000    2.857    0.000    2.571    0.000    4.714 
#    0.000    2.143    0.000    1.286    0.000    9.000 
#    0.000    0.286    0.000    1.571    0.000    0.286 
#
# Total GULP energy -623725.554859 kJ/mol
# GULP energy per Si atom -5568.978168 kJ/mol
# Density = 1.548696 g / cm^3
# Si number density = 15.522291 Si / 1000 Ang^3
#
#
#
# Elastic Constant Matrix: (Units=GPa)
#
#
# Indices 1 2 3 4 5 6 
#
# 1 66.4426 14.1993 8.4459 0.0000 0.0000 0.0000
# 2 14.1993 66.4426 8.4459 0.0000 0.0000 0.0000
# 3 8.4459 8.4459 19.0459 0.0000 0.0000 0.0000
# 4 0.0000 0.0000 0.0000 11.3787 0.0000 0.0000
# 5 0.0000 0.0000 0.0000 0.0000 11.3787 0.0000
# 6 0.0000 0.0000 0.0000 0.0000 0.0000 15.3147
#
#
#
# Elastic Compliance Matrix: (Units=1/GPa)
#
#
# Indices 1 2 3 4 5 6 
#
# 1 0.016406 -0.002735 -0.006062 0.000000 0.000000 0.000000
# 2 -0.002735 0.016406 -0.006062 0.000000 0.000000 0.000000
# 3 -0.006062 -0.006062 0.057881 0.000000 0.000000 0.000000
# 4 0.000000 0.000000 0.000000 0.087884 0.000000 0.000000
# 5 0.000000 0.000000 0.000000 0.000000 0.087884 0.000000
# 6 0.000000 0.000000 0.000000 0.000000 0.000000 0.065297
#
#
# Mechanical properties :
#
#
# Convention : Reuss Voigt Hill
#
# Bulk Modulus (GPa) = 16.40060 23.79038 20.09549
# Shear Modulus (GPa) = 13.09584 15.67041 14.38312
#
# Velocity S-wave (km/s) = 2.90777 3.18078 3.04733
# Velocity P-wave (km/s) = 4.67571 5.37119 5.03547
#
# Compressibility (1/GPa) = 0.06097337
#
# Stress axis : x y z
#
# Youngs Moduli (GPa) = 60.95424 60.95424 17.27678
#
# Poissons Ratio (x) = 0.16674 0.10473
# Poissons Ratio (y) = 0.16674 0.10473
# Poissons Ratio (z) = 0.36951 0.36951
#
# Static dielectric constant tensor:
#      x y z
#    x 1.510240 0.000000 0.000000 
#    y 0.000000 1.510240 0.000000 
#    z 0.000000 0.000000 1.528520 
# 
# From -- ./inp_files/6656.got.cif
#   From: 2010.05.17/outbox.cif.g08.bks.cpg/sg123_4_cif.got.tgz:6656.got - 2010.05.20 11:43:04.
