data_PCOD9561035
_publ_section_title
;
Structure prediction by ZEFSAII (Michael W. Deem and Ramdas Pophale) SiO2 
 PCOD9561035
Probable space group: I -4 2 D
;
_chemical_formula_sum "Si O2"
_cell_formula_units_Z 80
_cell_length_a 25.679535
_cell_length_b 25.679535
_cell_length_c 4.866721
_cell_angle_alpha 90.000000
_cell_angle_beta 90.000000
_cell_angle_gamma 90.000000
_cell_volume 3209.303283
_symmetry_space_group_name_H-M "I -4 2 D"
_symmetry_group_IT_number 122
_symmetry_cell_setting 'tetragonal'
loop_
_space_group_symop_operation_xyz
x,y,z
y,-x,-z
-x,-y,z
-y,x,-z
x,1/2-y,1/4-z
-x,1/2+y,1/4-z
-y,1/2-x,1/4+z
y,1/2+x,1/4+z
1/2+x,1/2+y,1/2+z
1/2+y,1/2-x,1/2-z
1/2-x,1/2-y,1/2+z
1/2-y,1/2+x,1/2-z
1/2+x,-y,3/4-z
1/2-x,y,3/4-z
1/2-y,-x,3/4+z
1/2+y,x,3/4+z
loop_
_atom_site_type_symbol
_atom_site_label
_atom_site_fract_x
_atom_site_fract_y
_atom_site_fract_z
Si Si1 0.863796 0.165441 0.005378
Si Si2 0.628365 0.467414 0.746453
Si Si3 0.619513 0.959041 0.014426
Si Si4 0.802473 0.691743 0.774919
Si Si5 0.299218 0.586414 0.210856
O O1 0.860221 0.193734 0.715983
O O2 0.842873 0.106886 0.931165
O O3 0.917549 0.161771 0.160230
O O4 0.824508 0.192675 0.213361
O O5 0.629043 0.492628 0.440878
O O6 0.575399 0.433246 0.758170
O O7 0.622717 0.520029 0.929417
O O8 0.673943 0.439774 0.942529
O O9 0.750000 0.717947 0.875000
O O10 0.856160 0.719140 0.861251
O O11 0.250000 0.561711 0.375000
#
# Coordination Sequence:
#
# PCOD9561035 Si02
#       5
#    16  16  16  16  16
#     4  10  21  43  66  96 149 188 234 313 370 448
#     4  12  25  43  73 101 148 192 250 320 388 462
#     4  12  24  45  69 104 141 190 251 315 395 451
#     4  10  21  41  70 102 140 195 243 304 378 448
#     4  10  24  45  72 107 151 200 248 313 382 467
#
# _framework density 24.927527999999999
#
# number of rings (size 3 to 8) (size 9 to 14) (size 15 to 20)
#    1.200    0.000    2.000    5.400    0.000    3.200 
#    3.600    4.000    0.000    0.000    0.000    0.000 
#    0.000    0.000    0.000    0.000    0.000    0.000 
#
# Total GULP energy -222819.036336 kJ/mol
# GULP energy per Si atom -5570.475908 kJ/mol
# Density = 2.487079 g / cm^3
# Si number density = 24.927528 Si / 1000 Ang^3
#
#
#
# Elastic Constant Matrix: (Units=GPa)
#
#
# Indices 1 2 3 4 5 6 
#
# 1 89.8300 29.2142 12.4748 0.0000 0.0000 0.0000
# 2 29.2142 89.8300 12.4748 0.0000 0.0000 0.0000
# 3 12.4748 12.4748 127.8224 0.0000 0.0000 0.0000
# 4 0.0000 0.0000 0.0000 42.5512 0.0000 0.0000
# 5 0.0000 0.0000 0.0000 0.0000 42.5512 0.0000
# 6 0.0000 0.0000 0.0000 0.0000 0.0000 4.3813
#
#
#
# Elastic Compliance Matrix: (Units=1/GPa)
#
#
# Indices 1 2 3 4 5 6 
#
# 1 0.012536 -0.003961 -0.000837 0.000000 0.000000 0.000000
# 2 -0.003961 0.012536 -0.000837 0.000000 0.000000 0.000000
# 3 -0.000837 -0.000837 0.007987 0.000000 0.000000 0.000000
# 4 0.000000 0.000000 0.000000 0.023501 0.000000 0.000000
# 5 0.000000 0.000000 0.000000 0.000000 0.023501 0.000000
# 6 0.000000 0.000000 0.000000 0.000000 0.000000 0.228242
#
#
# Mechanical properties :
#
#
# Convention : Reuss Voigt Hill
#
# Bulk Modulus (GPa) = 45.89206 46.20111 46.04658
# Shear Modulus (GPa) = 15.29814 34.78464 25.04139
#
# Velocity S-wave (km/s) = 2.47999 3.73960 3.17293
# Velocity P-wave (km/s) = 5.16243 6.10086 5.65116
#
# Compressibility (1/GPa) = 0.02179026
#
# Stress axis : x y z
#
# Youngs Moduli (GPa) = 79.76709 79.76709 125.20793
#
# Poissons Ratio (x) = 0.31595 0.10479
# Poissons Ratio (y) = 0.31595 0.10479
# Poissons Ratio (z) = 0.06676 0.06676
#
# Static dielectric constant tensor:
#      x y z
#    x 2.099600 0.000000 0.000000 
#    y 0.000000 2.099600 0.000000 
#    z 0.000000 0.000000 2.102350 
# 
# From -- ./inp_files/1307.got.cif
#   From: 2010.05.17/outbox.cif.g08.bks.cpg/sg122_1_cif.got.tgz:1307.got - 2010.05.20 11:37:33.
