data_PCOD9561006
_publ_section_title
;
Structure prediction by ZEFSAII (Michael W. Deem and Ramdas Pophale) SiO2 
 PCOD9561006
Probable space group: I -4 2 D
;
_chemical_formula_sum "Si O2"
_cell_formula_units_Z 64
_cell_length_a 14.951534
_cell_length_b 14.951534
_cell_length_c 13.755325
_cell_angle_alpha 90.000000
_cell_angle_beta 90.000000
_cell_angle_gamma 90.000000
_cell_volume 3074.980468
_symmetry_space_group_name_H-M "I -4 2 D"
_symmetry_group_IT_number 122
_symmetry_cell_setting 'tetragonal'
loop_
_space_group_symop_operation_xyz
x,y,z
y,-x,-z
-x,-y,z
-y,x,-z
x,1/2-y,1/4-z
-x,1/2+y,1/4-z
-y,1/2-x,1/4+z
y,1/2+x,1/4+z
1/2+x,1/2+y,1/2+z
1/2+y,1/2-x,1/2-z
1/2-x,1/2-y,1/2+z
1/2-y,1/2+x,1/2-z
1/2+x,-y,3/4-z
1/2-x,y,3/4-z
1/2-y,-x,3/4+z
1/2+y,x,3/4+z
loop_
_atom_site_type_symbol
_atom_site_label
_atom_site_fract_x
_atom_site_fract_y
_atom_site_fract_z
Si Si1 0.676355 0.803225 0.289700
Si Si2 0.404851 0.954381 0.074305
Si Si3 0.601750 0.279272 0.733196
Si Si4 0.171994 0.148871 0.151307
O O1 0.750000 0.807491 0.375000
O O2 0.593807 0.859095 0.332328
O O3 0.668143 0.697141 0.271087
O O4 0.727922 0.842076 0.196976
O O5 0.500000 0.000000 0.094520
O O6 0.402982 0.884724 0.982509
O O7 0.340473 0.030173 0.033988
O O8 0.578866 0.250000 0.625000
O O9 0.606841 0.188761 0.796809
O O10 0.140162 0.250000 0.125000
#
# Coordination Sequence:
#
# PCOD9561006 Si02
#       4
#    16  16  16  16
#     4   8  18  40  63  82 126 174 210 260 327 400
#     4  11  23  38  60 101 130 160 220 280 329 396
#     4  10  21  38  65  91 123 173 216 268 337 390
#     4   9  19  42  65  87 124 179 218 262 334 398
#
# _framework density 20.813141000000002
#
# number of rings (size 3 to 8) (size 9 to 14) (size 15 to 20)
#    0.000    2.500    0.000    2.250    3.500    0.000 
#    4.500    3.750    0.000    0.000    0.000    0.000 
#    0.000    0.000    0.000    0.000    0.000    0.000 
#
# Total GULP energy -178369.382483 kJ/mol
# GULP energy per Si atom -5574.043203 kJ/mol
# Density = 2.076577 g / cm^3
# Si number density = 20.813141 Si / 1000 Ang^3
#
#
#
# Elastic Constant Matrix: (Units=GPa)
#
#
# Indices 1 2 3 4 5 6 
#
# 1 87.2571 53.8290 16.5621 0.0000 0.0000 0.0000
# 2 53.8290 87.2571 16.5621 0.0000 0.0000 0.0000
# 3 16.5621 16.5621 82.3642 0.0000 0.0000 0.0000
# 4 0.0000 0.0000 0.0000 20.3778 0.0000 0.0000
# 5 0.0000 0.0000 0.0000 0.0000 20.3778 0.0000
# 6 0.0000 0.0000 0.0000 0.0000 0.0000 25.9106
#
#
#
# Elastic Compliance Matrix: (Units=1/GPa)
#
#
# Indices 1 2 3 4 5 6 
#
# 1 0.018677 -0.011238 -0.001496 0.000000 0.000000 0.000000
# 2 -0.011238 0.018677 -0.001496 0.000000 0.000000 0.000000
# 3 -0.001496 -0.001496 0.012743 0.000000 0.000000 0.000000
# 4 0.000000 0.000000 0.000000 0.049073 0.000000 0.000000
# 5 0.000000 0.000000 0.000000 0.000000 0.049073 0.000000
# 6 0.000000 0.000000 0.000000 0.000000 0.000000 0.038594
#
#
# Mechanical properties :
#
#
# Convention : Reuss Voigt Hill
#
# Bulk Modulus (GPa) = 46.21620 47.86497 47.04059
# Shear Modulus (GPa) = 22.47102 24.66161 23.56632
#
# Velocity S-wave (km/s) = 3.28938 3.44598 3.36859
# Velocity P-wave (km/s) = 6.05642 6.23542 6.14657
#
# Compressibility (1/GPa) = 0.02163743
#
# Stress axis : x y z
#
# Youngs Moduli (GPa) = 53.54168 53.54168 78.47573
#
# Poissons Ratio (x) = 0.60170 0.11739
# Poissons Ratio (y) = 0.60170 0.11739
# Poissons Ratio (z) = 0.08009 0.08009
#
# Static dielectric constant tensor:
#      x y z
#    x 1.796390 0.000000 0.000000 
#    y 0.000000 1.796390 0.000000 
#    z 0.000000 0.000000 2.347570 
# 
# From -- ./inp_files/5144.got.cif
#   From: 2010.05.17/outbox.cif.g08.bks.cpg/sg122_3_cif.got.tgz:5144.got - 2010.05.20 11:37:33.
