data_PCOD9561116
_publ_section_title
;
Structure prediction by ZEFSAII (Michael W. Deem and Ramdas Pophale) SiO2 
 PCOD9561116
Probable space group: I -4 2 D
;
_chemical_formula_sum "Si O2"
_cell_formula_units_Z 96
_cell_length_a 27.450584
_cell_length_b 27.450584
_cell_length_c 6.387506
_cell_angle_alpha 90.000000
_cell_angle_beta 90.000000
_cell_angle_gamma 90.000000
_cell_volume 4813.206536
_symmetry_space_group_name_H-M "I -4 2 D"
_symmetry_group_IT_number 122
_symmetry_cell_setting 'tetragonal'
loop_
_space_group_symop_operation_xyz
x,y,z
y,-x,-z
-x,-y,z
-y,x,-z
x,1/2-y,1/4-z
-x,1/2+y,1/4-z
-y,1/2-x,1/4+z
y,1/2+x,1/4+z
1/2+x,1/2+y,1/2+z
1/2+y,1/2-x,1/2-z
1/2-x,1/2-y,1/2+z
1/2-y,1/2+x,1/2-z
1/2+x,-y,3/4-z
1/2-x,y,3/4-z
1/2-y,-x,3/4+z
1/2+y,x,3/4+z
loop_
_atom_site_type_symbol
_atom_site_label
_atom_site_fract_x
_atom_site_fract_y
_atom_site_fract_z
Si Si1 0.750000 0.488496 0.875000
Si Si2 0.726222 0.750000 0.625000
Si Si3 0.103957 0.582194 0.085211
Si Si4 0.157508 0.157507 0.144819
Si Si5 0.493533 0.628303 0.603737
Si Si6 0.660125 0.429345 0.054328
Si Si7 0.716495 0.931157 0.694545
O O1 0.704334 0.453820 0.927180
O O2 0.742193 0.525999 0.684443
O O3 0.750000 0.755171 0.375000
O O4 0.693033 0.702021 0.597114
O O5 0.135588 0.622418 0.212313
O O6 0.046584 0.586809 0.121631
O O7 0.120129 0.528964 0.159280
O O8 0.117494 0.588370 0.846298
O O9 0.118246 0.175138 0.315501
O O10 0.191586 0.110608 0.196491
O O11 0.460075 0.674830 0.567176
O O12 0.529470 0.638098 0.795099
O O13 0.750000 0.908044 0.875000
#
# Coordination Sequence:
#
# PCOD9561116 Si02
#       7
#     8   8  16  16  16  16  16
#     4  12  24  35  72 100 128 166 231 286 342 420
#     4  12  30  51  74 106 148 192 249 286 364 448
#     4  10  23  42  66  92 141 172 228 281 357 414
#     4  10  27  43  69  96 138 185 224 293 356 420
#     4  10  22  41  60  97 128 176 220 280 343 428
#     4  11  24  39  68 100 130 175 229 289 351 417
#     4  11  22  41  65  95 132 171 229 282 344 411
#
# _framework density 19.945125000000001
#
# number of rings (size 3 to 8) (size 9 to 14) (size 15 to 20)
#    0.000    1.333    3.333    0.500    8.167    1.667 
#    0.000    0.000    0.000    0.000    0.000    0.000 
#    0.000    0.000    0.000    0.000    0.000    0.000 
#
# Total GULP energy -267270.112506 kJ/mol
# GULP energy per Si atom -5568.127344 kJ/mol
# Density = 1.989973 g / cm^3
# Si number density = 19.945125 Si / 1000 Ang^3
#
#
#
# Elastic Constant Matrix: (Units=GPa)
#
#
# Indices 1 2 3 4 5 6 
#
# 1 89.0454 39.2245 18.0696 0.0000 0.0000 0.0000
# 2 39.2245 89.0454 18.0696 0.0000 0.0000 0.0000
# 3 18.0696 18.0696 55.5038 0.0000 0.0000 0.0000
# 4 0.0000 0.0000 0.0000 6.0149 0.0000 0.0000
# 5 0.0000 0.0000 0.0000 0.0000 6.0149 0.0000
# 6 0.0000 0.0000 0.0000 0.0000 0.0000 24.8162
#
#
#
# Elastic Compliance Matrix: (Units=1/GPa)
#
#
# Indices 1 2 3 4 5 6 
#
# 1 0.014328 -0.005744 -0.002794 0.000000 0.000000 0.000000
# 2 -0.005744 0.014328 -0.002794 0.000000 0.000000 0.000000
# 3 -0.002794 -0.002794 0.019836 0.000000 0.000000 0.000000
# 4 0.000000 0.000000 0.000000 0.166254 0.000000 0.000000
# 5 0.000000 0.000000 0.000000 0.000000 0.166254 0.000000
# 6 0.000000 0.000000 0.000000 0.000000 0.000000 0.040296
#
#
# Mechanical properties :
#
#
# Convention : Reuss Voigt Hill
#
# Bulk Modulus (GPa) = 38.72146 42.70246 40.71196
# Shear Modulus (GPa) = 11.04800 17.91792 14.48296
#
# Velocity S-wave (km/s) = 2.35610 3.00052 2.69762
# Velocity P-wave (km/s) = 5.18245 5.78451 5.49174
#
# Compressibility (1/GPa) = 0.02582547
#
# Stress axis : x y z
#
# Youngs Moduli (GPa) = 69.79517 69.79517 50.41281
#
# Poissons Ratio (x) = 0.40092 0.14087
# Poissons Ratio (y) = 0.40092 0.14087
# Poissons Ratio (z) = 0.19503 0.19503
#
# Static dielectric constant tensor:
#      x y z
#    x 1.707180 0.000000 0.000000 
#    y 0.000000 1.707180 0.000000 
#    z 0.000000 0.000000 1.754420 
# 
# From -- ./inp_files/1466.got.cif
#   From: 2010.05.17/outbox.cif.g08.bks.cpg/sg122_1_cif.got.tgz:1466.got - 2010.05.20 11:37:33.
