data_PCOD9561294
_publ_section_title
;
Structure prediction by ZEFSAII (Michael W. Deem and Ramdas Pophale) SiO2 
 PCOD9561294
Probable space group: I -4 2 D
;
_chemical_formula_sum "Si O2"
_cell_formula_units_Z 40
_cell_length_a 19.902814
_cell_length_b 19.902814
_cell_length_c 4.884973
_cell_angle_alpha 90.000000
_cell_angle_beta 90.000000
_cell_angle_gamma 90.000000
_cell_volume 1935.045300
_symmetry_space_group_name_H-M "I -4 2 D"
_symmetry_group_IT_number 122
_symmetry_cell_setting 'tetragonal'
loop_
_space_group_symop_operation_xyz
x,y,z
y,-x,-z
-x,-y,z
-y,x,-z
x,1/2-y,1/4-z
-x,1/2+y,1/4-z
-y,1/2-x,1/4+z
y,1/2+x,1/4+z
1/2+x,1/2+y,1/2+z
1/2+y,1/2-x,1/2-z
1/2-x,1/2-y,1/2+z
1/2-y,1/2+x,1/2-z
1/2+x,-y,3/4-z
1/2-x,y,3/4-z
1/2-y,-x,3/4+z
1/2+y,x,3/4+z
loop_
_atom_site_type_symbol
_atom_site_label
_atom_site_fract_x
_atom_site_fract_y
_atom_site_fract_z
Si Si1 0.679754 0.609162 0.498422
Si Si2 0.521097 0.750000 0.625000
Si Si3 0.817477 0.370622 0.770299
O O1 0.750000 0.635842 0.375000
O O2 0.694101 0.529646 0.498889
O O3 0.623162 0.635312 0.287070
O O4 0.666986 0.638850 0.794147
O O5 0.565967 0.785908 0.393814
O O6 0.750000 0.334345 0.875000
#
# Coordination Sequence:
#
# PCOD9561294 Si02
#       3
#    16   8  16
#     4  10  25  40  65  97 133 168 220 270 336 400
#     4  10  26  44  64  96 140 174 224 264 338 400
#     4  12  22  42  66  98 132 174 213 276 336 397
#
# _framework density 20.67135
#
# number of rings (size 3 to 8) (size 9 to 14) (size 15 to 20)
#    1.200    0.000    4.000    1.200    5.600    3.200 
#    3.600    0.000    0.000    7.200    0.000    0.000 
#    0.000    0.000    0.000    0.000    0.000    0.000 
#
# Total GULP energy -111417.158286 kJ/mol
# GULP energy per Si atom -5570.857914 kJ/mol
# Density = 2.062430 g / cm^3
# Si number density = 20.671350 Si / 1000 Ang^3
#
#
#
# Elastic Constant Matrix: (Units=GPa)
#
#
# Indices 1 2 3 4 5 6 
#
# 1 77.4155 29.0105 23.2327 0.0000 0.0000 0.0000
# 2 29.0105 77.4155 23.2327 0.0000 0.0000 0.0000
# 3 23.2327 23.2327 127.0209 0.0000 0.0000 0.0000
# 4 0.0000 0.0000 0.0000 31.1872 0.0000 0.0000
# 5 0.0000 0.0000 0.0000 0.0000 31.1872 0.0000
# 6 0.0000 0.0000 0.0000 0.0000 0.0000 6.7175
#
#
#
# Elastic Compliance Matrix: (Units=1/GPa)
#
#
# Indices 1 2 3 4 5 6 
#
# 1 0.015435 -0.005224 -0.001868 0.000000 0.000000 0.000000
# 2 -0.005224 0.015435 -0.001868 0.000000 0.000000 0.000000
# 3 -0.001868 -0.001868 0.008556 0.000000 0.000000 0.000000
# 4 0.000000 0.000000 0.000000 0.032064 0.000000 0.000000
# 5 0.000000 0.000000 0.000000 0.000000 0.032064 0.000000
# 6 0.000000 0.000000 0.000000 0.000000 0.000000 0.148864
#
#
# Mechanical properties :
#
#
# Convention : Reuss Voigt Hill
#
# Bulk Modulus (GPa) = 46.49378 48.08929 47.29153
# Shear Modulus (GPa) = 18.01756 27.57681 22.79718
#
# Velocity S-wave (km/s) = 2.95552 3.65644 3.32451
# Velocity P-wave (km/s) = 5.84701 6.41407 6.13709
#
# Compressibility (1/GPa) = 0.02150825
#
# Stress axis : x y z
#
# Youngs Moduli (GPa) = 64.78643 64.78643 116.87757
#
# Poissons Ratio (x) = 0.33842 0.21830
# Poissons Ratio (y) = 0.33842 0.21830
# Poissons Ratio (z) = 0.12101 0.12101
#
# Static dielectric constant tensor:
#      x y z
#    x 1.796220 0.000000 0.000000 
#    y 0.000000 1.796220 0.000000 
#    z 0.000000 0.000000 1.765320 
# 
# From -- ./inp_files/520.got.cif
#   From: 2010.05.17/outbox.cif.g08.bks.cpg/sg122_1_cif.got.tgz:520.got - 2010.05.20 11:37:33.
