data_PCOD9561085
_publ_section_title
;
Structure prediction by ZEFSAII (Michael W. Deem and Ramdas Pophale) SiO2 
 PCOD9561085
Probable space group: I -4 2 D
;
_chemical_formula_sum "Si O2"
_cell_formula_units_Z 48
_cell_length_a 9.164084
_cell_length_b 9.164084
_cell_length_c 24.647893
_cell_angle_alpha 90.000000
_cell_angle_beta 90.000000
_cell_angle_gamma 90.000000
_cell_volume 2069.940790
_symmetry_space_group_name_H-M "I -4 2 D"
_symmetry_group_IT_number 122
_symmetry_cell_setting 'tetragonal'
loop_
_space_group_symop_operation_xyz
x,y,z
y,-x,-z
-x,-y,z
-y,x,-z
x,1/2-y,1/4-z
-x,1/2+y,1/4-z
-y,1/2-x,1/4+z
y,1/2+x,1/4+z
1/2+x,1/2+y,1/2+z
1/2+y,1/2-x,1/2-z
1/2-x,1/2-y,1/2+z
1/2-y,1/2+x,1/2-z
1/2+x,-y,3/4-z
1/2-x,y,3/4-z
1/2-y,-x,3/4+z
1/2+y,x,3/4+z
loop_
_atom_site_type_symbol
_atom_site_label
_atom_site_fract_x
_atom_site_fract_y
_atom_site_fract_z
Si Si1 0.250000 0.499015 0.375000
Si Si2 0.741165 0.095080 0.068015
Si Si3 0.495904 0.250000 0.125000
Si Si4 0.744964 0.745558 0.542942
O O1 0.133608 0.389996 0.348796
O O2 0.196549 0.608414 0.421781
O O3 0.605814 0.122333 0.107319
O O4 0.752118 0.931081 0.046812
O O5 0.718949 0.210054 0.018924
O O6 0.390300 0.291337 0.074788
#
# Coordination Sequence:
#
# PCOD9561085 Si02
#       4
#     8  16   8  16
#     4  10  22  38  72 106 136 170 232 308 358 404
#     4  11  22  45  72 106 137 187 238 298 349 436
#     4  10  26  46  60 106 152 178 228 296 370 412
#     4  11  22  45  72 106 137 187 238 298 349 436
#
# _framework density 23.189070000000001
#
# number of rings (size 3 to 8) (size 9 to 14) (size 15 to 20)
#    0.000    1.333    3.333    2.000    0.000    0.000 
#   36.000    0.000    0.000    0.000    0.000    0.000 
#    0.000    0.000    0.000    0.000    0.000    0.000 
#
# Total GULP energy -134253.773565 kJ/mol
# GULP energy per Si atom -5593.907232 kJ/mol
# Density = 2.313629 g / cm^3
# Si number density = 23.189070 Si / 1000 Ang^3
#
#
#
# Elastic Constant Matrix: (Units=GPa)
#
#
# Indices 1 2 3 4 5 6 
#
# 1 101.1004 8.0111 41.3196 0.0000 0.0000 0.0000
# 2 8.0111 101.1004 41.3196 0.0000 0.0000 0.0000
# 3 41.3196 41.3196 89.0330 0.0000 0.0000 0.0000
# 4 0.0000 0.0000 0.0000 27.7082 0.0000 0.0000
# 5 0.0000 0.0000 0.0000 0.0000 27.7082 0.0000
# 6 0.0000 0.0000 0.0000 0.0000 0.0000 -27.8683
#
#
#
# Elastic Compliance Matrix: (Units=1/GPa)
#
#
# Indices 1 2 3 4 5 6 
#
# 1 0.012437 0.001695 -0.006559 0.000000 0.000000 0.000000
# 2 0.001695 0.012437 -0.006559 0.000000 0.000000 0.000000
# 3 -0.006559 -0.006559 0.017320 0.000000 0.000000 0.000000
# 4 0.000000 0.000000 0.000000 0.036090 0.000000 0.000000
# 5 0.000000 0.000000 0.000000 0.000000 0.036090 0.000000
# 6 0.000000 0.000000 0.000000 0.000000 0.000000 -0.035883
#
#
# Mechanical properties :
#
#
# Convention : Reuss Voigt Hill
#
# Bulk Modulus (GPa) = 51.68128 52.50379 52.09253
# Shear Modulus (GPa) = 46.38782 18.88184 32.63483
#
# Velocity S-wave (km/s) = 4.47745 2.85661 3.75552
# Velocity P-wave (km/s) = 7.00467 5.79406 6.42793
#
# Compressibility (1/GPa) = 0.01934937
#
# Stress axis : x y z
#
# Youngs Moduli (GPa) = 80.40263 80.40264 57.73832
#
# Poissons Ratio (x) = -0.13628 0.37869
# Poissons Ratio (y) = -0.13628 0.37869
# Poissons Ratio (z) = 0.52734 0.52734
#
# Static dielectric constant tensor:
#      x y z
#    x 1.874060 0.000000 0.000000 
#    y 0.000000 1.874060 0.000000 
#    z 0.000000 0.000000 1.869140 
# 
# From -- ./inp_files/9125.got.cif
#   From: 2010.05.17/outbox.cif.g08.bks.cpg/sg122_5_cif.got.tgz:9125.got - 2010.05.20 11:37:33.
