data_PCOD9561645
_publ_section_title
;
Structure prediction by ZEFSAII (Michael W. Deem and Ramdas Pophale) SiO2 
 PCOD9561645
Probable space group: P 4/M M M
;
_chemical_formula_sum "Si O2"
_cell_formula_units_Z 128
_cell_length_a 17.828917
_cell_length_b 17.828917
_cell_length_c 23.152691
_cell_angle_alpha 90.000000
_cell_angle_beta 90.000000
_cell_angle_gamma 90.000000
_cell_volume 7359.552403
_symmetry_space_group_name_H-M "P 4/M M M"
_symmetry_group_IT_number 123
_symmetry_cell_setting 'tetragonal'
loop_
_space_group_symop_operation_xyz
x,y,z
-y,x,z
-x,-y,z
y,-x,z
x,-y,-z
-x,y,-z
y,x,-z
-y,-x,-z
-x,-y,-z
y,-x,-z
x,y,-z
-y,x,-z
-x,y,z
x,-y,z
-y,-x,z
y,x,z
loop_
_atom_site_type_symbol
_atom_site_label
_atom_site_fract_x
_atom_site_fract_y
_atom_site_fract_z
Si Si1 0.288464 0.413079 0.840959
Si Si2 0.916249 0.662522 0.677151
Si Si3 0.798300 0.330384 0.063576
Si Si4 0.295378 0.414698 0.588873
Si Si5 0.707327 0.832340 0.565401
Si Si6 0.630137 0.248298 0.289135
Si Si7 0.081187 0.799247 0.765275
Si Si8 0.912965 0.789226 0.902356
O O1 0.304444 0.500000 0.850135
O O2 0.360860 0.360860 0.851800
O O3 0.223483 0.384965 0.884387
O O4 0.264750 0.399020 0.774644
O O5 0.894572 0.695370 0.614250
O O6 0.839771 0.620969 0.696370
O O7 0.919625 0.727695 0.724798
O O8 0.000000 0.627121 0.675520
O O9 0.734943 0.265058 0.065387
O O10 0.875346 0.284991 0.071650
O O11 0.795497 0.365878 0.000000
O O12 0.291526 0.500000 0.569344
O O13 0.370137 0.370137 0.571208
O O14 0.225461 0.363097 0.569076
O O15 0.290323 0.411697 0.658836
O O16 0.712412 0.861144 0.500000
O O17 0.780118 0.780118 0.577292
O O18 0.715479 0.284522 0.291595
O O19 0.146266 0.853735 0.746375
O O20 0.092318 0.780165 0.832701
O O21 0.000000 0.837401 0.761415
O O22 0.861030 0.861030 0.917772
O O23 0.000000 0.799074 0.917847
#
# Coordination Sequence:
#
# PCOD9561645 Si02
#       8
#    16  16  16  16  16  16  16  16
#     4  10  20  34  55  80 103 129 160 196 241 293
#     4  10  18  28  47  71  92 118 157 206 246 272
#     4   9  18  32  49  69  95 131 172 206 239 289
#     4   9  17  29  47  71  96 122 151 183 224 278
#     4   9  18  32  48  65  89 124 161 195 237 291
#     4   9  17  31  50  71  98 131 162 190 230 290
#     4   9  16  25  39  62  91 120 150 186 233 287
#     4   9  17  29  47  72 101 133 170 214 261 305
#
# _framework density 17.392361999999999
#
# number of rings (size 3 to 8) (size 9 to 14) (size 15 to 20)
#    0.000    2.750    0.000    3.000    0.000    3.500 
#    0.000    1.250    0.000   12.750    0.000    9.625 
#    0.000    0.000    0.000   19.500    0.000    0.125 
#
# Total GULP energy -712694.624554 kJ/mol
# GULP energy per Si atom -5567.926754 kJ/mol
# Density = 1.735278 g / cm^3
# Si number density = 17.392362 Si / 1000 Ang^3
#
#
#
# Elastic Constant Matrix: (Units=GPa)
#
#
# Indices 1 2 3 4 5 6 
#
# 1 77.0214 12.5056 14.8303 0.0000 0.0000 0.0000
# 2 12.5056 77.0214 14.8303 0.0000 0.0000 0.0000
# 3 14.8303 14.8303 73.4881 0.0000 0.0000 0.0000
# 4 0.0000 0.0000 0.0000 7.1603 0.0000 0.0000
# 5 0.0000 0.0000 0.0000 0.0000 7.1603 0.0000
# 6 0.0000 0.0000 0.0000 0.0000 0.0000 9.1716
#
#
#
# Elastic Compliance Matrix: (Units=1/GPa)
#
#
# Indices 1 2 3 4 5 6 
#
# 1 0.013735 -0.001765 -0.002416 0.000000 0.000000 0.000000
# 2 -0.001765 0.013735 -0.002416 0.000000 0.000000 0.000000
# 3 -0.002416 -0.002416 0.014583 0.000000 0.000000 0.000000
# 4 0.000000 0.000000 0.000000 0.139660 0.000000 0.000000
# 5 0.000000 0.000000 0.000000 0.000000 0.139660 0.000000
# 6 0.000000 0.000000 0.000000 0.000000 0.000000 0.109032
#
#
# Mechanical properties :
#
#
# Convention : Reuss Voigt Hill
#
# Bulk Modulus (GPa) = 34.64964 34.65147 34.65055
# Shear Modulus (GPa) = 11.03223 17.05607 14.04415
#
# Velocity S-wave (km/s) = 2.52129 3.13495 2.84472
# Velocity P-wave (km/s) = 5.33305 5.75070 5.54581
#
# Compressibility (1/GPa) = 0.02886033
#
# Stress axis : x y z
#
# Youngs Moduli (GPa) = 72.80619 72.80619 68.57477
#
# Poissons Ratio (x) = 0.12850 0.16565
# Poissons Ratio (y) = 0.12850 0.16565
# Poissons Ratio (z) = 0.17587 0.17587
#
# Static dielectric constant tensor:
#      x y z
#    x 1.602840 0.000000 0.000000 
#    y 0.000000 1.602840 0.000000 
#    z 0.000000 0.000000 1.616190 
# 
# From -- ./inp_files/7692.got.cif
#   From: 2010.05.17/outbox.cif.g08.bks.cpg/sg123_4_cif.got.tgz:7692.got - 2010.05.20 11:43:04.
