data_PCOD9561687
_publ_section_title
;
Structure prediction by ZEFSAII (Michael W. Deem and Ramdas Pophale) SiO2 
 PCOD9561687
Probable space group: P 4/M M M
;
_chemical_formula_sum "Si O2"
_cell_formula_units_Z 96
_cell_length_a 23.105254
_cell_length_b 23.105254
_cell_length_c 11.926851
_cell_angle_alpha 90.000000
_cell_angle_beta 90.000000
_cell_angle_gamma 90.000000
_cell_volume 6367.182353
_symmetry_space_group_name_H-M "P 4/M M M"
_symmetry_group_IT_number 123
_symmetry_cell_setting 'tetragonal'
loop_
_space_group_symop_operation_xyz
x,y,z
-y,x,z
-x,-y,z
y,-x,z
x,-y,-z
-x,y,-z
y,x,-z
-y,-x,-z
-x,-y,-z
y,-x,-z
x,y,-z
-y,x,-z
-x,y,z
x,-y,z
-y,-x,z
y,x,z
loop_
_atom_site_type_symbol
_atom_site_label
_atom_site_fract_x
_atom_site_fract_y
_atom_site_fract_z
Si Si1 0.936204 0.614424 0.365435
Si Si2 0.434054 0.186721 0.364849
Si Si3 0.324724 0.230267 0.755995
Si Si4 0.265184 0.875746 0.367275
Si Si5 0.933368 0.837645 0.764023
Si Si6 0.795230 0.894282 0.000000
Si Si7 0.199174 0.298366 0.000000
O O1 0.938688 0.606169 0.500000
O O2 0.879822 0.578814 0.327888
O O3 0.920360 0.681777 0.346862
O O4 0.000000 0.600027 0.320165
O O5 0.426404 0.188524 0.500000
O O6 0.500000 0.202256 0.338950
O O7 0.385369 0.226080 0.307968
O O8 0.291101 0.291101 0.751258
O O9 0.283019 0.182475 0.697654
O O10 0.331686 0.210562 0.884893
O O11 0.262424 0.864449 0.500000
O O12 0.206336 0.902205 0.320898
O O13 0.896582 0.896582 0.767807
O O14 0.000000 0.846856 0.734654
O O15 0.928622 0.807663 0.886450
O O16 0.732997 0.863118 0.000000
O O17 0.842330 0.842330 0.000000
O O18 0.246488 0.246488 0.000000
#
# Coordination Sequence:
#
# PCOD9561687 Si02
#       7
#    16  16  16  16  16   8   8
#     4   8  14  25  41  61  85 114 148 183 218 259
#     4   9  18  30  43  65  99 133 162 192 223 262
#     4  10  18  30  50  73  95 120 152 190 234 279
#     4  10  19  30  46  69  94 113 138 183 235 284
#     4  11  22  34  48  63  82 110 144 185 233 286
#     4   9  17  33  50  66  84 104 135 179 233 284
#     4   9  16  29  50  73  94 112 140 189 239 281
#
# _framework density 15.077313
#
# number of rings (size 3 to 8) (size 9 to 14) (size 15 to 20)
#    0.000    2.500    1.667    2.750    0.000    3.833 
#    0.000    2.083    0.000    1.500    0.000    1.167 
#    0.000    3.333    0.000    1.833    0.000    4.667 
#
# Total GULP energy -534915.605167 kJ/mol
# GULP energy per Si atom -5572.037554 kJ/mol
# Density = 1.504300 g / cm^3
# Si number density = 15.077313 Si / 1000 Ang^3
#
#
#
# Elastic Constant Matrix: (Units=GPa)
#
#
# Indices 1 2 3 4 5 6 
#
# 1 79.3675 39.5129 29.7205 0.0000 0.0000 0.0000
# 2 39.5129 79.3675 29.7205 0.0000 0.0000 0.0000
# 3 29.7205 29.7205 66.9521 0.0000 0.0000 0.0000
# 4 0.0000 0.0000 0.0000 14.6828 0.0000 0.0000
# 5 0.0000 0.0000 0.0000 0.0000 14.6828 0.0000
# 6 0.0000 0.0000 0.0000 0.0000 0.0000 5.5872
#
#
#
# Elastic Compliance Matrix: (Units=1/GPa)
#
#
# Indices 1 2 3 4 5 6 
#
# 1 0.017951 -0.007140 -0.004799 0.000000 0.000000 0.000000
# 2 -0.007140 0.017951 -0.004799 0.000000 0.000000 0.000000
# 3 -0.004799 -0.004799 0.019197 0.000000 0.000000 0.000000
# 4 0.000000 0.000000 0.000000 0.068107 0.000000 0.000000
# 5 0.000000 0.000000 0.000000 0.000000 0.068107 0.000000
# 6 0.000000 0.000000 0.000000 0.000000 0.000000 0.178980
#
#
# Mechanical properties :
#
#
# Convention : Reuss Voigt Hill
#
# Bulk Modulus (GPa) = 46.24763 47.06610 46.65687
# Shear Modulus (GPa) = 12.16609 15.43944 13.80277
#
# Velocity S-wave (km/s) = 2.84370 3.20350 3.02895
# Velocity P-wave (km/s) = 6.44379 6.70578 6.57609
#
# Compressibility (1/GPa) = 0.02162273
#
# Stress axis : x y z
#
# Youngs Moduli (GPa) = 55.70609 55.70609 52.09164
#
# Poissons Ratio (x) = 0.39773 0.25000
# Poissons Ratio (y) = 0.39773 0.25000
# Poissons Ratio (z) = 0.26735 0.26735
#
# Static dielectric constant tensor:
#      x y z
#    x 1.500090 0.000000 0.000000 
#    y 0.000000 1.500090 0.000000 
#    z 0.000000 0.000000 1.511060 
# 
# From -- ./inp_files/3317.got.cif
#   From: 2010.05.17/outbox.cif.g08.bks.cpg/sg123_2_cif.got.tgz:3317.got - 2010.05.20 11:43:04.
