data_PCOD9561255
_publ_section_title
;
Structure prediction by ZEFSAII (Michael W. Deem and Ramdas Pophale) SiO2 
 PCOD9561255
Probable space group: I -4 2 D
;
_chemical_formula_sum "Si O2"
_cell_formula_units_Z 40
_cell_length_a 7.858950
_cell_length_b 7.858950
_cell_length_c 28.143232
_cell_angle_alpha 90.000000
_cell_angle_beta 90.000000
_cell_angle_gamma 90.000000
_cell_volume 1738.213115
_symmetry_space_group_name_H-M "I -4 2 D"
_symmetry_group_IT_number 122
_symmetry_cell_setting 'tetragonal'
loop_
_space_group_symop_operation_xyz
x,y,z
y,-x,-z
-x,-y,z
-y,x,-z
x,1/2-y,1/4-z
-x,1/2+y,1/4-z
-y,1/2-x,1/4+z
y,1/2+x,1/4+z
1/2+x,1/2+y,1/2+z
1/2+y,1/2-x,1/2-z
1/2-x,1/2-y,1/2+z
1/2-y,1/2+x,1/2-z
1/2+x,-y,3/4-z
1/2-x,y,3/4-z
1/2-y,-x,3/4+z
1/2+y,x,3/4+z
loop_
_atom_site_type_symbol
_atom_site_label
_atom_site_fract_x
_atom_site_fract_y
_atom_site_fract_z
Si Si1 0.126803 0.262842 0.747595
Si Si2 0.137312 0.143001 0.916970
Si Si3 0.000000 0.000000 0.329828
O O1 0.199323 0.442432 0.729579
O O2 0.253506 0.184466 0.786033
O O3 0.082398 0.142477 0.704122
O O4 0.250000 0.066831 0.875000
O O5 0.071471 0.327422 0.896847
O O6 0.000000 0.000000 0.929134
#
# Coordination Sequence:
#
# PCOD9561255 Si02
#       3
#    16  16   8
#     4   9  21  42  67  95 128 178 230 286 342 420
#     4  11  27  42  65 102 138 183 229 297 357 420
#     4  10  24  42  70  94 133 184 229 286 338 430
#
# _framework density 23.012139999999999
#
# number of rings (size 3 to 8) (size 9 to 14) (size 15 to 20)
#    0.000    2.000    0.000    0.000   14.000    8.000 
#    0.000    0.000    0.000    0.000    0.000    0.000 
#    0.000    0.000    0.000    0.000    0.000    0.000 
#
# Total GULP energy -111745.840163 kJ/mol
# GULP energy per Si atom -5587.292008 kJ/mol
# Density = 2.295976 g / cm^3
# Si number density = 23.012140 Si / 1000 Ang^3
#
#
#
# Elastic Constant Matrix: (Units=GPa)
#
#
# Indices 1 2 3 4 5 6 
#
# 1 117.8170 86.4063 38.5195 0.0000 0.0000 0.0000
# 2 86.4063 117.8170 38.5195 0.0000 0.0000 0.0000
# 3 38.5195 38.5195 34.9511 0.0000 0.0000 0.0000
# 4 0.0000 0.0000 0.0000 23.3816 0.0000 0.0000
# 5 0.0000 0.0000 0.0000 0.0000 23.3816 0.0000
# 6 0.0000 0.0000 0.0000 0.0000 0.0000 57.6254
#
#
#
# Elastic Compliance Matrix: (Units=1/GPa)
#
#
# Indices 1 2 3 4 5 6 
#
# 1 0.020109 -0.011728 -0.009237 0.000000 0.000000 0.000000
# 2 -0.011728 0.020109 -0.009237 0.000000 0.000000 0.000000
# 3 -0.009237 -0.009237 0.048971 0.000000 0.000000 0.000000
# 4 0.000000 0.000000 0.000000 0.042769 0.000000 0.000000
# 5 0.000000 0.000000 0.000000 0.000000 0.042769 0.000000
# 6 0.000000 0.000000 0.000000 0.000000 0.000000 0.017353
#
#
# Mechanical properties :
#
#
# Convention : Reuss Voigt Hill
#
# Bulk Modulus (GPa) = 34.73892 66.38619 50.56256
# Shear Modulus (GPa) = 19.07843 28.02035 23.54939
#
# Velocity S-wave (km/s) = 2.88246 3.49325 3.20245
# Velocity P-wave (km/s) = 5.11926 6.72170 5.97445
#
# Compressibility (1/GPa) = 0.02878615
#
# Stress axis : x y z
#
# Youngs Moduli (GPa) = 49.72990 49.72990 20.42036
#
# Poissons Ratio (x) = 0.58322 0.18861
# Poissons Ratio (y) = 0.58322 0.18861
# Poissons Ratio (z) = 0.45934 0.45934
#
# Static dielectric constant tensor:
#      x y z
#    x 1.927590 0.000000 0.000000 
#    y 0.000000 1.927590 0.000000 
#    z 0.000000 0.000000 1.781640 
# 
# From -- ./inp_files/7640.got.cif
#   From: 2010.05.17/outbox.cif.g08.bks.cpg/sg122_4_cif.got.tgz:7640.got - 2010.05.20 11:37:33.
