data_PCOD9561651
_publ_section_title
;
Structure prediction by ZEFSAII (Michael W. Deem and Ramdas Pophale) SiO2 
 PCOD9561651
Probable space group: P 4/M M M
;
_chemical_formula_sum "Si O2"
_cell_formula_units_Z 72
_cell_length_a 19.805868
_cell_length_b 19.805868
_cell_length_c 12.744412
_cell_angle_alpha 90.000000
_cell_angle_beta 90.000000
_cell_angle_gamma 90.000000
_cell_volume 4999.281174
_symmetry_space_group_name_H-M "P 4/M M M"
_symmetry_group_IT_number 123
_symmetry_cell_setting 'tetragonal'
loop_
_space_group_symop_operation_xyz
x,y,z
-y,x,z
-x,-y,z
y,-x,z
x,-y,-z
-x,y,-z
y,x,-z
-y,-x,-z
-x,-y,-z
y,-x,-z
x,y,-z
-y,x,-z
-x,y,z
x,-y,z
-y,-x,z
y,x,z
loop_
_atom_site_type_symbol
_atom_site_label
_atom_site_fract_x
_atom_site_fract_y
_atom_site_fract_z
Si Si1 0.917886 0.577738 0.000000
Si Si2 0.661994 0.918819 0.205225
Si Si3 0.809859 0.078724 0.874144
Si Si4 0.841251 0.578822 0.625090
Si Si5 0.575844 0.315954 0.627470
O O1 0.897066 0.617892 0.104136
O O2 0.895272 0.500000 0.000000
O O3 0.000000 0.577431 0.000000
O O4 0.740311 0.902454 0.183670
O O5 0.629276 0.885617 0.307027
O O6 0.657570 0.000000 0.212343
O O7 0.870932 0.129069 0.848541
O O8 0.825689 0.000000 0.851323
O O9 0.797517 0.082777 0.000000
O O10 0.848618 0.589134 0.500000
O O11 0.858516 0.500000 0.646600
O O12 0.762298 0.588306 0.653242
O O13 0.575735 0.318802 0.500000
O O14 0.500000 0.334438 0.661962
O O15 0.632721 0.367280 0.665830
#
# Coordination Sequence:
#
# PCOD9561651 Si02
#       5
#     8  16  16  16  16
#     4   9  16  26  41  60  81 109 143 176 213 252
#     4  10  18  29  44  63  87 114 146 184 218 253
#     4   9  17  30  47  67  91 115 141 178 225 275
#     4   9  18  30  42  60  89 123 154 183 217 257
#     4   8  14  25  40  58  81 108 139 176 216 256
#
# _framework density 14.402072
#
# number of rings (size 3 to 8) (size 9 to 14) (size 15 to 20)
#    0.000    3.000    1.111    2.000    0.000    3.111 
#    0.000    3.333    0.000    0.000    0.000    0.000 
#    0.000    0.000    0.000    4.889    0.000   10.444 
#
# Total GULP energy -400816.437546 kJ/mol
# GULP energy per Si atom -5566.894966 kJ/mol
# Density = 1.436929 g / cm^3
# Si number density = 14.402072 Si / 1000 Ang^3
#
#
#
# Elastic Constant Matrix: (Units=GPa)
#
#
# Indices 1 2 3 4 5 6 
#
# 1 84.7104 71.5549 39.2544 0.0000 0.0000 0.0000
# 2 71.5549 84.7104 39.2544 0.0000 0.0000 0.0000
# 3 39.2544 39.2544 43.4169 0.0000 0.0000 0.0000
# 4 0.0000 0.0000 0.0000 17.1927 0.0000 0.0000
# 5 0.0000 0.0000 0.0000 0.0000 17.1927 0.0000
# 6 0.0000 0.0000 0.0000 0.0000 0.0000 26.3033
#
#
#
# Elastic Compliance Matrix: (Units=1/GPa)
#
#
# Indices 1 2 3 4 5 6 
#
# 1 0.043870 -0.032144 -0.010601 0.000000 0.000000 0.000000
# 2 -0.032144 0.043870 -0.010601 0.000000 0.000000 0.000000
# 3 -0.010601 -0.010601 0.042203 0.000000 0.000000 0.000000
# 4 0.000000 0.000000 0.000000 0.058164 0.000000 0.000000
# 5 0.000000 0.000000 0.000000 0.000000 0.058164 0.000000
# 6 0.000000 0.000000 0.000000 0.000000 0.000000 0.038018
#
#
# Mechanical properties :
#
#
# Convention : Reuss Voigt Hill
#
# Bulk Modulus (GPa) = 43.01435 56.99612 50.00523
# Shear Modulus (GPa) = 12.53974 16.32266 14.43120
#
# Velocity S-wave (km/s) = 2.95395 3.37019 3.16891
# Velocity P-wave (km/s) = 6.44717 7.40304 6.94158
#
# Compressibility (1/GPa) = 0.02324806
#
# Stress axis : x y z
#
# Youngs Moduli (GPa) = 22.79476 22.79476 23.69520
#
# Poissons Ratio (x) = 0.73272 0.25120
# Poissons Ratio (y) = 0.73272 0.25120
# Poissons Ratio (z) = 0.24166 0.24166
#
# Static dielectric constant tensor:
#      x y z
#    x 1.473050 0.000000 0.000000 
#    y 0.000000 1.473050 0.000000 
#    z 0.000000 0.000000 1.458310 
# 
# From -- ./inp_files/2738.got.cif
#   From: 2010.05.17/outbox.cif.g08.bks.cpg/sg123_2_cif.got.tgz:2738.got - 2010.05.20 11:43:04.
