data_PCOD9561170
_publ_section_title
;
Structure prediction by ZEFSAII (Michael W. Deem and Ramdas Pophale) SiO2 
 PCOD9561170
Probable space group: I -4 2 D
;
_chemical_formula_sum "Si O2"
_cell_formula_units_Z 48
_cell_length_a 13.482982
_cell_length_b 13.482982
_cell_length_c 12.445046
_cell_angle_alpha 90.000000
_cell_angle_beta 90.000000
_cell_angle_gamma 90.000000
_cell_volume 2262.394913
_symmetry_space_group_name_H-M "I -4 2 D"
_symmetry_group_IT_number 122
_symmetry_cell_setting 'tetragonal'
loop_
_space_group_symop_operation_xyz
x,y,z
y,-x,-z
-x,-y,z
-y,x,-z
x,1/2-y,1/4-z
-x,1/2+y,1/4-z
-y,1/2-x,1/4+z
y,1/2+x,1/4+z
1/2+x,1/2+y,1/2+z
1/2+y,1/2-x,1/2-z
1/2-x,1/2-y,1/2+z
1/2-y,1/2+x,1/2-z
1/2+x,-y,3/4-z
1/2-x,y,3/4-z
1/2-y,-x,3/4+z
1/2+y,x,3/4+z
loop_
_atom_site_type_symbol
_atom_site_label
_atom_site_fract_x
_atom_site_fract_y
_atom_site_fract_z
Si Si1 0.613605 0.384256 0.500957
Si Si2 0.706496 0.610527 0.096155
Si Si3 0.391751 0.226525 0.968229
O O1 0.498113 0.371573 0.531692
O O2 0.634264 0.309343 0.405526
O O3 0.677550 0.365751 0.605715
O O4 0.723403 0.500243 0.049665
O O5 0.623760 0.641625 0.188236
O O6 0.680505 0.685390 0.001967
#
# Coordination Sequence:
#
# PCOD9561170 Si02
#       3
#    16  16  16
#     4   9  19  42  73 102 133 179 241 293 352 435
#     4  10  22  45  68 102 141 189 231 297 369 436
#     4  10  22  45  69 103 140 183 241 293 364 435
#
# _framework density 21.216455
#
# number of rings (size 3 to 8) (size 9 to 14) (size 15 to 20)
#    0.000    2.333    0.000    1.000    0.000    0.667 
#   54.000   20.000    0.000    0.000    0.000    0.000 
#    0.000    0.000    0.000    0.000    0.000    0.000 
#
# Total GULP energy -133892.305583 kJ/mol
# GULP energy per Si atom -5578.846066 kJ/mol
# Density = 2.116817 g / cm^3
# Si number density = 21.216455 Si / 1000 Ang^3
#
#
#
# Elastic Constant Matrix: (Units=GPa)
#
#
# Indices 1 2 3 4 5 6 
#
# 1 143.2777 100.7642 86.8163 0.0000 0.0000 0.0000
# 2 100.7642 143.2777 86.8163 0.0000 0.0000 0.0000
# 3 86.8163 86.8163 117.9274 0.0000 0.0000 0.0000
# 4 0.0000 0.0000 0.0000 43.5601 0.0000 0.0000
# 5 0.0000 0.0000 0.0000 0.0000 43.5601 0.0000
# 6 0.0000 0.0000 0.0000 0.0000 0.0000 385.2595
#
#
#
# Elastic Compliance Matrix: (Units=1/GPa)
#
#
# Indices 1 2 3 4 5 6 
#
# 1 0.016063 -0.007459 -0.006335 0.000000 0.000000 0.000000
# 2 -0.007459 0.016063 -0.006335 0.000000 0.000000 0.000000
# 3 -0.006335 -0.006335 0.017807 0.000000 0.000000 0.000000
# 4 0.000000 0.000000 0.000000 0.022957 0.000000 0.000000
# 5 0.000000 0.000000 0.000000 0.000000 0.022957 0.000000
# 6 0.000000 0.000000 0.000000 0.000000 0.000000 0.002596
#
#
# Mechanical properties :
#
#
# Convention : Reuss Voigt Hill
#
# Bulk Modulus (GPa) = 103.33207 105.91961 104.62584
# Shear Modulus (GPa) = 35.23013 103.14835 69.18924
#
# Velocity S-wave (km/s) = 4.07936 6.98016 5.71681
# Velocity P-wave (km/s) = 8.42601 10.72359 9.64347
#
# Compressibility (1/GPa) = 0.00967754
#
# Stress axis : x y z
#
# Youngs Moduli (GPa) = 62.25376 62.25376 56.15877
#
# Poissons Ratio (x) = 0.46433 0.35574
# Poissons Ratio (y) = 0.46433 0.35574
# Poissons Ratio (z) = 0.39435 0.39435
#
# Static dielectric constant tensor:
#      x y z
#    x 1.797310 0.000000 0.000000 
#    y 0.000000 1.797310 0.000000 
#    z 0.000000 0.000000 1.726150 
# 
# From -- ./inp_files/3719.got.cif
#   From: 2010.05.17/outbox.cif.g08.bks.cpg/sg122_2_cif.got.tgz:3719.got - 2010.05.20 11:37:33.
