data_PCOD9561709
_publ_section_title
;
Structure prediction by ZEFSAII (Michael W. Deem and Ramdas Pophale) SiO2 
 PCOD9561709
Probable space group: P 4/M M M
;
_chemical_formula_sum "Si O2"
_cell_formula_units_Z 96
_cell_length_a 23.749561
_cell_length_b 23.749561
_cell_length_c 9.756952
_cell_angle_alpha 90.000000
_cell_angle_beta 90.000000
_cell_angle_gamma 90.000000
_cell_volume 5503.327283
_symmetry_space_group_name_H-M "P 4/M M M"
_symmetry_group_IT_number 123
_symmetry_cell_setting 'tetragonal'
loop_
_space_group_symop_operation_xyz
x,y,z
-y,x,z
-x,-y,z
y,-x,z
x,-y,-z
-x,y,-z
y,x,-z
-y,-x,-z
-x,-y,-z
y,-x,-z
x,y,-z
-y,x,-z
-x,y,z
x,-y,z
-y,-x,z
y,x,z
loop_
_atom_site_type_symbol
_atom_site_label
_atom_site_fract_x
_atom_site_fract_y
_atom_site_fract_z
Si Si1 0.437380 0.657164 0.651851
Si Si2 0.181930 0.668599 0.342957
Si Si3 0.000000 0.253881 0.331831
Si Si4 0.000000 0.626198 0.167402
Si Si5 0.723307 0.370918 0.849715
Si Si6 0.213471 0.877947 0.664873
Si Si7 0.095056 0.566553 0.658220
O O1 0.430686 0.682806 0.500000
O O2 0.500000 0.634700 0.664478
O O3 0.393156 0.606845 0.661774
O O4 0.424676 0.703215 0.765344
O O5 0.201157 0.676153 0.500000
O O6 0.232468 0.662603 0.239490
O O7 0.146884 0.724388 0.305468
O O8 0.146601 0.610648 0.336672
O O9 0.000000 0.312774 0.246231
O O10 0.056287 0.218457 0.296801
O O11 0.000000 0.265409 0.500000
O O12 0.947557 0.590659 0.228316
O O13 0.000000 0.631094 0.000000
O O14 0.668972 0.331029 0.861483
O O15 0.744937 0.384389 0.000000
O O16 0.208100 0.877607 0.500000
O O17 0.163358 0.836643 0.717481
O O18 0.072685 0.571181 0.500000
O O19 0.107687 0.500000 0.679618
#
# Coordination Sequence:
#
# PCOD9561709 Si02
#       7
#    16  16   8   8  16  16  16
#     4   9  18  33  53  75  97 124 162 209 262 320
#     4  10  19  33  54  77 104 136 180 232 271 310
#     4  10  18  35  59  81 114 149 185 228 274 327
#     4  12  23  35  54  79 111 145 182 222 268 318
#     4  10  21  35  50  71 102 137 169 205 258 320
#     4   9  17  30  54  85 110 139 182 228 271 319
#     4  10  21  37  56  77 103 141 187 226 265 315
#
# _framework density 17.443992999999999
#
# number of rings (size 3 to 8) (size 9 to 14) (size 15 to 20)
#    0.000    2.167    1.667    2.000    0.000    4.833 
#    0.000    2.500    0.000    0.750    0.000    4.083 
#    0.000    0.000    0.000    0.750    0.000    0.833 
#
# Total GULP energy -534449.365902 kJ/mol
# GULP energy per Si atom -5567.180895 kJ/mol
# Density = 1.740429 g / cm^3
# Si number density = 17.443993 Si / 1000 Ang^3
#
#
#
# Elastic Constant Matrix: (Units=GPa)
#
#
# Indices 1 2 3 4 5 6 
#
# 1 89.8413 34.1697 35.8067 0.0000 0.0000 0.0000
# 2 34.1697 89.8413 35.8067 0.0000 0.0000 0.0000
# 3 35.8067 35.8067 91.0411 0.0000 0.0000 0.0000
# 4 0.0000 0.0000 0.0000 1.1532 0.0000 0.0000
# 5 0.0000 0.0000 0.0000 0.0000 1.1532 0.0000
# 6 0.0000 0.0000 0.0000 0.0000 0.0000 75.7239
#
#
#
# Elastic Compliance Matrix: (Units=1/GPa)
#
#
# Indices 1 2 3 4 5 6 
#
# 1 0.014198 -0.003764 -0.004104 0.000000 0.000000 0.000000
# 2 -0.003764 0.014198 -0.004104 0.000000 0.000000 0.000000
# 3 -0.004104 -0.004104 0.014212 0.000000 0.000000 0.000000
# 4 0.000000 0.000000 0.000000 0.867148 0.000000 0.000000
# 5 0.000000 0.000000 0.000000 0.000000 0.867148 0.000000
# 6 0.000000 0.000000 0.000000 0.000000 0.000000 0.013206
#
#
# Mechanical properties :
#
#
# Convention : Reuss Voigt Hill
#
# Bulk Modulus (GPa) = 53.57678 53.58776 53.58227
# Shear Modulus (GPa) = 2.74684 26.60210 14.67447
#
# Velocity S-wave (km/s) = 1.25622 3.90936 2.90355
# Velocity P-wave (km/s) = 5.73449 7.15291 6.48261
#
# Compressibility (1/GPa) = 0.01866480
#
# Stress axis : x y z
#
# Youngs Moduli (GPa) = 70.43254 70.43254 70.36356
#
# Poissons Ratio (x) = 0.26514 0.28874
# Poissons Ratio (y) = 0.26514 0.28874
# Poissons Ratio (z) = 0.28902 0.28902
#
# Static dielectric constant tensor:
#      x y z
#    x 1.612910 0.000000 0.000000 
#    y 0.000000 1.612910 0.000000 
#    z 0.000000 0.000000 1.611660 
# 
# From -- ./inp_files/1706.got.cif
#   From: 2010.05.17/outbox.cif.g08.bks.cpg/sg123_1_cif.got.tgz:1706.got - 2010.05.20 11:43:04.
