data_PCOD9561481
_publ_section_title
;
Structure prediction by ZEFSAII (Michael W. Deem and Ramdas Pophale) SiO2 
 PCOD9561481
Probable space group: I -4 2 D
;
_chemical_formula_sum "Si O2"
_cell_formula_units_Z 48
_cell_length_a 8.382957
_cell_length_b 8.382957
_cell_length_c 27.006316
_cell_angle_alpha 90.000000
_cell_angle_beta 90.000000
_cell_angle_gamma 90.000000
_cell_volume 1897.840988
_symmetry_space_group_name_H-M "I -4 2 D"
_symmetry_group_IT_number 122
_symmetry_cell_setting 'tetragonal'
loop_
_space_group_symop_operation_xyz
x,y,z
y,-x,-z
-x,-y,z
-y,x,-z
x,1/2-y,1/4-z
-x,1/2+y,1/4-z
-y,1/2-x,1/4+z
y,1/2+x,1/4+z
1/2+x,1/2+y,1/2+z
1/2+y,1/2-x,1/2-z
1/2-x,1/2-y,1/2+z
1/2-y,1/2+x,1/2-z
1/2+x,-y,3/4-z
1/2-x,y,3/4-z
1/2-y,-x,3/4+z
1/2+y,x,3/4+z
loop_
_atom_site_type_symbol
_atom_site_label
_atom_site_fract_x
_atom_site_fract_y
_atom_site_fract_z
Si Si1 0.658113 0.907720 0.827835
Si Si2 0.245249 0.894555 0.499106
Si Si3 0.582555 0.356182 0.853311
O O1 0.750000 0.983281 0.875000
O O2 0.787743 0.843432 0.788821
O O3 0.562563 0.762518 0.851392
O O4 0.500000 0.000000 0.807154
O O5 0.359740 0.903136 0.451642
O O6 0.077213 0.802872 0.487656
O O7 0.500000 0.500000 0.882527
O O8 0.750000 0.306835 0.875000
#
# Coordination Sequence:
#
# PCOD9561481 Si02
#       3
#    16  16  16
#     4  12  28  50  76 114 158 205 255 319 393 463
#     4  11  26  47  78 113 155 206 264 320 383 463
#     4  12  26  45  76 109 151 204 259 317 376 456
#
# _framework density 25.291898
#
# number of rings (size 3 to 8) (size 9 to 14) (size 15 to 20)
#    0.000    0.333    3.333    4.000    9.333    1.333 
#    0.000    0.000    0.000    0.000    0.000    0.000 
#    0.000    0.000    0.000    0.000    0.000    0.000 
#
# Total GULP energy -134034.091894 kJ/mol
# GULP energy per Si atom -5584.753829 kJ/mol
# Density = 2.523433 g / cm^3
# Si number density = 25.291898 Si / 1000 Ang^3
#
#
#
# Elastic Constant Matrix: (Units=GPa)
#
#
# Indices 1 2 3 4 5 6 
#
# 1 143.3950 41.4611 48.9254 0.0000 0.0000 0.0000
# 2 41.4611 143.3950 48.9254 0.0000 0.0000 0.0000
# 3 48.9254 48.9254 107.5436 0.0000 0.0000 0.0000
# 4 0.0000 0.0000 0.0000 33.7809 0.0000 0.0000
# 5 0.0000 0.0000 0.0000 0.0000 33.7809 0.0000
# 6 0.0000 0.0000 0.0000 0.0000 0.0000 48.5627
#
#
#
# Elastic Compliance Matrix: (Units=1/GPa)
#
#
# Indices 1 2 3 4 5 6 
#
# 1 0.008468 -0.001342 -0.003242 0.000000 0.000000 0.000000
# 2 -0.001342 0.008468 -0.003242 0.000000 0.000000 0.000000
# 3 -0.003242 -0.003242 0.012248 0.000000 0.000000 0.000000
# 4 0.000000 0.000000 0.000000 0.029603 0.000000 0.000000
# 5 0.000000 0.000000 0.000000 0.000000 0.029603 0.000000
# 6 0.000000 0.000000 0.000000 0.000000 0.000000 0.020592
#
#
# Mechanical properties :
#
#
# Convention : Reuss Voigt Hill
#
# Bulk Modulus (GPa) = 73.89630 74.77306 74.33468
# Shear Modulus (GPa) = 38.71676 40.22636 39.47156
#
# Velocity S-wave (km/s) = 3.91678 3.99241 3.95478
# Velocity P-wave (km/s) = 7.05236 7.13307 7.09283
#
# Compressibility (1/GPa) = 0.01353248
#
# Stress axis : x y z
#
# Youngs Moduli (GPa) = 118.09293 118.09293 81.64566
#
# Poissons Ratio (x) = 0.15852 0.26467
# Poissons Ratio (y) = 0.15852 0.26467
# Poissons Ratio (z) = 0.38282 0.38282
#
# Static dielectric constant tensor:
#      x y z
#    x 2.131490 0.000000 0.000000 
#    y 0.000000 2.131490 0.000000 
#    z 0.000000 0.000000 2.036410 
# 
# From -- ./inp_files/8996.got.cif
#   From: 2010.05.17/outbox.cif.g08.bks.cpg/sg122_5_cif.got.tgz:8996.got - 2010.05.20 11:37:33.
