data_PCOD9561877
_publ_section_title
;
Structure prediction by ZEFSAII (Michael W. Deem and Ramdas Pophale) SiO2 
 PCOD9561877
Probable space group: P 4/M M M
;
_chemical_formula_sum "Si O2"
_cell_formula_units_Z 96
_cell_length_a 24.961924
_cell_length_b 24.961924
_cell_length_c 7.597045
_cell_angle_alpha 90.000000
_cell_angle_beta 90.000000
_cell_angle_gamma 90.000000
_cell_volume 4733.700885
_symmetry_space_group_name_H-M "P 4/M M M"
_symmetry_group_IT_number 123
_symmetry_cell_setting 'tetragonal'
loop_
_space_group_symop_operation_xyz
x,y,z
-y,x,z
-x,-y,z
y,-x,z
x,-y,-z
-x,y,-z
y,x,-z
-y,-x,-z
-x,-y,-z
y,-x,-z
x,y,-z
-y,x,-z
-x,y,z
x,-y,z
-y,-x,z
y,x,z
loop_
_atom_site_type_symbol
_atom_site_label
_atom_site_fract_x
_atom_site_fract_y
_atom_site_fract_z
Si Si1 0.440884 0.937970 0.285000
Si Si2 0.851605 0.234126 0.711105
Si Si3 0.439964 0.354135 0.713024
Si Si4 0.938843 0.852220 0.211948
Si Si5 0.645602 0.856234 0.705181
Si Si6 0.560101 0.229835 0.206715
O O1 0.440830 0.935596 0.500000
O O2 0.500000 0.918871 0.228279
O O3 0.392366 0.902342 0.217432
O O4 0.435399 0.000000 0.236448
O O5 0.844776 0.236637 0.500000
O O6 0.803717 0.196284 0.780795
O O7 0.906602 0.202084 0.745225
O O8 0.850725 0.294802 0.780586
O O9 0.439198 0.354738 0.500000
O O10 0.500000 0.369736 0.769675
O O11 0.394952 0.394952 0.776665
O O12 0.430999 0.293074 0.769367
O O13 0.901517 0.901517 0.276062
O O14 0.000000 0.853144 0.276984
O O15 0.940785 0.856183 0.000000
O O16 0.653446 0.870060 0.500000
O O17 0.608650 0.803589 0.713384
O O18 0.500000 0.217703 0.278554
O O19 0.559442 0.217694 0.000000
#
# Coordination Sequence:
#
# PCOD9561877 Si02
#       6
#    16  16  16  16  16  16
#     4   8  14  25  42  66  93 116 144 190 243 289
#     4   9  19  34  49  69  99 131 163 203 249 293
#     4   9  18  33  53  76 101 129 162 202 249 301
#     4   9  18  33  53  76 102 133 168 206 248 293
#     4  10  19  31  51  74  94 125 169 209 245 290
#     4  10  21  35  50  71 101 134 167 206 251 297
#
# _framework density 20.280116
#
# number of rings (size 3 to 8) (size 9 to 14) (size 15 to 20)
#    0.000    2.833    0.000    1.500    0.000    4.667 
#    0.000    5.000    0.000    0.500    0.000    7.000 
#    0.000    0.000    0.000    0.000    0.000    0.000 
#
# Total GULP energy -535501.185957 kJ/mol
# GULP energy per Si atom -5578.137354 kJ/mol
# Density = 2.023396 g / cm^3
# Si number density = 20.280116 Si / 1000 Ang^3
#
#
#
# Elastic Constant Matrix: (Units=GPa)
#
#
# Indices 1 2 3 4 5 6 
#
# 1 168.8640 104.3409 -0.5550 0.0000 0.0000 0.0000
# 2 104.3409 168.8640 -0.5550 0.0000 0.0000 0.0000
# 3 -0.5550 -0.5550 44.8858 0.0000 0.0000 0.0000
# 4 0.0000 0.0000 0.0000 1.2916 0.0000 0.0000
# 5 0.0000 0.0000 0.0000 0.0000 1.2916 0.0000
# 6 0.0000 0.0000 0.0000 0.0000 0.0000 45.3224
#
#
#
# Elastic Compliance Matrix: (Units=1/GPa)
#
#
# Indices 1 2 3 4 5 6 
#
# 1 0.009579 -0.005919 0.000045 0.000000 0.000000 0.000000
# 2 -0.005919 0.009579 0.000045 0.000000 0.000000 0.000000
# 3 0.000045 0.000045 0.022280 0.000000 0.000000 0.000000
# 4 0.000000 0.000000 0.000000 0.774205 0.000000 0.000000
# 5 0.000000 0.000000 0.000000 0.000000 0.774205 0.000000
# 6 0.000000 0.000000 0.000000 0.000000 0.000000 0.022064
#
#
# Mechanical properties :
#
#
# Convention : Reuss Voigt Hill
#
# Bulk Modulus (GPa) = 33.57753 65.45284 49.51519
# Shear Modulus (GPa) = 3.06092 28.20666 15.63379
#
# Velocity S-wave (km/s) = 1.22988 3.73346 2.77951
# Velocity P-wave (km/s) = 4.31389 7.13649 5.89657
#
# Compressibility (1/GPa) = 0.02978182
#
# Stress axis : x y z
#
# Youngs Moduli (GPa) = 104.39080 104.39080 44.88351
#
# Poissons Ratio (x) = 0.61788 -0.00203
# Poissons Ratio (y) = 0.61788 -0.00203
# Poissons Ratio (z) = -0.00472 -0.00472
#
# Static dielectric constant tensor:
#      x y z
#    x 1.711360 0.000000 0.000000 
#    y 0.000000 1.711360 0.000000 
#    z 0.000000 0.000000 1.759890 
# 
# From -- ./inp_files/1607.got.cif
#   From: 2010.05.17/outbox.cif.g08.bks.cpg/sg123_1_cif.got.tgz:1607.got - 2010.05.20 11:43:04.
