data_PCOD9561829
_publ_section_title
;
Structure prediction by ZEFSAII (Michael W. Deem and Ramdas Pophale) SiO2 
 PCOD9561829
Probable space group: P 4/M M M
;
_chemical_formula_sum "Si O2"
_cell_formula_units_Z 56
_cell_length_a 12.469461
_cell_length_b 12.469461
_cell_length_c 23.919259
_cell_angle_alpha 90.000000
_cell_angle_beta 90.000000
_cell_angle_gamma 90.000000
_cell_volume 3719.144770
_symmetry_space_group_name_H-M "P 4/M M M"
_symmetry_group_IT_number 123
_symmetry_cell_setting 'tetragonal'
loop_
_space_group_symop_operation_xyz
x,y,z
-y,x,z
-x,-y,z
y,-x,z
x,-y,-z
-x,y,-z
y,x,-z
-y,-x,-z
-x,-y,-z
y,-x,-z
x,y,-z
-y,x,-z
-x,y,z
x,-y,z
-y,-x,z
y,x,z
loop_
_atom_site_type_symbol
_atom_site_label
_atom_site_fract_x
_atom_site_fract_y
_atom_site_fract_z
Si Si1 0.875796 0.500000 0.350681
Si Si2 0.630255 0.000000 0.936113
Si Si3 0.500000 0.322185 0.566714
Si Si4 0.124468 0.302815 0.734383
Si Si5 0.626626 0.196952 0.142388
O O1 0.787147 0.500000 0.398852
O O2 0.860807 0.395918 0.311397
O O3 0.000000 0.500000 0.370434
O O4 0.661310 0.894193 0.901701
O O5 0.500000 0.000000 0.936875
O O6 0.668120 0.000000 0.000000
O O7 0.603610 0.396391 0.579822
O O8 0.500000 0.303445 0.500000
O O9 0.204492 0.204492 0.724109
O O10 0.152132 0.350921 0.795396
O O11 0.000000 0.270029 0.733828
O O12 0.500000 0.216713 0.136115
O O13 0.696998 0.303003 0.134816
#
# Coordination Sequence:
#
# PCOD9561829 Si02
#       5
#     8   8   8  16  16
#     4  10  19  30  50  74  99 130 161 205 244 283
#     4   9  18  32  52  71  89 121 161 198 233 282
#     4   9  18  33  51  71 101 138 169 199 235 279
#     4  10  19  31  48  70  96 128 161 199 244 287
#     4  10  19  32  50  70  98 127 156 198 242 289
#
# _framework density 15.057226
#
# number of rings (size 3 to 8) (size 9 to 14) (size 15 to 20)
#    0.000    2.286    2.857    1.286    0.000    1.429 
#    0.000    0.000    0.000    0.429    0.000    5.000 
#    0.000    0.000    0.000   26.571    0.000    0.000 
#
# Total GULP energy -312190.734887 kJ/mol
# GULP energy per Si atom -5574.834552 kJ/mol
# Density = 1.502295 g / cm^3
# Si number density = 15.057226 Si / 1000 Ang^3
#
#
#
# Elastic Constant Matrix: (Units=GPa)
#
#
# Indices 1 2 3 4 5 6 
#
# 1 121.8299 76.6359 57.3290 0.0000 0.0000 0.0000
# 2 76.6359 121.8299 57.3290 0.0000 0.0000 0.0000
# 3 57.3290 57.3290 85.5469 0.0000 0.0000 0.0000
# 4 0.0000 0.0000 0.0000 15.0026 0.0000 0.0000
# 5 0.0000 0.0000 0.0000 0.0000 15.0026 0.0000
# 6 0.0000 0.0000 0.0000 0.0000 0.0000 15.9991
#
#
#
# Elastic Compliance Matrix: (Units=1/GPa)
#
#
# Indices 1 2 3 4 5 6 
#
# 1 0.015174 -0.006953 -0.005510 0.000000 0.000000 0.000000
# 2 -0.006953 0.015174 -0.005510 0.000000 0.000000 0.000000
# 3 -0.005510 -0.005510 0.019074 0.000000 0.000000 0.000000
# 4 0.000000 0.000000 0.000000 0.066655 0.000000 0.000000
# 5 0.000000 0.000000 0.000000 0.000000 0.066655 0.000000
# 6 0.000000 0.000000 0.000000 0.000000 0.000000 0.062504
#
#
# Mechanical properties :
#
#
# Convention : Reuss Voigt Hill
#
# Bulk Modulus (GPa) = 74.19166 79.08829 76.63997
# Shear Modulus (GPa) = 17.50247 18.39504 17.94875
#
# Velocity S-wave (km/s) = 3.41309 3.49904 3.45633
# Velocity P-wave (km/s) = 8.05682 8.30443 8.18156
#
# Compressibility (1/GPa) = 0.01347860
#
# Stress axis : x y z
#
# Youngs Moduli (GPa) = 65.90086 65.90086 52.42675
#
# Poissons Ratio (x) = 0.45818 0.28886
# Poissons Ratio (y) = 0.45818 0.28886
# Poissons Ratio (z) = 0.36310 0.36310
#
# Static dielectric constant tensor:
#      x y z
#    x 1.481670 0.000000 0.000000 
#    y 0.000000 1.481670 0.000000 
#    z 0.000000 0.000000 1.486040 
# 
# From -- ./inp_files/6971.got.cif
#   From: 2010.05.17/outbox.cif.g08.bks.cpg/sg123_4_cif.got.tgz:6971.got - 2010.05.20 11:43:04.
