data_PCOD9561753
_publ_section_title
;
Structure prediction by ZEFSAII (Michael W. Deem and Ramdas Pophale) SiO2 
 PCOD9561753
Probable space group: P 4/M M M
;
_chemical_formula_sum "Si O2"
_cell_formula_units_Z 96
_cell_length_a 14.534865
_cell_length_b 14.534865
_cell_length_c 30.377330
_cell_angle_alpha 90.000000
_cell_angle_beta 90.000000
_cell_angle_gamma 90.000000
_cell_volume 6417.584621
_symmetry_space_group_name_H-M "P 4/M M M"
_symmetry_group_IT_number 123
_symmetry_cell_setting 'tetragonal'
loop_
_space_group_symop_operation_xyz
x,y,z
-y,x,z
-x,-y,z
y,-x,z
x,-y,-z
-x,y,-z
y,x,-z
-y,-x,-z
-x,-y,-z
y,-x,-z
x,y,-z
-y,x,-z
-x,y,z
x,-y,z
-y,-x,z
y,x,z
loop_
_atom_site_type_symbol
_atom_site_label
_atom_site_fract_x
_atom_site_fract_y
_atom_site_fract_z
Si Si1 0.888387 0.603519 0.000000
Si Si2 0.892718 0.742296 0.075575
Si Si3 0.393781 0.890856 0.581837
Si Si4 0.260752 0.108440 0.179561
Si Si5 0.889798 0.262203 0.500000
Si Si6 0.608864 0.238072 0.235057
Si Si7 0.757969 0.393603 0.337806
O O1 0.862524 0.660432 0.956565
O O2 0.852558 0.500000 0.000000
O O3 0.000000 0.598798 0.000000
O O4 0.830645 0.830645 0.066537
O O5 0.884152 0.719256 0.127260
O O6 0.000000 0.761669 0.066805
O O7 0.500000 0.871019 0.568750
O O8 0.323746 0.867291 0.542874
O O9 0.374170 0.836939 0.626760
O O10 0.387527 0.000000 0.589364
O O11 0.166917 0.166917 0.187638
O O12 0.340890 0.159904 0.206405
O O13 0.252212 0.000000 0.190233
O O14 0.829812 0.170189 0.500000
O O15 0.000000 0.245192 0.500000
O O16 0.500000 0.247816 0.225386
O O17 0.667605 0.332396 0.228389
O O18 0.618267 0.213343 0.286868
O O19 0.730548 0.500000 0.342858
O O20 0.673280 0.326721 0.346247
#
# Coordination Sequence:
#
# PCOD9561753 Si02
#       7
#     8  16  16  16   8  16  16
#     4   9  17  28  41  59  85 115 145 175 207 246
#     4   9  17  29  45  65  89 115 143 177 217 262
#     4   9  17  29  45  65  87 110 139 175 213 253
#     4   9  18  31  46  66  91 118 149 185 225 270
#     4  10  19  30  45  63  84 112 143 175 212 251
#     4   9  18  31  46  66  91 118 150 187 225 265
#     4   9  17  29  45  65  89 115 142 174 213 258
#
# _framework density 14.958898
#
# number of rings (size 3 to 8) (size 9 to 14) (size 15 to 20)
#    0.000    2.917    0.000    1.000    0.000    3.417 
#    0.000    6.667    0.000    1.500    0.000    0.000 
#    0.000   12.667    0.000    0.000    0.000    0.500 
#
# Total GULP energy -534494.214736 kJ/mol
# GULP energy per Si atom -5567.648070 kJ/mol
# Density = 1.492485 g / cm^3
# Si number density = 14.958898 Si / 1000 Ang^3
#
#
#
# Elastic Constant Matrix: (Units=GPa)
#
#
# Indices 1 2 3 4 5 6 
#
# 1 97.9303 62.8926 63.1600 0.0000 0.0000 0.0000
# 2 62.8926 97.9330 63.1607 0.0000 0.0000 0.0000
# 3 63.1600 63.1607 72.1653 0.0000 0.0000 0.0000
# 4 0.0000 0.0000 0.0000 24.3488 0.0000 0.0000
# 5 0.0000 0.0000 0.0000 0.0000 24.3488 0.0000
# 6 0.0000 0.0000 0.0000 0.0000 0.0000 19.2067
#
#
#
# Elastic Compliance Matrix: (Units=1/GPa)
#
#
# Indices 1 2 3 4 5 6 
#
# 1 0.024217 -0.004323 -0.017412 0.000000 0.000000 0.000000
# 2 -0.004323 0.024216 -0.017412 0.000000 0.000000 0.000000
# 3 -0.017412 -0.017412 0.044335 0.000000 0.000000 0.000000
# 4 0.000000 0.000000 0.000000 0.041070 0.000000 0.000000
# 5 0.000000 0.000000 0.000000 0.000000 0.041070 0.000000
# 6 0.000000 0.000000 0.000000 0.000000 0.000000 0.052065
#
#
# Mechanical properties :
#
#
# Convention : Reuss Voigt Hill
#
# Bulk Modulus (GPa) = 69.07698 71.82838 70.45268
# Shear Modulus (GPa) = 16.12426 18.83521 17.47974
#
# Velocity S-wave (km/s) = 3.28671 3.55227 3.42207
# Velocity P-wave (km/s) = 7.78982 8.05892 7.92552
#
# Compressibility (1/GPa) = 0.01447660
#
# Stress axis : x y z
#
# Youngs Moduli (GPa) = 41.29280 41.29417 22.55541
#
# Poissons Ratio (x) = 0.17850 0.39273
# Poissons Ratio (y) = 0.17850 0.39272
# Poissons Ratio (z) = 0.71899 0.71899
#
# Static dielectric constant tensor:
#      x y z
#    x 1.479640 0.000000 0.000000 
#    y 0.000000 1.479640 0.000000 
#    z 0.000000 0.000000 1.497750 
# 
# From -- ./inp_files/7359.got.cif
#   From: 2010.05.17/outbox.cif.g08.bks.cpg/sg123_4_cif.got.tgz:7359.got - 2010.05.20 11:43:04.
