data_PCOD9561436
_publ_section_title
;
Structure prediction by ZEFSAII (Michael W. Deem and Ramdas Pophale) SiO2 
 PCOD9561436
Probable space group: I -4 2 D
;
_chemical_formula_sum "Si O2"
_cell_formula_units_Z 60
_cell_length_a 13.973091
_cell_length_b 13.973091
_cell_length_c 14.575107
_cell_angle_alpha 90.000000
_cell_angle_beta 90.000000
_cell_angle_gamma 90.000000
_cell_volume 2845.749882
_symmetry_space_group_name_H-M "I -4 2 D"
_symmetry_group_IT_number 122
_symmetry_cell_setting 'tetragonal'
loop_
_space_group_symop_operation_xyz
x,y,z
y,-x,-z
-x,-y,z
-y,x,-z
x,1/2-y,1/4-z
-x,1/2+y,1/4-z
-y,1/2-x,1/4+z
y,1/2+x,1/4+z
1/2+x,1/2+y,1/2+z
1/2+y,1/2-x,1/2-z
1/2-x,1/2-y,1/2+z
1/2-y,1/2+x,1/2-z
1/2+x,-y,3/4-z
1/2-x,y,3/4-z
1/2-y,-x,3/4+z
1/2+y,x,3/4+z
loop_
_atom_site_type_symbol
_atom_site_label
_atom_site_fract_x
_atom_site_fract_y
_atom_site_fract_z
Si Si1 0.572814 0.924329 0.080421
Si Si2 0.500000 0.500000 0.500000
Si Si3 0.154814 0.740856 0.812309
Si Si4 0.535128 0.644797 0.655402
Si Si5 0.750000 0.935095 0.375000
O O1 0.673051 0.918625 0.133440
O O2 0.509762 0.827860 0.083598
O O3 0.500000 0.000000 0.123885
O O4 0.599623 0.963035 0.979311
O O5 0.538244 0.582238 0.564691
O O6 0.250000 0.724202 0.875000
O O7 0.146509 0.855864 0.809078
O O8 0.134857 0.712543 0.706242
O O9 0.504129 0.750000 0.625000
#
# Coordination Sequence:
#
# PCOD9561436 Si02
#       5
#    16   4  16  16   8
#     4  12  25  46  71 106 152 195 254 312 388 465
#     4  12  20  44  68 100 142 188 244 296 376 436
#     4  11  26  48  70 111 147 193 257 311 387 461
#     4  11  24  45  72 106 147 194 250 316 374 450
#     4  12  26  46  76 110 148 200 258 310 396 462
#
# _framework density 21.084071999999999
#
# number of rings (size 3 to 8) (size 9 to 14) (size 15 to 20)
#    0.000    0.533    5.333    1.600    3.733    0.000 
#   12.000    0.000    0.000    0.000    0.000    0.000 
#    0.000    0.000    0.000    0.000    0.000    0.000 
#
# Total GULP energy -167217.111738 kJ/mol
# GULP energy per Si atom -5573.903725 kJ/mol
# Density = 2.103608 g / cm^3
# Si number density = 21.084072 Si / 1000 Ang^3
#
#
#
# Elastic Constant Matrix: (Units=GPa)
#
#
# Indices 1 2 3 4 5 6 
#
# 1 90.4152 17.7898 22.7625 0.0000 0.0000 0.0000
# 2 17.7898 90.4152 22.7625 0.0000 0.0000 0.0000
# 3 22.7625 22.7625 116.6875 0.0000 0.0000 0.0000
# 4 0.0000 0.0000 0.0000 9.2028 0.0000 0.0000
# 5 0.0000 0.0000 0.0000 0.0000 9.2028 0.0000
# 6 0.0000 0.0000 0.0000 0.0000 0.0000 31.0970
#
#
#
# Elastic Compliance Matrix: (Units=1/GPa)
#
#
# Indices 1 2 3 4 5 6 
#
# 1 0.011919 -0.001851 -0.001964 0.000000 0.000000 0.000000
# 2 -0.001851 0.011919 -0.001964 0.000000 0.000000 0.000000
# 3 -0.001964 -0.001964 0.009336 0.000000 0.000000 0.000000
# 4 0.000000 0.000000 0.000000 0.108663 0.000000 0.000000
# 5 0.000000 0.000000 0.000000 0.000000 0.108663 0.000000
# 6 0.000000 0.000000 0.000000 0.000000 0.000000 0.032157
#
#
# Mechanical properties :
#
#
# Convention : Reuss Voigt Hill
#
# Bulk Modulus (GPa) = 46.26157 47.12751 46.69454
# Shear Modulus (GPa) = 16.58821 25.51406 21.05114
#
# Velocity S-wave (km/s) = 2.80798 3.48244 3.16323
# Velocity P-wave (km/s) = 5.70106 6.21052 5.96123
#
# Compressibility (1/GPa) = 0.02161621
#
# Stress axis : x y z
#
# Youngs Moduli (GPa) = 83.90210 83.90211 107.11063
#
# Poissons Ratio (x) = 0.15527 0.21036
# Poissons Ratio (y) = 0.15527 0.21036
# Poissons Ratio (z) = 0.16478 0.16478
#
# Static dielectric constant tensor:
#      x y z
#    x 1.796760 0.000000 0.000000 
#    y 0.000000 1.796760 0.000000 
#    z 0.000000 0.000000 1.749420 
# 
# From -- ./inp_files/5181.got.cif
#   From: 2010.05.17/outbox.cif.g08.bks.cpg/sg122_3_cif.got.tgz:5181.got - 2010.05.20 11:37:33.
