data_PCOD9561455
_publ_section_title
;
Structure prediction by ZEFSAII (Michael W. Deem and Ramdas Pophale) SiO2 
 PCOD9561455
Probable space group: I -4 2 D
;
_chemical_formula_sum "Si O2"
_cell_formula_units_Z 64
_cell_length_a 24.210001
_cell_length_b 24.210001
_cell_length_c 5.201790
_cell_angle_alpha 90.000000
_cell_angle_beta 90.000000
_cell_angle_gamma 90.000000
_cell_volume 3048.894734
_symmetry_space_group_name_H-M "I -4 2 D"
_symmetry_group_IT_number 122
_symmetry_cell_setting 'tetragonal'
loop_
_space_group_symop_operation_xyz
x,y,z
y,-x,-z
-x,-y,z
-y,x,-z
x,1/2-y,1/4-z
-x,1/2+y,1/4-z
-y,1/2-x,1/4+z
y,1/2+x,1/4+z
1/2+x,1/2+y,1/2+z
1/2+y,1/2-x,1/2-z
1/2-x,1/2-y,1/2+z
1/2-y,1/2+x,1/2-z
1/2+x,-y,3/4-z
1/2-x,y,3/4-z
1/2-y,-x,3/4+z
1/2+y,x,3/4+z
loop_
_atom_site_type_symbol
_atom_site_label
_atom_site_fract_x
_atom_site_fract_y
_atom_site_fract_z
Si Si1 0.683930 0.465727 0.431532
Si Si2 0.317085 0.092255 0.866125
Si Si3 0.346297 0.600635 0.941735
Si Si4 0.808028 0.307697 0.508415
O O1 0.750000 0.460726 0.375000
O O2 0.670316 0.530256 0.469636
O O3 0.669699 0.434062 0.692581
O O4 0.651236 0.440632 0.185755
O O5 0.250000 0.093905 0.875000
O O6 0.328575 0.144136 0.680785
O O7 0.356482 0.104493 0.112526
O O8 0.301119 0.645314 0.031050
O O9 0.827100 0.250000 0.625000
O O10 0.750000 0.297531 0.375000
#
# Coordination Sequence:
#
# PCOD9561455 Si02
#       4
#    16  16  16  16
#     4  11  27  42  70 100 140 184 237 292 344 422
#     4  11  25  46  70 104 143 188 234 290 359 425
#     4  12  25  44  68 102 138 181 235 285 350 420
#     4  12  26  40  68 107 150 185 224 287 367 445
#
# _framework density 20.991213999999999
#
# number of rings (size 3 to 8) (size 9 to 14) (size 15 to 20)
#    0.000    0.500    5.000    2.250    7.000    0.000 
#    0.000    0.000    0.000    4.500    0.000    0.000 
#    0.000    0.000    0.000    0.000    0.000    0.000 
#
# Total GULP energy -178562.780868 kJ/mol
# GULP energy per Si atom -5580.086902 kJ/mol
# Density = 2.094344 g / cm^3
# Si number density = 20.991214 Si / 1000 Ang^3
#
#
#
# Elastic Constant Matrix: (Units=GPa)
#
#
# Indices 1 2 3 4 5 6 
#
# 1 114.3077 -1.5911 38.7855 0.0000 0.0000 0.0000
# 2 -1.5911 114.3077 38.7855 0.0000 0.0000 0.0000
# 3 38.7855 38.7855 125.3540 0.0000 0.0000 0.0000
# 4 0.0000 0.0000 0.0000 19.6901 0.0000 0.0000
# 5 0.0000 0.0000 0.0000 0.0000 19.6901 0.0000
# 6 0.0000 0.0000 0.0000 0.0000 0.0000 91.4327
#
#
#
# Elastic Compliance Matrix: (Units=1/GPa)
#
#
# Indices 1 2 3 4 5 6 
#
# 1 0.009950 0.001322 -0.003488 0.000000 0.000000 0.000000
# 2 0.001322 0.009950 -0.003488 0.000000 0.000000 0.000000
# 3 -0.003488 -0.003488 0.010136 0.000000 0.000000 0.000000
# 4 0.000000 0.000000 0.000000 0.050787 0.000000 0.000000
# 5 0.000000 0.000000 0.000000 0.000000 0.050787 0.000000
# 6 0.000000 0.000000 0.000000 0.000000 0.000000 0.010937
#
#
# Mechanical properties :
#
#
# Convention : Reuss Voigt Hill
#
# Bulk Modulus (GPa) = 53.39305 56.21435 54.80370
# Shear Modulus (GPa) = 31.23118 44.69521 37.96320
#
# Velocity S-wave (km/s) = 3.86141 4.61937 4.25729
# Velocity P-wave (km/s) = 6.73586 7.43569 7.09441
#
# Compressibility (1/GPa) = 0.01872903
#
# Stress axis : x y z
#
# Youngs Moduli (GPa) = 100.50141 100.50141 98.66192
#
# Poissons Ratio (x) = -0.13285 0.34410
# Poissons Ratio (y) = -0.13285 0.34410
# Poissons Ratio (z) = 0.35051 0.35051
#
# Static dielectric constant tensor:
#      x y z
#    x 1.783840 0.000000 0.000000 
#    y 0.000000 1.783840 0.000000 
#    z 0.000000 0.000000 1.850680 
# 
# From -- ./inp_files/1090.got.cif
#   From: 2010.05.17/outbox.cif.g08.bks.cpg/sg122_1_cif.got.tgz:1090.got - 2010.05.20 11:37:33.
