data_PCOD9561098
_publ_section_title
;
Structure prediction by ZEFSAII (Michael W. Deem and Ramdas Pophale) SiO2 
 PCOD9561098
Probable space group: I -4 2 D
;
_chemical_formula_sum "Si O2"
_cell_formula_units_Z 56
_cell_length_a 22.653499
_cell_length_b 22.653499
_cell_length_c 5.101473
_cell_angle_alpha 90.000000
_cell_angle_beta 90.000000
_cell_angle_gamma 90.000000
_cell_volume 2617.979102
_symmetry_space_group_name_H-M "I -4 2 D"
_symmetry_group_IT_number 122
_symmetry_cell_setting 'tetragonal'
loop_
_space_group_symop_operation_xyz
x,y,z
y,-x,-z
-x,-y,z
-y,x,-z
x,1/2-y,1/4-z
-x,1/2+y,1/4-z
-y,1/2-x,1/4+z
y,1/2+x,1/4+z
1/2+x,1/2+y,1/2+z
1/2+y,1/2-x,1/2-z
1/2-x,1/2-y,1/2+z
1/2-y,1/2+x,1/2-z
1/2+x,-y,3/4-z
1/2-x,y,3/4-z
1/2-y,-x,3/4+z
1/2+y,x,3/4+z
loop_
_atom_site_type_symbol
_atom_site_label
_atom_site_fract_x
_atom_site_fract_y
_atom_site_fract_z
Si Si1 0.100037 0.904571 0.654649
Si Si2 0.250000 0.404320 0.375000
Si Si3 0.366843 0.033559 0.925130
Si Si4 0.310963 0.308866 0.745866
O O1 0.066161 0.910103 0.380530
O O2 0.154631 0.859884 0.597477
O O3 0.124926 0.964738 0.774586
O O4 0.055303 0.879796 0.879057
O O5 0.300433 0.445320 0.250428
O O6 0.286309 0.359342 0.554687
O O7 0.338465 0.250000 0.625000
O O8 0.250000 0.287379 0.875000
#
# Coordination Sequence:
#
# PCOD9561098 Si02
#       4
#    16   8  16  16
#     4  11  25  42  67  97 128 175 217 264 323 382
#     4  10  22  40  62  90 136 164 206 272 328 374
#     4  11  24  43  65  95 131 172 216 266 322 383
#     4  11  21  39  65  95 125 167 213 268 324 386
#
# _framework density 21.390546000000001
#
# number of rings (size 3 to 8) (size 9 to 14) (size 15 to 20)
#    0.000    1.143    4.286    1.714    2.000    3.429 
#    0.000    0.000    0.000    0.000    0.000    0.000 
#    0.000    0.000    0.000    0.000    0.000    0.000 
#
# Total GULP energy -156148.125856 kJ/mol
# GULP energy per Si atom -5576.718781 kJ/mol
# Density = 2.134186 g / cm^3
# Si number density = 21.390546 Si / 1000 Ang^3
#
#
#
# Elastic Constant Matrix: (Units=GPa)
#
#
# Indices 1 2 3 4 5 6 
#
# 1 67.4228 27.0220 -11.7270 0.0000 0.0000 0.0000
# 2 27.0220 67.4228 -11.7270 0.0000 0.0000 0.0000
# 3 -11.7270 -11.7270 49.5740 0.0000 0.0000 0.0000
# 4 0.0000 0.0000 0.0000 4.9355 0.0000 0.0000
# 5 0.0000 0.0000 0.0000 0.0000 4.9355 0.0000
# 6 0.0000 0.0000 0.0000 0.0000 0.0000 12.8528
#
#
#
# Elastic Compliance Matrix: (Units=1/GPa)
#
#
# Indices 1 2 3 4 5 6 
#
# 1 0.018001 -0.006751 0.002661 0.000000 0.000000 0.000000
# 2 -0.006751 0.018001 0.002661 0.000000 0.000000 0.000000
# 3 0.002661 0.002661 0.021431 0.000000 0.000000 0.000000
# 4 0.000000 0.000000 0.000000 0.202614 0.000000 0.000000
# 5 0.000000 0.000000 0.000000 0.000000 0.202614 0.000000
# 6 0.000000 0.000000 0.000000 0.000000 0.000000 0.077804
#
#
# Mechanical properties :
#
#
# Convention : Reuss Voigt Hill
#
# Bulk Modulus (GPa) = 18.32409 21.28395 19.80402
# Shear Modulus (GPa) = 8.90450 16.60152 12.75301
#
# Velocity S-wave (km/s) = 2.04251 2.78891 2.44437
# Velocity P-wave (km/s) = 3.76132 4.51026 4.15271
#
# Compressibility (1/GPa) = 0.05457297
#
# Stress axis : x y z
#
# Youngs Moduli (GPa) = 55.55399 55.55399 46.66173
#
# Poissons Ratio (x) = 0.37507 -0.12417
# Poissons Ratio (y) = 0.37507 -0.12417
# Poissons Ratio (z) = -0.14783 -0.14783
#
# Static dielectric constant tensor:
#      x y z
#    x 1.826930 0.000000 0.000000 
#    y 0.000000 1.826930 0.000000 
#    z 0.000000 0.000000 1.840250 
# 
# From -- ./inp_files/839.got.cif
#   From: 2010.05.17/outbox.cif.g08.bks.cpg/sg122_1_cif.got.tgz:839.got - 2010.05.20 11:37:33.
