data_PCOD9561736
_publ_section_title
;
Structure prediction by ZEFSAII (Michael W. Deem and Ramdas Pophale) SiO2 
 PCOD9561736
Probable space group: P 4/M M M
;
_chemical_formula_sum "Si O2"
_cell_formula_units_Z 96
_cell_length_a 15.926939
_cell_length_b 15.926939
_cell_length_c 21.199040
_cell_angle_alpha 90.000000
_cell_angle_beta 90.000000
_cell_angle_gamma 90.000000
_cell_volume 5377.505061
_symmetry_space_group_name_H-M "P 4/M M M"
_symmetry_group_IT_number 123
_symmetry_cell_setting 'tetragonal'
loop_
_space_group_symop_operation_xyz
x,y,z
-y,x,z
-x,-y,z
y,-x,z
x,-y,-z
-x,y,-z
y,x,-z
-y,-x,-z
-x,-y,-z
y,-x,-z
x,y,-z
-y,x,-z
-x,y,z
x,-y,z
-y,-x,z
y,x,z
loop_
_atom_site_type_symbol
_atom_site_label
_atom_site_fract_x
_atom_site_fract_y
_atom_site_fract_z
Si Si1 0.593984 0.723257 0.194402
Si Si2 0.167619 0.594158 0.927331
Si Si3 0.596622 0.091261 0.360351
Si Si4 0.269866 0.594865 0.576003
Si Si5 0.906268 0.233627 0.119130
Si Si6 0.852746 0.721319 0.257934
O O1 0.500000 0.730368 0.217514
O O2 0.630925 0.630925 0.198346
O O3 0.598559 0.756545 0.122494
O O4 0.654351 0.784310 0.233020
O O5 0.129037 0.500000 0.918362
O O6 0.111065 0.674947 0.911416
O O7 0.193990 0.599784 0.000000
O O8 0.500000 0.096532 0.335228
O O9 0.609264 0.174601 0.401612
O O10 0.668036 0.094486 0.307142
O O11 0.602180 0.000000 0.393063
O O12 0.271590 0.596976 0.500000
O O13 0.294291 0.500000 0.595726
O O14 0.334632 0.665369 0.599981
O O15 0.832958 0.167043 0.101954
O O16 0.899262 0.247830 0.194769
O O17 0.000000 0.204805 0.102734
O O18 0.800388 0.800388 0.284729
#
# Coordination Sequence:
#
# PCOD9561736 Si02
#       6
#    16  16  16  16  16  16
#     4   9  17  28  43  64  90 121 155 192 235 281
#     4   9  18  33  52  71  90 115 150 192 236 280
#     4  10  19  29  45  70  98 128 158 191 237 288
#     4   9  18  32  49  70  97 129 165 202 236 272
#     4  10  21  35  51  72  97 125 156 191 232 279
#     4   9  17  31  49  66  88 119 156 197 235 273
#
# _framework density 17.852145
#
# number of rings (size 3 to 8) (size 9 to 14) (size 15 to 20)
#    0.000    2.667    0.000    3.000    0.000    3.500 
#    0.000    3.333    0.000    0.000    0.000    5.833 
#    0.000    3.000    0.000    7.333    0.000    0.333 
#
# Total GULP energy -534587.265917 kJ/mol
# GULP energy per Si atom -5568.617353 kJ/mol
# Density = 1.781151 g / cm^3
# Si number density = 17.852145 Si / 1000 Ang^3
#
#
#
# Elastic Constant Matrix: (Units=GPa)
#
#
# Indices 1 2 3 4 5 6 
#
# 1 93.7237 67.5283 11.6181 0.0000 0.0000 0.0000
# 2 67.5283 93.7237 11.6181 0.0000 0.0000 0.0000
# 3 11.6181 11.6181 12.3396 0.0000 0.0000 0.0000
# 4 0.0000 0.0000 0.0000 -0.1352 0.0000 0.0000
# 5 0.0000 0.0000 0.0000 0.0000 -0.1352 0.0000
# 6 0.0000 0.0000 0.0000 0.0000 0.0000 15.1270
#
#
#
# Elastic Compliance Matrix: (Units=1/GPa)
#
#
# Indices 1 2 3 4 5 6 
#
# 1 0.022675 -0.015500 -0.006755 0.000000 0.000000 0.000000
# 2 -0.015500 0.022675 -0.006755 0.000000 0.000000 0.000000
# 3 -0.006755 -0.006755 0.093761 0.000000 0.000000 0.000000
# 4 0.000000 0.000000 0.000000 -7.395580 0.000000 0.000000
# 5 0.000000 0.000000 0.000000 0.000000 -7.395580 0.000000
# 6 0.000000 0.000000 0.000000 0.000000 0.000000 0.066107
#
#
# Mechanical properties :
#
#
# Convention : Reuss Voigt Hill
#
# Bulk Modulus (GPa) = 12.33211 42.36844 27.35028
# Shear Modulus (GPa) = -0.34481 10.23948 4.94734
#
# Velocity S-wave (km/s) = -0.43996 2.39753 1.66652
# Velocity P-wave (km/s) = 2.58163 5.60792 4.36541
#
# Compressibility (1/GPa) = 0.08108913
#
# Stress axis : x y z
#
# Youngs Moduli (GPa) = 44.10183 44.10183 10.66542
#
# Poissons Ratio (x) = 0.68357 0.07205
# Poissons Ratio (y) = 0.68357 0.07205
# Poissons Ratio (z) = 0.29793 0.29793
#
# Static dielectric constant tensor:
#      x y z
#    x 1.622300 0.000000 0.000000 
#    y 0.000000 1.622300 0.000000 
#    z 0.000000 0.000000 1.618320 
# 
# From -- ./inp_files/6460.got.cif
#   From: 2010.05.17/outbox.cif.g08.bks.cpg/sg123_4_cif.got.tgz:6460.got - 2010.05.20 11:43:04.
