data_PCOD9561553
_publ_section_title
;
Structure prediction by ZEFSAII (Michael W. Deem and Ramdas Pophale) SiO2 
 PCOD9561553
Probable space group: I -4 2 D
;
_chemical_formula_sum "Si O2"
_cell_formula_units_Z 52
_cell_length_a 21.550504
_cell_length_b 21.550504
_cell_length_c 4.748101
_cell_angle_alpha 90.000000
_cell_angle_beta 90.000000
_cell_angle_gamma 90.000000
_cell_volume 2205.133116
_symmetry_space_group_name_H-M "I -4 2 D"
_symmetry_group_IT_number 122
_symmetry_cell_setting 'tetragonal'
loop_
_space_group_symop_operation_xyz
x,y,z
y,-x,-z
-x,-y,z
-y,x,-z
x,1/2-y,1/4-z
-x,1/2+y,1/4-z
-y,1/2-x,1/4+z
y,1/2+x,1/4+z
1/2+x,1/2+y,1/2+z
1/2+y,1/2-x,1/2-z
1/2-x,1/2-y,1/2+z
1/2-y,1/2+x,1/2-z
1/2+x,-y,3/4-z
1/2-x,y,3/4-z
1/2-y,-x,3/4+z
1/2+y,x,3/4+z
loop_
_atom_site_type_symbol
_atom_site_label
_atom_site_fract_x
_atom_site_fract_y
_atom_site_fract_z
Si Si1 0.388660 0.707586 0.349489
Si Si2 0.000000 0.500000 0.750000
Si Si3 0.495782 0.360176 0.063017
Si Si4 0.321803 0.921272 0.799777
O O1 0.353439 0.523371 0.263403
O O2 0.448552 0.817934 0.073533
O O3 0.351010 0.645701 0.408819
O O4 0.353101 0.750000 0.125000
O O5 0.006069 0.567749 0.607263
O O6 0.436686 0.334646 0.226767
O O7 0.402209 0.750000 0.625000
O O8 0.250000 0.922722 0.875000
#
# Coordination Sequence:
#
# PCOD9561553 Si02
#       4
#    16   4  16  16
#     4  12  26  45  73 104 143 191 242 297 360 432
#     4  12  28  46  80 110 144 182 236 314 364 442
#     4  12  26  47  71 107 145 182 237 300 376 426
#     4  12  27  47  72 103 144 192 239 295 359 434
#
# _framework density 23.581341999999999
#
# number of rings (size 3 to 8) (size 9 to 14) (size 15 to 20)
#    0.000    0.000    3.077    7.385    4.308    2.462 
#    0.000    0.000    0.000    0.000    0.000    0.000 
#    0.000    0.000    0.000    0.000    0.000    0.000 
#
# Total GULP energy -145436.006215 kJ/mol
# GULP energy per Si atom -5593.692547 kJ/mol
# Density = 2.352767 g / cm^3
# Si number density = 23.581342 Si / 1000 Ang^3
#
#
#
# Elastic Constant Matrix: (Units=GPa)
#
#
# Indices 1 2 3 4 5 6 
#
# 1 125.8236 2.3294 2.9650 0.0000 0.0000 0.0000
# 2 2.3294 125.8236 2.9650 0.0000 0.0000 0.0000
# 3 2.9650 2.9650 81.1161 0.0000 0.0000 0.0000
# 4 0.0000 0.0000 0.0000 -17.2069 0.0000 0.0000
# 5 0.0000 0.0000 0.0000 0.0000 -17.2069 0.0000
# 6 0.0000 0.0000 0.0000 0.0000 0.0000 41.2282
#
#
#
# Elastic Compliance Matrix: (Units=1/GPa)
#
#
# Indices 1 2 3 4 5 6 
#
# 1 0.007957 -0.000141 -0.000286 0.000000 0.000000 0.000000
# 2 -0.000141 0.007957 -0.000286 0.000000 0.000000 0.000000
# 3 -0.000286 -0.000286 0.012349 0.000000 0.000000 0.000000
# 4 0.000000 0.000000 0.000000 -0.058116 0.000000 0.000000
# 5 0.000000 0.000000 0.000000 0.000000 -0.058116 0.000000
# 6 0.000000 0.000000 0.000000 0.000000 0.000000 0.024255
#
#
# Mechanical properties :
#
#
# Convention : Reuss Voigt Hill
#
# Bulk Modulus (GPa) = 37.25941 38.80911 38.03426
# Shear Modulus (GPa) = -93.73161 22.99646 -35.36758
#
# Velocity S-wave (km/s) = -6.31146 3.12620 -3.87694
# Velocity P-wave (km/s) = 6.10557 5.43361 1.96899
#
# Compressibility (1/GPa) = 0.02683886
#
# Stress axis : x y z
#
# Youngs Moduli (GPa) = 125.67603 125.67603 80.97887
#
# Poissons Ratio (x) = 0.01767 0.02314
# Poissons Ratio (y) = 0.01767 0.02314
# Poissons Ratio (z) = 0.03591 0.03591
#
# Static dielectric constant tensor:
#      x y z
#    x 1.886510 0.000000 0.000000 
#    y 0.000000 1.886510 0.000000 
#    z 0.000000 0.000000 1.881590 
# 
# From -- ./inp_files/2183.got.cif
#   From: 2010.05.17/outbox.cif.g08.bks.cpg/sg122_2_cif.got.tgz:2183.got - 2010.05.20 11:37:33.
