data_PCOD9561857
_publ_section_title
;
Structure prediction by ZEFSAII (Michael W. Deem and Ramdas Pophale) SiO2 
 PCOD9561857
Probable space group: P 4/M M M
;
_chemical_formula_sum "Si O2"
_cell_formula_units_Z 72
_cell_length_a 21.779863
_cell_length_b 21.779863
_cell_length_c 7.392618
_cell_angle_alpha 90.000000
_cell_angle_beta 90.000000
_cell_angle_gamma 90.000000
_cell_volume 3506.780256
_symmetry_space_group_name_H-M "P 4/M M M"
_symmetry_group_IT_number 123
_symmetry_cell_setting 'tetragonal'
loop_
_space_group_symop_operation_xyz
x,y,z
-y,x,z
-x,-y,z
y,-x,z
x,-y,-z
-x,y,-z
y,x,-z
-y,-x,-z
-x,-y,-z
y,-x,-z
x,y,-z
-y,x,-z
-x,y,z
x,-y,z
-y,-x,z
y,x,z
loop_
_atom_site_type_symbol
_atom_site_label
_atom_site_fract_x
_atom_site_fract_y
_atom_site_fract_z
Si Si1 0.000000 0.098430 0.280062
Si Si2 0.305865 0.122916 0.701082
Si Si3 0.760513 0.000000 0.721795
Si Si4 0.353264 0.750148 0.292297
Si Si5 0.679767 0.426937 0.000000
Si Si6 0.433984 0.926983 0.215735
O O1 0.940501 0.059500 0.223090
O O2 0.000000 0.098566 0.500000
O O3 0.000000 0.168601 0.224482
O O4 0.278729 0.132773 0.500000
O O5 0.316832 0.190164 0.783128
O O6 0.375526 0.099940 0.690762
O O7 0.270555 0.064110 0.783014
O O8 0.754854 0.000000 0.500000
O O9 0.372281 0.763860 0.500000
O O10 0.303818 0.696183 0.297980
O O11 0.407550 0.722947 0.169876
O O12 0.665329 0.500000 0.000000
O O13 0.618946 0.381055 0.000000
O O14 0.500000 0.902448 0.274782
O O15 0.433893 0.000000 0.243266
O O16 0.428368 0.916523 0.000000
#
# Coordination Sequence:
#
# PCOD9561857 Si02
#       6
#     8  16   8  16   8  16
#     4   8  14  25  42  66  96 129 167 216 277 342
#     4  10  19  31  48  71 101 138 180 223 268 317
#     4   9  17  28  43  68 103 140 181 232 286 337
#     4   9  20  38  57  80 113 152 191 230 276 334
#     4  10  22  41  66  93 119 149 182 224 278 330
#     4   9  18  31  45  63  91 129 167 205 256 310
#
# _framework density 20.531654
#
# number of rings (size 3 to 8) (size 9 to 14) (size 15 to 20)
#    0.000    2.778    1.111    1.000    1.556    2.778 
#    0.000    7.778    0.000    0.000    0.000    3.111 
#    0.000    0.000    0.000    4.889    0.000    4.444 
#
# Total GULP energy -401005.909448 kJ/mol
# GULP energy per Si atom -5569.526520 kJ/mol
# Density = 2.048492 g / cm^3
# Si number density = 20.531654 Si / 1000 Ang^3
#
#
#
# Elastic Constant Matrix: (Units=GPa)
#
#
# Indices 1 2 3 4 5 6 
#
# 1 115.9444 51.9503 23.8571 0.0000 0.0000 0.0000
# 2 51.9503 115.9464 23.8573 0.0000 0.0000 0.0000
# 3 23.8571 23.8573 74.5104 0.0000 0.0000 0.0000
# 4 0.0000 0.0000 0.0000 42.6616 0.0000 0.0000
# 5 0.0000 0.0000 0.0000 0.0000 42.6696 0.0000
# 6 0.0000 0.0000 0.0000 0.0000 0.0000 -6.8736
#
#
#
# Elastic Compliance Matrix: (Units=1/GPa)
#
#
# Indices 1 2 3 4 5 6 
#
# 1 0.011089 -0.004537 -0.002098 0.000000 0.000000 0.000000
# 2 -0.004537 0.011089 -0.002098 0.000000 0.000000 0.000000
# 3 -0.002098 -0.002098 0.014764 0.000000 0.000000 0.000000
# 4 0.000000 0.000000 0.000000 0.023440 0.000000 0.000000
# 5 0.000000 0.000000 0.000000 0.000000 0.023436 0.000000
# 6 0.000000 0.000000 0.000000 0.000000 0.000000 -0.145484
#
#
# Mechanical properties :
#
#
# Convention : Reuss Voigt Hill
#
# Bulk Modulus (GPa) = 51.34212 56.19230 53.76721
# Shear Modulus (GPa) = -132.60129 29.47396 -51.56366
#
# Velocity S-wave (km/s) = -8.04513 3.79296 -5.01685
# Velocity P-wave (km/s) = 7.82548 6.82716 2.70444
#
# Compressibility (1/GPa) = 0.01947719
#
# Stress axis : x y z
#
# Youngs Moduli (GPa) = 90.17670 90.17822 67.73040
#
# Poissons Ratio (x) = 0.40913 0.14210
# Poissons Ratio (y) = 0.40913 0.14210
# Poissons Ratio (z) = 0.18919 0.18919
#
# Static dielectric constant tensor:
#      x y z
#    x 1.730760 0.000000 0.000000 
#    y 0.000000 1.730770 0.000000 
#    z 0.000000 0.000000 1.865260 
# 
# From -- ./inp_files/1220.got.cif
#   From: 2010.05.17/outbox.cif.g08.bks.cpg/sg123_1_cif.got.tgz:1220.got - 2010.05.20 11:43:04.
