data_PCOD9561475
_publ_section_title
;
Structure prediction by ZEFSAII (Michael W. Deem and Ramdas Pophale) SiO2 
 PCOD9561475
Probable space group: I -4 2 D
;
_chemical_formula_sum "Si O2"
_cell_formula_units_Z 72
_cell_length_a 21.437938
_cell_length_b 21.437938
_cell_length_c 7.289759
_cell_angle_alpha 90.000000
_cell_angle_beta 90.000000
_cell_angle_gamma 90.000000
_cell_volume 3350.265244
_symmetry_space_group_name_H-M "I -4 2 D"
_symmetry_group_IT_number 122
_symmetry_cell_setting 'tetragonal'
loop_
_space_group_symop_operation_xyz
x,y,z
y,-x,-z
-x,-y,z
-y,x,-z
x,1/2-y,1/4-z
-x,1/2+y,1/4-z
-y,1/2-x,1/4+z
y,1/2+x,1/4+z
1/2+x,1/2+y,1/2+z
1/2+y,1/2-x,1/2-z
1/2-x,1/2-y,1/2+z
1/2-y,1/2+x,1/2-z
1/2+x,-y,3/4-z
1/2-x,y,3/4-z
1/2-y,-x,3/4+z
1/2+y,x,3/4+z
loop_
_atom_site_type_symbol
_atom_site_label
_atom_site_fract_x
_atom_site_fract_y
_atom_site_fract_z
Si Si1 0.939991 0.426822 0.169826
Si Si2 0.250000 0.982505 0.375000
Si Si3 0.732231 0.822345 0.085398
Si Si4 0.402256 0.371418 0.055252
Si Si5 0.667662 0.589059 0.708624
O O1 0.921108 0.486466 0.292549
O O2 0.912055 0.366216 0.264585
O O3 0.915796 0.432583 0.961702
O O4 0.287804 0.029152 0.509825
O O5 0.306225 0.940796 0.289669
O O6 0.725950 0.750000 0.125000
O O7 0.666653 0.854533 0.124428
O O8 0.787342 0.851617 0.206888
O O9 0.750000 0.831685 0.875000
O O10 0.385587 0.405581 0.864819
#
# Coordination Sequence:
#
# PCOD9561475 Si02
#       5
#    16   8  16  16  16
#     4  11  26  45  68 103 141 185 242 292 357 435
#     4  12  26  46  70 106 148 182 242 294 370 438
#     4  12  24  43  70 103 140 182 235 300 361 433
#     4  12  25  45  71 103 143 188 238 300 359 438
#     4  12  26  46  71 105 140 188 239 296 366 437
#
# _framework density 21.490835000000001
#
# number of rings (size 3 to 8) (size 9 to 14) (size 15 to 20)
#    0.000    0.222    7.778    1.333    3.111    0.000 
#    0.000    4.444    0.000    0.000    0.000    0.000 
#    0.000    0.000    0.000    0.000    0.000    0.000 
#
# Total GULP energy -201096.668682 kJ/mol
# GULP energy per Si atom -5586.018574 kJ/mol
# Density = 2.144192 g / cm^3
# Si number density = 21.490835 Si / 1000 Ang^3
#
#
#
# Elastic Constant Matrix: (Units=GPa)
#
#
# Indices 1 2 3 4 5 6 
#
# 1 71.5736 4.3073 22.2913 0.0000 0.0000 0.0000
# 2 4.3073 71.5736 22.2913 0.0000 0.0000 0.0000
# 3 22.2913 22.2913 107.4195 0.0000 0.0000 0.0000
# 4 0.0000 0.0000 0.0000 17.8722 0.0000 0.0000
# 5 0.0000 0.0000 0.0000 0.0000 17.8722 0.0000
# 6 0.0000 0.0000 0.0000 0.0000 0.0000 17.1147
#
#
#
# Elastic Compliance Matrix: (Units=1/GPa)
#
#
# Indices 1 2 3 4 5 6 
#
# 1 0.014937 0.000071 -0.003114 0.000000 0.000000 0.000000
# 2 0.000071 0.014937 -0.003114 0.000000 0.000000 0.000000
# 3 -0.003114 -0.003114 0.010602 0.000000 0.000000 0.000000
# 4 0.000000 0.000000 0.000000 0.055953 0.000000 0.000000
# 5 0.000000 0.000000 0.000000 0.000000 0.055953 0.000000
# 6 0.000000 0.000000 0.000000 0.000000 0.000000 0.058429
#
#
# Mechanical properties :
#
#
# Convention : Reuss Voigt Hill
#
# Bulk Modulus (GPa) = 35.51040 38.70518 37.10779
# Shear Modulus (GPa) = 21.50404 24.01693 22.76049
#
# Velocity S-wave (km/s) = 3.16668 3.34659 3.25788
# Velocity P-wave (km/s) = 5.47082 5.74300 5.60856
#
# Compressibility (1/GPa) = 0.02816076
#
# Stress axis : x y z
#
# Youngs Moduli (GPa) = 66.94631 66.94631 94.32259
#
# Poissons Ratio (x) = -0.00476 0.29377
# Poissons Ratio (y) = -0.00476 0.29377
# Poissons Ratio (z) = 0.20850 0.20850
#
# Static dielectric constant tensor:
#      x y z
#    x 1.792860 0.000000 0.000000 
#    y 0.000000 1.792860 0.000000 
#    z 0.000000 0.000000 1.787290 
# 
# From -- ./inp_files/2681.got.cif
#   From: 2010.05.17/outbox.cif.g08.bks.cpg/sg122_2_cif.got.tgz:2681.got - 2010.05.20 11:37:33.
