data_PCOD9561311
_publ_section_title
;
Structure prediction by ZEFSAII (Michael W. Deem and Ramdas Pophale) SiO2 
 PCOD9561311
Probable space group: I -4 2 D
;
_chemical_formula_sum "Si O2"
_cell_formula_units_Z 60
_cell_length_a 10.833769
_cell_length_b 10.833769
_cell_length_c 24.459154
_cell_angle_alpha 90.000000
_cell_angle_beta 90.000000
_cell_angle_gamma 90.000000
_cell_volume 2870.784376
_symmetry_space_group_name_H-M "I -4 2 D"
_symmetry_group_IT_number 122
_symmetry_cell_setting 'tetragonal'
loop_
_space_group_symop_operation_xyz
x,y,z
y,-x,-z
-x,-y,z
-y,x,-z
x,1/2-y,1/4-z
-x,1/2+y,1/4-z
-y,1/2-x,1/4+z
y,1/2+x,1/4+z
1/2+x,1/2+y,1/2+z
1/2+y,1/2-x,1/2-z
1/2-x,1/2-y,1/2+z
1/2-y,1/2+x,1/2-z
1/2+x,-y,3/4-z
1/2-x,y,3/4-z
1/2-y,-x,3/4+z
1/2+y,x,3/4+z
loop_
_atom_site_type_symbol
_atom_site_label
_atom_site_fract_x
_atom_site_fract_y
_atom_site_fract_z
Si Si1 0.130835 0.362536 0.657550
Si Si2 0.000000 0.500000 0.750000
Si Si3 0.250000 0.085783 0.875000
Si Si4 0.970142 0.735091 0.326436
Si Si5 0.871868 0.735572 0.208181
O O1 0.071426 0.250000 0.625000
O O2 0.158321 0.471500 0.614353
O O3 0.261977 0.313281 0.680825
O O4 0.052748 0.398538 0.709551
O O5 0.125748 0.161668 0.885739
O O6 0.233071 0.997123 0.823163
O O7 0.892901 0.764453 0.271724
O O8 0.090766 0.659236 0.304237
#
# Coordination Sequence:
#
# PCOD9561311 Si02
#       5
#    16   4   8  16  16
#     4  10  26  47  64  98 134 169 231 283 331 419
#     4  12  28  48  76  88 136 188 224 292 354 412
#     4  12  22  34  68  98 134 180 220 272 350 396
#     4  11  23  38  64  98 135 174 218 277 339 399
#     4  11  22  39  63  97 138 172 222 281 327 403
#
# _framework density 20.900213000000001
#
# number of rings (size 3 to 8) (size 9 to 14) (size 15 to 20)
#    0.000    1.067    6.667    0.800    3.733    2.133 
#    0.000    0.000    0.000    0.000    0.000    0.000 
#    0.000    0.000    0.000    0.000    0.000    0.000 
#
# Total GULP energy -167611.476607 kJ/mol
# GULP energy per Si atom -5587.049220 kJ/mol
# Density = 2.085264 g / cm^3
# Si number density = 20.900213 Si / 1000 Ang^3
#
#
#
# Elastic Constant Matrix: (Units=GPa)
#
#
# Indices 1 2 3 4 5 6 
#
# 1 41.7443 22.9961 32.9771 0.0000 0.0000 0.0000
# 2 22.9961 41.7443 32.9771 0.0000 0.0000 0.0000
# 3 32.9771 32.9771 141.3421 0.0000 0.0000 0.0000
# 4 0.0000 0.0000 0.0000 37.8018 0.0000 0.0000
# 5 0.0000 0.0000 0.0000 0.0000 37.8018 0.0000
# 6 0.0000 0.0000 0.0000 0.0000 0.0000 -3.7981
#
#
#
# Elastic Compliance Matrix: (Units=1/GPa)
#
#
# Indices 1 2 3 4 5 6 
#
# 1 0.036800 -0.016538 -0.004728 0.000000 0.000000 0.000000
# 2 -0.016538 0.036800 -0.004728 0.000000 0.000000 0.000000
# 3 -0.004728 -0.004728 0.009281 0.000000 0.000000 0.000000
# 4 0.000000 0.000000 0.000000 0.026454 0.000000 0.000000
# 5 0.000000 0.000000 0.000000 0.000000 0.026454 0.000000
# 6 0.000000 0.000000 0.000000 0.000000 0.000000 -0.263293
#
#
# Mechanical properties :
#
#
# Convention : Reuss Voigt Hill
#
# Bulk Modulus (GPa) = 32.36675 44.74792 38.55734
# Shear Modulus (GPa) = -76.66536 23.41981 -26.62277
#
# Velocity S-wave (km/s) = -6.06311 3.35110 -3.57291
# Velocity P-wave (km/s) = 5.78749 6.03572 1.21137
#
# Compressibility (1/GPa) = 0.03089590
#
# Stress axis : x y z
#
# Youngs Moduli (GPa) = 27.17356 27.17356 107.74667
#
# Poissons Ratio (x) = 0.44940 0.50938
# Poissons Ratio (y) = 0.44940 0.50938
# Poissons Ratio (z) = 0.12846 0.12846
#
# Static dielectric constant tensor:
#      x y z
#    x 1.783630 0.000000 0.000000 
#    y 0.000000 1.783630 0.000000 
#    z 0.000000 0.000000 1.767580 
# 
# From -- ./inp_files/6953.got.cif
#   From: 2010.05.17/outbox.cif.g08.bks.cpg/sg122_4_cif.got.tgz:6953.got - 2010.05.20 11:37:33.
