data_PCOD9561346
_publ_section_title
;
Structure prediction by ZEFSAII (Michael W. Deem and Ramdas Pophale) SiO2 
 PCOD9561346
Probable space group: I -4 2 D
;
_chemical_formula_sum "Si O2"
_cell_formula_units_Z 108
_cell_length_a 15.162860
_cell_length_b 15.162860
_cell_length_c 21.077143
_cell_angle_alpha 90.000000
_cell_angle_beta 90.000000
_cell_angle_gamma 90.000000
_cell_volume 4845.894917
_symmetry_space_group_name_H-M "I -4 2 D"
_symmetry_group_IT_number 122
_symmetry_cell_setting 'tetragonal'
loop_
_space_group_symop_operation_xyz
x,y,z
y,-x,-z
-x,-y,z
-y,x,-z
x,1/2-y,1/4-z
-x,1/2+y,1/4-z
-y,1/2-x,1/4+z
y,1/2+x,1/4+z
1/2+x,1/2+y,1/2+z
1/2+y,1/2-x,1/2-z
1/2-x,1/2-y,1/2+z
1/2-y,1/2+x,1/2-z
1/2+x,-y,3/4-z
1/2-x,y,3/4-z
1/2-y,-x,3/4+z
1/2+y,x,3/4+z
loop_
_atom_site_type_symbol
_atom_site_label
_atom_site_fract_x
_atom_site_fract_y
_atom_site_fract_z
Si Si1 0.750000 0.575608 0.375000
Si Si2 0.646592 0.504543 0.494615
Si Si3 0.458686 0.301545 0.832840
Si Si4 0.127080 0.212714 0.801709
Si Si5 0.500000 0.500000 0.000000
Si Si6 0.082012 0.544170 0.956381
Si Si7 0.661578 0.234256 0.050782
Si Si8 0.331484 0.512382 0.915157
O O1 0.703247 0.521075 0.430950
O O2 0.823910 0.638779 0.406255
O O3 0.586435 0.417883 0.492830
O O4 0.711799 0.493527 0.552939
O O5 0.428378 0.279584 0.904351
O O6 0.538274 0.369612 0.824913
O O7 0.369741 0.325541 0.791878
O O8 0.067723 0.160020 0.752803
O O9 0.203082 0.268632 0.765815
O O10 0.413571 0.536378 0.961208
O O11 0.112118 0.484131 0.897181
O O12 0.000000 0.500000 0.992050
O O13 0.686870 0.250000 0.125000
O O14 0.566319 0.279848 0.049530
O O15 0.250000 0.561229 0.875000
#
# Coordination Sequence:
#
# PCOD9561346 Si02
#       8
#     8  16  16  16   4  16  16  16
#     4  12  20  42  64 104 136 190 242 288 362 436
#     4  11  23  40  69 101 144 184 237 296 355 431
#     4  11  22  42  70  98 140 192 236 289 367 438
#     4  11  21  37  69  93 136 188 236 281 364 430
#     4  12  28  48  84 108 148 208 248 306 396 456
#     4  12  25  41  67 105 141 178 240 309 353 436
#     4   9  19  40  68  91 130 188 230 280 350 432
#     4  11  26  47  72 106 144 183 246 304 367 443
#
# _framework density 22.286905000000001
#
# number of rings (size 3 to 8) (size 9 to 14) (size 15 to 20)
#    0.000    1.037    5.926    2.667    2.074    1.185 
#    0.000    0.000    1.630    0.000    0.000    0.000 
#    0.000    0.000    0.000    0.000    0.000    0.000 
#
# Total GULP energy -300951.629837 kJ/mol
# GULP energy per Si atom -5573.178330 kJ/mol
# Density = 2.223618 g / cm^3
# Si number density = 22.286905 Si / 1000 Ang^3
#
#
#
# Elastic Constant Matrix: (Units=GPa)
#
#
# Indices 1 2 3 4 5 6 
#
# 1 90.3816 39.3932 29.6585 0.0000 0.0000 0.0000
# 2 39.3932 90.3816 29.6585 0.0000 0.0000 0.0000
# 3 29.6585 29.6585 64.7331 0.0000 0.0000 0.0000
# 4 0.0000 0.0000 0.0000 32.6883 0.0000 0.0000
# 5 0.0000 0.0000 0.0000 0.0000 32.6883 0.0000
# 6 0.0000 0.0000 0.0000 0.0000 0.0000 28.8238
#
#
#
# Elastic Compliance Matrix: (Units=1/GPa)
#
#
# Indices 1 2 3 4 5 6 
#
# 1 0.014680 -0.004933 -0.004466 0.000000 0.000000 0.000000
# 2 -0.004933 0.014680 -0.004466 0.000000 0.000000 0.000000
# 3 -0.004466 -0.004466 0.019540 0.000000 0.000000 0.000000
# 4 0.000000 0.000000 0.000000 0.030592 0.000000 0.000000
# 5 0.000000 0.000000 0.000000 0.000000 0.030592 0.000000
# 6 0.000000 0.000000 0.000000 0.000000 0.000000 0.034694
#
#
# Mechanical properties :
#
#
# Convention : Reuss Voigt Hill
#
# Bulk Modulus (GPa) = 47.23429 49.21296 48.22362
# Shear Modulus (GPa) = 27.84556 28.62581 28.23568
#
# Velocity S-wave (km/s) = 3.53854 3.58777 3.56324
# Velocity P-wave (km/s) = 6.15912 6.26836 6.21398
#
# Compressibility (1/GPa) = 0.02117106
#
# Stress axis : x y z
#
# Youngs Moduli (GPa) = 68.12201 68.12201 51.17692
#
# Poissons Ratio (x) = 0.33603 0.22854
# Poissons Ratio (y) = 0.33603 0.22854
# Poissons Ratio (z) = 0.30421 0.30421
#
# Static dielectric constant tensor:
#      x y z
#    x 1.911280 0.000000 0.000000 
#    y 0.000000 1.911280 0.000000 
#    z 0.000000 0.000000 1.850820 
# 
# From -- ./inp_files/8179.got.cif
#   From: 2010.05.17/outbox.cif.g08.bks.cpg/sg122_5_cif.got.tgz:8179.got - 2010.05.20 11:37:33.
