data_PCOD9561197
_publ_section_title
;
Structure prediction by ZEFSAII (Michael W. Deem and Ramdas Pophale) SiO2 
 PCOD9561197
Probable space group: I -4 2 D
;
_chemical_formula_sum "Si O2"
_cell_formula_units_Z 72
_cell_length_a 17.928108
_cell_length_b 17.928108
_cell_length_c 10.760816
_cell_angle_alpha 90.000000
_cell_angle_beta 90.000000
_cell_angle_gamma 90.000000
_cell_volume 3458.709804
_symmetry_space_group_name_H-M "I -4 2 D"
_symmetry_group_IT_number 122
_symmetry_cell_setting 'tetragonal'
loop_
_space_group_symop_operation_xyz
x,y,z
y,-x,-z
-x,-y,z
-y,x,-z
x,1/2-y,1/4-z
-x,1/2+y,1/4-z
-y,1/2-x,1/4+z
y,1/2+x,1/4+z
1/2+x,1/2+y,1/2+z
1/2+y,1/2-x,1/2-z
1/2-x,1/2-y,1/2+z
1/2-y,1/2+x,1/2-z
1/2+x,-y,3/4-z
1/2-x,y,3/4-z
1/2-y,-x,3/4+z
1/2+y,x,3/4+z
loop_
_atom_site_type_symbol
_atom_site_label
_atom_site_fract_x
_atom_site_fract_y
_atom_site_fract_z
Si Si1 0.504943 0.622026 0.970782
Si Si2 0.750000 0.078033 0.375000
Si Si3 0.703041 0.162911 0.615379
Si Si4 0.308579 0.553096 0.271971
Si Si5 0.588865 0.916817 0.730369
O O1 0.499324 0.654459 0.830678
O O2 0.575292 0.565653 0.982399
O O3 0.525496 0.690484 0.058191
O O4 0.711050 0.130435 0.477489
O O5 0.718851 0.250000 0.625000
O O6 0.761832 0.115094 0.696975
O O7 0.622939 0.144765 0.675695
O O8 0.250000 0.522559 0.375000
O O9 0.375344 0.590883 0.348966
O O10 0.504901 0.902021 0.780232
#
# Coordination Sequence:
#
# PCOD9561197 Si02
#       5
#    16   8  16  16  16
#     4  10  23  43  70  98 135 179 228 291 341 413
#     4  10  24  44  62 102 128 170 232 266 346 410
#     4  10  23  42  64  91 130 174 214 273 330 403
#     4   9  21  43  61  92 134 166 220 268 341 403
#     4  10  23  39  66  95 125 168 217 270 325 399
#
# _framework density 20.817011000000001
#
# number of rings (size 3 to 8) (size 9 to 14) (size 15 to 20)
#    0.000    2.222    0.000    0.000   10.889    4.444 
#   12.000    0.000    0.000    0.000    0.000    0.000 
#    0.000    0.000    0.000    0.000    0.000    0.000 
#
# Total GULP energy -201141.085885 kJ/mol
# GULP energy per Si atom -5587.252386 kJ/mol
# Density = 2.076963 g / cm^3
# Si number density = 20.817011 Si / 1000 Ang^3
#
#
#
# Elastic Constant Matrix: (Units=GPa)
#
#
# Indices 1 2 3 4 5 6 
#
# 1 56.7061 26.9340 25.1766 0.0000 0.0000 0.0000
# 2 26.9340 56.7061 25.1766 0.0000 0.0000 0.0000
# 3 25.1766 25.1766 131.4249 0.0000 0.0000 0.0000
# 4 0.0000 0.0000 0.0000 15.3601 0.0000 0.0000
# 5 0.0000 0.0000 0.0000 0.0000 15.3601 0.0000
# 6 0.0000 0.0000 0.0000 0.0000 0.0000 22.4049
#
#
#
# Elastic Compliance Matrix: (Units=1/GPa)
#
#
# Indices 1 2 3 4 5 6 
#
# 1 0.023552 -0.010037 -0.002589 0.000000 0.000000 0.000000
# 2 -0.010037 0.023552 -0.002589 0.000000 0.000000 0.000000
# 3 -0.002589 -0.002589 0.008601 0.000000 0.000000 0.000000
# 4 0.000000 0.000000 0.000000 0.065104 0.000000 0.000000
# 5 0.000000 0.000000 0.000000 0.000000 0.065104 0.000000
# 6 0.000000 0.000000 0.000000 0.000000 0.000000 0.044633
#
#
# Mechanical properties :
#
#
# Convention : Reuss Voigt Hill
#
# Bulk Modulus (GPa) = 39.56599 44.37904 41.97251
# Shear Modulus (GPa) = 18.55980 21.79499 20.17739
#
# Velocity S-wave (km/s) = 2.98915 3.23922 3.11669
# Velocity P-wave (km/s) = 5.56428 5.94600 5.75831
#
# Compressibility (1/GPa) = 0.02527423
#
# Stress axis : x y z
#
# Youngs Moduli (GPa) = 42.46000 42.46000 116.26804
#
# Poissons Ratio (x) = 0.42617 0.30101
# Poissons Ratio (y) = 0.42617 0.30101
# Poissons Ratio (z) = 0.10993 0.10993
#
# Static dielectric constant tensor:
#      x y z
#    x 1.733190 0.000000 0.000000 
#    y 0.000000 1.733190 0.000000 
#    z 0.000000 0.000000 1.757750 
# 
# From -- ./inp_files/4151.got.cif
#   From: 2010.05.17/outbox.cif.g08.bks.cpg/sg122_3_cif.got.tgz:4151.got - 2010.05.20 11:37:33.
