data_PCOD9561960
_publ_section_title
;
Structure prediction by ZEFSAII (Michael W. Deem and Ramdas Pophale) SiO2 
 PCOD9561960
Probable space group: P 4/M M M
;
_chemical_formula_sum "Si O2"
_cell_formula_units_Z 120
_cell_length_a 28.632863
_cell_length_b 28.632863
_cell_length_c 8.175591
_cell_angle_alpha 90.000000
_cell_angle_beta 90.000000
_cell_angle_gamma 90.000000
_cell_volume 6702.683422
_symmetry_space_group_name_H-M "P 4/M M M"
_symmetry_group_IT_number 123
_symmetry_cell_setting 'tetragonal'
loop_
_space_group_symop_operation_xyz
x,y,z
-y,x,z
-x,-y,z
y,-x,z
x,-y,-z
-x,y,-z
y,x,-z
-y,-x,-z
-x,-y,-z
y,-x,-z
x,y,-z
-y,x,-z
-x,y,z
x,-y,z
-y,-x,z
y,x,z
loop_
_atom_site_type_symbol
_atom_site_label
_atom_site_fract_x
_atom_site_fract_y
_atom_site_fract_z
Si Si1 0.113120 0.280146 0.805708
Si Si2 0.126593 0.445248 0.197606
Si Si3 0.706009 0.634070 0.690801
Si Si4 0.768674 0.552706 0.804049
Si Si5 0.100384 0.822813 0.684714
Si Si6 0.053671 0.367448 0.694986
Si Si7 0.218963 0.707285 0.805437
Si Si8 0.054545 0.869077 0.000000
O O1 0.103700 0.232439 0.710449
O O2 0.076571 0.321110 0.771610
O O3 0.165286 0.296326 0.758631
O O4 0.113987 0.269709 0.000000
O O5 0.119891 0.500000 0.240965
O O6 0.179362 0.431411 0.252131
O O7 0.086908 0.411210 0.263853
O O8 0.125229 0.442130 0.000000
O O9 0.697769 0.626632 0.500000
O O10 0.660184 0.660184 0.762147
O O11 0.726533 0.586781 0.762595
O O12 0.747861 0.671192 0.714525
O O13 0.761381 0.500000 0.742732
O O14 0.771996 0.550833 0.000000
O O15 0.083057 0.832902 0.500000
O O16 0.150266 0.849735 0.699767
O O17 0.069974 0.842170 0.835036
O O18 0.053334 0.361359 0.500000
O O19 0.000000 0.374275 0.750187
O O20 0.241363 0.758638 0.779832
O O21 0.222680 0.697107 0.000000
O O22 0.082935 0.917066 0.000000
O O23 0.000000 0.875998 0.000000
#
# Coordination Sequence:
#
# PCOD9561960 Si02
#       8
#    16  16  16  16  16  16  16   8
#     4  11  21  35  56  79 106 141 181 224 268 317
#     4   9  19  37  59  79  98 125 167 222 281 334
#     4  10  20  31  44  69 106 142 174 209 251 303
#     4   9  18  33  53  76 100 128 167 213 258 307
#     4  10  21  38  61  88 118 151 185 222 266 320
#     4  11  25  40  51  70 102 136 174 222 274 330
#     4   9  18  31  49  73 101 134 169 207 253 306
#     4  10  22  41  64  90 118 146 179 219 263 315
#
# _framework density 17.903276999999999
#
# number of rings (size 3 to 8) (size 9 to 14) (size 15 to 20)
#    0.000    2.133    0.667    3.200    0.000    8.867 
#    0.000    4.000    0.000    0.000    0.000    1.867 
#    0.000    0.267    0.000    2.933    0.000    2.133 
#
# Total GULP energy -669444.077345 kJ/mol
# GULP energy per Si atom -5578.700645 kJ/mol
# Density = 1.786253 g / cm^3
# Si number density = 17.903277 Si / 1000 Ang^3
#
#
#
# Elastic Constant Matrix: (Units=GPa)
#
#
# Indices 1 2 3 4 5 6 
#
# 1 87.4580 58.5498 20.4793 0.0000 0.0000 0.0000
# 2 58.5498 87.4396 20.4770 0.0000 0.0000 0.0000
# 3 20.4793 20.4770 51.8823 0.0000 0.0000 0.0000
# 4 0.0000 0.0000 0.0000 41.5152 0.0000 0.0000
# 5 0.0000 0.0000 0.0000 0.0000 41.5100 0.0000
# 6 0.0000 0.0000 0.0000 0.0000 0.0000 14.9260
#
#
#
# Elastic Compliance Matrix: (Units=1/GPa)
#
#
# Indices 1 2 3 4 5 6 
#
# 1 0.021151 -0.013451 -0.003040 0.000000 0.000000 0.000000
# 2 -0.013451 0.021155 -0.003040 0.000000 0.000000 0.000000
# 3 -0.003040 -0.003040 0.021674 0.000000 0.000000 0.000000
# 4 0.000000 0.000000 0.000000 0.024088 0.000000 0.000000
# 5 0.000000 0.000000 0.000000 0.000000 0.024091 0.000000
# 6 0.000000 0.000000 0.000000 0.000000 0.000000 0.066997
#
#
# Mechanical properties :
#
#
# Convention : Reuss Voigt Hill
#
# Bulk Modulus (GPa) = 40.13111 47.31022 43.72066
# Shear Modulus (GPa) = 22.07286 28.07516 25.07401
#
# Velocity S-wave (km/s) = 3.51507 3.96429 3.74642
# Velocity P-wave (km/s) = 6.24007 6.88745 6.57174
#
# Compressibility (1/GPa) = 0.02491833
#
# Stress axis : x y z
#
# Youngs Moduli (GPa) = 47.28012 47.27023 46.13763
#
# Poissons Ratio (x) = 0.63581 0.14026
# Poissons Ratio (y) = 0.63594 0.14027
# Poissons Ratio (z) = 0.14373 0.14371
#
# Static dielectric constant tensor:
#      x y z
#    x 1.611780 0.000000 0.000000 
#    y 0.000000 1.611780 0.000000 
#    z 0.000000 0.000000 1.632990 
# 
# From -- ./inp_files/2064.got.cif
#   From: 2010.05.17/outbox.cif.g08.bks.cpg/sg123_2_cif.got.tgz:2064.got - 2010.05.20 11:43:04.
