data_PCOD9561236
_publ_section_title
;
Structure prediction by ZEFSAII (Michael W. Deem and Ramdas Pophale) SiO2 
 PCOD9561236
Probable space group: I -4 2 D
;
_chemical_formula_sum "Si O2"
_cell_formula_units_Z 60
_cell_length_a 17.631463
_cell_length_b 17.631463
_cell_length_c 7.310768
_cell_angle_alpha 90.000000
_cell_angle_beta 90.000000
_cell_angle_gamma 90.000000
_cell_volume 2272.687391
_symmetry_space_group_name_H-M "I -4 2 D"
_symmetry_group_IT_number 122
_symmetry_cell_setting 'tetragonal'
loop_
_space_group_symop_operation_xyz
x,y,z
y,-x,-z
-x,-y,z
-y,x,-z
x,1/2-y,1/4-z
-x,1/2+y,1/4-z
-y,1/2-x,1/4+z
y,1/2+x,1/4+z
1/2+x,1/2+y,1/2+z
1/2+y,1/2-x,1/2-z
1/2-x,1/2-y,1/2+z
1/2-y,1/2+x,1/2-z
1/2+x,-y,3/4-z
1/2-x,y,3/4-z
1/2-y,-x,3/4+z
1/2+y,x,3/4+z
loop_
_atom_site_type_symbol
_atom_site_label
_atom_site_fract_x
_atom_site_fract_y
_atom_site_fract_z
Si Si1 0.748048 0.905842 0.155751
Si Si2 0.000000 0.000000 0.000000
Si Si3 0.250000 0.667101 0.375000
Si Si4 0.837920 0.047745 0.129755
Si Si5 0.116932 0.001718 0.503098
O O1 0.750000 0.909294 0.375000
O O2 0.774804 0.821040 0.123995
O O3 0.806047 0.965364 0.073451
O O4 0.668111 0.946559 0.118036
O O5 0.072805 0.956572 0.087669
O O6 0.217783 0.609411 0.215809
O O7 0.835919 0.044275 0.351913
O O8 0.062356 0.939712 0.595020
#
# Coordination Sequence:
#
# PCOD9561236 Si02
#       5
#    16   4   8  16  16
#     4  10  25  46  69 107 154 198 249 315 390 464
#     4  12  20  44  74 108 140 200 256 314 388 452
#     4  12  26  48  76 114 162 200 260 322 394 490
#     4  11  25  43  74 108 153 201 252 323 392 472
#     4  10  23  47  80 110 148 204 270 325 386 469
#
# _framework density 26.400463999999999
#
# number of rings (size 3 to 8) (size 9 to 14) (size 15 to 20)
#    0.000    1.333    2.667    1.600    7.467    4.267 
#    4.800    0.000    0.000    0.000    0.000    0.000 
#    0.000    0.000    0.000    0.000    0.000    0.000 
#
# Total GULP energy -167059.904509 kJ/mol
# GULP energy per Si atom -5568.663484 kJ/mol
# Density = 2.634038 g / cm^3
# Si number density = 26.400464 Si / 1000 Ang^3
#
#
#
# Elastic Constant Matrix: (Units=GPa)
#
#
# Indices 1 2 3 4 5 6 
#
# 1 174.5252 62.2662 48.9469 0.0000 0.0000 0.0000
# 2 62.2662 174.5252 48.9469 0.0000 0.0000 0.0000
# 3 48.9469 48.9469 78.2001 0.0000 0.0000 0.0000
# 4 0.0000 0.0000 0.0000 31.2644 0.0000 0.0000
# 5 0.0000 0.0000 0.0000 0.0000 31.2644 0.0000
# 6 0.0000 0.0000 0.0000 0.0000 0.0000 45.2651
#
#
#
# Elastic Compliance Matrix: (Units=1/GPa)
#
#
# Indices 1 2 3 4 5 6 
#
# 1 0.007303 -0.001605 -0.003566 0.000000 0.000000 0.000000
# 2 -0.001605 0.007303 -0.003566 0.000000 0.000000 0.000000
# 3 -0.003566 -0.003566 0.017252 0.000000 0.000000 0.000000
# 4 0.000000 0.000000 0.000000 0.031985 0.000000 0.000000
# 5 0.000000 0.000000 0.000000 0.000000 0.031985 0.000000
# 6 0.000000 0.000000 0.000000 0.000000 0.000000 0.022092
#
#
# Mechanical properties :
#
#
# Convention : Reuss Voigt Hill
#
# Bulk Modulus (GPa) = 69.53010 83.06341 76.29675
# Shear Modulus (GPa) = 35.66612 39.36481 37.51547
#
# Velocity S-wave (km/s) = 3.67954 3.86562 3.77373
# Velocity P-wave (km/s) = 6.66677 7.17323 6.92463
#
# Compressibility (1/GPa) = 0.01438226
#
# Stress axis : x y z
#
# Youngs Moduli (GPa) = 136.93564 136.93564 57.96458
#
# Poissons Ratio (x) = 0.21982 0.20671
# Poissons Ratio (y) = 0.21982 0.20671
# Poissons Ratio (z) = 0.48833 0.48833
#
# Static dielectric constant tensor:
#      x y z
#    x 2.140990 0.000000 0.000000 
#    y 0.000000 2.140990 0.000000 
#    z 0.000000 0.000000 2.160620 
# 
# From -- ./inp_files/2341.got.cif
#   From: 2010.05.17/outbox.cif.g08.bks.cpg/sg122_2_cif.got.tgz:2341.got - 2010.05.20 11:37:33.
