data_PCOD9561953
_publ_section_title
;
Structure prediction by ZEFSAII (Michael W. Deem and Ramdas Pophale) SiO2 
 PCOD9561953
Probable space group: P 4/M M M
;
_chemical_formula_sum "Si O2"
_cell_formula_units_Z 96
_cell_length_a 24.856202
_cell_length_b 24.856202
_cell_length_c 7.929639
_cell_angle_alpha 90.000000
_cell_angle_beta 90.000000
_cell_angle_gamma 90.000000
_cell_volume 4899.175032
_symmetry_space_group_name_H-M "P 4/M M M"
_symmetry_group_IT_number 123
_symmetry_cell_setting 'tetragonal'
loop_
_space_group_symop_operation_xyz
x,y,z
-y,x,z
-x,-y,z
y,-x,z
x,-y,-z
-x,y,-z
y,x,-z
-y,-x,-z
-x,-y,-z
y,-x,-z
x,y,-z
-y,x,-z
-x,y,z
x,-y,z
-y,-x,z
y,x,z
loop_
_atom_site_type_symbol
_atom_site_label
_atom_site_fract_x
_atom_site_fract_y
_atom_site_fract_z
Si Si1 0.376488 0.752297 0.703318
Si Si2 0.061452 0.227297 0.202878
Si Si3 0.746290 0.253711 0.706592
Si Si4 0.061811 0.652262 0.203268
Si Si5 0.439179 0.644921 0.203346
Si Si6 0.439699 0.855623 0.297878
Si Si7 0.833305 0.833305 0.299890
O O1 0.374998 0.755240 0.500000
O O2 0.314870 0.758680 0.761315
O O3 0.402272 0.695514 0.749998
O O4 0.414611 0.799929 0.768008
O O5 0.078024 0.287599 0.261983
O O6 0.106952 0.184819 0.249794
O O7 0.000000 0.216685 0.261950
O O8 0.059152 0.229225 0.000000
O O9 0.746883 0.253118 0.500000
O O10 0.789739 0.210262 0.767767
O O11 0.098679 0.603874 0.262303
O O12 0.000000 0.644285 0.255806
O O13 0.063261 0.652728 0.000000
O O14 0.500000 0.650672 0.267899
O O15 0.408784 0.591217 0.262529
O O16 0.441633 0.642936 0.000000
O O17 0.443572 0.850801 0.500000
O O18 0.500000 0.865942 0.232573
O O19 0.830359 0.830359 0.500000
#
# Coordination Sequence:
#
# PCOD9561953 Si02
#       7
#    16  16   8  16  16  16   8
#     4  10  19  35  55  74 100 135 171 209 259 318
#     4   9  19  37  58  80 111 149 185 222 268 320
#     4   9  18  31  51  79 107 133 165 212 266 313
#     4   9  19  36  56  77 103 139 183 228 270 311
#     4  10  21  36  53  74  99 127 163 208 258 313
#     4  10  21  34  49  73 105 140 176 217 270 329
#     4  11  21  33  55  88 118 144 180 223 265 313
#
# _framework density 19.595134999999999
#
# number of rings (size 3 to 8) (size 9 to 14) (size 15 to 20)
#    0.000    2.333    0.833    2.750    0.000    5.167 
#    0.000    5.833    0.000    0.250    0.000    2.917 
#    0.000    0.000    0.000    0.000    0.000    0.000 
#
# Total GULP energy -535812.323328 kJ/mol
# GULP energy per Si atom -5581.378368 kJ/mol
# Density = 1.955054 g / cm^3
# Si number density = 19.595135 Si / 1000 Ang^3
#
#
#
# Elastic Constant Matrix: (Units=GPa)
#
#
# Indices 1 2 3 4 5 6 
#
# 1 137.0917 91.5246 10.3069 0.0000 0.0000 0.0000
# 2 91.5246 137.0917 10.3068 0.0000 0.0000 0.0000
# 3 10.3069 10.3068 16.4124 0.0000 0.0000 0.0000
# 4 0.0000 0.0000 0.0000 23.0655 0.0000 0.0000
# 5 0.0000 0.0000 0.0000 0.0000 23.0655 0.0000
# 6 0.0000 0.0000 0.0000 0.0000 0.0000 22.6692
#
#
#
# Elastic Compliance Matrix: (Units=1/GPa)
#
#
# Indices 1 2 3 4 5 6 
#
# 1 0.013291 -0.008654 -0.002912 0.000000 0.000000 0.000000
# 2 -0.008654 0.013291 -0.002912 0.000000 0.000000 0.000000
# 3 -0.002912 -0.002912 0.064587 0.000000 0.000000 0.000000
# 4 0.000000 0.000000 0.000000 0.043355 0.000000 0.000000
# 5 0.000000 0.000000 0.000000 0.000000 0.043355 0.000000
# 6 0.000000 0.000000 0.000000 0.000000 0.000000 0.044113
#
#
# Mechanical properties :
#
#
# Convention : Reuss Voigt Hill
#
# Bulk Modulus (GPa) = 16.07384 57.20804 36.64094
# Shear Modulus (GPa) = 18.40365 25.65720 22.03043
#
# Velocity S-wave (km/s) = 3.06795 3.62244 3.35667
# Velocity P-wave (km/s) = 4.55747 6.83773 5.81055
#
# Compressibility (1/GPa) = 0.06221288
#
# Stress axis : x y z
#
# Youngs Moduli (GPa) = 75.23787 75.23791 15.48306
#
# Poissons Ratio (x) = 0.65115 0.04508
# Poissons Ratio (y) = 0.65114 0.04508
# Poissons Ratio (z) = 0.21908 0.21908
#
# Static dielectric constant tensor:
#      x y z
#    x 1.686010 0.000000 0.000000 
#    y 0.000000 1.686010 0.000000 
#    z 0.000000 0.000000 1.717520 
# 
# From -- ./inp_files/1672.got.cif
#   From: 2010.05.17/outbox.cif.g08.bks.cpg/sg123_1_cif.got.tgz:1672.got - 2010.05.20 11:43:04.
