data_PCOD9561422
_publ_section_title
;
Structure prediction by ZEFSAII (Michael W. Deem and Ramdas Pophale) SiO2 
 PCOD9561422
Probable space group: I -4 2 D
;
_chemical_formula_sum "Si O2"
_cell_formula_units_Z 56
_cell_length_a 14.062331
_cell_length_b 14.062331
_cell_length_c 13.435088
_cell_angle_alpha 90.000000
_cell_angle_beta 90.000000
_cell_angle_gamma 90.000000
_cell_volume 2656.777275
_symmetry_space_group_name_H-M "I -4 2 D"
_symmetry_group_IT_number 122
_symmetry_cell_setting 'tetragonal'
loop_
_space_group_symop_operation_xyz
x,y,z
y,-x,-z
-x,-y,z
-y,x,-z
x,1/2-y,1/4-z
-x,1/2+y,1/4-z
-y,1/2-x,1/4+z
y,1/2+x,1/4+z
1/2+x,1/2+y,1/2+z
1/2+y,1/2-x,1/2-z
1/2-x,1/2-y,1/2+z
1/2-y,1/2+x,1/2-z
1/2+x,-y,3/4-z
1/2-x,y,3/4-z
1/2-y,-x,3/4+z
1/2+y,x,3/4+z
loop_
_atom_site_type_symbol
_atom_site_label
_atom_site_fract_x
_atom_site_fract_y
_atom_site_fract_z
Si Si1 0.000000 0.000000 0.000000
Si Si2 0.206246 0.465918 0.777756
Si Si3 0.500000 0.000000 0.250000
Si Si4 0.321738 0.587120 0.623094
Si Si5 0.752680 0.753543 0.742258
O O1 0.039416 0.084344 0.926194
O O2 0.250000 0.512520 0.875000
O O3 0.252065 0.511524 0.678365
O O4 0.171344 0.173244 0.792254
O O5 0.096734 0.480622 0.803986
O O6 0.220799 0.353338 0.773899
O O7 0.275613 0.647794 0.533582
O O8 0.754536 0.750000 0.625000
#
# Coordination Sequence:
#
# PCOD9561422 Si02
#       5
#     4  16   4  16  16
#     4  12  28  54  72 116 150 204 264 310 408 460
#     4  12  23  45  70 110 152 195 259 319 381 451
#     4  12  24  38  72 108 148 198 264 310 372 456
#     4  11  25  48  73 107 150 200 255 315 381 465
#     4  11  23  49  73 105 156 200 246 320 384 451
#
# _framework density 21.078168000000002
#
# number of rings (size 3 to 8) (size 9 to 14) (size 15 to 20)
#    0.000    0.571    5.714    2.571    0.000    1.143 
#   25.714    0.000    0.000    0.000    0.000    0.000 
#    0.000    0.000    0.000    0.000    0.000    0.000 
#
# Total GULP energy -155892.498144 kJ/mol
# GULP energy per Si atom -5567.589219 kJ/mol
# Density = 2.103019 g / cm^3
# Si number density = 21.078168 Si / 1000 Ang^3
#
#
#
# Elastic Constant Matrix: (Units=GPa)
#
#
# Indices 1 2 3 4 5 6 
#
# 1 128.6581 76.0519 50.5374 0.0000 0.0000 0.0000
# 2 76.0519 128.6581 50.5374 0.0000 0.0000 0.0000
# 3 50.5374 50.5374 169.5151 0.0000 0.0000 0.0000
# 4 0.0000 0.0000 0.0000 66.6961 0.0000 0.0000
# 5 0.0000 0.0000 0.0000 0.0000 66.6961 0.0000
# 6 0.0000 0.0000 0.0000 0.0000 0.0000 48.2644
#
#
#
# Elastic Compliance Matrix: (Units=1/GPa)
#
#
# Indices 1 2 3 4 5 6 
#
# 1 0.012369 -0.006641 -0.001708 0.000000 0.000000 0.000000
# 2 -0.006641 0.012369 -0.001708 0.000000 0.000000 0.000000
# 3 -0.001708 -0.001708 0.006917 0.000000 0.000000 0.000000
# 4 0.000000 0.000000 0.000000 0.014993 0.000000 0.000000
# 5 0.000000 0.000000 0.000000 0.000000 0.014993 0.000000
# 6 0.000000 0.000000 0.000000 0.000000 0.000000 0.020719
#
#
# Mechanical properties :
#
#
# Convention : Reuss Voigt Hill
#
# Bulk Modulus (GPa) = 86.63409 86.78722 86.71065
# Shear Modulus (GPa) = 47.02773 52.97829 50.00301
#
# Velocity S-wave (km/s) = 4.72859 5.01884 4.87587
# Velocity P-wave (km/s) = 8.42634 8.65150 8.53966
#
# Compressibility (1/GPa) = 0.01154280
#
# Stress axis : x y z
#
# Youngs Moduli (GPa) = 80.84951 80.84951 144.56247
#
# Poissons Ratio (x) = 0.53688 0.24687
# Poissons Ratio (y) = 0.53688 0.24687
# Poissons Ratio (z) = 0.13807 0.13807
#
# Static dielectric constant tensor:
#      x y z
#    x 1.636570 0.000000 0.000000 
#    y 0.000000 1.636570 0.000000 
#    z 0.000000 0.000000 1.808420 
# 
# From -- ./inp_files/5093.got.cif
#   From: 2010.05.17/outbox.cif.g08.bks.cpg/sg122_3_cif.got.tgz:5093.got - 2010.05.20 11:37:33.
