data_PCOD9561925
_publ_section_title
;
Structure prediction by ZEFSAII (Michael W. Deem and Ramdas Pophale) SiO2 
 PCOD9561925
Probable space group: P 4/M M M
;
_chemical_formula_sum "Si O2"
_cell_formula_units_Z 96
_cell_length_a 24.624867
_cell_length_b 24.624867
_cell_length_c 8.148573
_cell_angle_alpha 90.000000
_cell_angle_beta 90.000000
_cell_angle_gamma 90.000000
_cell_volume 4941.164899
_symmetry_space_group_name_H-M "P 4/M M M"
_symmetry_group_IT_number 123
_symmetry_cell_setting 'tetragonal'
loop_
_space_group_symop_operation_xyz
x,y,z
-y,x,z
-x,-y,z
y,-x,z
x,-y,-z
-x,y,-z
y,x,-z
-y,-x,-z
-x,-y,-z
y,-x,-z
x,y,-z
-y,x,-z
-x,y,z
x,-y,z
-y,-x,z
y,x,z
loop_
_atom_site_type_symbol
_atom_site_label
_atom_site_fract_x
_atom_site_fract_y
_atom_site_fract_z
Si Si1 0.750478 0.639179 0.314565
Si Si2 0.563541 0.651146 0.700112
Si Si3 0.419712 0.059883 0.309709
Si Si4 0.261648 0.176641 0.301992
Si Si5 0.298268 0.939861 0.806120
Si Si6 0.439667 0.826790 0.820341
O O1 0.734537 0.653104 0.500000
O O2 0.699995 0.604311 0.242501
O O3 0.780164 0.692256 0.241267
O O4 0.799740 0.596852 0.314773
O O5 0.562061 0.655111 0.500000
O O6 0.500000 0.654568 0.754500
O O7 0.594821 0.594821 0.740944
O O8 0.434815 0.066598 0.500000
O O9 0.354636 0.062315 0.292317
O O10 0.441231 0.109259 0.204884
O O11 0.436536 0.000000 0.254784
O O12 0.268292 0.174020 0.500000
O O13 0.204240 0.204240 0.264631
O O14 0.267702 0.115844 0.235271
O O15 0.273294 0.000000 0.772314
O O16 0.311226 0.938682 0.000000
O O17 0.500000 0.804380 0.810822
O O18 0.416499 0.814293 0.000000
#
# Coordination Sequence:
#
# PCOD9561925 Si02
#       6
#    16  16  16  16  16  16
#     4  10  19  33  52  73  99 134 171 211 259 312
#     4   9  17  29  47  72 100 130 165 207 259 319
#     4  10  20  34  52  72  95 128 172 218 262 309
#     4  10  20  33  52  80 110 140 177 219 261 309
#     4  10  20  34  53  77 107 143 180 218 262 311
#     4  11  23  35  48  69  98 131 169 216 266 314
#
# _framework density 19.428616999999999
#
# number of rings (size 3 to 8) (size 9 to 14) (size 15 to 20)
#    0.000    2.000    1.667    2.500    0.000    6.833 
#    0.000    2.500    0.000    1.500    0.000    0.000 
#    0.000    0.333    0.000    7.167    0.000    6.000 
#
# Total GULP energy -535059.632228 kJ/mol
# GULP energy per Si atom -5573.537836 kJ/mol
# Density = 1.938440 g / cm^3
# Si number density = 19.428617 Si / 1000 Ang^3
#
#
#
# Elastic Constant Matrix: (Units=GPa)
#
#
# Indices 1 2 3 4 5 6 
#
# 1 106.4692 76.2804 17.6476 0.0000 0.0000 0.0000
# 2 76.2804 106.4692 17.6476 0.0000 0.0000 0.0000
# 3 17.6476 17.6476 38.6045 0.0000 0.0000 0.0000
# 4 0.0000 0.0000 0.0000 2.8687 0.0000 0.0000
# 5 0.0000 0.0000 0.0000 0.0000 2.8687 0.0000
# 6 0.0000 0.0000 0.0000 0.0000 0.0000 1.2673
#
#
#
# Elastic Compliance Matrix: (Units=1/GPa)
#
#
# Indices 1 2 3 4 5 6 
#
# 1 0.019563 -0.013561 -0.002744 0.000000 0.000000 0.000000
# 2 -0.013561 0.019563 -0.002744 0.000000 0.000000 0.000000
# 3 -0.002744 -0.002744 0.028412 0.000000 0.000000 0.000000
# 4 0.000000 0.000000 0.000000 0.348585 0.000000 0.000000
# 5 0.000000 0.000000 0.000000 0.000000 0.348585 0.000000
# 6 0.000000 0.000000 0.000000 0.000000 0.000000 0.789099
#
#
# Mechanical properties :
#
#
# Convention : Reuss Voigt Hill
#
# Bulk Modulus (GPa) = 33.96599 52.74380 43.35490
# Shear Modulus (GPa) = 3.12165 10.73210 6.92688
#
# Velocity S-wave (km/s) = 1.26894 2.35284 1.89025
# Velocity P-wave (km/s) = 4.43479 5.88112 5.20840
#
# Compressibility (1/GPa) = 0.02944121
#
# Stress axis : x y z
#
# Youngs Moduli (GPa) = 51.11595 51.11595 35.19612
#
# Poissons Ratio (x) = 0.69321 0.09657
# Poissons Ratio (y) = 0.69321 0.09657
# Poissons Ratio (z) = 0.14025 0.14025
#
# Static dielectric constant tensor:
#      x y z
#    x 1.695140 0.000000 0.000000 
#    y 0.000000 1.695140 0.000000 
#    z 0.000000 0.000000 1.711120 
# 
# From -- ./inp_files/1574.got.cif
#   From: 2010.05.17/outbox.cif.g08.bks.cpg/sg123_1_cif.got.tgz:1574.got - 2010.05.20 11:43:04.
