data_PCOD9561868
_publ_section_title
;
Structure prediction by ZEFSAII (Michael W. Deem and Ramdas Pophale) SiO2 
 PCOD9561868
Probable space group: P 4/M M M
;
_chemical_formula_sum "Si O2"
_cell_formula_units_Z 48
_cell_length_a 19.647244
_cell_length_b 19.647244
_cell_length_c 7.596506
_cell_angle_alpha 90.000000
_cell_angle_beta 90.000000
_cell_angle_gamma 90.000000
_cell_volume 2932.359162
_symmetry_space_group_name_H-M "P 4/M M M"
_symmetry_group_IT_number 123
_symmetry_cell_setting 'tetragonal'
loop_
_space_group_symop_operation_xyz
x,y,z
-y,x,z
-x,-y,z
y,-x,z
x,-y,-z
-x,y,-z
y,x,-z
-y,-x,-z
-x,-y,-z
y,-x,-z
x,y,-z
-y,x,-z
-x,y,z
x,-y,z
-y,-x,z
y,x,z
loop_
_atom_site_type_symbol
_atom_site_label
_atom_site_fract_x
_atom_site_fract_y
_atom_site_fract_z
Si Si1 0.923425 0.698121 0.500000
Si Si2 0.771098 0.659143 0.500000
Si Si3 0.187762 0.923596 0.206040
Si Si4 0.420452 0.689458 0.792813
O O1 0.852647 0.657890 0.500000
O O2 0.919508 0.746996 0.329729
O O3 0.000000 0.666277 0.500000
O O4 0.734277 0.734277 0.500000
O O5 0.741845 0.619732 0.669730
O O6 0.132664 0.867337 0.255654
O O7 0.159143 0.000000 0.226068
O O8 0.205201 0.914402 0.000000
O O9 0.500000 0.686817 0.748246
O O10 0.382862 0.617139 0.766315
O O11 0.413961 0.706657 0.000000
#
# Coordination Sequence:
#
# PCOD9561868 Si02
#       4
#     8   8  16  16
#     4  10  20  33  47  64  88 120 161 208 251 285
#     4  10  19  31  49  72  97 127 163 202 242 284
#     4   9  17  28  42  61  85 113 146 187 238 296
#     4   9  18  32  51  77 106 133 159 186 222 274
#
# _framework density 16.369074000000001
#
# number of rings (size 3 to 8) (size 9 to 14) (size 15 to 20)
#    0.000    2.667    0.000    2.000    0.000    2.000 
#    0.000    6.667    0.000    8.000    0.000    2.333 
#    0.000    0.000    0.000    0.000    0.000    0.000 
#
# Total GULP energy -267356.214629 kJ/mol
# GULP energy per Si atom -5569.921138 kJ/mol
# Density = 1.633182 g / cm^3
# Si number density = 16.369074 Si / 1000 Ang^3
#
#
#
# Elastic Constant Matrix: (Units=GPa)
#
#
# Indices 1 2 3 4 5 6 
#
# 1 92.4429 41.6523 31.8823 0.0000 0.0000 0.0000
# 2 41.6523 92.4429 31.8823 0.0000 0.0000 0.0000
# 3 31.8823 31.8823 46.5859 0.0000 0.0000 0.0000
# 4 0.0000 0.0000 0.0000 15.8901 0.0000 0.0000
# 5 0.0000 0.0000 0.0000 0.0000 15.8901 0.0000
# 6 0.0000 0.0000 0.0000 0.0000 0.0000 14.0848
#
#
#
# Elastic Compliance Matrix: (Units=1/GPa)
#
#
# Indices 1 2 3 4 5 6 
#
# 1 0.015372 -0.004317 -0.007566 0.000000 0.000000 0.000000
# 2 -0.004317 0.015372 -0.007566 0.000000 0.000000 0.000000
# 3 -0.007566 -0.007566 0.031821 0.000000 0.000000 0.000000
# 4 0.000000 0.000000 0.000000 0.062932 0.000000 0.000000
# 5 0.000000 0.000000 0.000000 0.000000 0.062932 0.000000
# 6 0.000000 0.000000 0.000000 0.000000 0.000000 0.070998
#
#
# Mechanical properties :
#
#
# Convention : Reuss Voigt Hill
#
# Bulk Modulus (GPa) = 42.25064 49.14508 45.69786
# Shear Modulus (GPa) = 16.32842 17.57666 16.95254
#
# Velocity S-wave (km/s) = 3.16177 3.28040 3.22163
# Velocity P-wave (km/s) = 6.26070 6.66606 6.46656
#
# Compressibility (1/GPa) = 0.02366828
#
# Stress axis : x y z
#
# Youngs Moduli (GPa) = 65.05385 65.05385 31.42533
#
# Poissons Ratio (x) = 0.28082 0.23776
# Poissons Ratio (y) = 0.28082 0.23776
# Poissons Ratio (z) = 0.49219 0.49219
#
# Static dielectric constant tensor:
#      x y z
#    x 1.542080 0.000000 0.000000 
#    y 0.000000 1.542080 0.000000 
#    z 0.000000 0.000000 1.567700 
# 
# From -- ./inp_files/432.got.cif
#   From: 2010.05.17/outbox.cif.g08.bks.cpg/sg123_1_cif.got.tgz:432.got - 2010.05.20 11:43:04.
