data_PCOD9561268
_publ_section_title
;
Structure prediction by ZEFSAII (Michael W. Deem and Ramdas Pophale) SiO2 
 PCOD9561268
Probable space group: I -4 2 D
;
_chemical_formula_sum "Si O2"
_cell_formula_units_Z 44
_cell_length_a 13.449097
_cell_length_b 13.449097
_cell_length_c 10.188792
_cell_angle_alpha 90.000000
_cell_angle_beta 90.000000
_cell_angle_gamma 90.000000
_cell_volume 1842.930460
_symmetry_space_group_name_H-M "I -4 2 D"
_symmetry_group_IT_number 122
_symmetry_cell_setting 'tetragonal'
loop_
_space_group_symop_operation_xyz
x,y,z
y,-x,-z
-x,-y,z
-y,x,-z
x,1/2-y,1/4-z
-x,1/2+y,1/4-z
-y,1/2-x,1/4+z
y,1/2+x,1/4+z
1/2+x,1/2+y,1/2+z
1/2+y,1/2-x,1/2-z
1/2-x,1/2-y,1/2+z
1/2-y,1/2+x,1/2-z
1/2+x,-y,3/4-z
1/2-x,y,3/4-z
1/2-y,-x,3/4+z
1/2+y,x,3/4+z
loop_
_atom_site_type_symbol
_atom_site_label
_atom_site_fract_x
_atom_site_fract_y
_atom_site_fract_z
Si Si1 0.413827 0.123869 0.270315
Si Si2 0.000000 0.500000 0.250000
Si Si3 0.058925 0.212135 0.985125
Si Si4 0.751634 0.750000 0.625000
O O1 0.513072 0.112932 0.182441
O O2 0.445054 0.197849 0.384964
O O3 0.322031 0.171290 0.194956
O O4 0.016718 0.392342 0.316875
O O5 0.014825 0.250000 0.125000
O O6 0.175940 0.200169 0.022055
#
# Coordination Sequence:
#
# PCOD9561268 Si02
#       4
#    16   4  16   8
#     4  11  25  45  76 110 147 200 256 320 392 468
#     4  12  24  48  72 100 150 208 244 324 388 454
#     4  10  26  44  72 109 148 201 255 320 394 474
#     4  10  24  44  72 100 158 186 254 326 374 472
#
# _framework density 23.875021
#
# number of rings (size 3 to 8) (size 9 to 14) (size 15 to 20)
#    1.091    0.364    0.000    3.273    5.091    8.727 
#    0.000    0.000    0.000    0.000    0.000    0.000 
#    0.000    0.000    0.000    0.000    0.000    0.000 
#
# Total GULP energy -122801.644900 kJ/mol
# GULP energy per Si atom -5581.892950 kJ/mol
# Density = 2.382068 g / cm^3
# Si number density = 23.875021 Si / 1000 Ang^3
#
#
#
# Elastic Constant Matrix: (Units=GPa)
#
#
# Indices 1 2 3 4 5 6 
#
# 1 153.7368 28.8693 30.9428 0.0000 0.0000 0.0000
# 2 28.8693 153.7368 30.9428 0.0000 0.0000 0.0000
# 3 30.9428 30.9428 65.0998 0.0000 0.0000 0.0000
# 4 0.0000 0.0000 0.0000 11.5142 0.0000 0.0000
# 5 0.0000 0.0000 0.0000 0.0000 11.5142 0.0000
# 6 0.0000 0.0000 0.0000 0.0000 0.0000 51.9811
#
#
#
# Elastic Compliance Matrix: (Units=1/GPa)
#
#
# Indices 1 2 3 4 5 6 
#
# 1 0.007268 -0.000740 -0.003103 0.000000 0.000000 0.000000
# 2 -0.000740 0.007268 -0.003103 0.000000 0.000000 0.000000
# 3 -0.003103 -0.003103 0.018311 0.000000 0.000000 0.000000
# 4 0.000000 0.000000 0.000000 0.086850 0.000000 0.000000
# 5 0.000000 0.000000 0.000000 0.000000 0.086850 0.000000
# 6 0.000000 0.000000 0.000000 0.000000 0.000000 0.019238
#
#
# Mechanical properties :
#
#
# Convention : Reuss Voigt Hill
#
# Bulk Modulus (GPa) = 52.75601 61.56481 57.16041
# Shear Modulus (GPa) = 20.32570 33.78978 27.05774
#
# Velocity S-wave (km/s) = 2.92093 3.76610 3.37012
# Velocity P-wave (km/s) = 5.78969 6.68981 6.25596
#
# Compressibility (1/GPa) = 0.01895519
#
# Stress axis : x y z
#
# Youngs Moduli (GPa) = 137.58676 137.58676 54.61316
#
# Poissons Ratio (x) = 0.10186 0.16945
# Poissons Ratio (y) = 0.10186 0.16945
# Poissons Ratio (z) = 0.42690 0.42690
#
# Static dielectric constant tensor:
#      x y z
#    x 1.941000 0.000000 0.000000 
#    y 0.000000 1.941000 0.000000 
#    z 0.000000 0.000000 1.898120 
# 
# From -- ./inp_files/3770.got.cif
#   From: 2010.05.17/outbox.cif.g08.bks.cpg/sg122_2_cif.got.tgz:3770.got - 2010.05.20 11:37:33.
