data_PCOD9561583
_publ_section_title
;
Structure prediction by ZEFSAII (Michael W. Deem and Ramdas Pophale) SiO2 
 PCOD9561583
Probable space group: I -4 2 D
;
_chemical_formula_sum "Si O2"
_cell_formula_units_Z 58
_cell_length_a 18.000000
_cell_length_b 18.000000
_cell_length_c 18.000000
_cell_angle_alpha 90.000000
_cell_angle_beta 90.000000
_cell_angle_gamma 90.000000
_cell_volume 5832.000000
_symmetry_space_group_name_H-M "I -4 2 D"
_symmetry_group_IT_number 122
_symmetry_cell_setting 'tetragonal'
loop_
_space_group_symop_operation_xyz
x,y,z
y,-x,-z
-x,-y,z
-y,x,-z
x,1/2-y,1/4-z
-x,1/2+y,1/4-z
-y,1/2-x,1/4+z
y,1/2+x,1/4+z
1/2+x,1/2+y,1/2+z
1/2+y,1/2-x,1/2-z
1/2-x,1/2-y,1/2+z
1/2-y,1/2+x,1/2-z
1/2+x,-y,3/4-z
1/2-x,y,3/4-z
1/2-y,-x,3/4+z
1/2+y,x,3/4+z
loop_
_atom_site_type_symbol
_atom_site_label
_atom_site_fract_x
_atom_site_fract_y
_atom_site_fract_z
Si Si1 0.983086 0.832987 0.489987
Si Si2 0.683832 0.531594 0.172910
Si Si3 0.741132 0.686213 0.562263
Si Si4 0.412013 0.793776 0.048751
Si Si5 0.583966 0.031081 0.494988
Si Si6 0.500000 0.500000 0.000000
Si Si7 0.626520 0.785633 0.949442
Si Si8 0.876122 0.761525 0.279144
O O1 0.991068 0.842906 0.402077
O O2 0.048213 0.774846 0.507828
O O3 0.908933 0.783414 0.496619
O O4 0.987584 0.913789 0.528762
O O5 0.740294 0.601399 0.161863
O O6 0.606653 0.564715 0.202059
O O7 0.719320 0.464620 0.222312
O O8 0.754981 0.750000 0.625000
O O9 0.798475 0.695601 0.493189
O O10 0.658992 0.702504 0.528518
O O11 0.394642 0.750000 0.125000
O O12 0.470003 0.864427 0.048360
O O13 0.337143 0.828950 0.016401
O O14 0.646240 0.066026 0.551693
O O15 0.500000 0.000000 0.515641
O O16 0.638979 0.763321 0.864243
#
# Coordination Sequence:
#
# PCOD9561583 Si02
#       8
#    16  16  16  16  16   4  16  16
#     4  10  25  37  53  90 128 170 208 254 315 381
#     4  10  23  39  62  87 128 161 215 263 322 391
#     4  11  23  40  67  92 123 165 212 272 321 382
#     4  11  23  36  58  86 126 169 219 253 310 392
#     4  10  20  38  61  89 122 166 209 264 319 381
#     4  12  28  32  60  88 144 172 212 248 314 380
#     4   9  22  40  61  89 125 166 213 260 322 392
#     4  11  22  41  65  87 122 170 212 265 329 384
#
# _framework density 9.9451300000000007
#
# number of rings (size 3 to 8) (size 9 to 14) (size 15 to 20)
#    0.000    1.655    1.379    2.069   10.621    3.862 
#    0.000    2.759    0.000    0.000    0.000    0.000 
#    0.000    0.000    0.000    0.000    0.000    0.000 
#
# Total GULP energy -322877.051205 kJ/mol
# GULP energy per Si atom -5566.845710 kJ/mol
# Density = 0.992249 g / cm^3
# Si number density = 9.945130 Si / 1000 Ang^3
#
#
#
# Elastic Constant Matrix: (Units=GPa)
#
#
# Indices 1 2 3 4 5 6 
#
# 1 112.9793 14.5585 -3.8240 0.0000 0.0000 0.0000
# 2 14.5585 112.9793 -3.8240 0.0000 0.0000 0.0000
# 3 -3.8240 -3.8240 16.1119 0.0000 0.0000 0.0000
# 4 0.0000 0.0000 0.0000 23.3869 0.0000 0.0000
# 5 0.0000 0.0000 0.0000 0.0000 23.3869 0.0000
# 6 0.0000 0.0000 0.0000 0.0000 0.0000 38.4090
#
#
#
# Elastic Compliance Matrix: (Units=1/GPa)
#
#
# Indices 1 2 3 4 5 6 
#
# 1 0.009057 -0.001103 0.001888 0.000000 0.000000 0.000000
# 2 -0.001103 0.009057 0.001888 0.000000 0.000000 0.000000
# 3 0.001888 0.001888 0.062962 0.000000 0.000000 0.000000
# 4 0.000000 0.000000 0.000000 0.042759 0.000000 0.000000
# 5 0.000000 0.000000 0.000000 0.000000 0.042759 0.000000
# 6 0.000000 0.000000 0.000000 0.000000 0.000000 0.026036
#
#
# Mechanical properties :
#
#
# Convention : Reuss Voigt Hill
#
# Bulk Modulus (GPa) = 11.57126 28.43241 20.00183
# Shear Modulus (GPa) = 23.13829 32.71389 27.92609
#
# Velocity S-wave (km/s) = 3.41441 4.05991 3.75107
# Velocity P-wave (km/s) = 4.62325 6.02519 5.37017
#
# Compressibility (1/GPa) = 0.08642102
#
# Stress axis : x y z
#
# Youngs Moduli (GPa) = 110.40895 110.40894 15.88263
#
# Poissons Ratio (x) = 0.12181 -0.02998
# Poissons Ratio (y) = 0.12181 -0.02998
# Poissons Ratio (z) = -0.20843 -0.20843
#
# Static dielectric constant tensor:
#      x y z
#    x 1.740860 0.000000 0.000000 
#    y 0.000000 1.740860 0.000000 
#    z 0.000000 0.000000 1.771780 
# 
# From -- ./inp_files/6467.got.cif
#   From: 2010.05.17/outbox.ucp.g08.bks.cvg/sg122_4_cif.got.tgz:6467.got - 2010.06.11 11:35:26.
