data_PCOD9561613
_publ_section_title
;
Structure prediction by ZEFSAII (Michael W. Deem and Ramdas Pophale) SiO2 
 PCOD9561613
Probable space group: P 4/M M M
;
_chemical_formula_sum "Si O2"
_cell_formula_units_Z 64
_cell_length_a 17.968814
_cell_length_b 17.968814
_cell_length_c 12.242423
_cell_angle_alpha 90.000000
_cell_angle_beta 90.000000
_cell_angle_gamma 90.000000
_cell_volume 3952.812439
_symmetry_space_group_name_H-M "P 4/M M M"
_symmetry_group_IT_number 123
_symmetry_cell_setting 'tetragonal'
loop_
_space_group_symop_operation_xyz
x,y,z
-y,x,z
-x,-y,z
y,-x,z
x,-y,-z
-x,y,-z
y,x,-z
-y,-x,-z
-x,-y,-z
y,-x,-z
x,y,-z
-y,x,-z
-x,y,z
x,-y,z
-y,-x,z
y,x,z
loop_
_atom_site_type_symbol
_atom_site_label
_atom_site_fract_x
_atom_site_fract_y
_atom_site_fract_z
Si Si1 0.913650 0.790222 0.764936
Si Si2 0.289486 0.413889 0.765395
Si Si3 0.813957 0.313831 0.374929
Si Si4 0.915212 0.715573 0.000000
Si Si5 0.360577 0.762287 0.000000
O O1 0.861860 0.861860 0.746314
O O2 0.881459 0.723161 0.691253
O O3 0.906296 0.764513 0.890831
O O4 0.000000 0.804539 0.741690
O O5 0.304513 0.500000 0.744389
O O6 0.361687 0.361687 0.748058
O O7 0.223782 0.381813 0.689143
O O8 0.263731 0.401545 0.890561
O O9 0.832694 0.331494 0.500000
O O10 0.750155 0.249846 0.375419
O O11 0.849919 0.655039 0.000000
O O12 0.000000 0.685820 0.000000
O O13 0.280692 0.719309 0.000000
#
# Coordination Sequence:
#
# PCOD9561613 Si02
#       5
#    16  16  16   8   8
#     4  10  19  31  50  76 105 136 170 210 255 302
#     4  10  20  33  53  79 105 133 164 203 252 306
#     4   9  18  33  52  72  95 130 177 217 244 284
#     4  10  18  29  51  78 103 132 169 212 253 293
#     4  10  17  31  53  74 102 137 176 211 241 294
#
# _framework density 16.191005000000001
#
# number of rings (size 3 to 8) (size 9 to 14) (size 15 to 20)
#    0.000    2.250    2.500    1.500    0.000    1.500 
#    0.000    0.000    0.000    8.250    0.000    8.750 
#    0.000    0.000    0.000    0.000    0.000    0.000 
#
# Total GULP energy -356808.802540 kJ/mol
# GULP energy per Si atom -5575.137540 kJ/mol
# Density = 1.615415 g / cm^3
# Si number density = 16.191005 Si / 1000 Ang^3
#
#
#
# Elastic Constant Matrix: (Units=GPa)
#
#
# Indices 1 2 3 4 5 6 
#
# 1 102.0593 59.6225 43.2177 0.0000 0.0000 0.0000
# 2 59.6225 102.0590 43.2178 0.0000 0.0000 0.0000
# 3 43.2177 43.2178 121.1975 0.0000 0.0000 0.0000
# 4 0.0000 0.0000 0.0000 0.7634 0.0000 0.0000
# 5 0.0000 0.0000 0.0000 0.0000 0.7631 0.0000
# 6 0.0000 0.0000 0.0000 0.0000 0.0000 13.4497
#
#
#
# Elastic Compliance Matrix: (Units=1/GPa)
#
#
# Indices 1 2 3 4 5 6 
#
# 1 0.015603 -0.007961 -0.002725 0.000000 0.000000 0.000000
# 2 -0.007961 0.015603 -0.002725 0.000000 0.000000 0.000000
# 3 -0.002725 -0.002725 0.010194 0.000000 0.000000 0.000000
# 4 0.000000 0.000000 0.000000 1.309998 0.000000 0.000000
# 5 0.000000 0.000000 0.000000 0.000000 1.310469 0.000000
# 6 0.000000 0.000000 0.000000 0.000000 0.000000 0.074351
#
#
# Mechanical properties :
#
#
# Convention : Reuss Voigt Hill
#
# Bulk Modulus (GPa) = 68.59636 68.60354 68.59995
# Shear Modulus (GPa) = 1.80642 14.94575 8.37608
#
# Velocity S-wave (km/s) = 1.05741 3.04153 2.27696
# Velocity P-wave (km/s) = 6.62946 7.40256 7.02665
#
# Compressibility (1/GPa) = 0.01457803
#
# Stress axis : x y z
#
# Youngs Moduli (GPa) = 64.08967 64.08947 98.09320
#
# Poissons Ratio (x) = 0.51024 0.26730
# Poissons Ratio (y) = 0.51024 0.26730
# Poissons Ratio (z) = 0.17464 0.17464
#
# Static dielectric constant tensor:
#      x y z
#    x 1.526800 0.000000 0.000000 
#    y 0.000000 1.526800 0.000000 
#    z 0.000000 0.000000 1.550300 
# 
# From -- ./inp_files/2633.got.cif
#   From: 2010.05.17/outbox.cif.g08.bks.cpg/sg123_2_cif.got.tgz:2633.got - 2010.05.20 11:43:04.
