data_PCOD9561485
_publ_section_title
;
Structure prediction by ZEFSAII (Michael W. Deem and Ramdas Pophale) SiO2 
 PCOD9561485
Probable space group: I -4 2 D
;
_chemical_formula_sum "Si O2"
_cell_formula_units_Z 52
_cell_length_a 13.956536
_cell_length_b 13.956536
_cell_length_c 11.597671
_cell_angle_alpha 90.000000
_cell_angle_beta 90.000000
_cell_angle_gamma 90.000000
_cell_volume 2259.051153
_symmetry_space_group_name_H-M "I -4 2 D"
_symmetry_group_IT_number 122
_symmetry_cell_setting 'tetragonal'
loop_
_space_group_symop_operation_xyz
x,y,z
y,-x,-z
-x,-y,z
-y,x,-z
x,1/2-y,1/4-z
-x,1/2+y,1/4-z
-y,1/2-x,1/4+z
y,1/2+x,1/4+z
1/2+x,1/2+y,1/2+z
1/2+y,1/2-x,1/2-z
1/2-x,1/2-y,1/2+z
1/2-y,1/2+x,1/2-z
1/2+x,-y,3/4-z
1/2-x,y,3/4-z
1/2-y,-x,3/4+z
1/2+y,x,3/4+z
loop_
_atom_site_type_symbol
_atom_site_label
_atom_site_fract_x
_atom_site_fract_y
_atom_site_fract_z
Si Si1 0.913078 0.259046 0.961091
Si Si2 0.162590 0.129040 0.459555
Si Si3 0.000000 0.500000 0.750000
Si Si4 0.328831 0.610147 0.613272
O O1 0.888515 0.305426 0.839519
O O2 0.005709 0.190002 0.941093
O O3 0.832237 0.186878 0.009453
O O4 0.914656 0.347093 0.054948
O O5 0.250000 0.113888 0.375000
O O6 0.079787 0.054404 0.427521
O O7 0.123404 0.235149 0.441620
#
# Coordination Sequence:
#
# PCOD9561485 Si02
#       4
#    16  16   4  16
#     4  11  26  49  78 112 157 206 272 329 413 489
#     4  12  26  47  78 112 155 197 258 330 399 486
#     4  12  28  48  76 120 142 212 260 312 408 478
#     4  11  26  49  77 111 154 213 258 334 414 485
#
# _framework density 23.018515000000001
#
# number of rings (size 3 to 8) (size 9 to 14) (size 15 to 20)
#    0.000    0.615    6.154    0.923    4.308    5.538 
#    0.000    0.000    0.000    0.000    0.000    0.000 
#    0.000    0.000    0.000    0.000    0.000    0.000 
#
# Total GULP energy -145099.732926 kJ/mol
# GULP energy per Si atom -5580.758959 kJ/mol
# Density = 2.296612 g / cm^3
# Si number density = 23.018515 Si / 1000 Ang^3
#
#
#
# Elastic Constant Matrix: (Units=GPa)
#
#
# Indices 1 2 3 4 5 6 
#
# 1 71.6590 -12.6876 25.3844 0.0000 0.0000 0.0000
# 2 -12.6876 71.6590 25.3844 0.0000 0.0000 0.0000
# 3 25.3844 25.3844 116.0299 0.0000 0.0000 0.0000
# 4 0.0000 0.0000 0.0000 17.4803 0.0000 0.0000
# 5 0.0000 0.0000 0.0000 0.0000 17.4803 0.0000
# 6 0.0000 0.0000 0.0000 0.0000 0.0000 33.8866
#
#
#
# Elastic Compliance Matrix: (Units=1/GPa)
#
#
# Indices 1 2 3 4 5 6 
#
# 1 0.016374 0.004518 -0.004571 0.000000 0.000000 0.000000
# 2 0.004518 0.016374 -0.004571 0.000000 0.000000 0.000000
# 3 -0.004571 -0.004571 0.010618 0.000000 0.000000 0.000000
# 4 0.000000 0.000000 0.000000 0.057207 0.000000 0.000000
# 5 0.000000 0.000000 0.000000 0.000000 0.057207 0.000000
# 6 0.000000 0.000000 0.000000 0.000000 0.000000 0.029510
#
#
# Mechanical properties :
#
#
# Convention : Reuss Voigt Hill
#
# Bulk Modulus (GPa) = 29.30816 37.27890 33.29353
# Shear Modulus (GPa) = 24.04875 28.52056 26.28465
#
# Velocity S-wave (km/s) = 3.23578 3.52380 3.38285
# Velocity P-wave (km/s) = 5.16918 5.72596 5.45468
#
# Compressibility (1/GPa) = 0.03412019
#
# Stress axis : x y z
#
# Youngs Moduli (GPa) = 61.07213 61.07213 94.17637
#
# Poissons Ratio (x) = -0.27594 0.43045
# Poissons Ratio (y) = -0.27594 0.43045
# Poissons Ratio (z) = 0.27914 0.27914
#
# Static dielectric constant tensor:
#      x y z
#    x 1.921390 0.000000 0.000000 
#    y 0.000000 1.921390 0.000000 
#    z 0.000000 0.000000 1.850870 
# 
# From -- ./inp_files/3960.got.cif
#   From: 2010.05.17/outbox.cif.g08.bks.cpg/sg122_2_cif.got.tgz:3960.got - 2010.05.20 11:37:33.
