data_PCOD9561606
_publ_section_title
;
Structure prediction by ZEFSAII (Michael W. Deem and Ramdas Pophale) SiO2 
 PCOD9561606
Probable space group: P 4/M M M
;
_chemical_formula_sum "Si O2"
_cell_formula_units_Z 64
_cell_length_a 20.473231
_cell_length_b 20.473231
_cell_length_c 8.358351
_cell_angle_alpha 90.000000
_cell_angle_beta 90.000000
_cell_angle_gamma 90.000000
_cell_volume 3503.429465
_symmetry_space_group_name_H-M "P 4/M M M"
_symmetry_group_IT_number 123
_symmetry_cell_setting 'tetragonal'
loop_
_space_group_symop_operation_xyz
x,y,z
-y,x,z
-x,-y,z
y,-x,z
x,-y,-z
-x,y,-z
y,x,-z
-y,-x,-z
-x,-y,-z
y,-x,-z
x,y,-z
-y,x,-z
-x,y,z
x,-y,z
-y,-x,z
y,x,z
loop_
_atom_site_type_symbol
_atom_site_label
_atom_site_fract_x
_atom_site_fract_y
_atom_site_fract_z
Si Si1 0.354903 0.749055 0.195539
Si Si2 0.500000 0.608738 0.682922
Si Si3 0.757310 0.000000 0.678987
Si Si4 0.500000 0.255438 0.183089
Si Si5 0.752672 0.856033 0.192098
Si Si6 0.108918 0.000000 0.820539
O O1 0.318226 0.681775 0.245826
O O2 0.428710 0.760800 0.254743
O O3 0.306194 0.807772 0.240118
O O4 0.357806 0.746819 0.000000
O O5 0.437579 0.562422 0.700435
O O6 0.500000 0.634900 0.500000
O O7 0.500000 0.666137 0.808713
O O8 0.740577 0.930113 0.755851
O O9 0.732472 0.000000 0.500000
O O10 0.835894 0.000000 0.690396
O O11 0.500000 0.231302 0.000000
O O12 0.820050 0.820050 0.248060
O O13 0.755490 0.855859 0.000000
O O14 0.062374 0.937627 0.810343
O O15 0.139315 0.000000 0.000000
#
# Coordination Sequence:
#
# PCOD9561606 Si02
#       6
#    16   8   8   8  16   8
#     4   8  15  28  47  73 101 126 155 194 237 281
#     4   9  18  30  40  56  91 135 169 192 220 271
#     4  12  23  31  45  71  97 118 150 200 249 282
#     4  10  17  27  49  77  99 118 150 200 251 288
#     4   9  18  34  53  69  91 128 167 194 224 280
#     4   9  18  32  48  66  91 125 159 182 210 271
#
# _framework density 18.267816
#
# number of rings (size 3 to 8) (size 9 to 14) (size 15 to 20)
#    0.000    2.750    0.000    4.875    0.000    5.500 
#    0.000    2.500    0.000    2.250    0.000    5.250 
#    0.000    0.000    0.000    0.000    0.000    0.000 
#
# Total GULP energy -356390.897092 kJ/mol
# GULP energy per Si atom -5568.607767 kJ/mol
# Density = 1.822624 g / cm^3
# Si number density = 18.267816 Si / 1000 Ang^3
#
#
#
# Elastic Constant Matrix: (Units=GPa)
#
#
# Indices 1 2 3 4 5 6 
#
# 1 118.2457 46.1289 11.3702 0.0000 0.0000 0.0000
# 2 46.1289 118.2457 11.3702 0.0000 0.0000 0.0000
# 3 11.3702 11.3702 13.9433 0.0000 0.0000 0.0000
# 4 0.0000 0.0000 0.0000 -9.3399 0.0000 0.0000
# 5 0.0000 0.0000 0.0000 0.0000 -9.3399 0.0000
# 6 0.0000 0.0000 0.0000 0.0000 0.0000 15.3652
#
#
#
# Elastic Compliance Matrix: (Units=1/GPa)
#
#
# Indices 1 2 3 4 5 6 
#
# 1 0.010362 -0.003505 -0.005592 0.000000 0.000000 0.000000
# 2 -0.003505 0.010362 -0.005592 0.000000 0.000000 0.000000
# 3 -0.005592 -0.005592 0.080839 0.000000 0.000000 0.000000
# 4 0.000000 0.000000 0.000000 -0.107068 0.000000 0.000000
# 5 0.000000 0.000000 0.000000 0.000000 -0.107068 0.000000
# 6 0.000000 0.000000 0.000000 0.000000 0.000000 0.065082
#
#
# Mechanical properties :
#
#
# Convention : Reuss Voigt Hill
#
# Bulk Modulus (GPa) = 13.85308 43.13037 28.49172
# Shear Modulus (GPa) = 840.68694 11.44145 426.06419
#
# Velocity S-wave (km/s) = 21.47557 2.50535 15.28851
# Velocity P-wave (km/s) = 24.95062 5.65953 18.09093
#
# Compressibility (1/GPa) = 0.07218612
#
# Stress axis : x y z
#
# Youngs Moduli (GPa) = 96.50808 96.50808 12.37029
#
# Poissons Ratio (x) = 0.33822 0.06917
# Poissons Ratio (y) = 0.33822 0.06917
# Poissons Ratio (z) = 0.53966 0.53966
#
# Static dielectric constant tensor:
#      x y z
#    x 1.648050 0.000000 0.000000 
#    y 0.000000 1.648050 0.000000 
#    z 0.000000 0.000000 1.669310 
# 
# From -- ./inp_files/1006.got.cif
#   From: 2010.05.17/outbox.cif.g08.bks.cpg/sg123_1_cif.got.tgz:1006.got - 2010.05.20 11:43:04.
