data_PCOD9561913
_publ_section_title
;
Structure prediction by ZEFSAII (Michael W. Deem and Ramdas Pophale) SiO2 
 PCOD9561913
Probable space group: P 4/M M M
;
_chemical_formula_sum "Si O2"
_cell_formula_units_Z 80
_cell_length_a 12.783183
_cell_length_b 12.783183
_cell_length_c 29.987687
_cell_angle_alpha 90.000000
_cell_angle_beta 90.000000
_cell_angle_gamma 90.000000
_cell_volume 4900.280964
_symmetry_space_group_name_H-M "P 4/M M M"
_symmetry_group_IT_number 123
_symmetry_cell_setting 'tetragonal'
loop_
_space_group_symop_operation_xyz
x,y,z
-y,x,z
-x,-y,z
y,-x,z
x,-y,-z
-x,y,-z
y,x,-z
-y,-x,-z
-x,-y,-z
y,-x,-z
x,y,-z
-y,x,-z
-x,y,z
x,-y,z
-y,-x,z
y,x,z
loop_
_atom_site_type_symbol
_atom_site_label
_atom_site_fract_x
_atom_site_fract_y
_atom_site_fract_z
Si Si1 0.799435 0.623938 0.812760
Si Si2 0.113534 0.710660 0.000000
Si Si3 0.000000 0.626837 0.652533
Si Si4 0.000000 0.627000 0.245315
Si Si5 0.703259 0.124991 0.500000
Si Si6 0.793510 0.618849 0.085364
Si Si7 0.376503 0.202412 0.594721
O O1 0.775691 0.500000 0.805366
O O2 0.698438 0.698438 0.806891
O O3 0.894445 0.656877 0.780771
O O4 0.835797 0.633709 0.864452
O O5 0.129505 0.643971 0.955147
O O6 0.201101 0.798900 0.000000
O O7 0.000000 0.759398 0.000000
O O8 0.105628 0.656678 0.626419
O O9 0.000000 0.500000 0.652766
O O10 0.000000 0.663343 0.703587
O O11 0.000000 0.500000 0.245543
O O12 0.814419 0.185582 0.500000
O O13 0.643011 0.162950 0.455782
O O14 0.713275 0.000000 0.500000
O O15 0.757987 0.500000 0.081697
O O16 0.696109 0.696109 0.080743
O O17 0.500000 0.223906 0.601340
O O18 0.303070 0.303070 0.602389
#
# Coordination Sequence:
#
# PCOD9561913 Si02
#       7
#    16   8   8   8   8  16  16
#     4   9  18  32  51  75 102 132 166 205 250 301
#     4  10  21  34  48  68  94 124 161 202 242 286
#     4   9  18  33  52  72  97 132 175 214 249 300
#     4   9  18  32  51  74  98 129 167 210 258 301
#     4  10  19  32  52  78 108 143 180 217 256 298
#     4   9  18  31  47  71 100 128 159 193 234 287
#     4  10  20  33  52  78 107 139 174 212 255 304
#
# _framework density 16.325596000000001
#
# number of rings (size 3 to 8) (size 9 to 14) (size 15 to 20)
#    0.000    2.600    1.000    0.600    1.400    2.800 
#    0.000    2.000    0.000    4.200    0.000    7.000 
#    0.000    0.000    0.000    0.000    0.000    0.000 
#
# Total GULP energy -445583.087404 kJ/mol
# GULP energy per Si atom -5569.788593 kJ/mol
# Density = 1.628844 g / cm^3
# Si number density = 16.325596 Si / 1000 Ang^3
#
#
#
# Elastic Constant Matrix: (Units=GPa)
#
#
# Indices 1 2 3 4 5 6 
#
# 1 93.6037 37.2524 51.8706 0.0000 0.0000 0.0000
# 2 37.2524 93.6001 51.8699 0.0000 0.0000 0.0000
# 3 51.8706 51.8699 125.2693 0.0000 0.0000 0.0000
# 4 0.0000 0.0000 0.0000 14.5528 0.0000 0.0000
# 5 0.0000 0.0000 0.0000 0.0000 14.5531 0.0000
# 6 0.0000 0.0000 0.0000 0.0000 0.0000 7.7196
#
#
#
# Elastic Compliance Matrix: (Units=1/GPa)
#
#
# Indices 1 2 3 4 5 6 
#
# 1 0.014561 -0.003185 -0.004711 0.000000 0.000000 0.000000
# 2 -0.003185 0.014562 -0.004711 0.000000 0.000000 0.000000
# 3 -0.004711 -0.004711 0.011884 0.000000 0.000000 0.000000
# 4 0.000000 0.000000 0.000000 0.068715 0.000000 0.000000
# 5 0.000000 0.000000 0.000000 0.000000 0.068714 0.000000
# 6 0.000000 0.000000 0.000000 0.000000 0.000000 0.129541
#
#
# Mechanical properties :
#
#
# Convention : Reuss Voigt Hill
#
# Bulk Modulus (GPa) = 63.31352 66.05095 64.68223
# Shear Modulus (GPa) = 14.77304 18.79711 16.78507
#
# Velocity S-wave (km/s) = 3.01142 3.39689 3.20995
# Velocity P-wave (km/s) = 7.13845 7.47874 7.31057
#
# Compressibility (1/GPa) = 0.01579442
#
# Stress axis : x y z
#
# Youngs Moduli (GPa) = 68.67533 68.67244 84.14687
#
# Poissons Ratio (x) = 0.21871 0.39639
# Poissons Ratio (y) = 0.21872 0.39640
# Poissons Ratio (z) = 0.32351 0.32351
#
# Static dielectric constant tensor:
#      x y z
#    x 1.523600 0.000000 0.000000 
#    y 0.000000 1.523600 0.000000 
#    z 0.000000 0.000000 1.572990 
# 
# From -- ./inp_files/8427.got.cif
#   From: 2010.05.17/outbox.cif.g08.bks.cpg/sg123_5_cif.got.tgz:8427.got - 2010.05.20 11:43:04.
