data_PCOD9561072
_publ_section_title
;
Structure prediction by ZEFSAII (Michael W. Deem and Ramdas Pophale) SiO2 
 PCOD9561072
Probable space group: I -4 2 D
;
_chemical_formula_sum "Si O2"
_cell_formula_units_Z 52
_cell_length_a 18.687945
_cell_length_b 18.687945
_cell_length_c 7.048229
_cell_angle_alpha 90.000000
_cell_angle_beta 90.000000
_cell_angle_gamma 90.000000
_cell_volume 2461.518480
_symmetry_space_group_name_H-M "I -4 2 D"
_symmetry_group_IT_number 122
_symmetry_cell_setting 'tetragonal'
loop_
_space_group_symop_operation_xyz
x,y,z
y,-x,-z
-x,-y,z
-y,x,-z
x,1/2-y,1/4-z
-x,1/2+y,1/4-z
-y,1/2-x,1/4+z
y,1/2+x,1/4+z
1/2+x,1/2+y,1/2+z
1/2+y,1/2-x,1/2-z
1/2-x,1/2-y,1/2+z
1/2-y,1/2+x,1/2-z
1/2+x,-y,3/4-z
1/2-x,y,3/4-z
1/2-y,-x,3/4+z
1/2+y,x,3/4+z
loop_
_atom_site_type_symbol
_atom_site_label
_atom_site_fract_x
_atom_site_fract_y
_atom_site_fract_z
Si Si1 0.000000 0.000000 0.500000
Si Si2 0.345680 0.491582 0.046214
Si Si3 0.473900 0.190408 0.865067
Si Si4 0.611711 0.328961 0.647161
O O1 0.015163 0.074573 0.393933
O O2 0.276372 0.532876 0.124116
O O3 0.337789 0.412143 0.133274
O O4 0.337617 0.499249 0.820670
O O5 0.536825 0.171719 0.718919
O O6 0.396666 0.156557 0.831304
O O7 0.644549 0.250000 0.625000
#
# Coordination Sequence:
#
# PCOD9561072 Si02
#       4
#     4  16  16  16
#     4  12  20  36  70  84 112 162 200 236 298 356
#     4  10  22  38  59  90 120 151 202 250 292 364
#     4  10  22  38  61  88 123 155 200 250 305 358
#     4  10  22  38  61  87 120 156 198 251 301 358
#
# _framework density 21.125173
#
# number of rings (size 3 to 8) (size 9 to 14) (size 15 to 20)
#    0.000    1.846    3.077    0.000    4.308    0.615 
#    0.000    0.000   27.077    0.000    0.000    0.000 
#    0.000    0.000    0.000    0.000    0.000    0.000 
#
# Total GULP energy -144932.899842 kJ/mol
# GULP energy per Si atom -5574.342302 kJ/mol
# Density = 2.107709 g / cm^3
# Si number density = 21.125173 Si / 1000 Ang^3
#
#
#
# Elastic Constant Matrix: (Units=GPa)
#
#
# Indices 1 2 3 4 5 6 
#
# 1 147.5232 51.2509 20.1951 0.0000 0.0000 0.0000
# 2 51.2509 147.5232 20.1951 0.0000 0.0000 0.0000
# 3 20.1951 20.1951 66.2361 0.0000 0.0000 0.0000
# 4 0.0000 0.0000 0.0000 13.2063 0.0000 0.0000
# 5 0.0000 0.0000 0.0000 0.0000 13.2063 0.0000
# 6 0.0000 0.0000 0.0000 0.0000 0.0000 32.9340
#
#
#
# Elastic Compliance Matrix: (Units=1/GPa)
#
#
# Indices 1 2 3 4 5 6 
#
# 1 0.007875 -0.002512 -0.001635 0.000000 0.000000 0.000000
# 2 -0.002512 0.007875 -0.001635 0.000000 0.000000 0.000000
# 3 -0.001635 -0.001635 0.016095 0.000000 0.000000 0.000000
# 4 0.000000 0.000000 0.000000 0.075721 0.000000 0.000000
# 5 0.000000 0.000000 0.000000 0.000000 0.075721 0.000000
# 6 0.000000 0.000000 0.000000 0.000000 0.000000 0.030364
#
#
# Mechanical properties :
#
#
# Convention : Reuss Voigt Hill
#
# Bulk Modulus (GPa) = 49.30942 60.50715 54.90828
# Shear Modulus (GPa) = 21.55397 29.84544 25.69970
#
# Velocity S-wave (km/s) = 3.19768 3.76279 3.49168
# Velocity P-wave (km/s) = 6.08488 6.89801 6.50416
#
# Compressibility (1/GPa) = 0.02028010
#
# Stress axis : x y z
#
# Youngs Moduli (GPa) = 126.98167 126.98167 62.13253
#
# Poissons Ratio (x) = 0.31898 0.10160
# Poissons Ratio (y) = 0.31898 0.10160
# Poissons Ratio (z) = 0.20764 0.20764
#
# Static dielectric constant tensor:
#      x y z
#    x 1.782930 0.000000 0.000000 
#    y 0.000000 1.782930 0.000000 
#    z 0.000000 0.000000 1.857010 
# 
# From -- ./inp_files/2159.got.cif
#   From: 2010.05.17/outbox.cif.g08.bks.cpg/sg122_2_cif.got.tgz:2159.got - 2010.05.20 11:37:33.
