data_PCOD9561224
_publ_section_title
;
Structure prediction by ZEFSAII (Michael W. Deem and Ramdas Pophale) SiO2 
 PCOD9561224
Probable space group: I -4 2 D
;
_chemical_formula_sum "Si O2"
_cell_formula_units_Z 112
_cell_length_a 14.232188
_cell_length_b 14.232188
_cell_length_c 20.071720
_cell_angle_alpha 90.000000
_cell_angle_beta 90.000000
_cell_angle_gamma 90.000000
_cell_volume 4065.630763
_symmetry_space_group_name_H-M "I -4 2 D"
_symmetry_group_IT_number 122
_symmetry_cell_setting 'tetragonal'
loop_
_space_group_symop_operation_xyz
x,y,z
y,-x,-z
-x,-y,z
-y,x,-z
x,1/2-y,1/4-z
-x,1/2+y,1/4-z
-y,1/2-x,1/4+z
y,1/2+x,1/4+z
1/2+x,1/2+y,1/2+z
1/2+y,1/2-x,1/2-z
1/2-x,1/2-y,1/2+z
1/2-y,1/2+x,1/2-z
1/2+x,-y,3/4-z
1/2-x,y,3/4-z
1/2-y,-x,3/4+z
1/2+y,x,3/4+z
loop_
_atom_site_type_symbol
_atom_site_label
_atom_site_fract_x
_atom_site_fract_y
_atom_site_fract_z
Si Si1 0.042303 0.668495 0.552358
Si Si2 0.291780 0.776664 0.199489
Si Si3 0.381785 0.655293 0.550620
Si Si4 0.338549 0.949639 0.905995
Si Si5 0.962575 0.319415 0.340147
Si Si6 0.143712 0.537178 0.757496
Si Si7 0.126842 0.472581 0.550849
O O1 0.135329 0.708346 0.511708
O O2 0.088386 0.570448 0.583471
O O3 0.000119 0.778260 0.559924
O O4 0.947634 0.609514 0.534695
O O5 0.324527 0.750000 0.125000
O O6 0.185433 0.744529 0.204983
O O7 0.303008 0.885143 0.214581
O O8 0.465732 0.658103 0.602777
O O9 0.316983 0.572827 0.578294
O O10 0.419953 0.635709 0.477236
O O11 0.250000 0.892293 0.875000
O O12 0.432125 0.888437 0.898154
O O13 0.332418 0.991828 0.979356
O O14 0.930728 0.212539 0.342977
O O15 0.096979 0.447956 0.720332
#
# Coordination Sequence:
#
# PCOD9561224 Si02
#       7
#    16  16  16  16  16  16  16
#     4  10  23  44  68  97 141 184 234 304 369 431
#     4  11  24  42  72 103 135 180 244 302 368 445
#     4  12  23  40  64 102 145 190 236 301 372 445
#     4  12  26  42  66 105 144 193 251 292 367 469
#     4  12  24  42  67 100 149 193 233 307 376 441
#     4   9  20  42  71 101 127 180 239 294 364 437
#     4  11  24  46  69 101 147 193 238 303 376 447
#
# _framework density 27.548003000000001
#
# number of rings (size 3 to 8) (size 9 to 14) (size 15 to 20)
#    0.000    1.000    4.286    1.714    6.000    0.000 
#    0.000    6.429    3.143    0.000    0.000    0.000 
#    0.000    0.000    0.000    0.000    0.000    0.000 
#
# Total GULP energy -312409.128597 kJ/mol
# GULP energy per Si atom -5578.734439 kJ/mol
# Density = 2.748530 g / cm^3
# Si number density = 27.548003 Si / 1000 Ang^3
#
#
#
# Elastic Constant Matrix: (Units=GPa)
#
#
# Indices 1 2 3 4 5 6 
#
# 1 177.0481 43.1074 20.6732 0.0000 0.0000 0.0000
# 2 43.1074 177.0481 20.6732 0.0000 0.0000 0.0000
# 3 20.6732 20.6732 59.1994 0.0000 0.0000 0.0000
# 4 0.0000 0.0000 0.0000 -53.4559 0.0000 0.0000
# 5 0.0000 0.0000 0.0000 0.0000 -53.4559 0.0000
# 6 0.0000 0.0000 0.0000 0.0000 0.0000 57.1595
#
#
#
# Elastic Compliance Matrix: (Units=1/GPa)
#
#
# Indices 1 2 3 4 5 6 
#
# 1 0.006164 -0.001302 -0.001698 0.000000 0.000000 0.000000
# 2 -0.001302 0.006164 -0.001698 0.000000 0.000000 0.000000
# 3 -0.001698 -0.001698 0.018078 0.000000 0.000000 0.000000
# 4 0.000000 0.000000 0.000000 -0.018707 0.000000 0.000000
# 5 0.000000 0.000000 0.000000 0.000000 -0.018707 0.000000
# 6 0.000000 0.000000 0.000000 0.000000 0.000000 0.017495
#
#
# Mechanical properties :
#
#
# Convention : Reuss Voigt Hill
#
# Bulk Modulus (GPa) = 47.59727 64.68925 56.14326
# Shear Modulus (GPa) = 185.98474 11.97233 98.97853
#
# Velocity S-wave (km/s) = 8.22554 2.08696 6.00062
# Velocity P-wave (km/s) = 10.36958 5.41669 8.27251
#
# Compressibility (1/GPa) = 0.02100961
#
# Stress axis : x y z
#
# Youngs Moduli (GPa) = 162.24488 162.24488 55.31682
#
# Poissons Ratio (x) = 0.21132 0.09390
# Poissons Ratio (y) = 0.21132 0.09390
# Poissons Ratio (z) = 0.27542 0.27542
#
# Static dielectric constant tensor:
#      x y z
#    x 2.593890 0.000000 0.000000 
#    y 0.000000 2.593890 0.000000 
#    z 0.000000 0.000000 2.423200 
# 
# From -- ./inp_files/8822.got.cif
#   From: 2010.05.17/outbox.cif.g08.bks.cpg/sg122_5_cif.got.tgz:8822.got - 2010.05.20 11:37:33.
