data_PCOD9561004
_publ_section_title
;
Structure prediction by ZEFSAII (Michael W. Deem and Ramdas Pophale) SiO2 
 PCOD9561004
Probable space group: I -4 2 D
;
_chemical_formula_sum "Si O2"
_cell_formula_units_Z 48
_cell_length_a 9.921383
_cell_length_b 9.921383
_cell_length_c 25.068423
_cell_angle_alpha 90.000000
_cell_angle_beta 90.000000
_cell_angle_gamma 90.000000
_cell_volume 2467.581154
_symmetry_space_group_name_H-M "I -4 2 D"
_symmetry_group_IT_number 122
_symmetry_cell_setting 'tetragonal'
loop_
_space_group_symop_operation_xyz
x,y,z
y,-x,-z
-x,-y,z
-y,x,-z
x,1/2-y,1/4-z
-x,1/2+y,1/4-z
-y,1/2-x,1/4+z
y,1/2+x,1/4+z
1/2+x,1/2+y,1/2+z
1/2+y,1/2-x,1/2-z
1/2-x,1/2-y,1/2+z
1/2-y,1/2+x,1/2-z
1/2+x,-y,3/4-z
1/2-x,y,3/4-z
1/2-y,-x,3/4+z
1/2+y,x,3/4+z
loop_
_atom_site_type_symbol
_atom_site_label
_atom_site_fract_x
_atom_site_fract_y
_atom_site_fract_z
Si Si1 0.635455 0.168170 0.471417
Si Si2 0.384941 0.842467 0.992487
Si Si3 0.096661 0.878010 0.877671
O O1 0.495316 0.167966 0.503087
O O2 0.672620 0.010096 0.467345
O O3 0.756936 0.760131 0.500785
O O4 0.104546 0.752052 0.917857
O O5 0.439644 0.829008 0.931936
O O6 0.250000 0.930504 0.875000
O O7 0.000000 0.000000 0.894579
#
# Coordination Sequence:
#
# PCOD9561004 Si02
#       3
#    16  16  16
#     4  10  22  38  64  89 126 170 208 262 321 376
#     4  10  22  42  60  95 129 163 220 262 314 396
#     4  10  21  38  63  91 126 162 214 270 312 377
#
# _framework density 19.452245999999999
#
# number of rings (size 3 to 8) (size 9 to 14) (size 15 to 20)
#    0.000    2.000    3.333    0.000    9.333    0.667 
#    0.000   20.000    0.000    0.000    0.000    0.000 
#    0.000    0.000    0.000    0.000    0.000    0.000 
#
# Total GULP energy -133758.135465 kJ/mol
# GULP energy per Si atom -5573.255644 kJ/mol
# Density = 1.940797 g / cm^3
# Si number density = 19.452246 Si / 1000 Ang^3
#
#
#
# Elastic Constant Matrix: (Units=GPa)
#
#
# Indices 1 2 3 4 5 6 
#
# 1 131.0574 78.0779 41.5326 0.0000 0.0000 0.0000
# 2 78.0779 131.0574 41.5326 0.0000 0.0000 0.0000
# 3 41.5326 41.5326 78.7456 0.0000 0.0000 0.0000
# 4 0.0000 0.0000 0.0000 19.6846 0.0000 0.0000
# 5 0.0000 0.0000 0.0000 0.0000 19.6846 0.0000
# 6 0.0000 0.0000 0.0000 0.0000 0.0000 37.2473
#
#
#
# Elastic Compliance Matrix: (Units=1/GPa)
#
#
# Indices 1 2 3 4 5 6 
#
# 1 0.012462 -0.006413 -0.003190 0.000000 0.000000 0.000000
# 2 -0.006413 0.012462 -0.003190 0.000000 0.000000 0.000000
# 3 -0.003190 -0.003190 0.016064 0.000000 0.000000 0.000000
# 4 0.000000 0.000000 0.000000 0.050801 0.000000 0.000000
# 5 0.000000 0.000000 0.000000 0.000000 0.050801 0.000000
# 6 0.000000 0.000000 0.000000 0.000000 0.000000 0.026848
#
#
# Mechanical properties :
#
#
# Convention : Reuss Voigt Hill
#
# Bulk Modulus (GPa) = 64.93179 73.68295 69.30737
# Shear Modulus (GPa) = 24.98014 27.30447 26.14230
#
# Velocity S-wave (km/s) = 3.58743 3.75062 3.66993
# Velocity P-wave (km/s) = 7.11422 7.53109 7.32562
#
# Compressibility (1/GPa) = 0.01540078
#
# Stress axis : x y z
#
# Youngs Moduli (GPa) = 80.24419 80.24419 62.24955
#
# Poissons Ratio (x) = 0.51463 0.19859
# Poissons Ratio (y) = 0.51463 0.19859
# Poissons Ratio (z) = 0.25600 0.25600
#
# Static dielectric constant tensor:
#      x y z
#    x 1.696280 0.000000 0.000000 
#    y 0.000000 1.696280 0.000000 
#    z 0.000000 0.000000 1.754480 
# 
# From -- ./inp_files/7700.got.cif
#   From: 2010.05.17/outbox.cif.g08.bks.cpg/sg122_4_cif.got.tgz:7700.got - 2010.05.20 11:37:33.
