data_PCOD9561774
_publ_section_title
;
Structure prediction by ZEFSAII (Michael W. Deem and Ramdas Pophale) SiO2 
 PCOD9561774
Probable space group: P 4/M M M
;
_chemical_formula_sum "Si O2"
_cell_formula_units_Z 96
_cell_length_a 13.981713
_cell_length_b 13.981713
_cell_length_c 31.610090
_cell_angle_alpha 90.000000
_cell_angle_beta 90.000000
_cell_angle_gamma 90.000000
_cell_volume 6179.402707
_symmetry_space_group_name_H-M "P 4/M M M"
_symmetry_group_IT_number 123
_symmetry_cell_setting 'tetragonal'
loop_
_space_group_symop_operation_xyz
x,y,z
-y,x,z
-x,-y,z
y,-x,z
x,-y,-z
-x,y,-z
y,x,-z
-y,-x,-z
-x,-y,-z
y,-x,-z
x,y,-z
-y,x,-z
-x,y,z
x,-y,z
-y,-x,z
y,x,z
loop_
_atom_site_type_symbol
_atom_site_label
_atom_site_fract_x
_atom_site_fract_y
_atom_site_fract_z
Si Si1 0.614776 0.773413 0.415318
Si Si2 0.615572 0.109616 0.500000
Si Si3 0.890893 0.616105 0.000000
Si Si4 0.111025 0.385718 0.834698
Si Si5 0.113864 0.272924 0.655488
Si Si6 0.385187 0.769297 0.917532
Si Si7 0.731407 0.887729 0.752154
O O1 0.500000 0.759774 0.414082
O O2 0.674657 0.674657 0.414499
O O3 0.641175 0.831414 0.458037
O O4 0.652144 0.838247 0.376495
O O5 0.500000 0.103912 0.500000
O O6 0.651885 0.000000 0.500000
O O7 0.834054 0.643195 0.042261
O O8 0.894719 0.500000 0.000000
O O9 0.000000 0.650965 0.000000
O O10 0.115686 0.500000 0.830709
O O11 0.176508 0.358125 0.874227
O O12 0.139208 0.339056 0.790179
O O13 0.000000 0.360644 0.843562
O O14 0.173719 0.173719 0.650636
O O15 0.127890 0.305355 0.704295
O O16 0.000000 0.261757 0.648101
O O17 0.500000 0.757918 0.918273
O O18 0.330314 0.669687 0.920007
O O19 0.826655 0.826655 0.756736
O O20 0.751305 0.000000 0.755782
#
# Coordination Sequence:
#
# PCOD9561774 Si02
#       7
#    16   8   8  16  16  16  16
#     4  10  20  33  49  70  96 126 161 199 237 279
#     4   9  17  30  49  71  93 119 151 187 228 271
#     4   9  17  30  47  65  85 109 139 177 217 254
#     4   9  17  29  45  65  88 115 149 189 229 264
#     4   9  18  31  47  69  95 123 156 193 235 284
#     4  10  19  30  45  65  90 119 148 179 216 259
#     4   9  17  29  45  66  92 119 148 184 226 275
#
# _framework density 15.535482999999999
#
# number of rings (size 3 to 8) (size 9 to 14) (size 15 to 20)
#    0.000    2.667    0.000    2.000    0.000    4.333 
#    0.000    3.333    0.000    3.000    0.000    0.000 
#    0.000   22.667    0.000    0.000    0.000    0.000 
#
# Total GULP energy -534652.773451 kJ/mol
# GULP energy per Si atom -5569.299723 kJ/mol
# Density = 1.550012 g / cm^3
# Si number density = 15.535483 Si / 1000 Ang^3
#
#
#
# Elastic Constant Matrix: (Units=GPa)
#
#
# Indices 1 2 3 4 5 6 
#
# 1 72.1626 43.9570 57.8984 0.0000 0.0000 0.0000
# 2 43.9570 72.1626 57.8984 0.0000 0.0000 0.0000
# 3 57.8984 57.8984 133.7262 0.0000 0.0000 0.0000
# 4 0.0000 0.0000 0.0000 22.5027 0.0000 0.0000
# 5 0.0000 0.0000 0.0000 0.0000 22.5027 0.0000
# 6 0.0000 0.0000 0.0000 0.0000 0.0000 17.0900
#
#
#
# Elastic Compliance Matrix: (Units=1/GPa)
#
#
# Indices 1 2 3 4 5 6 
#
# 1 0.025305 -0.010149 -0.006562 0.000000 0.000000 0.000000
# 2 -0.010149 0.025305 -0.006562 0.000000 0.000000 0.000000
# 3 -0.006562 -0.006562 0.013160 0.000000 0.000000 0.000000
# 4 0.000000 0.000000 0.000000 0.044439 0.000000 0.000000
# 5 0.000000 0.000000 0.000000 0.000000 0.044439 0.000000
# 6 0.000000 0.000000 0.000000 0.000000 0.000000 0.058514
#
#
# Mechanical properties :
#
#
# Convention : Reuss Voigt Hill
#
# Bulk Modulus (GPa) = 58.05944 66.39544 62.22744
# Shear Modulus (GPa) = 18.97911 20.30558 19.64234
#
# Velocity S-wave (km/s) = 3.49902 3.61923 3.55963
# Velocity P-wave (km/s) = 7.33331 7.76504 7.55226
#
# Compressibility (1/GPa) = 0.01722373
#
# Stress axis : x y z
#
# Youngs Moduli (GPa) = 39.51859 39.51859 75.98866
#
# Poissons Ratio (x) = 0.40109 0.49861
# Poissons Ratio (y) = 0.40109 0.49861
# Poissons Ratio (z) = 0.25931 0.25931
#
# Static dielectric constant tensor:
#      x y z
#    x 1.500190 0.000000 0.000000 
#    y 0.000000 1.500190 0.000000 
#    z 0.000000 0.000000 1.530310 
# 
# From -- ./inp_files/8146.got.cif
#   From: 2010.05.17/outbox.cif.g08.bks.cpg/sg123_5_cif.got.tgz:8146.got - 2010.05.20 11:43:04.
