data_PCOD9561602
_publ_section_title
;
Structure prediction by ZEFSAII (Michael W. Deem and Ramdas Pophale) SiO2 
 PCOD9561602
Probable space group: P 4/M M M
;
_chemical_formula_sum "Si O2"
_cell_formula_units_Z 104
_cell_length_a 18.119914
_cell_length_b 18.119914
_cell_length_c 22.738884
_cell_angle_alpha 90.000000
_cell_angle_beta 90.000000
_cell_angle_gamma 90.000000
_cell_volume 7465.886966
_symmetry_space_group_name_H-M "P 4/M M M"
_symmetry_group_IT_number 123
_symmetry_cell_setting 'tetragonal'
loop_
_space_group_symop_operation_xyz
x,y,z
-y,x,z
-x,-y,z
y,-x,z
x,-y,-z
-x,y,-z
y,x,-z
-y,-x,-z
-x,-y,-z
y,-x,-z
x,y,-z
-y,x,-z
-x,y,z
x,-y,z
-y,-x,z
y,x,z
loop_
_atom_site_type_symbol
_atom_site_label
_atom_site_fract_x
_atom_site_fract_y
_atom_site_fract_z
Si Si1 0.353117 0.765491 0.566615
Si Si2 0.585357 0.864276 0.260636
Si Si3 0.911048 0.645119 0.139327
Si Si4 0.412045 0.915891 0.391499
Si Si5 0.913444 0.208265 0.930400
Si Si6 0.910089 0.500000 0.932035
Si Si7 0.416786 0.296610 0.315185
O O1 0.377300 0.749562 0.500000
O O2 0.271725 0.728276 0.573194
O O3 0.363385 0.852677 0.577986
O O4 0.401676 0.727106 0.617158
O O5 0.500000 0.880466 0.244176
O O6 0.635956 0.884074 0.205893
O O7 0.600206 0.907792 0.321240
O O8 0.591382 0.778484 0.278131
O O9 0.889858 0.721033 0.107615
O O10 0.885976 0.573893 0.101771
O O11 0.000000 0.643184 0.139973
O O12 0.500000 0.900315 0.401372
O O13 0.397685 0.000000 0.410073
O O14 0.861616 0.138385 0.918537
O O15 0.000000 0.192682 0.918765
O O16 0.907505 0.226303 0.000000
O O17 0.000000 0.500000 0.931823
O O18 0.886744 0.500000 0.000000
O O19 0.500000 0.323687 0.308997
O O20 0.357091 0.357091 0.298348
#
# Coordination Sequence:
#
# PCOD9561602 Si02
#       7
#    16  16  16  16  16   8  16
#     4   9  17  29  43  58  80 111 141 167 203 252
#     4   9  16  27  41  59  84 111 137 160 195 245
#     4  10  17  25  41  62  83 108 135 162 194 237
#     4   9  17  27  41  62  87 111 137 173 209 243
#     4   9  18  31  44  59  80 105 136 173 207 238
#     4   9  16  24  36  58  86 112 134 156 188 233
#     4   9  18  30  43  59  79 105 137 174 209 242
#
# _framework density 13.930027000000001
#
# number of rings (size 3 to 8) (size 9 to 14) (size 15 to 20)
#    0.000    2.846    0.769    2.308    0.000    4.923 
#    0.000    1.538    0.000    0.000    0.000    2.154 
#    0.000    0.308    0.000    1.692    0.000    0.769 
#
# Total GULP energy -578986.866354 kJ/mol
# GULP energy per Si atom -5567.181407 kJ/mol
# Density = 1.389832 g / cm^3
# Si number density = 13.930027 Si / 1000 Ang^3
#
#
#
# Elastic Constant Matrix: (Units=GPa)
#
#
# Indices 1 2 3 4 5 6 
#
# 1 53.8771 27.8505 13.1049 0.0000 0.0000 0.0000
# 2 27.8505 53.8771 13.1049 0.0000 0.0000 0.0000
# 3 13.1049 13.1049 48.3922 0.0000 0.0000 0.0000
# 4 0.0000 0.0000 0.0000 13.0604 0.0000 0.0000
# 5 0.0000 0.0000 0.0000 0.0000 13.0604 0.0000
# 6 0.0000 0.0000 0.0000 0.0000 0.0000 19.4519
#
#
#
# Elastic Compliance Matrix: (Units=1/GPa)
#
#
# Indices 1 2 3 4 5 6 
#
# 1 0.025911 -0.012511 -0.003629 0.000000 0.000000 0.000000
# 2 -0.012511 0.025911 -0.003629 0.000000 0.000000 0.000000
# 3 -0.003629 -0.003629 0.022630 0.000000 0.000000 0.000000
# 4 0.000000 0.000000 0.000000 0.076567 0.000000 0.000000
# 5 0.000000 0.000000 0.000000 0.000000 0.076567 0.000000
# 6 0.000000 0.000000 0.000000 0.000000 0.000000 0.051409
#
#
# Mechanical properties :
#
#
# Convention : Reuss Voigt Hill
#
# Bulk Modulus (GPa) = 28.64174 29.36302 29.00238
# Shear Modulus (GPa) = 15.14368 15.92027 15.53197
#
# Velocity S-wave (km/s) = 3.30074 3.38431 3.34278
# Velocity P-wave (km/s) = 5.92725 6.03292 5.98032
#
# Compressibility (1/GPa) = 0.03491409
#
# Stress axis : x y z
#
# Youngs Moduli (GPa) = 38.59394 38.59394 44.18949
#
# Poissons Ratio (x) = 0.48286 0.16035
# Poissons Ratio (y) = 0.48286 0.16035
# Poissons Ratio (z) = 0.14004 0.14004
#
# Static dielectric constant tensor:
#      x y z
#    x 1.450820 0.000000 0.000000 
#    y 0.000000 1.450820 0.000000 
#    z 0.000000 0.000000 1.460180 
# 
# From -- ./inp_files/6720.got.cif
#   From: 2010.05.17/outbox.cif.g08.bks.cpg/sg123_4_cif.got.tgz:6720.got - 2010.05.20 11:43:04.
