data_PCOD9561317
_publ_section_title
;
Structure prediction by ZEFSAII (Michael W. Deem and Ramdas Pophale) SiO2 
 PCOD9561317
Probable space group: I -4 2 D
;
_chemical_formula_sum "Si O2"
_cell_formula_units_Z 32
_cell_length_a 10.980553
_cell_length_b 10.980553
_cell_length_c 9.581036
_cell_angle_alpha 90.000000
_cell_angle_beta 90.000000
_cell_angle_gamma 90.000000
_cell_volume 1155.209886
_symmetry_space_group_name_H-M "I -4 2 D"
_symmetry_group_IT_number 122
_symmetry_cell_setting 'tetragonal'
loop_
_space_group_symop_operation_xyz
x,y,z
y,-x,-z
-x,-y,z
-y,x,-z
x,1/2-y,1/4-z
-x,1/2+y,1/4-z
-y,1/2-x,1/4+z
y,1/2+x,1/4+z
1/2+x,1/2+y,1/2+z
1/2+y,1/2-x,1/2-z
1/2-x,1/2-y,1/2+z
1/2-y,1/2+x,1/2-z
1/2+x,-y,3/4-z
1/2-x,y,3/4-z
1/2-y,-x,3/4+z
1/2+y,x,3/4+z
loop_
_atom_site_type_symbol
_atom_site_label
_atom_site_fract_x
_atom_site_fract_y
_atom_site_fract_z
Si Si1 0.500000 0.500000 0.500000
Si Si2 0.750000 0.750000 0.125000
Si Si3 0.250000 0.424913 0.875000
Si Si4 0.500000 0.500000 0.000000
Si Si5 0.750000 0.924913 0.875000
O O1 0.631445 0.502600 0.425179
O O2 0.795961 0.845369 0.243917
O O3 0.704039 0.654631 0.243917
O O4 0.368554 0.497400 0.925180
#
# Coordination Sequence:
#
# PCOD9561317 Si02
#       5
#     4   8   8   4   8
#     4  12  28  54  84 126 172 226 284 354 428 514
#     4  10  26  54  86 122 166 226 290 354 430 510
#     4  11  27  52  85 121 169 225 287 355 429 511
#     4  12  28  54  84 126 172 226 284 354 428 514
#     4  11  27  52  85 121 169 225 287 355 429 511
#
# _framework density 27.700596000000001
#
# number of rings (size 3 to 8) (size 9 to 14) (size 15 to 20)
#    0.000    1.000    0.000    3.000    0.000   20.000 
#    0.000   20.000    0.000    0.000    0.000    0.000 
#    0.000    0.000    0.000    0.000    0.000    0.000 
#
# Total GULP energy -89175.658055 kJ/mol
# GULP energy per Si atom -5573.478628 kJ/mol
# Density = 2.763755 g / cm^3
# Si number density = 27.700596 Si / 1000 Ang^3
#
#
#
# Elastic Constant Matrix: (Units=GPa)
#
#
# Indices 1 2 3 4 5 6 
#
# 1 236.0145 90.8363 94.4513 0.0000 0.0000 0.0000
# 2 90.8363 236.0145 94.4513 0.0000 0.0000 0.0000
# 3 94.4513 94.4513 228.6511 0.0000 0.0000 0.0000
# 4 0.0000 0.0000 0.0000 72.7342 0.0000 0.0000
# 5 0.0000 0.0000 0.0000 0.0000 72.7342 0.0000
# 6 0.0000 0.0000 0.0000 0.0000 0.0000 -58.5197
#
#
#
# Elastic Compliance Matrix: (Units=1/GPa)
#
#
# Indices 1 2 3 4 5 6 
#
# 1 0.005454 -0.001435 -0.001660 0.000000 0.000000 0.000000
# 2 -0.001435 0.005454 -0.001660 0.000000 0.000000 0.000000
# 3 -0.001660 -0.001660 0.005745 0.000000 0.000000 0.000000
# 4 0.000000 0.000000 0.000000 0.013749 0.000000 0.000000
# 5 0.000000 0.000000 0.000000 0.000000 0.013749 0.000000
# 6 0.000000 0.000000 0.000000 0.000000 0.000000 -0.017088
#
#
# Mechanical properties :
#
#
# Convention : Reuss Voigt Hill
#
# Bulk Modulus (GPa) = 140.00985 140.01754 140.01370
# Shear Modulus (GPa) = 128.36390 45.45250 86.90820
#
# Velocity S-wave (km/s) = 6.81472 4.05513 5.60734
# Velocity P-wave (km/s) = 10.61010 8.51951 9.62175
#
# Compressibility (1/GPa) = 0.00714235
#
# Stress axis : x y z
#
# Youngs Moduli (GPa) = 183.36723 183.36723 174.06326
#
# Poissons Ratio (x) = 0.26305 0.28897
# Poissons Ratio (y) = 0.26305 0.28897
# Poissons Ratio (z) = 0.30442 0.30442
#
# Static dielectric constant tensor:
#      x y z
#    x 2.278090 0.000000 0.000000 
#    y 0.000000 2.278090 0.000000 
#    z 0.000000 0.000000 2.074590 
# 
# From -- ./inp_files/3482.got.cif
#   From: 2010.05.17/outbox.cif.g08.bks.cpg/sg122_2_cif.got.tgz:3482.got - 2010.05.20 11:37:33.
