data_PCOD9561240
_publ_section_title
;
Structure prediction by ZEFSAII (Michael W. Deem and Ramdas Pophale) SiO2 
 PCOD9561240
Probable space group: I -4 2 D
;
_chemical_formula_sum "Si O2"
_cell_formula_units_Z 56
_cell_length_a 17.752903
_cell_length_b 17.752903
_cell_length_c 7.801945
_cell_angle_alpha 90.000000
_cell_angle_beta 90.000000
_cell_angle_gamma 90.000000
_cell_volume 2458.904403
_symmetry_space_group_name_H-M "I -4 2 D"
_symmetry_group_IT_number 122
_symmetry_cell_setting 'tetragonal'
loop_
_space_group_symop_operation_xyz
x,y,z
y,-x,-z
-x,-y,z
-y,x,-z
x,1/2-y,1/4-z
-x,1/2+y,1/4-z
-y,1/2-x,1/4+z
y,1/2+x,1/4+z
1/2+x,1/2+y,1/2+z
1/2+y,1/2-x,1/2-z
1/2-x,1/2-y,1/2+z
1/2-y,1/2+x,1/2-z
1/2+x,-y,3/4-z
1/2-x,y,3/4-z
1/2-y,-x,3/4+z
1/2+y,x,3/4+z
loop_
_atom_site_type_symbol
_atom_site_label
_atom_site_fract_x
_atom_site_fract_y
_atom_site_fract_z
Si Si1 0.740529 0.130868 0.161313
Si Si2 0.250000 0.739269 0.375000
Si Si3 0.114834 0.953667 0.198528
Si Si4 0.044346 0.388873 0.033317
O O1 0.701813 0.198223 0.272037
O O2 0.805557 0.081209 0.248466
O O3 0.782820 0.182807 0.015923
O O4 0.681609 0.078571 0.064842
O O5 0.042960 0.905153 0.258448
O O6 0.094963 0.037828 0.257846
O O7 0.117351 0.955227 0.990306
#
# Coordination Sequence:
#
# PCOD9561240 Si02
#       4
#    16   8  16  16
#     4  11  20  41  59  90 124 162 203 266 309 366
#     4  10  24  36  58  86 124 154 208 252 312 368
#     4   9  18  34  59  90 120 161 204 250 307 383
#     4   9  18  34  59  90 122 157 208 249 308 375
#
# _framework density 22.774370000000001
#
# number of rings (size 3 to 8) (size 9 to 14) (size 15 to 20)
#    0.000    2.286    2.857    1.714    0.000    2.286 
#    5.143    5.714    0.000    3.429    0.000    0.000 
#    0.000    0.000    0.000    0.000    0.000    0.000 
#
# Total GULP energy -155901.294121 kJ/mol
# GULP energy per Si atom -5567.903361 kJ/mol
# Density = 2.272253 g / cm^3
# Si number density = 22.774370 Si / 1000 Ang^3
#
#
#
# Elastic Constant Matrix: (Units=GPa)
#
#
# Indices 1 2 3 4 5 6 
#
# 1 148.5201 109.9561 29.9521 0.0000 0.0000 0.0000
# 2 109.9561 148.5201 29.9521 0.0000 0.0000 0.0000
# 3 29.9521 29.9521 30.3968 0.0000 0.0000 0.0000
# 4 0.0000 0.0000 0.0000 29.5336 0.0000 0.0000
# 5 0.0000 0.0000 0.0000 0.0000 29.5336 0.0000
# 6 0.0000 0.0000 0.0000 0.0000 0.0000 19.4019
#
#
#
# Elastic Compliance Matrix: (Units=1/GPa)
#
#
# Indices 1 2 3 4 5 6 
#
# 1 0.015472 -0.010459 -0.004940 0.000000 0.000000 0.000000
# 2 -0.010459 0.015472 -0.004940 0.000000 0.000000 0.000000
# 3 -0.004940 -0.004940 0.042635 0.000000 0.000000 0.000000
# 4 0.000000 0.000000 0.000000 0.033860 0.000000 0.000000
# 5 0.000000 0.000000 0.000000 0.000000 0.033860 0.000000
# 6 0.000000 0.000000 0.000000 0.000000 0.000000 0.051541
#
#
# Mechanical properties :
#
#
# Convention : Reuss Voigt Hill
#
# Bulk Modulus (GPa) = 30.39484 74.12866 52.26175
# Shear Modulus (GPa) = 20.45107 26.19894 23.32500
#
# Velocity S-wave (km/s) = 2.99989 3.39539 3.20375
# Velocity P-wave (km/s) = 5.03728 6.92758 6.05663
#
# Compressibility (1/GPa) = 0.03290033
#
# Stress axis : x y z
#
# Youngs Moduli (GPa) = 64.63132 64.63132 23.45514
#
# Poissons Ratio (x) = 0.67595 0.11588
# Poissons Ratio (y) = 0.67595 0.11588
# Poissons Ratio (z) = 0.31931 0.31931
#
# Static dielectric constant tensor:
#      x y z
#    x 1.815410 0.000000 0.000000 
#    y 0.000000 1.815410 0.000000 
#    z 0.000000 0.000000 2.103150 
# 
# From -- ./inp_files/2261.got.cif
#   From: 2010.05.17/outbox.cif.g08.bks.cpg/sg122_2_cif.got.tgz:2261.got - 2010.05.20 11:37:33.
