data_PCOD9561342
_publ_section_title
;
Structure prediction by ZEFSAII (Michael W. Deem and Ramdas Pophale) SiO2 
 PCOD9561342
Probable space group: I -4 2 D
;
_chemical_formula_sum "Si O2"
_cell_formula_units_Z 48
_cell_length_a 11.145270
_cell_length_b 11.145270
_cell_length_c 16.442177
_cell_angle_alpha 90.000000
_cell_angle_beta 90.000000
_cell_angle_gamma 90.000000
_cell_volume 2042.398614
_symmetry_space_group_name_H-M "I -4 2 D"
_symmetry_group_IT_number 122
_symmetry_cell_setting 'tetragonal'
loop_
_space_group_symop_operation_xyz
x,y,z
y,-x,-z
-x,-y,z
-y,x,-z
x,1/2-y,1/4-z
-x,1/2+y,1/4-z
-y,1/2-x,1/4+z
y,1/2+x,1/4+z
1/2+x,1/2+y,1/2+z
1/2+y,1/2-x,1/2-z
1/2-x,1/2-y,1/2+z
1/2-y,1/2+x,1/2-z
1/2+x,-y,3/4-z
1/2-x,y,3/4-z
1/2-y,-x,3/4+z
1/2+y,x,3/4+z
loop_
_atom_site_type_symbol
_atom_site_label
_atom_site_fract_x
_atom_site_fract_y
_atom_site_fract_z
Si Si1 0.959225 0.132521 0.267369
Si Si2 0.903995 0.135008 0.449878
Si Si3 0.254430 0.793514 0.040940
O O1 0.906163 0.099457 0.356496
O O2 0.865614 0.212790 0.216207
O O3 0.064677 0.228200 0.288352
O O4 0.000000 0.000000 0.233954
O O5 0.830530 0.253973 0.462857
O O6 0.033678 0.151656 0.491215
O O7 0.313991 0.750000 0.125000
#
# Coordination Sequence:
#
# PCOD9561342 Si02
#       3
#    16  16  16
#     4  12  26  46  74 106 145 193 240 303 369 430
#     4  11  20  43  76 107 134 174 246 318 365 409
#     4  12  26  45  69 105 148 192 240 295 365 440
#
# _framework density 23.501778000000002
#
# number of rings (size 3 to 8) (size 9 to 14) (size 15 to 20)
#    0.000    0.333    6.667    3.000    0.000    3.333 
#    0.000    0.000    0.000    0.000    0.000    0.000 
#    0.000    0.000    0.000    0.000    0.000    0.000 
#
# Total GULP energy -133806.135158 kJ/mol
# GULP energy per Si atom -5575.255632 kJ/mol
# Density = 2.344829 g / cm^3
# Si number density = 23.501778 Si / 1000 Ang^3
#
#
#
# Elastic Constant Matrix: (Units=GPa)
#
#
# Indices 1 2 3 4 5 6 
#
# 1 71.6446 49.9336 13.8132 0.0000 0.0000 0.0000
# 2 49.9336 71.6446 13.8132 0.0000 0.0000 0.0000
# 3 13.8132 13.8132 63.8044 0.0000 0.0000 0.0000
# 4 0.0000 0.0000 0.0000 33.1776 0.0000 0.0000
# 5 0.0000 0.0000 0.0000 0.0000 33.1776 0.0000
# 6 0.0000 0.0000 0.0000 0.0000 0.0000 26.1407
#
#
#
# Elastic Compliance Matrix: (Units=1/GPa)
#
#
# Indices 1 2 3 4 5 6 
#
# 1 0.027355 -0.018704 -0.001873 0.000000 0.000000 0.000000
# 2 -0.018704 0.027355 -0.001873 0.000000 0.000000 0.000000
# 3 -0.001873 -0.001873 0.016484 0.000000 0.000000 0.000000
# 4 0.000000 0.000000 0.000000 0.030141 0.000000 0.000000
# 5 0.000000 0.000000 0.000000 0.000000 0.030141 0.000000
# 6 0.000000 0.000000 0.000000 0.000000 0.000000 0.038254
#
#
# Mechanical properties :
#
#
# Convention : Reuss Voigt Hill
#
# Bulk Modulus (GPa) = 38.03154 40.24596 39.13875
# Shear Modulus (GPa) = 22.38190 27.13478 24.75834
#
# Velocity S-wave (km/s) = 3.08936 3.40160 3.24924
# Velocity P-wave (km/s) = 5.37988 5.70874 5.54675
#
# Compressibility (1/GPa) = 0.02629397
#
# Stress axis : x y z
#
# Youngs Moduli (GPa) = 36.55624 36.55624 60.66566
#
# Poissons Ratio (x) = 0.68376 0.11362
# Poissons Ratio (y) = 0.68376 0.11362
# Poissons Ratio (z) = 0.06846 0.06846
#
# Static dielectric constant tensor:
#      x y z
#    x 1.982510 0.000000 0.000000 
#    y 0.000000 1.982510 0.000000 
#    z 0.000000 0.000000 1.835470 
# 
# From -- ./inp_files/3813.got.cif
#   From: 2010.05.17/outbox.cif.g08.bks.cpg/sg122_2_cif.got.tgz:3813.got - 2010.05.20 11:37:33.
