data_PCOD9561345
_publ_section_title
;
Structure prediction by ZEFSAII (Michael W. Deem and Ramdas Pophale) SiO2 
 PCOD9561345
Probable space group: I -4 2 D
;
_chemical_formula_sum "Si O2"
_cell_formula_units_Z 108
_cell_length_a 14.439840
_cell_length_b 14.439840
_cell_length_c 24.280388
_cell_angle_alpha 90.000000
_cell_angle_beta 90.000000
_cell_angle_gamma 90.000000
_cell_volume 5062.678917
_symmetry_space_group_name_H-M "I -4 2 D"
_symmetry_group_IT_number 122
_symmetry_cell_setting 'tetragonal'
loop_
_space_group_symop_operation_xyz
x,y,z
y,-x,-z
-x,-y,z
-y,x,-z
x,1/2-y,1/4-z
-x,1/2+y,1/4-z
-y,1/2-x,1/4+z
y,1/2+x,1/4+z
1/2+x,1/2+y,1/2+z
1/2+y,1/2-x,1/2-z
1/2-x,1/2-y,1/2+z
1/2-y,1/2+x,1/2-z
1/2+x,-y,3/4-z
1/2-x,y,3/4-z
1/2-y,-x,3/4+z
1/2+y,x,3/4+z
loop_
_atom_site_type_symbol
_atom_site_label
_atom_site_fract_x
_atom_site_fract_y
_atom_site_fract_z
Si Si1 0.882518 0.711832 0.781576
Si Si2 0.038500 0.690411 0.307246
Si Si3 0.105097 0.179829 0.342061
Si Si4 0.500000 0.000000 0.750000
Si Si5 0.775976 0.562214 0.979010
Si Si6 0.909810 0.933974 0.168068
Si Si7 0.226377 0.344378 0.290669
Si Si8 0.250000 0.998711 0.875000
O O1 0.912946 0.679597 0.842765
O O2 0.802373 0.640904 0.762981
O O3 0.832291 0.810757 0.790364
O O4 0.964458 0.725402 0.738108
O O5 0.040969 0.663313 0.370734
O O6 0.132642 0.699367 0.272146
O O7 0.985074 0.789074 0.306739
O O8 0.991668 0.597187 0.282331
O O9 0.164409 0.089824 0.324910
O O10 0.171466 0.264908 0.323086
O O11 0.854415 0.565922 0.025662
O O12 0.941690 0.832193 0.151020
O O13 0.000000 0.000000 0.168097
O O14 0.213264 0.436552 0.325971
#
# Coordination Sequence:
#
# PCOD9561345 Si02
#       8
#    16  16  16   4  16  16  16   8
#     4  11  24  48  73  95 132 181 243 298 358 404
#     4  12  22  36  60 101 145 183 217 264 332 427
#     4  11  22  44  67  97 135 180 232 282 354 424
#     4  12  20  32  60 104 152 184 216 248 316 430
#     4  11  25  45  74  98 126 184 237 296 357 418
#     4  12  25  40  63 102 147 180 224 278 352 423
#     4  11  21  37  65  99 135 184 221 266 343 421
#     4  12  22  36  62 100 138 188 222 272 340 420
#
# _framework density 21.332578999999999
#
# number of rings (size 3 to 8) (size 9 to 14) (size 15 to 20)
#    0.000    0.593    5.185    4.889    4.148    0.296 
#    0.000    2.963    9.778    0.000    0.000    0.000 
#    0.000    0.000    0.000    0.000    0.000    0.000 
#
# Total GULP energy -301416.027701 kJ/mol
# GULP energy per Si atom -5581.778291 kJ/mol
# Density = 2.128403 g / cm^3
# Si number density = 21.332579 Si / 1000 Ang^3
#
#
#
# Elastic Constant Matrix: (Units=GPa)
#
#
# Indices 1 2 3 4 5 6 
#
# 1 35.6238 -17.5682 6.9274 0.0000 0.0000 0.0000
# 2 -17.5682 35.6238 6.9274 0.0000 0.0000 0.0000
# 3 6.9274 6.9274 64.6019 0.0000 0.0000 0.0000
# 4 0.0000 0.0000 0.0000 30.8056 0.0000 0.0000
# 5 0.0000 0.0000 0.0000 0.0000 30.8056 0.0000
# 6 0.0000 0.0000 0.0000 0.0000 0.0000 14.7286
#
#
#
# Elastic Compliance Matrix: (Units=1/GPa)
#
#
# Indices 1 2 3 4 5 6 
#
# 1 0.039575 0.020775 -0.006472 0.000000 0.000000 0.000000
# 2 0.020775 0.039575 -0.006472 0.000000 0.000000 0.000000
# 3 -0.006472 -0.006472 0.016867 0.000000 0.000000 0.000000
# 4 0.000000 0.000000 0.000000 0.032462 0.000000 0.000000
# 5 0.000000 0.000000 0.000000 0.000000 0.032462 0.000000
# 6 0.000000 0.000000 0.000000 0.000000 0.000000 0.067895
#
#
# Mechanical properties :
#
#
# Convention : Reuss Voigt Hill
#
# Bulk Modulus (GPa) = 8.95400 14.26920 11.61160
# Shear Modulus (GPa) = 19.96816 24.57215 22.27016
#
# Velocity S-wave (km/s) = 3.06280 3.39759 3.23453
# Velocity P-wave (km/s) = 4.08829 4.70052 4.40505
#
# Compressibility (1/GPa) = 0.11168189
#
# Stress axis : x y z
#
# Youngs Moduli (GPa) = 25.26844 25.26844 59.28619
#
# Poissons Ratio (x) = -0.52496 0.38367
# Poissons Ratio (y) = -0.52496 0.38367
# Poissons Ratio (z) = 0.16352 0.16352
#
# Static dielectric constant tensor:
#      x y z
#    x 1.817550 0.000000 0.000000 
#    y 0.000000 1.817550 0.000000 
#    z 0.000000 0.000000 1.827120 
# 
# From -- ./inp_files/8152.got.cif
#   From: 2010.05.17/outbox.cif.g08.bks.cpg/sg122_5_cif.got.tgz:8152.got - 2010.05.20 11:37:33.
