data_PCOD9561977
_publ_section_title
;
Structure prediction by ZEFSAII (Michael W. Deem and Ramdas Pophale) SiO2 
 PCOD9561977
Probable space group: P 4/M M M
;
_chemical_formula_sum "Si O2"
_cell_formula_units_Z 64
_cell_length_a 20.376724
_cell_length_b 20.376724
_cell_length_c 8.687353
_cell_angle_alpha 90.000000
_cell_angle_beta 90.000000
_cell_angle_gamma 90.000000
_cell_volume 3607.083492
_symmetry_space_group_name_H-M "P 4/M M M"
_symmetry_group_IT_number 123
_symmetry_cell_setting 'tetragonal'
loop_
_space_group_symop_operation_xyz
x,y,z
-y,x,z
-x,-y,z
y,-x,z
x,-y,-z
-x,y,-z
y,x,-z
-y,-x,-z
-x,-y,-z
y,-x,-z
x,y,-z
-y,x,-z
-x,y,z
x,-y,z
-y,-x,z
y,x,z
loop_
_atom_site_type_symbol
_atom_site_label
_atom_site_fract_x
_atom_site_fract_y
_atom_site_fract_z
Si Si1 0.426997 0.818668 0.819447
Si Si2 0.819778 0.924585 0.185302
Si Si3 0.428000 0.321185 0.321663
Si Si4 0.716047 0.821868 0.683827
O O1 0.500000 0.842011 0.762164
O O2 0.427526 0.740789 0.788354
O O3 0.357300 0.836765 0.743926
O O4 0.424063 0.833610 0.000000
O O5 0.888643 0.888643 0.219819
O O6 0.763828 0.879804 0.260588
O O7 0.817893 0.000000 0.235180
O O8 0.811051 0.922643 0.000000
O O9 0.418489 0.298328 0.500000
O O10 0.500000 0.352440 0.315060
O O11 0.372082 0.372082 0.284685
O O12 0.713520 0.819352 0.500000
O O13 0.753303 0.753303 0.734400
#
# Coordination Sequence:
#
# PCOD9561977 Si02
#       4
#    16  16  16  16
#     4  10  20  32  47  68  93 122 159 206 259 309
#     4   9  18  33  54  81 112 144 175 205 239 282
#     4   9  17  28  41  58  82 113 150 193 242 297
#     4  10  20  33  51  75 102 134 172 212 254 301
#
# _framework density 17.742867
#
# number of rings (size 3 to 8) (size 9 to 14) (size 15 to 20)
#    0.000    2.500    0.000    2.250    0.000    7.500 
#    0.000    2.500    0.000    0.750    0.000   12.250 
#    0.000    0.000    0.000    0.000    0.000    0.000 
#
# Total GULP energy -356292.634207 kJ/mol
# GULP energy per Si atom -5567.072409 kJ/mol
# Density = 1.770248 g / cm^3
# Si number density = 17.742867 Si / 1000 Ang^3
#
#
#
# Elastic Constant Matrix: (Units=GPa)
#
#
# Indices 1 2 3 4 5 6 
#
# 1 108.2538 43.1426 25.3319 0.0000 0.0000 0.0000
# 2 43.1426 108.2538 25.3319 0.0000 0.0000 0.0000
# 3 25.3319 25.3319 26.3869 0.0000 0.0000 0.0000
# 4 0.0000 0.0000 0.0000 6.3235 0.0000 0.0000
# 5 0.0000 0.0000 0.0000 0.0000 6.3235 0.0000
# 6 0.0000 0.0000 0.0000 0.0000 0.0000 -33.8213
#
#
#
# Elastic Compliance Matrix: (Units=1/GPa)
#
#
# Indices 1 2 3 4 5 6 
#
# 1 0.012545 -0.002813 -0.009343 0.000000 0.000000 0.000000
# 2 -0.002813 0.012545 -0.009343 0.000000 0.000000 0.000000
# 3 -0.009343 -0.009343 0.055836 0.000000 0.000000 0.000000
# 4 0.000000 0.000000 0.000000 0.158140 0.000000 0.000000
# 5 0.000000 0.000000 0.000000 0.000000 0.158140 0.000000
# 6 0.000000 0.000000 0.000000 0.000000 0.000000 -0.029567
#
#
# Mechanical properties :
#
#
# Convention : Reuss Voigt Hill
#
# Bulk Modulus (GPa) = 26.36523 47.83416 37.09969
# Shear Modulus (GPa) = 11.81258 5.70436 8.75847
#
# Velocity S-wave (km/s) = 2.58304 1.79499 2.22420
# Velocity P-wave (km/s) = 4.87730 5.59591 5.24891
#
# Compressibility (1/GPa) = 0.03792874
#
# Stress axis : x y z
#
# Youngs Moduli (GPa) = 79.71328 79.71328 17.90970
#
# Poissons Ratio (x) = 0.22426 0.16732
# Poissons Ratio (y) = 0.22426 0.16732
# Poissons Ratio (z) = 0.74472 0.74472
#
# Static dielectric constant tensor:
#      x y z
#    x 1.617460 0.000000 0.000000 
#    y 0.000000 1.617460 0.000000 
#    z 0.000000 0.000000 1.621090 
# 
# From -- ./inp_files/865.got.cif
#   From: 2010.05.17/outbox.cif.g08.bks.cpg/sg123_1_cif.got.tgz:865.got - 2010.05.20 11:43:04.
