data_PCOD9561608
_publ_section_title
;
Structure prediction by ZEFSAII (Michael W. Deem and Ramdas Pophale) SiO2 
 PCOD9561608
Probable space group: P 4/M M M
;
_chemical_formula_sum "Si O2"
_cell_formula_units_Z 52
_cell_length_a 17.386018
_cell_length_b 17.386018
_cell_length_c 9.777662
_cell_angle_alpha 90.000000
_cell_angle_beta 90.000000
_cell_angle_gamma 90.000000
_cell_volume 2955.529306
_symmetry_space_group_name_H-M "P 4/M M M"
_symmetry_group_IT_number 123
_symmetry_cell_setting 'tetragonal'
loop_
_space_group_symop_operation_xyz
x,y,z
-y,x,z
-x,-y,z
y,-x,z
x,-y,-z
-x,y,-z
y,x,-z
-y,-x,-z
-x,-y,-z
y,-x,-z
x,y,-z
-y,x,-z
-x,y,z
x,-y,z
-y,-x,z
y,x,z
loop_
_atom_site_type_symbol
_atom_site_label
_atom_site_fract_x
_atom_site_fract_y
_atom_site_fract_z
Si Si1 0.207572 0.500000 0.500000
Si Si2 0.652726 0.151519 0.198628
Si Si3 0.500000 0.084393 0.256179
Si Si4 0.593622 0.718453 0.000000
Si Si5 0.781349 0.091518 0.000000
Si Si6 0.336102 0.791287 0.500000
O O1 0.151282 0.500000 0.369423
O O2 0.250371 0.419520 0.500000
O O3 0.578798 0.097142 0.175042
O O4 0.626337 0.232042 0.128961
O O5 0.666595 0.160673 0.360074
O O6 0.728220 0.118902 0.126847
O O7 0.500000 0.000000 0.318841
O O8 0.500000 0.716590 0.000000
O O9 0.635884 0.635884 0.000000
O O10 0.859784 0.140217 0.000000
O O11 0.792296 0.000000 0.000000
O O12 0.268430 0.731571 0.500000
#
# Coordination Sequence:
#
# PCOD9561608 Si02
#       6
#     4  16   8   8   8   8
#     4   8  19  28  42  73 108 134 172 208 263 328
#     4  10  20  36  55  84 110 141 184 225 277 337
#     4  10  17  29  50  77 110 136 162 209 271 333
#     4  11  21  36  53  75 108 145 190 233 271 317
#     4  11  23  39  58  82 111 146 187 230 275 327
#     4  10  18  33  55  77 106 145 181 224 275 325
#
# _framework density 17.594142000000002
#
# number of rings (size 3 to 8) (size 9 to 14) (size 15 to 20)
#    0.000    1.846    1.538    4.846    0.000    0.308 
#    0.000    4.615    0.000    0.231    0.000    0.000 
#    0.000    3.692    0.000    0.000    0.000    0.000 
#
# Total GULP energy -289811.881819 kJ/mol
# GULP energy per Si atom -5573.305420 kJ/mol
# Density = 1.755410 g / cm^3
# Si number density = 17.594142 Si / 1000 Ang^3
#
#
#
# Elastic Constant Matrix: (Units=GPa)
#
#
# Indices 1 2 3 4 5 6 
#
# 1 107.1498 74.0308 31.5588 0.0000 0.0000 0.0000
# 2 74.0308 107.1498 31.5592 0.0000 0.0000 0.0000
# 3 31.5588 31.5592 119.7149 0.0000 0.0000 0.0000
# 4 0.0000 0.0000 0.0000 11.4568 0.0000 0.0000
# 5 0.0000 0.0000 0.0000 0.0000 11.4582 0.0000
# 6 0.0000 0.0000 0.0000 0.0000 0.0000 16.4588
#
#
#
# Elastic Compliance Matrix: (Units=1/GPa)
#
#
# Indices 1 2 3 4 5 6 
#
# 1 0.018136 -0.012058 -0.001602 0.000000 0.000000 0.000000
# 2 -0.012058 0.018136 -0.001602 0.000000 0.000000 0.000000
# 3 -0.001602 -0.001602 0.009198 0.000000 0.000000 0.000000
# 4 0.000000 0.000000 0.000000 0.087284 0.000000 0.000000
# 5 0.000000 0.000000 0.000000 0.000000 0.087274 0.000000
# 6 0.000000 0.000000 0.000000 0.000000 0.000000 0.060758
#
#
# Mechanical properties :
#
#
# Convention : Reuss Voigt Hill
#
# Bulk Modulus (GPa) = 66.91505 67.59024 67.25265
# Shear Modulus (GPa) = 15.80817 20.99914 18.40365
#
# Velocity S-wave (km/s) = 3.00074 3.45850 3.23772
# Velocity P-wave (km/s) = 7.07962 7.37889 7.23080
#
# Compressibility (1/GPa) = 0.01494432
#
# Stress axis : x y z
#
# Youngs Moduli (GPa) = 55.13956 55.13939 108.72069
#
# Poissons Ratio (x) = 0.66489 0.17418
# Poissons Ratio (y) = 0.66489 0.17419
# Poissons Ratio (z) = 0.08834 0.08834
#
# Static dielectric constant tensor:
#      x y z
#    x 1.603010 0.000000 0.000000 
#    y 0.000000 1.603010 0.000000 
#    z 0.000000 0.000000 1.608170 
# 
# From -- ./inp_files/567.got.cif
#   From: 2010.05.17/outbox.cif.g08.bks.cpg/sg123_1_cif.got.tgz:567.got - 2010.05.20 11:43:04.
