data_PCOD9561108
_publ_section_title
;
Structure prediction by ZEFSAII (Michael W. Deem and Ramdas Pophale) SiO2 
 PCOD9561108
Probable space group: I -4 2 D
;
_chemical_formula_sum "Si O2"
_cell_formula_units_Z 48
_cell_length_a 9.124345
_cell_length_b 9.124345
_cell_length_c 32.162819
_cell_angle_alpha 90.000000
_cell_angle_beta 90.000000
_cell_angle_gamma 90.000000
_cell_volume 2677.672773
_symmetry_space_group_name_H-M "I -4 2 D"
_symmetry_group_IT_number 122
_symmetry_cell_setting 'tetragonal'
loop_
_space_group_symop_operation_xyz
x,y,z
y,-x,-z
-x,-y,z
-y,x,-z
x,1/2-y,1/4-z
-x,1/2+y,1/4-z
-y,1/2-x,1/4+z
y,1/2+x,1/4+z
1/2+x,1/2+y,1/2+z
1/2+y,1/2-x,1/2-z
1/2-x,1/2-y,1/2+z
1/2-y,1/2+x,1/2-z
1/2+x,-y,3/4-z
1/2-x,y,3/4-z
1/2-y,-x,3/4+z
1/2+y,x,3/4+z
loop_
_atom_site_type_symbol
_atom_site_label
_atom_site_fract_x
_atom_site_fract_y
_atom_site_fract_z
Si Si1 0.362512 0.396449 0.340433
Si Si2 0.739694 0.963584 0.750564
Si Si3 0.750000 0.890897 0.375000
Si Si4 0.000000 0.000000 0.315527
O O1 0.500000 0.500000 0.345837
O O2 0.250000 0.454592 0.375000
O O3 0.313019 0.412519 0.293193
O O4 0.360743 0.222855 0.351325
O O5 0.615353 0.844558 0.740207
O O6 0.857661 0.984268 0.714086
O O7 0.854433 0.979580 0.343794
#
# Coordination Sequence:
#
# PCOD9561108 Si02
#       4
#    16  16   8   8
#     4  10  22  40  66  98 126 169 231 273 328 394
#     4  11  23  41  67  96 128 174 227 274 331 396
#     4  10  26  42  62 100 132 184 218 266 352 384
#     4  12  24  46  64  97 144 174 219 280 336 412
#
# _framework density 17.926013999999999
#
# number of rings (size 3 to 8) (size 9 to 14) (size 15 to 20)
#    1.000    0.333    5.000    0.000    9.333    2.667 
#    0.000    0.000    0.000    0.000    0.000    0.000 
#    0.000    0.000    0.000    0.000    0.000    0.000 
#
# Total GULP energy -133642.022594 kJ/mol
# GULP energy per Si atom -5568.417608 kJ/mol
# Density = 1.788521 g / cm^3
# Si number density = 17.926014 Si / 1000 Ang^3
#
#
#
# Elastic Constant Matrix: (Units=GPa)
#
#
# Indices 1 2 3 4 5 6 
#
# 1 75.7966 28.9945 30.1276 0.0000 0.0000 0.0000
# 2 28.9945 75.7966 30.1276 0.0000 0.0000 0.0000
# 3 30.1276 30.1276 105.1113 0.0000 0.0000 0.0000
# 4 0.0000 0.0000 0.0000 40.6701 0.0000 0.0000
# 5 0.0000 0.0000 0.0000 0.0000 40.6701 0.0000
# 6 0.0000 0.0000 0.0000 0.0000 0.0000 29.3584
#
#
#
# Elastic Compliance Matrix: (Units=1/GPa)
#
#
# Indices 1 2 3 4 5 6 
#
# 1 0.016396 -0.004970 -0.003275 0.000000 0.000000 0.000000
# 2 -0.004970 0.016396 -0.003275 0.000000 0.000000 0.000000
# 3 -0.003275 -0.003275 0.011391 0.000000 0.000000 0.000000
# 4 0.000000 0.000000 0.000000 0.024588 0.000000 0.000000
# 5 0.000000 0.000000 0.000000 0.000000 0.024588 0.000000
# 6 0.000000 0.000000 0.000000 0.000000 0.000000 0.034062
#
#
# Mechanical properties :
#
#
# Convention : Reuss Voigt Hill
#
# Bulk Modulus (GPa) = 47.29678 48.35598 47.82638
# Shear Modulus (GPa) = 31.74407 33.30337 32.52372
#
# Velocity S-wave (km/s) = 4.21270 4.31492 4.26412
# Velocity P-wave (km/s) = 7.07843 7.20129 7.14013
#
# Compressibility (1/GPa) = 0.02114309
#
# Stress axis : x y z
#
# Youngs Moduli (GPa) = 60.98959 60.98959 87.78788
#
# Poissons Ratio (x) = 0.30314 0.28750
# Poissons Ratio (y) = 0.30314 0.28750
# Poissons Ratio (z) = 0.19974 0.19974
#
# Static dielectric constant tensor:
#      x y z
#    x 1.584880 0.000000 0.000000 
#    y 0.000000 1.584880 0.000000 
#    z 0.000000 0.000000 1.568010 
# 
# From -- ./inp_files/9136.got.cif
#   From: 2010.05.17/outbox.cif.g08.bks.cpg/sg122_5_cif.got.tgz:9136.got - 2010.05.20 11:37:33.
