data_PCOD9561967
_publ_section_title
;
Structure prediction by ZEFSAII (Michael W. Deem and Ramdas Pophale) SiO2 
 PCOD9561967
Probable space group: P 4/M M M
;
_chemical_formula_sum "Si O2"
_cell_formula_units_Z 88
_cell_length_a 25.804751
_cell_length_b 25.804751
_cell_length_c 7.643317
_cell_angle_alpha 90.000000
_cell_angle_beta 90.000000
_cell_angle_gamma 90.000000
_cell_volume 5089.571472
_symmetry_space_group_name_H-M "P 4/M M M"
_symmetry_group_IT_number 123
_symmetry_cell_setting 'tetragonal'
loop_
_space_group_symop_operation_xyz
x,y,z
-y,x,z
-x,-y,z
y,-x,z
x,-y,-z
-x,y,-z
y,x,-z
-y,-x,-z
-x,-y,-z
y,-x,-z
x,y,-z
-y,x,-z
-x,y,z
x,-y,z
-y,-x,z
y,x,z
loop_
_atom_site_type_symbol
_atom_site_label
_atom_site_fract_x
_atom_site_fract_y
_atom_site_fract_z
Si Si1 0.940698 0.715638 0.785703
Si Si2 0.000000 0.560474 0.696222
Si Si3 0.211800 0.441493 0.295905
Si Si4 0.606894 0.104911 0.800603
Si Si5 0.751328 0.332122 0.710313
Si Si6 0.753681 0.164545 0.789285
O O1 0.915060 0.661505 0.726791
O O2 0.895246 0.754932 0.732730
O O3 0.000000 0.722252 0.726307
O O4 0.942977 0.714028 0.000000
O O5 0.052014 0.575181 0.794654
O O6 0.000000 0.500000 0.676562
O O7 0.000000 0.584142 0.500000
O O8 0.226211 0.444990 0.500000
O O9 0.217685 0.500000 0.221300
O O10 0.151692 0.423537 0.288087
O O11 0.242343 0.391056 0.222286
O O12 0.615635 0.122024 0.000000
O O13 0.746669 0.335116 0.500000
O O14 0.703156 0.296845 0.775502
O O15 0.803445 0.298792 0.746199
O O16 0.800442 0.199559 0.720344
O O17 0.756208 0.164083 0.000000
#
# Coordination Sequence:
#
# PCOD9561967 Si02
#       6
#    16   8  16  16  16  16
#     4   9  16  27  42  60  83 107 133 170 209 243
#     4  11  23  35  43  53  75 109 147 187 224 249
#     4  10  20  32  44  60  85 113 139 172 215 257
#     4  11  20  31  45  61  79 107 146 181 212 248
#     4   9  17  29  45  63  82 106 138 174 211 254
#     4   9  16  27  45  65  82 103 135 173 212 253
#
# _framework density 17.290257
#
# number of rings (size 3 to 8) (size 9 to 14) (size 15 to 20)
#    0.000    2.273    2.727    1.364    0.000    3.273 
#    0.000    0.000    0.000    0.000    0.000    0.000 
#    0.000    0.727    0.000   10.182    0.000    0.000 
#
# Total GULP energy -490073.555348 kJ/mol
# GULP energy per Si atom -5569.017674 kJ/mol
# Density = 1.725090 g / cm^3
# Si number density = 17.290257 Si / 1000 Ang^3
#
#
#
# Elastic Constant Matrix: (Units=GPa)
#
#
# Indices 1 2 3 4 5 6 
#
# 1 118.2329 74.4610 2.5401 0.0000 0.0000 0.0000
# 2 74.4610 118.2329 2.5401 0.0000 0.0000 0.0000
# 3 2.5401 2.5401 37.7350 0.0000 0.0000 0.0000
# 4 0.0000 0.0000 0.0000 11.1569 0.0000 0.0000
# 5 0.0000 0.0000 0.0000 0.0000 11.1569 0.0000
# 6 0.0000 0.0000 0.0000 0.0000 0.0000 5.6301
#
#
#
# Elastic Compliance Matrix: (Units=1/GPa)
#
#
# Indices 1 2 3 4 5 6 
#
# 1 0.014022 -0.008823 -0.000350 0.000000 0.000000 0.000000
# 2 -0.008823 0.014022 -0.000350 0.000000 0.000000 0.000000
# 3 -0.000350 -0.000350 0.026548 0.000000 0.000000 0.000000
# 4 0.000000 0.000000 0.000000 0.089631 0.000000 0.000000
# 5 0.000000 0.000000 0.000000 0.000000 0.089631 0.000000
# 6 0.000000 0.000000 0.000000 0.000000 0.000000 0.177617
#
#
# Mechanical properties :
#
#
# Convention : Reuss Voigt Hill
#
# Bulk Modulus (GPa) = 28.13297 48.14258 38.13778
# Shear Modulus (GPa) = 11.30286 18.56608 14.93447
#
# Velocity S-wave (km/s) = 2.55955 3.28043 2.94215
# Velocity P-wave (km/s) = 5.00414 6.50019 5.80060
#
# Compressibility (1/GPa) = 0.03554548
#
# Stress axis : x y z
#
# Youngs Moduli (GPa) = 71.31516 71.31516 37.66805
#
# Poissons Ratio (x) = 0.62925 0.01318
# Poissons Ratio (y) = 0.62925 0.01318
# Poissons Ratio (z) = 0.02496 0.02496
#
# Static dielectric constant tensor:
#      x y z
#    x 1.603340 0.000000 0.000000 
#    y 0.000000 1.603340 0.000000 
#    z 0.000000 0.000000 1.704050 
# 
# From -- ./inp_files/1817.got.cif
#   From: 2010.05.17/outbox.cif.g08.bks.cpg/sg123_1_cif.got.tgz:1817.got - 2010.05.20 11:43:04.
