data_PCOD9561891
_publ_section_title
;
Structure prediction by ZEFSAII (Michael W. Deem and Ramdas Pophale) SiO2 
 PCOD9561891
Probable space group: P 4/M M M
;
_chemical_formula_sum "Si O2"
_cell_formula_units_Z 120
_cell_length_a 18.336298
_cell_length_b 18.336298
_cell_length_c 21.114959
_cell_angle_alpha 90.000000
_cell_angle_beta 90.000000
_cell_angle_gamma 90.000000
_cell_volume 7099.267806
_symmetry_space_group_name_H-M "P 4/M M M"
_symmetry_group_IT_number 123
_symmetry_cell_setting 'tetragonal'
loop_
_space_group_symop_operation_xyz
x,y,z
-y,x,z
-x,-y,z
y,-x,z
x,-y,-z
-x,y,-z
y,x,-z
-y,-x,-z
-x,-y,-z
y,-x,-z
x,y,-z
-y,x,-z
-x,y,z
x,-y,z
-y,-x,z
y,x,z
loop_
_atom_site_type_symbol
_atom_site_label
_atom_site_fract_x
_atom_site_fract_y
_atom_site_fract_z
Si Si1 0.699511 0.416469 0.076630
Si Si2 0.639187 0.860391 0.927335
Si Si3 0.913404 0.730932 0.746909
Si Si4 0.421654 0.914112 0.198758
Si Si5 0.914380 0.198097 0.500000
Si Si6 0.084409 0.585395 0.423379
Si Si7 0.203960 0.913884 0.114976
Si Si8 0.275558 0.837461 0.618153
O O1 0.701046 0.500000 0.099685
O O2 0.631851 0.368149 0.100047
O O3 0.775685 0.375525 0.088987
O O4 0.693746 0.419721 0.000000
O O5 0.593213 0.904809 0.875933
O O6 0.723350 0.882943 0.918575
O O7 0.617023 0.872399 0.000000
O O8 0.885818 0.650151 0.766695
O O9 0.905250 0.779845 0.809655
O O10 0.870752 0.751533 0.684310
O O11 0.000000 0.727962 0.733430
O O12 0.500000 0.881680 0.215877
O O13 0.423717 0.000000 0.212674
O O14 0.883757 0.116244 0.500000
O O15 0.881290 0.237644 0.438876
O O16 0.000000 0.203272 0.500000
O O17 0.089824 0.592189 0.500000
O O18 0.094709 0.500000 0.407637
O O19 0.141759 0.639559 0.390848
O O20 0.000000 0.604851 0.406213
O O21 0.134183 0.865817 0.097505
O O22 0.196574 0.000000 0.101669
O O23 0.245177 0.754824 0.613624
#
# Coordination Sequence:
#
# PCOD9561891 Si02
#       8
#    16  16  16  16   8  16  16  16
#     4   9  17  28  43  65  92 122 154 184 217 261
#     4  10  19  32  50  71  96 125 155 191 240 296
#     4   9  18  32  49  67  92 128 164 201 246 297
#     4   9  18  31  47  71 100 128 161 199 240 289
#     4  10  20  31  45  67  95 129 166 204 244 288
#     4   9  17  29  46  68  96 130 166 203 243 294
#     4  10  21  36  52  70  92 120 161 210 256 303
#     4  11  20  30  48  72  99 130 165 207 250 293
#
# _framework density 16.903151999999999
#
# number of rings (size 3 to 8) (size 9 to 14) (size 15 to 20)
#    0.000    2.400    0.667    4.000    0.000    3.533 
#    0.000    2.667    0.000    0.000    0.000    2.800 
#    0.000    0.267    0.000    1.467    0.000    0.000 
#
# Total GULP energy -668778.885038 kJ/mol
# GULP energy per Si atom -5573.157375 kJ/mol
# Density = 1.686468 g / cm^3
# Si number density = 16.903152 Si / 1000 Ang^3
#
#
#
# Elastic Constant Matrix: (Units=GPa)
#
#
# Indices 1 2 3 4 5 6 
#
# 1 71.6976 45.9361 -5.9982 0.0000 0.0000 0.0000
# 2 45.9361 71.6982 -5.9981 0.0000 0.0000 0.0000
# 3 -5.9982 -5.9981 41.9687 0.0000 0.0000 0.0000
# 4 0.0000 0.0000 0.0000 -10.8594 0.0000 0.0000
# 5 0.0000 0.0000 0.0000 0.0000 -10.8585 0.0000
# 6 0.0000 0.0000 0.0000 0.0000 0.0000 23.9773
#
#
#
# Elastic Compliance Matrix: (Units=1/GPa)
#
#
# Indices 1 2 3 4 5 6 
#
# 1 0.023722 -0.015095 0.001233 0.000000 0.000000 0.000000
# 2 -0.015095 0.023722 0.001233 0.000000 0.000000 0.000000
# 3 0.001233 0.001233 0.024180 0.000000 0.000000 0.000000
# 4 0.000000 0.000000 0.000000 -0.092086 0.000000 0.000000
# 5 0.000000 0.000000 0.000000 0.000000 -0.092094 0.000000
# 6 0.000000 0.000000 0.000000 0.000000 0.000000 0.041706
#
#
# Mechanical properties :
#
#
# Convention : Reuss Voigt Hill
#
# Bulk Modulus (GPa) = 21.56811 28.13823 24.85317
# Shear Modulus (GPa) = -165.91051 10.54686 -77.68182
#
# Velocity S-wave (km/s) = -9.91800 2.50063 -6.78651
# Velocity P-wave (km/s) = 10.87971 5.00204 6.83183
#
# Compressibility (1/GPa) = 0.04636476
#
# Stress axis : x y z
#
# Youngs Moduli (GPa) = 42.15484 42.15522 41.35699
#
# Poissons Ratio (x) = 0.63635 -0.05099
# Poissons Ratio (y) = 0.63634 -0.05099
# Poissons Ratio (z) = -0.05198 -0.05197
#
# Static dielectric constant tensor:
#      x y z
#    x 1.588620 0.000000 0.000000 
#    y 0.000000 1.588620 0.000000 
#    z 0.000000 0.000000 1.596490 
# 
# From -- ./inp_files/6825.got.cif
#   From: 2010.05.17/outbox.cif.g08.bks.cpg/sg123_4_cif.got.tgz:6825.got - 2010.05.20 11:43:04.
