data_PCOD9561363
_publ_section_title
;
Structure prediction by ZEFSAII (Michael W. Deem and Ramdas Pophale) SiO2 
 PCOD9561363
Probable space group: I -4 2 D
;
_chemical_formula_sum "Si O2"
_cell_formula_units_Z 48
_cell_length_a 15.444479
_cell_length_b 15.444479
_cell_length_c 8.105417
_cell_angle_alpha 90.000000
_cell_angle_beta 90.000000
_cell_angle_gamma 90.000000
_cell_volume 1933.400773
_symmetry_space_group_name_H-M "I -4 2 D"
_symmetry_group_IT_number 122
_symmetry_cell_setting 'tetragonal'
loop_
_space_group_symop_operation_xyz
x,y,z
y,-x,-z
-x,-y,z
-y,x,-z
x,1/2-y,1/4-z
-x,1/2+y,1/4-z
-y,1/2-x,1/4+z
y,1/2+x,1/4+z
1/2+x,1/2+y,1/2+z
1/2+y,1/2-x,1/2-z
1/2-x,1/2-y,1/2+z
1/2-y,1/2+x,1/2-z
1/2+x,-y,3/4-z
1/2-x,y,3/4-z
1/2-y,-x,3/4+z
1/2+y,x,3/4+z
loop_
_atom_site_type_symbol
_atom_site_label
_atom_site_fract_x
_atom_site_fract_y
_atom_site_fract_z
Si Si1 0.921370 0.944188 0.230434
Si Si2 0.772007 0.652125 0.181678
Si Si3 0.411543 0.157213 0.213783
O O1 0.848213 0.915792 0.102560
O O2 0.932729 0.857772 0.343798
O O3 0.890880 0.013658 0.366226
O O4 0.000000 0.000000 0.161734
O O5 0.795659 0.750000 0.125000
O O6 0.750000 0.654448 0.375000
O O7 0.687073 0.627501 0.074591
O O8 0.411750 0.250000 0.125000
#
# Coordination Sequence:
#
# PCOD9561363 Si02
#       3
#    16  16  16
#     4  12  24  46  76 117 156 204 260 325 396 471
#     4  11  25  49  78 112 157 213 266 323 394 467
#     4  11  21  43  77 111 152 204 260 321 393 465
#
# _framework density 24.826718
#
# number of rings (size 3 to 8) (size 9 to 14) (size 15 to 20)
#    0.000    0.667    3.333    7.000    0.000    0.000 
#    6.000    1.667    0.000    0.000    0.000    0.000 
#    0.000    0.000    0.000    0.000    0.000    0.000 
#
# Total GULP energy -134143.680480 kJ/mol
# GULP energy per Si atom -5589.320020 kJ/mol
# Density = 2.477021 g / cm^3
# Si number density = 24.826718 Si / 1000 Ang^3
#
#
#
# Elastic Constant Matrix: (Units=GPa)
#
#
# Indices 1 2 3 4 5 6 
#
# 1 123.6550 53.6590 52.2405 0.0000 0.0000 0.0000
# 2 53.6590 123.6550 52.2405 0.0000 0.0000 0.0000
# 3 52.2405 52.2405 164.3779 0.0000 0.0000 0.0000
# 4 0.0000 0.0000 0.0000 27.2563 0.0000 0.0000
# 5 0.0000 0.0000 0.0000 0.0000 27.2563 0.0000
# 6 0.0000 0.0000 0.0000 0.0000 0.0000 39.0834
#
#
#
# Elastic Compliance Matrix: (Units=1/GPa)
#
#
# Indices 1 2 3 4 5 6 
#
# 1 0.010613 -0.003674 -0.002205 0.000000 0.000000 0.000000
# 2 -0.003674 0.010613 -0.002205 0.000000 0.000000 0.000000
# 3 -0.002205 -0.002205 0.007485 0.000000 0.000000 0.000000
# 4 0.000000 0.000000 0.000000 0.036689 0.000000 0.000000
# 5 0.000000 0.000000 0.000000 0.000000 0.036689 0.000000
# 6 0.000000 0.000000 0.000000 0.000000 0.000000 0.025586
#
#
# Mechanical properties :
#
#
# Convention : Reuss Voigt Hill
#
# Bulk Modulus (GPa) = 79.72982 80.88529 80.30756
# Shear Modulus (GPa) = 33.77822 35.62238 34.70030
#
# Velocity S-wave (km/s) = 3.69258 3.79204 3.74264
# Velocity P-wave (km/s) = 7.09679 7.19885 7.14800
#
# Compressibility (1/GPa) = 0.01254236
#
# Stress axis : x y z
#
# Youngs Moduli (GPa) = 94.22532 94.22532 133.59561
#
# Poissons Ratio (x) = 0.34615 0.29462
# Poissons Ratio (y) = 0.34615 0.29462
# Poissons Ratio (z) = 0.20780 0.20780
#
# Static dielectric constant tensor:
#      x y z
#    x 1.862470 0.000000 0.000000 
#    y 0.000000 1.862470 0.000000 
#    z 0.000000 0.000000 1.968580 
# 
# From -- ./inp_files/2044.got.cif
#   From: 2010.05.17/outbox.cif.g08.bks.cpg/sg122_2_cif.got.tgz:2044.got - 2010.05.20 11:37:33.
