data_PCOD9561556
_publ_section_title
;
Structure prediction by ZEFSAII (Michael W. Deem and Ramdas Pophale) SiO2 
 PCOD9561556
Probable space group: I -4 2 D
;
_chemical_formula_sum "Si O2"
_cell_formula_units_Z 56
_cell_length_a 15.820276
_cell_length_b 15.820276
_cell_length_c 8.871991
_cell_angle_alpha 90.000000
_cell_angle_beta 90.000000
_cell_angle_gamma 90.000000
_cell_volume 2220.491957
_symmetry_space_group_name_H-M "I -4 2 D"
_symmetry_group_IT_number 122
_symmetry_cell_setting 'tetragonal'
loop_
_space_group_symop_operation_xyz
x,y,z
y,-x,-z
-x,-y,z
-y,x,-z
x,1/2-y,1/4-z
-x,1/2+y,1/4-z
-y,1/2-x,1/4+z
y,1/2+x,1/4+z
1/2+x,1/2+y,1/2+z
1/2+y,1/2-x,1/2-z
1/2-x,1/2-y,1/2+z
1/2-y,1/2+x,1/2-z
1/2+x,-y,3/4-z
1/2-x,y,3/4-z
1/2-y,-x,3/4+z
1/2+y,x,3/4+z
loop_
_atom_site_type_symbol
_atom_site_label
_atom_site_fract_x
_atom_site_fract_y
_atom_site_fract_z
Si Si1 0.500000 0.000000 0.250000
Si Si2 0.250000 0.163010 0.875000
Si Si3 0.855659 0.750000 0.625000
Si Si4 0.661473 0.063335 0.132370
Si Si5 0.167978 0.057512 0.130784
Si Si6 0.500000 0.000000 0.750000
O O1 0.581578 0.003547 0.144365
O O2 0.197359 0.219945 0.764389
O O3 0.311171 0.110745 0.768007
O O4 0.904456 0.672748 0.696605
O O5 0.749345 0.006887 0.127001
O O6 0.626280 0.137260 0.013868
O O7 0.084840 0.004054 0.097816
#
# Coordination Sequence:
#
# PCOD9561556 Si02
#       6
#     4   8   8  16  16   4
#     4  12  26  48  80 122 170 232 296 378 478 584
#     4  12  26  46  74 112 156 210 276 346 426 524
#     4  12  26  46  74 112 156 210 276 346 426 524
#     4  12  27  51  82 123 171 228 297 376 468 568
#     4  12  27  51  82 123 171 228 297 376 468 568
#     4  12  26  48  80 122 170 232 296 378 478 584
#
# _framework density 25.219638
#
# number of rings (size 3 to 8) (size 9 to 14) (size 15 to 20)
#    0.000    0.000    0.000    9.429    0.000    4.571 
#    0.000    0.000    0.000    0.000    0.000    0.000 
#    0.000    0.000    0.000    0.000    0.000    0.000 
#
# Total GULP energy -155929.571746 kJ/mol
# GULP energy per Si atom -5568.913277 kJ/mol
# Density = 2.516224 g / cm^3
# Si number density = 25.219638 Si / 1000 Ang^3
#
#
#
# Elastic Constant Matrix: (Units=GPa)
#
#
# Indices 1 2 3 4 5 6 
#
# 1 123.1987 88.7973 31.6332 0.0000 0.0000 0.0000
# 2 88.7973 123.1987 31.6332 0.0000 0.0000 0.0000
# 3 31.6332 31.6332 95.7751 0.0000 0.0000 0.0000
# 4 0.0000 0.0000 0.0000 48.6923 0.0000 0.0000
# 5 0.0000 0.0000 0.0000 0.0000 48.6923 0.0000
# 6 0.0000 0.0000 0.0000 0.0000 0.0000 55.4216
#
#
#
# Elastic Compliance Matrix: (Units=1/GPa)
#
#
# Indices 1 2 3 4 5 6 
#
# 1 0.017151 -0.011918 -0.001728 0.000000 0.000000 0.000000
# 2 -0.011918 0.017151 -0.001728 0.000000 0.000000 0.000000
# 3 -0.001728 -0.001728 0.011583 0.000000 0.000000 0.000000
# 4 0.000000 0.000000 0.000000 0.020537 0.000000 0.000000
# 5 0.000000 0.000000 0.000000 0.000000 0.020537 0.000000
# 6 0.000000 0.000000 0.000000 0.000000 0.000000 0.018043
#
#
# Mechanical properties :
#
#
# Convention : Reuss Voigt Hill
#
# Bulk Modulus (GPa) = 66.07122 71.81109 68.94115
# Shear Modulus (GPa) = 35.51230 43.23515 39.37372
#
# Velocity S-wave (km/s) = 3.75656 4.14496 3.95553
# Velocity P-wave (km/s) = 6.71349 7.17242 6.94675
#
# Compressibility (1/GPa) = 0.01513518
#
# Stress axis : x y z
#
# Youngs Moduli (GPa) = 58.30649 58.30649 86.33475
#
# Poissons Ratio (x) = 0.69489 0.14922
# Poissons Ratio (y) = 0.69489 0.14922
# Poissons Ratio (z) = 0.10077 0.10077
#
# Static dielectric constant tensor:
#      x y z
#    x 1.957500 0.000000 0.000000 
#    y 0.000000 1.957500 0.000000 
#    z 0.000000 0.000000 1.954910 
# 
# From -- ./inp_files/2252.got.cif
#   From: 2010.05.17/outbox.cif.g08.bks.cpg/sg122_2_cif.got.tgz:2252.got - 2010.05.20 11:37:33.
