data_PCOD9561465
_publ_section_title
;
Structure prediction by ZEFSAII (Michael W. Deem and Ramdas Pophale) SiO2 
 PCOD9561465
Probable space group: I -4 2 D
;
_chemical_formula_sum "Si O2"
_cell_formula_units_Z 56
_cell_length_a 15.554642
_cell_length_b 15.554642
_cell_length_c 10.325302
_cell_angle_alpha 90.000000
_cell_angle_beta 90.000000
_cell_angle_gamma 90.000000
_cell_volume 2498.174684
_symmetry_space_group_name_H-M "I -4 2 D"
_symmetry_group_IT_number 122
_symmetry_cell_setting 'tetragonal'
loop_
_space_group_symop_operation_xyz
x,y,z
y,-x,-z
-x,-y,z
-y,x,-z
x,1/2-y,1/4-z
-x,1/2+y,1/4-z
-y,1/2-x,1/4+z
y,1/2+x,1/4+z
1/2+x,1/2+y,1/2+z
1/2+y,1/2-x,1/2-z
1/2-x,1/2-y,1/2+z
1/2-y,1/2+x,1/2-z
1/2+x,-y,3/4-z
1/2-x,y,3/4-z
1/2-y,-x,3/4+z
1/2+y,x,3/4+z
loop_
_atom_site_type_symbol
_atom_site_label
_atom_site_fract_x
_atom_site_fract_y
_atom_site_fract_z
Si Si1 0.705223 0.509860 0.013694
Si Si2 0.500000 0.000000 0.750000
Si Si3 0.108085 0.649100 0.356034
Si Si4 0.261431 0.652817 0.164399
Si Si5 0.000000 0.000000 0.500000
O O1 0.758320 0.566821 0.116909
O O2 0.728480 0.411670 0.046888
O O3 0.602968 0.521704 0.027872
O O4 0.750000 0.529108 0.875000
O O5 0.577194 0.964053 0.662701
O O6 0.168371 0.648797 0.230668
O O7 0.169074 0.626718 0.476861
O O8 0.277405 0.750000 0.125000
#
# Coordination Sequence:
#
# PCOD9561465 Si02
#       5
#    16   4  16  16   4
#     4  12  27  48  74 116 154 205 259 320 398 465
#     4  12  24  50  76 114 148 196 258 320 374 468
#     4  11  25  48  74 108 150 196 260 317 389 460
#     4  11  26  46  75 105 148 201 257 318 382 462
#     4  12  28  46  76 112 162 200 250 328 384 470
#
# _framework density 22.416367999999999
#
# number of rings (size 3 to 8) (size 9 to 14) (size 15 to 20)
#    0.000    0.571    2.857    4.286    8.000    6.857 
#    0.000    0.000    0.000    0.000    0.000    0.000 
#    0.000    0.000    0.000    0.000    0.000    0.000 
#
# Total GULP energy -156298.691716 kJ/mol
# GULP energy per Si atom -5582.096133 kJ/mol
# Density = 2.236535 g / cm^3
# Si number density = 22.416368 Si / 1000 Ang^3
#
#
#
# Elastic Constant Matrix: (Units=GPa)
#
#
# Indices 1 2 3 4 5 6 
#
# 1 153.7501 73.2729 30.3172 0.0000 0.0000 0.0000
# 2 73.2729 153.7501 30.3172 0.0000 0.0000 0.0000
# 3 30.3172 30.3172 43.1367 0.0000 0.0000 0.0000
# 4 0.0000 0.0000 0.0000 19.6756 0.0000 0.0000
# 5 0.0000 0.0000 0.0000 0.0000 19.6756 0.0000
# 6 0.0000 0.0000 0.0000 0.0000 0.0000 38.1894
#
#
#
# Elastic Compliance Matrix: (Units=1/GPa)
#
#
# Indices 1 2 3 4 5 6 
#
# 1 0.008924 -0.003502 -0.003811 0.000000 0.000000 0.000000
# 2 -0.003502 0.008924 -0.003811 0.000000 0.000000 0.000000
# 3 -0.003811 -0.003811 0.028539 0.000000 0.000000 0.000000
# 4 0.000000 0.000000 0.000000 0.050824 0.000000 0.000000
# 5 0.000000 0.000000 0.000000 0.000000 0.050824 0.000000
# 6 0.000000 0.000000 0.000000 0.000000 0.000000 0.026185
#
#
# Mechanical properties :
#
#
# Convention : Reuss Voigt Hill
#
# Bulk Modulus (GPa) = 41.42507 68.71682 55.07095
# Shear Modulus (GPa) = 24.44794 29.95678 27.20236
#
# Velocity S-wave (km/s) = 3.30605 3.65962 3.48732
# Velocity P-wave (km/s) = 5.75267 6.96982 6.39029
#
# Compressibility (1/GPa) = 0.02413997
#
# Stress axis : x y z
#
# Youngs Moduli (GPa) = 112.05335 112.05335 35.03947
#
# Poissons Ratio (x) = 0.39236 0.13354
# Poissons Ratio (y) = 0.39236 0.13354
# Poissons Ratio (z) = 0.42706 0.42706
#
# Static dielectric constant tensor:
#      x y z
#    x 1.835450 0.000000 0.000000 
#    y 0.000000 1.835450 0.000000 
#    z 0.000000 0.000000 1.907370 
# 
# From -- ./inp_files/3973.got.cif
#   From: 2010.05.17/outbox.cif.g08.bks.cpg/sg122_2_cif.got.tgz:3973.got - 2010.05.20 11:37:33.
