data_PCOD9561794
_publ_section_title
;
Structure prediction by ZEFSAII (Michael W. Deem and Ramdas Pophale) SiO2 
 PCOD9561794
Probable space group: P 4/M M M
;
_chemical_formula_sum "Si O2"
_cell_formula_units_Z 88
_cell_length_a 13.558167
_cell_length_b 13.558167
_cell_length_c 28.661379
_cell_angle_alpha 90.000000
_cell_angle_beta 90.000000
_cell_angle_gamma 90.000000
_cell_volume 5268.646249
_symmetry_space_group_name_H-M "P 4/M M M"
_symmetry_group_IT_number 123
_symmetry_cell_setting 'tetragonal'
loop_
_space_group_symop_operation_xyz
x,y,z
-y,x,z
-x,-y,z
y,-x,z
x,-y,-z
-x,y,-z
y,x,-z
-y,-x,-z
-x,-y,-z
y,-x,-z
x,y,-z
-y,x,-z
-x,y,z
x,-y,z
-y,-x,z
y,x,z
loop_
_atom_site_type_symbol
_atom_site_label
_atom_site_fract_x
_atom_site_fract_y
_atom_site_fract_z
Si Si1 0.119562 0.612336 0.905290
Si Si2 0.615499 0.222420 0.554704
Si Si3 0.720512 0.115952 0.363353
Si Si4 0.882085 0.721736 0.190501
Si Si5 0.780446 0.383295 0.723421
Si Si6 0.118498 0.723284 0.000000
O O1 0.155970 0.500000 0.902500
O O2 0.145230 0.674288 0.859432
O O3 0.000000 0.608273 0.906042
O O4 0.148716 0.664223 0.953486
O O5 0.625463 0.196573 0.500000
O O6 0.500000 0.233860 0.565218
O O7 0.676242 0.323759 0.562313
O O8 0.665472 0.143133 0.588510
O O9 0.822058 0.177943 0.362031
O O10 0.653403 0.158769 0.321637
O O11 0.735460 0.000000 0.358336
O O12 0.825093 0.825093 0.195697
O O13 0.841891 0.650916 0.231220
O O14 0.000000 0.731912 0.193336
O O15 0.765799 0.500000 0.722659
O O16 0.678637 0.321364 0.723721
O O17 0.172106 0.827895 0.000000
O O18 0.000000 0.733107 0.000000
#
# Coordination Sequence:
#
# PCOD9561794 Si02
#       6
#    16  16  16  16  16   8
#     4   9  17  30  48  68  91 122 160 202 246 287
#     4   9  18  32  50  74 103 133 166 204 246 294
#     4  10  21  36  53  74 100 130 166 207 249 295
#     4  10  20  33  50  74 103 134 168 204 243 291
#     4  10  21  36  54  77 103 131 165 204 247 295
#     4  10  19  30  45  67  96 128 161 197 240 295
#
# _framework density 16.702583000000001
#
# number of rings (size 3 to 8) (size 9 to 14) (size 15 to 20)
#    0.000    2.364    0.000    2.455    0.000    5.545 
#    0.000    1.818    0.000    9.818    0.000    2.545 
#    0.000   13.818    0.000    0.000    0.000    0.000 
#
# Total GULP energy -490822.583678 kJ/mol
# GULP energy per Si atom -5577.529360 kJ/mol
# Density = 1.666457 g / cm^3
# Si number density = 16.702583 Si / 1000 Ang^3
#
#
#
# Elastic Constant Matrix: (Units=GPa)
#
#
# Indices 1 2 3 4 5 6 
#
# 1 57.3573 133.1561 55.5408 0.0000 0.0000 0.0000
# 2 133.1561 57.3562 55.5408 0.0000 0.0000 0.0000
# 3 55.5408 55.5408 95.7085 0.0000 0.0000 0.0000
# 4 0.0000 0.0000 0.0000 22.0071 0.0000 0.0000
# 5 0.0000 0.0000 0.0000 0.0000 22.0073 0.0000
# 6 0.0000 0.0000 0.0000 0.0000 0.0000 5.1768
#
#
#
# Elastic Compliance Matrix: (Units=1/GPa)
#
#
# Indices 1 2 3 4 5 6 
#
# 1 -0.002630 0.010563 -0.004604 0.000000 0.000000 0.000000
# 2 0.010563 -0.002630 -0.004604 0.000000 0.000000 0.000000
# 3 -0.004604 -0.004604 0.015792 0.000000 0.000000 0.000000
# 4 0.000000 0.000000 0.000000 0.045440 0.000000 0.000000
# 5 0.000000 0.000000 0.000000 0.000000 0.045439 0.000000
# 6 0.000000 0.000000 0.000000 0.000000 0.000000 0.193171
#
#
# Mechanical properties :
#
#
# Convention : Reuss Voigt Hill
#
# Bulk Modulus (GPa) = 75.51100 77.65528 76.58314
# Shear Modulus (GPa) = 16.87560 7.58386 12.22973
#
# Velocity S-wave (km/s) = 3.18206 2.13316 2.70887
# Velocity P-wave (km/s) = 7.66864 7.25680 7.46556
#
# Compressibility (1/GPa) = 0.01324310
#
# Stress axis : x y z
#
# Youngs Moduli (GPa) = -380.27820 -380.26190 63.32459
#
# Poissons Ratio (x) = 4.01671 0.29153
# Poissons Ratio (y) = 4.01688 0.29153
# Poissons Ratio (z) = -1.75073 -1.75063
#
# Static dielectric constant tensor:
#      x y z
#    x 1.539040 0.000000 0.000000 
#    y 0.000000 1.539040 0.000000 
#    z 0.000000 0.000000 1.573560 
# 
# From -- ./inp_files/8449.got.cif
#   From: 2010.05.17/outbox.cif.g08.bks.cpg/sg123_5_cif.got.tgz:8449.got - 2010.05.20 11:43:04.
