data_PCOD9561472
_publ_section_title
;
Structure prediction by ZEFSAII (Michael W. Deem and Ramdas Pophale) SiO2 
 PCOD9561472
Probable space group: I -4 2 D
;
_chemical_formula_sum "Si O2"
_cell_formula_units_Z 40
_cell_length_a 10.402757
_cell_length_b 10.402757
_cell_length_c 15.139732
_cell_angle_alpha 90.000000
_cell_angle_beta 90.000000
_cell_angle_gamma 90.000000
_cell_volume 1638.381725
_symmetry_space_group_name_H-M "I -4 2 D"
_symmetry_group_IT_number 122
_symmetry_cell_setting 'tetragonal'
loop_
_space_group_symop_operation_xyz
x,y,z
y,-x,-z
-x,-y,z
-y,x,-z
x,1/2-y,1/4-z
-x,1/2+y,1/4-z
-y,1/2-x,1/4+z
y,1/2+x,1/4+z
1/2+x,1/2+y,1/2+z
1/2+y,1/2-x,1/2-z
1/2-x,1/2-y,1/2+z
1/2-y,1/2+x,1/2-z
1/2+x,-y,3/4-z
1/2-x,y,3/4-z
1/2-y,-x,3/4+z
1/2+y,x,3/4+z
loop_
_atom_site_type_symbol
_atom_site_label
_atom_site_fract_x
_atom_site_fract_y
_atom_site_fract_z
Si Si1 0.438471 0.309629 0.792068
Si Si2 0.100895 0.750000 0.125000
Si Si3 0.701605 0.547004 0.024982
O O1 0.352044 0.188098 0.822183
O O2 0.509385 0.307350 0.699288
O O3 0.545284 0.305616 0.868817
O O4 0.332601 0.421847 0.776677
O O5 0.649343 0.404902 0.004614
#
# Coordination Sequence:
#
# PCOD9561472 Si02
#       3
#    16   8  16
#     4  12  27  52  78 114 161 205 274 324 412 487
#     4  12  28  52  76 114 154 212 260 330 400 488
#     4  11  25  50  79 116 157 205 264 337 405 485
#
# _framework density 24.414335000000001
#
# number of rings (size 3 to 8) (size 9 to 14) (size 15 to 20)
#    0.000    0.400    4.000    2.400    0.000   15.200 
#   14.400    0.000    0.000    0.000    0.000    0.000 
#    0.000    0.000    0.000    0.000    0.000    0.000 
#
# Total GULP energy -111876.763541 kJ/mol
# GULP energy per Si atom -5593.838177 kJ/mol
# Density = 2.435877 g / cm^3
# Si number density = 24.414335 Si / 1000 Ang^3
#
#
#
# Elastic Constant Matrix: (Units=GPa)
#
#
# Indices 1 2 3 4 5 6 
#
# 1 61.1601 10.3804 4.1114 0.0000 0.0000 0.0000
# 2 10.3804 61.1601 4.1114 0.0000 0.0000 0.0000
# 3 4.1114 4.1114 92.8205 0.0000 0.0000 0.0000
# 4 0.0000 0.0000 0.0000 43.4764 0.0000 0.0000
# 5 0.0000 0.0000 0.0000 0.0000 43.4764 0.0000
# 6 0.0000 0.0000 0.0000 0.0000 0.0000 28.8697
#
#
#
# Elastic Compliance Matrix: (Units=1/GPa)
#
#
# Indices 1 2 3 4 5 6 
#
# 1 0.016871 -0.002822 -0.000622 0.000000 0.000000 0.000000
# 2 -0.002822 0.016871 -0.000622 0.000000 0.000000 0.000000
# 3 -0.000622 -0.000622 0.010829 0.000000 0.000000 0.000000
# 4 0.000000 0.000000 0.000000 0.023001 0.000000 0.000000
# 5 0.000000 0.000000 0.000000 0.000000 0.023001 0.000000
# 6 0.000000 0.000000 0.000000 0.000000 0.000000 0.034638
#
#
# Mechanical properties :
#
#
# Convention : Reuss Voigt Hill
#
# Bulk Modulus (GPa) = 27.44341 28.03856 27.74099
# Shear Modulus (GPa) = 34.36657 36.26701 35.31679
#
# Velocity S-wave (km/s) = 3.75592 3.85837 3.80749
# Velocity P-wave (km/s) = 5.48401 5.59989 5.54225
#
# Compressibility (1/GPa) = 0.03643862
#
# Stress axis : x y z
#
# Youngs Moduli (GPa) = 59.27234 59.27234 92.34792
#
# Poissons Ratio (x) = 0.16724 0.05747
# Poissons Ratio (y) = 0.16724 0.05747
# Poissons Ratio (z) = 0.03689 0.03689
#
# Static dielectric constant tensor:
#      x y z
#    x 1.950670 0.000000 0.000000 
#    y 0.000000 1.950670 0.000000 
#    z 0.000000 0.000000 1.711440 
# 
# From -- ./inp_files/4903.got.cif
#   From: 2010.05.17/outbox.cif.g08.bks.cpg/sg122_3_cif.got.tgz:4903.got - 2010.05.20 11:37:33.
