data_PCOD9561667
_publ_section_title
;
Structure prediction by ZEFSAII (Michael W. Deem and Ramdas Pophale) SiO2 
 PCOD9561667
Probable space group: P 4/M M M
;
_chemical_formula_sum "Si O2"
_cell_formula_units_Z 58
_cell_length_a 12.524920
_cell_length_b 12.524920
_cell_length_c 21.662776
_cell_angle_alpha 90.000000
_cell_angle_beta 90.000000
_cell_angle_gamma 90.000000
_cell_volume 3398.318112
_symmetry_space_group_name_H-M "P 4/M M M"
_symmetry_group_IT_number 123
_symmetry_cell_setting 'tetragonal'
loop_
_space_group_symop_operation_xyz
x,y,z
-y,x,z
-x,-y,z
y,-x,z
x,-y,-z
-x,y,-z
y,x,-z
-y,-x,-z
-x,-y,-z
y,-x,-z
x,y,-z
-y,x,-z
-x,y,z
x,-y,z
-y,-x,z
y,x,z
loop_
_atom_site_type_symbol
_atom_site_label
_atom_site_fract_x
_atom_site_fract_y
_atom_site_fract_z
Si Si1 0.293120 0.880463 0.753104
Si Si2 0.298552 0.124719 0.394310
Si Si3 0.323338 0.500000 0.073784
Si Si4 0.500000 0.265200 0.430758
Si Si5 0.122055 0.500000 0.837942
Si Si6 0.500000 0.500000 0.382079
O O1 0.206684 0.793317 0.770003
O O2 0.315723 0.871898 0.679941
O O3 0.398019 0.866176 0.793649
O O4 0.251384 0.000000 0.763620
O O5 0.189298 0.189298 0.407696
O O6 0.396431 0.190841 0.422579
O O7 0.295952 0.000000 0.412850
O O8 0.396816 0.396816 0.088735
O O9 0.213451 0.500000 0.110758
O O10 0.306157 0.500000 0.000000
O O11 0.500000 0.311357 0.500000
O O12 0.500000 0.367171 0.386131
O O13 0.000000 0.500000 0.862606
#
# Coordination Sequence:
#
# PCOD9561667 Si02
#       6
#    16  16   8   8   8   2
#     4   9  18  32  50  72  99 130 162 197 238 284
#     4  10  21  36  55  78 104 134 167 204 247 299
#     4   9  18  32  49  68  93 128 167 204 239 280
#     4  12  23  39  58  76 100 128 165 209 257 304
#     4  10  18  29  48  72 100 129 157 198 246 288
#     4  12  25  40  60  80  96 124 164 212 253 298
#
# _framework density 17.067266
#
# number of rings (size 3 to 8) (size 9 to 14) (size 15 to 20)
#    0.000    2.069    1.379    3.103    0.000    4.138 
#    0.000    2.759    0.000    0.000    0.000    1.931 
#    0.000    0.000    0.000   25.655    0.000    0.276 
#
# Total GULP energy -323107.791498 kJ/mol
# GULP energy per Si atom -5570.823991 kJ/mol
# Density = 1.702842 g / cm^3
# Si number density = 17.067266 Si / 1000 Ang^3
#
#
#
# Elastic Constant Matrix: (Units=GPa)
#
#
# Indices 1 2 3 4 5 6 
#
# 1 121.7361 65.0339 29.3478 0.0000 0.0000 0.0000
# 2 65.0339 121.7361 29.3478 0.0000 0.0000 0.0000
# 3 29.3478 29.3478 22.9949 0.0000 0.0000 0.0000
# 4 0.0000 0.0000 0.0000 46.2598 0.0000 0.0000
# 5 0.0000 0.0000 0.0000 0.0000 46.2598 0.0000
# 6 0.0000 0.0000 0.0000 0.0000 0.0000 30.9992
#
#
#
# Elastic Compliance Matrix: (Units=1/GPa)
#
#
# Indices 1 2 3 4 5 6 
#
# 1 0.013288 -0.004348 -0.011410 0.000000 0.000000 0.000000
# 2 -0.004348 0.013288 -0.011410 0.000000 0.000000 0.000000
# 3 -0.011410 -0.011410 0.072612 0.000000 0.000000 0.000000
# 4 0.000000 0.000000 0.000000 0.021617 0.000000 0.000000
# 5 0.000000 0.000000 0.000000 0.000000 0.021617 0.000000
# 6 0.000000 0.000000 0.000000 0.000000 0.000000 0.032259
#
#
# Mechanical properties :
#
#
# Convention : Reuss Voigt Hill
#
# Bulk Modulus (GPa) = 22.29519 57.10288 39.69903
# Shear Modulus (GPa) = 20.49459 34.21961 27.35710
#
# Velocity S-wave (km/s) = 3.46903 4.48256 4.00796
# Velocity P-wave (km/s) = 5.39788 7.76668 6.68799
#
# Compressibility (1/GPa) = 0.04485272
#
# Stress axis : x y z
#
# Youngs Moduli (GPa) = 75.25615 75.25615 13.77184
#
# Poissons Ratio (x) = 0.32722 0.15713
# Poissons Ratio (y) = 0.32722 0.15713
# Poissons Ratio (z) = 0.85865 0.85865
#
# Static dielectric constant tensor:
#      x y z
#    x 1.570230 0.000000 0.000000 
#    y 0.000000 1.570230 0.000000 
#    z 0.000000 0.000000 1.568610 
# 
# From -- ./inp_files/6200.got.cif
#   From: 2010.05.17/outbox.cif.g08.bks.cpg/sg123_4_cif.got.tgz:6200.got - 2010.05.20 11:43:04.
