data_PCOD9561949
_publ_section_title
;
Structure prediction by ZEFSAII (Michael W. Deem and Ramdas Pophale) SiO2 
 PCOD9561949
Probable space group: P 4/M M M
;
_chemical_formula_sum "Si O2"
_cell_formula_units_Z 58
_cell_length_a 12.833530
_cell_length_b 12.833530
_cell_length_c 20.530257
_cell_angle_alpha 90.000000
_cell_angle_beta 90.000000
_cell_angle_gamma 90.000000
_cell_volume 3381.322904
_symmetry_space_group_name_H-M "P 4/M M M"
_symmetry_group_IT_number 123
_symmetry_cell_setting 'tetragonal'
loop_
_space_group_symop_operation_xyz
x,y,z
-y,x,z
-x,-y,z
y,-x,z
x,-y,-z
-x,y,-z
y,x,-z
-y,-x,-z
-x,-y,-z
y,-x,-z
x,y,-z
-y,x,-z
-x,y,z
x,-y,z
-y,-x,z
y,x,z
loop_
_atom_site_type_symbol
_atom_site_label
_atom_site_fract_x
_atom_site_fract_y
_atom_site_fract_z
Si Si1 0.382045 0.617956 0.079227
Si Si2 0.239511 0.000000 0.848422
Si Si3 0.786205 0.213796 0.921766
Si Si4 0.124840 0.704478 0.500000
Si Si5 0.797063 0.623324 0.361970
Si Si6 0.000000 0.000000 0.806696
Si Si7 0.375426 0.000000 0.277531
O O1 0.357144 0.500000 0.099941
O O2 0.298368 0.701633 0.100565
O O3 0.381903 0.618098 0.000000
O O4 0.243633 0.101687 0.893470
O O5 0.326717 0.000000 0.793555
O O6 0.128063 0.000000 0.812514
O O7 0.789472 0.210529 0.000000
O O8 0.183901 0.816100 0.500000
O O9 0.163802 0.644618 0.564357
O O10 0.000000 0.713295 0.500000
O O11 0.775289 0.500000 0.353447
O O12 0.697481 0.697481 0.349880
O O13 0.894736 0.654664 0.316233
O O14 0.500000 0.000000 0.274652
#
# Coordination Sequence:
#
# PCOD9561949 Si02
#       7
#     8   8   8   8  16   2   8
#     4   8  15  30  52  77 104 133 167 209 261 322
#     4  10  21  36  55  80 113 142 179 226 271 328
#     4  10  20  35  57  82 108 141 178 222 278 335
#     4  10  19  34  56  84 118 155 196 243 290 334
#     4  10  21  36  58  85 115 153 194 236 284 335
#     4   8  20  36  53  76 100 141 172 204 266 320
#     4  10  22  38  57  81 113 154 191 229 279 336
#
# _framework density 17.153048999999999
#
# number of rings (size 3 to 8) (size 9 to 14) (size 15 to 20)
#    0.000    2.345    1.379    1.241    3.862    2.069 
#    0.000    2.069    0.000    6.621    0.000    0.000 
#    0.000    0.000    0.000    0.000    0.000    0.000 
#
# Total GULP energy -322888.665646 kJ/mol
# GULP energy per Si atom -5567.045959 kJ/mol
# Density = 1.711401 g / cm^3
# Si number density = 17.153049 Si / 1000 Ang^3
#
#
#
# Elastic Constant Matrix: (Units=GPa)
#
#
# Indices 1 2 3 4 5 6 
#
# 1 112.6797 89.1484 34.1463 0.0000 0.0000 0.0000
# 2 89.1484 112.6795 34.1460 0.0000 0.0000 0.0000
# 3 34.1463 34.1460 79.0284 0.0000 0.0000 0.0000
# 4 0.0000 0.0000 0.0000 22.0945 0.0000 0.0000
# 5 0.0000 0.0000 0.0000 0.0000 22.0948 0.0000
# 6 0.0000 0.0000 0.0000 0.0000 0.0000 29.2782
#
#
#
# Elastic Compliance Matrix: (Units=1/GPa)
#
#
# Indices 1 2 3 4 5 6 
#
# 1 0.024150 -0.018347 -0.002507 0.000000 0.000000 0.000000
# 2 -0.018347 0.024150 -0.002507 0.000000 0.000000 0.000000
# 3 -0.002507 -0.002507 0.014820 0.000000 0.000000 0.000000
# 4 0.000000 0.000000 0.000000 0.045260 0.000000 0.000000
# 5 0.000000 0.000000 0.000000 0.000000 0.045260 0.000000
# 6 0.000000 0.000000 0.000000 0.000000 0.000000 0.034155
#
#
# Mechanical properties :
#
#
# Convention : Reuss Voigt Hill
#
# Bulk Modulus (GPa) = 60.98615 68.80766 64.89691
# Shear Modulus (GPa) = 20.83472 24.48995 22.66233
#
# Velocity S-wave (km/s) = 3.48894 3.78263 3.63875
# Velocity P-wave (km/s) = 7.20150 7.69927 7.45454
#
# Compressibility (1/GPa) = 0.01639716
#
# Stress axis : x y z
#
# Youngs Moduli (GPa) = 41.40796 41.40799 67.47440
#
# Poissons Ratio (x) = 0.75970 0.16919
# Poissons Ratio (y) = 0.75970 0.16918
# Poissons Ratio (z) = 0.10383 0.10382
#
# Static dielectric constant tensor:
#      x y z
#    x 1.563010 0.000000 0.000000 
#    y 0.000000 1.563010 0.000000 
#    z 0.000000 0.000000 1.563960 
# 
# From -- ./inp_files/6207.got.cif
#   From: 2010.05.17/outbox.cif.g08.bks.cpg/sg123_4_cif.got.tgz:6207.got - 2010.05.20 11:43:04.
