data_PCOD9561679
_publ_section_title
;
Structure prediction by ZEFSAII (Michael W. Deem and Ramdas Pophale) SiO2 
 PCOD9561679
Probable space group: P 4/M M M
;
_chemical_formula_sum "Si O2"
_cell_formula_units_Z 88
_cell_length_a 18.523777
_cell_length_b 18.523777
_cell_length_c 15.985237
_cell_angle_alpha 90.000000
_cell_angle_beta 90.000000
_cell_angle_gamma 90.000000
_cell_volume 5485.019397
_symmetry_space_group_name_H-M "P 4/M M M"
_symmetry_group_IT_number 123
_symmetry_cell_setting 'tetragonal'
loop_
_space_group_symop_operation_xyz
x,y,z
-y,x,z
-x,-y,z
y,-x,z
x,-y,-z
-x,y,-z
y,x,-z
-y,-x,-z
-x,-y,-z
y,-x,-z
x,y,-z
-y,x,-z
-x,y,z
x,-y,z
-y,-x,z
y,x,z
loop_
_atom_site_type_symbol
_atom_site_label
_atom_site_fract_x
_atom_site_fract_y
_atom_site_fract_z
Si Si1 0.863423 0.627202 0.819476
Si Si2 0.419471 0.296871 0.766509
Si Si3 0.144314 0.265136 0.320297
Si Si4 0.248495 0.628982 0.592407
Si Si5 0.000000 0.578387 0.713012
Si Si6 0.414127 0.086665 0.000000
Si Si7 0.000000 0.279819 0.400517
O O1 0.781861 0.598136 0.805763
O O2 0.865838 0.704788 0.773433
O O3 0.928187 0.585692 0.770540
O O4 0.882406 0.621922 0.916412
O O5 0.500000 0.320620 0.791660
O O6 0.356419 0.356419 0.782800
O O7 0.418802 0.280047 0.666880
O O8 0.203483 0.203483 0.321177
O O9 0.176052 0.333282 0.373135
O O10 0.071357 0.242219 0.364936
O O11 0.239219 0.597111 0.500000
O O12 0.305874 0.694127 0.585656
O O13 0.000000 0.642155 0.645591
O O14 0.000000 0.500000 0.672665
O O15 0.500000 0.104354 0.000000
O O16 0.408161 0.000000 0.000000
O O17 0.000000 0.285115 0.500000
#
# Coordination Sequence:
#
# PCOD9561679 Si02
#       7
#    16  16  16  16   8   8   8
#     4  10  19  33  51  75 101 131 166 197 241 307
#     4  10  20  33  48  66  93 130 174 221 261 295
#     4   9  18  33  50  69  99 135 169 208 251 297
#     4   8  14  26  45  66  88 119 158 201 251 302
#     4  10  18  30  48  70 106 140 159 191 241 309
#     4  11  20  30  51  82 113 136 153 182 238 310
#     4  10  20  29  45  74  98 128 172 210 251 300
#
# _framework density 16.043699
#
# number of rings (size 3 to 8) (size 9 to 14) (size 15 to 20)
#    0.000    2.455    0.909    3.818    0.000    1.818 
#    0.000    1.818    0.000    6.818    0.000    3.182 
#    0.000    2.182    0.000    0.818    0.000    0.000 
#
# Total GULP energy -489908.210394 kJ/mol
# GULP energy per Si atom -5567.138754 kJ/mol
# Density = 1.600718 g / cm^3
# Si number density = 16.043699 Si / 1000 Ang^3
#
#
#
# Elastic Constant Matrix: (Units=GPa)
#
#
# Indices 1 2 3 4 5 6 
#
# 1 85.0463 38.6564 34.2944 0.0000 0.0000 0.0000
# 2 38.6564 85.0463 34.2944 0.0000 0.0000 0.0000
# 3 34.2944 34.2944 127.6028 0.0000 0.0000 0.0000
# 4 0.0000 0.0000 0.0000 8.9860 0.0000 0.0000
# 5 0.0000 0.0000 0.0000 0.0000 8.9860 0.0000
# 6 0.0000 0.0000 0.0000 0.0000 0.0000 6.2677
#
#
#
# Elastic Compliance Matrix: (Units=1/GPa)
#
#
# Indices 1 2 3 4 5 6 
#
# 1 0.015528 -0.006028 -0.002553 0.000000 0.000000 0.000000
# 2 -0.006028 0.015528 -0.002553 0.000000 0.000000 0.000000
# 3 -0.002553 -0.002553 0.009209 0.000000 0.000000 0.000000
# 4 0.000000 0.000000 0.000000 0.111284 0.000000 0.000000
# 5 0.000000 0.000000 0.000000 0.000000 0.111284 0.000000
# 6 0.000000 0.000000 0.000000 0.000000 0.000000 0.159547
#
#
# Mechanical properties :
#
#
# Convention : Reuss Voigt Hill
#
# Bulk Modulus (GPa) = 55.56846 56.90955 56.23901
# Shear Modulus (GPa) = 11.09514 17.54464 14.31989
#
# Velocity S-wave (km/s) = 2.63260 3.31048 2.99081
# Velocity P-wave (km/s) = 6.62960 7.08244 6.85976
#
# Compressibility (1/GPa) = 0.01799582
#
# Stress axis : x y z
#
# Youngs Moduli (GPa) = 64.40000 64.40000 108.58773
#
# Poissons Ratio (x) = 0.38823 0.27723
# Poissons Ratio (y) = 0.38823 0.27723
# Poissons Ratio (z) = 0.16442 0.16442
#
# Static dielectric constant tensor:
#      x y z
#    x 1.546560 0.000000 0.000000 
#    y 0.000000 1.546560 0.000000 
#    z 0.000000 0.000000 1.543860 
# 
# From -- ./inp_files/4143.got.cif
#   From: 2010.05.17/outbox.cif.g08.bks.cpg/sg123_3_cif.got.tgz:4143.got - 2010.05.20 11:43:04.
