data_PCOD9561724
_publ_section_title
;
Structure prediction by ZEFSAII (Michael W. Deem and Ramdas Pophale) SiO2 
 PCOD9561724
Probable space group: P 4/M M M
;
_chemical_formula_sum "Si O2"
_cell_formula_units_Z 72
_cell_length_a 14.006769
_cell_length_b 14.006769
_cell_length_c 23.918963
_cell_angle_alpha 90.000000
_cell_angle_beta 90.000000
_cell_angle_gamma 90.000000
_cell_volume 4692.651253
_symmetry_space_group_name_H-M "P 4/M M M"
_symmetry_group_IT_number 123
_symmetry_cell_setting 'tetragonal'
loop_
_space_group_symop_operation_xyz
x,y,z
-y,x,z
-x,-y,z
y,-x,z
x,-y,-z
-x,y,-z
y,x,-z
-y,-x,-z
-x,-y,-z
y,-x,-z
x,y,-z
-y,x,-z
-x,y,z
x,-y,z
-y,-x,z
y,x,z
loop_
_atom_site_type_symbol
_atom_site_label
_atom_site_fract_x
_atom_site_fract_y
_atom_site_fract_z
Si Si1 0.615717 0.890951 0.720548
Si Si2 0.110063 0.615992 0.937372
Si Si3 0.614923 0.771099 0.610296
Si Si4 0.769001 0.614851 0.829483
Si Si5 0.109212 0.384336 0.500000
O O1 0.500000 0.895549 0.720568
O O2 0.641534 0.831086 0.665588
O O3 0.642260 0.835602 0.776996
O O4 0.650906 0.000000 0.719137
O O5 0.109741 0.500000 0.937521
O O6 0.178311 0.644046 0.886875
O O7 0.000000 0.645415 0.927709
O O8 0.138824 0.646748 0.000000
O O9 0.500000 0.756751 0.610165
O O10 0.672600 0.672600 0.609760
O O11 0.641591 0.832892 0.555680
O O12 0.757500 0.500000 0.829110
O O13 0.669494 0.669494 0.824822
O O14 0.104341 0.500000 0.500000
O O15 0.000000 0.349087 0.500000
#
# Coordination Sequence:
#
# PCOD9561724 Si02
#       5
#    16  16  16  16   8
#     4   9  17  30  47  64  83 110 146 190 233 260
#     4   8  14  26  44  63  82 107 142 186 231 262
#     4  10  19  30  45  67  96 126 152 177 209 258
#     4  10  19  29  42  62  90 122 151 177 208 254
#     4   9  17  30  47  65  87 117 153 195 235 256
#
# _framework density 15.343139000000001
#
# number of rings (size 3 to 8) (size 9 to 14) (size 15 to 20)
#    0.000    2.778    0.000    3.000    0.000    6.222 
#    0.000    0.000    0.000    6.000    0.000    3.111 
#    0.000   49.333    0.000    9.778    0.000    0.889 
#
# Total GULP energy -400939.915561 kJ/mol
# GULP energy per Si atom -5568.609938 kJ/mol
# Density = 1.530822 g / cm^3
# Si number density = 15.343139 Si / 1000 Ang^3
#
#
#
# Elastic Constant Matrix: (Units=GPa)
#
#
# Indices 1 2 3 4 5 6 
#
# 1 61.7342 38.8505 48.1159 0.0000 0.0000 0.0000
# 2 38.8505 61.7342 48.1159 0.0000 0.0000 0.0000
# 3 48.1159 48.1159 139.9907 0.0000 0.0000 0.0000
# 4 0.0000 0.0000 0.0000 6.3489 0.0000 0.0000
# 5 0.0000 0.0000 0.0000 0.0000 6.3489 0.0000
# 6 0.0000 0.0000 0.0000 0.0000 0.0000 0.3829
#
#
#
# Elastic Compliance Matrix: (Units=1/GPa)
#
#
# Indices 1 2 3 4 5 6 
#
# 1 0.029256 -0.014443 -0.005091 0.000000 0.000000 0.000000
# 2 -0.014443 0.029256 -0.005091 0.000000 0.000000 0.000000
# 3 -0.005091 -0.005091 0.010643 0.000000 0.000000 0.000000
# 4 0.000000 0.000000 0.000000 0.157507 0.000000 0.000000
# 5 0.000000 0.000000 0.000000 0.000000 0.157507 0.000000
# 6 0.000000 0.000000 0.000000 0.000000 0.000000 2.611378
#
#
# Mechanical properties :
#
#
# Convention : Reuss Voigt Hill
#
# Bulk Modulus (GPa) = 50.24201 59.29155 54.76678
# Shear Modulus (GPa) = 1.63857 11.17461 6.40659
#
# Velocity S-wave (km/s) = 1.03454 2.70166 2.04563
# Velocity P-wave (km/s) = 5.85181 6.96129 6.43052
#
# Compressibility (1/GPa) = 0.01990366
#
# Stress axis : x y z
#
# Youngs Moduli (GPa) = 34.18104 34.18104 93.95702
#
# Poissons Ratio (x) = 0.49368 0.47836
# Poissons Ratio (y) = 0.49368 0.47836
# Poissons Ratio (z) = 0.17403 0.17403
#
# Static dielectric constant tensor:
#      x y z
#    x 1.490510 0.000000 0.000000 
#    y 0.000000 1.490510 0.000000 
#    z 0.000000 0.000000 1.528330 
# 
# From -- ./inp_files/6303.got.cif
#   From: 2010.05.17/outbox.cif.g08.bks.cpg/sg123_4_cif.got.tgz:6303.got - 2010.05.20 11:43:04.
