data_PCOD9561404
_publ_section_title
;
Structure prediction by ZEFSAII (Michael W. Deem and Ramdas Pophale) SiO2 
 PCOD9561404
Probable space group: I -4 2 D
;
_chemical_formula_sum "Si O2"
_cell_formula_units_Z 88
_cell_length_a 17.111787
_cell_length_b 17.111787
_cell_length_c 13.317848
_cell_angle_alpha 90.000000
_cell_angle_beta 90.000000
_cell_angle_gamma 90.000000
_cell_volume 3899.642414
_symmetry_space_group_name_H-M "I -4 2 D"
_symmetry_group_IT_number 122
_symmetry_cell_setting 'tetragonal'
loop_
_space_group_symop_operation_xyz
x,y,z
y,-x,-z
-x,-y,z
-y,x,-z
x,1/2-y,1/4-z
-x,1/2+y,1/4-z
-y,1/2-x,1/4+z
y,1/2+x,1/4+z
1/2+x,1/2+y,1/2+z
1/2+y,1/2-x,1/2-z
1/2-x,1/2-y,1/2+z
1/2-y,1/2+x,1/2-z
1/2+x,-y,3/4-z
1/2-x,y,3/4-z
1/2-y,-x,3/4+z
1/2+y,x,3/4+z
loop_
_atom_site_type_symbol
_atom_site_label
_atom_site_fract_x
_atom_site_fract_y
_atom_site_fract_z
Si Si1 0.597312 0.555110 0.050844
Si Si2 0.975974 0.262945 0.512273
Si Si3 0.377210 0.102654 0.621043
Si Si4 0.871623 0.832385 0.731092
Si Si5 0.548237 0.339425 0.596301
Si Si6 0.728384 0.750000 0.625000
O O1 0.587155 0.608747 0.149421
O O2 0.582746 0.460942 0.039401
O O3 0.690281 0.562252 0.042557
O O4 0.949957 0.250000 0.625000
O O5 0.955263 0.344755 0.462517
O O6 0.069507 0.260167 0.508105
O O7 0.469689 0.113453 0.627605
O O8 0.349818 0.071527 0.730237
O O9 0.331533 0.182286 0.591921
O O10 0.863704 0.880030 0.833393
O O11 0.788565 0.795203 0.699058
O O12 0.531059 0.250000 0.625000
#
# Coordination Sequence:
#
# PCOD9561404 Si02
#       6
#    16  16  16  16  16   8
#     4  11  23  42  69 102 148 192 243 307 382 460
#     4  12  25  46  70 111 145 190 250 318 379 455
#     4  12  28  49  75 113 151 198 267 312 391 471
#     4  12  25  46  76 104 149 195 251 308 387 456
#     4  12  26  49  76 107 152 202 249 321 383 464
#     4  12  22  48  72 104 146 186 248 320 360 458
#
# _framework density 22.566172999999999
#
# number of rings (size 3 to 8) (size 9 to 14) (size 15 to 20)
#    0.000    0.182    7.273    1.091    2.545    2.545 
#    3.273    0.000    0.000    0.000    0.000    0.000 
#    0.000    0.000    0.000    0.000    0.000    0.000 
#
# Total GULP energy -245532.788887 kJ/mol
# GULP energy per Si atom -5580.290657 kJ/mol
# Density = 2.251481 g / cm^3
# Si number density = 22.566173 Si / 1000 Ang^3
#
#
#
# Elastic Constant Matrix: (Units=GPa)
#
#
# Indices 1 2 3 4 5 6 
#
# 1 99.1251 6.2137 37.5224 0.0000 0.0000 0.0000
# 2 6.2137 99.1251 37.5224 0.0000 0.0000 0.0000
# 3 37.5224 37.5224 110.4906 0.0000 0.0000 0.0000
# 4 0.0000 0.0000 0.0000 27.6589 0.0000 0.0000
# 5 0.0000 0.0000 0.0000 0.0000 27.6589 0.0000
# 6 0.0000 0.0000 0.0000 0.0000 0.0000 48.9202
#
#
#
# Elastic Compliance Matrix: (Units=1/GPa)
#
#
# Indices 1 2 3 4 5 6 
#
# 1 0.011643 0.000880 -0.004253 0.000000 0.000000 0.000000
# 2 0.000880 0.011643 -0.004253 0.000000 0.000000 0.000000
# 3 -0.004253 -0.004253 0.011939 0.000000 0.000000 0.000000
# 4 0.000000 0.000000 0.000000 0.036155 0.000000 0.000000
# 5 0.000000 0.000000 0.000000 0.000000 0.036155 0.000000
# 6 0.000000 0.000000 0.000000 0.000000 0.000000 0.020441
#
#
# Mechanical properties :
#
#
# Convention : Reuss Voigt Hill
#
# Bulk Modulus (GPa) = 50.06561 52.36195 51.21378
# Shear Modulus (GPa) = 33.35898 36.01309 34.68603
#
# Velocity S-wave (km/s) = 3.84900 3.99919 3.92482
# Velocity P-wave (km/s) = 6.47977 6.67674 6.57899
#
# Compressibility (1/GPa) = 0.01997379
#
# Stress axis : x y z
#
# Youngs Moduli (GPa) = 85.88915 85.88915 83.75924
#
# Poissons Ratio (x) = -0.07558 0.35621
# Poissons Ratio (y) = -0.07558 0.35621
# Poissons Ratio (z) = 0.36526 0.36526
#
# Static dielectric constant tensor:
#      x y z
#    x 1.895500 0.000000 0.000000 
#    y 0.000000 1.895500 0.000000 
#    z 0.000000 0.000000 1.275610 
# 
# From -- ./inp_files/5364.got.cif
#   From: 2010.05.17/outbox.cif.g08.bks.cpg/sg122_3_cif.got.tgz:5364.got - 2010.05.20 11:37:33.
