data_PCOD9561973
_publ_section_title
;
Structure prediction by ZEFSAII (Michael W. Deem and Ramdas Pophale) SiO2 
 PCOD9561973
Probable space group: P 4/M M M
;
_chemical_formula_sum "Si O2"
_cell_formula_units_Z 56
_cell_length_a 19.813801
_cell_length_b 19.813801
_cell_length_c 9.169914
_cell_angle_alpha 90.000000
_cell_angle_beta 90.000000
_cell_angle_gamma 90.000000
_cell_volume 3599.986369
_symmetry_space_group_name_H-M "P 4/M M M"
_symmetry_group_IT_number 123
_symmetry_cell_setting 'tetragonal'
loop_
_space_group_symop_operation_xyz
x,y,z
-y,x,z
-x,-y,z
y,-x,z
x,-y,-z
-x,y,-z
y,x,-z
-y,-x,-z
-x,-y,-z
y,-x,-z
x,y,-z
-y,x,-z
-x,y,z
x,-y,z
-y,-x,z
y,x,z
loop_
_atom_site_type_symbol
_atom_site_label
_atom_site_fract_x
_atom_site_fract_y
_atom_site_fract_z
Si Si1 0.686490 0.577440 0.322451
Si Si2 0.921650 0.638442 0.826273
Si Si3 0.918656 0.500000 0.663827
Si Si4 0.201691 0.685735 0.327990
O O1 0.686286 0.576621 0.500000
O O2 0.687964 0.500000 0.272202
O O3 0.620054 0.620054 0.277884
O O4 0.751485 0.622188 0.280650
O O5 0.902354 0.567279 0.751629
O O6 0.866826 0.689263 0.762220
O O7 0.000000 0.653281 0.788785
O O8 0.917244 0.633104 0.000000
O O9 0.889576 0.500000 0.500000
O O10 0.000000 0.500000 0.651844
O O11 0.186434 0.677201 0.500000
O O12 0.249158 0.750843 0.312034
#
# Coordination Sequence:
#
# PCOD9561973 Si02
#       4
#    16  16   8  16
#     4   8  14  24  38  58  83 111 147 191 233 270
#     4  10  20  32  46  67  94 120 151 193 235 277
#     4   9  17  29  45  65  89 119 152 185 228 277
#     4   9  18  31  46  66  92 122 157 193 227 272
#
# _framework density 15.555615
#
# number of rings (size 3 to 8) (size 9 to 14) (size 15 to 20)
#    0.000    3.000    0.000    3.000    2.000    4.286 
#    0.000    1.429    0.000    0.000    0.000    0.000 
#    0.000    0.571    0.000   12.571    0.000   10.857 
#
# Total GULP energy -311953.544643 kJ/mol
# GULP energy per Si atom -5570.599011 kJ/mol
# Density = 1.552021 g / cm^3
# Si number density = 15.555615 Si / 1000 Ang^3
#
#
#
# Elastic Constant Matrix: (Units=GPa)
#
#
# Indices 1 2 3 4 5 6 
#
# 1 87.1218 30.6681 36.3990 0.0000 0.0000 0.0000
# 2 30.6681 87.1218 36.3990 0.0000 0.0000 0.0000
# 3 36.3990 36.3990 46.2612 0.0000 0.0000 0.0000
# 4 0.0000 0.0000 0.0000 16.9201 0.0000 0.0000
# 5 0.0000 0.0000 0.0000 0.0000 16.9201 0.0000
# 6 0.0000 0.0000 0.0000 0.0000 0.0000 10.9720
#
#
#
# Elastic Compliance Matrix: (Units=1/GPa)
#
#
# Indices 1 2 3 4 5 6 
#
# 1 0.017120 -0.000594 -0.013003 0.000000 0.000000 0.000000
# 2 -0.000594 0.017120 -0.013003 0.000000 0.000000 0.000000
# 3 -0.013003 -0.013003 0.042078 0.000000 0.000000 0.000000
# 4 0.000000 0.000000 0.000000 0.059101 0.000000 0.000000
# 5 0.000000 0.000000 0.000000 0.000000 0.059101 0.000000
# 6 0.000000 0.000000 0.000000 0.000000 0.000000 0.091141
#
#
# Mechanical properties :
#
#
# Convention : Reuss Voigt Hill
#
# Bulk Modulus (GPa) = 43.25537 47.49297 45.37417
# Shear Modulus (GPa) = 14.42727 16.76502 15.59614
#
# Velocity S-wave (km/s) = 3.04873 3.28647 3.16983
# Velocity P-wave (km/s) = 6.34510 6.70809 6.52912
#
# Compressibility (1/GPa) = 0.02311851
#
# Stress axis : x y z
#
# Youngs Moduli (GPa) = 58.41220 58.41220 23.76550
#
# Poissons Ratio (x) = 0.03469 0.30902
# Poissons Ratio (y) = 0.03469 0.30902
# Poissons Ratio (z) = 0.75952 0.75952
#
# Static dielectric constant tensor:
#      x y z
#    x 1.529990 0.000000 0.000000 
#    y 0.000000 1.529990 0.000000 
#    z 0.000000 0.000000 1.515900 
# 
# From -- ./inp_files/578.got.cif
#   From: 2010.05.17/outbox.cif.g08.bks.cpg/sg123_1_cif.got.tgz:578.got - 2010.05.20 11:43:04.
