data_PCOD9561879
_publ_section_title
;
Structure prediction by ZEFSAII (Michael W. Deem and Ramdas Pophale) SiO2 
 PCOD9561879
Probable space group: P 4/M M M
;
_chemical_formula_sum "Si O2"
_cell_formula_units_Z 64
_cell_length_a 20.545712
_cell_length_b 20.545712
_cell_length_c 7.836520
_cell_angle_alpha 90.000000
_cell_angle_beta 90.000000
_cell_angle_gamma 90.000000
_cell_volume 3308.001048
_symmetry_space_group_name_H-M "P 4/M M M"
_symmetry_group_IT_number 123
_symmetry_cell_setting 'tetragonal'
loop_
_space_group_symop_operation_xyz
x,y,z
-y,x,z
-x,-y,z
y,-x,z
x,-y,-z
-x,y,-z
y,x,-z
-y,-x,-z
-x,-y,-z
y,-x,-z
x,y,-z
-y,x,-z
-x,y,z
x,-y,z
-y,-x,z
y,x,z
loop_
_atom_site_type_symbol
_atom_site_label
_atom_site_fract_x
_atom_site_fract_y
_atom_site_fract_z
Si Si1 0.352452 0.750477 0.703336
Si Si2 0.603002 0.500000 0.791615
Si Si3 0.750699 0.000000 0.807564
Si Si4 0.500000 0.253104 0.203187
Si Si5 0.754728 0.857079 0.204222
Si Si6 0.106763 0.000000 0.702773
O O1 0.350532 0.747822 0.500000
O O2 0.318111 0.681890 0.766442
O O3 0.426706 0.768985 0.750737
O O4 0.303726 0.806899 0.764534
O O5 0.562565 0.562565 0.738546
O O6 0.674246 0.500000 0.722317
O O7 0.604884 0.500000 0.000000
O O8 0.737507 0.071011 0.726467
O O9 0.828791 0.000000 0.810454
O O10 0.722631 0.000000 0.000000
O O11 0.500000 0.253893 0.000000
O O12 0.820107 0.820107 0.270075
O O13 0.763238 0.864874 0.000000
O O14 0.062374 0.062374 0.737670
O O15 0.122394 0.000000 0.500000
#
# Coordination Sequence:
#
# PCOD9561879 Si02
#       6
#    16   8   8   8  16   8
#     4  10  21  36  53  75 105 139 174 212 254 302
#     4   8  14  24  39  64  97 127 155 188 227 278
#     4  10  19  31  51  77 101 128 167 216 264 306
#     4  11  20  31  52  77 101 132 170 212 258 305
#     4   9  18  33  52  75 104 136 171 211 256 308
#     4   9  18  30  42  62  97 137 171 202 241 297
#
# _framework density 19.347033
#
# number of rings (size 3 to 8) (size 9 to 14) (size 15 to 20)
#    0.000    2.500    0.000    3.375    0.000    5.000 
#    0.000    3.125    0.000    0.750    0.000   10.500 
#    0.000    0.000    0.000    0.000    0.000    0.000 
#
# Total GULP energy -356300.190740 kJ/mol
# GULP energy per Si atom -5567.190480 kJ/mol
# Density = 1.930300 g / cm^3
# Si number density = 19.347033 Si / 1000 Ang^3
#
#
#
# Elastic Constant Matrix: (Units=GPa)
#
#
# Indices 1 2 3 4 5 6 
#
# 1 106.5440 45.4453 3.0780 0.0000 0.0000 0.0000
# 2 45.4453 106.5440 3.0780 0.0000 0.0000 0.0000
# 3 3.0780 3.0780 31.5757 0.0000 0.0000 0.0000
# 4 0.0000 0.0000 0.0000 3.3876 0.0000 0.0000
# 5 0.0000 0.0000 0.0000 0.0000 3.3876 0.0000
# 6 0.0000 0.0000 0.0000 0.0000 0.0000 16.2940
#
#
#
# Elastic Compliance Matrix: (Units=1/GPa)
#
#
# Indices 1 2 3 4 5 6 
#
# 1 0.011486 -0.004881 -0.000644 0.000000 0.000000 0.000000
# 2 -0.004881 0.011486 -0.000644 0.000000 0.000000 0.000000
# 3 -0.000644 -0.000644 0.031795 0.000000 0.000000 0.000000
# 4 0.000000 0.000000 0.000000 0.295196 0.000000 0.000000
# 5 0.000000 0.000000 0.000000 0.000000 0.295196 0.000000
# 6 0.000000 0.000000 0.000000 0.000000 0.000000 0.061372
#
#
# Mechanical properties :
#
#
# Convention : Reuss Voigt Hill
#
# Bulk Modulus (GPa) = 23.56780 38.65182 31.10981
# Shear Modulus (GPa) = 6.82117 17.48466 12.15292
#
# Velocity S-wave (km/s) = 1.87972 3.00949 2.50902
# Velocity P-wave (km/s) = 4.11329 5.66547 4.95059
#
# Compressibility (1/GPa) = 0.04243078
#
# Stress axis : x y z
#
# Youngs Moduli (GPa) = 87.06078 87.06078 31.45105
#
# Poissons Ratio (x) = 0.42492 0.02025
# Poissons Ratio (y) = 0.42492 0.02025
# Poissons Ratio (z) = 0.05606 0.05606
#
# Static dielectric constant tensor:
#      x y z
#    x 1.720950 0.000000 0.000000 
#    y 0.000000 1.720950 0.000000 
#    z 0.000000 0.000000 1.697460 
# 
# From -- ./inp_files/1002.got.cif
#   From: 2010.05.17/outbox.cif.g08.bks.cpg/sg123_1_cif.got.tgz:1002.got - 2010.05.20 11:43:04.
