data_PCOD9561890
_publ_section_title
;
Structure prediction by ZEFSAII (Michael W. Deem and Ramdas Pophale) SiO2 
 PCOD9561890
Probable space group: P 4/M M M
;
_chemical_formula_sum "Si O2"
_cell_formula_units_Z 112
_cell_length_a 15.874834
_cell_length_b 15.874834
_cell_length_c 23.952298
_cell_angle_alpha 90.000000
_cell_angle_beta 90.000000
_cell_angle_gamma 90.000000
_cell_volume 6036.227111
_symmetry_space_group_name_H-M "P 4/M M M"
_symmetry_group_IT_number 123
_symmetry_cell_setting 'tetragonal'
loop_
_space_group_symop_operation_xyz
x,y,z
-y,x,z
-x,-y,z
y,-x,z
x,-y,-z
-x,y,-z
y,x,-z
-y,-x,-z
-x,-y,-z
y,-x,-z
x,y,-z
-y,x,-z
-x,y,z
x,-y,z
-y,-x,z
y,x,z
loop_
_atom_site_type_symbol
_atom_site_label
_atom_site_fract_x
_atom_site_fract_y
_atom_site_fract_z
Si Si1 0.907760 0.771153 0.615629
Si Si2 0.592549 0.159263 0.235461
Si Si3 0.907281 0.398017 0.934398
Si Si4 0.907088 0.770490 0.750734
Si Si5 0.405660 0.858826 0.433504
Si Si6 0.263091 0.402046 0.872012
Si Si7 0.728450 0.408764 0.657891
O O1 0.831177 0.831177 0.596660
O O2 0.902539 0.766226 0.683028
O O3 0.902858 0.677288 0.590726
O O4 0.000000 0.807197 0.601624
O O5 0.500000 0.119715 0.225142
O O6 0.675450 0.104419 0.227705
O O7 0.598715 0.238058 0.193305
O O8 0.594404 0.195204 0.298082
O O9 0.908320 0.500000 0.930198
O O10 0.823058 0.371933 0.902286
O O11 0.000000 0.368578 0.914296
O O12 0.900471 0.377132 0.000000
O O13 0.832090 0.832090 0.769462
O O14 0.000000 0.802733 0.765503
O O15 0.399605 0.855199 0.500000
O O16 0.500000 0.893640 0.419817
O O17 0.402941 0.768136 0.403430
O O18 0.279521 0.500000 0.887712
O O19 0.340564 0.340564 0.883572
O O20 0.686993 0.500000 0.664772
O O21 0.666725 0.333276 0.669348
#
# Coordination Sequence:
#
# PCOD9561890 Si02
#       7
#    16  16  16  16  16  16  16
#     4  10  21  36  55  78 103 133 166 201 246 303
#     4  10  20  34  52  75 103 136 175 220 267 311
#     4   8  15  30  51  73  99 133 175 224 272 311
#     4  10  20  34  53  76 104 136 168 207 256 312
#     4  10  21  36  55  78  99 124 163 210 260 313
#     4  10  20  32  49  75 108 146 184 221 262 314
#     4  10  19  32  50  70  96 129 164 208 259 311
#
# _framework density 18.554635999999999
#
# number of rings (size 3 to 8) (size 9 to 14) (size 15 to 20)
#    0.000    2.286    1.429    2.143    0.000    3.429 
#    0.000    5.000    0.000    2.571    0.000    5.000 
#    0.000    0.286    0.000    1.571    0.000    0.143 
#
# Total GULP energy -623997.601573 kJ/mol
# GULP energy per Si atom -5571.407157 kJ/mol
# Density = 1.851241 g / cm^3
# Si number density = 18.554636 Si / 1000 Ang^3
#
#
#
# Elastic Constant Matrix: (Units=GPa)
#
#
# Indices 1 2 3 4 5 6 
#
# 1 97.6660 61.7795 18.3330 0.0000 0.0000 0.0000
# 2 61.7795 97.6660 18.3330 0.0000 0.0000 0.0000
# 3 18.3330 18.3330 23.0692 0.0000 0.0000 0.0000
# 4 0.0000 0.0000 0.0000 13.6773 0.0000 0.0000
# 5 0.0000 0.0000 0.0000 0.0000 13.6773 0.0000
# 6 0.0000 0.0000 0.0000 0.0000 0.0000 -0.0294
#
#
#
# Elastic Compliance Matrix: (Units=1/GPa)
#
#
# Indices 1 2 3 4 5 6 
#
# 1 0.017770 -0.010096 -0.006099 0.000000 0.000000 0.000000
# 2 -0.010096 0.017770 -0.006099 0.000000 0.000000 0.000000
# 3 -0.006099 -0.006099 0.053041 0.000000 0.000000 0.000000
# 4 0.000000 0.000000 0.000000 0.073114 0.000000 0.000000
# 5 0.000000 0.000000 0.000000 0.000000 0.073114 0.000000
# 6 0.000000 0.000000 0.000000 0.000000 0.000000-34.028553
#
#
# Mechanical properties :
#
#
# Convention : Reuss Voigt Hill
#
# Bulk Modulus (GPa) = 22.72997 46.14355 34.43676
# Shear Modulus (GPa) = -0.14822 13.46207 6.65693
#
# Velocity S-wave (km/s) = -0.28294 2.69650 1.89619
# Velocity P-wave (km/s) = 3.48857 5.88369 4.83673
#
# Compressibility (1/GPa) = 0.04399478
#
# Stress axis : x y z
#
# Youngs Moduli (GPa) = 56.27489 56.27489 18.85336
#
# Poissons Ratio (x) = 0.56814 0.11498
# Poissons Ratio (y) = 0.56814 0.11498
# Poissons Ratio (z) = 0.34320 0.34320
#
# Static dielectric constant tensor:
#      x y z
#    x 1.652500 0.000000 0.000000 
#    y 0.000000 1.652500 0.000000 
#    z 0.000000 0.000000 1.659980 
# 
# From -- ./inp_files/7501.got.cif
#   From: 2010.05.17/outbox.cif.g08.bks.cpg/sg123_4_cif.got.tgz:7501.got - 2010.05.20 11:43:04.
