data_PCOD9561559
_publ_section_title
;
Structure prediction by ZEFSAII (Michael W. Deem and Ramdas Pophale) SiO2 
 PCOD9561559
Probable space group: I -4 2 D
;
_chemical_formula_sum "Si O2"
_cell_formula_units_Z 20
_cell_length_a 5.176427
_cell_length_b 5.176427
_cell_length_c 31.624945
_cell_angle_alpha 90.000000
_cell_angle_beta 90.000000
_cell_angle_gamma 90.000000
_cell_volume 847.402940
_symmetry_space_group_name_H-M "I -4 2 D"
_symmetry_group_IT_number 122
_symmetry_cell_setting 'tetragonal'
loop_
_space_group_symop_operation_xyz
x,y,z
y,-x,-z
-x,-y,z
-y,x,-z
x,1/2-y,1/4-z
-x,1/2+y,1/4-z
-y,1/2-x,1/4+z
y,1/2+x,1/4+z
1/2+x,1/2+y,1/2+z
1/2+y,1/2-x,1/2-z
1/2-x,1/2-y,1/2+z
1/2-y,1/2+x,1/2-z
1/2+x,-y,3/4-z
1/2-x,y,3/4-z
1/2-y,-x,3/4+z
1/2+y,x,3/4+z
loop_
_atom_site_type_symbol
_atom_site_label
_atom_site_fract_x
_atom_site_fract_y
_atom_site_fract_z
Si Si1 0.250000 0.643179 0.375000
Si Si2 0.500000 0.500000 0.000000
Si Si3 0.000000 0.000000 0.304091
O O1 0.500000 0.500000 0.356613
O O2 0.376755 0.795565 0.413666
O O3 0.415282 0.754259 0.026325
#
# Coordination Sequence:
#
# PCOD9561559 Si02
#       3
#     8   4   8
#     4  12  26  50  86 110 154 216 272 336 390 500
#     4  12  30  48  84 116 176 212 260 352 408 476
#     4  12  29  52  74 125 156 214 274 329 412 474
#
# _framework density 23.601524999999999
#
# number of rings (size 3 to 8) (size 9 to 14) (size 15 to 20)
#    0.000    0.000    0.000    9.600   16.800    0.000 
#    0.000    0.000    0.000    0.000    0.000    0.000 
#    0.000    0.000    0.000    0.000    0.000    0.000 
#
# Total GULP energy -55909.144380 kJ/mol
# GULP energy per Si atom -5590.914438 kJ/mol
# Density = 2.354781 g / cm^3
# Si number density = 23.601525 Si / 1000 Ang^3
#
#
#
# Elastic Constant Matrix: (Units=GPa)
#
#
# Indices 1 2 3 4 5 6 
#
# 1 190.9603 90.7529 76.5909 0.0000 0.0000 0.0000
# 2 90.7529 190.9603 76.5909 0.0000 0.0000 0.0000
# 3 76.5909 76.5909 123.4735 0.0000 0.0000 0.0000
# 4 0.0000 0.0000 0.0000 65.9591 0.0000 0.0000
# 5 0.0000 0.0000 0.0000 0.0000 65.9591 0.0000
# 6 0.0000 0.0000 0.0000 0.0000 0.0000 65.4138
#
#
#
# Elastic Compliance Matrix: (Units=1/GPa)
#
#
# Indices 1 2 3 4 5 6 
#
# 1 0.007668 -0.002311 -0.003323 0.000000 0.000000 0.000000
# 2 -0.002311 0.007668 -0.003323 0.000000 0.000000 0.000000
# 3 -0.003323 -0.003323 0.012221 0.000000 0.000000 0.000000
# 4 0.000000 0.000000 0.000000 0.015161 0.000000 0.000000
# 5 0.000000 0.000000 0.000000 0.000000 0.015161 0.000000
# 6 0.000000 0.000000 0.000000 0.000000 0.000000 0.015287
#
#
# Mechanical properties :
#
#
# Convention : Reuss Voigt Hill
#
# Bulk Modulus (GPa) = 103.69831 110.36260 107.03046
# Shear Modulus (GPa) = 53.02605 56.89703 54.96154
#
# Velocity S-wave (km/s) = 4.74510 4.91525 4.83093
# Velocity P-wave (km/s) = 8.60545 8.89243 8.75012
#
# Compressibility (1/GPa) = 0.00964336
#
# Stress axis : x y z
#
# Youngs Moduli (GPa) = 130.41499 130.41498 81.82719
#
# Poissons Ratio (x) = 0.30145 0.27188
# Poissons Ratio (y) = 0.30145 0.27188
# Poissons Ratio (z) = 0.43331 0.43331
#
# Static dielectric constant tensor:
#      x y z
#    x 1.833150 0.000000 0.000000 
#    y 0.000000 1.833150 0.000000 
#    z 0.000000 0.000000 1.920890 
# 
# From -- ./inp_files/8260.got.cif
#   From: 2010.05.17/outbox.cif.g08.bks.cpg/sg122_5_cif.got.tgz:8260.got - 2010.05.20 11:37:33.
