data_PCOD9561070
_publ_section_title
;
Structure prediction by ZEFSAII (Michael W. Deem and Ramdas Pophale) SiO2 
 PCOD9561070
Probable space group: I -4 2 D
;
_chemical_formula_sum "Si O2"
_cell_formula_units_Z 64
_cell_length_a 18.546280
_cell_length_b 18.546280
_cell_length_c 9.757957
_cell_angle_alpha 90.000000
_cell_angle_beta 90.000000
_cell_angle_gamma 90.000000
_cell_volume 3356.390818
_symmetry_space_group_name_H-M "I -4 2 D"
_symmetry_group_IT_number 122
_symmetry_cell_setting 'tetragonal'
loop_
_space_group_symop_operation_xyz
x,y,z
y,-x,-z
-x,-y,z
-y,x,-z
x,1/2-y,1/4-z
-x,1/2+y,1/4-z
-y,1/2-x,1/4+z
y,1/2+x,1/4+z
1/2+x,1/2+y,1/2+z
1/2+y,1/2-x,1/2-z
1/2-x,1/2-y,1/2+z
1/2-y,1/2+x,1/2-z
1/2+x,-y,3/4-z
1/2-x,y,3/4-z
1/2-y,-x,3/4+z
1/2+y,x,3/4+z
loop_
_atom_site_type_symbol
_atom_site_label
_atom_site_fract_x
_atom_site_fract_y
_atom_site_fract_z
Si Si1 0.922264 0.539009 0.921713
Si Si2 0.330901 0.406267 0.356726
Si Si3 0.976678 0.667828 0.336801
Si Si4 0.995526 0.331103 0.845688
O O1 0.938950 0.623257 0.909511
O O2 0.866829 0.517836 0.801648
O O3 0.000000 0.500000 0.903292
O O4 0.890002 0.515574 0.065592
O O5 0.250000 0.376890 0.375000
O O6 0.332845 0.481046 0.443181
O O7 0.393425 0.355193 0.413447
O O8 0.343334 0.427770 0.198330
O O9 0.987552 0.746849 0.401489
#
# Coordination Sequence:
#
# PCOD9561070 Si02
#       4
#    16  16  16  16
#     4  12  20  37  63  86 113 153 203 243 289 349
#     4  10  22  38  58  88 120 155 199 247 292 353
#     4  11  23  37  61  87 120 157 198 245 300 344
#     4  11  21  37  58  89 120 150 199 250 290 349
#
# _framework density 19.068100999999999
#
# number of rings (size 3 to 8) (size 9 to 14) (size 15 to 20)
#    0.000    1.000    5.000    2.250    0.000    0.000 
#    0.000    2.500    0.000   12.000    0.000    0.000 
#    0.000    0.000    0.000    0.000    0.000    0.000 
#
# Total GULP energy -178725.878125 kJ/mol
# GULP energy per Si atom -5585.183691 kJ/mol
# Density = 1.902470 g / cm^3
# Si number density = 19.068101 Si / 1000 Ang^3
#
#
#
# Elastic Constant Matrix: (Units=GPa)
#
#
# Indices 1 2 3 4 5 6 
#
# 1 70.6348 25.2078 -0.9105 0.0000 0.0000 0.0000
# 2 25.2078 70.6348 -0.9105 0.0000 0.0000 0.0000
# 3 -0.9105 -0.9105 65.0152 0.0000 0.0000 0.0000
# 4 0.0000 0.0000 0.0000 25.7245 0.0000 0.0000
# 5 0.0000 0.0000 0.0000 0.0000 25.7245 0.0000
# 6 0.0000 0.0000 0.0000 0.0000 0.0000 19.1759
#
#
#
# Elastic Compliance Matrix: (Units=1/GPa)
#
#
# Indices 1 2 3 4 5 6 
#
# 1 0.016225 -0.005788 0.000146 0.000000 0.000000 0.000000
# 2 -0.005788 0.016225 0.000146 0.000000 0.000000 0.000000
# 3 0.000146 0.000146 0.015385 0.000000 0.000000 0.000000
# 4 0.000000 0.000000 0.000000 0.038873 0.000000 0.000000
# 5 0.000000 0.000000 0.000000 0.000000 0.038873 0.000000
# 6 0.000000 0.000000 0.000000 0.000000 0.000000 0.052149
#
#
# Mechanical properties :
#
#
# Convention : Reuss Voigt Hill
#
# Bulk Modulus (GPa) = 27.14231 28.11760 27.62995
# Shear Modulus (GPa) = 24.87517 26.31820 25.59668
#
# Velocity S-wave (km/s) = 3.61577 3.71916 3.66783
# Velocity P-wave (km/s) = 5.63001 5.76375 5.69727
#
# Compressibility (1/GPa) = 0.03684285
#
# Stress axis : x y z
#
# Youngs Moduli (GPa) = 61.63344 61.63344 64.99786
#
# Poissons Ratio (x) = 0.35676 -0.00950
# Poissons Ratio (y) = 0.35676 -0.00950
# Poissons Ratio (z) = -0.00901 -0.00901
#
# Static dielectric constant tensor:
#      x y z
#    x 1.665670 0.000000 0.000000 
#    y 0.000000 1.665670 0.000000 
#    z 0.000000 0.000000 1.677620 
# 
# From -- ./inp_files/2540.got.cif
#   From: 2010.05.17/outbox.cif.g08.bks.cpg/sg122_2_cif.got.tgz:2540.got - 2010.05.20 11:37:33.
