data_PCOD9561666
_publ_section_title
;
Structure prediction by ZEFSAII (Michael W. Deem and Ramdas Pophale) SiO2 
 PCOD9561666
Probable space group: P 4/M M M
;
_chemical_formula_sum "Si O2"
_cell_formula_units_Z 128
_cell_length_a 18.636561
_cell_length_b 18.636561
_cell_length_c 20.207593
_cell_angle_alpha 90.000000
_cell_angle_beta 90.000000
_cell_angle_gamma 90.000000
_cell_volume 7018.529611
_symmetry_space_group_name_H-M "P 4/M M M"
_symmetry_group_IT_number 123
_symmetry_cell_setting 'tetragonal'
loop_
_space_group_symop_operation_xyz
x,y,z
-y,x,z
-x,-y,z
y,-x,z
x,-y,-z
-x,y,-z
y,x,-z
-y,-x,-z
-x,-y,-z
y,-x,-z
x,y,-z
-y,x,-z
-x,y,z
x,-y,z
-y,-x,z
y,x,z
loop_
_atom_site_type_symbol
_atom_site_label
_atom_site_fract_x
_atom_site_fract_y
_atom_site_fract_z
Si Si1 0.918518 0.198283 0.201278
Si Si2 0.302967 0.417565 0.393441
Si Si3 0.294069 0.085045 0.923983
Si Si4 0.920500 0.650652 0.723583
Si Si5 0.849040 0.582581 0.157458
Si Si6 0.191819 0.919646 0.578806
Si Si7 0.690712 0.192807 0.622945
Si Si8 0.418144 0.300841 0.767276
O O1 0.860549 0.139452 0.219850
O O2 0.903191 0.229866 0.127997
O O3 0.915345 0.268131 0.248153
O O4 0.000000 0.170645 0.202852
O O5 0.300137 0.500000 0.414317
O O6 0.377869 0.377869 0.408620
O O7 0.239402 0.365825 0.418576
O O8 0.293662 0.415203 0.312867
O O9 0.361093 0.132436 0.899746
O O10 0.312884 0.000000 0.917801
O O11 0.275315 0.099099 0.000000
O O12 0.907295 0.598612 0.785306
O O13 0.855000 0.645329 0.673607
O O14 0.000000 0.639721 0.695483
O O15 0.851213 0.500000 0.136303
O O16 0.772902 0.596764 0.193706
O O17 0.182652 0.925918 0.500000
O O18 0.121885 0.878116 0.605910
O O19 0.258542 0.866395 0.589283
O O20 0.201602 0.000000 0.606121
O O21 0.746936 0.253065 0.651062
O O22 0.500000 0.322156 0.782867
O O23 0.360725 0.360725 0.786040
#
# Coordination Sequence:
#
# PCOD9561666 Si02
#       8
#    16  16  16  16  16  16  16  16
#     4   9  18  31  46  64  86 111 142 182 224 270
#     4   9  17  29  46  70  98 127 159 194 235 282
#     4   9  19  34  48  63  85 114 147 183 227 276
#     4  10  19  29  43  64  90 122 155 185 224 275
#     4  10  19  30  45  67  93 117 146 185 224 266
#     4   9  18  32  50  73 100 131 169 212 254 292
#     4  10  18  29  48  70  95 128 163 200 240 286
#     4   9  17  29  45  66  93 121 147 181 223 268
#
# _framework density 18.237438000000001
#
# number of rings (size 3 to 8) (size 9 to 14) (size 15 to 20)
#    0.000    2.625    1.250    1.875    0.000    4.000 
#    0.000    2.500    0.000    1.500    0.000    4.375 
#    0.000    0.000    0.000    7.625    0.000    0.250 
#
# Total GULP energy -713287.870742 kJ/mol
# GULP energy per Si atom -5572.561490 kJ/mol
# Density = 1.819593 g / cm^3
# Si number density = 18.237438 Si / 1000 Ang^3
#
#
#
# Elastic Constant Matrix: (Units=GPa)
#
#
# Indices 1 2 3 4 5 6 
#
# 1 93.7007 50.8034 -2.6913 0.0000 0.0000 0.0000
# 2 50.8034 93.7007 -2.6913 0.0000 0.0000 0.0000
# 3 -2.6913 -2.6913 25.7241 0.0000 0.0000 0.0000
# 4 0.0000 0.0000 0.0000 6.3916 0.0000 0.0000
# 5 0.0000 0.0000 0.0000 0.0000 6.3916 0.0000
# 6 0.0000 0.0000 0.0000 0.0000 0.0000 12.7981
#
#
#
# Elastic Compliance Matrix: (Units=1/GPa)
#
#
# Indices 1 2 3 4 5 6 
#
# 1 0.015129 -0.008182 0.000727 0.000000 0.000000 0.000000
# 2 -0.008182 0.015129 0.000727 0.000000 0.000000 0.000000
# 3 0.000727 0.000727 0.039026 0.000000 0.000000 0.000000
# 4 0.000000 0.000000 0.000000 0.156456 0.000000 0.000000
# 5 0.000000 0.000000 0.000000 0.000000 0.156456 0.000000
# 6 0.000000 0.000000 0.000000 0.000000 0.000000 0.078137
#
#
# Mechanical properties :
#
#
# Convention : Reuss Voigt Hill
#
# Bulk Modulus (GPa) = 17.91212 33.77410 25.84311
# Shear Modulus (GPa) = 10.15434 16.29656 13.22545
#
# Velocity S-wave (km/s) = 2.36219 2.99252 2.69584
# Velocity P-wave (km/s) = 4.15727 5.52264 4.88786
#
# Compressibility (1/GPa) = 0.05582811
#
# Stress axis : x y z
#
# Youngs Moduli (GPa) = 66.09654 66.09654 25.62386
#
# Poissons Ratio (x) = 0.54081 -0.01862
# Poissons Ratio (y) = 0.54081 -0.01862
# Poissons Ratio (z) = -0.04804 -0.04804
#
# Static dielectric constant tensor:
#      x y z
#    x 1.630260 0.000000 0.000000 
#    y 0.000000 1.630260 0.000000 
#    z 0.000000 0.000000 1.651270 
# 
# From -- ./inp_files/7658.got.cif
#   From: 2010.05.17/outbox.cif.g08.bks.cpg/sg123_4_cif.got.tgz:7658.got - 2010.05.20 11:43:04.
