data_PCOD9561656
_publ_section_title
;
Structure prediction by ZEFSAII (Michael W. Deem and Ramdas Pophale) SiO2 
 PCOD9561656
Probable space group: P 4/M M M
;
_chemical_formula_sum "Si O2"
_cell_formula_units_Z 112
_cell_length_a 17.448544
_cell_length_b 17.448544
_cell_length_c 25.113179
_cell_angle_alpha 90.000000
_cell_angle_beta 90.000000
_cell_angle_gamma 90.000000
_cell_volume 7645.749731
_symmetry_space_group_name_H-M "P 4/M M M"
_symmetry_group_IT_number 123
_symmetry_cell_setting 'tetragonal'
loop_
_space_group_symop_operation_xyz
x,y,z
-y,x,z
-x,-y,z
y,-x,z
x,-y,-z
-x,y,-z
y,x,-z
-y,-x,-z
-x,-y,-z
y,-x,-z
x,y,-z
-y,x,-z
-x,y,z
x,-y,z
-y,-x,z
y,x,z
loop_
_atom_site_type_symbol
_atom_site_label
_atom_site_fract_x
_atom_site_fract_y
_atom_site_fract_z
Si Si1 0.086978 0.792662 0.197584
Si Si2 0.087339 0.212592 0.673823
Si Si3 0.673727 0.201284 0.857076
Si Si4 0.716899 0.589086 0.560933
Si Si5 0.591869 0.912436 0.062940
Si Si6 0.280562 0.409790 0.239877
Si Si7 0.206120 0.662681 0.658611
O O1 0.127364 0.872637 0.182498
O O2 0.087401 0.788421 0.261701
O O3 0.141103 0.726256 0.175312
O O4 0.000000 0.786579 0.178754
O O5 0.142886 0.142886 0.656336
O O6 0.125732 0.293315 0.658314
O O7 0.000000 0.204044 0.655568
O O8 0.731259 0.268742 0.876156
O O9 0.632716 0.152862 0.902875
O O10 0.615398 0.239441 0.814961
O O11 0.743923 0.600461 0.500000
O O12 0.698102 0.500000 0.567891
O O13 0.641911 0.641911 0.568005
O O14 0.776918 0.615358 0.605405
O O15 0.500000 0.906790 0.069761
O O16 0.614028 0.000000 0.078614
O O17 0.608091 0.904194 0.000000
O O18 0.297222 0.500000 0.240991
O O19 0.356475 0.356475 0.245159
O O20 0.224716 0.387049 0.289017
O O21 0.268716 0.731285 0.660721
#
# Coordination Sequence:
#
# PCOD9561656 Si02
#       7
#    16  16  16  16  16  16  16
#     4   9  16  26  41  62  88 116 143 172 207 248
#     4   9  16  27  44  65  90 117 144 177 216 256
#     4  10  18  29  45  65  89 116 146 176 211 260
#     4   9  17  28  44  66  89 116 150 187 227 268
#     4   9  18  32  48  65  86 112 142 180 224 262
#     4  10  19  30  45  64  86 115 147 180 220 261
#     4   9  16  29  45  62  88 119 149 180 215 258
#
# _framework density 14.648663000000001
#
# number of rings (size 3 to 8) (size 9 to 14) (size 15 to 20)
#    0.000    2.714    1.429    1.714    0.000    0.857 
#    0.000    2.143    0.000    5.571    0.000    1.000 
#    0.000    0.000    0.000   32.143    0.000    0.286 
#
# Total GULP energy -623539.331931 kJ/mol
# GULP energy per Si atom -5567.315464 kJ/mol
# Density = 1.461532 g / cm^3
# Si number density = 14.648663 Si / 1000 Ang^3
#
#
#
# Elastic Constant Matrix: (Units=GPa)
#
#
# Indices 1 2 3 4 5 6 
#
# 1 90.8236 54.8250 42.7865 0.0000 0.0000 0.0000
# 2 54.8250 90.8236 42.7865 0.0000 0.0000 0.0000
# 3 42.7865 42.7865 62.5680 0.0000 0.0000 0.0000
# 4 0.0000 0.0000 0.0000 19.4284 0.0000 0.0000
# 5 0.0000 0.0000 0.0000 0.0000 19.4284 0.0000
# 6 0.0000 0.0000 0.0000 0.0000 0.0000 18.3497
#
#
#
# Elastic Compliance Matrix: (Units=1/GPa)
#
#
# Indices 1 2 3 4 5 6 
#
# 1 0.019628 -0.008151 -0.007848 0.000000 0.000000 0.000000
# 2 -0.008151 0.019628 -0.007848 0.000000 0.000000 0.000000
# 3 -0.007848 -0.007848 0.026717 0.000000 0.000000 0.000000
# 4 0.000000 0.000000 0.000000 0.051471 0.000000 0.000000
# 5 0.000000 0.000000 0.000000 0.000000 0.051471 0.000000
# 6 0.000000 0.000000 0.000000 0.000000 0.000000 0.054497
#
#
# Mechanical properties :
#
#
# Convention : Reuss Voigt Hill
#
# Bulk Modulus (GPa) = 54.71346 58.33458 56.52402
# Shear Modulus (GPa) = 18.03752 18.36243 18.19997
#
# Velocity S-wave (km/s) = 3.51286 3.54435 3.52864
# Velocity P-wave (km/s) = 7.34065 7.52721 7.43451
#
# Compressibility (1/GPa) = 0.01827704
#
# Stress axis : x y z
#
# Youngs Moduli (GPa) = 50.94766 50.94766 37.42961
#
# Poissons Ratio (x) = 0.41527 0.29377
# Poissons Ratio (y) = 0.41527 0.29377
# Poissons Ratio (z) = 0.39986 0.39986
#
# Static dielectric constant tensor:
#      x y z
#    x 1.480150 0.000000 0.000000 
#    y 0.000000 1.480150 0.000000 
#    z 0.000000 0.000000 1.476440 
# 
# From -- ./inp_files/6661.got.cif
#   From: 2010.05.17/outbox.cif.g08.bks.cpg/sg123_4_cif.got.tgz:6661.got - 2010.05.20 11:43:04.
