data_PCOD9561414
_publ_section_title
;
Structure prediction by ZEFSAII (Michael W. Deem and Ramdas Pophale) SiO2 
 PCOD9561414
Probable space group: I -4 2 D
;
_chemical_formula_sum "Si O2"
_cell_formula_units_Z 48
_cell_length_a 8.518443
_cell_length_b 8.518443
_cell_length_c 28.004960
_cell_angle_alpha 90.000000
_cell_angle_beta 90.000000
_cell_angle_gamma 90.000000
_cell_volume 2032.148309
_symmetry_space_group_name_H-M "I -4 2 D"
_symmetry_group_IT_number 122
_symmetry_cell_setting 'tetragonal'
loop_
_space_group_symop_operation_xyz
x,y,z
y,-x,-z
-x,-y,z
-y,x,-z
x,1/2-y,1/4-z
-x,1/2+y,1/4-z
-y,1/2-x,1/4+z
y,1/2+x,1/4+z
1/2+x,1/2+y,1/2+z
1/2+y,1/2-x,1/2-z
1/2-x,1/2-y,1/2+z
1/2-y,1/2+x,1/2-z
1/2+x,-y,3/4-z
1/2-x,y,3/4-z
1/2-y,-x,3/4+z
1/2+y,x,3/4+z
loop_
_atom_site_type_symbol
_atom_site_label
_atom_site_fract_x
_atom_site_fract_y
_atom_site_fract_z
Si Si1 0.897643 0.346516 0.408701
Si Si2 0.711403 0.159522 0.748549
Si Si3 0.875035 0.384002 0.593706
O O1 0.750000 0.390637 0.375000
O O2 0.680529 0.284687 0.292271
O O3 0.000000 0.500000 0.419535
O O4 0.008462 0.231621 0.378045
O O5 0.531075 0.210065 0.752154
O O6 0.777126 0.202538 0.696972
O O7 0.956329 0.250000 0.625000
O O8 0.000000 0.500000 0.570620
#
# Coordination Sequence:
#
# PCOD9561414 Si02
#       3
#    16  16  16
#     4  12  23  43  72 103 141 187 243 300 364 437
#     4  11  23  43  74 106 137 185 246 297 357 443
#     4  12  27  47  69 105 148 188 239 305 373 442
#
# _framework density 23.620325000000001
#
# number of rings (size 3 to 8) (size 9 to 14) (size 15 to 20)
#    0.000    0.333    3.333    7.000    0.000    0.000 
#    0.000    0.000    0.000    0.000    0.000    0.000 
#    0.000    0.000    0.000    0.000    0.000    0.000 
#
# Total GULP energy -134417.388074 kJ/mol
# GULP energy per Si atom -5600.724503 kJ/mol
# Density = 2.356656 g / cm^3
# Si number density = 23.620325 Si / 1000 Ang^3
#
#
#
# Elastic Constant Matrix: (Units=GPa)
#
#
# Indices 1 2 3 4 5 6 
#
# 1 38.3579 -8.0787 16.7589 0.0000 0.0000 0.0000
# 2 -8.0787 38.3579 16.7589 0.0000 0.0000 0.0000
# 3 16.7589 16.7589 129.4466 0.0000 0.0000 0.0000
# 4 0.0000 0.0000 0.0000 33.4313 0.0000 0.0000
# 5 0.0000 0.0000 0.0000 0.0000 33.4313 0.0000
# 6 0.0000 0.0000 0.0000 0.0000 0.0000 39.1140
#
#
#
# Elastic Compliance Matrix: (Units=1/GPa)
#
#
# Indices 1 2 3 4 5 6 
#
# 1 0.030043 0.008508 -0.004991 0.000000 0.000000 0.000000
# 2 0.008508 0.030043 -0.004991 0.000000 0.000000 0.000000
# 3 -0.004991 -0.004991 0.009018 0.000000 0.000000 0.000000
# 4 0.000000 0.000000 0.000000 0.029912 0.000000 0.000000
# 5 0.000000 0.000000 0.000000 0.000000 0.029912 0.000000
# 6 0.000000 0.000000 0.000000 0.000000 0.000000 0.025566
#
#
# Mechanical properties :
#
#
# Convention : Reuss Voigt Hill
#
# Bulk Modulus (GPa) = 15.11602 28.56007 21.83804
# Shear Modulus (GPa) = 27.85624 33.24355 30.54989
#
# Velocity S-wave (km/s) = 3.43787 3.75562 3.60025
# Velocity P-wave (km/s) = 4.70872 5.56092 5.15247
#
# Compressibility (1/GPa) = 0.06615496
#
# Stress axis : x y z
#
# Youngs Moduli (GPa) = 33.28595 33.28594 110.89537
#
# Poissons Ratio (x) = -0.28320 0.55348
# Poissons Ratio (y) = -0.28320 0.55348
# Poissons Ratio (z) = 0.16613 0.16613
#
# Static dielectric constant tensor:
#      x y z
#    x 1.855440 0.000000 0.000000 
#    y 0.000000 1.855440 0.000000 
#    z 0.000000 0.000000 1.865890 
# 
# From -- ./inp_files/9007.got.cif
#   From: 2010.05.17/outbox.cif.g08.bks.cpg/sg122_5_cif.got.tgz:9007.got - 2010.05.20 11:37:33.
