data_PCOD9561129
_publ_section_title
;
Structure prediction by ZEFSAII (Michael W. Deem and Ramdas Pophale) SiO2 
 PCOD9561129
Probable space group: I -4 2 D
;
_chemical_formula_sum "Si O2"
_cell_formula_units_Z 88
_cell_length_a 11.554753
_cell_length_b 11.554753
_cell_length_c 28.796059
_cell_angle_alpha 90.000000
_cell_angle_beta 90.000000
_cell_angle_gamma 90.000000
_cell_volume 3844.628554
_symmetry_space_group_name_H-M "I -4 2 D"
_symmetry_group_IT_number 122
_symmetry_cell_setting 'tetragonal'
loop_
_space_group_symop_operation_xyz
x,y,z
y,-x,-z
-x,-y,z
-y,x,-z
x,1/2-y,1/4-z
-x,1/2+y,1/4-z
-y,1/2-x,1/4+z
y,1/2+x,1/4+z
1/2+x,1/2+y,1/2+z
1/2+y,1/2-x,1/2-z
1/2-x,1/2-y,1/2+z
1/2-y,1/2+x,1/2-z
1/2+x,-y,3/4-z
1/2-x,y,3/4-z
1/2-y,-x,3/4+z
1/2+y,x,3/4+z
loop_
_atom_site_type_symbol
_atom_site_label
_atom_site_fract_x
_atom_site_fract_y
_atom_site_fract_z
Si Si1 0.500000 0.000000 0.179237
Si Si2 0.730595 0.750000 0.625000
Si Si3 0.327040 0.572828 0.714386
Si Si4 0.000000 0.000000 0.717753
Si Si5 0.122770 0.149647 0.353847
Si Si6 0.872385 0.002926 0.111883
Si Si7 0.341050 0.677415 0.969944
O O1 0.395450 0.957852 0.146470
O O2 0.552815 0.897817 0.209136
O O3 0.661945 0.630273 0.620007
O O4 0.799155 0.765270 0.576449
O O5 0.436032 0.587799 0.748116
O O6 0.369889 0.570668 0.661585
O O7 0.232544 0.664052 0.733074
O O8 0.270697 0.444578 0.721867
O O9 0.054915 0.901995 0.685205
O O10 0.250000 0.155745 0.375000
O O11 0.070591 0.270274 0.335908
O O12 0.000000 0.000000 0.091476
#
# Coordination Sequence:
#
# PCOD9561129 Si02
#       7
#     8   8  16   8  16  16  16
#     4  11  20  37  57  94 130 158 204 250 318 381
#     4  10  22  42  64  84 126 170 214 250 308 384
#     4  11  22  37  59  90 129 158 203 255 321 375
#     4  11  24  40  63  98 131 168 202 271 324 385
#     4  11  24  39  64  94 128 164 216 257 314 385
#     4  11  24  44  61  92 119 171 219 260 310 372
#     4  11  22  36  60  90 127 167 198 255 318 387
#
# _framework density 22.889078999999999
#
# number of rings (size 3 to 8) (size 9 to 14) (size 15 to 20)
#    0.000    1.091    4.545    3.273    7.636    0.000 
#    0.000    0.000    0.000    0.000    0.000    0.000 
#    0.000    0.000    0.000    0.000    0.000    0.000 
#
# Total GULP energy -245949.838104 kJ/mol
# GULP energy per Si atom -5589.769048 kJ/mol
# Density = 2.283698 g / cm^3
# Si number density = 22.889079 Si / 1000 Ang^3
#
#
#
# Elastic Constant Matrix: (Units=GPa)
#
#
# Indices 1 2 3 4 5 6 
#
# 1 82.2447 9.5356 -3.3563 0.0000 0.0000 0.0000
# 2 9.5356 82.2447 -3.3563 0.0000 0.0000 0.0000
# 3 -3.3563 -3.3563 63.6741 0.0000 0.0000 0.0000
# 4 0.0000 0.0000 0.0000 17.3898 0.0000 0.0000
# 5 0.0000 0.0000 0.0000 0.0000 17.3898 0.0000
# 6 0.0000 0.0000 0.0000 0.0000 0.0000 19.2625
#
#
#
# Elastic Compliance Matrix: (Units=1/GPa)
#
#
# Indices 1 2 3 4 5 6 
#
# 1 0.012346 -0.001408 0.000577 0.000000 0.000000 0.000000
# 2 -0.001408 0.012346 0.000577 0.000000 0.000000 0.000000
# 3 0.000577 0.000577 0.015766 0.000000 0.000000 0.000000
# 4 0.000000 0.000000 0.000000 0.057505 0.000000 0.000000
# 5 0.000000 0.000000 0.000000 0.000000 0.057505 0.000000
# 6 0.000000 0.000000 0.000000 0.000000 0.000000 0.051914
#
#
# Mechanical properties :
#
#
# Convention : Reuss Voigt Hill
#
# Bulk Modulus (GPa) = 25.03293 25.97884 25.50589
# Shear Modulus (GPa) = 22.60329 25.83111 24.21720
#
# Velocity S-wave (km/s) = 3.14588 3.36301 3.25626
# Velocity P-wave (km/s) = 4.91486 5.14338 5.03041
#
# Compressibility (1/GPa) = 0.03994737
#
# Stress axis : x y z
#
# Youngs Moduli (GPa) = 81.00057 81.00057 63.42865
#
# Poissons Ratio (x) = 0.11404 -0.03657
# Poissons Ratio (y) = 0.11404 -0.03657
# Poissons Ratio (z) = -0.04670 -0.04670
#
# Static dielectric constant tensor:
#      x y z
#    x 1.883230 0.000000 0.000000 
#    y 0.000000 1.883230 0.000000 
#    z 0.000000 0.000000 1.877170 
# 
# From -- ./inp_files/9546.got.cif
#   From: 2010.05.17/outbox.cif.g08.bks.cpg/sg122_5_cif.got.tgz:9546.got - 2010.05.20 11:37:33.
