data_PCOD9561933
_publ_section_title
;
Structure prediction by ZEFSAII (Michael W. Deem and Ramdas Pophale) SiO2 
 PCOD9561933
Probable space group: P 4/M M M
;
_chemical_formula_sum "Si O2"
_cell_formula_units_Z 72
_cell_length_a 21.520969
_cell_length_b 21.520969
_cell_length_c 8.362016
_cell_angle_alpha 90.000000
_cell_angle_beta 90.000000
_cell_angle_gamma 90.000000
_cell_volume 3872.885327
_symmetry_space_group_name_H-M "P 4/M M M"
_symmetry_group_IT_number 123
_symmetry_cell_setting 'tetragonal'
loop_
_space_group_symop_operation_xyz
x,y,z
-y,x,z
-x,-y,z
y,-x,z
x,-y,-z
-x,y,-z
y,x,-z
-y,-x,-z
-x,-y,-z
y,-x,-z
x,y,-z
-y,x,-z
-x,y,z
x,-y,z
-y,-x,z
y,x,z
loop_
_atom_site_type_symbol
_atom_site_label
_atom_site_fract_x
_atom_site_fract_y
_atom_site_fract_z
Si Si1 0.073896 0.167254 0.000000
Si Si2 0.073145 0.228750 0.325642
Si Si3 0.069258 0.363588 0.187165
Si Si4 0.326693 0.572036 0.806846
Si Si5 0.425493 0.809153 0.316539
O O1 0.098209 0.198213 0.836422
O O2 0.096751 0.096751 0.000000
O O3 0.000000 0.174109 0.000000
O O4 0.100302 0.213309 0.500000
O O5 0.074920 0.302311 0.294686
O O6 0.000000 0.211482 0.331735
O O7 0.129641 0.404146 0.222777
O O8 0.000000 0.391519 0.217405
O O9 0.069805 0.345296 0.000000
O O10 0.336239 0.500000 0.753625
O O11 0.380851 0.619150 0.752483
O O12 0.258044 0.593619 0.752482
O O13 0.327323 0.571496 0.000000
O O14 0.404317 0.814316 0.500000
O O15 0.500000 0.808463 0.313763
#
# Coordination Sequence:
#
# PCOD9561933 Si02
#       5
#     8  16  16  16  16
#     4  10  20  35  54  78 107 137 173 217 268 328
#     4   9  17  32  54  77 103 137 176 220 269 316
#     4  10  19  33  55  80 106 139 183 230 272 321
#     4   9  18  34  56  80 106 138 177 223 278 337
#     4  10  21  35  51  75 110 149 184 221 269 325
#
# _framework density 18.590790999999999
#
# number of rings (size 3 to 8) (size 9 to 14) (size 15 to 20)
#    0.000    2.444    1.111    1.333    0.000    4.333 
#    0.000    4.444    0.000    2.667    0.000    6.222 
#    0.000    0.000    0.000    0.000    0.000    0.000 
#
# Total GULP energy -400854.538146 kJ/mol
# GULP energy per Si atom -5567.424141 kJ/mol
# Density = 1.854848 g / cm^3
# Si number density = 18.590791 Si / 1000 Ang^3
#
#
#
# Elastic Constant Matrix: (Units=GPa)
#
#
# Indices 1 2 3 4 5 6 
#
# 1 80.9114 50.4053 30.6799 0.0000 0.0000 0.0000
# 2 50.4053 80.9114 30.6799 0.0000 0.0000 0.0000
# 3 30.6799 30.6799 114.5295 0.0000 0.0000 0.0000
# 4 0.0000 0.0000 0.0000 -22.6722 0.0000 0.0000
# 5 0.0000 0.0000 0.0000 0.0000 -22.6722 0.0000
# 6 0.0000 0.0000 0.0000 0.0000 0.0000 18.4641
#
#
#
# Elastic Compliance Matrix: (Units=1/GPa)
#
#
# Indices 1 2 3 4 5 6 
#
# 1 0.020743 -0.012038 -0.002332 0.000000 0.000000 0.000000
# 2 -0.012038 0.020743 -0.002332 0.000000 0.000000 0.000000
# 3 -0.002332 -0.002332 0.009981 0.000000 0.000000 0.000000
# 4 0.000000 0.000000 0.000000 -0.044107 0.000000 0.000000
# 5 0.000000 0.000000 0.000000 0.000000 -0.044107 0.000000
# 6 0.000000 0.000000 0.000000 0.000000 0.000000 0.054159
#
#
# Mechanical properties :
#
#
# Convention : Reuss Voigt Hill
#
# Bulk Modulus (GPa) = 55.36202 55.54250 55.45226
# Shear Modulus (GPa) = 87.97347 5.59639 46.78493
#
# Velocity S-wave (km/s) = 6.88649 1.73690 5.02198
# Velocity P-wave (km/s) = 9.64757 5.82783 7.96992
#
# Compressibility (1/GPa) = 0.01806292
#
# Stress axis : x y z
#
# Youngs Moduli (GPa) = 48.21002 48.21002 100.19384
#
# Poissons Ratio (x) = 0.58034 0.23363
# Poissons Ratio (y) = 0.58034 0.23363
# Poissons Ratio (z) = 0.11242 0.11242
#
# Static dielectric constant tensor:
#      x y z
#    x 1.629930 0.000000 0.000000 
#    y 0.000000 1.629930 0.000000 
#    z 0.000000 0.000000 1.684880 
# 
# From -- ./inp_files/1115.got.cif
#   From: 2010.05.17/outbox.cif.g08.bks.cpg/sg123_1_cif.got.tgz:1115.got - 2010.05.20 11:43:04.
