data_PCOD9561837
_publ_section_title
;
Structure prediction by ZEFSAII (Michael W. Deem and Ramdas Pophale) SiO2 
 PCOD9561837
Probable space group: P 4/M M M
;
_chemical_formula_sum "Si O2"
_cell_formula_units_Z 88
_cell_length_a 17.870696
_cell_length_b 17.870696
_cell_length_c 16.741750
_cell_angle_alpha 90.000000
_cell_angle_beta 90.000000
_cell_angle_gamma 90.000000
_cell_volume 5346.675005
_symmetry_space_group_name_H-M "P 4/M M M"
_symmetry_group_IT_number 123
_symmetry_cell_setting 'tetragonal'
loop_
_space_group_symop_operation_xyz
x,y,z
-y,x,z
-x,-y,z
y,-x,z
x,-y,-z
-x,y,-z
y,x,-z
-y,-x,-z
-x,-y,-z
y,-x,-z
x,y,-z
-y,x,-z
-x,y,z
x,-y,z
-y,-x,z
y,x,z
loop_
_atom_site_type_symbol
_atom_site_label
_atom_site_fract_x
_atom_site_fract_y
_atom_site_fract_z
Si Si1 0.086882 0.413917 0.596074
Si Si2 0.913482 0.633834 0.908980
Si Si3 0.813855 0.303086 0.697802
Si Si4 0.585132 0.774459 0.169408
Si Si5 0.411253 0.703982 0.000000
Si Si6 0.910908 0.786981 0.174108
O O1 0.092091 0.408847 0.500000
O O2 0.104452 0.500000 0.618681
O O3 0.141572 0.355998 0.638055
O O4 0.000000 0.399525 0.617895
O O5 0.862712 0.587494 0.849410
O O6 0.901770 0.722574 0.893438
O O7 0.000000 0.618745 0.894803
O O8 0.895277 0.614295 0.000000
O O9 0.755722 0.244279 0.660740
O O10 0.767676 0.356497 0.759004
O O11 0.873732 0.254564 0.749382
O O12 0.500000 0.749621 0.185822
O O13 0.612625 0.740254 0.084617
O O14 0.500000 0.708608 0.000000
O O15 0.379063 0.620938 0.000000
O O16 0.860695 0.860695 0.158589
O O17 0.000000 0.801555 0.183320
#
# Coordination Sequence:
#
# PCOD9561837 Si02
#       6
#    16  16  16  16   8  16
#     4   9  18  33  53  76 101 129 159 191 232 285
#     4   9  17  29  42  60  87 115 147 188 236 285
#     4  10  19  31  48  71  98 127 157 192 236 284
#     4  10  19  31  46  67  91 121 157 191 231 278
#     4  10  20  33  47  63  85 113 150 192 230 270
#     4   9  18  30  43  61  84 115 156 197 236 278
#
# _framework density 16.458825999999998
#
# number of rings (size 3 to 8) (size 9 to 14) (size 15 to 20)
#    0.000    2.545    0.909    2.182    0.000    2.818 
#    0.000    0.909    0.000    0.000    0.000    2.545 
#    0.000    3.273    0.000   24.909    0.000    0.000 
#
# Total GULP energy -490047.334731 kJ/mol
# GULP energy per Si atom -5568.719713 kJ/mol
# Density = 1.642137 g / cm^3
# Si number density = 16.458826 Si / 1000 Ang^3
#
#
#
# Elastic Constant Matrix: (Units=GPa)
#
#
# Indices 1 2 3 4 5 6 
#
# 1 30.7641 49.0791 15.3700 0.0000 0.0000 0.0000
# 2 49.0791 30.7774 15.3693 0.0000 0.0000 0.0000
# 3 15.3700 15.3693 28.7129 0.0000 0.0000 0.0000
# 4 0.0000 0.0000 0.0000 14.1199 0.0000 0.0000
# 5 0.0000 0.0000 0.0000 0.0000 14.1197 0.0000
# 6 0.0000 0.0000 0.0000 0.0000 0.0000 30.3789
#
#
#
# Elastic Compliance Matrix: (Units=1/GPa)
#
#
# Indices 1 2 3 4 5 6 
#
# 1 -0.019429 0.035197 -0.008440 0.000000 0.000000 0.000000
# 2 0.035197 -0.019417 -0.008448 0.000000 0.000000 0.000000
# 3 -0.008440 -0.008448 0.043867 0.000000 0.000000 0.000000
# 4 0.000000 0.000000 0.000000 0.070822 0.000000 0.000000
# 5 0.000000 0.000000 0.000000 0.000000 0.070823 0.000000
# 6 0.000000 0.000000 0.000000 0.000000 0.000000 0.032918
#
#
# Mechanical properties :
#
#
# Convention : Reuss Voigt Hill
#
# Bulk Modulus (GPa) = 24.01506 27.76570 25.89038
# Shear Modulus (GPa) = 31.87876 12.41944 22.14910
#
# Velocity S-wave (km/s) = 4.40577 2.74994 3.67240
# Velocity P-wave (km/s) = 6.36426 5.19512 5.80918
#
# Compressibility (1/GPa) = 0.04164055
#
# Stress axis : x y z
#
# Youngs Moduli (GPa) = -51.46915 -51.50143 22.79616
#
# Poissons Ratio (x) = 1.81270 0.19239
# Poissons Ratio (y) = 1.81156 0.19257
# Poissons Ratio (z) = -0.43438 -0.43506
#
# Static dielectric constant tensor:
#      x y z
#    x 1.562190 0.000000 0.000000 
#    y 0.000000 1.562190 0.000000 
#    z 0.000000 0.000000 1.560010 
# 
# From -- ./inp_files/4053.got.cif
#   From: 2010.05.17/outbox.cif.g08.bks.cpg/sg123_3_cif.got.tgz:4053.got - 2010.05.20 11:43:04.
