data_PCOD9561961
_publ_section_title
;
Structure prediction by ZEFSAII (Michael W. Deem and Ramdas Pophale) SiO2 
 PCOD9561961
Probable space group: P 4/M M M
;
_chemical_formula_sum "Si O2"
_cell_formula_units_Z 72
_cell_length_a 12.995834
_cell_length_b 12.995834
_cell_length_c 25.382536
_cell_angle_alpha 90.000000
_cell_angle_beta 90.000000
_cell_angle_gamma 90.000000
_cell_volume 4286.899690
_symmetry_space_group_name_H-M "P 4/M M M"
_symmetry_group_IT_number 123
_symmetry_cell_setting 'tetragonal'
loop_
_space_group_symop_operation_xyz
x,y,z
-y,x,z
-x,-y,z
y,-x,z
x,-y,-z
-x,y,-z
y,x,-z
-y,-x,-z
-x,-y,-z
y,-x,-z
x,y,-z
-y,x,-z
-x,y,z
x,-y,z
-y,-x,z
y,x,z
loop_
_atom_site_type_symbol
_atom_site_label
_atom_site_fract_x
_atom_site_fract_y
_atom_site_fract_z
Si Si1 0.289102 0.879744 0.771432
Si Si2 0.377706 0.785152 0.668603
Si Si3 0.624832 0.119355 0.557630
Si Si4 0.621399 0.206959 0.876458
Si Si5 0.375287 0.000000 0.060423
O O1 0.181241 0.818760 0.773258
O O2 0.337897 0.860852 0.714087
O O3 0.360161 0.827017 0.815900
O O4 0.278821 0.000000 0.782226
O O5 0.500000 0.778870 0.670328
O O6 0.323408 0.676593 0.679210
O O7 0.344771 0.823126 0.610615
O O8 0.658112 0.159337 0.500000
O O9 0.500000 0.120856 0.557331
O O10 0.656162 0.000000 0.561280
O O11 0.500000 0.228148 0.885478
O O12 0.696062 0.303939 0.887527
O O13 0.653725 0.105971 0.910218
O O14 0.500000 0.000000 0.060679
O O15 0.339882 0.000000 0.000000
#
# Coordination Sequence:
#
# PCOD9561961 Si02
#       5
#    16  16  16  16   8
#     4  10  20  34  53  77 103 131 166 209 258 311
#     4  10  20  31  45  67  94 128 168 208 251 299
#     4   8  14  26  44  64  85 112 151 200 250 296
#     4  10  20  34  54  81 111 144 180 219 264 313
#     4   9  18  34  56  79 105 141 182 221 258 301
#
# _framework density 16.795355000000001
#
# number of rings (size 3 to 8) (size 9 to 14) (size 15 to 20)
#    0.000    2.556    1.111    2.000    0.000    3.778 
#    0.000    0.000    0.000    4.333    0.000    7.000 
#    0.000    0.000    0.000   20.667    0.000    1.111 
#
# Total GULP energy -401008.841806 kJ/mol
# GULP energy per Si atom -5569.567247 kJ/mol
# Density = 1.675713 g / cm^3
# Si number density = 16.795355 Si / 1000 Ang^3
#
#
#
# Elastic Constant Matrix: (Units=GPa)
#
#
# Indices 1 2 3 4 5 6 
#
# 1 58.0712 83.7850 26.4662 0.0000 0.0000 0.0000
# 2 83.7850 58.0712 26.4662 0.0000 0.0000 0.0000
# 3 26.4662 26.4662 96.2934 0.0000 0.0000 0.0000
# 4 0.0000 0.0000 0.0000 16.6696 0.0000 0.0000
# 5 0.0000 0.0000 0.0000 0.0000 16.6696 0.0000
# 6 0.0000 0.0000 0.0000 0.0000 0.0000 10.7898
#
#
#
# Elastic Compliance Matrix: (Units=1/GPa)
#
#
# Indices 1 2 3 4 5 6 
#
# 1 -0.015517 0.023372 -0.002159 0.000000 0.000000 0.000000
# 2 0.023372 -0.015517 -0.002159 0.000000 0.000000 0.000000
# 3 -0.002159 -0.002159 0.011572 0.000000 0.000000 0.000000
# 4 0.000000 0.000000 0.000000 0.059989 0.000000 0.000000
# 5 0.000000 0.000000 0.000000 0.000000 0.059989 0.000000
# 6 0.000000 0.000000 0.000000 0.000000 0.000000 0.092680
#
#
# Mechanical properties :
#
#
# Convention : Reuss Voigt Hill
#
# Bulk Modulus (GPa) = 53.63108 53.98562 53.80835
# Shear Modulus (GPa) = 30.99773 13.87372 22.43573
#
# Velocity S-wave (km/s) = 4.30072 2.87722 3.65887
# Velocity P-wave (km/s) = 7.52748 6.57654 7.06802
#
# Compressibility (1/GPa) = 0.01864590
#
# Stress axis : x y z
#
# Youngs Moduli (GPa) = -64.44404 -64.44404 86.41785
#
# Poissons Ratio (x) = 1.50621 0.18657
# Poissons Ratio (y) = 1.50621 0.18657
# Poissons Ratio (z) = -0.13913 -0.13913
#
# Static dielectric constant tensor:
#      x y z
#    x 1.550580 0.000000 0.000000 
#    y 0.000000 1.550580 0.000000 
#    z 0.000000 0.000000 1.593920 
# 
# From -- ./inp_files/7798.got.cif
#   From: 2010.05.17/outbox.cif.g08.bks.cpg/sg123_4_cif.got.tgz:7798.got - 2010.05.20 11:43:04.
