data_PCOD9561203
_publ_section_title
;
Structure prediction by ZEFSAII (Michael W. Deem and Ramdas Pophale) SiO2 
 PCOD9561203
Probable space group: I -4 2 D
;
_chemical_formula_sum "Si O2"
_cell_formula_units_Z 64
_cell_length_a 13.137563
_cell_length_b 13.137563
_cell_length_c 17.104758
_cell_angle_alpha 90.000000
_cell_angle_beta 90.000000
_cell_angle_gamma 90.000000
_cell_volume 2952.205313
_symmetry_space_group_name_H-M "I -4 2 D"
_symmetry_group_IT_number 122
_symmetry_cell_setting 'tetragonal'
loop_
_space_group_symop_operation_xyz
x,y,z
y,-x,-z
-x,-y,z
-y,x,-z
x,1/2-y,1/4-z
-x,1/2+y,1/4-z
-y,1/2-x,1/4+z
y,1/2+x,1/4+z
1/2+x,1/2+y,1/2+z
1/2+y,1/2-x,1/2-z
1/2-x,1/2-y,1/2+z
1/2-y,1/2+x,1/2-z
1/2+x,-y,3/4-z
1/2-x,y,3/4-z
1/2-y,-x,3/4+z
1/2+y,x,3/4+z
loop_
_atom_site_type_symbol
_atom_site_label
_atom_site_fract_x
_atom_site_fract_y
_atom_site_fract_z
Si Si1 0.329214 0.230391 0.714947
Si Si2 0.263890 0.481326 0.171084
Si Si3 0.057714 0.755698 0.752170
Si Si4 0.139657 0.953401 0.379942
O O1 0.362516 0.250000 0.625000
O O2 0.422801 0.244306 0.774437
O O3 0.280646 0.118561 0.714466
O O4 0.251714 0.321588 0.736865
O O5 0.214767 0.491609 0.084713
O O6 0.377877 0.449330 0.142573
O O7 0.034125 0.842489 0.688864
O O8 0.011696 0.654514 0.711717
O O9 0.250000 0.894882 0.375000
#
# Coordination Sequence:
#
# PCOD9561203 Si02
#       4
#    16  16  16  16
#     4  10  23  41  61  93 130 177 221 264 328 412
#     4  11  21  41  66  87 136 176 213 273 334 400
#     4   8  20  38  61  92 121 160 220 270 325 401
#     4   8  19  38  62  92 120 163 210 284 333 380
#
# _framework density 21.678709000000001
#
# number of rings (size 3 to 8) (size 9 to 14) (size 15 to 20)
#    1.500    1.000    0.000    2.250    0.000    7.500 
#    4.500    5.000    0.000    0.000    0.000    0.000 
#    0.000    0.000    0.000    0.000    0.000    0.000 
#
# Total GULP energy -178136.523449 kJ/mol
# GULP energy per Si atom -5566.766358 kJ/mol
# Density = 2.162937 g / cm^3
# Si number density = 21.678709 Si / 1000 Ang^3
#
#
#
# Elastic Constant Matrix: (Units=GPa)
#
#
# Indices 1 2 3 4 5 6 
#
# 1 102.2436 50.3608 67.1438 0.0000 0.0000 0.0000
# 2 50.3608 102.2436 67.1438 0.0000 0.0000 0.0000
# 3 67.1438 67.1438 129.2937 0.0000 0.0000 0.0000
# 4 0.0000 0.0000 0.0000 32.7555 0.0000 0.0000
# 5 0.0000 0.0000 0.0000 0.0000 32.7555 0.0000
# 6 0.0000 0.0000 0.0000 0.0000 0.0000 29.9235
#
#
#
# Elastic Compliance Matrix: (Units=1/GPa)
#
#
# Indices 1 2 3 4 5 6 
#
# 1 0.015671 -0.003603 -0.006267 0.000000 0.000000 0.000000
# 2 -0.003603 0.015671 -0.006267 0.000000 0.000000 0.000000
# 3 -0.006267 -0.006267 0.014243 0.000000 0.000000 0.000000
# 4 0.000000 0.000000 0.000000 0.030529 0.000000 0.000000
# 5 0.000000 0.000000 0.000000 0.000000 0.030529 0.000000
# 6 0.000000 0.000000 0.000000 0.000000 0.000000 0.033419
#
#
# Mechanical properties :
#
#
# Convention : Reuss Voigt Hill
#
# Bulk Modulus (GPa) = 75.12594 78.11974 76.62284
# Shear Modulus (GPa) = 28.28491 29.02909 28.65700
#
# Velocity S-wave (km/s) = 3.61603 3.66329 3.63973
# Velocity P-wave (km/s) = 7.22244 7.34890 7.28595
#
# Compressibility (1/GPa) = 0.01331098
#
# Stress axis : x y z
#
# Youngs Moduli (GPa) = 63.81267 63.81267 70.20901
#
# Poissons Ratio (x) = 0.22994 0.43999
# Poissons Ratio (y) = 0.22994 0.43999
# Poissons Ratio (z) = 0.39990 0.39990
#
# Static dielectric constant tensor:
#      x y z
#    x 1.840400 0.000000 0.000000 
#    y 0.000000 1.840400 0.000000 
#    z 0.000000 0.000000 1.801960 
# 
# From -- ./inp_files/6056.got.cif
#   From: 2010.05.17/outbox.cif.g08.bks.cpg/sg122_4_cif.got.tgz:6056.got - 2010.05.20 11:37:33.
