data_PCOD9561617
_publ_section_title
;
Structure prediction by ZEFSAII (Michael W. Deem and Ramdas Pophale) SiO2 
 PCOD9561617
Probable space group: P 4/M M M
;
_chemical_formula_sum "Si O2"
_cell_formula_units_Z 128
_cell_length_a 18.863505
_cell_length_b 18.863505
_cell_length_c 24.857916
_cell_angle_alpha 90.000000
_cell_angle_beta 90.000000
_cell_angle_gamma 90.000000
_cell_volume 8845.237514
_symmetry_space_group_name_H-M "P 4/M M M"
_symmetry_group_IT_number 123
_symmetry_cell_setting 'tetragonal'
loop_
_space_group_symop_operation_xyz
x,y,z
-y,x,z
-x,-y,z
y,-x,z
x,-y,-z
-x,y,-z
y,x,-z
-y,-x,-z
-x,-y,-z
y,-x,-z
x,y,-z
-y,x,-z
-x,y,z
x,-y,z
-y,-x,z
y,x,z
loop_
_atom_site_type_symbol
_atom_site_label
_atom_site_fract_x
_atom_site_fract_y
_atom_site_fract_z
Si Si1 0.918464 0.413811 0.061268
Si Si2 0.642599 0.916798 0.734957
Si Si3 0.685799 0.806386 0.440070
Si Si4 0.804515 0.081024 0.286158
Si Si5 0.798477 0.582928 0.660645
Si Si6 0.081519 0.196763 0.416409
Si Si7 0.414616 0.836723 0.835135
Si Si8 0.584781 0.701931 0.235357
O O1 0.917659 0.500000 0.061223
O O2 0.861973 0.390279 0.106011
O O3 0.000000 0.393255 0.074618
O O4 0.903191 0.391030 0.000000
O O5 0.725814 0.897887 0.731916
O O6 0.600931 0.871969 0.690567
O O7 0.612341 0.894190 0.792359
O O8 0.636158 0.000000 0.725373
O O9 0.654059 0.805068 0.500000
O O10 0.744191 0.744191 0.436546
O O11 0.630685 0.795091 0.392232
O O12 0.731446 0.878486 0.433349
O O13 0.863966 0.136035 0.267795
O O14 0.803866 0.081654 0.351271
O O15 0.818752 0.000000 0.269103
O O16 0.794174 0.500000 0.647762
O O17 0.739449 0.598373 0.706657
O O18 0.130365 0.130365 0.434086
O O19 0.000000 0.192681 0.434164
O O20 0.500000 0.837871 0.834687
O O21 0.394933 0.760150 0.810328
O O22 0.500000 0.688950 0.231657
O O23 0.632303 0.632303 0.230338
#
# Coordination Sequence:
#
# PCOD9561617 Si02
#       8
#    16  16  16  16  16  16  16  16
#     4   8  13  22  38  60  87 120 154 185 215 245
#     4  10  18  27  41  62  88 117 145 172 206 251
#     4  10  20  33  49  65  82 109 140 169 208 257
#     4   9  17  28  43  62  83 109 140 174 212 252
#     4  10  20  32  47  66  86 109 137 172 211 251
#     4   9  17  30  46  64  85 108 138 175 213 253
#     4   9  17  27  40  62  90 118 149 182 214 251
#     4   9  18  31  47  67  88 110 138 174 218 267
#
# _framework density 14.471064999999999
#
# number of rings (size 3 to 8) (size 9 to 14) (size 15 to 20)
#    0.000    2.750    1.250    2.250    0.000    4.375 
#    0.000    1.250    0.000    0.375    0.000    3.500 
#    0.000    0.000    0.000   16.500    0.000    0.125 
#
# Total GULP energy -712816.377840 kJ/mol
# GULP energy per Si atom -5568.877952 kJ/mol
# Density = 1.443813 g / cm^3
# Si number density = 14.471065 Si / 1000 Ang^3
#
#
#
# Elastic Constant Matrix: (Units=GPa)
#
#
# Indices 1 2 3 4 5 6 
#
# 1 55.4290 36.7444 36.1165 0.0000 0.0000 0.0000
# 2 36.7444 55.4290 36.1165 0.0000 0.0000 0.0000
# 3 36.1165 36.1165 91.9095 0.0000 0.0000 0.0000
# 4 0.0000 0.0000 0.0000 11.1803 0.0000 0.0000
# 5 0.0000 0.0000 0.0000 0.0000 11.1803 0.0000
# 6 0.0000 0.0000 0.0000 0.0000 0.0000 21.2348
#
#
#
# Elastic Compliance Matrix: (Units=1/GPa)
#
#
# Indices 1 2 3 4 5 6 
#
# 1 0.034598 -0.018922 -0.006160 0.000000 0.000000 0.000000
# 2 -0.018922 0.034598 -0.006160 0.000000 0.000000 0.000000
# 3 -0.006160 -0.006160 0.015722 0.000000 0.000000 0.000000
# 4 0.000000 0.000000 0.000000 0.089443 0.000000 0.000000
# 5 0.000000 0.000000 0.000000 0.000000 0.089443 0.000000
# 6 0.000000 0.000000 0.000000 0.000000 0.000000 0.047093
#
#
# Mechanical properties :
#
#
# Convention : Reuss Voigt Hill
#
# Bulk Modulus (GPa) = 44.57512 46.74691 45.66101
# Shear Modulus (GPa) = 13.12817 14.97173 14.04995
#
# Velocity S-wave (km/s) = 3.01525 3.22001 3.11931
# Velocity P-wave (km/s) = 6.55683 6.79694 6.67797
#
# Compressibility (1/GPa) = 0.02243404
#
# Stress axis : x y z
#
# Youngs Moduli (GPa) = 28.90310 28.90310 63.60625
#
# Poissons Ratio (x) = 0.54689 0.39183
# Poissons Ratio (y) = 0.54689 0.39183
# Poissons Ratio (z) = 0.17805 0.17805
#
# Static dielectric constant tensor:
#      x y z
#    x 1.472010 0.000000 0.000000 
#    y 0.000000 1.472010 0.000000 
#    z 0.000000 0.000000 1.485800 
# 
# From -- ./inp_files/7695.got.cif
#   From: 2010.05.17/outbox.cif.g08.bks.cpg/sg123_4_cif.got.tgz:7695.got - 2010.05.20 11:43:04.
