data_PCOD9561550
_publ_section_title
;
Structure prediction by ZEFSAII (Michael W. Deem and Ramdas Pophale) SiO2 
 PCOD9561550
Probable space group: I -4 2 D
;
_chemical_formula_sum "Si O2"
_cell_formula_units_Z 60
_cell_length_a 18.418262
_cell_length_b 18.418262
_cell_length_c 8.371302
_cell_angle_alpha 90.000000
_cell_angle_beta 90.000000
_cell_angle_gamma 90.000000
_cell_volume 2839.816660
_symmetry_space_group_name_H-M "I -4 2 D"
_symmetry_group_IT_number 122
_symmetry_cell_setting 'tetragonal'
loop_
_space_group_symop_operation_xyz
x,y,z
y,-x,-z
-x,-y,z
-y,x,-z
x,1/2-y,1/4-z
-x,1/2+y,1/4-z
-y,1/2-x,1/4+z
y,1/2+x,1/4+z
1/2+x,1/2+y,1/2+z
1/2+y,1/2-x,1/2-z
1/2-x,1/2-y,1/2+z
1/2-y,1/2+x,1/2-z
1/2+x,-y,3/4-z
1/2-x,y,3/4-z
1/2-y,-x,3/4+z
1/2+y,x,3/4+z
loop_
_atom_site_type_symbol
_atom_site_label
_atom_site_fract_x
_atom_site_fract_y
_atom_site_fract_z
Si Si1 0.000000 0.500000 0.750000
Si Si2 0.546713 0.619724 0.753143
Si Si3 0.832444 0.960021 0.046585
Si Si4 0.250000 0.346455 0.375000
Si Si5 0.759753 0.397916 0.064185
O O1 0.930781 0.486680 0.638743
O O2 0.484368 0.646313 0.632370
O O3 0.601605 0.573936 0.643665
O O4 0.589768 0.685855 0.835823
O O5 0.807509 0.033382 0.131707
O O6 0.770377 0.899178 0.023617
O O7 0.321494 0.297971 0.351504
O O8 0.750000 0.402059 0.875000
#
# Coordination Sequence:
#
# PCOD9561550 Si02
#       5
#     4  16  16   8  16
#     4  12  28  46  76 112 148 194 252 328 380 442
#     4  12  26  48  75 112 147 197 257 313 384 448
#     4  12  25  48  78 104 151 196 252 310 380 458
#     4  12  28  48  76 106 152 200 244 308 380 454
#     4  12  29  48  74 115 150 198 253 313 382 458
#
# _framework density 21.128122999999999
#
# number of rings (size 3 to 8) (size 9 to 14) (size 15 to 20)
#    0.000    0.000    5.333    3.200    7.467    2.133 
#    0.000    0.000    0.000    0.000    0.000    0.000 
#    0.000    0.000    0.000    0.000    0.000    0.000 
#
# Total GULP energy -167970.294552 kJ/mol
# GULP energy per Si atom -5599.009818 kJ/mol
# Density = 2.108003 g / cm^3
# Si number density = 21.128123 Si / 1000 Ang^3
#
#
#
# Elastic Constant Matrix: (Units=GPa)
#
#
# Indices 1 2 3 4 5 6 
#
# 1 134.0032 70.8698 67.2652 0.0000 0.0000 0.0000
# 2 70.8698 134.0032 67.2652 0.0000 0.0000 0.0000
# 3 67.2652 67.2652 141.1563 0.0000 0.0000 0.0000
# 4 0.0000 0.0000 0.0000 27.6945 0.0000 0.0000
# 5 0.0000 0.0000 0.0000 0.0000 27.6945 0.0000
# 6 0.0000 0.0000 0.0000 0.0000 0.0000 41.4589
#
#
#
# Elastic Compliance Matrix: (Units=1/GPa)
#
#
# Indices 1 2 3 4 5 6 
#
# 1 0.011472 -0.004368 -0.003385 0.000000 0.000000 0.000000
# 2 -0.004368 0.011472 -0.003385 0.000000 0.000000 0.000000
# 3 -0.003385 -0.003385 0.010311 0.000000 0.000000 0.000000
# 4 0.000000 0.000000 0.000000 0.036108 0.000000 0.000000
# 5 0.000000 0.000000 0.000000 0.000000 0.036108 0.000000
# 6 0.000000 0.000000 0.000000 0.000000 0.000000 0.024120
#
#
# Mechanical properties :
#
#
# Convention : Reuss Voigt Hill
#
# Bulk Modulus (GPa) = 91.09420 91.10703 91.10062
# Shear Modulus (GPa) = 32.14880 32.95375 32.55128
#
# Velocity S-wave (km/s) = 3.90502 3.95360 3.92938
# Velocity P-wave (km/s) = 7.97126 8.00351 7.98740
#
# Compressibility (1/GPa) = 0.01097765
#
# Stress axis : x y z
#
# Youngs Moduli (GPa) = 87.17067 87.17067 96.98634
#
# Poissons Ratio (x) = 0.38074 0.32833
# Poissons Ratio (y) = 0.38074 0.32833
# Poissons Ratio (z) = 0.29510 0.29510
#
# Static dielectric constant tensor:
#      x y z
#    x 1.764390 0.000000 0.000000 
#    y 0.000000 1.764390 0.000000 
#    z 0.000000 0.000000 1.725890 
# 
# From -- ./inp_files/2325.got.cif
#   From: 2010.05.17/outbox.cif.g08.bks.cpg/sg122_2_cif.got.tgz:2325.got - 2010.05.20 11:37:33.
