data_PCOD9561208
_publ_section_title
;
Structure prediction by ZEFSAII (Michael W. Deem and Ramdas Pophale) SiO2 
 PCOD9561208
Probable space group: I -4 2 D
;
_chemical_formula_sum "Si O2"
_cell_formula_units_Z 60
_cell_length_a 11.602898
_cell_length_b 11.602898
_cell_length_c 18.680895
_cell_angle_alpha 90.000000
_cell_angle_beta 90.000000
_cell_angle_gamma 90.000000
_cell_volume 2514.957372
_symmetry_space_group_name_H-M "I -4 2 D"
_symmetry_group_IT_number 122
_symmetry_cell_setting 'tetragonal'
loop_
_space_group_symop_operation_xyz
x,y,z
y,-x,-z
-x,-y,z
-y,x,-z
x,1/2-y,1/4-z
-x,1/2+y,1/4-z
-y,1/2-x,1/4+z
y,1/2+x,1/4+z
1/2+x,1/2+y,1/2+z
1/2+y,1/2-x,1/2-z
1/2-x,1/2-y,1/2+z
1/2-y,1/2+x,1/2-z
1/2+x,-y,3/4-z
1/2-x,y,3/4-z
1/2-y,-x,3/4+z
1/2+y,x,3/4+z
loop_
_atom_site_type_symbol
_atom_site_label
_atom_site_fract_x
_atom_site_fract_y
_atom_site_fract_z
Si Si1 0.500000 0.500000 0.808987
Si Si2 0.757791 0.923575 0.253524
Si Si3 0.000000 0.000000 0.500000
Si Si4 0.049853 0.749585 0.342513
Si Si5 0.325875 0.802466 0.694980
O O1 0.376792 0.491850 0.769536
O O2 0.508864 0.381983 0.851830
O O3 0.639114 0.990526 0.271376
O O4 0.773439 0.895179 0.169155
O O5 0.759636 0.805728 0.297806
O O6 0.122262 0.731765 0.270943
O O7 0.936760 0.676705 0.323632
O O8 0.385531 0.750000 0.625000
#
# Coordination Sequence:
#
# PCOD9561208 Si02
#       5
#     8  16   4  16  16
#     4  10  23  42  64  96 139 174 220 284 343 402
#     4  11  24  42  67  97 134 177 224 280 341 402
#     4  12  22  40  72 104 130 172 236 290 334 400
#     4  11  23  41  66  93 128 177 223 274 336 407
#     4  11  25  43  64  97 135 172 222 279 336 403
#
# _framework density 23.857261999999999
#
# number of rings (size 3 to 8) (size 9 to 14) (size 15 to 20)
#    0.000    1.067    0.000    6.400    0.000    9.067 
#    0.000    0.000    0.000    0.000    0.000    0.000 
#    0.000    0.000    0.000    0.000    0.000    0.000 
#
# Total GULP energy -167316.517642 kJ/mol
# GULP energy per Si atom -5577.217255 kJ/mol
# Density = 2.380296 g / cm^3
# Si number density = 23.857262 Si / 1000 Ang^3
#
#
#
# Elastic Constant Matrix: (Units=GPa)
#
#
# Indices 1 2 3 4 5 6 
#
# 1 103.7583 7.4718 25.1082 0.0000 0.0000 0.0000
# 2 7.4718 103.7583 25.1082 0.0000 0.0000 0.0000
# 3 25.1082 25.1082 172.8534 0.0000 0.0000 0.0000
# 4 0.0000 0.0000 0.0000 15.0623 0.0000 0.0000
# 5 0.0000 0.0000 0.0000 0.0000 15.0623 0.0000
# 6 0.0000 0.0000 0.0000 0.0000 0.0000 17.6021
#
#
#
# Elastic Compliance Matrix: (Units=1/GPa)
#
#
# Indices 1 2 3 4 5 6 
#
# 1 0.010004 -0.000382 -0.001398 0.000000 0.000000 0.000000
# 2 -0.000382 0.010004 -0.001398 0.000000 0.000000 0.000000
# 3 -0.001398 -0.001398 0.006191 0.000000 0.000000 0.000000
# 4 0.000000 0.000000 0.000000 0.066391 0.000000 0.000000
# 5 0.000000 0.000000 0.000000 0.000000 0.066391 0.000000
# 6 0.000000 0.000000 0.000000 0.000000 0.000000 0.056812
#
#
# Mechanical properties :
#
#
# Convention : Reuss Voigt Hill
#
# Bulk Modulus (GPa) = 50.39396 55.08293 52.73844
# Shear Modulus (GPa) = 21.85686 31.05743 26.45715
#
# Velocity S-wave (km/s) = 3.03008 3.61196 3.33374
# Velocity P-wave (km/s) = 5.78021 6.36661 6.08048
#
# Compressibility (1/GPa) = 0.01984365
#
# Stress axis : x y z
#
# Youngs Moduli (GPa) = 99.96500 99.96500 161.51790
#
# Poissons Ratio (x) = 0.03820 0.22573
# Poissons Ratio (y) = 0.03820 0.22573
# Poissons Ratio (z) = 0.13971 0.13971
#
# Static dielectric constant tensor:
#      x y z
#    x 1.923160 0.000000 0.000000 
#    y 0.000000 1.923160 0.000000 
#    z 0.000000 0.000000 2.077790 
# 
# From -- ./inp_files/6977.got.cif
#   From: 2010.05.17/outbox.cif.g08.bks.cpg/sg122_4_cif.got.tgz:6977.got - 2010.05.20 11:37:33.
