data_PCOD9561756
_publ_section_title
;
Structure prediction by ZEFSAII (Michael W. Deem and Ramdas Pophale) SiO2 
 PCOD9561756
Probable space group: P 4/M M M
;
_chemical_formula_sum "Si O2"
_cell_formula_units_Z 96
_cell_length_a 26.551658
_cell_length_b 26.551658
_cell_length_c 7.625422
_cell_angle_alpha 90.000000
_cell_angle_beta 90.000000
_cell_angle_gamma 90.000000
_cell_volume 5375.850393
_symmetry_space_group_name_H-M "P 4/M M M"
_symmetry_group_IT_number 123
_symmetry_cell_setting 'tetragonal'
loop_
_space_group_symop_operation_xyz
x,y,z
-y,x,z
-x,-y,z
y,-x,z
x,-y,-z
-x,y,-z
y,x,-z
-y,-x,-z
-x,-y,-z
y,-x,-z
x,y,-z
-y,x,-z
-x,y,z
x,-y,z
-y,-x,z
y,x,z
loop_
_atom_site_type_symbol
_atom_site_label
_atom_site_fract_x
_atom_site_fract_y
_atom_site_fract_z
Si Si1 0.737907 0.658309 0.785102
Si Si2 0.394519 0.106174 0.708712
Si Si3 0.055057 0.860244 0.500000
Si Si4 0.000000 0.558420 0.714504
Si Si5 0.292678 0.840614 0.796469
Si Si6 0.193369 0.107513 0.201204
Si Si7 0.444106 0.211991 0.788560
O O1 0.686819 0.686819 0.731247
O O2 0.786239 0.691117 0.725041
O O3 0.751692 0.601468 0.727896
O O4 0.738241 0.657753 0.000000
O O5 0.388314 0.102465 0.500000
O O6 0.341089 0.123341 0.785973
O O7 0.430790 0.153942 0.744449
O O8 0.415315 0.052262 0.771642
O O9 0.096538 0.903463 0.500000
O O10 0.064690 0.826619 0.328616
O O11 0.000000 0.882315 0.500000
O O12 0.000000 0.500000 0.768026
O O13 0.000000 0.559167 0.500000
O O14 0.244049 0.867822 0.722487
O O15 0.279927 0.831243 0.000000
O O16 0.151446 0.151446 0.198565
O O17 0.201302 0.090696 0.000000
O O18 0.500000 0.224586 0.723777
O O19 0.444392 0.215043 0.000000
#
# Coordination Sequence:
#
# PCOD9561756 Si02
#       7
#    16  16   8   8  16  16  16
#     4   8  13  23  42  65  87 113 147 185 226 276
#     4  10  19  30  45  64  85 114 153 196 233 275
#     4  10  22  39  58  82 106 132 166 206 246 298
#     4   9  18  32  45  57  77 111 155 197 233 266
#     4   9  17  30  47  68  95 124 153 190 237 286
#     4   9  18  34  56  79 104 135 167 198 239 296
#     4   9  17  29  44  62  86 114 146 188 235 280
#
# _framework density 17.85764
#
# number of rings (size 3 to 8) (size 9 to 14) (size 15 to 20)
#    0.000    2.917    0.000    2.500    1.167    3.417 
#    1.500    1.667    0.000    7.500    0.000    2.333 
#    0.000    0.333    0.000    4.667    0.000    0.000 
#
# Total GULP energy -535000.511296 kJ/mol
# GULP energy per Si atom -5572.921993 kJ/mol
# Density = 1.781700 g / cm^3
# Si number density = 17.857640 Si / 1000 Ang^3
#
#
#
# Elastic Constant Matrix: (Units=GPa)
#
#
# Indices 1 2 3 4 5 6 
#
# 1 88.9920 38.3057 7.2226 0.0000 0.0000 0.0000
# 2 38.3057 88.9971 7.2229 0.0000 0.0000 0.0000
# 3 7.2226 7.2229 47.7729 0.0000 0.0000 0.0000
# 4 0.0000 0.0000 0.0000 10.5359 0.0000 0.0000
# 5 0.0000 0.0000 0.0000 0.0000 10.5367 0.0000
# 6 0.0000 0.0000 0.0000 0.0000 0.0000 -85.3396
#
#
#
# Elastic Compliance Matrix: (Units=1/GPa)
#
#
# Indices 1 2 3 4 5 6 
#
# 1 0.013861 -0.005868 -0.001208 0.000000 0.000000 0.000000
# 2 -0.005868 0.013860 -0.001208 0.000000 0.000000 0.000000
# 3 -0.001208 -0.001208 0.021298 0.000000 0.000000 0.000000
# 4 0.000000 0.000000 0.000000 0.094914 0.000000 0.000000
# 5 0.000000 0.000000 0.000000 0.000000 0.094906 0.000000
# 6 0.000000 0.000000 0.000000 0.000000 0.000000 -0.011718
#
#
# Mechanical properties :
#
#
# Convention : Reuss Voigt Hill
#
# Bulk Modulus (GPa) = 30.81727 36.80715 33.81221
# Shear Modulus (GPa) = 19.64587 -1.31935 9.16326
#
# Velocity S-wave (km/s) = 3.32043 -0.86048 2.26769
# Velocity P-wave (km/s) = 5.65641 4.43497 5.08252
#
# Compressibility (1/GPa) = 0.03244934
#
# Stress axis : x y z
#
# Youngs Moduli (GPa) = 72.14598 72.15009 46.95329
#
# Poissons Ratio (x) = 0.42336 0.05674
# Poissons Ratio (y) = 0.42334 0.05674
# Poissons Ratio (z) = 0.08718 0.08718
#
# Static dielectric constant tensor:
#      x y z
#    x 1.603820 0.000000 0.000000 
#    y 0.000000 1.603820 0.000000 
#    z 0.000000 0.000000 1.659310 
# 
# From -- ./inp_files/1717.got.cif
#   From: 2010.05.17/outbox.cif.g08.bks.cpg/sg123_1_cif.got.tgz:1717.got - 2010.05.20 11:43:04.
