data_PCOD9561843
_publ_section_title
;
Structure prediction by ZEFSAII (Michael W. Deem and Ramdas Pophale) SiO2 
 PCOD9561843
Probable space group: P 4/M M M
;
_chemical_formula_sum "Si O2"
_cell_formula_units_Z 96
_cell_length_a 19.093410
_cell_length_b 19.093410
_cell_length_c 16.197677
_cell_angle_alpha 90.000000
_cell_angle_beta 90.000000
_cell_angle_gamma 90.000000
_cell_volume 5904.997679
_symmetry_space_group_name_H-M "P 4/M M M"
_symmetry_group_IT_number 123
_symmetry_cell_setting 'tetragonal'
loop_
_space_group_symop_operation_xyz
x,y,z
-y,x,z
-x,-y,z
y,-x,z
x,-y,-z
-x,y,-z
y,x,-z
-y,-x,-z
-x,-y,-z
y,-x,-z
x,y,-z
-y,x,-z
-x,y,z
x,-y,z
-y,-x,z
y,x,z
loop_
_atom_site_type_symbol
_atom_site_label
_atom_site_fract_x
_atom_site_fract_y
_atom_site_fract_z
Si Si1 0.698329 0.081928 0.167322
Si Si2 0.313340 0.423417 0.817406
Si Si3 0.738169 0.422917 0.000000
Si Si4 0.837567 0.418179 0.267562
Si Si5 0.198103 0.917224 0.679459
Si Si6 0.301799 0.812908 0.596961
Si Si7 0.286239 0.167538 0.000000
O O1 0.627467 0.109843 0.211227
O O2 0.761028 0.091999 0.233442
O O3 0.691298 0.000000 0.150410
O O4 0.715007 0.122571 0.083455
O O5 0.342172 0.500000 0.796388
O O6 0.361969 0.361969 0.786106
O O7 0.235896 0.418235 0.781015
O O8 0.305978 0.418709 0.916324
O O9 0.772982 0.500000 0.000000
O O10 0.791712 0.359719 0.000000
O O11 0.857502 0.500000 0.281031
O O12 0.824756 0.371784 0.349713
O O13 0.125597 0.874404 0.680344
O O14 0.249615 0.878018 0.615224
O O15 0.190309 0.000000 0.663698
O O16 0.316572 0.807869 0.500000
O O17 0.256169 0.743832 0.622248
O O18 0.224186 0.224186 0.000000
#
# Coordination Sequence:
#
# PCOD9561843 Si02
#       7
#    16  16   8  16  16  16   8
#     4  10  21  35  50  72 102 132 166 208 252 295
#     4  10  19  31  47  68  96 128 164 205 247 292
#     4  10  20  31  45  69  98 125 159 200 240 284
#     4  10  20  33  51  73  98 130 168 207 247 292
#     4   9  18  33  52  75 103 131 160 196 240 292
#     4   9  18  33  53  75 100 130 162 200 250 302
#     4  12  21  31  54  76  95 130 174 213 247 290
#
# _framework density 16.257415000000002
#
# number of rings (size 3 to 8) (size 9 to 14) (size 15 to 20)
#    0.000    2.167    1.667    2.000    0.000    2.667 
#    0.000    0.000    0.000    3.000    0.000    7.000 
#    0.000    6.000    0.000   15.500    0.000    0.000 
#
# Total GULP energy -535058.599889 kJ/mol
# GULP energy per Si atom -5573.527082 kJ/mol
# Density = 1.622041 g / cm^3
# Si number density = 16.257415 Si / 1000 Ang^3
#
#
#
# Elastic Constant Matrix: (Units=GPa)
#
#
# Indices 1 2 3 4 5 6 
#
# 1 88.4767 58.6820 32.6018 0.0000 0.0000 0.0000
# 2 58.6820 88.4767 32.6018 0.0000 0.0000 0.0000
# 3 32.6018 32.6018 73.3810 0.0000 0.0000 0.0000
# 4 0.0000 0.0000 0.0000 14.6017 0.0000 0.0000
# 5 0.0000 0.0000 0.0000 0.0000 14.6017 0.0000
# 6 0.0000 0.0000 0.0000 0.0000 0.0000 17.0423
#
#
#
# Elastic Compliance Matrix: (Units=1/GPa)
#
#
# Indices 1 2 3 4 5 6 
#
# 1 0.021012 -0.012551 -0.003759 0.000000 0.000000 0.000000
# 2 -0.012551 0.021012 -0.003759 0.000000 0.000000 0.000000
# 3 -0.003759 -0.003759 0.016968 0.000000 0.000000 0.000000
# 4 0.000000 0.000000 0.000000 0.068485 0.000000 0.000000
# 5 0.000000 0.000000 0.000000 0.000000 0.068485 0.000000
# 6 0.000000 0.000000 0.000000 0.000000 0.000000 0.058678
#
#
# Mechanical properties :
#
#
# Convention : Reuss Voigt Hill
#
# Bulk Modulus (GPa) = 53.04083 55.34504 54.19294
# Shear Modulus (GPa) = 16.60787 17.67906 17.14347
#
# Velocity S-wave (km/s) = 3.19965 3.30122 3.25083
# Velocity P-wave (km/s) = 6.80785 6.97478 6.89182
#
# Compressibility (1/GPa) = 0.01885340
#
# Stress axis : x y z
#
# Youngs Moduli (GPa) = 47.59183 47.59183 58.93566
#
# Poissons Ratio (x) = 0.59733 0.22154
# Poissons Ratio (y) = 0.59733 0.22154
# Poissons Ratio (z) = 0.17890 0.17890
#
# Static dielectric constant tensor:
#      x y z
#    x 1.541380 0.000000 0.000000 
#    y 0.000000 1.541380 0.000000 
#    z 0.000000 0.000000 1.547750 
# 
# From -- ./inp_files/5512.got.cif
#   From: 2010.05.17/outbox.cif.g08.bks.cpg/sg123_3_cif.got.tgz:5512.got - 2010.05.20 11:43:04.
