data_PCOD9561458
_publ_section_title
;
Structure prediction by ZEFSAII (Michael W. Deem and Ramdas Pophale) SiO2 
 PCOD9561458
Probable space group: I -4 2 D
;
_chemical_formula_sum "Si O2"
_cell_formula_units_Z 44
_cell_length_a 8.305013
_cell_length_b 8.305013
_cell_length_c 27.147627
_cell_angle_alpha 90.000000
_cell_angle_beta 90.000000
_cell_angle_gamma 90.000000
_cell_volume 1872.459818
_symmetry_space_group_name_H-M "I -4 2 D"
_symmetry_group_IT_number 122
_symmetry_cell_setting 'tetragonal'
loop_
_space_group_symop_operation_xyz
x,y,z
y,-x,-z
-x,-y,z
-y,x,-z
x,1/2-y,1/4-z
-x,1/2+y,1/4-z
-y,1/2-x,1/4+z
y,1/2+x,1/4+z
1/2+x,1/2+y,1/2+z
1/2+y,1/2-x,1/2-z
1/2-x,1/2-y,1/2+z
1/2-y,1/2+x,1/2-z
1/2+x,-y,3/4-z
1/2-x,y,3/4-z
1/2-y,-x,3/4+z
1/2+y,x,3/4+z
loop_
_atom_site_type_symbol
_atom_site_label
_atom_site_fract_x
_atom_site_fract_y
_atom_site_fract_z
Si Si1 0.500000 0.500000 0.000000
Si Si2 0.250958 0.093000 0.320104
Si Si3 0.035698 0.687806 0.178516
Si Si4 0.500000 0.500000 0.253830
O O1 0.415912 0.385454 0.959959
O O2 0.250000 0.023390 0.375000
O O3 0.182640 0.270943 0.324355
O O4 0.147610 0.983778 0.283959
O O5 0.975133 0.750000 0.125000
O O6 0.000000 0.500000 0.189632
O O7 0.985118 0.833467 0.215334
#
# Coordination Sequence:
#
# PCOD9561458 Si02
#       4
#     4  16  16   8
#     4  12  22  48  72 104 148 192 250 316 392 482
#     4  11  26  46  72 108 147 201 263 323 398 476
#     4  11  25  46  75 115 159 204 261 335 410 488
#     4  12  25  46  74 113 155 202 255 328 404 484
#
# _framework density 23.498501999999998
#
# number of rings (size 3 to 8) (size 9 to 14) (size 15 to 20)
#    0.000    0.727    5.455    1.091    5.091    0.000 
#    0.000    3.636    0.000    2.182    0.000    0.000 
#    0.000    0.000    0.000    0.000    0.000    0.000 
#
# Total GULP energy -122671.749476 kJ/mol
# GULP energy per Si atom -5575.988613 kJ/mol
# Density = 2.344502 g / cm^3
# Si number density = 23.498502 Si / 1000 Ang^3
#
#
#
# Elastic Constant Matrix: (Units=GPa)
#
#
# Indices 1 2 3 4 5 6 
#
# 1 96.0393 22.8495 64.6152 0.0000 0.0000 0.0000
# 2 22.8495 96.0393 64.6152 0.0000 0.0000 0.0000
# 3 64.6152 64.6152 246.8821 0.0000 0.0000 0.0000
# 4 0.0000 0.0000 0.0000 20.1202 0.0000 0.0000
# 5 0.0000 0.0000 0.0000 0.0000 20.1202 0.0000
# 6 0.0000 0.0000 0.0000 0.0000 0.0000 11.9180
#
#
#
# Elastic Compliance Matrix: (Units=1/GPa)
#
#
# Indices 1 2 3 4 5 6 
#
# 1 0.012709 -0.000954 -0.003077 0.000000 0.000000 0.000000
# 2 -0.000954 0.012709 -0.003077 0.000000 0.000000 0.000000
# 3 -0.003077 -0.003077 0.005661 0.000000 0.000000 0.000000
# 4 0.000000 0.000000 0.000000 0.049701 0.000000 0.000000
# 5 0.000000 0.000000 0.000000 0.000000 0.049701 0.000000
# 6 0.000000 0.000000 0.000000 0.000000 0.000000 0.083907
#
#
# Mechanical properties :
#
#
# Convention : Reuss Voigt Hill
#
# Bulk Modulus (GPa) = 59.29344 82.56894 70.93119
# Shear Modulus (GPa) = 21.34695 29.55705 25.45200
#
# Velocity S-wave (km/s) = 3.01730 3.55043 3.29467
# Velocity P-wave (km/s) = 6.11772 7.21261 6.68761
#
# Compressibility (1/GPa) = 0.01686527
#
# Stress axis : x y z
#
# Youngs Moduli (GPa) = 78.68227 78.68228 176.64639
#
# Poissons Ratio (x) = 0.07504 0.54349
# Poissons Ratio (y) = 0.07504 0.54349
# Poissons Ratio (z) = 0.24208 0.24208
#
# Static dielectric constant tensor:
#      x y z
#    x 1.835830 0.000000 0.000000 
#    y 0.000000 1.835830 0.000000 
#    z 0.000000 0.000000 1.907000 
# 
# From -- ./inp_files/8414.got.cif
#   From: 2010.05.17/outbox.cif.g08.bks.cpg/sg122_5_cif.got.tgz:8414.got - 2010.05.20 11:37:33.
