data_PCOD9561387
_publ_section_title
;
Structure prediction by ZEFSAII (Michael W. Deem and Ramdas Pophale) SiO2 
 PCOD9561387
Probable space group: I -4 2 D
;
_chemical_formula_sum "Si O2"
_cell_formula_units_Z 64
_cell_length_a 11.380546
_cell_length_b 11.380546
_cell_length_c 22.756804
_cell_angle_alpha 90.000000
_cell_angle_beta 90.000000
_cell_angle_gamma 90.000000
_cell_volume 2947.389053
_symmetry_space_group_name_H-M "I -4 2 D"
_symmetry_group_IT_number 122
_symmetry_cell_setting 'tetragonal'
loop_
_space_group_symop_operation_xyz
x,y,z
y,-x,-z
-x,-y,z
-y,x,-z
x,1/2-y,1/4-z
-x,1/2+y,1/4-z
-y,1/2-x,1/4+z
y,1/2+x,1/4+z
1/2+x,1/2+y,1/2+z
1/2+y,1/2-x,1/2-z
1/2-x,1/2-y,1/2+z
1/2-y,1/2+x,1/2-z
1/2+x,-y,3/4-z
1/2-x,y,3/4-z
1/2-y,-x,3/4+z
1/2+y,x,3/4+z
loop_
_atom_site_type_symbol
_atom_site_label
_atom_site_fract_x
_atom_site_fract_y
_atom_site_fract_z
Si Si1 0.649162 0.073876 0.274890
Si Si2 0.070060 0.396032 0.465344
Si Si3 0.726373 0.614035 0.630683
Si Si4 0.459512 0.806701 0.752490
O O1 0.563621 0.118744 0.222162
O O2 0.781245 0.083639 0.254579
O O3 0.623528 0.156233 0.329879
O O4 0.203299 0.439711 0.455287
O O5 0.000000 0.500000 0.496931
O O6 0.980525 0.359386 0.412737
O O7 0.683269 0.750000 0.625000
O O8 0.747981 0.563133 0.566445
O O9 0.587473 0.865748 0.752091
#
# Coordination Sequence:
#
# PCOD9561387 Si02
#       4
#    16  16  16  16
#     4   9  20  42  71 104 144 184 235 302 363 433
#     4  11  24  42  74 102 140 197 241 294 367 438
#     4  11  22  45  76 102 148 192 233 307 369 428
#     4  11  26  47  71 109 150 191 253 307 355 443
#
# _framework density 21.714134999999999
#
# number of rings (size 3 to 8) (size 9 to 14) (size 15 to 20)
#    0.000    1.500    2.500    1.500    7.000    1.000 
#    9.000    0.000    0.000    0.000    0.000    0.000 
#    0.000    0.000    0.000    0.000    0.000    0.000 
#
# Total GULP energy -178496.189519 kJ/mol
# GULP energy per Si atom -5578.005922 kJ/mol
# Density = 2.166471 g / cm^3
# Si number density = 21.714135 Si / 1000 Ang^3
#
#
#
# Elastic Constant Matrix: (Units=GPa)
#
#
# Indices 1 2 3 4 5 6 
#
# 1 163.5160 71.7942 39.7304 0.0000 0.0000 0.0000
# 2 71.7942 163.5160 39.7304 0.0000 0.0000 0.0000
# 3 39.7304 39.7304 83.2826 0.0000 0.0000 0.0000
# 4 0.0000 0.0000 0.0000 28.1573 0.0000 0.0000
# 5 0.0000 0.0000 0.0000 0.0000 28.1573 0.0000
# 6 0.0000 0.0000 0.0000 0.0000 0.0000 28.7714
#
#
#
# Elastic Compliance Matrix: (Units=1/GPa)
#
#
# Indices 1 2 3 4 5 6 
#
# 1 0.007984 -0.002918 -0.002417 0.000000 0.000000 0.000000
# 2 -0.002918 0.007984 -0.002417 0.000000 0.000000 0.000000
# 3 -0.002417 -0.002417 0.014313 0.000000 0.000000 0.000000
# 4 0.000000 0.000000 0.000000 0.035515 0.000000 0.000000
# 5 0.000000 0.000000 0.000000 0.000000 0.035515 0.000000
# 6 0.000000 0.000000 0.000000 0.000000 0.000000 0.034757
#
#
# Mechanical properties :
#
#
# Convention : Reuss Voigt Hill
#
# Bulk Modulus (GPa) = 67.66816 79.20273 73.43545
# Shear Modulus (GPa) = 31.94950 34.28785 33.11868
#
# Velocity S-wave (km/s) = 3.84000 3.97805 3.90963
# Velocity P-wave (km/s) = 7.13384 7.59303 7.36702
#
# Compressibility (1/GPa) = 0.01477800
#
# Stress axis : x y z
#
# Youngs Moduli (GPa) = 125.24810 125.24810 69.86628
#
# Poissons Ratio (x) = 0.36552 0.16884
# Poissons Ratio (y) = 0.36552 0.16884
# Poissons Ratio (z) = 0.30268 0.30268
#
# Static dielectric constant tensor:
#      x y z
#    x 1.851260 0.000000 0.000000 
#    y 0.000000 1.851260 0.000000 
#    z 0.000000 0.000000 1.789550 
# 
# From -- ./inp_files/6928.got.cif
#   From: 2010.05.17/outbox.cif.g08.bks.cpg/sg122_4_cif.got.tgz:6928.got - 2010.05.20 11:37:33.
