data_PCOD9561764
_publ_section_title
;
Structure prediction by ZEFSAII (Michael W. Deem and Ramdas Pophale) SiO2 
 PCOD9561764
Probable space group: P 4/M M M
;
_chemical_formula_sum "Si O2"
_cell_formula_units_Z 80
_cell_length_a 24.048851
_cell_length_b 24.048851
_cell_length_c 7.759806
_cell_angle_alpha 90.000000
_cell_angle_beta 90.000000
_cell_angle_gamma 90.000000
_cell_volume 4487.862340
_symmetry_space_group_name_H-M "P 4/M M M"
_symmetry_group_IT_number 123
_symmetry_cell_setting 'tetragonal'
loop_
_space_group_symop_operation_xyz
x,y,z
-y,x,z
-x,-y,z
y,-x,z
x,-y,-z
-x,y,-z
y,x,-z
-y,-x,-z
-x,-y,-z
y,-x,-z
x,y,-z
-y,x,-z
-x,y,z
x,-y,z
-y,-x,z
y,x,z
loop_
_atom_site_type_symbol
_atom_site_label
_atom_site_fract_x
_atom_site_fract_y
_atom_site_fract_z
Si Si1 0.937481 0.937481 0.289524
Si Si2 0.336917 0.750134 0.299759
Si Si3 0.175875 0.562747 0.292226
Si Si4 0.062991 0.625775 0.792621
Si Si5 0.150520 0.849481 0.706810
Si Si6 0.723664 0.860010 0.796767
O O1 0.936928 0.936928 0.500000
O O2 0.893560 0.893560 0.227282
O O3 0.000000 0.924096 0.235629
O O4 0.347995 0.736687 0.500000
O O5 0.302599 0.697402 0.224882
O O6 0.393578 0.777491 0.225388
O O7 0.296035 0.803314 0.292806
O O8 0.180600 0.562905 0.500000
O O9 0.183658 0.500000 0.229220
O O10 0.113158 0.583834 0.253723
O O11 0.088349 0.685620 0.737852
O O12 0.000000 0.615332 0.727390
O O13 0.059414 0.625524 0.000000
O O14 0.150809 0.849192 0.500000
O O15 0.133754 0.788404 0.767320
O O16 0.712948 0.852222 0.000000
#
# Coordination Sequence:
#
# PCOD9561764 Si02
#       6
#     8  16  16  16   8  16
#     4   8  16  32  49  62  78 102 134 172 214 263
#     4   9  16  28  47  67  88 116 148 182 219 259
#     4   9  18  31  46  67  94 120 149 189 232 268
#     4   9  19  34  48  63  87 121 158 191 223 264
#     4  11  20  29  46  70  90 108 136 178 227 275
#     4  10  19  30  45  65  89 115 143 178 221 267
#
# _framework density 17.825859000000001
#
# number of rings (size 3 to 8) (size 9 to 14) (size 15 to 20)
#    0.000    2.700    1.000    1.200    0.000    2.800 
#    0.000    2.000    0.000    1.800    0.000    2.800 
#    0.000    0.400    0.000    5.600    0.000    0.000 
#
# Total GULP energy -445597.582877 kJ/mol
# GULP energy per Si atom -5569.969786 kJ/mol
# Density = 1.778529 g / cm^3
# Si number density = 17.825859 Si / 1000 Ang^3
#
#
#
# Elastic Constant Matrix: (Units=GPa)
#
#
# Indices 1 2 3 4 5 6 
#
# 1 98.3798 127.3384 1.6453 0.0000 0.0000 0.0000
# 2 127.3384 98.3794 1.6455 0.0000 0.0000 0.0000
# 3 1.6453 1.6455 30.7281 0.0000 0.0000 0.0000
# 4 0.0000 0.0000 0.0000 6.9880 0.0000 0.0000
# 5 0.0000 0.0000 0.0000 0.0000 6.9880 0.0000
# 6 0.0000 0.0000 0.0000 0.0000 0.0000 18.9831
#
#
#
# Elastic Compliance Matrix: (Units=1/GPa)
#
#
# Indices 1 2 3 4 5 6 
#
# 1 -0.015049 0.019483 -0.000238 0.000000 0.000000 0.000000
# 2 0.019483 -0.015049 -0.000237 0.000000 0.000000 0.000000
# 3 -0.000238 -0.000237 0.032569 0.000000 0.000000 0.000000
# 4 0.000000 0.000000 0.000000 0.143102 0.000000 0.000000
# 5 0.000000 0.000000 0.000000 0.000000 0.143103 0.000000
# 6 0.000000 0.000000 0.000000 0.000000 0.000000 0.052678
#
#
# Mechanical properties :
#
#
# Convention : Reuss Voigt Hill
#
# Bulk Modulus (GPa) = 24.69938 54.30507 39.50222
# Shear Modulus (GPa) = 15.78114 13.04903 14.41508
#
# Velocity S-wave (km/s) = 2.97862 2.70854 2.84678
# Velocity P-wave (km/s) = 5.07105 6.34917 5.74576
#
# Compressibility (1/GPa) = 0.04048684
#
# Stress axis : x y z
#
# Youngs Moduli (GPa) = -66.44959 -66.44933 30.70408
#
# Poissons Ratio (x) = 1.29462 0.00729
# Poissons Ratio (y) = 1.29462 0.00729
# Poissons Ratio (z) = -0.01578 -0.01577
#
# Static dielectric constant tensor:
#      x y z
#    x 1.622790 0.000000 0.000000 
#    y 0.000000 1.622790 0.000000 
#    z 0.000000 0.000000 1.660020 
# 
# From -- ./inp_files/1463.got.cif
#   From: 2010.05.17/outbox.cif.g08.bks.cpg/sg123_1_cif.got.tgz:1463.got - 2010.05.20 11:43:04.
