data_PCOD9561610
_publ_section_title
;
Structure prediction by ZEFSAII (Michael W. Deem and Ramdas Pophale) SiO2 
 PCOD9561610
Probable space group: P 4/M M M
;
_chemical_formula_sum "Si O2"
_cell_formula_units_Z 96
_cell_length_a 22.948567
_cell_length_b 22.948567
_cell_length_c 10.746252
_cell_angle_alpha 90.000000
_cell_angle_beta 90.000000
_cell_angle_gamma 90.000000
_cell_volume 5659.370985
_symmetry_space_group_name_H-M "P 4/M M M"
_symmetry_group_IT_number 123
_symmetry_cell_setting 'tetragonal'
loop_
_space_group_symop_operation_xyz
x,y,z
-y,x,z
-x,-y,z
y,-x,z
x,-y,-z
-x,y,-z
y,x,-z
-y,-x,-z
-x,-y,-z
y,-x,-z
x,y,-z
-y,x,-z
-x,y,z
x,-y,z
-y,-x,z
y,x,z
loop_
_atom_site_type_symbol
_atom_site_label
_atom_site_fract_x
_atom_site_fract_y
_atom_site_fract_z
Si Si1 0.222127 0.315471 0.732345
Si Si2 0.065196 0.566931 0.775113
Si Si3 0.186977 0.434979 0.647292
Si Si4 0.770565 0.129479 0.638174
Si Si5 0.934225 0.658419 0.000000
Si Si6 0.816859 0.726262 0.000000
Si Si7 0.067410 0.164844 0.853052
O O1 0.278873 0.278873 0.692802
O O2 0.223334 0.383514 0.708790
O O3 0.166373 0.287835 0.661212
O O4 0.210098 0.301141 0.876135
O O5 0.068109 0.500000 0.825064
O O6 0.118942 0.573189 0.682186
O O7 0.000000 0.573539 0.720711
O O8 0.071579 0.615348 0.881845
O O9 0.193772 0.431627 0.500000
O O10 0.203354 0.500000 0.689736
O O11 0.770111 0.102159 0.500000
O O12 0.821576 0.178425 0.638953
O O13 0.785779 0.088903 0.755805
O O14 0.883601 0.705968 0.000000
O O15 0.000000 0.683333 0.000000
O O16 0.794064 0.794064 0.000000
O O17 0.109055 0.109055 0.832219
O O18 0.000000 0.151601 0.827389
O O19 0.071893 0.179027 0.000000
#
# Coordination Sequence:
#
# PCOD9561610 Si02
#       7
#    16  16  16  16   8   8  16
#     4  10  20  35  55  76 102 135 171 210 260 315
#     4   9  17  29  46  68  96 132 172 213 255 300
#     4  10  20  33  50  74 105 140 179 218 255 301
#     4   9  18  32  51  71  91 121 162 207 253 304
#     4  10  17  30  50  71  95 127 172 217 259 312
#     4  10  20  33  51  78 106 134 169 215 268 325
#     4   9  18  32  50  73 100 130 163 204 258 317
#
# _framework density 16.963016
#
# number of rings (size 3 to 8) (size 9 to 14) (size 15 to 20)
#    0.000    2.500    1.667    0.750    1.167    2.833 
#    0.000    4.583    0.000    2.000    0.000    2.333 
#    0.000    0.500    0.000    1.833    0.000    4.667 
#
# Total GULP energy -535315.616910 kJ/mol
# GULP energy per Si atom -5576.204343 kJ/mol
# Density = 1.692441 g / cm^3
# Si number density = 16.963016 Si / 1000 Ang^3
#
#
#
# Elastic Constant Matrix: (Units=GPa)
#
#
# Indices 1 2 3 4 5 6 
#
# 1 106.0275 51.4887 22.9326 0.0000 0.0000 0.0000
# 2 51.4887 106.0275 22.9326 0.0000 0.0000 0.0000
# 3 22.9326 22.9326 71.2977 0.0000 0.0000 0.0000
# 4 0.0000 0.0000 0.0000 10.6810 0.0000 0.0000
# 5 0.0000 0.0000 0.0000 0.0000 10.6810 0.0000
# 6 0.0000 0.0000 0.0000 0.0000 0.0000 23.3848
#
#
#
# Elastic Compliance Matrix: (Units=1/GPa)
#
#
# Indices 1 2 3 4 5 6 
#
# 1 0.012670 -0.005666 -0.002253 0.000000 0.000000 0.000000
# 2 -0.005666 0.012670 -0.002253 0.000000 0.000000 0.000000
# 3 -0.002253 -0.002253 0.015475 0.000000 0.000000 0.000000
# 4 0.000000 0.000000 0.000000 0.093625 0.000000 0.000000
# 5 0.000000 0.000000 0.000000 0.000000 0.093625 0.000000
# 6 0.000000 0.000000 0.000000 0.000000 0.000000 0.042763
#
#
# Mechanical properties :
#
#
# Convention : Reuss Voigt Hill
#
# Bulk Modulus (GPa) = 48.84669 53.11783 50.98226
# Shear Modulus (GPa) = 16.77885 21.34925 19.06405
#
# Velocity S-wave (km/s) = 3.14848 3.55149 3.35604
# Velocity P-wave (km/s) = 6.48658 6.94257 6.71845
#
# Compressibility (1/GPa) = 0.02047221
#
# Stress axis : x y z
#
# Youngs Moduli (GPa) = 78.92609 78.92609 64.62019
#
# Poissons Ratio (x) = 0.44716 0.14559
# Poissons Ratio (y) = 0.44716 0.14559
# Poissons Ratio (z) = 0.17782 0.17782
#
# Static dielectric constant tensor:
#      x y z
#    x 1.580180 0.000000 0.000000 
#    y 0.000000 1.580180 0.000000 
#    z 0.000000 0.000000 1.591660 
# 
# From -- ./inp_files/3185.got.cif
#   From: 2010.05.17/outbox.cif.g08.bks.cpg/sg123_2_cif.got.tgz:3185.got - 2010.05.20 11:43:04.
