data_PCOD9561524
_publ_section_title
;
Structure prediction by ZEFSAII (Michael W. Deem and Ramdas Pophale) SiO2 
 PCOD9561524
Probable space group: I -4 2 D
;
_chemical_formula_sum "Si O2"
_cell_formula_units_Z 48
_cell_length_a 14.113445
_cell_length_b 14.113445
_cell_length_c 10.445311
_cell_angle_alpha 90.000000
_cell_angle_beta 90.000000
_cell_angle_gamma 90.000000
_cell_volume 2080.594497
_symmetry_space_group_name_H-M "I -4 2 D"
_symmetry_group_IT_number 122
_symmetry_cell_setting 'tetragonal'
loop_
_space_group_symop_operation_xyz
x,y,z
y,-x,-z
-x,-y,z
-y,x,-z
x,1/2-y,1/4-z
-x,1/2+y,1/4-z
-y,1/2-x,1/4+z
y,1/2+x,1/4+z
1/2+x,1/2+y,1/2+z
1/2+y,1/2-x,1/2-z
1/2-x,1/2-y,1/2+z
1/2-y,1/2+x,1/2-z
1/2+x,-y,3/4-z
1/2-x,y,3/4-z
1/2-y,-x,3/4+z
1/2+y,x,3/4+z
loop_
_atom_site_type_symbol
_atom_site_label
_atom_site_fract_x
_atom_site_fract_y
_atom_site_fract_z
Si Si1 0.000000 0.500000 0.750000
Si Si2 0.908619 0.664913 0.393129
Si Si3 0.500000 0.500000 0.500000
Si Si4 0.250000 0.206136 0.375000
Si Si5 0.923323 0.315660 0.856847
O O1 0.008857 0.594614 0.831631
O O2 0.832402 0.727648 0.317676
O O3 0.854439 0.642204 0.527073
O O4 0.930836 0.563465 0.334495
O O5 0.006285 0.724980 0.388718
O O6 0.295525 0.142199 0.265218
#
# Coordination Sequence:
#
# PCOD9561524 Si02
#       5
#     4  16   4   8  16
#     4  12  22  44  80 110 160 192 274 324 408 474
#     4  12  28  50  77 114 163 209 276 330 415 488
#     4  12  30  52  76 110 164 228 262 336 410 500
#     4  12  26  46  80 114 156 202 268 338 408 486
#     4  12  26  49  81 119 155 215 268 343 404 499
#
# _framework density 23.070329999999998
#
# number of rings (size 3 to 8) (size 9 to 14) (size 15 to 20)
#    0.000    0.000    3.333    6.000    4.667    0.000 
#    0.000    0.000    0.000    0.000    0.000    0.000 
#    0.000    0.000    0.000    0.000    0.000    0.000 
#
# Total GULP energy -134141.425344 kJ/mol
# GULP energy per Si atom -5589.226056 kJ/mol
# Density = 2.301782 g / cm^3
# Si number density = 23.070330 Si / 1000 Ang^3
#
#
#
# Elastic Constant Matrix: (Units=GPa)
#
#
# Indices 1 2 3 4 5 6 
#
# 1 119.8644 26.0352 43.9173 0.0000 0.0000 0.0000
# 2 26.0352 119.8644 43.9173 0.0000 0.0000 0.0000
# 3 43.9173 43.9173 98.0981 0.0000 0.0000 0.0000
# 4 0.0000 0.0000 0.0000 16.8601 0.0000 0.0000
# 5 0.0000 0.0000 0.0000 0.0000 16.8601 0.0000
# 6 0.0000 0.0000 0.0000 0.0000 0.0000 73.6289
#
#
#
# Elastic Compliance Matrix: (Units=1/GPa)
#
#
# Indices 1 2 3 4 5 6 
#
# 1 0.010020 -0.000637 -0.004201 0.000000 0.000000 0.000000
# 2 -0.000637 0.010020 -0.004201 0.000000 0.000000 0.000000
# 3 -0.004201 -0.004201 0.013955 0.000000 0.000000 0.000000
# 4 0.000000 0.000000 0.000000 0.059312 0.000000 0.000000
# 5 0.000000 0.000000 0.000000 0.000000 0.059312 0.000000
# 6 0.000000 0.000000 0.000000 0.000000 0.000000 0.013582
#
#
# Mechanical properties :
#
#
# Convention : Reuss Voigt Hill
#
# Bulk Modulus (GPa) = 62.82056 62.84071 62.83064
# Shear Modulus (GPa) = 26.37353 36.40027 31.38690
#
# Velocity S-wave (km/s) = 3.38476 3.97646 3.69248
# Velocity P-wave (km/s) = 6.52416 6.95563 6.74335
#
# Compressibility (1/GPa) = 0.01591835
#
# Stress axis : x y z
#
# Youngs Moduli (GPa) = 99.79769 99.79769 71.65899
#
# Poissons Ratio (x) = 0.06361 0.30101
# Poissons Ratio (y) = 0.06361 0.30101
# Poissons Ratio (z) = 0.41921 0.41921
#
# Static dielectric constant tensor:
#      x y z
#    x 2.460460 0.000000 0.000000 
#    y 0.000000 2.460460 0.000000 
#    z 0.000000 0.000000 2.325550 
# 
# From -- ./inp_files/3777.got.cif
#   From: 2010.05.17/outbox.cif.g08.bks.cpg/sg122_2_cif.got.tgz:3777.got - 2010.05.20 11:37:33.
