data_PCOD9561354
_publ_section_title
;
Structure prediction by ZEFSAII (Michael W. Deem and Ramdas Pophale) SiO2 
 PCOD9561354
Probable space group: I -4 2 D
;
_chemical_formula_sum "Si O2"
_cell_formula_units_Z 64
_cell_length_a 13.862958
_cell_length_b 13.862958
_cell_length_c 12.630235
_cell_angle_alpha 90.000000
_cell_angle_beta 90.000000
_cell_angle_gamma 90.000000
_cell_volume 2427.298828
_symmetry_space_group_name_H-M "I -4 2 D"
_symmetry_group_IT_number 122
_symmetry_cell_setting 'tetragonal'
loop_
_space_group_symop_operation_xyz
x,y,z
y,-x,-z
-x,-y,z
-y,x,-z
x,1/2-y,1/4-z
-x,1/2+y,1/4-z
-y,1/2-x,1/4+z
y,1/2+x,1/4+z
1/2+x,1/2+y,1/2+z
1/2+y,1/2-x,1/2-z
1/2-x,1/2-y,1/2+z
1/2-y,1/2+x,1/2-z
1/2+x,-y,3/4-z
1/2-x,y,3/4-z
1/2-y,-x,3/4+z
1/2+y,x,3/4+z
loop_
_atom_site_type_symbol
_atom_site_label
_atom_site_fract_x
_atom_site_fract_y
_atom_site_fract_z
Si Si1 0.292243 0.787929 0.992111
Si Si2 0.910654 0.151741 0.083373
Si Si3 0.974548 0.340341 0.401133
Si Si4 0.561702 0.364653 0.984446
O O1 0.250000 0.760650 0.875000
O O2 0.379485 0.862318 0.969064
O O3 0.347834 0.692680 0.034684
O O4 0.200452 0.826621 0.052038
O O5 0.955553 0.250000 0.125000
O O6 0.899371 0.071020 0.173428
O O7 0.958855 0.132558 0.970854
O O8 0.976715 0.223154 0.410736
O O9 0.467380 0.394721 0.052662
#
# Coordination Sequence:
#
# PCOD9561354 Si02
#       4
#    16  16  16  16
#     4   8  18  37  58  82 121 163 210 259 324 388
#     4  11  21  40  64  90 124 178 219 267 344 394
#     4   9  22  38  61  91 126 166 218 274 321 401
#     4   9  17  35  59  90 127 162 210 272 325 382
#
# _framework density 26.366758000000001
#
# number of rings (size 3 to 8) (size 9 to 14) (size 15 to 20)
#    1.500    1.250    0.000    1.500    0.000    3.500 
#    0.000   13.750    0.000    0.000    0.000    0.000 
#    0.000    0.000    0.000    0.000    0.000    0.000 
#
# Total GULP energy -178254.188651 kJ/mol
# GULP energy per Si atom -5570.443395 kJ/mol
# Density = 2.630675 g / cm^3
# Si number density = 26.366758 Si / 1000 Ang^3
#
#
#
# Elastic Constant Matrix: (Units=GPa)
#
#
# Indices 1 2 3 4 5 6 
#
# 1 131.6323 28.4618 8.8333 0.0000 0.0000 0.0000
# 2 28.4618 131.6323 8.8333 0.0000 0.0000 0.0000
# 3 8.8333 8.8333 43.0561 0.0000 0.0000 0.0000
# 4 0.0000 0.0000 0.0000 19.5193 0.0000 0.0000
# 5 0.0000 0.0000 0.0000 0.0000 19.5193 0.0000
# 6 0.0000 0.0000 0.0000 0.0000 0.0000 31.3722
#
#
#
# Elastic Compliance Matrix: (Units=1/GPa)
#
#
# Indices 1 2 3 4 5 6 
#
# 1 0.008042 -0.001651 -0.001311 0.000000 0.000000 0.000000
# 2 -0.001651 0.008042 -0.001311 0.000000 0.000000 0.000000
# 3 -0.001311 -0.001311 0.023764 0.000000 0.000000 0.000000
# 4 0.000000 0.000000 0.000000 0.051231 0.000000 0.000000
# 5 0.000000 0.000000 0.000000 0.000000 0.051231 0.000000
# 6 0.000000 0.000000 0.000000 0.000000 0.000000 0.031875
#
#
# Mechanical properties :
#
#
# Convention : Reuss Voigt Hill
#
# Bulk Modulus (GPa) = 31.94799 44.28639 38.11719
# Shear Modulus (GPa) = 25.88457 31.42831 28.65644
#
# Velocity S-wave (km/s) = 3.13663 3.45623 3.30030
# Velocity P-wave (km/s) = 5.02603 5.72365 5.38615
#
# Compressibility (1/GPa) = 0.03130087
#
# Stress axis : x y z
#
# Youngs Moduli (GPa) = 124.34941 124.34941 42.08129
#
# Poissons Ratio (x) = 0.20528 0.05518
# Poissons Ratio (y) = 0.20528 0.05518
# Poissons Ratio (z) = 0.16304 0.16304
#
# Static dielectric constant tensor:
#      x y z
#    x 2.154500 0.000000 0.000000 
#    y 0.000000 2.154500 0.000000 
#    z 0.000000 0.000000 2.069070 
# 
# From -- ./inp_files/6063.got.cif
#   From: 2010.05.17/outbox.cif.g08.bks.cpg/sg122_4_cif.got.tgz:6063.got - 2010.05.20 11:37:33.
