data_PCOD9561946
_publ_section_title
;
Structure prediction by ZEFSAII (Michael W. Deem and Ramdas Pophale) SiO2 
 PCOD9561946
Probable space group: P 4/M M M
;
_chemical_formula_sum "Si O2"
_cell_formula_units_Z 72
_cell_length_a 21.453613
_cell_length_b 21.453613
_cell_length_c 7.460115
_cell_angle_alpha 90.000000
_cell_angle_beta 90.000000
_cell_angle_gamma 90.000000
_cell_volume 3433.573960
_symmetry_space_group_name_H-M "P 4/M M M"
_symmetry_group_IT_number 123
_symmetry_cell_setting 'tetragonal'
loop_
_space_group_symop_operation_xyz
x,y,z
-y,x,z
-x,-y,z
y,-x,z
x,-y,-z
-x,y,-z
y,x,-z
-y,-x,-z
-x,-y,-z
y,-x,-z
x,y,-z
-y,x,-z
-x,y,z
x,-y,z
-y,-x,z
y,x,z
loop_
_atom_site_type_symbol
_atom_site_label
_atom_site_fract_x
_atom_site_fract_y
_atom_site_fract_z
Si Si1 0.500000 0.686111 0.713483
Si Si2 0.731795 0.731795 0.785309
Si Si3 0.930956 0.601562 0.217650
Si Si4 0.371110 0.628891 0.709916
Si Si5 0.733120 0.875447 0.215246
Si Si6 0.926169 0.171793 0.500000
Si Si7 0.500000 0.166890 0.783799
O O1 0.500000 0.676373 0.500000
O O2 0.436186 0.655417 0.785785
O O3 0.500000 0.760769 0.736478
O O4 0.681947 0.681947 0.719867
O O5 0.803530 0.718894 0.735106
O O6 0.728623 0.728623 0.000000
O O7 0.916851 0.673041 0.260269
O O8 0.873680 0.559063 0.279063
O O9 0.000000 0.582501 0.279341
O O10 0.931535 0.596958 0.000000
O O11 0.382524 0.617477 0.500000
O O12 0.790881 0.900061 0.327862
O O13 0.743710 0.877533 0.000000
O O14 0.896160 0.103841 0.500000
O O15 0.000000 0.171979 0.500000
O O16 0.500000 0.165745 0.000000
#
# Coordination Sequence:
#
# PCOD9561946 Si02
#       7
#     8   8  16   8  16   8   8
#     4  10  22  40  55  81 110 151 200 248 311 358
#     4  10  20  36  61  93 121 153 198 248 308 364
#     4   9  17  31  54  82 114 155 196 236 288 355
#     4  10  22  37  60  84 118 158 201 255 305 364
#     4  10  21  39  62  91 125 160 205 257 305 360
#     4  12  26  43  66  93 121 159 203 249 313 373
#     4  10  19  34  55  81 115 151 192 240 295 361
#
# _framework density 20.969404999999998
#
# number of rings (size 3 to 8) (size 9 to 14) (size 15 to 20)
#    0.000    2.000    1.111    2.333    1.556    5.667 
#    2.000    1.111    0.000    0.667    0.000    3.111 
#    0.000    0.000    0.000    0.000    0.000    0.000 
#
# Total GULP energy -402263.465412 kJ/mol
# GULP energy per Si atom -5586.992575 kJ/mol
# Density = 2.092168 g / cm^3
# Si number density = 20.969405 Si / 1000 Ang^3
#
#
#
# Elastic Constant Matrix: (Units=GPa)
#
#
# Indices 1 2 3 4 5 6 
#
# 1 169.2453 86.1877 20.0456 0.0000 0.0000 0.0000
# 2 86.1877 169.2497 20.0464 0.0000 0.0000 0.0000
# 3 20.0456 20.0464 66.9205 0.0000 0.0000 0.0000
# 4 0.0000 0.0000 0.0000 139.5200 0.0000 0.0000
# 5 0.0000 0.0000 0.0000 0.0000 141.0121 0.0000
# 6 0.0000 0.0000 0.0000 0.0000 0.0000 27.6176
#
#
#
# Elastic Compliance Matrix: (Units=1/GPa)
#
#
# Indices 1 2 3 4 5 6 
#
# 1 0.008074 -0.003966 -0.001231 0.000000 0.000000 0.000000
# 2 -0.003966 0.008074 -0.001231 0.000000 0.000000 0.000000
# 3 -0.001231 -0.001231 0.015680 0.000000 0.000000 0.000000
# 4 0.000000 0.000000 0.000000 0.007167 0.000000 0.000000
# 5 0.000000 0.000000 0.000000 0.000000 0.007092 0.000000
# 6 0.000000 0.000000 0.000000 0.000000 0.000000 0.036209
#
#
# Mechanical properties :
#
#
# Convention : Reuss Voigt Hill
#
# Bulk Modulus (GPa) = 52.70327 73.10834 62.90581
# Shear Modulus (GPa) = 49.27362 80.23898 64.75630
#
# Velocity S-wave (km/s) = 4.85272 6.19256 5.56313
# Velocity P-wave (km/s) = 7.52240 9.27742 8.44562
#
# Compressibility (1/GPa) = 0.01897415
#
# Stress axis : x y z
#
# Youngs Moduli (GPa) = 123.85624 123.85926 63.77415
#
# Poissons Ratio (x) = 0.49119 0.07848
# Poissons Ratio (y) = 0.49118 0.07848
# Poissons Ratio (z) = 0.15241 0.15242
#
# Static dielectric constant tensor:
#      x y z
#    x 1.735720 0.000000 0.000000 
#    y 0.000000 1.735720 0.000000 
#    z 0.000000 0.000000 1.794090 
# 
# From -- ./inp_files/1259.got.cif
#   From: 2010.05.17/outbox.cif.g08.bks.cpg/sg123_1_cif.got.tgz:1259.got - 2010.05.20 11:43:04.
