data_PCOD9561705
_publ_section_title
;
Structure prediction by ZEFSAII (Michael W. Deem and Ramdas Pophale) SiO2 
 PCOD9561705
Probable space group: P 4/M M M
;
_chemical_formula_sum "Si O2"
_cell_formula_units_Z 104
_cell_length_a 18.491728
_cell_length_b 18.491728
_cell_length_c 17.774777
_cell_angle_alpha 90.000000
_cell_angle_beta 90.000000
_cell_angle_gamma 90.000000
_cell_volume 6077.978425
_symmetry_space_group_name_H-M "P 4/M M M"
_symmetry_group_IT_number 123
_symmetry_cell_setting 'tetragonal'
loop_
_space_group_symop_operation_xyz
x,y,z
-y,x,z
-x,-y,z
y,-x,z
x,-y,-z
-x,y,-z
y,x,-z
-y,-x,-z
-x,-y,-z
y,-x,-z
x,y,-z
-y,x,-z
-x,y,z
x,-y,z
-y,-x,z
y,x,z
loop_
_atom_site_type_symbol
_atom_site_label
_atom_site_fract_x
_atom_site_fract_y
_atom_site_fract_z
Si Si1 0.740913 0.857256 0.284839
Si Si2 0.918459 0.796807 0.864813
Si Si3 0.076204 0.500000 0.194457
Si Si4 0.359786 0.083562 0.586033
Si Si5 0.358543 0.758451 0.176109
Si Si6 0.368372 0.890864 0.914996
Si Si7 0.184801 0.500000 0.585097
Si Si8 0.236787 0.500000 0.259676
O O1 0.799446 0.799446 0.313668
O O2 0.780679 0.908449 0.224330
O O3 0.698938 0.896169 0.351379
O O4 0.683649 0.812382 0.233712
O O5 0.854341 0.854341 0.885477
O O6 0.910109 0.716311 0.901049
O O7 0.000000 0.822992 0.881038
O O8 0.077850 0.572325 0.142905
O O9 0.149546 0.500000 0.242321
O O10 0.000000 0.500000 0.237543
O O11 0.332608 0.092428 0.500000
O O12 0.429043 0.135104 0.594168
O O13 0.381316 0.000000 0.595083
O O14 0.305648 0.694353 0.157645
O O15 0.374760 0.805739 0.102838
O O16 0.429479 0.733903 0.219164
O O17 0.387284 0.909604 0.000000
O O18 0.213664 0.500000 0.500000
O O19 0.243295 0.500000 0.651099
#
# Coordination Sequence:
#
# PCOD9561705 Si02
#       8
#    16  16   8  16  16  16   8   8
#     4   9  17  31  48  66  90 118 154 199 241 286
#     4  10  21  35  51  70  92 125 168 212 258 302
#     4  10  21  32  48  77 105 133 166 197 233 288
#     4  10  19  29  43  65  94 126 156 189 231 281
#     4   9  18  32  50  72  94 122 160 196 236 285
#     4  10  20  34  51  73 102 132 161 197 245 297
#     4  10  19  31  44  67  99 131 161 191 226 278
#     4  10  18  33  50  70  95 131 160 198 242 280
#
# _framework density 17.110952000000001
#
# number of rings (size 3 to 8) (size 9 to 14) (size 15 to 20)
#    0.000    2.308    1.538    2.769    0.000    4.769 
#    0.000    0.000    0.000    0.692    0.000    1.077 
#    0.000    0.000    0.000   20.615    0.000    0.000 
#
# Total GULP energy -579637.452507 kJ/mol
# GULP energy per Si atom -5573.437043 kJ/mol
# Density = 1.707201 g / cm^3
# Si number density = 17.110952 Si / 1000 Ang^3
#
#
#
# Elastic Constant Matrix: (Units=GPa)
#
#
# Indices 1 2 3 4 5 6 
#
# 1 46.6053 8.2155 -2.0444 0.0000 0.0000 0.0000
# 2 8.2155 46.6053 -2.0444 0.0000 0.0000 0.0000
# 3 -2.0444 -2.0444 47.9206 0.0000 0.0000 0.0000
# 4 0.0000 0.0000 0.0000 9.5276 0.0000 0.0000
# 5 0.0000 0.0000 0.0000 0.0000 9.5276 0.0000
# 6 0.0000 0.0000 0.0000 0.0000 0.0000 0.2284
#
#
#
# Elastic Compliance Matrix: (Units=1/GPa)
#
#
# Indices 1 2 3 4 5 6 
#
# 1 0.022174 -0.003875 0.000781 0.000000 0.000000 0.000000
# 2 -0.003875 0.022174 0.000781 0.000000 0.000000 0.000000
# 3 0.000781 0.000781 0.020934 0.000000 0.000000 0.000000
# 4 0.000000 0.000000 0.000000 0.104958 0.000000 0.000000
# 5 0.000000 0.000000 0.000000 0.000000 0.104958 0.000000
# 6 0.000000 0.000000 0.000000 0.000000 0.000000 4.377922
#
#
# Mechanical properties :
#
#
# Convention : Reuss Voigt Hill
#
# Bulk Modulus (GPa) = 16.48635 16.59829 16.54232
# Shear Modulus (GPa) = 1.06884 12.99035 7.02960
#
# Velocity S-wave (km/s) = 0.79121 2.75832 2.02908
# Velocity P-wave (km/s) = 3.23891 4.45711 3.89592
#
# Compressibility (1/GPa) = 0.06065623
#
# Stress axis : x y z
#
# Youngs Moduli (GPa) = 45.09780 45.09780 47.76815
#
# Poissons Ratio (x) = 0.17473 -0.03729
# Poissons Ratio (y) = 0.17473 -0.03729
# Poissons Ratio (z) = -0.03521 -0.03521
#
# Static dielectric constant tensor:
#      x y z
#    x 1.583680 0.000000 0.000000 
#    y 0.000000 1.583680 0.000000 
#    z 0.000000 0.000000 1.592470 
# 
# From -- ./inp_files/5680.got.cif
#   From: 2010.05.17/outbox.cif.g08.bks.cpg/sg123_3_cif.got.tgz:5680.got - 2010.05.20 11:43:04.
