data_PCOD9561530
_publ_section_title
;
Structure prediction by ZEFSAII (Michael W. Deem and Ramdas Pophale) SiO2 
 PCOD9561530
Probable space group: I -4 2 D
;
_chemical_formula_sum "Si O2"
_cell_formula_units_Z 36
_cell_length_a 7.871550
_cell_length_b 7.871550
_cell_length_c 23.798439
_cell_angle_alpha 90.000000
_cell_angle_beta 90.000000
_cell_angle_gamma 90.000000
_cell_volume 1474.582204
_symmetry_space_group_name_H-M "I -4 2 D"
_symmetry_group_IT_number 122
_symmetry_cell_setting 'tetragonal'
loop_
_space_group_symop_operation_xyz
x,y,z
y,-x,-z
-x,-y,z
-y,x,-z
x,1/2-y,1/4-z
-x,1/2+y,1/4-z
-y,1/2-x,1/4+z
y,1/2+x,1/4+z
1/2+x,1/2+y,1/2+z
1/2+y,1/2-x,1/2-z
1/2-x,1/2-y,1/2+z
1/2-y,1/2+x,1/2-z
1/2+x,-y,3/4-z
1/2-x,y,3/4-z
1/2-y,-x,3/4+z
1/2+y,x,3/4+z
loop_
_atom_site_type_symbol
_atom_site_label
_atom_site_fract_x
_atom_site_fract_y
_atom_site_fract_z
Si Si1 0.000000 0.000000 0.500000
Si Si2 0.893726 0.169356 0.920468
Si Si3 0.126464 0.862495 0.730633
O O1 0.178718 0.045288 0.469956
O O2 0.750000 0.200400 0.875000
O O3 0.036572 0.312427 0.926062
O O4 0.789827 0.159261 0.979152
O O5 0.000000 0.000000 0.909387
O O6 0.000000 0.000000 0.759412
#
# Coordination Sequence:
#
# PCOD9561530 Si02
#       3
#     4  16  16
#     4  12  24  44  84 108 160 232 252 332 428 452
#     4  12  24  46  78 114 157 216 272 331 412 493
#     4  12  23  47  76 111 163 207 263 345 402 480
#
# _framework density 24.413696000000002
#
# number of rings (size 3 to 8) (size 9 to 14) (size 15 to 20)
#    0.000    0.000    8.889    1.333    0.000    0.000 
#    4.000    2.222    0.000    0.000    0.000    0.000 
#    0.000    0.000    0.000    0.000    0.000    0.000 
#
# Total GULP energy -100640.610832 kJ/mol
# GULP energy per Si atom -5591.145046 kJ/mol
# Density = 2.435813 g / cm^3
# Si number density = 24.413696 Si / 1000 Ang^3
#
#
#
# Elastic Constant Matrix: (Units=GPa)
#
#
# Indices 1 2 3 4 5 6 
#
# 1 221.3048 88.7208 44.3544 0.0000 0.0000 0.0000
# 2 88.7208 221.3048 44.3544 0.0000 0.0000 0.0000
# 3 44.3544 44.3544 53.5757 0.0000 0.0000 0.0000
# 4 0.0000 0.0000 0.0000 8.5504 0.0000 0.0000
# 5 0.0000 0.0000 0.0000 0.0000 8.5504 0.0000
# 6 0.0000 0.0000 0.0000 0.0000 0.0000 69.9049
#
#
#
# Elastic Compliance Matrix: (Units=1/GPa)
#
#
# Indices 1 2 3 4 5 6 
#
# 1 0.005885 -0.001658 -0.003499 0.000000 0.000000 0.000000
# 2 -0.001658 0.005885 -0.003499 0.000000 0.000000 0.000000
# 3 -0.003499 -0.003499 0.024459 0.000000 0.000000 0.000000
# 4 0.000000 0.000000 0.000000 0.116954 0.000000 0.000000
# 5 0.000000 0.000000 0.000000 0.000000 0.116954 0.000000
# 6 0.000000 0.000000 0.000000 0.000000 0.000000 0.014305
#
#
# Mechanical properties :
#
#
# Convention : Reuss Voigt Hill
#
# Bulk Modulus (GPa) = 52.86638 94.56049 73.71343
# Shear Modulus (GPa) = 16.23066 38.65151 27.44109
#
# Velocity S-wave (km/s) = 2.58120 3.98325 3.35625
# Velocity P-wave (km/s) = 5.53036 7.74414 6.72891
#
# Compressibility (1/GPa) = 0.01891561
#
# Stress axis : x y z
#
# Youngs Moduli (GPa) = 169.93515 169.93515 40.88440
#
# Poissons Ratio (x) = 0.28172 0.14307
# Poissons Ratio (y) = 0.28172 0.14307
# Poissons Ratio (z) = 0.59465 0.59465
#
# Static dielectric constant tensor:
#      x y z
#    x 2.009400 0.000000 0.000000 
#    y 0.000000 2.009400 0.000000 
#    z 0.000000 0.000000 1.992800 
# 
# From -- ./inp_files/6646.got.cif
#   From: 2010.05.17/outbox.cif.g08.bks.cpg/sg122_4_cif.got.tgz:6646.got - 2010.05.20 11:37:33.
