data_PCOD9561732
_publ_section_title
;
Structure prediction by ZEFSAII (Michael W. Deem and Ramdas Pophale) SiO2 
 PCOD9561732
Probable space group: P 4/M M M
;
_chemical_formula_sum "Si O2"
_cell_formula_units_Z 104
_cell_length_a 22.471773
_cell_length_b 22.471773
_cell_length_c 13.320882
_cell_angle_alpha 90.000000
_cell_angle_beta 90.000000
_cell_angle_gamma 90.000000
_cell_volume 6726.786742
_symmetry_space_group_name_H-M "P 4/M M M"
_symmetry_group_IT_number 123
_symmetry_cell_setting 'tetragonal'
loop_
_space_group_symop_operation_xyz
x,y,z
-y,x,z
-x,-y,z
y,-x,z
x,-y,-z
-x,y,-z
y,x,-z
-y,-x,-z
-x,-y,-z
y,-x,-z
x,y,-z
-y,x,-z
-x,y,z
x,-y,z
-y,-x,z
y,x,z
loop_
_atom_site_type_symbol
_atom_site_label
_atom_site_fract_x
_atom_site_fract_y
_atom_site_fract_z
Si Si1 0.334587 0.431011 0.120039
Si Si2 0.240389 0.662516 0.189543
Si Si3 0.930685 0.168040 0.113582
Si Si4 0.715835 0.813397 0.614698
Si Si5 0.370355 0.111792 0.883639
Si Si6 0.500000 0.931369 0.878927
Si Si7 0.274384 0.932437 0.732858
O O1 0.336357 0.500000 0.148166
O O2 0.396556 0.396556 0.137811
O O3 0.283602 0.393455 0.175116
O O4 0.322664 0.427314 0.000000
O O5 0.279540 0.720461 0.157875
O O6 0.219479 0.674320 0.303691
O O7 0.180038 0.650953 0.128326
O O8 0.887681 0.112320 0.126860
O O9 0.919065 0.217567 0.196773
O O10 0.000000 0.150906 0.120184
O O11 0.920837 0.192017 0.000000
O O12 0.695227 0.808420 0.500000
O O13 0.779058 0.779058 0.621634
O O14 0.721101 0.881517 0.649528
O O15 0.439162 0.102533 0.852616
O O16 0.329937 0.074023 0.808478
O O17 0.363883 0.093360 0.000000
O O18 0.500000 0.000000 0.842332
O O19 0.500000 0.934155 0.000000
O O20 0.270359 0.000000 0.695092
#
# Coordination Sequence:
#
# PCOD9561732 Si02
#       7
#    16  16  16  16  16   8  16
#     4   9  17  28  44  68 100 134 162 188 215 253
#     4   9  18  31  46  68  94 119 153 195 237 278
#     4   9  17  28  42  62  90 123 156 188 222 266
#     4   9  18  33  51  68  87 112 145 189 239 286
#     4  10  19  29  44  65  91 125 156 187 226 270
#     4   9  18  30  42  60  87 119 158 194 219 256
#     4  10  19  30  45  66  90 116 147 185 231 279
#
# _framework density 15.460576
#
# number of rings (size 3 to 8) (size 9 to 14) (size 15 to 20)
#    0.000    2.692    0.000    1.846    1.077    3.692 
#    0.000    1.538    0.000    0.462    0.000    0.000 
#    0.000    5.846    0.000   20.308    0.000    0.308 
#
# Total GULP energy -579345.092752 kJ/mol
# GULP energy per Si atom -5570.625892 kJ/mol
# Density = 1.542539 g / cm^3
# Si number density = 15.460576 Si / 1000 Ang^3
#
#
#
# Elastic Constant Matrix: (Units=GPa)
#
#
# Indices 1 2 3 4 5 6 
#
# 1 69.9566 30.0936 20.3443 0.0000 0.0000 0.0000
# 2 30.0936 69.9566 20.3443 0.0000 0.0000 0.0000
# 3 20.3443 20.3443 47.8419 0.0000 0.0000 0.0000
# 4 0.0000 0.0000 0.0000 11.8832 0.0000 0.0000
# 5 0.0000 0.0000 0.0000 0.0000 11.8832 0.0000
# 6 0.0000 0.0000 0.0000 0.0000 0.0000 14.1278
#
#
#
# Elastic Compliance Matrix: (Units=1/GPa)
#
#
# Indices 1 2 3 4 5 6 
#
# 1 0.018585 -0.006500 -0.005139 0.000000 0.000000 0.000000
# 2 -0.006500 0.018585 -0.005139 0.000000 0.000000 0.000000
# 3 -0.005139 -0.005139 0.025273 0.000000 0.000000 0.000000
# 4 0.000000 0.000000 0.000000 0.084152 0.000000 0.000000
# 5 0.000000 0.000000 0.000000 0.000000 0.084152 0.000000
# 6 0.000000 0.000000 0.000000 0.000000 0.000000 0.070782
#
#
# Mechanical properties :
#
#
# Convention : Reuss Voigt Hill
#
# Bulk Modulus (GPa) = 34.61804 36.59104 35.60454
# Shear Modulus (GPa) = 14.50469 15.37705 14.94087
#
# Velocity S-wave (km/s) = 3.06628 3.15715 3.11205
# Velocity P-wave (km/s) = 5.91404 6.08349 5.99936
#
# Compressibility (1/GPa) = 0.02888667
#
# Stress axis : x y z
#
# Youngs Moduli (GPa) = 53.80560 53.80560 39.56821
#
# Poissons Ratio (x) = 0.34976 0.20334
# Poissons Ratio (y) = 0.34976 0.20334
# Poissons Ratio (z) = 0.27651 0.27651
#
# Static dielectric constant tensor:
#      x y z
#    x 1.517510 0.000000 0.000000 
#    y 0.000000 1.517510 0.000000 
#    z 0.000000 0.000000 1.495950 
# 
# From -- ./inp_files/4459.got.cif
#   From: 2010.05.17/outbox.cif.g08.bks.cpg/sg123_3_cif.got.tgz:4459.got - 2010.05.20 11:43:04.
