data_PCOD9561903
_publ_section_title
;
Structure prediction by ZEFSAII (Michael W. Deem and Ramdas Pophale) SiO2 
 PCOD9561903
Probable space group: P 4/M M M
;
_chemical_formula_sum "Si O2"
_cell_formula_units_Z 88
_cell_length_a 17.590820
_cell_length_b 17.590820
_cell_length_c 15.127009
_cell_angle_alpha 90.000000
_cell_angle_beta 90.000000
_cell_angle_gamma 90.000000
_cell_volume 4680.855501
_symmetry_space_group_name_H-M "P 4/M M M"
_symmetry_group_IT_number 123
_symmetry_cell_setting 'tetragonal'
loop_
_space_group_symop_operation_xyz
x,y,z
-y,x,z
-x,-y,z
y,-x,z
x,-y,-z
-x,y,-z
y,x,-z
-y,-x,-z
-x,-y,-z
y,-x,-z
x,y,-z
-y,x,-z
-x,y,z
x,-y,z
-y,-x,z
y,x,z
loop_
_atom_site_type_symbol
_atom_site_label
_atom_site_fract_x
_atom_site_fract_y
_atom_site_fract_z
Si Si1 0.589795 0.000000 0.101552
Si Si2 0.211116 0.912934 0.648172
Si Si3 0.589475 0.282804 0.239479
Si Si4 0.913895 0.201826 0.861877
Si Si5 0.204900 0.664638 0.401328
Si Si6 0.354850 0.840075 0.101364
O O1 0.614628 0.919962 0.141607
O O2 0.500000 0.000000 0.097876
O O3 0.619705 0.000000 0.000000
O O4 0.141054 0.858947 0.618533
O O5 0.208937 0.913282 0.755211
O O6 0.289224 0.872037 0.620040
O O7 0.205125 0.000000 0.617919
O O8 0.500000 0.298669 0.231669
O O9 0.641624 0.358377 0.244031
O O10 0.606790 0.231771 0.326325
O O11 0.619004 0.231034 0.158314
O O12 0.880147 0.119854 0.884876
O O13 0.856388 0.265356 0.896833
O O14 0.000000 0.214274 0.892323
O O15 0.201653 0.632158 0.500000
O O16 0.269608 0.730393 0.400018
O O17 0.381625 0.832676 0.000000
#
# Coordination Sequence:
#
# PCOD9561903 Si02
#       6
#     8  16  16  16  16  16
#     4   9  18  32  52  80 112 144 182 232 285 332
#     4   9  17  30  50  78 114 156 201 247 293 342
#     4  11  24  42  64  90 118 149 188 233 286 351
#     4  10  19  32  51  77 112 153 198 245 290 336
#     4   9  18  35  59  84 111 146 187 231 282 339
#     4  11  21  36  58  86 117 151 193 238 286 339
#
# _framework density 18.799982
#
# number of rings (size 3 to 8) (size 9 to 14) (size 15 to 20)
#    0.000    2.091    2.727    1.091    0.000    3.818 
#    0.000    1.818    0.000    0.000    0.000    8.909 
#    0.000    0.000    0.000    0.000    0.000    0.000 
#
# Total GULP energy -490857.818672 kJ/mol
# GULP energy per Si atom -5577.929758 kJ/mol
# Density = 1.875719 g / cm^3
# Si number density = 18.799982 Si / 1000 Ang^3
#
#
#
# Elastic Constant Matrix: (Units=GPa)
#
#
# Indices 1 2 3 4 5 6 
#
# 1 112.1775 64.1839 31.7165 0.0000 0.0000 0.0000
# 2 64.1839 112.1775 31.7165 0.0000 0.0000 0.0000
# 3 31.7165 31.7165 82.4694 0.0000 0.0000 0.0000
# 4 0.0000 0.0000 0.0000 5.3942 0.0000 0.0000
# 5 0.0000 0.0000 0.0000 0.0000 5.3942 0.0000
# 6 0.0000 0.0000 0.0000 0.0000 0.0000 17.1999
#
#
#
# Elastic Compliance Matrix: (Units=1/GPa)
#
#
# Indices 1 2 3 4 5 6 
#
# 1 0.013708 -0.007128 -0.002531 0.000000 0.000000 0.000000
# 2 -0.007128 0.013708 -0.002531 0.000000 0.000000 0.000000
# 3 -0.002531 -0.002531 0.014072 0.000000 0.000000 0.000000
# 4 0.000000 0.000000 0.000000 0.185385 0.000000 0.000000
# 5 0.000000 0.000000 0.000000 0.000000 0.185385 0.000000
# 6 0.000000 0.000000 0.000000 0.000000 0.000000 0.058140
#
#
# Mechanical properties :
#
#
# Convention : Reuss Voigt Hill
#
# Bulk Modulus (GPa) = 58.44475 62.45093 60.44784
# Shear Modulus (GPa) = 9.99040 17.54482 13.76761
#
# Velocity S-wave (km/s) = 2.30772 3.05821 2.70908
# Velocity P-wave (km/s) = 6.18514 6.76468 6.48139
#
# Compressibility (1/GPa) = 0.01711018
#
# Stress axis : x y z
#
# Youngs Moduli (GPa) = 72.94863 72.94863 71.06175
#
# Poissons Ratio (x) = 0.51997 0.17984
# Poissons Ratio (y) = 0.51997 0.17984
# Poissons Ratio (z) = 0.18461 0.18461
#
# Static dielectric constant tensor:
#      x y z
#    x 1.658810 0.000000 0.000000 
#    y 0.000000 1.658810 0.000000 
#    z 0.000000 0.000000 1.685570 
# 
# From -- ./inp_files/4064.got.cif
#   From: 2010.05.17/outbox.cif.g08.bks.cpg/sg123_3_cif.got.tgz:4064.got - 2010.05.20 11:43:04.
