data_PCOD9561467
_publ_section_title
;
Structure prediction by ZEFSAII (Michael W. Deem and Ramdas Pophale) SiO2 
 PCOD9561467
Probable space group: I -4 2 D
;
_chemical_formula_sum "Si O2"
_cell_formula_units_Z 44
_cell_length_a 11.341430
_cell_length_b 11.341430
_cell_length_c 11.937126
_cell_angle_alpha 90.000000
_cell_angle_beta 90.000000
_cell_angle_gamma 90.000000
_cell_volume 1535.449054
_symmetry_space_group_name_H-M "I -4 2 D"
_symmetry_group_IT_number 122
_symmetry_cell_setting 'tetragonal'
loop_
_space_group_symop_operation_xyz
x,y,z
y,-x,-z
-x,-y,z
-y,x,-z
x,1/2-y,1/4-z
-x,1/2+y,1/4-z
-y,1/2-x,1/4+z
y,1/2+x,1/4+z
1/2+x,1/2+y,1/2+z
1/2+y,1/2-x,1/2-z
1/2-x,1/2-y,1/2+z
1/2-y,1/2+x,1/2-z
1/2+x,-y,3/4-z
1/2-x,y,3/4-z
1/2-y,-x,3/4+z
1/2+y,x,3/4+z
loop_
_atom_site_type_symbol
_atom_site_label
_atom_site_fract_x
_atom_site_fract_y
_atom_site_fract_z
Si Si1 0.975875 0.746679 0.991262
Si Si2 0.083284 0.115944 0.605044
Si Si3 0.500000 0.500000 0.500000
Si Si4 0.750000 0.868320 0.375000
O O1 0.750000 0.028174 0.875000
O O2 0.855497 0.694083 0.944898
O O3 0.090484 0.673538 0.954925
O O4 0.990827 0.876461 0.937546
O O5 0.027755 0.250000 0.625000
O O6 0.887316 0.159123 0.506968
O O7 0.000000 0.000000 0.617914
#
# Coordination Sequence:
#
# PCOD9561467 Si02
#       4
#    16  16   4   8
#     4  11  25  48  83 129 175 243 313 389 476 581
#     4   8  17  40  84 124 161 235 325 372 455 558
#     4  12  32  40  76 136 184 230 304 384 488 544
#     4   8  20  46  84 120 168 238 318 380 458 568
#
# _framework density 28.656109000000001
#
# number of rings (size 3 to 8) (size 9 to 14) (size 15 to 20)
#    1.091    1.455    0.000    0.000   10.182    1.455 
#    0.000    0.000    0.000    8.727   14.182    0.000 
#    0.000    0.000    0.000    0.000    0.000    0.000 
#
# Total GULP energy -122975.875999 kJ/mol
# GULP energy per Si atom -5589.812545 kJ/mol
# Density = 2.859089 g / cm^3
# Si number density = 28.656109 Si / 1000 Ang^3
#
#
#
# Elastic Constant Matrix: (Units=GPa)
#
#
# Indices 1 2 3 4 5 6 
#
# 1 237.3523 169.9110 81.5410 0.0000 0.0000 0.0000
# 2 169.9110 237.3523 81.5410 0.0000 0.0000 0.0000
# 3 81.5410 81.5410 241.9095 0.0000 0.0000 0.0000
# 4 0.0000 0.0000 0.0000 49.5983 0.0000 0.0000
# 5 0.0000 0.0000 0.0000 0.0000 49.5983 0.0000
# 6 0.0000 0.0000 0.0000 0.0000 0.0000 108.6392
#
#
#
# Elastic Compliance Matrix: (Units=1/GPa)
#
#
# Indices 1 2 3 4 5 6 
#
# 1 0.008833 -0.005995 -0.000957 0.000000 0.000000 0.000000
# 2 -0.005995 0.008833 -0.000957 0.000000 0.000000 0.000000
# 3 -0.000957 -0.000957 0.004779 0.000000 0.000000 0.000000
# 4 0.000000 0.000000 0.000000 0.020162 0.000000 0.000000
# 5 0.000000 0.000000 0.000000 0.000000 0.020162 0.000000
# 6 0.000000 0.000000 0.000000 0.000000 0.000000 0.009205
#
#
# Mechanical properties :
#
#
# Convention : Reuss Voigt Hill
#
# Bulk Modulus (GPa) = 150.85898 153.62225 152.24061
# Shear Modulus (GPa) = 55.55573 67.14190 61.34881
#
# Velocity S-wave (km/s) = 4.40785 4.84573 4.63197
# Velocity P-wave (km/s) = 8.86930 9.22136 9.04704
#
# Compressibility (1/GPa) = 0.00662871
#
# Stress axis : x y z
#
# Youngs Moduli (GPa) = 113.21009 113.21009 209.25768
#
# Poissons Ratio (x) = 0.67865 0.20022
# Poissons Ratio (y) = 0.67865 0.20022
# Poissons Ratio (z) = 0.10832 0.10832
#
# Static dielectric constant tensor:
#      x y z
#    x 2.561250 0.000000 0.000000 
#    y 0.000000 2.561250 0.000000 
#    z 0.000000 0.000000 2.201860 
# 
# From -- ./inp_files/7684.got.cif
#   From: 2010.05.17/outbox.cif.g08.bks.cpg/sg122_4_cif.got.tgz:7684.got - 2010.05.20 11:37:33.
