data_PCOD9561796
_publ_section_title
;
Structure prediction by ZEFSAII (Michael W. Deem and Ramdas Pophale) SiO2 
 PCOD9561796
Probable space group: P 4/M M M
;
_chemical_formula_sum "Si O2"
_cell_formula_units_Z 88
_cell_length_a 18.040145
_cell_length_b 18.040145
_cell_length_c 18.106022
_cell_angle_alpha 90.000000
_cell_angle_beta 90.000000
_cell_angle_gamma 90.000000
_cell_volume 5892.547493
_symmetry_space_group_name_H-M "P 4/M M M"
_symmetry_group_IT_number 123
_symmetry_cell_setting 'tetragonal'
loop_
_space_group_symop_operation_xyz
x,y,z
-y,x,z
-x,-y,z
y,-x,z
x,-y,-z
-x,y,-z
y,x,-z
-y,-x,-z
-x,-y,-z
y,-x,-z
x,y,-z
-y,x,-z
-x,y,z
x,-y,z
-y,-x,z
y,x,z
loop_
_atom_site_type_symbol
_atom_site_label
_atom_site_fract_x
_atom_site_fract_y
_atom_site_fract_z
Si Si1 0.586904 0.291637 0.413195
Si Si2 0.089714 0.500000 0.084387
Si Si3 0.689216 0.811652 0.685126
Si Si4 0.204692 0.916030 0.911867
Si Si5 0.914229 0.794652 0.587833
Si Si6 0.355986 0.912499 0.179307
O O1 0.595039 0.271422 0.500000
O O2 0.500000 0.298257 0.396854
O O3 0.631465 0.368536 0.402961
O O4 0.627675 0.231489 0.362432
O O5 0.109694 0.426524 0.129859
O O6 0.000000 0.500000 0.080069
O O7 0.117620 0.500000 0.000000
O O8 0.749650 0.749650 0.710313
O O9 0.733825 0.868178 0.632477
O O10 0.654547 0.858915 0.751241
O O11 0.144431 0.855570 0.888745
O O12 0.281727 0.906843 0.869615
O O13 0.177658 0.000000 0.898182
O O14 0.216846 0.908960 0.000000
O O15 0.909954 0.779410 0.500000
O O16 0.872750 0.872750 0.600466
O O17 0.000000 0.796358 0.609821
O O18 0.364345 0.000000 0.200284
#
# Coordination Sequence:
#
# PCOD9561796 Si02
#       6
#    16   8  16  16  16  16
#     4   9  18  32  50  71  94 121 150 181 220 268
#     4   9  18  32  48  66  87 113 148 187 229 275
#     4  10  19  30  46  67  93 123 152 185 226 276
#     4   9  17  29  45  65  90 119 151 187 228 276
#     4   9  17  29  45  64  88 122 164 207 245 277
#     4  10  19  30  46  66  88 118 152 191 230 269
#
# _framework density 14.934118
#
# number of rings (size 3 to 8) (size 9 to 14) (size 15 to 20)
#    0.000    2.636    0.000    2.182    1.273    4.909 
#    0.000    2.727    0.000    0.000    0.000    6.364 
#    0.000    0.000    0.000    0.000    0.000    8.000 
#
# Total GULP energy -490420.704912 kJ/mol
# GULP energy per Si atom -5572.962556 kJ/mol
# Density = 1.490013 g / cm^3
# Si number density = 14.934118 Si / 1000 Ang^3
#
#
#
# Elastic Constant Matrix: (Units=GPa)
#
#
# Indices 1 2 3 4 5 6 
#
# 1 115.1492 71.6008 66.4906 0.0000 0.0000 0.0000
# 2 71.6008 115.1492 66.4906 0.0000 0.0000 0.0000
# 3 66.4906 66.4906 72.5133 0.0000 0.0000 0.0000
# 4 0.0000 0.0000 0.0000 22.9841 0.0000 0.0000
# 5 0.0000 0.0000 0.0000 0.0000 22.9841 0.0000
# 6 0.0000 0.0000 0.0000 0.0000 0.0000 9.4578
#
#
#
# Elastic Compliance Matrix: (Units=1/GPa)
#
#
# Indices 1 2 3 4 5 6 
#
# 1 0.019196 -0.003767 -0.014147 0.000000 0.000000 0.000000
# 2 -0.003767 0.019196 -0.014147 0.000000 0.000000 0.000000
# 3 -0.014147 -0.014147 0.039735 0.000000 0.000000 0.000000
# 4 0.000000 0.000000 0.000000 0.043508 0.000000 0.000000
# 5 0.000000 0.000000 0.000000 0.000000 0.043508 0.000000
# 6 0.000000 0.000000 0.000000 0.000000 0.000000 0.105733
#
#
# Mechanical properties :
#
#
# Convention : Reuss Voigt Hill
#
# Bulk Modulus (GPa) = 71.41104 79.10844 75.25974
# Shear Modulus (GPa) = 14.72027 17.63386 16.17706
#
# Velocity S-wave (km/s) = 3.14296 3.43997 3.29481
# Velocity P-wave (km/s) = 7.81615 8.29846 8.06091
#
# Compressibility (1/GPa) = 0.01400344
#
# Stress axis : x y z
#
# Youngs Moduli (GPa) = 52.09451 52.09451 25.16658
#
# Poissons Ratio (x) = 0.19624 0.35604
# Poissons Ratio (y) = 0.19624 0.35604
# Poissons Ratio (z) = 0.73700 0.73700
#
# Static dielectric constant tensor:
#      x y z
#    x 1.478370 0.000000 0.000000 
#    y 0.000000 1.478370 0.000000 
#    z 0.000000 0.000000 1.488270 
# 
# From -- ./inp_files/4056.got.cif
#   From: 2010.05.17/outbox.cif.g08.bks.cpg/sg123_3_cif.got.tgz:4056.got - 2010.05.20 11:43:04.
