data_PCOD9561307
_publ_section_title
;
Structure prediction by ZEFSAII (Michael W. Deem and Ramdas Pophale) SiO2 
 PCOD9561307
Probable space group: I -4 2 D
;
_chemical_formula_sum "Si O2"
_cell_formula_units_Z 24
_cell_length_a 7.898270
_cell_length_b 7.898270
_cell_length_c 17.100394
_cell_angle_alpha 90.000000
_cell_angle_beta 90.000000
_cell_angle_gamma 90.000000
_cell_volume 1066.768219
_symmetry_space_group_name_H-M "I -4 2 D"
_symmetry_group_IT_number 122
_symmetry_cell_setting 'tetragonal'
loop_
_space_group_symop_operation_xyz
x,y,z
y,-x,-z
-x,-y,z
-y,x,-z
x,1/2-y,1/4-z
-x,1/2+y,1/4-z
-y,1/2-x,1/4+z
y,1/2+x,1/4+z
1/2+x,1/2+y,1/2+z
1/2+y,1/2-x,1/2-z
1/2-x,1/2-y,1/2+z
1/2-y,1/2+x,1/2-z
1/2+x,-y,3/4-z
1/2-x,y,3/4-z
1/2-y,-x,3/4+z
1/2+y,x,3/4+z
loop_
_atom_site_type_symbol
_atom_site_label
_atom_site_fract_x
_atom_site_fract_y
_atom_site_fract_z
Si Si1 0.047535 0.681825 0.875114
Si Si2 0.500000 0.500000 0.274519
O O1 0.250000 0.698034 0.875000
O O2 0.974457 0.837330 0.827836
O O3 0.000000 0.500000 0.838796
O O4 0.981355 0.656916 0.963979
#
# Coordination Sequence:
#
# PCOD9561307 Si02
#       2
#    16   8
#     4  10  26  44  77 103 151 186 248 299 371 429
#     4  10  26  46  76 104 148 194 244 302 368 434
#
# _framework density 22.497858000000001
#
# number of rings (size 3 to 8) (size 9 to 14) (size 15 to 20)
#    2.000    0.000    0.000    0.000    9.333    8.000 
#    0.000    0.000    0.000    0.000    0.000    0.000 
#    0.000    0.000    0.000    0.000    0.000    0.000 
#
# Total GULP energy -66986.957762 kJ/mol
# GULP energy per Si atom -5582.246480 kJ/mol
# Density = 2.244665 g / cm^3
# Si number density = 22.497858 Si / 1000 Ang^3
#
#
#
# Elastic Constant Matrix: (Units=GPa)
#
#
# Indices 1 2 3 4 5 6 
#
# 1 105.7302 6.6649 73.2637 0.0000 0.0000 0.0000
# 2 6.6649 105.7302 73.2637 0.0000 0.0000 0.0000
# 3 73.2637 73.2637 167.1934 0.0000 0.0000 0.0000
# 4 0.0000 0.0000 0.0000 -10.0582 0.0000 0.0000
# 5 0.0000 0.0000 0.0000 0.0000 -10.0582 0.0000
# 6 0.0000 0.0000 0.0000 0.0000 0.0000 0.6204
#
#
#
# Elastic Compliance Matrix: (Units=1/GPa)
#
#
# Indices 1 2 3 4 5 6 
#
# 1 0.015423 0.005329 -0.009094 0.000000 0.000000 0.000000
# 2 0.005329 0.015423 -0.009094 0.000000 0.000000 0.000000
# 3 -0.009094 -0.009094 0.013951 0.000000 0.000000 0.000000
# 4 0.000000 0.000000 0.000000 -0.099421 0.000000 0.000000
# 5 0.000000 0.000000 0.000000 0.000000 -0.099421 0.000000
# 6 0.000000 0.000000 0.000000 0.000000 0.000000 1.611936
#
#
# Mechanical properties :
#
#
# Convention : Reuss Voigt Hill
#
# Bulk Modulus (GPa) = 52.40829 76.11539 64.26184
# Shear Modulus (GPa) = 3.35578 11.13156 7.24367
#
# Velocity S-wave (km/s) = 1.22264 2.22679 1.79630
# Velocity P-wave (km/s) = 5.03373 6.36531 5.73828
#
# Compressibility (1/GPa) = 0.01908095
#
# Stress axis : x y z
#
# Youngs Moduli (GPa) = 64.83657 64.83657 71.68079
#
# Poissons Ratio (x) = -0.34552 0.65184
# Poissons Ratio (y) = -0.34552 0.65184
# Poissons Ratio (z) = 0.58960 0.58960
#
# Static dielectric constant tensor:
#      x y z
#    x 1.806700 0.000000 0.000000 
#    y 0.000000 1.806700 0.000000 
#    z 0.000000 0.000000 1.856380 
# 
# From -- ./inp_files/4674.got.cif
#   From: 2010.05.17/outbox.cif.g08.bks.cpg/sg122_3_cif.got.tgz:4674.got - 2010.05.20 11:37:33.
