data_PCOD9561299
_publ_section_title
;
Structure prediction by ZEFSAII (Michael W. Deem and Ramdas Pophale) SiO2 
 PCOD9561299
Probable space group: I -4 2 D
;
_chemical_formula_sum "Si O2"
_cell_formula_units_Z 48
_cell_length_a 10.598092
_cell_length_b 10.598092
_cell_length_c 17.084639
_cell_angle_alpha 90.000000
_cell_angle_beta 90.000000
_cell_angle_gamma 90.000000
_cell_volume 1918.939033
_symmetry_space_group_name_H-M "I -4 2 D"
_symmetry_group_IT_number 122
_symmetry_cell_setting 'tetragonal'
loop_
_space_group_symop_operation_xyz
x,y,z
y,-x,-z
-x,-y,z
-y,x,-z
x,1/2-y,1/4-z
-x,1/2+y,1/4-z
-y,1/2-x,1/4+z
y,1/2+x,1/4+z
1/2+x,1/2+y,1/2+z
1/2+y,1/2-x,1/2-z
1/2-x,1/2-y,1/2+z
1/2-y,1/2+x,1/2-z
1/2+x,-y,3/4-z
1/2-x,y,3/4-z
1/2-y,-x,3/4+z
1/2+y,x,3/4+z
loop_
_atom_site_type_symbol
_atom_site_label
_atom_site_fract_x
_atom_site_fract_y
_atom_site_fract_z
Si Si1 0.626039 0.139059 0.710660
Si Si2 0.756578 0.621344 0.011978
Si Si3 0.081219 0.250000 0.625000
Si Si4 0.500000 0.000000 0.575191
O O1 0.499079 0.169565 0.758022
O O2 0.739023 0.234943 0.724942
O O3 0.575563 0.103370 0.625685
O O4 0.722220 0.517759 0.946677
O O5 0.680999 0.640856 0.094273
O O6 0.896997 0.576154 0.029275
#
# Coordination Sequence:
#
# PCOD9561299 Si02
#       4
#    16  16   8   8
#     4   9  21  44  76 112 144 199 289 350 413 504
#     4  12  29  51  81 119 173 229 283 375 443 561
#     4  12  32  54  82 126 186 224 302 352 486 526
#     4  10  25  44  82 107 152 212 290 340 432 509
#
# _framework density 25.013822999999999
#
# number of rings (size 3 to 8) (size 9 to 14) (size 15 to 20)
#    0.000    1.667    0.000    4.000   14.000    0.667 
#    0.000    0.000    0.000    0.000    0.000    0.000 
#    0.000    0.000    0.000    0.000    0.000    0.000 
#
# Total GULP energy -133678.912503 kJ/mol
# GULP energy per Si atom -5569.954688 kJ/mol
# Density = 2.495689 g / cm^3
# Si number density = 25.013823 Si / 1000 Ang^3
#
#
#
# Elastic Constant Matrix: (Units=GPa)
#
#
# Indices 1 2 3 4 5 6 
#
# 1 82.8417 31.4620 17.2600 0.0000 0.0000 0.0000
# 2 31.4620 82.8417 17.2600 0.0000 0.0000 0.0000
# 3 17.2600 17.2600 59.7155 0.0000 0.0000 0.0000
# 4 0.0000 0.0000 0.0000 41.8603 0.0000 0.0000
# 5 0.0000 0.0000 0.0000 0.0000 41.8603 0.0000
# 6 0.0000 0.0000 0.0000 0.0000 0.0000 36.7907
#
#
#
# Elastic Compliance Matrix: (Units=1/GPa)
#
#
# Indices 1 2 3 4 5 6 
#
# 1 0.014524 -0.004939 -0.002771 0.000000 0.000000 0.000000
# 2 -0.004939 0.014524 -0.002771 0.000000 0.000000 0.000000
# 3 -0.002771 -0.002771 0.018348 0.000000 0.000000 0.000000
# 4 0.000000 0.000000 0.000000 0.023889 0.000000 0.000000
# 5 0.000000 0.000000 0.000000 0.000000 0.023889 0.000000
# 6 0.000000 0.000000 0.000000 0.000000 0.000000 0.027181
#
#
# Mechanical properties :
#
#
# Convention : Reuss Voigt Hill
#
# Bulk Modulus (GPa) = 37.82689 39.70699 38.76694
# Shear Modulus (GPa) = 32.86741 34.73007 33.79874
#
# Velocity S-wave (km/s) = 3.62880 3.73021 3.67986
# Velocity P-wave (km/s) = 5.71952 5.87036 5.79543
#
# Compressibility (1/GPa) = 0.02643622
#
# Stress axis : x y z
#
# Youngs Moduli (GPa) = 68.85090 68.85090 54.50297
#
# Poissons Ratio (x) = 0.34004 0.15100
# Poissons Ratio (y) = 0.34004 0.15100
# Poissons Ratio (z) = 0.19075 0.19075
#
# Static dielectric constant tensor:
#      x y z
#    x 2.065320 0.000000 0.000000 
#    y 0.000000 2.065320 0.000000 
#    z 0.000000 0.000000 2.069970 
# 
# From -- ./inp_files/5957.got.cif
#   From: 2010.05.17/outbox.cif.g08.bks.cpg/sg122_3_cif.got.tgz:5957.got - 2010.05.20 11:37:33.
