data_PCOD9561222
_publ_section_title
;
Structure prediction by ZEFSAII (Michael W. Deem and Ramdas Pophale) SiO2 
 PCOD9561222
Probable space group: I -4 2 D
;
_chemical_formula_sum "Si O2"
_cell_formula_units_Z 92
_cell_length_a 23.644769
_cell_length_b 23.644769
_cell_length_c 7.221463
_cell_angle_alpha 90.000000
_cell_angle_beta 90.000000
_cell_angle_gamma 90.000000
_cell_volume 4037.340157
_symmetry_space_group_name_H-M "I -4 2 D"
_symmetry_group_IT_number 122
_symmetry_cell_setting 'tetragonal'
loop_
_space_group_symop_operation_xyz
x,y,z
y,-x,-z
-x,-y,z
-y,x,-z
x,1/2-y,1/4-z
-x,1/2+y,1/4-z
-y,1/2-x,1/4+z
y,1/2+x,1/4+z
1/2+x,1/2+y,1/2+z
1/2+y,1/2-x,1/2-z
1/2-x,1/2-y,1/2+z
1/2-y,1/2+x,1/2-z
1/2+x,-y,3/4-z
1/2-x,y,3/4-z
1/2-y,-x,3/4+z
1/2+y,x,3/4+z
loop_
_atom_site_type_symbol
_atom_site_label
_atom_site_fract_x
_atom_site_fract_y
_atom_site_fract_z
Si Si1 0.132589 0.815377 0.310778
Si Si2 0.500000 0.500000 0.000000
Si Si3 0.580693 0.929850 0.002151
Si Si4 0.009748 0.349999 0.259016
Si Si5 0.396205 0.300634 0.744484
Si Si6 0.250000 0.872071 0.375000
Si Si7 0.105813 0.692504 0.378691
O O1 0.091514 0.866313 0.371732
O O2 0.225092 0.905256 0.551561
O O3 0.120031 0.757669 0.416820
O O4 0.118955 0.811596 0.092147
O O5 0.531498 0.545319 0.124924
O O6 0.556695 0.876672 0.890744
O O7 0.601474 0.976678 0.855461
O O8 0.044745 0.315126 0.106192
O O9 0.961255 0.319738 0.379656
O O10 0.368718 0.250000 0.625000
O O11 0.167157 0.302600 0.571686
O O12 0.353588 0.354336 0.730389
#
# Coordination Sequence:
#
# PCOD9561222 Si02
#       7
#    16   4  16  16  16   8  16
#     4  10  23  44  66 107 144 184 250 304 379 456
#     4  12  28  38  68 100 152 198 252 336 380 458
#     4  11  24  44  66 104 140 198 254 317 383 465
#     4  11  22  46  73 102 140 198 258 306 390 460
#     4  12  25  46  74 109 146 196 251 307 382 462
#     4  12  26  42  78 108 154 194 240 314 380 466
#     4  10  23  44  74 103 142 198 246 321 377 463
#
# _framework density 22.787279999999999
#
# number of rings (size 3 to 8) (size 9 to 14) (size 15 to 20)
#    0.000    1.043    5.217    1.043    8.522    0.696 
#    0.000    0.000    0.000    0.000    0.000    0.000 
#    0.000    0.000    0.000    0.000    0.000    0.000 
#
# Total GULP energy -257221.686942 kJ/mol
# GULP energy per Si atom -5591.775803 kJ/mol
# Density = 2.273542 g / cm^3
# Si number density = 22.787280 Si / 1000 Ang^3
#
#
#
# Elastic Constant Matrix: (Units=GPa)
#
#
# Indices 1 2 3 4 5 6 
#
# 1 122.6300 40.5546 29.2709 0.0000 0.0000 0.0000
# 2 40.5546 122.6300 29.2709 0.0000 0.0000 0.0000
# 3 29.2709 29.2709 94.6198 0.0000 0.0000 0.0000
# 4 0.0000 0.0000 0.0000 18.7490 0.0000 0.0000
# 5 0.0000 0.0000 0.0000 0.0000 18.7490 0.0000
# 6 0.0000 0.0000 0.0000 0.0000 0.0000 18.0972
#
#
#
# Elastic Compliance Matrix: (Units=1/GPa)
#
#
# Indices 1 2 3 4 5 6 
#
# 1 0.009538 -0.002645 -0.002132 0.000000 0.000000 0.000000
# 2 -0.002645 0.009538 -0.002132 0.000000 0.000000 0.000000
# 3 -0.002132 -0.002132 0.011888 0.000000 0.000000 0.000000
# 4 0.000000 0.000000 0.000000 0.053336 0.000000 0.000000
# 5 0.000000 0.000000 0.000000 0.000000 0.053336 0.000000
# 6 0.000000 0.000000 0.000000 0.000000 0.000000 0.055257
#
#
# Mechanical properties :
#
#
# Convention : Reuss Voigt Hill
#
# Bulk Modulus (GPa) = 58.32790 59.78585 59.05687
# Shear Modulus (GPa) = 23.53723 27.17128 25.35426
#
# Velocity S-wave (km/s) = 3.21738 3.45684 3.33926
# Velocity P-wave (km/s) = 6.28127 6.49819 6.39065
#
# Compressibility (1/GPa) = 0.01714445
#
# Stress axis : x y z
#
# Youngs Moduli (GPa) = 104.83871 104.83871 84.11894
#
# Poissons Ratio (x) = 0.27735 0.17937
# Poissons Ratio (y) = 0.27735 0.17937
# Poissons Ratio (z) = 0.22356 0.22356
#
# Static dielectric constant tensor:
#      x y z
#    x 1.885880 0.000000 0.000000 
#    y 0.000000 1.885880 0.000000 
#    z 0.000000 0.000000 1.889270 
# 
# From -- ./inp_files/2943.got.cif
#   From: 2010.05.17/outbox.cif.g08.bks.cpg/sg122_2_cif.got.tgz:2943.got - 2010.05.20 11:37:33.
