data_PCOD9561951
_publ_section_title
;
Structure prediction by ZEFSAII (Michael W. Deem and Ramdas Pophale) SiO2 
 PCOD9561951
Probable space group: P 4/M M M
;
_chemical_formula_sum "Si O2"
_cell_formula_units_Z 72
_cell_length_a 21.970944
_cell_length_b 21.970944
_cell_length_c 7.792913
_cell_angle_alpha 90.000000
_cell_angle_beta 90.000000
_cell_angle_gamma 90.000000
_cell_volume 3761.813512
_symmetry_space_group_name_H-M "P 4/M M M"
_symmetry_group_IT_number 123
_symmetry_cell_setting 'tetragonal'
loop_
_space_group_symop_operation_xyz
x,y,z
-y,x,z
-x,-y,z
y,-x,z
x,-y,-z
-x,y,-z
y,x,-z
-y,-x,-z
-x,-y,-z
y,-x,-z
x,y,-z
-y,x,-z
-x,y,z
x,-y,z
-y,-x,z
y,x,z
loop_
_atom_site_type_symbol
_atom_site_label
_atom_site_fract_x
_atom_site_fract_y
_atom_site_fract_z
Si Si1 0.427553 0.233082 0.803291
Si Si2 0.326426 0.573052 0.500000
Si Si3 0.000000 0.311716 0.301222
Si Si4 0.330929 0.137027 0.292396
Si Si5 0.165846 0.000000 0.302554
Si Si6 0.220557 0.220557 0.691640
Si Si7 0.130172 0.869828 0.187314
O O1 0.500000 0.223980 0.790351
O O2 0.411389 0.285442 0.666649
O O3 0.392518 0.171623 0.753993
O O4 0.412980 0.249826 0.000000
O O5 0.337508 0.500000 0.500000
O O6 0.387359 0.612642 0.500000
O O7 0.066929 0.328950 0.228142
O O8 0.000000 0.333472 0.500000
O O9 0.000000 0.238689 0.301497
O O10 0.323088 0.133478 0.500000
O O11 0.277423 0.183356 0.229700
O O12 0.143022 0.060002 0.211991
O O13 0.145198 0.000000 0.500000
O O14 0.240390 0.240390 0.500000
O O15 0.168974 0.168974 0.680703
O O16 0.150685 0.849315 0.000000
#
# Coordination Sequence:
#
# PCOD9561951 Si02
#       7
#    16   8   8  16   8   8   8
#     4  10  22  40  62  90 125 164 205 249 298 351
#     4  10  22  41  66  95 131 169 203 246 296 350
#     4   9  18  33  57  85 111 145 193 244 298 356
#     4  10  19  34  58  88 118 152 198 248 298 354
#     4  11  21  40  60  72  98 145 188 226 286 359
#     4  10  20  34  57  85 112 148 188 233 290 356
#     4  12  24  37  53  80 112 138 177 236 297 353
#
# _framework density 19.139703999999998
#
# number of rings (size 3 to 8) (size 9 to 14) (size 15 to 20)
#    0.000    1.778    3.333    1.333    1.556    1.667 
#    0.000    2.222    0.000    3.333    0.000    3.111 
#    0.000    0.000    0.000    0.000    0.000    0.000 
#
# Total GULP energy -401513.228634 kJ/mol
# GULP energy per Si atom -5576.572620 kJ/mol
# Density = 1.909614 g / cm^3
# Si number density = 19.139704 Si / 1000 Ang^3
#
#
#
# Elastic Constant Matrix: (Units=GPa)
#
#
# Indices 1 2 3 4 5 6 
#
# 1 78.1077 46.2593 30.2205 0.0000 0.0000 0.0000
# 2 46.2593 78.1203 30.2217 0.0000 0.0000 0.0000
# 3 30.2205 30.2217 81.5712 0.0000 0.0000 0.0000
# 4 0.0000 0.0000 0.0000 -2.6694 0.0000 0.0000
# 5 0.0000 0.0000 0.0000 0.0000 -2.6663 0.0000
# 6 0.0000 0.0000 0.0000 0.0000 0.0000 49.5261
#
#
#
# Elastic Compliance Matrix: (Units=1/GPa)
#
#
# Indices 1 2 3 4 5 6 
#
# 1 0.020601 -0.010793 -0.003633 0.000000 0.000000 0.000000
# 2 -0.010793 0.020597 -0.003633 0.000000 0.000000 0.000000
# 3 -0.003633 -0.003633 0.014951 0.000000 0.000000 0.000000
# 4 0.000000 0.000000 0.000000 -0.374615 0.000000 0.000000
# 5 0.000000 0.000000 0.000000 0.000000 -0.375045 0.000000
# 6 0.000000 0.000000 0.000000 0.000000 0.000000 0.020191
#
#
# Mechanical properties :
#
#
# Convention : Reuss Voigt Hill
#
# Bulk Modulus (GPa) = 49.92249 50.13358 50.02804
# Shear Modulus (GPa) = -7.92992 17.57791 4.82399
#
# Velocity S-wave (km/s) = -2.03769 3.03380 1.58930
# Velocity P-wave (km/s) = 4.53912 6.20663 5.43718
#
# Compressibility (1/GPa) = 0.02003105
#
# Stress axis : x y z
#
# Youngs Moduli (GPa) = 48.54131 48.54980 66.88458
#
# Poissons Ratio (x) = 0.52402 0.24302
# Poissons Ratio (y) = 0.52393 0.24296
# Poissons Ratio (z) = 0.17637 0.17636
#
# Static dielectric constant tensor:
#      x y z
#    x 1.648400 0.000000 0.000000 
#    y 0.000000 1.648400 0.000000 
#    z 0.000000 0.000000 1.720080 
# 
# From -- ./inp_files/1235.got.cif
#   From: 2010.05.17/outbox.cif.g08.bks.cpg/sg123_1_cif.got.tgz:1235.got - 2010.05.20 11:43:04.
