data_PCOD9561065
_publ_section_title
;
Structure prediction by ZEFSAII (Michael W. Deem and Ramdas Pophale) SiO2 
 PCOD9561065
Probable space group: I -4 2 D
;
_chemical_formula_sum "Si O2"
_cell_formula_units_Z 88
_cell_length_a 17.782990
_cell_length_b 17.782990
_cell_length_c 13.434527
_cell_angle_alpha 90.000000
_cell_angle_beta 90.000000
_cell_angle_gamma 90.000000
_cell_volume 4248.464063
_symmetry_space_group_name_H-M "I -4 2 D"
_symmetry_group_IT_number 122
_symmetry_cell_setting 'tetragonal'
loop_
_space_group_symop_operation_xyz
x,y,z
y,-x,-z
-x,-y,z
-y,x,-z
x,1/2-y,1/4-z
-x,1/2+y,1/4-z
-y,1/2-x,1/4+z
y,1/2+x,1/4+z
1/2+x,1/2+y,1/2+z
1/2+y,1/2-x,1/2-z
1/2-x,1/2-y,1/2+z
1/2-y,1/2+x,1/2-z
1/2+x,-y,3/4-z
1/2-x,y,3/4-z
1/2-y,-x,3/4+z
1/2+y,x,3/4+z
loop_
_atom_site_type_symbol
_atom_site_label
_atom_site_fract_x
_atom_site_fract_y
_atom_site_fract_z
Si Si1 0.377429 0.866458 0.502330
Si Si2 0.955663 0.215572 0.933339
Si Si3 0.163710 0.610063 0.229262
Si Si4 0.182330 0.695516 0.532399
Si Si5 0.185052 0.485732 0.958352
Si Si6 0.750000 0.202687 0.375000
O O1 0.432798 0.798477 0.472087
O O2 0.371664 0.872688 0.620846
O O3 0.296624 0.841999 0.457044
O O4 0.380417 0.951338 0.458011
O O5 0.986406 0.219894 0.820164
O O6 0.021916 0.174287 0.994810
O O7 0.886720 0.157084 0.944872
O O8 0.248570 0.640130 0.228567
O O9 0.196741 0.750000 0.625000
O O10 0.101009 0.659382 0.550324
O O11 0.189290 0.749473 0.436607
O O12 0.250000 0.497609 0.875000
#
# Coordination Sequence:
#
# PCOD9561065 Si02
#       6
#    16  16  16  16  16   8
#     4  11  21  40  61  97 125 164 210 269 323 379
#     4  11  23  42  65  92 128 173 216 270 325 382
#     4  11  23  41  65  92 125 169 223 265 319 383
#     4  11  19  35  60  93 121 161 215 263 315 386
#     4  10  22  36  63  99 128 160 213 267 328 387
#     4  12  18  34  66  86 126 158 212 268 320 370
#
# _framework density 20.713369
#
# number of rings (size 3 to 8) (size 9 to 14) (size 15 to 20)
#    0.000    1.091    6.364    0.545    0.000    0.364 
#    9.818    0.909    0.000    0.000    0.000    0.000 
#    0.000    0.000    0.000    0.000    0.000    0.000 
#
# Total GULP energy -245324.169830 kJ/mol
# GULP energy per Si atom -5575.549314 kJ/mol
# Density = 2.066622 g / cm^3
# Si number density = 20.713369 Si / 1000 Ang^3
#
#
#
# Elastic Constant Matrix: (Units=GPa)
#
#
# Indices 1 2 3 4 5 6 
#
# 1 103.3764 41.6311 13.4093 0.0000 0.0000 0.0000
# 2 41.6311 103.3764 13.4093 0.0000 0.0000 0.0000
# 3 13.4093 13.4093 68.1716 0.0000 0.0000 0.0000
# 4 0.0000 0.0000 0.0000 19.2338 0.0000 0.0000
# 5 0.0000 0.0000 0.0000 0.0000 19.2338 0.0000
# 6 0.0000 0.0000 0.0000 0.0000 0.0000 9.9559
#
#
#
# Elastic Compliance Matrix: (Units=1/GPa)
#
#
# Indices 1 2 3 4 5 6 
#
# 1 0.011676 -0.004520 -0.001408 0.000000 0.000000 0.000000
# 2 -0.004520 0.011676 -0.001408 0.000000 0.000000 0.000000
# 3 -0.001408 -0.001408 0.015223 0.000000 0.000000 0.000000
# 4 0.000000 0.000000 0.000000 0.051992 0.000000 0.000000
# 5 0.000000 0.000000 0.000000 0.000000 0.051992 0.000000
# 6 0.000000 0.000000 0.000000 0.000000 0.000000 0.100443
#
#
# Mechanical properties :
#
#
# Convention : Reuss Voigt Hill
#
# Bulk Modulus (GPa) = 41.83228 45.75820 43.79524
# Shear Modulus (GPa) = 18.82254 23.44969 21.13611
#
# Velocity S-wave (km/s) = 3.01776 3.36833 3.19785
# Velocity P-wave (km/s) = 5.69053 6.10464 5.90122
#
# Compressibility (1/GPa) = 0.02390498
#
# Stress axis : x y z
#
# Youngs Moduli (GPa) = 85.64534 85.64534 65.69158
#
# Poissons Ratio (x) = 0.38708 0.09247
# Poissons Ratio (y) = 0.38708 0.09247
# Poissons Ratio (z) = 0.12056 0.12056
#
# Static dielectric constant tensor:
#      x y z
#    x 1.789150 0.000000 0.000000 
#    y 0.000000 1.789150 0.000000 
#    z 0.000000 0.000000 1.764100 
# 
# From -- ./inp_files/5371.got.cif
#   From: 2010.05.17/outbox.cif.g08.bks.cpg/sg122_3_cif.got.tgz:5371.got - 2010.05.20 11:37:33.
