data_PCOD9561316
_publ_section_title
;
Structure prediction by ZEFSAII (Michael W. Deem and Ramdas Pophale) SiO2 
 PCOD9561316
Probable space group: I -4 2 D
;
_chemical_formula_sum "Si O2"
_cell_formula_units_Z 64
_cell_length_a 21.987079
_cell_length_b 21.987079
_cell_length_c 4.401515
_cell_angle_alpha 90.000000
_cell_angle_beta 90.000000
_cell_angle_gamma 90.000000
_cell_volume 2127.831628
_symmetry_space_group_name_H-M "I -4 2 D"
_symmetry_group_IT_number 122
_symmetry_cell_setting 'tetragonal'
loop_
_space_group_symop_operation_xyz
x,y,z
y,-x,-z
-x,-y,z
-y,x,-z
x,1/2-y,1/4-z
-x,1/2+y,1/4-z
-y,1/2-x,1/4+z
y,1/2+x,1/4+z
1/2+x,1/2+y,1/2+z
1/2+y,1/2-x,1/2-z
1/2-x,1/2-y,1/2+z
1/2-y,1/2+x,1/2-z
1/2+x,-y,3/4-z
1/2-x,y,3/4-z
1/2-y,-x,3/4+z
1/2+y,x,3/4+z
loop_
_atom_site_type_symbol
_atom_site_label
_atom_site_fract_x
_atom_site_fract_y
_atom_site_fract_z
Si Si1 0.638774 0.859381 0.223279
Si Si2 0.541008 0.312635 0.461063
Si Si3 0.585503 0.033999 0.719548
Si Si4 0.933454 0.750000 0.625000
Si Si5 0.296720 0.750000 0.625000
O O1 0.607671 0.795941 0.322834
O O2 0.588456 0.890933 0.998702
O O3 0.695997 0.835238 0.027648
O O4 0.664344 0.905421 0.481336
O O5 0.558118 0.250000 0.625000
O O6 0.501830 0.362230 0.659280
O O7 0.481743 0.292989 0.280235
O O8 0.529093 0.058523 0.921805
O O9 0.250000 0.724880 0.375000
#
# Coordination Sequence:
#
# PCOD9561316 Si02
#       5
#    16  16  16   8   8
#     4  11  27  56  90 130 192 246 324 410 492 596
#     4  11  28  51  91 137 184 252 325 403 497 595
#     4  10  26  49  84 129 183 251 317 400 484 587
#     4  10  26  55  80 128 183 248 306 398 488 596
#     4  12  30  61  88 134 185 252 316 394 494 600
#
# _framework density 30.077569
#
# number of rings (size 3 to 8) (size 9 to 14) (size 15 to 20)
#    0.000    1.250    1.250    0.000    7.000   17.000 
#    2.250    0.000    5.500    0.000    0.000    0.000 
#    0.000    0.000    0.000    0.000    0.000    0.000 
#
# Total GULP energy -178291.326585 kJ/mol
# GULP energy per Si atom -5571.603956 kJ/mol
# Density = 3.000911 g / cm^3
# Si number density = 30.077569 Si / 1000 Ang^3
#
#
#
# Elastic Constant Matrix: (Units=GPa)
#
#
# Indices 1 2 3 4 5 6 
#
# 1 231.7264 129.9336 109.4975 0.0000 0.0000 0.0000
# 2 129.9336 231.7264 109.4975 0.0000 0.0000 0.0000
# 3 109.4975 109.4975 127.0796 0.0000 0.0000 0.0000
# 4 0.0000 0.0000 0.0000 47.9924 0.0000 0.0000
# 5 0.0000 0.0000 0.0000 0.0000 47.9924 0.0000
# 6 0.0000 0.0000 0.0000 0.0000 0.0000 37.6579
#
#
#
# Elastic Compliance Matrix: (Units=1/GPa)
#
#
# Indices 1 2 3 4 5 6 
#
# 1 0.007803 -0.002021 -0.004982 0.000000 0.000000 0.000000
# 2 -0.002021 0.007803 -0.004982 0.000000 0.000000 0.000000
# 3 -0.004982 -0.004982 0.016454 0.000000 0.000000 0.000000
# 4 0.000000 0.000000 0.000000 0.020837 0.000000 0.000000
# 5 0.000000 0.000000 0.000000 0.000000 0.020837 0.000000
# 6 0.000000 0.000000 0.000000 0.000000 0.000000 0.026555
#
#
# Mechanical properties :
#
#
# Convention : Reuss Voigt Hill
#
# Bulk Modulus (GPa) = 123.60286 143.15440 133.37863
# Shear Modulus (GPa) = 39.38461 42.83547 41.11004
#
# Velocity S-wave (km/s) = 3.62254 3.77791 3.70104
# Velocity P-wave (km/s) = 7.66035 8.16875 7.91863
#
# Compressibility (1/GPa) = 0.00809043
#
# Stress axis : x y z
#
# Youngs Moduli (GPa) = 128.16059 128.16059 60.77584
#
# Poissons Ratio (x) = 0.25903 0.30276
# Poissons Ratio (y) = 0.25903 0.30276
# Poissons Ratio (z) = 0.63845 0.63845
#
# Static dielectric constant tensor:
#      x y z
#    x 2.725110 0.000000 0.000000 
#    y 0.000000 2.725110 0.000000 
#    z 0.000000 0.000000 2.445360 
# 
# From -- ./inp_files/1148.got.cif
#   From: 2010.05.17/outbox.cif.g08.bks.cpg/sg122_1_cif.got.tgz:1148.got - 2010.05.20 11:37:33.
