data_PCOD9561262
_publ_section_title
;
Structure prediction by ZEFSAII (Michael W. Deem and Ramdas Pophale) SiO2 
 PCOD9561262
Probable space group: I -4 2 D
;
_chemical_formula_sum "Si O2"
_cell_formula_units_Z 56
_cell_length_a 17.318270
_cell_length_b 17.318270
_cell_length_c 8.358970
_cell_angle_alpha 90.000000
_cell_angle_beta 90.000000
_cell_angle_gamma 90.000000
_cell_volume 2507.042977
_symmetry_space_group_name_H-M "I -4 2 D"
_symmetry_group_IT_number 122
_symmetry_cell_setting 'tetragonal'
loop_
_space_group_symop_operation_xyz
x,y,z
y,-x,-z
-x,-y,z
-y,x,-z
x,1/2-y,1/4-z
-x,1/2+y,1/4-z
-y,1/2-x,1/4+z
y,1/2+x,1/4+z
1/2+x,1/2+y,1/2+z
1/2+y,1/2-x,1/2-z
1/2-x,1/2-y,1/2+z
1/2-y,1/2+x,1/2-z
1/2+x,-y,3/4-z
1/2-x,y,3/4-z
1/2-y,-x,3/4+z
1/2+y,x,3/4+z
loop_
_atom_site_type_symbol
_atom_site_label
_atom_site_fract_x
_atom_site_fract_y
_atom_site_fract_z
Si Si1 0.752418 0.250000 0.125000
Si Si2 0.884903 0.459260 0.196800
Si Si3 0.959892 0.888335 0.567707
Si Si4 0.368747 0.250000 0.625000
Si Si5 0.864175 0.750000 0.625000
O O1 0.711174 0.309450 0.245966
O O2 0.793844 0.191651 0.248549
O O3 0.904752 0.540923 0.276912
O O4 0.812317 0.419876 0.282533
O O5 0.880280 0.473890 0.007162
O O6 0.916424 0.809496 0.528770
O O7 0.038739 0.905604 0.474184
#
# Coordination Sequence:
#
# PCOD9561262 Si02
#       5
#     8  16  16   8   8
#     4  10  24  44  68 100 146 174 240 300 350 434
#     4  11  25  44  70 102 142 190 239 298 362 441
#     4  11  25  44  70 102 142 189 243 294 363 442
#     4  11  24  47  72 107 145 190 238 301 368 423
#     4  11  24  47  68 105 139 188 238 305 366 417
#
# _framework density 22.337074000000001
#
# number of rings (size 3 to 8) (size 9 to 14) (size 15 to 20)
#    0.000    1.143    2.857    3.429    8.000    2.286 
#    5.143    0.000    0.000    0.000    0.000    0.000 
#    0.000    0.000    0.000    0.000    0.000    0.000 
#
# Total GULP energy -156132.145766 kJ/mol
# GULP energy per Si atom -5576.148063 kJ/mol
# Density = 2.228623 g / cm^3
# Si number density = 22.337074 Si / 1000 Ang^3
#
#
#
# Elastic Constant Matrix: (Units=GPa)
#
#
# Indices 1 2 3 4 5 6 
#
# 1 89.3312 75.7412 22.6148 0.0000 0.0000 0.0000
# 2 75.7412 89.3312 22.6148 0.0000 0.0000 0.0000
# 3 22.6148 22.6148 101.0065 0.0000 0.0000 0.0000
# 4 0.0000 0.0000 0.0000 46.1727 0.0000 0.0000
# 5 0.0000 0.0000 0.0000 0.0000 46.1727 0.0000
# 6 0.0000 0.0000 0.0000 0.0000 0.0000 5.6178
#
#
#
# Elastic Compliance Matrix: (Units=1/GPa)
#
#
# Indices 1 2 3 4 5 6 
#
# 1 0.040019 -0.033565 -0.001445 0.000000 0.000000 0.000000
# 2 -0.033565 0.040019 -0.001445 0.000000 0.000000 0.000000
# 3 -0.001445 -0.001445 0.010547 0.000000 0.000000 0.000000
# 4 0.000000 0.000000 0.000000 0.021658 0.000000 0.000000
# 5 0.000000 0.000000 0.000000 0.000000 0.021658 0.000000
# 6 0.000000 0.000000 0.000000 0.000000 0.000000 0.178007
#
#
# Mechanical properties :
#
#
# Convention : Reuss Voigt Hill
#
# Bulk Modulus (GPa) = 56.57644 57.95671 57.26658
# Shear Modulus (GPa) = 12.79725 30.17250 21.48488
#
# Velocity S-wave (km/s) = 2.39616 3.67929 3.10473
# Velocity P-wave (km/s) = 5.74795 6.63719 6.20851
#
# Compressibility (1/GPa) = 0.01767520
#
# Stress axis : x y z
#
# Youngs Moduli (GPa) = 24.98824 24.98824 94.81011
#
# Poissons Ratio (x) = 0.83873 0.13700
# Poissons Ratio (y) = 0.83873 0.13700
# Poissons Ratio (z) = 0.03611 0.03611
#
# Static dielectric constant tensor:
#      x y z
#    x 1.823040 0.000000 0.000000 
#    y 0.000000 1.823040 0.000000 
#    z 0.000000 0.000000 1.892340 
# 
# From -- ./inp_files/2248.got.cif
#   From: 2010.05.17/outbox.cif.g08.bks.cpg/sg122_2_cif.got.tgz:2248.got - 2010.05.20 11:37:33.
