data_PCOD9561780
_publ_section_title
;
Structure prediction by ZEFSAII (Michael W. Deem and Ramdas Pophale) SiO2 
 PCOD9561780
Probable space group: P 4/M M M
;
_chemical_formula_sum "Si O2"
_cell_formula_units_Z 128
_cell_length_a 18.671052
_cell_length_b 18.671052
_cell_length_c 23.033892
_cell_angle_alpha 90.000000
_cell_angle_beta 90.000000
_cell_angle_gamma 90.000000
_cell_volume 8029.803233
_symmetry_space_group_name_H-M "P 4/M M M"
_symmetry_group_IT_number 123
_symmetry_cell_setting 'tetragonal'
loop_
_space_group_symop_operation_xyz
x,y,z
-y,x,z
-x,-y,z
y,-x,z
x,-y,-z
-x,y,-z
y,x,-z
-y,-x,-z
-x,-y,-z
y,-x,-z
x,y,-z
-y,x,-z
-x,y,z
x,-y,z
-y,-x,z
y,x,z
loop_
_atom_site_type_symbol
_atom_site_label
_atom_site_fract_x
_atom_site_fract_y
_atom_site_fract_z
Si Si1 0.303415 0.579384 0.066969
Si Si2 0.299595 0.818957 0.759327
Si Si3 0.188537 0.310088 0.623087
Si Si4 0.581969 0.162730 0.144638
Si Si5 0.914784 0.800541 0.833987
Si Si6 0.914389 0.692171 0.934151
Si Si7 0.916983 0.201200 0.429929
Si Si8 0.416390 0.702488 0.429980
O O1 0.335832 0.500000 0.071033
O O2 0.360608 0.639393 0.080740
O O3 0.236888 0.582888 0.109469
O O4 0.279546 0.588884 0.000000
O O5 0.255027 0.744974 0.769174
O O6 0.317013 0.824466 0.691627
O O7 0.369961 0.826303 0.798464
O O8 0.246040 0.881018 0.781800
O O9 0.249545 0.249545 0.614712
O O10 0.119221 0.274410 0.593279
O O11 0.225593 0.380575 0.596337
O O12 0.500000 0.142610 0.156831
O O13 0.621925 0.108307 0.101366
O O14 0.877212 0.877212 0.833525
O O15 0.892465 0.758475 0.893032
O O16 0.000000 0.803384 0.830722
O O17 0.000000 0.694347 0.937506
O O18 0.885706 0.694340 0.000000
O O19 0.915419 0.203016 0.500000
O O20 0.865781 0.134220 0.411695
O O21 0.000000 0.193237 0.411709
O O22 0.413373 0.707600 0.500000
O O23 0.500000 0.693735 0.413312
O O24 0.365642 0.634359 0.413416
#
# Coordination Sequence:
#
# PCOD9561780 Si02
#       8
#    16  16  16  16  16  16  16  16
#     4   9  17  28  42  61  85 112 141 174 213 258
#     4   9  18  32  48  65  88 121 157 191 229 271
#     4   9  17  30  48  68  91 123 164 201 230 270
#     4  10  19  30  45  66  89 111 142 187 231 269
#     4   9  18  32  49  70  95 121 151 187 226 270
#     4   9  18  32  48  65  87 116 146 176 217 271
#     4   9  17  29  47  72 100 128 157 191 232 277
#     4   9  17  29  47  72 100 128 158 195 239 286
#
# _framework density 15.940614999999999
#
# number of rings (size 3 to 8) (size 9 to 14) (size 15 to 20)
#    0.000    2.875    0.000    1.125    0.000    4.750 
#    0.000    2.500    0.000    0.375    0.000    8.750 
#    0.000    3.000    0.000    0.000    0.000    0.000 
#
# Total GULP energy -712583.593932 kJ/mol
# GULP energy per Si atom -5567.059328 kJ/mol
# Density = 1.590433 g / cm^3
# Si number density = 15.940615 Si / 1000 Ang^3
#
#
#
# Elastic Constant Matrix: (Units=GPa)
#
#
# Indices 1 2 3 4 5 6 
#
# 1 79.5897 43.1346 28.6320 0.0000 0.0000 0.0000
# 2 43.1346 79.5897 28.6320 0.0000 0.0000 0.0000
# 3 28.6320 28.6320 43.1800 0.0000 0.0000 0.0000
# 4 0.0000 0.0000 0.0000 15.3449 0.0000 0.0000
# 5 0.0000 0.0000 0.0000 0.0000 15.3449 0.0000
# 6 0.0000 0.0000 0.0000 0.0000 0.0000 19.6016
#
#
#
# Elastic Compliance Matrix: (Units=1/GPa)
#
#
# Indices 1 2 3 4 5 6 
#
# 1 0.019615 -0.007816 -0.007824 0.000000 0.000000 0.000000
# 2 -0.007816 0.019615 -0.007824 0.000000 0.000000 0.000000
# 3 -0.007824 -0.007824 0.033534 0.000000 0.000000 0.000000
# 4 0.000000 0.000000 0.000000 0.065168 0.000000 0.000000
# 5 0.000000 0.000000 0.000000 0.000000 0.065168 0.000000
# 6 0.000000 0.000000 0.000000 0.000000 0.000000 0.051016
#
#
# Mechanical properties :
#
#
# Convention : Reuss Voigt Hill
#
# Bulk Modulus (GPa) = 38.70341 44.79518 41.74930
# Shear Modulus (GPa) = 16.14691 16.85565 16.50128
#
# Velocity S-wave (km/s) = 3.18613 3.25530 3.22090
# Velocity P-wave (km/s) = 6.15367 6.50320 6.33085
#
# Compressibility (1/GPa) = 0.02583752
#
# Stress axis : x y z
#
# Youngs Moduli (GPa) = 50.98150 50.98150 29.82010
#
# Poissons Ratio (x) = 0.39847 0.23330
# Poissons Ratio (y) = 0.39847 0.23330
# Poissons Ratio (z) = 0.39886 0.39886
#
# Static dielectric constant tensor:
#      x y z
#    x 1.534220 0.000000 0.000000 
#    y 0.000000 1.534220 0.000000 
#    z 0.000000 0.000000 1.532580 
# 
# From -- ./inp_files/7677.got.cif
#   From: 2010.05.17/outbox.cif.g08.bks.cpg/sg123_4_cif.got.tgz:7677.got - 2010.05.20 11:43:04.
