data_PCOD9561212
_publ_section_title
;
Structure prediction by ZEFSAII (Michael W. Deem and Ramdas Pophale) SiO2 
 PCOD9561212
Probable space group: I -4 2 D
;
_chemical_formula_sum "Si O2"
_cell_formula_units_Z 56
_cell_length_a 21.432173
_cell_length_b 21.432173
_cell_length_c 5.055582
_cell_angle_alpha 90.000000
_cell_angle_beta 90.000000
_cell_angle_gamma 90.000000
_cell_volume 2322.221124
_symmetry_space_group_name_H-M "I -4 2 D"
_symmetry_group_IT_number 122
_symmetry_cell_setting 'tetragonal'
loop_
_space_group_symop_operation_xyz
x,y,z
y,-x,-z
-x,-y,z
-y,x,-z
x,1/2-y,1/4-z
-x,1/2+y,1/4-z
-y,1/2-x,1/4+z
y,1/2+x,1/4+z
1/2+x,1/2+y,1/2+z
1/2+y,1/2-x,1/2-z
1/2-x,1/2-y,1/2+z
1/2-y,1/2+x,1/2-z
1/2+x,-y,3/4-z
1/2-x,y,3/4-z
1/2-y,-x,3/4+z
1/2+y,x,3/4+z
loop_
_atom_site_type_symbol
_atom_site_label
_atom_site_fract_x
_atom_site_fract_y
_atom_site_fract_z
Si Si1 0.288398 0.841207 0.634715
Si Si2 0.967539 0.750000 0.125000
Si Si3 0.574865 0.149829 0.597538
Si Si4 0.557629 0.422738 0.117667
O O1 0.250000 0.827005 0.375000
O O2 0.359530 0.821755 0.684767
O O3 0.281642 0.917803 0.673871
O O4 0.250000 0.814075 0.875000
O O5 0.016535 0.695456 0.055675
O O6 0.596495 0.123856 0.311834
O O7 0.557670 0.098393 0.827648
O O8 0.491082 0.419705 0.965076
#
# Coordination Sequence:
#
# PCOD9561212 Si02
#       4
#    16   8  16  16
#     4  10  23  43  63  94 132 174 217 278 334 391
#     4  10  26  40  70  94 126 176 230 268 332 410
#     4  12  24  40  67  93 131 177 220 274 328 395
#     4  11  23  38  61  98 133 167 209 272 345 415
#
# _framework density 24.114841999999999
#
# number of rings (size 3 to 8) (size 9 to 14) (size 15 to 20)
#    0.857    0.286    0.000    6.857    8.000    2.286 
#    0.000    1.429    0.000    0.000    0.000    0.000 
#    0.000    0.000    0.000    0.000    0.000    0.000 
#
# Total GULP energy -155944.374469 kJ/mol
# GULP energy per Si atom -5569.441945 kJ/mol
# Density = 2.405996 g / cm^3
# Si number density = 24.114842 Si / 1000 Ang^3
#
#
#
# Elastic Constant Matrix: (Units=GPa)
#
#
# Indices 1 2 3 4 5 6 
#
# 1 129.2799 1.2192 4.3259 0.0000 0.0000 0.0000
# 2 1.2192 129.2799 4.3259 0.0000 0.0000 0.0000
# 3 4.3259 4.3259 110.1539 0.0000 0.0000 0.0000
# 4 0.0000 0.0000 0.0000 16.2187 0.0000 0.0000
# 5 0.0000 0.0000 0.0000 0.0000 16.2187 0.0000
# 6 0.0000 0.0000 0.0000 0.0000 0.0000 20.7846
#
#
#
# Elastic Compliance Matrix: (Units=1/GPa)
#
#
# Indices 1 2 3 4 5 6 
#
# 1 0.007746 -0.000063 -0.000302 0.000000 0.000000 0.000000
# 2 -0.000063 0.007746 -0.000302 0.000000 0.000000 0.000000
# 3 -0.000302 -0.000302 0.009102 0.000000 0.000000 0.000000
# 4 0.000000 0.000000 0.000000 0.061657 0.000000 0.000000
# 5 0.000000 0.000000 0.000000 0.000000 0.061657 0.000000
# 6 0.000000 0.000000 0.000000 0.000000 0.000000 0.048113
#
#
# Mechanical properties :
#
#
# Convention : Reuss Voigt Hill
#
# Bulk Modulus (GPa) = 42.99078 43.16177 43.07628
# Shear Modulus (GPa) = 24.37749 34.56723 29.47236
#
# Velocity S-wave (km/s) = 3.18290 3.79019 3.49974
# Velocity P-wave (km/s) = 5.60125 6.09027 5.85087
#
# Compressibility (1/GPa) = 0.02326080
#
# Stress axis : x y z
#
# Youngs Moduli (GPa) = 129.10149 129.10149 109.86712
#
# Poissons Ratio (x) = 0.00813 0.03315
# Poissons Ratio (y) = 0.00813 0.03315
# Poissons Ratio (z) = 0.03895 0.03895
#
# Static dielectric constant tensor:
#      x y z
#    x 1.994170 0.000000 0.000000 
#    y 0.000000 1.994170 0.000000 
#    z 0.000000 0.000000 2.025220 
# 
# From -- ./inp_files/1002.got.cif
#   From: 2010.05.17/outbox.cif.g08.bks.cpg/sg122_1_cif.got.tgz:1002.got - 2010.05.20 11:37:33.
