data_PCOD9561431
_publ_section_title
;
Structure prediction by ZEFSAII (Michael W. Deem and Ramdas Pophale) SiO2 
 PCOD9561431
Probable space group: I -4 2 D
;
_chemical_formula_sum "Si O2"
_cell_formula_units_Z 40
_cell_length_a 19.858286
_cell_length_b 19.858286
_cell_length_c 4.687282
_cell_angle_alpha 90.000000
_cell_angle_beta 90.000000
_cell_angle_gamma 90.000000
_cell_volume 1848.436795
_symmetry_space_group_name_H-M "I -4 2 D"
_symmetry_group_IT_number 122
_symmetry_cell_setting 'tetragonal'
loop_
_space_group_symop_operation_xyz
x,y,z
y,-x,-z
-x,-y,z
-y,x,-z
x,1/2-y,1/4-z
-x,1/2+y,1/4-z
-y,1/2-x,1/4+z
y,1/2+x,1/4+z
1/2+x,1/2+y,1/2+z
1/2+y,1/2-x,1/2-z
1/2-x,1/2-y,1/2+z
1/2-y,1/2+x,1/2-z
1/2+x,-y,3/4-z
1/2-x,y,3/4-z
1/2-y,-x,3/4+z
1/2+y,x,3/4+z
loop_
_atom_site_type_symbol
_atom_site_label
_atom_site_fract_x
_atom_site_fract_y
_atom_site_fract_z
Si Si1 0.250000 0.703406 0.875000
Si Si2 0.100253 0.539131 0.718074
Si Si3 0.415196 0.182276 0.795285
O O1 0.219788 0.750000 0.625000
O O2 0.302027 0.654953 0.708044
O O3 0.076068 0.464243 0.643800
O O4 0.125434 0.580733 0.446130
O O5 0.159007 0.536454 0.951391
O O6 0.433152 0.250000 0.625000
#
# Coordination Sequence:
#
# PCOD9561431 Si02
#       3
#     8  16  16
#     4  12  22  42  70  96 134 188 218 262 358 398
#     4  11  24  44  70  99 134 183 227 272 342 404
#     4  12  22  44  69  94 138 177 218 293 328 393
#
# _framework density 21.639904999999999
#
# number of rings (size 3 to 8) (size 9 to 14) (size 15 to 20)
#    0.000    0.400    6.000    2.400    0.000    3.200 
#    0.000   20.000    0.000    0.000    0.000    0.000 
#    0.000    0.000    0.000    0.000    0.000    0.000 
#
# Total GULP energy -111604.418659 kJ/mol
# GULP energy per Si atom -5580.220933 kJ/mol
# Density = 2.159065 g / cm^3
# Si number density = 21.639905 Si / 1000 Ang^3
#
#
#
# Elastic Constant Matrix: (Units=GPa)
#
#
# Indices 1 2 3 4 5 6 
#
# 1 76.4830 46.0731 48.6888 0.0000 0.0000 0.0000
# 2 46.0731 76.4830 48.6888 0.0000 0.0000 0.0000
# 3 48.6888 48.6888 153.9563 0.0000 0.0000 0.0000
# 4 0.0000 0.0000 0.0000 42.5800 0.0000 0.0000
# 5 0.0000 0.0000 0.0000 0.0000 42.5800 0.0000
# 6 0.0000 0.0000 0.0000 0.0000 0.0000 20.3776
#
#
#
# Elastic Compliance Matrix: (Units=1/GPa)
#
#
# Indices 1 2 3 4 5 6 
#
# 1 0.021891 -0.010993 -0.003446 0.000000 0.000000 0.000000
# 2 -0.010993 0.021891 -0.003446 0.000000 0.000000 0.000000
# 3 -0.003446 -0.003446 0.008675 0.000000 0.000000 0.000000
# 4 0.000000 0.000000 0.000000 0.023485 0.000000 0.000000
# 5 0.000000 0.000000 0.000000 0.000000 0.023485 0.000000
# 6 0.000000 0.000000 0.000000 0.000000 0.000000 0.049073
#
#
# Mechanical properties :
#
#
# Convention : Reuss Voigt Hill
#
# Bulk Modulus (GPa) = 59.93327 65.98040 62.95683
# Shear Modulus (GPa) = 26.33867 32.00563 29.17215
#
# Velocity S-wave (km/s) = 3.49253 3.84996 3.67559
# Velocity P-wave (km/s) = 6.63472 7.09361 6.86800
#
# Compressibility (1/GPa) = 0.01668522
#
# Stress axis : x y z
#
# Youngs Moduli (GPa) = 45.68084 45.68084 115.27033
#
# Poissons Ratio (x) = 0.50217 0.39728
# Poissons Ratio (y) = 0.50217 0.39728
# Poissons Ratio (z) = 0.15744 0.15744
#
# Static dielectric constant tensor:
#      x y z
#    x 1.790320 0.000000 0.000000 
#    y 0.000000 1.790320 0.000000 
#    z 0.000000 0.000000 1.803460 
# 
# From -- ./inp_files/437.got.cif
#   From: 2010.05.17/outbox.cif.g08.bks.cpg/sg122_1_cif.got.tgz:437.got - 2010.05.20 11:37:33.
