data_PCOD9561329
_publ_section_title
;
Structure prediction by ZEFSAII (Michael W. Deem and Ramdas Pophale) SiO2 
 PCOD9561329
Probable space group: I -4 2 D
;
_chemical_formula_sum "Si O2"
_cell_formula_units_Z 80
_cell_length_a 13.999540
_cell_length_b 13.999540
_cell_length_c 21.315566
_cell_angle_alpha 90.000000
_cell_angle_beta 90.000000
_cell_angle_gamma 90.000000
_cell_volume 4177.576396
_symmetry_space_group_name_H-M "I -4 2 D"
_symmetry_group_IT_number 122
_symmetry_cell_setting 'tetragonal'
loop_
_space_group_symop_operation_xyz
x,y,z
y,-x,-z
-x,-y,z
-y,x,-z
x,1/2-y,1/4-z
-x,1/2+y,1/4-z
-y,1/2-x,1/4+z
y,1/2+x,1/4+z
1/2+x,1/2+y,1/2+z
1/2+y,1/2-x,1/2-z
1/2-x,1/2-y,1/2+z
1/2-y,1/2+x,1/2-z
1/2+x,-y,3/4-z
1/2-x,y,3/4-z
1/2-y,-x,3/4+z
1/2+y,x,3/4+z
loop_
_atom_site_type_symbol
_atom_site_label
_atom_site_fract_x
_atom_site_fract_y
_atom_site_fract_z
Si Si1 0.814935 0.659508 0.438442
Si Si2 0.082878 0.920196 0.912565
Si Si3 0.018105 0.260239 0.262887
Si Si4 0.891625 0.977741 0.215676
Si Si5 0.155317 0.708144 0.555620
O O1 0.750000 0.649478 0.375000
O O2 0.795215 0.569853 0.482524
O O3 0.780490 0.760810 0.466875
O O4 0.928475 0.650856 0.431609
O O5 0.171166 0.943154 0.957250
O O6 0.101573 0.909154 0.838686
O O7 0.000000 0.000000 0.918997
O O8 0.034248 0.825970 0.937310
O O9 0.103763 0.205569 0.297781
O O10 0.814429 0.938440 0.264832
O O11 0.000000 0.000000 0.240250
O O12 0.133158 0.750000 0.625000
#
# Coordination Sequence:
#
# PCOD9561329 Si02
#       5
#    16  16  16  16  16
#     4  11  22  40  67  97 133 176 219 277 346 404
#     4  11  19  32  56  96 140 170 209 266 338 421
#     4  12  19  34  60  97 137 174 210 266 344 407
#     4  11  23  40  65  95 133 178 225 277 334 403
#     4  11  24  42  63  87 133 185 229 270 324 390
#
# _framework density 19.14986
#
# number of rings (size 3 to 8) (size 9 to 14) (size 15 to 20)
#    0.000    0.800    6.000    4.800    0.000    0.000 
#    0.000    2.000    0.000    0.000    0.000    0.000 
#    0.000    0.000    0.000    0.000    0.000    0.000 
#
# Total GULP energy -222851.315903 kJ/mol
# GULP energy per Si atom -5571.282898 kJ/mol
# Density = 1.910627 g / cm^3
# Si number density = 19.149860 Si / 1000 Ang^3
#
#
#
# Elastic Constant Matrix: (Units=GPa)
#
#
# Indices 1 2 3 4 5 6 
#
# 1 89.3288 25.0345 45.3412 0.0000 0.0000 0.0000
# 2 25.0345 89.3288 45.3412 0.0000 0.0000 0.0000
# 3 45.3412 45.3412 111.2232 0.0000 0.0000 0.0000
# 4 0.0000 0.0000 0.0000 50.2135 0.0000 0.0000
# 5 0.0000 0.0000 0.0000 0.0000 50.2135 0.0000
# 6 0.0000 0.0000 0.0000 0.0000 0.0000 32.2935
#
#
#
# Elastic Compliance Matrix: (Units=1/GPa)
#
#
# Indices 1 2 3 4 5 6 
#
# 1 0.014237 -0.001316 -0.005267 0.000000 0.000000 0.000000
# 2 -0.001316 0.014237 -0.005267 0.000000 0.000000 0.000000
# 3 -0.005267 -0.005267 0.013285 0.000000 0.000000 0.000000
# 4 0.000000 0.000000 0.000000 0.019915 0.000000 0.000000
# 5 0.000000 0.000000 0.000000 0.000000 0.019915 0.000000
# 6 0.000000 0.000000 0.000000 0.000000 0.000000 0.030966
#
#
# Mechanical properties :
#
#
# Convention : Reuss Voigt Hill
#
# Bulk Modulus (GPa) = 55.37785 57.92385 56.65085
# Shear Modulus (GPa) = 35.14286 38.15501 36.64893
#
# Velocity S-wave (km/s) = 4.28851 4.46852 4.37944
# Velocity P-wave (km/s) = 7.31455 7.54566 7.43100
#
# Compressibility (1/GPa) = 0.01805776
#
# Stress axis : x y z
#
# Youngs Moduli (GPa) = 70.23927 70.23927 75.27064
#
# Poissons Ratio (x) = 0.09247 0.39647
# Poissons Ratio (y) = 0.09247 0.39647
# Poissons Ratio (z) = 0.36997 0.36997
#
# Static dielectric constant tensor:
#      x y z
#    x 1.712260 0.000000 0.000000 
#    y 0.000000 1.712260 0.000000 
#    z 0.000000 0.000000 1.722050 
# 
# From -- ./inp_files/7078.got.cif
#   From: 2010.05.17/outbox.cif.g08.bks.cpg/sg122_4_cif.got.tgz:7078.got - 2010.05.20 11:37:33.
