data_PCOD9561936
_publ_section_title
;
Structure prediction by ZEFSAII (Michael W. Deem and Ramdas Pophale) SiO2 
 PCOD9561936
Probable space group: P 4/M M M
;
_chemical_formula_sum "Si O2"
_cell_formula_units_Z 104
_cell_length_a 26.974530
_cell_length_b 26.974530
_cell_length_c 8.532345
_cell_angle_alpha 90.000000
_cell_angle_beta 90.000000
_cell_angle_gamma 90.000000
_cell_volume 6208.349823
_symmetry_space_group_name_H-M "P 4/M M M"
_symmetry_group_IT_number 123
_symmetry_cell_setting 'tetragonal'
loop_
_space_group_symop_operation_xyz
x,y,z
-y,x,z
-x,-y,z
y,-x,z
x,-y,-z
-x,y,-z
y,x,-z
-y,-x,-z
-x,-y,-z
y,-x,-z
x,y,-z
-y,x,-z
-x,y,z
x,-y,z
-y,-x,z
y,x,z
loop_
_atom_site_type_symbol
_atom_site_label
_atom_site_fract_x
_atom_site_fract_y
_atom_site_fract_z
Si Si1 0.441294 0.000000 0.185159
Si Si2 0.445053 0.366270 0.691100
Si Si3 0.739822 0.945268 0.313837
Si Si4 0.163399 0.755939 0.810595
Si Si5 0.444569 0.748087 0.311263
Si Si6 0.916197 0.373407 0.316382
Si Si7 0.354422 0.188040 0.817186
O O1 0.416412 0.952838 0.266154
O O2 0.500000 0.000000 0.203772
O O3 0.429434 0.000000 0.000000
O O4 0.443576 0.366408 0.500000
O O5 0.500000 0.383593 0.736836
O O6 0.402049 0.402049 0.748764
O O7 0.439550 0.309200 0.739081
O O8 0.749613 0.943871 0.500000
O O9 0.760211 0.893984 0.242061
O O10 0.680245 0.941644 0.293585
O O11 0.756047 0.000000 0.254546
O O12 0.199014 0.800987 0.759926
O O13 0.185666 0.702574 0.754948
O O14 0.163478 0.754486 0.000000
O O15 0.445417 0.749411 0.500000
O O16 0.500000 0.765717 0.258787
O O17 0.396059 0.777268 0.257586
O O18 0.902795 0.377315 0.500000
O O19 0.867521 0.373515 0.211471
O O20 0.351488 0.200091 0.000000
#
# Coordination Sequence:
#
# PCOD9561936 Si02
#       7
#     8  16  16  16  16  16  16
#     4  11  23  35  47  67  95 123 155 201 250 293
#     4   8  14  25  42  65  91 116 144 182 229 283
#     4   9  17  31  51  75  99 125 162 204 241 283
#     4   9  19  34  49  71 104 135 164 201 245 294
#     4   9  18  32  47  64  89 121 156 195 239 291
#     4  10  19  34  52  69  91 121 158 200 243 291
#     4  10  20  33  50  71  93 124 162 203 248 290
#
# _framework density 16.751632000000001
#
# number of rings (size 3 to 8) (size 9 to 14) (size 15 to 20)
#    0.000    2.692    0.769    2.077    0.000    4.154 
#    0.000    0.769    0.000    0.000    0.000    0.000 
#    0.000    0.308    0.000    6.769    0.000    5.846 
#
# Total GULP energy -579176.905451 kJ/mol
# GULP energy per Si atom -5569.008706 kJ/mol
# Density = 1.671350 g / cm^3
# Si number density = 16.751632 Si / 1000 Ang^3
#
#
#
# Elastic Constant Matrix: (Units=GPa)
#
#
# Indices 1 2 3 4 5 6 
#
# 1 94.4732 67.4697 16.4755 0.0000 0.0000 0.0000
# 2 67.4697 94.4732 16.4755 0.0000 0.0000 0.0000
# 3 16.4755 16.4755 12.8089 0.0000 0.0000 0.0000
# 4 0.0000 0.0000 0.0000 16.2199 0.0000 0.0000
# 5 0.0000 0.0000 0.0000 0.0000 16.2199 0.0000
# 6 0.0000 0.0000 0.0000 0.0000 0.0000 216.6869
#
#
#
# Elastic Compliance Matrix: (Units=1/GPa)
#
#
# Indices 1 2 3 4 5 6 
#
# 1 0.022698 -0.014334 -0.010758 0.000000 0.000000 0.000000
# 2 -0.014334 0.022698 -0.010758 0.000000 0.000000 0.000000
# 3 -0.010758 -0.010758 0.105746 0.000000 0.000000 0.000000
# 4 0.000000 0.000000 0.000000 0.061653 0.000000 0.000000
# 5 0.000000 0.000000 0.000000 0.000000 0.061653 0.000000
# 6 0.000000 0.000000 0.000000 0.000000 0.000000 0.004615
#
#
# Mechanical properties :
#
#
# Convention : Reuss Voigt Hill
#
# Bulk Modulus (GPa) = 12.58790 44.73298 28.66044
# Shear Modulus (GPa) = 13.25401 56.58099 34.91750
#
# Velocity S-wave (km/s) = 2.81589 5.81805 4.57050
# Velocity P-wave (km/s) = 4.25477 8.47907 6.70812
#
# Compressibility (1/GPa) = 0.07944138
#
# Stress axis : x y z
#
# Youngs Moduli (GPa) = 44.05647 44.05647 9.45660
#
# Poissons Ratio (x) = 0.63151 0.10174
# Poissons Ratio (y) = 0.63151 0.10174
# Poissons Ratio (z) = 0.47397 0.47397
#
# Static dielectric constant tensor:
#      x y z
#    x 1.436640 0.000000 0.000000 
#    y 0.000000 1.436640 0.000000 
#    z 0.000000 0.000000 1.583290 
# 
# From -- ./inp_files/1913.got.cif
#   From: 2010.05.17/outbox.cif.g08.bks.cpg/sg123_1_cif.got.tgz:1913.got - 2010.05.20 11:43:04.
