data_PCOD9561188
_publ_section_title
;
Structure prediction by ZEFSAII (Michael W. Deem and Ramdas Pophale) SiO2 
 PCOD9561188
Probable space group: I -4 2 D
;
_chemical_formula_sum "Si O2"
_cell_formula_units_Z 48
_cell_length_a 8.438076
_cell_length_b 8.438076
_cell_length_c 25.676923
_cell_angle_alpha 90.000000
_cell_angle_beta 90.000000
_cell_angle_gamma 90.000000
_cell_volume 1828.225845
_symmetry_space_group_name_H-M "I -4 2 D"
_symmetry_group_IT_number 122
_symmetry_cell_setting 'tetragonal'
loop_
_space_group_symop_operation_xyz
x,y,z
y,-x,-z
-x,-y,z
-y,x,-z
x,1/2-y,1/4-z
-x,1/2+y,1/4-z
-y,1/2-x,1/4+z
y,1/2+x,1/4+z
1/2+x,1/2+y,1/2+z
1/2+y,1/2-x,1/2-z
1/2-x,1/2-y,1/2+z
1/2-y,1/2+x,1/2-z
1/2+x,-y,3/4-z
1/2-x,y,3/4-z
1/2-y,-x,3/4+z
1/2+y,x,3/4+z
loop_
_atom_site_type_symbol
_atom_site_label
_atom_site_fract_x
_atom_site_fract_y
_atom_site_fract_z
Si Si1 0.496923 0.168248 0.048959
Si Si2 0.090697 0.684988 0.349118
Si Si3 0.500000 0.000000 0.750000
Si Si4 0.272654 0.750000 0.625000
Si Si5 0.000000 0.000000 0.500000
O O1 0.373227 0.113530 0.093298
O O2 0.663427 0.219194 0.074345
O O3 0.438857 0.336528 0.026603
O O4 0.500000 0.000000 0.016809
O O5 0.250000 0.624577 0.375000
O O6 0.080499 0.620549 0.290065
O O7 0.925016 0.651951 0.378038
#
# Coordination Sequence:
#
# PCOD9561188 Si02
#       5
#    16  16   4   8   4
#     4  10  23  42  70 106 143 197 264 325 396 490
#     4  11  25  50  77 109 162 209 272 350 409 493
#     4  12  32  48  72 124 158 224 284 328 448 506
#     4  10  22  48  76 106 148 204 270 342 410 484
#     4  12  24  40  72 108 146 200 252 320 412 460
#
# _framework density 26.254958999999999
#
# number of rings (size 3 to 8) (size 9 to 14) (size 15 to 20)
#    0.000    1.333    1.667    2.000   14.000    0.000 
#    0.000    0.000    0.000    0.000    0.000    0.000 
#    0.000    0.000    0.000    0.000    0.000    0.000 
#
# Total GULP energy -133846.424831 kJ/mol
# GULP energy per Si atom -5576.934368 kJ/mol
# Density = 2.619520 g / cm^3
# Si number density = 26.254959 Si / 1000 Ang^3
#
#
#
# Elastic Constant Matrix: (Units=GPa)
#
#
# Indices 1 2 3 4 5 6 
#
# 1 206.8311 92.7134 54.5324 0.0000 0.0000 0.0000
# 2 92.7134 206.8311 54.5324 0.0000 0.0000 0.0000
# 3 54.5324 54.5324 78.8688 0.0000 0.0000 0.0000
# 4 0.0000 0.0000 0.0000 46.0421 0.0000 0.0000
# 5 0.0000 0.0000 0.0000 0.0000 46.0421 0.0000
# 6 0.0000 0.0000 0.0000 0.0000 0.0000 60.8675
#
#
#
# Elastic Compliance Matrix: (Units=1/GPa)
#
#
# Indices 1 2 3 4 5 6 
#
# 1 0.006612 -0.002151 -0.003085 0.000000 0.000000 0.000000
# 2 -0.002151 0.006612 -0.003085 0.000000 0.000000 0.000000
# 3 -0.003085 -0.003085 0.016945 0.000000 0.000000 0.000000
# 4 0.000000 0.000000 0.000000 0.021719 0.000000 0.000000
# 5 0.000000 0.000000 0.000000 0.000000 0.021719 0.000000
# 6 0.000000 0.000000 0.000000 0.000000 0.000000 0.016429
#
#
# Mechanical properties :
#
#
# Convention : Reuss Voigt Hill
#
# Bulk Modulus (GPa) = 73.91581 99.56528 86.74054
# Shear Modulus (GPa) = 44.96888 49.97385 47.47136
#
# Velocity S-wave (km/s) = 4.14306 4.36754 4.25678
# Velocity P-wave (km/s) = 7.14848 7.96484 7.56768
#
# Compressibility (1/GPa) = 0.01352891
#
# Stress axis : x y z
#
# Youngs Moduli (GPa) = 151.23436 151.23437 59.01341
#
# Poissons Ratio (x) = 0.32525 0.18205
# Poissons Ratio (y) = 0.32525 0.18205
# Poissons Ratio (z) = 0.46654 0.46654
#
# Static dielectric constant tensor:
#      x y z
#    x 2.150990 0.000000 0.000000 
#    y 0.000000 2.150990 0.000000 
#    z 0.000000 0.000000 2.072080 
# 
# From -- ./inp_files/9162.got.cif
#   From: 2010.05.17/outbox.cif.g08.bks.cpg/sg122_5_cif.got.tgz:9162.got - 2010.05.20 11:37:33.
