data_PCOD9561082
_publ_section_title
;
Structure prediction by ZEFSAII (Michael W. Deem and Ramdas Pophale) SiO2 
 PCOD9561082
Probable space group: I -4 2 D
;
_chemical_formula_sum "Si O2"
_cell_formula_units_Z 80
_cell_length_a 12.044392
_cell_length_b 12.044392
_cell_length_c 25.956534
_cell_angle_alpha 90.000000
_cell_angle_beta 90.000000
_cell_angle_gamma 90.000000
_cell_volume 3765.446346
_symmetry_space_group_name_H-M "I -4 2 D"
_symmetry_group_IT_number 122
_symmetry_cell_setting 'tetragonal'
loop_
_space_group_symop_operation_xyz
x,y,z
y,-x,-z
-x,-y,z
-y,x,-z
x,1/2-y,1/4-z
-x,1/2+y,1/4-z
-y,1/2-x,1/4+z
y,1/2+x,1/4+z
1/2+x,1/2+y,1/2+z
1/2+y,1/2-x,1/2-z
1/2-x,1/2-y,1/2+z
1/2-y,1/2+x,1/2-z
1/2+x,-y,3/4-z
1/2-x,y,3/4-z
1/2-y,-x,3/4+z
1/2+y,x,3/4+z
loop_
_atom_site_type_symbol
_atom_site_label
_atom_site_fract_x
_atom_site_fract_y
_atom_site_fract_z
Si Si1 0.151667 0.205661 0.206825
Si Si2 0.526342 0.824134 0.080306
Si Si3 0.328001 0.530742 0.183805
Si Si4 0.068385 0.888509 0.894143
Si Si5 0.076024 0.847207 0.500822
O O1 0.085701 0.195463 0.260627
O O2 0.109648 0.119384 0.163341
O O3 0.132603 0.327247 0.182572
O O4 0.278775 0.167912 0.219119
O O5 0.577573 0.750000 0.125000
O O6 0.418377 0.895809 0.096571
O O7 0.612549 0.912080 0.058121
O O8 0.473359 0.739048 0.040864
O O9 0.216099 0.511926 0.152511
O O10 0.000000 0.000000 0.905091
O O11 0.960581 0.881068 0.472908
#
# Coordination Sequence:
#
# PCOD9561082 Si02
#       5
#    16  16  16  16  16
#     4  10  25  46  64 102 135 183 236 293 354 418
#     4  10  23  41  64 100 128 177 223 276 354 418
#     4  10  24  43  68  94 138 178 227 295 345 419
#     4  11  26  45  70  97 136 189 240 290 349 430
#     4  10  22  38  66  98 133 172 218 289 354 423
#
# _framework density 21.245820999999999
#
# number of rings (size 3 to 8) (size 9 to 14) (size 15 to 20)
#    0.000    1.800    0.000    1.200   16.800    1.600 
#    3.600    0.000    0.000    0.000    0.000    0.000 
#    0.000    0.000    0.000    0.000    0.000    0.000 
#
# Total GULP energy -223239.401985 kJ/mol
# GULP energy per Si atom -5580.985050 kJ/mol
# Density = 2.119746 g / cm^3
# Si number density = 21.245821 Si / 1000 Ang^3
#
#
#
# Elastic Constant Matrix: (Units=GPa)
#
#
# Indices 1 2 3 4 5 6 
#
# 1 112.2870 44.8199 7.3873 0.0000 0.0000 0.0000
# 2 44.8199 112.2870 7.3873 0.0000 0.0000 0.0000
# 3 7.3873 7.3873 40.2377 0.0000 0.0000 0.0000
# 4 0.0000 0.0000 0.0000 3.5378 0.0000 0.0000
# 5 0.0000 0.0000 0.0000 0.0000 3.5378 0.0000
# 6 0.0000 0.0000 0.0000 0.0000 0.0000 39.3213
#
#
#
# Elastic Compliance Matrix: (Units=1/GPa)
#
#
# Indices 1 2 3 4 5 6 
#
# 1 0.010649 -0.004173 -0.001189 0.000000 0.000000 0.000000
# 2 -0.004173 0.010649 -0.001189 0.000000 0.000000 0.000000
# 3 -0.001189 -0.001189 0.025289 0.000000 0.000000 0.000000
# 4 0.000000 0.000000 0.000000 0.282662 0.000000 0.000000
# 5 0.000000 0.000000 0.000000 0.000000 0.282662 0.000000
# 6 0.000000 0.000000 0.000000 0.000000 0.000000 0.025432
#
#
# Mechanical properties :
#
#
# Convention : Reuss Voigt Hill
#
# Bulk Modulus (GPa) = 29.86291 42.66672 36.26481
# Shear Modulus (GPa) = 7.55737 22.96052 15.25894
#
# Velocity S-wave (km/s) = 1.88808 3.29098 2.68285
# Velocity P-wave (km/s) = 4.34045 5.87935 5.16751
#
# Compressibility (1/GPa) = 0.03348636
#
# Stress axis : x y z
#
# Youngs Moduli (GPa) = 93.90131 93.90131 39.54299
#
# Poissons Ratio (x) = 0.39181 0.04702
# Poissons Ratio (y) = 0.39181 0.04702
# Poissons Ratio (z) = 0.11166 0.11166
#
# Static dielectric constant tensor:
#      x y z
#    x 1.807780 0.000000 0.000000 
#    y 0.000000 1.807780 0.000000 
#    z 0.000000 0.000000 1.769570 
# 
# From -- ./inp_files/9360.got.cif
#   From: 2010.05.17/outbox.cif.g08.bks.cpg/sg122_5_cif.got.tgz:9360.got - 2010.05.20 11:37:33.
