data_PCOD9561835
_publ_section_title
;
Structure prediction by ZEFSAII (Michael W. Deem and Ramdas Pophale) SiO2 
 PCOD9561835
Probable space group: P 4/M M M
;
_chemical_formula_sum "Si O2"
_cell_formula_units_Z 44
_cell_length_a 19.658025
_cell_length_b 19.658025
_cell_length_c 8.157305
_cell_angle_alpha 90.000000
_cell_angle_beta 90.000000
_cell_angle_gamma 90.000000
_cell_volume 3152.292196
_symmetry_space_group_name_H-M "P 4/M M M"
_symmetry_group_IT_number 123
_symmetry_cell_setting 'tetragonal'
loop_
_space_group_symop_operation_xyz
x,y,z
-y,x,z
-x,-y,z
y,-x,z
x,-y,-z
-x,y,-z
y,x,-z
-y,-x,-z
-x,-y,-z
y,-x,-z
x,y,-z
-y,x,-z
-x,y,z
x,-y,z
-y,-x,z
y,x,z
loop_
_atom_site_type_symbol
_atom_site_label
_atom_site_fract_x
_atom_site_fract_y
_atom_site_fract_z
Si Si1 0.425966 0.917981 0.805822
Si Si2 0.721670 0.080352 0.307080
Si Si3 0.147032 0.852969 0.817249
Si Si4 0.079932 0.920069 0.500000
O O1 0.500000 0.892626 0.746276
O O2 0.356183 0.896946 0.720596
O O3 0.427656 0.000000 0.788428
O O4 0.421094 0.903567 0.000000
O O5 0.737890 0.084291 0.500000
O O6 0.774394 0.126580 0.208422
O O7 0.727828 0.000000 0.258535
O O8 0.109839 0.890162 0.667169
O O9 0.125746 0.874255 0.000000
O O10 0.000000 0.906662 0.500000
#
# Coordination Sequence:
#
# PCOD9561835 Si02
#       4
#    16  16   8   4
#     4   8  14  25  41  62  86 109 135 167 204 252
#     4  10  19  31  46  63  85 110 140 180 220 261
#     4  12  23  35  51  66  84 112 144 181 229 275
#     4  11  24  40  52  64  82 102 138 190 234 275
#
# _framework density 13.958098
#
# number of rings (size 3 to 8) (size 9 to 14) (size 15 to 20)
#    0.000    2.273    1.818    3.273    0.000    5.091 
#    0.000    4.545    0.000    0.000    0.000    0.000 
#    0.000    0.000    0.000    0.000    0.000    0.909 
#
# Total GULP energy -245079.272758 kJ/mol
# GULP energy per Si atom -5569.983472 kJ/mol
# Density = 1.392633 g / cm^3
# Si number density = 13.958098 Si / 1000 Ang^3
#
#
#
# Elastic Constant Matrix: (Units=GPa)
#
#
# Indices 1 2 3 4 5 6 
#
# 1 83.4311 16.1724 29.0337 0.0000 0.0000 0.0000
# 2 16.1724 83.4312 29.0334 0.0000 0.0000 0.0000
# 3 29.0337 29.0334 64.4316 0.0000 0.0000 0.0000
# 4 0.0000 0.0000 0.0000 15.8185 0.0000 0.0000
# 5 0.0000 0.0000 0.0000 0.0000 15.8196 0.0000
# 6 0.0000 0.0000 0.0000 0.0000 0.0000 7.1681
#
#
#
# Elastic Compliance Matrix: (Units=1/GPa)
#
#
# Indices 1 2 3 4 5 6 
#
# 1 0.014242 -0.000625 -0.006136 0.000000 0.000000 0.000000
# 2 -0.000625 0.014242 -0.006136 0.000000 0.000000 0.000000
# 3 -0.006136 -0.006136 0.021050 0.000000 0.000000 0.000000
# 4 0.000000 0.000000 0.000000 0.063217 0.000000 0.000000
# 5 0.000000 0.000000 0.000000 0.000000 0.063213 0.000000
# 6 0.000000 0.000000 0.000000 0.000000 0.000000 0.139508
#
#
# Mechanical properties :
#
#
# Convention : Reuss Voigt Hill
#
# Bulk Modulus (GPa) = 42.12245 42.19699 42.15972
# Shear Modulus (GPa) = 14.31922 18.23153 16.27537
#
# Velocity S-wave (km/s) = 3.20640 3.61801 3.41840
# Velocity P-wave (km/s) = 6.62958 6.91015 6.77131
#
# Compressibility (1/GPa) = 0.02374031
#
# Stress axis : x y z
#
# Youngs Moduli (GPa) = 70.21243 70.21284 47.50549
#
# Poissons Ratio (x) = 0.04392 0.29149
# Poissons Ratio (y) = 0.04392 0.29149
# Poissons Ratio (z) = 0.43082 0.43082
#
# Static dielectric constant tensor:
#      x y z
#    x 1.476090 0.000000 0.000000 
#    y 0.000000 1.476090 0.000000 
#    z 0.000000 0.000000 1.484940 
# 
# From -- ./inp_files/484.got.cif
#   From: 2010.05.17/outbox.cif.g08.bks.cpg/sg123_1_cif.got.tgz:484.got - 2010.05.20 11:43:04.
