data_PCOD9561619
_publ_section_title
;
Structure prediction by ZEFSAII (Michael W. Deem and Ramdas Pophale) SiO2 
 PCOD9561619
Probable space group: P 4/M M M
;
_chemical_formula_sum "Si O2"
_cell_formula_units_Z 128
_cell_length_a 18.424647
_cell_length_b 18.424647
_cell_length_c 24.652065
_cell_angle_alpha 90.000000
_cell_angle_beta 90.000000
_cell_angle_gamma 90.000000
_cell_volume 8368.577762
_symmetry_space_group_name_H-M "P 4/M M M"
_symmetry_group_IT_number 123
_symmetry_cell_setting 'tetragonal'
loop_
_space_group_symop_operation_xyz
x,y,z
-y,x,z
-x,-y,z
y,-x,z
x,-y,-z
-x,y,-z
y,x,-z
-y,-x,-z
-x,-y,-z
y,-x,-z
x,y,-z
-y,x,-z
-x,y,z
x,-y,z
-y,-x,z
y,x,z
loop_
_atom_site_type_symbol
_atom_site_label
_atom_site_fract_x
_atom_site_fract_y
_atom_site_fract_z
Si Si1 0.585493 0.298331 0.237324
Si Si2 0.087584 0.797536 0.674141
Si Si3 0.726126 0.912501 0.440398
Si Si4 0.416712 0.914978 0.173337
Si Si5 0.653159 0.845513 0.723417
Si Si6 0.416215 0.702435 0.107995
Si Si7 0.912379 0.581743 0.381717
Si Si8 0.587434 0.141864 0.059441
O O1 0.500000 0.296535 0.251436
O O2 0.623602 0.376399 0.244805
O O3 0.632221 0.238809 0.270021
O O4 0.590827 0.281283 0.172584
O O5 0.125782 0.874219 0.686016
O O6 0.102446 0.777023 0.610995
O O7 0.129157 0.734082 0.707389
O O8 0.000000 0.795279 0.682766
O O9 0.746705 0.884640 0.500000
O O10 0.644721 0.889366 0.423326
O O11 0.724509 0.000000 0.443668
O O12 0.500000 0.885699 0.176981
O O13 0.368440 0.878974 0.218964
O O14 0.388761 0.901820 0.112438
O O15 0.419881 0.000000 0.183876
O O16 0.602539 0.879534 0.676461
O O17 0.500000 0.682833 0.098393
O O18 0.362306 0.637695 0.094670
O O19 0.399104 0.774149 0.073749
O O20 0.892727 0.500000 0.397596
O O21 0.000000 0.585392 0.377062
O O22 0.500000 0.132234 0.057343
O O23 0.616267 0.122154 0.000000
#
# Coordination Sequence:
#
# PCOD9561619 Si02
#       8
#    16  16  16  16  16  16  16  16
#     4  10  19  30  46  66  90 121 154 189 227 268
#     4  10  21  35  51  71  94 121 154 193 236 284
#     4   8  15  28  44  63  89 120 154 192 231 269
#     4  10  18  27  43  65  88 117 149 183 225 272
#     4  11  18  30  47  67  93 119 151 191 233 277
#     4   9  17  29  43  60  81 108 144 184 226 268
#     4   9  16  24  38  63  93 125 157 190 229 273
#     4   9  17  29  42  57  81 111 144 184 227 271
#
# _framework density 15.295311999999999
#
# number of rings (size 3 to 8) (size 9 to 14) (size 15 to 20)
#    0.000    2.500    1.250    3.375    0.000    2.375 
#    0.000    3.750    0.000    0.000    0.000    3.500 
#    0.000    0.000    0.000    0.000    0.000    2.375 
#
# Total GULP energy -712688.658542 kJ/mol
# GULP energy per Si atom -5567.880145 kJ/mol
# Density = 1.526050 g / cm^3
# Si number density = 15.295312 Si / 1000 Ang^3
#
#
#
# Elastic Constant Matrix: (Units=GPa)
#
#
# Indices 1 2 3 4 5 6 
#
# 1 47.0981 31.1834 20.6767 0.0000 0.0000 0.0000
# 2 31.1834 47.0981 20.6767 0.0000 0.0000 0.0000
# 3 20.6767 20.6767 69.8554 0.0000 0.0000 0.0000
# 4 0.0000 0.0000 0.0000 20.9175 0.0000 0.0000
# 5 0.0000 0.0000 0.0000 0.0000 20.9175 0.0000
# 6 0.0000 0.0000 0.0000 0.0000 0.0000 21.4517
#
#
#
# Elastic Compliance Matrix: (Units=1/GPa)
#
#
# Indices 1 2 3 4 5 6 
#
# 1 0.038988 -0.023846 -0.004482 0.000000 0.000000 0.000000
# 2 -0.023846 0.038988 -0.004482 0.000000 0.000000 0.000000
# 3 -0.004482 -0.004482 0.016969 0.000000 0.000000 0.000000
# 4 0.000000 0.000000 0.000000 0.047807 0.000000 0.000000
# 5 0.000000 0.000000 0.000000 0.000000 0.047807 0.000000
# 6 0.000000 0.000000 0.000000 0.000000 0.000000 0.046616
#
#
# Mechanical properties :
#
#
# Convention : Reuss Voigt Hill
#
# Bulk Modulus (GPa) = 34.10073 34.34724 34.22399
# Shear Modulus (GPa) = 15.99636 18.75835 17.37735
#
# Velocity S-wave (km/s) = 3.23744 3.50582 3.37430
# Velocity P-wave (km/s) = 6.02644 6.23638 6.13231
#
# Compressibility (1/GPa) = 0.02932489
#
# Stress axis : x y z
#
# Youngs Moduli (GPa) = 25.64859 25.64859 58.93267
#
# Poissons Ratio (x) = 0.61163 0.26413
# Poissons Ratio (y) = 0.61163 0.26413
# Poissons Ratio (z) = 0.11496 0.11496
#
# Static dielectric constant tensor:
#      x y z
#    x 1.513850 0.000000 0.000000 
#    y 0.000000 1.513850 0.000000 
#    z 0.000000 0.000000 1.519010 
# 
# From -- ./inp_files/7641.got.cif
#   From: 2010.05.17/outbox.cif.g08.bks.cpg/sg123_4_cif.got.tgz:7641.got - 2010.05.20 11:43:04.
