data_PCOD9561980
_publ_section_title
;
Structure prediction by ZEFSAII (Michael W. Deem and Ramdas Pophale) SiO2 
 PCOD9561980
Probable space group: P 4/M M M
;
_chemical_formula_sum "Si O2"
_cell_formula_units_Z 80
_cell_length_a 13.828820
_cell_length_b 13.828820
_cell_length_c 26.410244
_cell_angle_alpha 90.000000
_cell_angle_beta 90.000000
_cell_angle_gamma 90.000000
_cell_volume 5050.596357
_symmetry_space_group_name_H-M "P 4/M M M"
_symmetry_group_IT_number 123
_symmetry_cell_setting 'tetragonal'
loop_
_space_group_symop_operation_xyz
x,y,z
-y,x,z
-x,-y,z
y,-x,z
x,-y,-z
-x,y,-z
y,x,-z
-y,-x,-z
-x,-y,-z
y,-x,-z
x,y,-z
-y,x,-z
-x,y,z
x,-y,z
-y,-x,z
y,x,z
loop_
_atom_site_type_symbol
_atom_site_label
_atom_site_fract_x
_atom_site_fract_y
_atom_site_fract_z
Si Si1 0.615811 0.226906 0.156764
Si Si2 0.390830 0.882837 0.344453
Si Si3 0.115626 0.726260 0.756301
Si Si4 0.111253 0.382679 0.056636
Si Si5 0.885495 0.726437 0.557264
O O1 0.500000 0.236260 0.159430
O O2 0.672353 0.327648 0.163089
O O3 0.655318 0.154774 0.199920
O O4 0.644127 0.180547 0.102554
O O5 0.500000 0.846457 0.337645
O O6 0.322442 0.857661 0.297485
O O7 0.345793 0.854319 0.398327
O O8 0.395253 0.000000 0.344740
O O9 0.173377 0.826624 0.761379
O O10 0.000000 0.737212 0.759119
O O11 0.110086 0.500000 0.055958
O O12 0.000000 0.351725 0.065637
O O13 0.140279 0.350730 0.000000
O O14 0.870372 0.688415 0.500000
O O15 0.824109 0.824109 0.562113
O O16 0.000000 0.745184 0.563003
#
# Coordination Sequence:
#
# PCOD9561980 Si02
#       5
#    16  16  16  16  16
#     4  10  20  32  47  68  94 126 164 203 241 282
#     4   9  17  29  45  64  87 117 151 185 222 266
#     4  10  20  33  50  72  96 122 153 189 232 284
#     4   8  14  26  45  67  89 115 150 193 239 284
#     4   9  17  28  42  62  89 120 153 189 230 278
#
# _framework density 15.839715
#
# number of rings (size 3 to 8) (size 9 to 14) (size 15 to 20)
#    0.000    2.800    0.000    2.400    0.000    3.400 
#    0.000    3.000    0.000    3.600    0.000    2.800 
#    0.000    3.600    0.000   27.400    0.000    1.800 
#
# Total GULP energy -445446.875966 kJ/mol
# GULP energy per Si atom -5568.085950 kJ/mol
# Density = 1.580366 g / cm^3
# Si number density = 15.839715 Si / 1000 Ang^3
#
#
#
# Elastic Constant Matrix: (Units=GPa)
#
#
# Indices 1 2 3 4 5 6 
#
# 1 73.7023 42.5116 45.0118 0.0000 0.0000 0.0000
# 2 42.5116 73.7023 45.0118 0.0000 0.0000 0.0000
# 3 45.0118 45.0118 111.7209 0.0000 0.0000 0.0000
# 4 0.0000 0.0000 0.0000 21.4053 0.0000 0.0000
# 5 0.0000 0.0000 0.0000 0.0000 21.4053 0.0000
# 6 0.0000 0.0000 0.0000 0.0000 0.0000 7.0013
#
#
#
# Elastic Compliance Matrix: (Units=1/GPa)
#
#
# Indices 1 2 3 4 5 6 
#
# 1 0.022285 -0.009776 -0.005040 0.000000 0.000000 0.000000
# 2 -0.009776 0.022285 -0.005040 0.000000 0.000000 0.000000
# 3 -0.005040 -0.005040 0.013012 0.000000 0.000000 0.000000
# 4 0.000000 0.000000 0.000000 0.046717 0.000000 0.000000
# 5 0.000000 0.000000 0.000000 0.000000 0.046717 0.000000
# 6 0.000000 0.000000 0.000000 0.000000 0.000000 0.142831
#
#
# Mechanical properties :
#
#
# Convention : Reuss Voigt Hill
#
# Bulk Modulus (GPa) = 55.95814 58.24397 57.10106
# Shear Modulus (GPa) = 14.72687 18.40173 16.56430
#
# Velocity S-wave (km/s) = 3.05248 3.41214 3.23731
# Velocity P-wave (km/s) = 6.91577 7.23701 7.07821
#
# Compressibility (1/GPa) = 0.01787050
#
# Stress axis : x y z
#
# Youngs Moduli (GPa) = 44.87358 44.87358 76.85310
#
# Poissons Ratio (x) = 0.43869 0.38732
# Poissons Ratio (y) = 0.43869 0.38732
# Poissons Ratio (z) = 0.22615 0.22615
#
# Static dielectric constant tensor:
#      x y z
#    x 1.511200 0.000000 0.000000 
#    y 0.000000 1.511200 0.000000 
#    z 0.000000 0.000000 1.552750 
# 
# From -- ./inp_files/7107.got.cif
#   From: 2010.05.17/outbox.cif.g08.bks.cpg/sg123_4_cif.got.tgz:7107.got - 2010.05.20 11:43:04.
