data_PCOD9561900
_publ_section_title
;
Structure prediction by ZEFSAII (Michael W. Deem and Ramdas Pophale) SiO2 
 PCOD9561900
Probable space group: P 4/M M M
;
_chemical_formula_sum "Si O2"
_cell_formula_units_Z 120
_cell_length_a 18.903826
_cell_length_b 18.903826
_cell_length_c 21.413073
_cell_angle_alpha 90.000000
_cell_angle_beta 90.000000
_cell_angle_gamma 90.000000
_cell_volume 7652.060938
_symmetry_space_group_name_H-M "P 4/M M M"
_symmetry_group_IT_number 123
_symmetry_cell_setting 'tetragonal'
loop_
_space_group_symop_operation_xyz
x,y,z
-y,x,z
-x,-y,z
y,-x,z
x,-y,-z
-x,y,-z
y,x,-z
-y,-x,-z
-x,-y,-z
y,-x,-z
x,y,-z
-y,x,-z
-x,y,z
x,-y,z
-y,-x,z
y,x,z
loop_
_atom_site_type_symbol
_atom_site_label
_atom_site_fract_x
_atom_site_fract_y
_atom_site_fract_z
Si Si1 0.162114 0.580662 0.323107
Si Si2 0.920031 0.804733 0.247447
Si Si3 0.304768 0.419592 0.755623
Si Si4 0.080613 0.191600 0.602237
Si Si5 0.916862 0.355148 0.204066
Si Si6 0.192869 0.307465 0.429131
Si Si7 0.584503 0.790617 0.126886
Si Si8 0.706121 0.414458 0.000000
O O1 0.143867 0.500000 0.339703
O O2 0.240139 0.581323 0.292609
O O3 0.109950 0.607622 0.268202
O O4 0.168287 0.632285 0.381784
O O5 0.861370 0.861370 0.228559
O O6 0.915461 0.795979 0.322699
O O7 0.909234 0.728637 0.216270
O O8 0.000000 0.829237 0.233799
O O9 0.331186 0.500000 0.761148
O O10 0.365839 0.365839 0.738602
O O11 0.268338 0.398517 0.820958
O O12 0.115518 0.115518 0.590174
O O13 0.130613 0.249534 0.571600
O O14 0.000000 0.196311 0.582534
O O15 0.863467 0.379115 0.149182
O O16 0.000000 0.370724 0.192907
O O17 0.203912 0.332796 0.500000
O O18 0.263389 0.263389 0.409110
O O19 0.500000 0.803147 0.130357
O O20 0.600268 0.755270 0.060422
O O21 0.688795 0.500000 0.000000
O O22 0.636865 0.363136 0.000000
#
# Coordination Sequence:
#
# PCOD9561900 Si02
#       8
#    16  16  16  16  16  16  16   8
#     4  10  20  32  48  69  91 118 153 197 245 288
#     4   9  17  28  45  69  95 123 154 190 232 279
#     4   9  17  29  46  69  95 122 153 189 232 282
#     4   9  17  30  46  66  91 117 147 182 222 269
#     4  10  19  32  51  74  98 126 164 204 242 291
#     4  10  20  33  49  67  89 121 157 193 238 290
#     4   9  19  33  48  70  99 131 165 201 240 281
#     4  10  20  35  53  75 105 137 172 208 244 290
#
# _framework density 15.68205
#
# number of rings (size 3 to 8) (size 9 to 14) (size 15 to 20)
#    0.000    2.533    1.333    2.000    0.000    4.733 
#    0.000    1.667    0.000    3.600    0.000    3.733 
#    0.000    0.000    0.000   12.400    0.000   10.667 
#
# Total GULP energy -668551.536572 kJ/mol
# GULP energy per Si atom -5571.262805 kJ/mol
# Density = 1.564636 g / cm^3
# Si number density = 15.682050 Si / 1000 Ang^3
#
#
#
# Elastic Constant Matrix: (Units=GPa)
#
#
# Indices 1 2 3 4 5 6 
#
# 1 88.9478 54.7530 30.2921 0.0000 0.0000 0.0000
# 2 54.7530 88.9472 30.2920 0.0000 0.0000 0.0000
# 3 30.2921 30.2920 61.6921 0.0000 0.0000 0.0000
# 4 0.0000 0.0000 0.0000 3.7699 0.0000 0.0000
# 5 0.0000 0.0000 0.0000 0.0000 3.7703 0.0000
# 6 0.0000 0.0000 0.0000 0.0000 0.0000 22.5156
#
#
#
# Elastic Compliance Matrix: (Units=1/GPa)
#
#
# Indices 1 2 3 4 5 6 
#
# 1 0.019010 -0.010234 -0.004309 0.000000 0.000000 0.000000
# 2 -0.010234 0.019010 -0.004309 0.000000 0.000000 0.000000
# 3 -0.004309 -0.004309 0.020441 0.000000 0.000000 0.000000
# 4 0.000000 0.000000 0.000000 0.265259 0.000000 0.000000
# 5 0.000000 0.000000 0.000000 0.000000 0.265231 0.000000
# 6 0.000000 0.000000 0.000000 0.000000 0.000000 0.044414
#
#
# Mechanical properties :
#
#
# Convention : Reuss Voigt Hill
#
# Bulk Modulus (GPa) = 48.17803 52.25124 50.21464
# Shear Modulus (GPa) = 7.37476 14.29450 10.83463
#
# Velocity S-wave (km/s) = 2.17092 3.02241 2.63134
# Velocity P-wave (km/s) = 6.08870 6.75066 6.42821
#
# Compressibility (1/GPa) = 0.02075635
#
# Stress axis : x y z
#
# Youngs Moduli (GPa) = 52.60402 52.60367 48.92102
#
# Poissons Ratio (x) = 0.53837 0.21080
# Poissons Ratio (y) = 0.53837 0.21080
# Poissons Ratio (z) = 0.22667 0.22667
#
# Static dielectric constant tensor:
#      x y z
#    x 1.518790 0.000000 0.000000 
#    y 0.000000 1.518790 0.000000 
#    z 0.000000 0.000000 1.535850 
# 
# From -- ./inp_files/6772.got.cif
#   From: 2010.05.17/outbox.cif.g08.bks.cpg/sg123_4_cif.got.tgz:6772.got - 2010.05.20 11:43:04.
