data_PCOD9561783
_publ_section_title
;
Structure prediction by ZEFSAII (Michael W. Deem and Ramdas Pophale) SiO2 
 PCOD9561783
Probable space group: P 4/M M M
;
_chemical_formula_sum "Si O2"
_cell_formula_units_Z 96
_cell_length_a 13.974140
_cell_length_b 13.974140
_cell_length_c 31.346295
_cell_angle_alpha 90.000000
_cell_angle_beta 90.000000
_cell_angle_gamma 90.000000
_cell_volume 6121.197557
_symmetry_space_group_name_H-M "P 4/M M M"
_symmetry_group_IT_number 123
_symmetry_cell_setting 'tetragonal'
loop_
_space_group_symop_operation_xyz
x,y,z
-y,x,z
-x,-y,z
y,-x,z
x,-y,-z
-x,y,-z
y,x,-z
-y,-x,-z
-x,-y,-z
y,-x,-z
x,y,-z
-y,x,-z
-x,y,z
x,-y,z
-y,-x,z
y,x,z
loop_
_atom_site_type_symbol
_atom_site_label
_atom_site_fract_x
_atom_site_fract_y
_atom_site_fract_z
Si Si1 0.116104 0.608425 0.369859
Si Si2 0.611865 0.230855 0.050511
Si Si3 0.115053 0.729393 0.713589
Si Si4 0.113144 0.729245 0.451553
Si Si5 0.271873 0.885838 0.882026
Si Si6 0.609333 0.115917 0.797429
O O1 0.151443 0.500000 0.365465
O O2 0.142426 0.674090 0.329767
O O3 0.143375 0.655925 0.414762
O O4 0.000000 0.604470 0.369516
O O5 0.500000 0.239601 0.061359
O O6 0.671449 0.328552 0.058228
O O7 0.663513 0.150154 0.078578
O O8 0.619111 0.209675 0.000000
O O9 0.171431 0.828570 0.715899
O O10 0.142428 0.664061 0.754132
O O11 0.000000 0.742601 0.714043
O O12 0.127453 0.692733 0.500000
O O13 0.174787 0.825213 0.446991
O O14 0.000000 0.748604 0.446444
O O15 0.173130 0.826871 0.883172
O O16 0.329426 0.858228 0.839014
O O17 0.258165 0.000000 0.882737
O O18 0.500000 0.151514 0.798981
O O19 0.604546 0.000000 0.797321
#
# Coordination Sequence:
#
# PCOD9561783 Si02
#       6
#    16  16  16  16  16  16
#     4   9  17  29  44  61  83 113 148 186 227 264
#     4   9  18  32  50  73  99 126 158 197 242 291
#     4  10  19  30  45  66  93 123 153 184 219 264
#     4   9  17  28  42  62  89 119 148 177 210 254
#     4  10  20  33  49  70  97 128 162 199 237 280
#     4   9  17  30  48  68  90 118 152 189 229 270
#
# _framework density 15.683206
#
# number of rings (size 3 to 8) (size 9 to 14) (size 15 to 20)
#    0.000    2.667    0.000    2.000    0.000    4.333 
#    0.000    4.167    0.000    6.000    0.000    2.333 
#    0.000   26.333    0.000    7.333    0.000    0.667 
#
# Total GULP energy -534776.216315 kJ/mol
# GULP energy per Si atom -5570.585587 kJ/mol
# Density = 1.564751 g / cm^3
# Si number density = 15.683206 Si / 1000 Ang^3
#
#
#
# Elastic Constant Matrix: (Units=GPa)
#
#
# Indices 1 2 3 4 5 6 
#
# 1 85.4823 48.1876 51.0475 0.0000 0.0000 0.0000
# 2 48.1876 85.4823 51.0475 0.0000 0.0000 0.0000
# 3 51.0475 51.0475 94.4583 0.0000 0.0000 0.0000
# 4 0.0000 0.0000 0.0000 20.5356 0.0000 0.0000
# 5 0.0000 0.0000 0.0000 0.0000 20.5356 0.0000
# 6 0.0000 0.0000 0.0000 0.0000 0.0000 4.0830
#
#
#
# Elastic Compliance Matrix: (Units=1/GPa)
#
#
# Indices 1 2 3 4 5 6 
#
# 1 0.019777 -0.007037 -0.006885 0.000000 0.000000 0.000000
# 2 -0.007037 0.019777 -0.006885 0.000000 0.000000 0.000000
# 3 -0.006885 -0.006885 0.018028 0.000000 0.000000 0.000000
# 4 0.000000 0.000000 0.000000 0.048696 0.000000 0.000000
# 5 0.000000 0.000000 0.000000 0.000000 0.048696 0.000000
# 6 0.000000 0.000000 0.000000 0.000000 0.000000 0.244920
#
#
# Mechanical properties :
#
#
# Convention : Reuss Voigt Hill
#
# Bulk Modulus (GPa) = 62.62464 62.88757 62.75611
# Shear Modulus (GPa) = 11.18998 16.70686 13.94842
#
# Velocity S-wave (km/s) = 2.67404 3.26739 2.98549
# Velocity P-wave (km/s) = 7.03930 7.37700 7.21013
#
# Compressibility (1/GPa) = 0.01596816
#
# Stress axis : x y z
#
# Youngs Moduli (GPa) = 50.56501 50.56501 55.46901
#
# Poissons Ratio (x) = 0.35582 0.38189
# Poissons Ratio (y) = 0.35582 0.38189
# Poissons Ratio (z) = 0.34813 0.34813
#
# Static dielectric constant tensor:
#      x y z
#    x 1.504780 0.000000 0.000000 
#    y 0.000000 1.504780 0.000000 
#    z 0.000000 0.000000 1.536900 
# 
# From -- ./inp_files/8633.got.cif
#   From: 2010.05.17/outbox.cif.g08.bks.cpg/sg123_5_cif.got.tgz:8633.got - 2010.05.20 11:43:04.
