data_PCOD9561047
_publ_section_title
;
Structure prediction by ZEFSAII (Michael W. Deem and Ramdas Pophale) SiO2 
 PCOD9561047
Probable space group: I -4 2 D
;
_chemical_formula_sum "Si O2"
_cell_formula_units_Z 112
_cell_length_a 14.221718
_cell_length_b 14.221718
_cell_length_c 23.967970
_cell_angle_alpha 90.000000
_cell_angle_beta 90.000000
_cell_angle_gamma 90.000000
_cell_volume 4847.696009
_symmetry_space_group_name_H-M "I -4 2 D"
_symmetry_group_IT_number 122
_symmetry_cell_setting 'tetragonal'
loop_
_space_group_symop_operation_xyz
x,y,z
y,-x,-z
-x,-y,z
-y,x,-z
x,1/2-y,1/4-z
-x,1/2+y,1/4-z
-y,1/2-x,1/4+z
y,1/2+x,1/4+z
1/2+x,1/2+y,1/2+z
1/2+y,1/2-x,1/2-z
1/2-x,1/2-y,1/2+z
1/2-y,1/2+x,1/2-z
1/2+x,-y,3/4-z
1/2-x,y,3/4-z
1/2-y,-x,3/4+z
1/2+y,x,3/4+z
loop_
_atom_site_type_symbol
_atom_site_label
_atom_site_fract_x
_atom_site_fract_y
_atom_site_fract_z
Si Si1 0.288791 0.840466 0.163931
Si Si2 0.400239 0.882614 0.263428
Si Si3 0.966678 0.679426 0.934054
Si Si4 0.361382 0.759212 0.364653
Si Si5 0.447214 0.382729 0.467807
Si Si6 0.427078 0.413873 0.705712
Si Si7 0.352115 0.413401 0.354064
O O1 0.293121 0.750000 0.125000
O O2 0.342079 0.820106 0.220297
O O3 0.337102 0.920559 0.126186
O O4 0.183318 0.878453 0.177174
O O5 0.510127 0.873156 0.249911
O O6 0.372421 0.848618 0.324147
O O7 0.922163 0.774483 0.960630
O O8 0.073933 0.711436 0.918344
O O9 0.934727 0.600003 0.977770
O O10 0.250000 0.741619 0.375000
O O11 0.405160 0.669662 0.329194
O O12 0.395286 0.443904 0.515008
O O13 0.417946 0.424983 0.408004
O O14 0.500000 0.500000 0.692390
O O15 0.494513 0.333255 0.681565
O O16 0.250000 0.388186 0.375000
#
# Coordination Sequence:
#
# PCOD9561047 Si02
#       7
#    16  16  16  16  16  16  16
#     4  10  21  43  72  98 137 187 247 302 377 446
#     4  11  25  47  76 105 144 195 252 314 382 456
#     4  11  25  44  65 106 144 187 245 311 372 453
#     4  12  29  47  75 111 155 195 263 322 385 460
#     4  10  22  35  65  93 129 186 238 284 364 439
#     4  12  27  44  70 103 151 199 245 311 385 455
#     4  10  22  41  63  96 140 185 239 299 361 456
#
# _framework density 23.103757999999999
#
# number of rings (size 3 to 8) (size 9 to 14) (size 15 to 20)
#    0.000    1.143    1.429    3.857   10.000    1.714 
#    0.000    0.000    0.000    0.000    0.000    0.000 
#    0.000    0.000    0.000    0.000    0.000    0.000 
#
# Total GULP energy -312106.232568 kJ/mol
# GULP energy per Si atom -5573.325582 kJ/mol
# Density = 2.305117 g / cm^3
# Si number density = 23.103758 Si / 1000 Ang^3
#
#
#
# Elastic Constant Matrix: (Units=GPa)
#
#
# Indices 1 2 3 4 5 6 
#
# 1 55.8255 12.1354 11.2396 0.0000 0.0000 0.0000
# 2 12.1354 55.8255 11.2396 0.0000 0.0000 0.0000
# 3 11.2396 11.2396 67.7911 0.0000 0.0000 0.0000
# 4 0.0000 0.0000 0.0000 44.7429 0.0000 0.0000
# 5 0.0000 0.0000 0.0000 0.0000 44.7429 0.0000
# 6 0.0000 0.0000 0.0000 0.0000 0.0000 19.2678
#
#
#
# Elastic Compliance Matrix: (Units=1/GPa)
#
#
# Indices 1 2 3 4 5 6 
#
# 1 0.019228 -0.003660 -0.002581 0.000000 0.000000 0.000000
# 2 -0.003660 0.019228 -0.002581 0.000000 0.000000 0.000000
# 3 -0.002581 -0.002581 0.015607 0.000000 0.000000 0.000000
# 4 0.000000 0.000000 0.000000 0.022350 0.000000 0.000000
# 5 0.000000 0.000000 0.000000 0.000000 0.022350 0.000000
# 6 0.000000 0.000000 0.000000 0.000000 0.000000 0.051900
#
#
# Mechanical properties :
#
#
# Convention : Reuss Voigt Hill
#
# Bulk Modulus (GPa) = 27.45841 27.63012 27.54426
# Shear Modulus (GPa) = 27.70878 31.40587 29.55732
#
# Velocity S-wave (km/s) = 3.46688 3.69092 3.58065
# Velocity P-wave (km/s) = 5.28548 5.49081 5.38912
#
# Compressibility (1/GPa) = 0.03641872
#
# Stress axis : x y z
#
# Youngs Moduli (GPa) = 52.00669 52.00669 64.07340
#
# Poissons Ratio (x) = 0.19035 0.16538
# Poissons Ratio (y) = 0.19035 0.16538
# Poissons Ratio (z) = 0.13424 0.13424
#
# Static dielectric constant tensor:
#      x y z
#    x 2.019270 0.000000 0.000000 
#    y 0.000000 2.019270 0.000000 
#    z 0.000000 0.000000 1.908630 
# 
# From -- ./inp_files/8136.got.cif
#   From: 2010.05.17/outbox.cif.g08.bks.cpg/sg122_5_cif.got.tgz:8136.got - 2010.05.20 11:37:33.
