data_PCOD9561149
_publ_section_title
;
Structure prediction by ZEFSAII (Michael W. Deem and Ramdas Pophale) SiO2 
 PCOD9561149
Probable space group: I -4 2 D
;
_chemical_formula_sum "Si O2"
_cell_formula_units_Z 72
_cell_length_a 17.194413
_cell_length_b 17.194413
_cell_length_c 12.795158
_cell_angle_alpha 90.000000
_cell_angle_beta 90.000000
_cell_angle_gamma 90.000000
_cell_volume 3782.860805
_symmetry_space_group_name_H-M "I -4 2 D"
_symmetry_group_IT_number 122
_symmetry_cell_setting 'tetragonal'
loop_
_space_group_symop_operation_xyz
x,y,z
y,-x,-z
-x,-y,z
-y,x,-z
x,1/2-y,1/4-z
-x,1/2+y,1/4-z
-y,1/2-x,1/4+z
y,1/2+x,1/4+z
1/2+x,1/2+y,1/2+z
1/2+y,1/2-x,1/2-z
1/2-x,1/2-y,1/2+z
1/2-y,1/2+x,1/2-z
1/2+x,-y,3/4-z
1/2-x,y,3/4-z
1/2-y,-x,3/4+z
1/2+y,x,3/4+z
loop_
_atom_site_type_symbol
_atom_site_label
_atom_site_fract_x
_atom_site_fract_y
_atom_site_fract_z
Si Si1 0.331849 0.264911 0.401410
Si Si2 0.250000 0.728101 0.375000
Si Si3 0.159691 0.015079 0.385565
Si Si4 0.629338 0.153206 0.458816
Si Si5 0.036162 0.145716 0.377947
O O1 0.250000 0.223039 0.375000
O O2 0.326216 0.266751 0.525758
O O3 0.169617 0.339919 0.424118
O O4 0.407176 0.218826 0.368192
O O5 0.323901 0.787420 0.381627
O O6 0.250000 0.040446 0.375000
O O7 0.093892 0.075351 0.347609
O O8 0.152269 0.933529 0.325625
O O9 0.137797 0.999582 0.506426
O O10 0.537140 0.158865 0.446598
#
# Coordination Sequence:
#
# PCOD9561149 Si02
#       5
#    16   8  16  16  16
#     4  10  22  43  64  90 125 171 221 270 328 397
#     4  10  22  44  68  86 120 178 222 262 330 408
#     4  12  22  37  59  96 135 169 212 269 335 392
#     4  11  22  39  61  97 133 162 215 284 326 388
#     4  12  24  35  62  97 129 169 212 271 338 391
#
# _framework density 19.033214999999998
#
# number of rings (size 3 to 8) (size 9 to 14) (size 15 to 20)
#    0.000    0.889    5.556    2.667    3.111    0.000 
#    6.000    0.000    0.000    0.000    0.000    0.000 
#    0.000    0.000    0.000    0.000    0.000    0.000 
#
# Total GULP energy -200703.988864 kJ/mol
# GULP energy per Si atom -5575.110802 kJ/mol
# Density = 1.898989 g / cm^3
# Si number density = 19.033215 Si / 1000 Ang^3
#
#
#
# Elastic Constant Matrix: (Units=GPa)
#
#
# Indices 1 2 3 4 5 6 
#
# 1 95.5582 23.4245 13.1392 0.0000 0.0000 0.0000
# 2 23.4245 95.5582 13.1392 0.0000 0.0000 0.0000
# 3 13.1392 13.1392 98.5923 0.0000 0.0000 0.0000
# 4 0.0000 0.0000 0.0000 19.2035 0.0000 0.0000
# 5 0.0000 0.0000 0.0000 0.0000 19.2035 0.0000
# 6 0.0000 0.0000 0.0000 0.0000 0.0000 -13.4386
#
#
#
# Elastic Compliance Matrix: (Units=1/GPa)
#
#
# Indices 1 2 3 4 5 6 
#
# 1 0.011261 -0.002602 -0.001154 0.000000 0.000000 0.000000
# 2 -0.002602 0.011261 -0.001154 0.000000 0.000000 0.000000
# 3 -0.001154 -0.001154 0.010450 0.000000 0.000000 0.000000
# 4 0.000000 0.000000 0.000000 0.052074 0.000000 0.000000
# 5 0.000000 0.000000 0.000000 0.000000 0.052074 0.000000
# 6 0.000000 0.000000 0.000000 0.000000 0.000000 -0.074412
#
#
# Mechanical properties :
#
#
# Convention : Reuss Voigt Hill
#
# Bulk Modulus (GPa) = 43.19060 43.23492 43.21276
# Shear Modulus (GPa) = 62.30852 20.99407 41.65130
#
# Velocity S-wave (km/s) = 5.72781 3.32478 4.68305
# Velocity P-wave (km/s) = 8.15385 6.12403 7.21072
#
# Compressibility (1/GPa) = 0.02315319
#
# Stress axis : x y z
#
# Youngs Moduli (GPa) = 88.79970 88.79970 95.69037
#
# Poissons Ratio (x) = 0.23104 0.11043
# Poissons Ratio (y) = 0.23104 0.11043
# Poissons Ratio (z) = 0.10248 0.10248
#
# Static dielectric constant tensor:
#      x y z
#    x 1.678150 0.000000 0.000000 
#    y 0.000000 1.678150 0.000000 
#    z 0.000000 0.000000 1.782510 
# 
# From -- ./inp_files/6134.got.cif
#   From: 2010.05.17/outbox.cif.g08.bks.cpg/sg122_4_cif.got.tgz:6134.got - 2010.05.20 11:37:33.
