data_PCOD9561468
_publ_section_title
;
Structure prediction by ZEFSAII (Michael W. Deem and Ramdas Pophale) SiO2 
 PCOD9561468
Probable space group: I -4 2 D
;
_chemical_formula_sum "Si O2"
_cell_formula_units_Z 60
_cell_length_a 17.372571
_cell_length_b 17.372571
_cell_length_c 8.010176
_cell_angle_alpha 90.000000
_cell_angle_beta 90.000000
_cell_angle_gamma 90.000000
_cell_volume 2417.520965
_symmetry_space_group_name_H-M "I -4 2 D"
_symmetry_group_IT_number 122
_symmetry_cell_setting 'tetragonal'
loop_
_space_group_symop_operation_xyz
x,y,z
y,-x,-z
-x,-y,z
-y,x,-z
x,1/2-y,1/4-z
-x,1/2+y,1/4-z
-y,1/2-x,1/4+z
y,1/2+x,1/4+z
1/2+x,1/2+y,1/2+z
1/2+y,1/2-x,1/2-z
1/2-x,1/2-y,1/2+z
1/2-y,1/2+x,1/2-z
1/2+x,-y,3/4-z
1/2-x,y,3/4-z
1/2-y,-x,3/4+z
1/2+y,x,3/4+z
loop_
_atom_site_type_symbol
_atom_site_label
_atom_site_fract_x
_atom_site_fract_y
_atom_site_fract_z
Si Si1 0.050742 0.335949 0.600313
Si Si2 0.028494 0.118622 0.004757
Si Si3 0.165650 0.726381 0.814471
Si Si4 0.943797 0.250000 0.125000
Si Si5 0.000000 0.500000 0.750000
O O1 0.015300 0.250000 0.625000
O O2 0.133907 0.335238 0.685100
O O3 0.066761 0.341067 0.401854
O O4 0.010885 0.416487 0.656954
O O5 0.999666 0.176979 0.142509
O O6 0.080208 0.049590 0.065210
O O7 0.152344 0.750000 0.625000
O O8 0.250000 0.752953 0.875000
O O9 0.106504 0.754683 0.957462
#
# Coordination Sequence:
#
# PCOD9561468 Si02
#       5
#    16  16  16   8   4
#     4  11  28  48  77 121 161 216 280 349 431 516
#     4  11  25  49  75 111 158 204 273 342 411 502
#     4  11  25  51  78 119 168 211 276 350 427 515
#     4  12  26  46  84 116 150 224 262 336 432 496
#     4  12  28  48  78 116 168 220 270 360 424 506
#
# _framework density 24.818812999999999
#
# number of rings (size 3 to 8) (size 9 to 14) (size 15 to 20)
#    0.000    0.800    4.000    1.600    7.467    0.000 
#    7.200    0.000    0.000    0.000    0.000    0.000 
#    0.000    0.000    0.000    0.000    0.000    0.000 
#
# Total GULP energy -167759.883559 kJ/mol
# GULP energy per Si atom -5591.996119 kJ/mol
# Density = 2.476232 g / cm^3
# Si number density = 24.818813 Si / 1000 Ang^3
#
#
#
# Elastic Constant Matrix: (Units=GPa)
#
#
# Indices 1 2 3 4 5 6 
#
# 1 131.2905 20.5995 35.9431 0.0000 0.0000 0.0000
# 2 20.5995 131.2905 35.9431 0.0000 0.0000 0.0000
# 3 35.9431 35.9431 157.4520 0.0000 0.0000 0.0000
# 4 0.0000 0.0000 0.0000 37.7851 0.0000 0.0000
# 5 0.0000 0.0000 0.0000 0.0000 37.7851 0.0000
# 6 0.0000 0.0000 0.0000 0.0000 0.0000 32.3207
#
#
#
# Elastic Compliance Matrix: (Units=1/GPa)
#
#
# Indices 1 2 3 4 5 6 
#
# 1 0.008208 -0.000826 -0.001685 0.000000 0.000000 0.000000
# 2 -0.000826 0.008208 -0.001685 0.000000 0.000000 0.000000
# 3 -0.001685 -0.001685 0.007120 0.000000 0.000000 0.000000
# 4 0.000000 0.000000 0.000000 0.026465 0.000000 0.000000
# 5 0.000000 0.000000 0.000000 0.000000 0.026465 0.000000
# 6 0.000000 0.000000 0.000000 0.000000 0.000000 0.030940
#
#
# Mechanical properties :
#
#
# Convention : Reuss Voigt Hill
#
# Bulk Modulus (GPa) = 66.03758 67.22269 66.63013
# Shear Modulus (GPa) = 41.37461 43.41468 42.39464
#
# Velocity S-wave (km/s) = 4.08740 4.18696 4.13748
# Velocity P-wave (km/s) = 6.99582 7.10763 7.05194
#
# Compressibility (1/GPa) = 0.01514289
#
# Stress axis : x y z
#
# Youngs Moduli (GPa) = 121.83737 121.83737 140.44092
#
# Poissons Ratio (x) = 0.10070 0.23664
# Poissons Ratio (y) = 0.10070 0.23664
# Poissons Ratio (z) = 0.20529 0.20529
#
# Static dielectric constant tensor:
#      x y z
#    x 2.006280 0.000000 0.000000 
#    y 0.000000 2.006280 0.000000 
#    z 0.000000 0.000000 1.996640 
# 
# From -- ./inp_files/2350.got.cif
#   From: 2010.05.17/outbox.cif.g08.bks.cpg/sg122_2_cif.got.tgz:2350.got - 2010.05.20 11:37:33.
