data_PCOD9561128
_publ_section_title
;
Structure prediction by ZEFSAII (Michael W. Deem and Ramdas Pophale) SiO2 
 PCOD9561128
Probable space group: I -4 2 D
;
_chemical_formula_sum "Si O2"
_cell_formula_units_Z 52
_cell_length_a 13.814700
_cell_length_b 13.814700
_cell_length_c 11.595698
_cell_angle_alpha 90.000000
_cell_angle_beta 90.000000
_cell_angle_gamma 90.000000
_cell_volume 2212.991839
_symmetry_space_group_name_H-M "I -4 2 D"
_symmetry_group_IT_number 122
_symmetry_cell_setting 'tetragonal'
loop_
_space_group_symop_operation_xyz
x,y,z
y,-x,-z
-x,-y,z
-y,x,-z
x,1/2-y,1/4-z
-x,1/2+y,1/4-z
-y,1/2-x,1/4+z
y,1/2+x,1/4+z
1/2+x,1/2+y,1/2+z
1/2+y,1/2-x,1/2-z
1/2-x,1/2-y,1/2+z
1/2-y,1/2+x,1/2-z
1/2+x,-y,3/4-z
1/2-x,y,3/4-z
1/2-y,-x,3/4+z
1/2+y,x,3/4+z
loop_
_atom_site_type_symbol
_atom_site_label
_atom_site_fract_x
_atom_site_fract_y
_atom_site_fract_z
Si Si1 0.841296 0.141661 0.960640
Si Si2 0.855771 0.818812 0.771185
Si Si3 0.000000 0.000000 0.000000
Si Si4 0.585990 0.618887 0.047193
O O1 0.750000 0.132438 0.875000
O O2 0.823741 0.118027 0.095943
O O3 0.867909 0.255229 0.979004
O O4 0.925333 0.066478 0.927578
O O5 0.932892 0.861750 0.682056
O O6 0.844988 0.704869 0.744247
O O7 0.626804 0.513833 0.021824
#
# Coordination Sequence:
#
# PCOD9561128 Si02
#       4
#    16  16   4  16
#     4  11  26  48  72 106 153 200 254 319 392 472
#     4  10  24  45  72 105 153 201 249 323 400 453
#     4  12  32  44  76 108 146 212 268 316 392 486
#     4  10  22  41  72 112 147 196 259 321 385 462
#
# _framework density 23.497602000000001
#
# number of rings (size 3 to 8) (size 9 to 14) (size 15 to 20)
#    0.000    1.538    3.077    0.000    8.615    9.846 
#    0.000    0.000    0.000    0.000    0.000    0.000 
#    0.000    0.000    0.000    0.000    0.000    0.000 
#
# Total GULP energy -145056.278376 kJ/mol
# GULP energy per Si atom -5579.087630 kJ/mol
# Density = 2.344412 g / cm^3
# Si number density = 23.497602 Si / 1000 Ang^3
#
#
#
# Elastic Constant Matrix: (Units=GPa)
#
#
# Indices 1 2 3 4 5 6 
#
# 1 89.6773 37.6200 26.4365 0.0000 0.0000 0.0000
# 2 37.6200 89.6773 26.4365 0.0000 0.0000 0.0000
# 3 26.4365 26.4365 163.2927 0.0000 0.0000 0.0000
# 4 0.0000 0.0000 0.0000 15.9544 0.0000 0.0000
# 5 0.0000 0.0000 0.0000 0.0000 15.9544 0.0000
# 6 0.0000 0.0000 0.0000 0.0000 0.0000 43.3070
#
#
#
# Elastic Compliance Matrix: (Units=1/GPa)
#
#
# Indices 1 2 3 4 5 6 
#
# 1 0.013816 -0.005394 -0.001363 0.000000 0.000000 0.000000
# 2 -0.005394 0.013816 -0.001363 0.000000 0.000000 0.000000
# 3 -0.001363 -0.001363 0.006565 0.000000 0.000000 0.000000
# 4 0.000000 0.000000 0.000000 0.062679 0.000000 0.000000
# 5 0.000000 0.000000 0.000000 0.000000 0.062679 0.000000
# 6 0.000000 0.000000 0.000000 0.000000 0.000000 0.023091
#
#
# Mechanical properties :
#
#
# Convention : Reuss Voigt Hill
#
# Bulk Modulus (GPa) = 55.69346 58.18147 56.93746
# Shear Modulus (GPa) = 24.40547 31.85344 28.12945
#
# Velocity S-wave (km/s) = 3.22628 3.68585 3.46370
# Velocity P-wave (km/s) = 6.13447 6.55197 6.34666
#
# Compressibility (1/GPa) = 0.01795543
#
# Stress axis : x y z
#
# Youngs Moduli (GPa) = 72.38101 72.38101 152.31232
#
# Poissons Ratio (x) = 0.39041 0.20768
# Poissons Ratio (y) = 0.39041 0.20768
# Poissons Ratio (z) = 0.09869 0.09869
#
# Static dielectric constant tensor:
#      x y z
#    x 1.923720 0.000000 0.000000 
#    y 0.000000 1.923720 0.000000 
#    z 0.000000 0.000000 1.937790 
# 
# From -- ./inp_files/3897.got.cif
#   From: 2010.05.17/outbox.cif.g08.bks.cpg/sg122_2_cif.got.tgz:3897.got - 2010.05.20 11:37:33.
