data_PCOD9561187
_publ_section_title
;
Structure prediction by ZEFSAII (Michael W. Deem and Ramdas Pophale) SiO2 
 PCOD9561187
Probable space group: I -4 2 D
;
_chemical_formula_sum "Si O2"
_cell_formula_units_Z 32
_cell_length_a 8.001960
_cell_length_b 8.001960
_cell_length_c 17.964297
_cell_angle_alpha 90.000000
_cell_angle_beta 90.000000
_cell_angle_gamma 90.000000
_cell_volume 1150.278437
_symmetry_space_group_name_H-M "I -4 2 D"
_symmetry_group_IT_number 122
_symmetry_cell_setting 'tetragonal'
loop_
_space_group_symop_operation_xyz
x,y,z
y,-x,-z
-x,-y,z
-y,x,-z
x,1/2-y,1/4-z
-x,1/2+y,1/4-z
-y,1/2-x,1/4+z
y,1/2+x,1/4+z
1/2+x,1/2+y,1/2+z
1/2+y,1/2-x,1/2-z
1/2-x,1/2-y,1/2+z
1/2-y,1/2+x,1/2-z
1/2+x,-y,3/4-z
1/2-x,y,3/4-z
1/2-y,-x,3/4+z
1/2+y,x,3/4+z
loop_
_atom_site_type_symbol
_atom_site_label
_atom_site_fract_x
_atom_site_fract_y
_atom_site_fract_z
Si Si1 0.876711 0.277013 0.281781
Si Si2 0.574355 0.815781 0.330621
O O1 0.784777 0.449739 0.264364
O O2 0.776136 0.121522 0.246456
O O3 0.937915 0.272333 0.366615
O O4 0.750000 0.816344 0.375000
O O5 0.500000 0.000000 0.326178
#
# Coordination Sequence:
#
# PCOD9561187 Si02
#       2
#    16  16
#     4   9  20  46  77 114 159 217 279 349 427 510
#     4  10  22  48  72 116 162 214 277 347 426 507
#
# _framework density 27.819348999999999
#
# number of rings (size 3 to 8) (size 9 to 14) (size 15 to 20)
#    0.000    2.500    0.000    0.000    0.000    0.000 
#   45.000    5.000    0.000    0.000    0.000    0.000 
#    0.000    0.000    0.000    0.000    0.000    0.000 
#
# Total GULP energy -89818.132457 kJ/mol
# GULP energy per Si atom -5613.633279 kJ/mol
# Density = 2.775603 g / cm^3
# Si number density = 27.819349 Si / 1000 Ang^3
#
#
#
# Elastic Constant Matrix: (Units=GPa)
#
#
# Indices 1 2 3 4 5 6 
#
# 1 126.7483 44.3284 31.6019 0.0000 0.0000 0.0000
# 2 44.3284 126.7483 31.6019 0.0000 0.0000 0.0000
# 3 31.6019 31.6019 107.9098 0.0000 0.0000 0.0000
# 4 0.0000 0.0000 0.0000 43.5637 0.0000 0.0000
# 5 0.0000 0.0000 0.0000 0.0000 43.5637 0.0000
# 6 0.0000 0.0000 0.0000 0.0000 0.0000 75.3827
#
#
#
# Elastic Compliance Matrix: (Units=1/GPa)
#
#
# Indices 1 2 3 4 5 6 
#
# 1 0.009344 -0.002789 -0.001920 0.000000 0.000000 0.000000
# 2 -0.002789 0.009344 -0.001920 0.000000 0.000000 0.000000
# 3 -0.001920 -0.001920 0.010391 0.000000 0.000000 0.000000
# 4 0.000000 0.000000 0.000000 0.022955 0.000000 0.000000
# 5 0.000000 0.000000 0.000000 0.000000 0.022955 0.000000
# 6 0.000000 0.000000 0.000000 0.000000 0.000000 0.013266
#
#
# Mechanical properties :
#
#
# Convention : Reuss Voigt Hill
#
# Bulk Modulus (GPa) = 63.20233 64.05231 63.62732
# Shear Modulus (GPa) = 46.82313 49.42696 48.12505
#
# Velocity S-wave (km/s) = 4.10703 4.21968 4.16373
# Velocity P-wave (km/s) = 6.72744 6.84217 6.78505
#
# Compressibility (1/GPa) = 0.01582220
#
# Stress axis : x y z
#
# Youngs Moduli (GPa) = 107.02348 107.02348 96.23461
#
# Poissons Ratio (x) = 0.29852 0.18472
# Poissons Ratio (y) = 0.29852 0.18472
# Poissons Ratio (z) = 0.20543 0.20543
#
# Static dielectric constant tensor:
#      x y z
#    x 2.143160 0.000000 0.000000 
#    y 0.000000 2.143160 0.000000 
#    z 0.000000 0.000000 2.300060 
# 
# From -- ./inp_files/6549.got.cif
#   From: 2010.05.17/outbox.cif.g08.bks.cpg/sg122_4_cif.got.tgz:6549.got - 2010.05.20 11:37:33.
