data_PCOD9561282
_publ_section_title
;
Structure prediction by ZEFSAII (Michael W. Deem and Ramdas Pophale) SiO2 
 PCOD9561282
Probable space group: I -4 2 D
;
_chemical_formula_sum "Si O2"
_cell_formula_units_Z 92
_cell_length_a 14.178889
_cell_length_b 14.178889
_cell_length_c 21.056124
_cell_angle_alpha 90.000000
_cell_angle_beta 90.000000
_cell_angle_gamma 90.000000
_cell_volume 4233.141978
_symmetry_space_group_name_H-M "I -4 2 D"
_symmetry_group_IT_number 122
_symmetry_cell_setting 'tetragonal'
loop_
_space_group_symop_operation_xyz
x,y,z
y,-x,-z
-x,-y,z
-y,x,-z
x,1/2-y,1/4-z
-x,1/2+y,1/4-z
-y,1/2-x,1/4+z
y,1/2+x,1/4+z
1/2+x,1/2+y,1/2+z
1/2+y,1/2-x,1/2-z
1/2-x,1/2-y,1/2+z
1/2-y,1/2+x,1/2-z
1/2+x,-y,3/4-z
1/2-x,y,3/4-z
1/2-y,-x,3/4+z
1/2+y,x,3/4+z
loop_
_atom_site_type_symbol
_atom_site_label
_atom_site_fract_x
_atom_site_fract_y
_atom_site_fract_z
Si Si1 0.500000 0.000000 0.250000
Si Si2 0.219679 0.244455 0.549874
Si Si3 0.911049 0.833635 0.240028
Si Si4 0.024867 0.159423 0.588908
Si Si5 0.068852 0.801276 0.990438
Si Si6 0.000000 0.500000 0.933310
Si Si7 0.893900 0.474141 0.354470
O O1 0.469772 0.908146 0.209540
O O2 0.246084 0.250000 0.625000
O O3 0.300086 0.183431 0.515394
O O4 0.115752 0.201624 0.553333
O O5 0.226840 0.346533 0.516736
O O6 0.950925 0.838395 0.168242
O O7 0.969624 0.749911 0.273282
O O8 0.940424 0.927798 0.275320
O O9 0.980723 0.250000 0.625000
O O10 0.052651 0.079035 0.640548
O O11 0.094937 0.882612 0.940552
O O12 0.053750 0.848770 0.059268
O O13 0.000000 0.500000 0.373150
#
# Coordination Sequence:
#
# PCOD9561282 Si02
#       7
#     4  16  16  16  16   8  16
#     4  10  24  48  80 100 132 186 220 290 356 402
#     4  11  21  39  67  93 130 179 222 277 341 403
#     4  12  23  38  63  95 133 177 230 272 342 408
#     4  10  24  47  73  99 133 171 229 283 344 405
#     4  12  21  39  63  94 133 179 223 272 331 410
#     4  11  26  43  66  99 134 175 232 294 336 407
#     4  12  21  38  61  92 136 180 218 270 334 401
#
# _framework density 21.733267000000001
#
# number of rings (size 3 to 8) (size 9 to 14) (size 15 to 20)
#    0.000    0.696    6.087    2.609    2.435    0.000 
#    0.000    0.000   11.478    0.000    0.000    0.000 
#    0.000    0.000    0.000    0.000    0.000    0.000 
#
# Total GULP energy -256785.737945 kJ/mol
# GULP energy per Si atom -5582.298651 kJ/mol
# Density = 2.168380 g / cm^3
# Si number density = 21.733267 Si / 1000 Ang^3
#
#
#
# Elastic Constant Matrix: (Units=GPa)
#
#
# Indices 1 2 3 4 5 6 
#
# 1 77.0722 -2.9716 14.0861 0.0000 0.0000 0.0000
# 2 -2.9716 77.0722 14.0861 0.0000 0.0000 0.0000
# 3 14.0861 14.0861 61.6669 0.0000 0.0000 0.0000
# 4 0.0000 0.0000 0.0000 25.7394 0.0000 0.0000
# 5 0.0000 0.0000 0.0000 0.0000 25.7394 0.0000
# 6 0.0000 0.0000 0.0000 0.0000 0.0000 42.4123
#
#
#
# Elastic Compliance Matrix: (Units=1/GPa)
#
#
# Indices 1 2 3 4 5 6 
#
# 1 0.013636 0.001143 -0.003376 0.000000 0.000000 0.000000
# 2 0.001143 0.013636 -0.003376 0.000000 0.000000 0.000000
# 3 -0.003376 -0.003376 0.017758 0.000000 0.000000 0.000000
# 4 0.000000 0.000000 0.000000 0.038851 0.000000 0.000000
# 5 0.000000 0.000000 0.000000 0.000000 0.038851 0.000000
# 6 0.000000 0.000000 0.000000 0.000000 0.000000 0.023578
#
#
# Mechanical properties :
#
#
# Convention : Reuss Voigt Hill
#
# Bulk Modulus (GPa) = 29.57489 29.57919 29.57704
# Shear Modulus (GPa) = 29.62111 31.48560 30.55335
#
# Velocity S-wave (km/s) = 3.69581 3.81035 3.75351
# Velocity P-wave (km/s) = 5.64355 5.74438 5.69419
#
# Compressibility (1/GPa) = 0.03381247
#
# Stress axis : x y z
#
# Youngs Moduli (GPa) = 73.33594 73.33594 56.31153
#
# Poissons Ratio (x) = -0.08380 0.19009
# Poissons Ratio (y) = -0.08380 0.19009
# Poissons Ratio (z) = 0.24757 0.24757
#
# Static dielectric constant tensor:
#      x y z
#    x 1.817930 0.000000 0.000000 
#    y 0.000000 1.817930 0.000000 
#    z 0.000000 0.000000 1.808980 
# 
# From -- ./inp_files/7361.got.cif
#   From: 2010.05.17/outbox.cif.g08.bks.cpg/sg122_4_cif.got.tgz:7361.got - 2010.05.20 11:37:33.
