data_PCOD9561437
_publ_section_title
;
Structure prediction by ZEFSAII (Michael W. Deem and Ramdas Pophale) SiO2 
 PCOD9561437
Probable space group: I -4 2 D
;
_chemical_formula_sum "Si O2"
_cell_formula_units_Z 72
_cell_length_a 12.975159
_cell_length_b 12.975159
_cell_length_c 17.626900
_cell_angle_alpha 90.000000
_cell_angle_beta 90.000000
_cell_angle_gamma 90.000000
_cell_volume 2967.572362
_symmetry_space_group_name_H-M "I -4 2 D"
_symmetry_group_IT_number 122
_symmetry_cell_setting 'tetragonal'
loop_
_space_group_symop_operation_xyz
x,y,z
y,-x,-z
-x,-y,z
-y,x,-z
x,1/2-y,1/4-z
-x,1/2+y,1/4-z
-y,1/2-x,1/4+z
y,1/2+x,1/4+z
1/2+x,1/2+y,1/2+z
1/2+y,1/2-x,1/2-z
1/2-x,1/2-y,1/2+z
1/2-y,1/2+x,1/2-z
1/2+x,-y,3/4-z
1/2-x,y,3/4-z
1/2-y,-x,3/4+z
1/2+y,x,3/4+z
loop_
_atom_site_type_symbol
_atom_site_label
_atom_site_fract_x
_atom_site_fract_y
_atom_site_fract_z
Si Si1 0.500000 0.000000 0.750000
Si Si2 0.500000 0.000000 0.250000
Si Si3 0.641419 0.868529 0.564554
Si Si4 0.377755 0.187531 0.807651
Si Si5 0.250000 0.684251 0.875000
Si Si6 0.750000 0.536393 0.375000
Si Si7 0.557532 0.767555 0.280893
O O1 0.530023 0.893976 0.793782
O O2 0.483417 0.113819 0.287788
O O3 0.633503 0.776680 0.503259
O O4 0.735844 0.845005 0.621282
O O5 0.534588 0.848584 0.607668
O O6 0.677517 0.971517 0.524714
O O7 0.279145 0.112432 0.807728
O O8 0.387545 0.240354 0.889956
O O9 0.240466 0.620073 0.797790
#
# Coordination Sequence:
#
# PCOD9561437 Si02
#       7
#     4   4  16  16   8   8  16
#     4  12  24  48  78 116 160 184 270 336 384 480
#     4  12  28  52  70 116 156 204 268 334 364 484
#     4  11  26  47  77 109 154 202 259 328 384 470
#     4  12  26  46  78 110 151 206 256 324 400 466
#     4  11  26  47  70 106 152 195 260 319 376 468
#     4  11  24  45  72 112 148 201 262 315 390 462
#     4  12  28  48  77 111 155 209 264 326 403 462
#
# _framework density 24.262253999999999
#
# number of rings (size 3 to 8) (size 9 to 14) (size 15 to 20)
#    0.000    0.444    4.444    2.667    6.222    1.778 
#    0.000    1.111    0.000    0.000    0.000    0.000 
#    0.000    0.000    0.000    0.000    0.000    0.000 
#
# Total GULP energy -200987.026573 kJ/mol
# GULP energy per Si atom -5582.972960 kJ/mol
# Density = 2.420703 g / cm^3
# Si number density = 24.262254 Si / 1000 Ang^3
#
#
#
# Elastic Constant Matrix: (Units=GPa)
#
#
# Indices 1 2 3 4 5 6 
#
# 1 106.8380 36.2240 45.0462 0.0000 0.0000 0.0000
# 2 36.2240 106.8380 45.0462 0.0000 0.0000 0.0000
# 3 45.0462 45.0462 143.7700 0.0000 0.0000 0.0000
# 4 0.0000 0.0000 0.0000 43.1754 0.0000 0.0000
# 5 0.0000 0.0000 0.0000 0.0000 43.1754 0.0000
# 6 0.0000 0.0000 0.0000 0.0000 0.0000 24.7967
#
#
#
# Elastic Compliance Matrix: (Units=1/GPa)
#
#
# Indices 1 2 3 4 5 6 
#
# 1 0.011435 -0.002727 -0.002728 0.000000 0.000000 0.000000
# 2 -0.002727 0.011435 -0.002728 0.000000 0.000000 0.000000
# 3 -0.002728 -0.002728 0.008665 0.000000 0.000000 0.000000
# 4 0.000000 0.000000 0.000000 0.023161 0.000000 0.000000
# 5 0.000000 0.000000 0.000000 0.000000 0.023161 0.000000
# 6 0.000000 0.000000 0.000000 0.000000 0.000000 0.040328
#
#
# Mechanical properties :
#
#
# Convention : Reuss Voigt Hill
#
# Bulk Modulus (GPa) = 65.92878 67.78653 66.85766
# Shear Modulus (GPa) = 35.81436 37.63813 36.72625
#
# Velocity S-wave (km/s) = 3.84622 3.94293 3.89488
# Velocity P-wave (km/s) = 6.85251 6.98059 6.91685
#
# Compressibility (1/GPa) = 0.01516788
#
# Stress axis : x y z
#
# Youngs Moduli (GPa) = 87.45187 87.45187 115.40238
#
# Poissons Ratio (x) = 0.23845 0.31487
# Poissons Ratio (y) = 0.23845 0.31487
# Poissons Ratio (z) = 0.23861 0.23861
#
# Static dielectric constant tensor:
#      x y z
#    x 2.007150 0.000000 0.000000 
#    y 0.000000 2.007150 0.000000 
#    z 0.000000 0.000000 1.970170 
# 
# From -- ./inp_files/6202.got.cif
#   From: 2010.05.17/outbox.cif.g08.bks.cpg/sg122_4_cif.got.tgz:6202.got - 2010.05.20 11:37:33.
