data_PCOD9561174
_publ_section_title
;
Structure prediction by ZEFSAII (Michael W. Deem and Ramdas Pophale) SiO2 
 PCOD9561174
Probable space group: I -4 2 D
;
_chemical_formula_sum "Si O2"
_cell_formula_units_Z 52
_cell_length_a 18.488351
_cell_length_b 18.488351
_cell_length_c 7.114164
_cell_angle_alpha 90.000000
_cell_angle_beta 90.000000
_cell_angle_gamma 90.000000
_cell_volume 2431.757297
_symmetry_space_group_name_H-M "I -4 2 D"
_symmetry_group_IT_number 122
_symmetry_cell_setting 'tetragonal'
loop_
_space_group_symop_operation_xyz
x,y,z
y,-x,-z
-x,-y,z
-y,x,-z
x,1/2-y,1/4-z
-x,1/2+y,1/4-z
-y,1/2-x,1/4+z
y,1/2+x,1/4+z
1/2+x,1/2+y,1/2+z
1/2+y,1/2-x,1/2-z
1/2-x,1/2-y,1/2+z
1/2-y,1/2+x,1/2-z
1/2+x,-y,3/4-z
1/2-x,y,3/4-z
1/2-y,-x,3/4+z
1/2+y,x,3/4+z
loop_
_atom_site_type_symbol
_atom_site_label
_atom_site_fract_x
_atom_site_fract_y
_atom_site_fract_z
Si Si1 0.865965 0.442099 0.593583
Si Si2 0.325999 0.168572 0.685837
Si Si3 0.110286 0.677698 0.890039
Si Si4 0.000000 0.000000 0.500000
O O1 0.845851 0.404117 0.401442
O O2 0.851503 0.381939 0.755964
O O3 0.835723 0.523551 0.605622
O O4 0.951936 0.451321 0.616027
O O5 0.307131 0.250000 0.625000
O O6 0.261961 0.121705 0.592706
O O7 0.328894 0.147722 0.904721
#
# Coordination Sequence:
#
# PCOD9561174 Si02
#       4
#    16  16  16   4
#     4  10  22  45  69  98 143 179 230 297 347 422
#     4  11  26  44  69 102 145 186 235 295 351 430
#     4  10  25  45  70 106 137 186 242 279 367 420
#     4   8  20  44  62 104 124 178 228 276 358 408
#
# _framework density 21.383711000000002
#
# number of rings (size 3 to 8) (size 9 to 14) (size 15 to 20)
#    0.000    1.846    0.000    0.923   12.923    7.385 
#   11.077    1.538    0.000    0.000    0.000    0.000 
#    0.000    0.000    0.000    0.000    0.000    0.000 
#
# Total GULP energy -144908.887649 kJ/mol
# GULP energy per Si atom -5573.418756 kJ/mol
# Density = 2.133504 g / cm^3
# Si number density = 21.383711 Si / 1000 Ang^3
#
#
#
# Elastic Constant Matrix: (Units=GPa)
#
#
# Indices 1 2 3 4 5 6 
#
# 1 75.2198 23.9052 4.4867 0.0000 0.0000 0.0000
# 2 23.9052 75.2198 4.4867 0.0000 0.0000 0.0000
# 3 4.4867 4.4867 43.9092 0.0000 0.0000 0.0000
# 4 0.0000 0.0000 0.0000 30.0189 0.0000 0.0000
# 5 0.0000 0.0000 0.0000 0.0000 30.0189 0.0000
# 6 0.0000 0.0000 0.0000 0.0000 0.0000-2413.5241
#
#
#
# Elastic Compliance Matrix: (Units=1/GPa)
#
#
# Indices 1 2 3 4 5 6 
#
# 1 0.014835 -0.004653 -0.001040 0.000000 0.000000 0.000000
# 2 -0.004653 0.014835 -0.001040 0.000000 0.000000 0.000000
# 3 -0.001040 -0.001040 0.022987 0.000000 0.000000 0.000000
# 4 0.000000 0.000000 0.000000 0.033312 0.000000 0.000000
# 5 0.000000 0.000000 0.000000 0.000000 0.033312 0.000000
# 6 0.000000 0.000000 0.000000 0.000000 0.000000 -0.000414
#
#
# Mechanical properties :
#
#
# Convention : Reuss Voigt Hill
#
# Bulk Modulus (GPa) = 25.51670 28.90064 27.20867
# Shear Modulus (GPa) = 34.38848 -459.93256 -212.77204
#
# Velocity S-wave (km/s) = 4.01454 -14.68170 -9.98589
# Velocity P-wave (km/s) = 5.78337 16.54867 10.96383
#
# Compressibility (1/GPa) = 0.03919002
#
# Stress axis : x y z
#
# Youngs Moduli (GPa) = 67.40796 67.40796 43.50308
#
# Poissons Ratio (x) = 0.31362 0.04526
# Poissons Ratio (y) = 0.31362 0.04526
# Poissons Ratio (z) = 0.07013 0.07013
#
# Static dielectric constant tensor:
#      x y z
#    x 1.792200 0.000000 0.000000 
#    y 0.000000 1.792200 0.000000 
#    z 0.000000 0.000000 4.531750 
# 
# From -- ./inp_files/2175.got.cif
#   From: 2010.05.17/outbox.cif.g08.bks.cpg/sg122_2_cif.got.tgz:2175.got - 2010.05.20 11:37:33.
