data_PCOD9561334
_publ_section_title
;
Structure prediction by ZEFSAII (Michael W. Deem and Ramdas Pophale) SiO2 
 PCOD9561334
Probable space group: I -4 2 D
;
_chemical_formula_sum "Si O2"
_cell_formula_units_Z 68
_cell_length_a 11.948872
_cell_length_b 11.948872
_cell_length_c 23.999627
_cell_angle_alpha 90.000000
_cell_angle_beta 90.000000
_cell_angle_gamma 90.000000
_cell_volume 3426.559754
_symmetry_space_group_name_H-M "I -4 2 D"
_symmetry_group_IT_number 122
_symmetry_cell_setting 'tetragonal'
loop_
_space_group_symop_operation_xyz
x,y,z
y,-x,-z
-x,-y,z
-y,x,-z
x,1/2-y,1/4-z
-x,1/2+y,1/4-z
-y,1/2-x,1/4+z
y,1/2+x,1/4+z
1/2+x,1/2+y,1/2+z
1/2+y,1/2-x,1/2-z
1/2-x,1/2-y,1/2+z
1/2-y,1/2+x,1/2-z
1/2+x,-y,3/4-z
1/2-x,y,3/4-z
1/2-y,-x,3/4+z
1/2+y,x,3/4+z
loop_
_atom_site_type_symbol
_atom_site_label
_atom_site_fract_x
_atom_site_fract_y
_atom_site_fract_z
Si Si1 0.202979 0.397858 0.180422
Si Si2 0.658992 0.298338 0.939331
Si Si3 0.000000 0.500000 0.250000
Si Si4 0.386700 0.566966 0.158178
Si Si5 0.057574 0.814645 0.557181
O O1 0.220711 0.378889 0.112953
O O2 0.249308 0.281349 0.205557
O O3 0.086642 0.433213 0.209260
O O4 0.287799 0.501116 0.187696
O O5 0.676682 0.428631 0.923594
O O6 0.577884 0.312567 0.991708
O O7 0.500000 0.500000 0.169857
O O8 0.379318 0.587607 0.091345
O O9 0.396690 0.693141 0.177603
#
# Coordination Sequence:
#
# PCOD9561334 Si02
#       5
#    16  16   4  16  16
#     4  11  23  45  64  91 133 182 229 280 335 405
#     4  11  22  39  65 100 133 168 227 284 350 403
#     4  12  28  48  68  88 140 200 240 276 320 410
#     4  11  19  39  61  90 131 169 213 274 337 404
#     4  11  22  35  63 101 129 167 216 282 349 407
#
# _framework density 19.844975000000002
#
# number of rings (size 3 to 8) (size 9 to 14) (size 15 to 20)
#    0.000    0.941    4.706    4.235    0.000    0.000 
#    2.118   11.765    0.000    0.000    0.000    0.000 
#    0.000    0.000    0.000    0.000    0.000    0.000 
#
# Total GULP energy -189332.005700 kJ/mol
# GULP energy per Si atom -5568.588403 kJ/mol
# Density = 1.979981 g / cm^3
# Si number density = 19.844975 Si / 1000 Ang^3
#
#
#
# Elastic Constant Matrix: (Units=GPa)
#
#
# Indices 1 2 3 4 5 6 
#
# 1 76.9970 25.9484 21.1373 0.0000 0.0000 0.0000
# 2 25.9484 76.9970 21.1373 0.0000 0.0000 0.0000
# 3 21.1373 21.1373 104.6482 0.0000 0.0000 0.0000
# 4 0.0000 0.0000 0.0000 22.8893 0.0000 0.0000
# 5 0.0000 0.0000 0.0000 0.0000 22.8893 0.0000
# 6 0.0000 0.0000 0.0000 0.0000 0.0000 31.1929
#
#
#
# Elastic Compliance Matrix: (Units=1/GPa)
#
#
# Indices 1 2 3 4 5 6 
#
# 1 0.015091 -0.004498 -0.002140 0.000000 0.000000 0.000000
# 2 -0.004498 0.015091 -0.002140 0.000000 0.000000 0.000000
# 3 -0.002140 -0.002140 0.010420 0.000000 0.000000 0.000000
# 4 0.000000 0.000000 0.000000 0.043688 0.000000 0.000000
# 5 0.000000 0.000000 0.000000 0.000000 0.043688 0.000000
# 6 0.000000 0.000000 0.000000 0.000000 0.000000 0.032059
#
#
# Mechanical properties :
#
#
# Convention : Reuss Voigt Hill
#
# Bulk Modulus (GPa) = 43.38955 43.89869 43.64412
# Shear Modulus (GPa) = 26.98701 28.08894 27.53797
#
# Velocity S-wave (km/s) = 3.69167 3.76629 3.72917
# Velocity P-wave (km/s) = 6.33111 6.40953 6.37044
#
# Compressibility (1/GPa) = 0.02304702
#
# Stress axis : x y z
#
# Youngs Moduli (GPa) = 66.26543 66.26543 95.96820
#
# Poissons Ratio (x) = 0.29808 0.20533
# Poissons Ratio (y) = 0.29808 0.20533
# Poissons Ratio (z) = 0.14178 0.14178
#
# Static dielectric constant tensor:
#      x y z
#    x 1.708260 0.000000 0.000000 
#    y 0.000000 1.708260 0.000000 
#    z 0.000000 0.000000 1.875920 
# 
# From -- ./inp_files/8638.got.cif
#   From: 2010.05.17/outbox.cif.g08.bks.cpg/sg122_5_cif.got.tgz:8638.got - 2010.05.20 11:37:33.
