data_PCOD9561934
_publ_section_title
;
Structure prediction by ZEFSAII (Michael W. Deem and Ramdas Pophale) SiO2 
 PCOD9561934
Probable space group: P 4/M M M
;
_chemical_formula_sum "Si O2"
_cell_formula_units_Z 72
_cell_length_a 16.064075
_cell_length_b 16.064075
_cell_length_c 15.689288
_cell_angle_alpha 90.000000
_cell_angle_beta 90.000000
_cell_angle_gamma 90.000000
_cell_volume 4048.691458
_symmetry_space_group_name_H-M "P 4/M M M"
_symmetry_group_IT_number 123
_symmetry_cell_setting 'tetragonal'
loop_
_space_group_symop_operation_xyz
x,y,z
-y,x,z
-x,-y,z
y,-x,z
x,-y,-z
-x,y,-z
y,x,-z
-y,-x,-z
-x,-y,-z
y,-x,-z
x,y,-z
-y,x,-z
-x,y,z
x,-y,z
-y,-x,z
y,x,z
loop_
_atom_site_type_symbol
_atom_site_label
_atom_site_fract_x
_atom_site_fract_y
_atom_site_fract_z
Si Si1 0.599080 0.599080 0.596615
Si Si2 0.596421 0.856001 0.210568
Si Si3 0.591030 0.000000 0.647873
Si Si4 0.134410 0.000000 0.104025
Si Si5 0.674526 0.000000 0.898398
Si Si6 0.821274 0.178727 0.395673
Si Si7 0.291560 0.708441 0.279125
Si Si8 0.000000 0.771980 0.404783
O O1 0.500000 0.613393 0.603444
O O2 0.624469 0.624469 0.500000
O O3 0.647205 0.647205 0.669859
O O4 0.500000 0.832089 0.195881
O O5 0.629899 0.917439 0.137177
O O6 0.655112 0.776544 0.226542
O O7 0.596758 0.917897 0.292654
O O8 0.672523 0.000000 0.591639
O O9 0.500000 0.000000 0.606562
O O10 0.080994 0.919007 0.130088
O O11 0.229497 0.000000 0.133008
O O12 0.135633 0.000000 0.000000
O O13 0.673586 0.000000 0.000000
O O14 0.815723 0.184278 0.500000
O O15 0.758531 0.241470 0.351662
O O16 0.800257 0.085951 0.365189
O O17 0.000000 0.807976 0.500000
#
# Coordination Sequence:
#
# PCOD9561934 Si02
#       8
#     8  16   8   8   8   8   8   8
#     4   9  19  36  57  82 113 150 191 232 280 341
#     4  10  22  36  54  81 107 140 184 226 281 339
#     4   9  17  34  51  71 106 138 170 220 272 324
#     4   8  15  29  51  81 116 146 171 208 262 318
#     4  10  21  38  62  82 110 150 189 228 272 332
#     4  10  21  34  54  77 103 142 185 223 265 319
#     4  12  20  34  58  79 114 144 178 234 285 326
#     4  10  19  34  50  73 103 137 182 223 262 313
#
# _framework density 17.783522999999999
#
# number of rings (size 3 to 8) (size 9 to 14) (size 15 to 20)
#    0.000    2.222    2.222    2.667    1.556    1.333 
#    0.000    1.111    0.000    0.000    0.000    0.000 
#    0.000    0.000    0.000    6.444    0.000    0.000 
#
# Total GULP energy -401399.332188 kJ/mol
# GULP energy per Si atom -5574.990725 kJ/mol
# Density = 1.774305 g / cm^3
# Si number density = 17.783523 Si / 1000 Ang^3
#
#
#
# Elastic Constant Matrix: (Units=GPa)
#
#
# Indices 1 2 3 4 5 6 
#
# 1 128.9824 76.4615 36.7708 0.0000 0.0000 0.0000
# 2 76.4615 128.9823 36.7708 0.0000 0.0000 0.0000
# 3 36.7708 36.7708 52.2998 0.0000 0.0000 0.0000
# 4 0.0000 0.0000 0.0000 16.4419 0.0000 0.0000
# 5 0.0000 0.0000 0.0000 0.0000 16.4419 0.0000
# 6 0.0000 0.0000 0.0000 0.0000 0.0000 31.9735
#
#
#
# Elastic Compliance Matrix: (Units=1/GPa)
#
#
# Indices 1 2 3 4 5 6 
#
# 1 0.012772 -0.006268 -0.004573 0.000000 0.000000 0.000000
# 2 -0.006268 0.012772 -0.004573 0.000000 0.000000 0.000000
# 3 -0.004573 -0.004573 0.025551 0.000000 0.000000 0.000000
# 4 0.000000 0.000000 0.000000 0.060820 0.000000 0.000000
# 5 0.000000 0.000000 0.000000 0.000000 0.060820 0.000000
# 6 0.000000 0.000000 0.000000 0.000000 0.000000 0.031276
#
#
# Mechanical properties :
#
#
# Convention : Reuss Voigt Hill
#
# Bulk Modulus (GPa) = 49.34020 67.80786 58.57403
# Shear Modulus (GPa) = 20.69571 23.65557 22.17564
#
# Velocity S-wave (km/s) = 3.41509 3.65114 3.53509
# Velocity P-wave (km/s) = 6.58450 7.48243 7.04778
#
# Compressibility (1/GPa) = 0.02026745
#
# Stress axis : x y z
#
# Youngs Moduli (GPa) = 78.29444 78.29435 39.13720
#
# Poissons Ratio (x) = 0.49073 0.17898
# Poissons Ratio (y) = 0.49073 0.17898
# Poissons Ratio (z) = 0.35806 0.35806
#
# Static dielectric constant tensor:
#      x y z
#    x 1.605450 0.000000 0.000000 
#    y 0.000000 1.605450 0.000000 
#    z 0.000000 0.000000 1.614040 
# 
# From -- ./inp_files/5276.got.cif
#   From: 2010.05.17/outbox.cif.g08.bks.cpg/sg123_3_cif.got.tgz:5276.got - 2010.05.20 11:43:04.
