data_PCOD9561289
_publ_section_title
;
Structure prediction by ZEFSAII (Michael W. Deem and Ramdas Pophale) SiO2 
 PCOD9561289
Probable space group: I -4 2 D
;
_chemical_formula_sum "Si O2"
_cell_formula_units_Z 60
_cell_length_a 11.252032
_cell_length_b 11.252032
_cell_length_c 20.252408
_cell_angle_alpha 90.000000
_cell_angle_beta 90.000000
_cell_angle_gamma 90.000000
_cell_volume 2564.121411
_symmetry_space_group_name_H-M "I -4 2 D"
_symmetry_group_IT_number 122
_symmetry_cell_setting 'tetragonal'
loop_
_space_group_symop_operation_xyz
x,y,z
y,-x,-z
-x,-y,z
-y,x,-z
x,1/2-y,1/4-z
-x,1/2+y,1/4-z
-y,1/2-x,1/4+z
y,1/2+x,1/4+z
1/2+x,1/2+y,1/2+z
1/2+y,1/2-x,1/2-z
1/2-x,1/2-y,1/2+z
1/2-y,1/2+x,1/2-z
1/2+x,-y,3/4-z
1/2-x,y,3/4-z
1/2-y,-x,3/4+z
1/2+y,x,3/4+z
loop_
_atom_site_type_symbol
_atom_site_label
_atom_site_fract_x
_atom_site_fract_y
_atom_site_fract_z
Si Si1 0.500000 0.000000 0.750000
Si Si2 0.602369 0.903037 0.009439
Si Si3 0.297234 0.697233 0.056978
Si Si4 0.469047 0.250000 0.125000
Si Si5 0.100720 0.229760 0.048600
O O1 0.576677 0.909814 0.707453
O O2 0.604655 0.845089 0.082675
O O3 0.500000 0.000000 0.010332
O O4 0.588469 0.786297 0.963538
O O5 0.707731 0.980383 0.978014
O O6 0.246017 0.750000 0.125000
O O7 0.435945 0.683928 0.075843
O O8 0.276849 0.794182 0.999159
O O9 0.123457 0.250000 0.125000
#
# Coordination Sequence:
#
# PCOD9561289 Si02
#       5
#     4  16  16   8  16
#     4  12  28  44  72 120 156 200 268 334 416 468
#     4  12  24  48  78 106 155 208 262 335 400 490
#     4  10  24  50  69 111 155 192 272 324 397 482
#     4  10  26  50  72 110 154 202 260 330 390 490
#     4  12  27  45  76 115 154 212 262 332 411 484
#
# _framework density 23.399827999999999
#
# number of rings (size 3 to 8) (size 9 to 14) (size 15 to 20)
#    0.800    0.000    5.333    0.800    3.733    0.000 
#   14.400    0.000    0.000    0.000    0.000    0.000 
#    0.000    0.000    0.000    0.000    0.000    0.000 
#
# Total GULP energy -167269.377172 kJ/mol
# GULP energy per Si atom -5575.645906 kJ/mol
# Density = 2.334657 g / cm^3
# Si number density = 23.399828 Si / 1000 Ang^3
#
#
#
# Elastic Constant Matrix: (Units=GPa)
#
#
# Indices 1 2 3 4 5 6 
#
# 1 47.3949 22.0119 55.3807 0.0000 0.0000 0.0000
# 2 22.0119 47.3949 55.3807 0.0000 0.0000 0.0000
# 3 55.3807 55.3807 192.4055 0.0000 0.0000 0.0000
# 4 0.0000 0.0000 0.0000 40.4770 0.0000 0.0000
# 5 0.0000 0.0000 0.0000 0.0000 40.4770 0.0000
# 6 0.0000 0.0000 0.0000 0.0000 0.0000 28.8577
#
#
#
# Elastic Compliance Matrix: (Units=1/GPa)
#
#
# Indices 1 2 3 4 5 6 
#
# 1 0.033022 -0.006374 -0.007670 0.000000 0.000000 0.000000
# 2 -0.006374 0.033022 -0.007670 0.000000 0.000000 0.000000
# 3 -0.007670 -0.007670 0.009613 0.000000 0.000000 0.000000
# 4 0.000000 0.000000 0.000000 0.024705 0.000000 0.000000
# 5 0.000000 0.000000 0.000000 0.000000 0.024705 0.000000
# 6 0.000000 0.000000 0.000000 0.000000 0.000000 0.034653
#
#
# Mechanical properties :
#
#
# Convention : Reuss Voigt Hill
#
# Bulk Modulus (GPa) = 31.02864 61.41579 46.22222
# Shear Modulus (GPa) = 23.37616 32.25712 27.81664
#
# Velocity S-wave (km/s) = 3.16411 3.71687 3.45157
# Velocity P-wave (km/s) = 5.16118 6.68756 5.97332
#
# Compressibility (1/GPa) = 0.03222829
#
# Stress axis : x y z
#
# Youngs Moduli (GPa) = 30.28255 30.28255 104.02739
#
# Poissons Ratio (x) = 0.19303 0.79791
# Poissons Ratio (y) = 0.19303 0.79791
# Poissons Ratio (z) = 0.23227 0.23227
#
# Static dielectric constant tensor:
#      x y z
#    x 1.948600 0.000000 0.000000 
#    y 0.000000 1.948600 0.000000 
#    z 0.000000 0.000000 1.884230 
# 
# From -- ./inp_files/6998.got.cif
#   From: 2010.05.17/outbox.cif.g08.bks.cpg/sg122_4_cif.got.tgz:6998.got - 2010.05.20 11:37:33.
