data_PCOD9561444
_publ_section_title
;
Structure prediction by ZEFSAII (Michael W. Deem and Ramdas Pophale) SiO2 
 PCOD9561444
Probable space group: I -4 2 D
;
_chemical_formula_sum "Si O2"
_cell_formula_units_Z 36
_cell_length_a 16.028230
_cell_length_b 16.028230
_cell_length_c 5.207360
_cell_angle_alpha 90.000000
_cell_angle_beta 90.000000
_cell_angle_gamma 90.000000
_cell_volume 1337.792431
_symmetry_space_group_name_H-M "I -4 2 D"
_symmetry_group_IT_number 122
_symmetry_cell_setting 'tetragonal'
loop_
_space_group_symop_operation_xyz
x,y,z
y,-x,-z
-x,-y,z
-y,x,-z
x,1/2-y,1/4-z
-x,1/2+y,1/4-z
-y,1/2-x,1/4+z
y,1/2+x,1/4+z
1/2+x,1/2+y,1/2+z
1/2+y,1/2-x,1/2-z
1/2-x,1/2-y,1/2+z
1/2-y,1/2+x,1/2-z
1/2+x,-y,3/4-z
1/2-x,y,3/4-z
1/2-y,-x,3/4+z
1/2+y,x,3/4+z
loop_
_atom_site_type_symbol
_atom_site_label
_atom_site_fract_x
_atom_site_fract_y
_atom_site_fract_z
Si Si1 0.329110 0.553930 0.708007
Si Si2 0.000000 0.000000 0.500000
Si Si3 0.637786 0.199637 0.876800
O O1 0.250000 0.587121 0.875000
O O2 0.337687 0.606126 0.446580
O O3 0.303728 0.461014 0.644560
O O4 0.421501 0.544262 0.845904
O O5 0.660104 0.250000 0.625000
O O6 0.666204 0.250000 0.125000
#
# Coordination Sequence:
#
# PCOD9561444 Si02
#       3
#    16   4  16
#     4  11  24  46  79 116 161 217 279 345 417 507
#     4  12  24  50  84 118 168 226 284 346 424 510
#     4  11  25  46  74 110 155 207 268 342 418 494
#
# _framework density 26.910007
#
# number of rings (size 3 to 8) (size 9 to 14) (size 15 to 20)
#    0.000    0.889    0.000    8.000    0.000    7.111 
#    0.000   11.111    0.000    0.000    0.000    0.000 
#    0.000    0.000    0.000    0.000    0.000    0.000 
#
# Total GULP energy -100764.225913 kJ/mol
# GULP energy per Si atom -5598.012551 kJ/mol
# Density = 2.684876 g / cm^3
# Si number density = 26.910007 Si / 1000 Ang^3
#
#
#
# Elastic Constant Matrix: (Units=GPa)
#
#
# Indices 1 2 3 4 5 6 
#
# 1 206.4533 35.2049 91.6893 0.0000 0.0000 0.0000
# 2 35.2049 206.4533 91.6893 0.0000 0.0000 0.0000
# 3 91.6893 91.6893 219.7070 0.0000 0.0000 0.0000
# 4 0.0000 0.0000 0.0000 90.1036 0.0000 0.0000
# 5 0.0000 0.0000 0.0000 0.0000 90.1036 0.0000
# 6 0.0000 0.0000 0.0000 0.0000 0.0000 74.4005
#
#
#
# Elastic Compliance Matrix: (Units=1/GPa)
#
#
# Indices 1 2 3 4 5 6 
#
# 1 0.005948 0.000108 -0.002527 0.000000 0.000000 0.000000
# 2 0.000108 0.005948 -0.002527 0.000000 0.000000 0.000000
# 3 -0.002527 -0.002527 0.006661 0.000000 0.000000 0.000000
# 4 0.000000 0.000000 0.000000 0.011098 0.000000 0.000000
# 5 0.000000 0.000000 0.000000 0.000000 0.011098 0.000000
# 6 0.000000 0.000000 0.000000 0.000000 0.000000 0.013441
#
#
# Mechanical properties :
#
#
# Convention : Reuss Voigt Hill
#
# Bulk Modulus (GPa) = 115.42606 118.86451 117.14529
# Shear Modulus (GPa) = 74.65565 78.52355 76.58960
#
# Velocity S-wave (km/s) = 5.27285 5.40772 5.34071
# Velocity P-wave (km/s) = 8.94746 9.12459 9.03646
#
# Compressibility (1/GPa) = 0.00866355
#
# Stress axis : x y z
#
# Youngs Moduli (GPa) = 168.13335 168.13335 150.12996
#
# Poissons Ratio (x) = -0.01819 0.37942
# Poissons Ratio (y) = -0.01819 0.37942
# Poissons Ratio (z) = 0.42492 0.42492
#
# Static dielectric constant tensor:
#      x y z
#    x 1.955630 0.000000 0.000000 
#    y 0.000000 1.955630 0.000000 
#    z 0.000000 0.000000 2.102970 
# 
# From -- ./inp_files/329.got.cif
#   From: 2010.05.17/outbox.cif.g08.bks.cpg/sg122_1_cif.got.tgz:329.got - 2010.05.20 11:37:33.
