data_PCOD9561293
_publ_section_title
;
Structure prediction by ZEFSAII (Michael W. Deem and Ramdas Pophale) SiO2 
 PCOD9561293
Probable space group: I -4 2 D
;
_chemical_formula_sum "Si O2"
_cell_formula_units_Z 72
_cell_length_a 11.003462
_cell_length_b 11.003462
_cell_length_c 26.626886
_cell_angle_alpha 90.000000
_cell_angle_beta 90.000000
_cell_angle_gamma 90.000000
_cell_volume 3223.881535
_symmetry_space_group_name_H-M "I -4 2 D"
_symmetry_group_IT_number 122
_symmetry_cell_setting 'tetragonal'
loop_
_space_group_symop_operation_xyz
x,y,z
y,-x,-z
-x,-y,z
-y,x,-z
x,1/2-y,1/4-z
-x,1/2+y,1/4-z
-y,1/2-x,1/4+z
y,1/2+x,1/4+z
1/2+x,1/2+y,1/2+z
1/2+y,1/2-x,1/2-z
1/2-x,1/2-y,1/2+z
1/2-y,1/2+x,1/2-z
1/2+x,-y,3/4-z
1/2-x,y,3/4-z
1/2-y,-x,3/4+z
1/2+y,x,3/4+z
loop_
_atom_site_type_symbol
_atom_site_label
_atom_site_fract_x
_atom_site_fract_y
_atom_site_fract_z
Si Si1 0.744577 0.399991 0.193313
Si Si2 0.711042 0.652355 0.243569
Si Si3 0.344306 0.666696 0.915194
Si Si4 0.051374 0.365441 0.408997
Si Si5 0.936428 0.250000 0.625000
O O1 0.697765 0.533467 0.209010
O O2 0.808321 0.347906 0.243084
O O3 0.838580 0.407716 0.147512
O O4 0.642275 0.310216 0.169611
O O5 0.654903 0.767903 0.215819
O O6 0.650925 0.637043 0.297625
O O7 0.250000 0.726824 0.875000
O O8 0.457623 0.754884 0.919950
O O9 0.354063 0.529371 0.894600
O O10 0.000000 0.500000 0.411222
#
# Coordination Sequence:
#
# PCOD9561293 Si02
#       5
#    16  16  16  16   8
#     4  12  26  50  73 113 152 205 254 322 387 482
#     4  12  27  45  78 108 148 198 252 312 399 456
#     4  10  25  45  74 108 143 191 249 321 380 456
#     4  12  27  46  73 110 153 201 254 312 388 475
#     4  10  24  52  74 100 152 196 260 320 392 454
#
# _framework density 22.333327000000001
#
# number of rings (size 3 to 8) (size 9 to 14) (size 15 to 20)
#    0.667    0.000    4.444    1.333    9.333    4.444 
#    0.000    0.000    0.000    0.000    0.000    0.000 
#    0.000    0.000    0.000    0.000    0.000    0.000 
#
# Total GULP energy -200993.892523 kJ/mol
# GULP energy per Si atom -5583.163681 kJ/mol
# Density = 2.228250 g / cm^3
# Si number density = 22.333327 Si / 1000 Ang^3
#
#
#
# Elastic Constant Matrix: (Units=GPa)
#
#
# Indices 1 2 3 4 5 6 
#
# 1 88.6412 32.0379 11.3324 0.0000 0.0000 0.0000
# 2 32.0379 88.6412 11.3324 0.0000 0.0000 0.0000
# 3 11.3324 11.3324 74.1347 0.0000 0.0000 0.0000
# 4 0.0000 0.0000 0.0000 27.1164 0.0000 0.0000
# 5 0.0000 0.0000 0.0000 0.0000 27.1164 0.0000
# 6 0.0000 0.0000 0.0000 0.0000 0.0000 11.0401
#
#
#
# Elastic Compliance Matrix: (Units=1/GPa)
#
#
# Indices 1 2 3 4 5 6 
#
# 1 0.013099 -0.004568 -0.001304 0.000000 0.000000 0.000000
# 2 -0.004568 0.013099 -0.001304 0.000000 0.000000 0.000000
# 3 -0.001304 -0.001304 0.013888 0.000000 0.000000 0.000000
# 4 0.000000 0.000000 0.000000 0.036878 0.000000 0.000000
# 5 0.000000 0.000000 0.000000 0.000000 0.036878 0.000000
# 6 0.000000 0.000000 0.000000 0.000000 0.000000 0.090579
#
#
# Mechanical properties :
#
#
# Convention : Reuss Voigt Hill
#
# Bulk Modulus (GPa) = 38.85924 40.09138 39.47531
# Shear Modulus (GPa) = 21.99245 26.16887 24.08066
#
# Velocity S-wave (km/s) = 3.14146 3.42678 3.28722
# Velocity P-wave (km/s) = 5.53134 5.80064 5.66759
#
# Compressibility (1/GPa) = 0.02573390
#
# Stress axis : x y z
#
# Youngs Moduli (GPa) = 76.34121 76.34121 72.00636
#
# Poissons Ratio (x) = 0.34870 0.09391
# Poissons Ratio (y) = 0.34870 0.09391
# Poissons Ratio (z) = 0.09956 0.09956
#
# Static dielectric constant tensor:
#      x y z
#    x 1.882010 0.000000 0.000000 
#    y 0.000000 1.882010 0.000000 
#    z 0.000000 0.000000 1.833650 
# 
# From -- ./inp_files/8640.got.cif
#   From: 2010.05.17/outbox.cif.g08.bks.cpg/sg122_5_cif.got.tgz:8640.got - 2010.05.20 11:37:33.
