data_PCOD9561130
_publ_section_title
;
Structure prediction by ZEFSAII (Michael W. Deem and Ramdas Pophale) SiO2 
 PCOD9561130
Probable space group: I -4 2 D
;
_chemical_formula_sum "Si O2"
_cell_formula_units_Z 56
_cell_length_a 22.332772
_cell_length_b 22.332772
_cell_length_c 5.026120
_cell_angle_alpha 90.000000
_cell_angle_beta 90.000000
_cell_angle_gamma 90.000000
_cell_volume 2506.790947
_symmetry_space_group_name_H-M "I -4 2 D"
_symmetry_group_IT_number 122
_symmetry_cell_setting 'tetragonal'
loop_
_space_group_symop_operation_xyz
x,y,z
y,-x,-z
-x,-y,z
-y,x,-z
x,1/2-y,1/4-z
-x,1/2+y,1/4-z
-y,1/2-x,1/4+z
y,1/2+x,1/4+z
1/2+x,1/2+y,1/2+z
1/2+y,1/2-x,1/2-z
1/2-x,1/2-y,1/2+z
1/2-y,1/2+x,1/2-z
1/2+x,-y,3/4-z
1/2-x,y,3/4-z
1/2-y,-x,3/4+z
1/2+y,x,3/4+z
loop_
_atom_site_type_symbol
_atom_site_label
_atom_site_fract_x
_atom_site_fract_y
_atom_site_fract_z
Si Si1 0.393703 0.089420 0.096025
Si Si2 0.538993 0.870639 0.618929
Si Si3 0.688287 0.193582 0.266434
Si Si4 0.599095 0.750000 0.625000
O O1 0.416672 0.100631 0.395872
O O2 0.342383 0.140731 0.051927
O O3 0.449663 0.094357 0.892635
O O4 0.368417 0.024751 0.023401
O O5 0.557266 0.804091 0.710957
O O6 0.656840 0.250000 0.125000
O O7 0.750000 0.221677 0.375000
O O8 0.717848 0.142074 0.085197
#
# Coordination Sequence:
#
# PCOD9561130 Si02
#       4
#    16  16  16   8
#     4  11  25  44  69 101 135 181 231 279 344 410
#     4  11  24  45  67  98 136 179 226 283 341 410
#     4  11  21  41  69 102 136 180 230 288 350 419
#     4  10  22  42  64  90 146 174 216 286 352 402
#
# _framework density 22.339319
#
# number of rings (size 3 to 8) (size 9 to 14) (size 15 to 20)
#    0.000    1.143    4.286    1.714    0.000    3.429 
#   18.000    0.000    0.000    0.000    0.000    0.000 
#    0.000    0.000    0.000    0.000    0.000    0.000 
#
# Total GULP energy -155966.766831 kJ/mol
# GULP energy per Si atom -5570.241673 kJ/mol
# Density = 2.228847 g / cm^3
# Si number density = 22.339319 Si / 1000 Ang^3
#
#
#
# Elastic Constant Matrix: (Units=GPa)
#
#
# Indices 1 2 3 4 5 6 
#
# 1 103.4222 38.5831 9.0390 0.0000 0.0000 0.0000
# 2 38.5831 103.4222 9.0390 0.0000 0.0000 0.0000
# 3 9.0390 9.0390 69.8326 0.0000 0.0000 0.0000
# 4 0.0000 0.0000 0.0000 29.5146 0.0000 0.0000
# 5 0.0000 0.0000 0.0000 0.0000 29.5146 0.0000
# 6 0.0000 0.0000 0.0000 0.0000 0.0000 6.8901
#
#
#
# Elastic Compliance Matrix: (Units=1/GPa)
#
#
# Indices 1 2 3 4 5 6 
#
# 1 0.011291 -0.004131 -0.000927 0.000000 0.000000 0.000000
# 2 -0.004131 0.011291 -0.000927 0.000000 0.000000 0.000000
# 3 -0.000927 -0.000927 0.014560 0.000000 0.000000 0.000000
# 4 0.000000 0.000000 0.000000 0.033882 0.000000 0.000000
# 5 0.000000 0.000000 0.000000 0.000000 0.033882 0.000000
# 6 0.000000 0.000000 0.000000 0.000000 0.000000 0.145137
#
#
# Mechanical properties :
#
#
# Convention : Reuss Voigt Hill
#
# Bulk Modulus (GPa) = 39.72555 43.33326 41.52941
# Shear Modulus (GPa) = 18.49090 27.85159 23.17125
#
# Velocity S-wave (km/s) = 2.88015 3.53477 3.22412
# Velocity P-wave (km/s) = 5.37417 6.00827 5.70005
#
# Compressibility (1/GPa) = 0.02517272
#
# Stress axis : x y z
#
# Youngs Moduli (GPa) = 88.56312 88.56312 68.68192
#
# Poissons Ratio (x) = 0.36589 0.06365
# Poissons Ratio (y) = 0.36589 0.06365
# Poissons Ratio (z) = 0.08208 0.08208
#
# Static dielectric constant tensor:
#      x y z
#    x 1.867690 0.000000 0.000000 
#    y 0.000000 1.867690 0.000000 
#    z 0.000000 0.000000 1.960410 
# 
# From -- ./inp_files/856.got.cif
#   From: 2010.05.17/outbox.cif.g08.bks.cpg/sg122_1_cif.got.tgz:856.got - 2010.05.20 11:37:33.
