data_PCOD9561942
_publ_section_title
;
Structure prediction by ZEFSAII (Michael W. Deem and Ramdas Pophale) SiO2 
 PCOD9561942
Probable space group: P 4/M M M
;
_chemical_formula_sum "Si O2"
_cell_formula_units_Z 80
_cell_length_a 12.998663
_cell_length_b 12.998663
_cell_length_c 29.053278
_cell_angle_alpha 90.000000
_cell_angle_beta 90.000000
_cell_angle_gamma 90.000000
_cell_volume 4908.994084
_symmetry_space_group_name_H-M "P 4/M M M"
_symmetry_group_IT_number 123
_symmetry_cell_setting 'tetragonal'
loop_
_space_group_symop_operation_xyz
x,y,z
-y,x,z
-x,-y,z
y,-x,z
x,-y,-z
-x,y,-z
y,x,-z
-y,-x,-z
-x,-y,-z
y,-x,-z
x,y,-z
-y,x,-z
-x,y,z
x,-y,z
-y,-x,z
y,x,z
loop_
_atom_site_type_symbol
_atom_site_label
_atom_site_fract_x
_atom_site_fract_y
_atom_site_fract_z
Si Si1 0.875329 0.500000 0.447220
Si Si2 0.121550 0.706556 0.391732
Si Si3 0.122236 0.877764 0.948048
Si Si4 0.377709 0.622292 0.051952
Si Si5 0.211235 0.622663 0.700692
Si Si6 0.622589 0.880325 0.198249
Si Si7 0.750055 0.249946 0.125277
O O1 0.839847 0.500000 0.500000
O O2 0.846295 0.394132 0.421490
O O3 0.000000 0.500000 0.447045
O O4 0.196279 0.803722 0.401224
O O5 0.140272 0.671820 0.338931
O O6 0.000000 0.727718 0.399493
O O7 0.181160 0.818841 0.908418
O O8 0.000000 0.860254 0.944185
O O9 0.153515 0.846486 0.000000
O O10 0.360284 0.500000 0.055767
O O11 0.319242 0.680759 0.091903
O O12 0.346344 0.653657 0.000000
O O13 0.216949 0.500000 0.694364
O O14 0.321114 0.678887 0.696788
O O15 0.166133 0.643858 0.751291
O O16 0.500000 0.872567 0.190986
O O17 0.680926 0.819548 0.158639
O O18 0.651488 0.000000 0.197792
#
# Coordination Sequence:
#
# PCOD9561942 Si02
#       7
#     8  16   8   8  16  16   8
#     4   9  18  34  56  83 111 143 189 238 278 323
#     4  10  20  34  56  83 111 149 189 232 279 329
#     4   9  19  35  53  73  97 129 171 214 254 300
#     4   9  19  35  53  73  99 131 165 204 253 312
#     4  10  19  34  54  78 106 142 183 219 262 316
#     4  10  21  34  49  72 103 135 166 208 255 308
#     4  12  19  32  52  78 100 130 167 210 256 304
#
# _framework density 16.296617999999999
#
# number of rings (size 3 to 8) (size 9 to 14) (size 15 to 20)
#    0.000    2.100    2.000    2.700    0.000    1.600 
#    0.000    0.000    0.000    0.300    0.000   11.900 
#    0.000    0.000    0.000    0.000    0.000    0.000 
#
# Total GULP energy -446094.947489 kJ/mol
# GULP energy per Si atom -5576.186844 kJ/mol
# Density = 1.625953 g / cm^3
# Si number density = 16.296618 Si / 1000 Ang^3
#
#
#
# Elastic Constant Matrix: (Units=GPa)
#
#
# Indices 1 2 3 4 5 6 
#
# 1 82.7912 62.1842 48.8299 0.0000 0.0000 0.0000
# 2 62.1842 82.7911 48.8299 0.0000 0.0000 0.0000
# 3 48.8299 48.8299 116.5650 0.0000 0.0000 0.0000
# 4 0.0000 0.0000 0.0000 23.2601 0.0000 0.0000
# 5 0.0000 0.0000 0.0000 0.0000 23.2601 0.0000
# 6 0.0000 0.0000 0.0000 0.0000 0.0000 23.5947
#
#
#
# Elastic Compliance Matrix: (Units=1/GPa)
#
#
# Indices 1 2 3 4 5 6 
#
# 1 0.029068 -0.019459 -0.004025 0.000000 0.000000 0.000000
# 2 -0.019459 0.029068 -0.004025 0.000000 0.000000 0.000000
# 3 -0.004025 -0.004025 0.011951 0.000000 0.000000 0.000000
# 4 0.000000 0.000000 0.000000 0.042992 0.000000 0.000000
# 5 0.000000 0.000000 0.000000 0.000000 0.042992 0.000000
# 6 0.000000 0.000000 0.000000 0.000000 0.000000 0.042382
#
#
# Mechanical properties :
#
#
# Convention : Reuss Voigt Hill
#
# Bulk Modulus (GPa) = 66.36367 66.87058 66.61713
# Shear Modulus (GPa) = 19.34257 22.17655 20.75956
#
# Velocity S-wave (km/s) = 3.44889 3.69291 3.57299
# Velocity P-wave (km/s) = 7.52798 7.70104 7.61500
#
# Compressibility (1/GPa) = 0.01506849
#
# Stress axis : x y z
#
# Youngs Moduli (GPa) = 34.40166 34.40162 83.67175
#
# Poissons Ratio (x) = 0.66942 0.33681
# Poissons Ratio (y) = 0.66942 0.33682
# Poissons Ratio (z) = 0.13848 0.13848
#
# Static dielectric constant tensor:
#      x y z
#    x 1.529470 0.000000 0.000000 
#    y 0.000000 1.529470 0.000000 
#    z 0.000000 0.000000 1.536710 
# 
# From -- ./inp_files/8428.got.cif
#   From: 2010.05.17/outbox.cif.g08.bks.cpg/sg123_5_cif.got.tgz:8428.got - 2010.05.20 11:43:04.
