data_PCOD9561676
_publ_section_title
;
Structure prediction by ZEFSAII (Michael W. Deem and Ramdas Pophale) SiO2 
 PCOD9561676
Probable space group: P 4/M M M
;
_chemical_formula_sum "Si O2"
_cell_formula_units_Z 72
_cell_length_a 20.657951
_cell_length_b 20.657951
_cell_length_c 7.535680
_cell_angle_alpha 90.000000
_cell_angle_beta 90.000000
_cell_angle_gamma 90.000000
_cell_volume 3215.858520
_symmetry_space_group_name_H-M "P 4/M M M"
_symmetry_group_IT_number 123
_symmetry_cell_setting 'tetragonal'
loop_
_space_group_symop_operation_xyz
x,y,z
-y,x,z
-x,-y,z
y,-x,z
x,-y,-z
-x,y,-z
y,x,-z
-y,-x,-z
-x,-y,-z
y,-x,-z
x,y,-z
-y,x,-z
-x,y,z
x,-y,z
-y,-x,z
y,x,z
loop_
_atom_site_type_symbol
_atom_site_label
_atom_site_fract_x
_atom_site_fract_y
_atom_site_fract_z
Si Si1 0.745578 0.642382 0.717429
Si Si2 0.072615 0.500000 0.789351
Si Si3 0.000000 0.106136 0.716126
Si Si4 0.255850 0.500000 0.694278
Si Si5 0.647877 0.114143 0.711793
Si Si6 0.394584 0.500000 0.209233
Si Si7 0.000000 0.257695 0.718028
O O1 0.740928 0.638125 0.500000
O O2 0.684485 0.684485 0.777369
O O3 0.752966 0.568883 0.784530
O O4 0.814663 0.671525 0.766559
O O5 0.102905 0.429286 0.746311
O O6 0.000000 0.500000 0.712759
O O7 0.069281 0.500000 0.000000
O O8 0.000000 0.181859 0.773142
O O9 0.936759 0.063242 0.769034
O O10 0.000000 0.107070 0.500000
O O11 0.222603 0.500000 0.500000
O O12 0.332446 0.500000 0.675269
O O13 0.652171 0.112154 0.500000
O O14 0.697946 0.060497 0.778159
O O15 0.438003 0.438003 0.244475
O O16 0.378377 0.500000 0.000000
O O17 0.000000 0.256576 0.500000
#
# Coordination Sequence:
#
# PCOD9561676 Si02
#       7
#    16   8   8   8  16   8   8
#     4   9  18  31  48  73 103 133 165 208 261 303
#     4  11  22  35  53  77 105 137 172 215 263 313
#     4   8  14  25  41  66 106 147 172 199 250 309
#     4  10  18  30  48  66  86 117 161 201 235 288
#     4  10  19  33  53  76 103 135 174 217 257 304
#     4   9  18  31  45  63  87 112 142 187 243 293
#     4   9  17  27  45  73  97 127 174 212 240 291
#
# _framework density 22.389043000000001
#
# number of rings (size 3 to 8) (size 9 to 14) (size 15 to 20)
#    0.000    2.556    1.111    2.333    0.000    4.444 
#    0.000    7.222    0.000    2.000    0.000    0.000 
#    0.000    0.889    0.000    4.889    0.000    4.444 
#
# Total GULP energy -401190.294331 kJ/mol
# GULP energy per Si atom -5572.087421 kJ/mol
# Density = 2.233808 g / cm^3
# Si number density = 22.389043 Si / 1000 Ang^3
#
#
#
# Elastic Constant Matrix: (Units=GPa)
#
#
# Indices 1 2 3 4 5 6 
#
# 1 173.9092 83.1417 4.6738 0.0000 0.0000 0.0000
# 2 83.1417 173.9092 4.6738 0.0000 0.0000 0.0000
# 3 4.6738 4.6738 44.3982 0.0000 0.0000 0.0000
# 4 0.0000 0.0000 0.0000 2.0543 0.0000 0.0000
# 5 0.0000 0.0000 0.0000 0.0000 2.0543 0.0000
# 6 0.0000 0.0000 0.0000 0.0000 0.0000 -8.4970
#
#
#
# Elastic Compliance Matrix: (Units=1/GPa)
#
#
# Indices 1 2 3 4 5 6 
#
# 1 0.007461 -0.003556 -0.000411 0.000000 0.000000 0.000000
# 2 -0.003556 0.007461 -0.000411 0.000000 0.000000 0.000000
# 3 -0.000411 -0.000411 0.022610 0.000000 0.000000 0.000000
# 4 0.000000 0.000000 0.000000 0.486793 0.000000 0.000000
# 5 0.000000 0.000000 0.000000 0.000000 0.486793 0.000000
# 6 0.000000 0.000000 0.000000 0.000000 0.000000 -0.117688
#
#
# Mechanical properties :
#
#
# Convention : Reuss Voigt Hill
#
# Bulk Modulus (GPa) = 34.75114 64.13279 49.44197
# Shear Modulus (GPa) = 5.48378 19.10413 12.29396
#
# Velocity S-wave (km/s) = 1.56673 2.92427 2.34584
# Velocity P-wave (km/s) = 4.33913 6.33314 5.42848
#
# Compressibility (1/GPa) = 0.02877603
#
# Stress axis : x y z
#
# Youngs Moduli (GPa) = 134.02686 134.02686 44.22827
#
# Poissons Ratio (x) = 0.47659 0.01818
# Poissons Ratio (y) = 0.47659 0.01818
# Poissons Ratio (z) = 0.05510 0.05510
#
# Static dielectric constant tensor:
#      x y z
#    x 1.868160 0.000000 0.000000 
#    y 0.000000 1.868160 0.000000 
#    z 0.000000 0.000000 1.873640 
# 
# From -- ./inp_files/1242.got.cif
#   From: 2010.05.17/outbox.cif.g08.bks.cpg/sg123_1_cif.got.tgz:1242.got - 2010.05.20 11:43:04.
