data_PCOD9561653
_publ_section_title
;
Structure prediction by ZEFSAII (Michael W. Deem and Ramdas Pophale) SiO2 
 PCOD9561653
Probable space group: P 4/M M M
;
_chemical_formula_sum "Si O2"
_cell_formula_units_Z 80
_cell_length_a 24.965597
_cell_length_b 24.965597
_cell_length_c 9.312943
_cell_angle_alpha 90.000000
_cell_angle_beta 90.000000
_cell_angle_gamma 90.000000
_cell_volume 5804.580739
_symmetry_space_group_name_H-M "P 4/M M M"
_symmetry_group_IT_number 123
_symmetry_cell_setting 'tetragonal'
loop_
_space_group_symop_operation_xyz
x,y,z
-y,x,z
-x,-y,z
y,-x,z
x,-y,-z
-x,y,-z
y,x,-z
-y,-x,-z
-x,-y,-z
y,-x,-z
x,y,-z
-y,x,-z
-x,y,z
x,-y,z
-y,-x,z
y,x,z
loop_
_atom_site_type_symbol
_atom_site_label
_atom_site_fract_x
_atom_site_fract_y
_atom_site_fract_z
Si Si1 0.710399 0.000000 0.663875
Si Si2 0.111693 0.561540 0.829615
Si Si3 0.655778 0.808719 0.166045
Si Si4 0.000000 0.582297 0.665424
Si Si5 0.177008 0.822993 0.334785
Si Si6 0.102225 0.250296 0.834965
Si Si7 0.730701 0.269300 0.666010
O O1 0.729269 0.948434 0.749261
O O2 0.729922 0.000000 0.500000
O O3 0.646391 0.000000 0.661357
O O4 0.129791 0.500000 0.815213
O O5 0.157851 0.603517 0.781854
O O6 0.054961 0.566646 0.746943
O O7 0.102040 0.572480 0.000000
O O8 0.702793 0.853214 0.165957
O O9 0.679931 0.758687 0.255158
O O10 0.646603 0.792406 0.000000
O O11 0.000000 0.562947 0.500000
O O12 0.165088 0.834913 0.500000
O O13 0.127537 0.799116 0.248892
O O14 0.223170 0.776831 0.333428
O O15 0.089816 0.238021 0.000000
O O16 0.718484 0.281517 0.500000
#
# Coordination Sequence:
#
# PCOD9561653 Si02
#       7
#     8  16  16   8   8  16   8
#     4  11  21  30  42  61  84 111 139 174 217 256
#     4  10  20  33  47  61  80 111 150 187 220 254
#     4   9  17  29  44  61  81 105 136 174 213 253
#     4  11  22  32  43  58  82 112 147 187 225 256
#     4   9  17  29  43  61  85 106 126 161 208 256
#     4  10  18  29  45  62  80 106 138 170 206 253
#     4   9  17  27  43  63  81 103 130 165 210 259
#
# _framework density 13.782219
#
# number of rings (size 3 to 8) (size 9 to 14) (size 15 to 20)
#    0.000    2.200    2.000    2.100    0.000    6.400 
#    0.000    0.000    0.000    0.000    0.000    0.000 
#    0.000    0.400    0.000    4.000    0.000    2.900 
#
# Total GULP energy -445647.352314 kJ/mol
# GULP energy per Si atom -5570.591904 kJ/mol
# Density = 1.375085 g / cm^3
# Si number density = 13.782219 Si / 1000 Ang^3
#
#
#
# Elastic Constant Matrix: (Units=GPa)
#
#
# Indices 1 2 3 4 5 6 
#
# 1 60.7409 41.9454 42.1813 0.0000 0.0000 0.0000
# 2 41.9454 60.7408 42.1812 0.0000 0.0000 0.0000
# 3 42.1813 42.1812 102.8027 0.0000 0.0000 0.0000
# 4 0.0000 0.0000 0.0000 11.9967 0.0000 0.0000
# 5 0.0000 0.0000 0.0000 0.0000 11.9969 0.0000
# 6 0.0000 0.0000 0.0000 0.0000 0.0000 195.2117
#
#
#
# Elastic Compliance Matrix: (Units=1/GPa)
#
#
# Indices 1 2 3 4 5 6 
#
# 1 0.033947 -0.019257 -0.006028 0.000000 0.000000 0.000000
# 2 -0.019257 0.033947 -0.006028 0.000000 0.000000 0.000000
# 3 -0.006028 -0.006028 0.014674 0.000000 0.000000 0.000000
# 4 0.000000 0.000000 0.000000 0.083356 0.000000 0.000000
# 5 0.000000 0.000000 0.000000 0.000000 0.083355 0.000000
# 6 0.000000 0.000000 0.000000 0.000000 0.000000 0.005123
#
#
# Mechanical properties :
#
#
# Convention : Reuss Voigt Hill
#
# Bulk Modulus (GPa) = 50.14027 52.98891 51.56459
# Shear Modulus (GPa) = 15.44760 50.37283 32.91021
#
# Velocity S-wave (km/s) = 3.35152 6.05215 4.89189
# Velocity P-wave (km/s) = 7.17191 9.34713 8.33082
#
# Compressibility (1/GPa) = 0.01994405
#
# Stress axis : x y z
#
# Youngs Moduli (GPa) = 29.45737 29.45732 68.14851
#
# Poissons Ratio (x) = 0.56726 0.41078
# Poissons Ratio (y) = 0.56726 0.41078
# Poissons Ratio (z) = 0.17756 0.17756
#
# Static dielectric constant tensor:
#      x y z
#    x 1.419830 0.000000 0.000000 
#    y 0.000000 1.419830 0.000000 
#    z 0.000000 0.000000 1.472470 
# 
# From -- ./inp_files/1517.got.cif
#   From: 2010.05.17/outbox.cif.g08.bks.cpg/sg123_1_cif.got.tgz:1517.got - 2010.05.20 11:43:04.
