data_PCOD9561261
_publ_section_title
;
Structure prediction by ZEFSAII (Michael W. Deem and Ramdas Pophale) SiO2 
 PCOD9561261
Probable space group: I -4 2 D
;
_chemical_formula_sum "Si O2"
_cell_formula_units_Z 56
_cell_length_a 17.321787
_cell_length_b 17.321787
_cell_length_c 8.248898
_cell_angle_alpha 90.000000
_cell_angle_beta 90.000000
_cell_angle_gamma 90.000000
_cell_volume 2475.034866
_symmetry_space_group_name_H-M "I -4 2 D"
_symmetry_group_IT_number 122
_symmetry_cell_setting 'tetragonal'
loop_
_space_group_symop_operation_xyz
x,y,z
y,-x,-z
-x,-y,z
-y,x,-z
x,1/2-y,1/4-z
-x,1/2+y,1/4-z
-y,1/2-x,1/4+z
y,1/2+x,1/4+z
1/2+x,1/2+y,1/2+z
1/2+y,1/2-x,1/2-z
1/2-x,1/2-y,1/2+z
1/2-y,1/2+x,1/2-z
1/2+x,-y,3/4-z
1/2-x,y,3/4-z
1/2-y,-x,3/4+z
1/2+y,x,3/4+z
loop_
_atom_site_type_symbol
_atom_site_label
_atom_site_fract_x
_atom_site_fract_y
_atom_site_fract_z
Si Si1 0.750000 0.255893 0.375000
Si Si2 0.614533 0.040745 0.802466
Si Si3 0.114173 0.961971 0.564933
Si Si4 0.132426 0.243689 0.858977
O O1 0.795349 0.195179 0.261216
O O2 0.712535 0.313798 0.244524
O O3 0.539728 0.094618 0.782903
O O4 0.623124 0.024286 0.992787
O O5 0.684138 0.081458 0.709105
O O6 0.193501 0.920066 0.520453
O O7 0.041496 0.906409 0.525394
#
# Coordination Sequence:
#
# PCOD9561261 Si02
#       4
#     8  16  16  16
#     4  10  24  44  68 100 142 174 230 296 346 422
#     4  11  24  44  68 101 140 186 234 289 353 431
#     4  11  24  44  69 101 140 184 235 289 353 433
#     4  11  24  47  70 104 142 182 235 295 359 412
#
# _framework density 22.625945000000002
#
# number of rings (size 3 to 8) (size 9 to 14) (size 15 to 20)
#    0.000    1.143    2.857    3.429    8.000    2.286 
#    5.143    0.000    0.000    0.000    0.000    0.000 
#    0.000    0.000    0.000    0.000    0.000    0.000 
#
# Total GULP energy -156169.788164 kJ/mol
# GULP energy per Si atom -5577.492434 kJ/mol
# Density = 2.257445 g / cm^3
# Si number density = 22.625945 Si / 1000 Ang^3
#
#
#
# Elastic Constant Matrix: (Units=GPa)
#
#
# Indices 1 2 3 4 5 6 
#
# 1 77.8451 88.4156 19.6608 0.0000 0.0000 0.0000
# 2 88.4156 77.8451 19.6608 0.0000 0.0000 0.0000
# 3 19.6608 19.6608 55.8775 0.0000 0.0000 0.0000
# 4 0.0000 0.0000 0.0000 45.4619 0.0000 0.0000
# 5 0.0000 0.0000 0.0000 0.0000 45.4619 0.0000
# 6 0.0000 0.0000 0.0000 0.0000 0.0000 -2.0874
#
#
#
# Elastic Compliance Matrix: (Units=1/GPa)
#
#
# Indices 1 2 3 4 5 6 
#
# 1 -0.044021 0.050582 -0.002308 0.000000 0.000000 0.000000
# 2 0.050582 -0.044021 -0.002308 0.000000 0.000000 0.000000
# 3 -0.002308 -0.002308 0.019521 0.000000 0.000000 0.000000
# 4 0.000000 0.000000 0.000000 0.021996 0.000000 0.000000
# 5 0.000000 0.000000 0.000000 0.000000 0.021996 0.000000
# 6 0.000000 0.000000 0.000000 0.000000 0.000000 -0.479073
#
#
# Mechanical properties :
#
#
# Convention : Reuss Voigt Hill
#
# Bulk Modulus (GPa) = 42.71973 51.89358 47.30665
# Shear Modulus (GPa) = -8.50731 23.35599 7.42434
#
# Velocity S-wave (km/s) = -1.94117 3.21638 1.81341
# Velocity P-wave (km/s) = 3.72796 6.06454 5.03370
#
# Compressibility (1/GPa) = 0.02340839
#
# Stress axis : x y z
#
# Youngs Moduli (GPa) = -22.71621 -22.71621 51.22758
#
# Poissons Ratio (x) = 1.14903 0.11825
# Poissons Ratio (y) = 1.14903 0.11825
# Poissons Ratio (z) = -0.05244 -0.05244
#
# Static dielectric constant tensor:
#      x y z
#    x 1.831760 0.000000 0.000000 
#    y 0.000000 1.831760 0.000000 
#    z 0.000000 0.000000 1.936810 
# 
# From -- ./inp_files/2424.got.cif
#   From: 2010.05.17/outbox.cif.g08.bks.cpg/sg122_2_cif.got.tgz:2424.got - 2010.05.20 11:37:33.
