data_PCOD9561440
_publ_section_title
;
Structure prediction by ZEFSAII (Michael W. Deem and Ramdas Pophale) SiO2 
 PCOD9561440
Probable space group: I -4 2 D
;
_chemical_formula_sum "Si O2"
_cell_formula_units_Z 68
_cell_length_a 24.987394
_cell_length_b 24.987394
_cell_length_c 5.019640
_cell_angle_alpha 90.000000
_cell_angle_beta 90.000000
_cell_angle_gamma 90.000000
_cell_volume 3134.111919
_symmetry_space_group_name_H-M "I -4 2 D"
_symmetry_group_IT_number 122
_symmetry_cell_setting 'tetragonal'
loop_
_space_group_symop_operation_xyz
x,y,z
y,-x,-z
-x,-y,z
-y,x,-z
x,1/2-y,1/4-z
-x,1/2+y,1/4-z
-y,1/2-x,1/4+z
y,1/2+x,1/4+z
1/2+x,1/2+y,1/2+z
1/2+y,1/2-x,1/2-z
1/2-x,1/2-y,1/2+z
1/2-y,1/2+x,1/2-z
1/2+x,-y,3/4-z
1/2-x,y,3/4-z
1/2-y,-x,3/4+z
1/2+y,x,3/4+z
loop_
_atom_site_type_symbol
_atom_site_label
_atom_site_fract_x
_atom_site_fract_y
_atom_site_fract_z
Si Si1 0.250000 0.906058 0.375000
Si Si2 0.666391 0.750000 0.625000
Si Si3 0.833609 0.250000 0.125000
Si Si4 0.500000 0.000000 0.250000
Si Si5 0.500000 0.200185 0.831082
Si Si6 0.750000 0.593942 0.875000
Si Si7 0.500000 0.583180 0.618115
O O1 0.231813 0.870115 0.625509
O O2 0.205768 0.946914 0.260468
O O3 0.704047 0.795953 0.750000
O O4 0.870114 0.231813 0.374491
O O5 0.500000 0.062721 0.333888
O O6 0.500000 0.250000 0.625000
O O7 0.500000 0.144883 0.679098
O O8 0.553086 0.205768 0.010469
O O9 0.551035 0.551035 0.500001
#
# Coordination Sequence:
#
# PCOD9561440 Si02
#       7
#     8   8   8   4  16   8  16
#     4  11  25  46  71 104 145 194 245 299 382 438
#     4  12  25  49  75 106 149 197 255 308 358 452
#     4  12  25  49  75 106 149 197 255 308 358 452
#     4   8  18  40  76 102 132 176 270 304 358 436
#     4  11  24  46  69 107 155 190 238 316 369 461
#     4  11  25  46  71 104 145 194 245 299 382 438
#     4   9  21  44  67 101 132 190 248 297 358 432
#
# _framework density 21.696735
#
# number of rings (size 3 to 8) (size 9 to 14) (size 15 to 20)
#    0.000    1.647    2.353    2.824    0.000    9.412 
#    8.471    0.000    0.000    0.000    0.000    0.000 
#    0.000    0.000    0.000    0.000    0.000    0.000 
#
# Total GULP energy -189471.213029 kJ/mol
# GULP energy per Si atom -5572.682736 kJ/mol
# Density = 2.164735 g / cm^3
# Si number density = 21.696735 Si / 1000 Ang^3
#
#
#
# Elastic Constant Matrix: (Units=GPa)
#
#
# Indices 1 2 3 4 5 6 
#
# 1 167.2531 69.5758 71.3185 0.0000 0.0000 0.0000
# 2 69.5758 167.2531 71.3185 0.0000 0.0000 0.0000
# 3 71.3185 71.3185 140.4127 0.0000 0.0000 0.0000
# 4 0.0000 0.0000 0.0000 158.1158 0.0000 0.0000
# 5 0.0000 0.0000 0.0000 0.0000 158.1158 0.0000
# 6 0.0000 0.0000 0.0000 0.0000 0.0000 38.9131
#
#
#
# Elastic Compliance Matrix: (Units=1/GPa)
#
#
# Indices 1 2 3 4 5 6 
#
# 1 0.008161 -0.002077 -0.003090 0.000000 0.000000 0.000000
# 2 -0.002077 0.008161 -0.003090 0.000000 0.000000 0.000000
# 3 -0.003090 -0.003090 0.010261 0.000000 0.000000 0.000000
# 4 0.000000 0.000000 0.000000 0.006324 0.000000 0.000000
# 5 0.000000 0.000000 0.000000 0.000000 0.006324 0.000000
# 6 0.000000 0.000000 0.000000 0.000000 0.000000 0.025698
#
#
# Mechanical properties :
#
#
# Convention : Reuss Voigt Hill
#
# Bulk Modulus (GPa) = 99.32480 99.92716 99.62598
# Shear Modulus (GPa) = 58.96283 88.54268 73.75275
#
# Velocity S-wave (km/s) = 5.21871 6.39514 5.83664
# Velocity P-wave (km/s) = 9.06594 10.03428 9.56237
#
# Compressibility (1/GPa) = 0.01006798
#
# Stress axis : x y z
#
# Youngs Moduli (GPa) = 122.53974 122.53974 97.45905
#
# Poissons Ratio (x) = 0.25454 0.30114
# Poissons Ratio (y) = 0.25454 0.30114
# Poissons Ratio (z) = 0.37864 0.37864
#
# Static dielectric constant tensor:
#      x y z
#    x 1.761580 0.000000 0.000000 
#    y 0.000000 1.761580 0.000000 
#    z 0.000000 0.000000 1.926140 
# 
# From -- ./inp_files/1277.got.cif
#   From: 2010.05.17/outbox.cif.g08.bks.cpg/sg122_1_cif.got.tgz:1277.got - 2010.05.20 11:37:33.
