data_PCOD9561213
_publ_section_title
;
Structure prediction by ZEFSAII (Michael W. Deem and Ramdas Pophale) SiO2 
 PCOD9561213
Probable space group: I -4 2 D
;
_chemical_formula_sum "Si O2"
_cell_formula_units_Z 112
_cell_length_a 14.156755
_cell_length_b 14.156755
_cell_length_c 25.109680
_cell_angle_alpha 90.000000
_cell_angle_beta 90.000000
_cell_angle_gamma 90.000000
_cell_volume 5032.324179
_symmetry_space_group_name_H-M "I -4 2 D"
_symmetry_group_IT_number 122
_symmetry_cell_setting 'tetragonal'
loop_
_space_group_symop_operation_xyz
x,y,z
y,-x,-z
-x,-y,z
-y,x,-z
x,1/2-y,1/4-z
-x,1/2+y,1/4-z
-y,1/2-x,1/4+z
y,1/2+x,1/4+z
1/2+x,1/2+y,1/2+z
1/2+y,1/2-x,1/2-z
1/2-x,1/2-y,1/2+z
1/2-y,1/2+x,1/2-z
1/2+x,-y,3/4-z
1/2-x,y,3/4-z
1/2-y,-x,3/4+z
1/2+y,x,3/4+z
loop_
_atom_site_type_symbol
_atom_site_label
_atom_site_fract_x
_atom_site_fract_y
_atom_site_fract_z
Si Si1 0.466555 0.102385 0.829032
Si Si2 0.792402 0.997344 0.317462
Si Si3 0.456526 0.635073 0.790675
Si Si4 0.863379 0.152913 0.769825
Si Si5 0.359103 0.819678 0.765701
Si Si6 0.563284 0.857451 0.255084
Si Si7 0.252314 0.987034 0.148959
O O1 0.566820 0.146328 0.810411
O O2 0.389246 0.111897 0.782744
O O3 0.429810 0.163459 0.877278
O O4 0.500000 0.000000 0.844244
O O5 0.750000 0.980929 0.375000
O O6 0.795669 0.901798 0.283294
O O7 0.894740 0.045474 0.309575
O O8 0.719767 0.071105 0.290399
O O9 0.542866 0.621755 0.748556
O O10 0.387388 0.710329 0.761419
O O11 0.489458 0.682206 0.847387
O O12 0.751460 0.166927 0.778061
O O13 0.926651 0.201472 0.817086
O O14 0.452746 0.884782 0.257273
O O15 0.578202 0.812098 0.311944
#
# Coordination Sequence:
#
# PCOD9561213 Si02
#       7
#    16  16  16  16  16  16  16
#     4  11  19  38  68 102 140 174 224 271 347 422
#     4  11  26  41  68  95 131 179 234 283 353 412
#     4  11  24  42  71 101 138 179 232 290 352 429
#     4  11  24  45  66  98 141 182 225 294 349 428
#     4  11  20  39  69  99 136 181 223 275 353 412
#     4  10  23  43  64  88 127 169 225 285 338 408
#     4  10  24  40  67 100 129 178 229 278 348 416
#
# _framework density 22.256119999999999
#
# number of rings (size 3 to 8) (size 9 to 14) (size 15 to 20)
#    0.000    1.286    4.286    1.286    8.000    4.000 
#    0.000    0.000    3.143    0.000    0.000    0.000 
#    0.000    0.000    0.000    0.000    0.000    0.000 
#
# Total GULP energy -312073.412573 kJ/mol
# GULP energy per Si atom -5572.739510 kJ/mol
# Density = 2.220546 g / cm^3
# Si number density = 22.256120 Si / 1000 Ang^3
#
#
#
# Elastic Constant Matrix: (Units=GPa)
#
#
# Indices 1 2 3 4 5 6 
#
# 1 62.5940 -13.5943 7.2728 0.0000 0.0000 0.0000
# 2 -13.5943 62.5940 7.2728 0.0000 0.0000 0.0000
# 3 7.2728 7.2728 43.3629 0.0000 0.0000 0.0000
# 4 0.0000 0.0000 0.0000 12.3923 0.0000 0.0000
# 5 0.0000 0.0000 0.0000 0.0000 12.3923 0.0000
# 6 0.0000 0.0000 0.0000 0.0000 0.0000 19.5155
#
#
#
# Elastic Compliance Matrix: (Units=1/GPa)
#
#
# Indices 1 2 3 4 5 6 
#
# 1 0.017302 0.004176 -0.003602 0.000000 0.000000 0.000000
# 2 0.004176 0.017302 -0.003602 0.000000 0.000000 0.000000
# 3 -0.003602 -0.003602 0.024270 0.000000 0.000000 0.000000
# 4 0.000000 0.000000 0.000000 0.080696 0.000000 0.000000
# 5 0.000000 0.000000 0.000000 0.000000 0.080696 0.000000
# 6 0.000000 0.000000 0.000000 0.000000 0.000000 0.051241
#
#
# Mechanical properties :
#
#
# Convention : Reuss Voigt Hill
#
# Bulk Modulus (GPa) = 18.93371 18.93929 18.93650
# Shear Modulus (GPa) = 16.93955 20.03328 18.48642
#
# Velocity S-wave (km/s) = 2.76183 3.00346 2.88518
# Velocity P-wave (km/s) = 4.32388 4.53386 4.43011
#
# Compressibility (1/GPa) = 0.05281585
#
# Stress axis : x y z
#
# Youngs Moduli (GPa) = 57.79841 57.79841 41.20390
#
# Poissons Ratio (x) = -0.24137 0.14843
# Poissons Ratio (y) = -0.24137 0.14843
# Poissons Ratio (z) = 0.20820 0.20820
#
# Static dielectric constant tensor:
#      x y z
#    x 1.945880 0.000000 0.000000 
#    y 0.000000 1.945880 0.000000 
#    z 0.000000 0.000000 1.896490 
# 
# From -- ./inp_files/8817.got.cif
#   From: 2010.05.17/outbox.cif.g08.bks.cpg/sg122_5_cif.got.tgz:8817.got - 2010.05.20 11:37:33.
