data_PCOD9561641
_publ_section_title
;
Structure prediction by ZEFSAII (Michael W. Deem and Ramdas Pophale) SiO2 
 PCOD9561641
Probable space group: P 4/M M M
;
_chemical_formula_sum "Si O2"
_cell_formula_units_Z 96
_cell_length_a 24.897807
_cell_length_b 24.897807
_cell_length_c 7.407118
_cell_angle_alpha 90.000000
_cell_angle_beta 90.000000
_cell_angle_gamma 90.000000
_cell_volume 4591.678325
_symmetry_space_group_name_H-M "P 4/M M M"
_symmetry_group_IT_number 123
_symmetry_cell_setting 'tetragonal'
loop_
_space_group_symop_operation_xyz
x,y,z
-y,x,z
-x,-y,z
y,-x,z
x,-y,-z
-x,y,-z
y,x,-z
-y,-x,-z
-x,-y,-z
y,-x,-z
x,y,-z
-y,x,-z
-x,y,z
x,-y,z
-y,-x,z
y,x,z
loop_
_atom_site_type_symbol
_atom_site_label
_atom_site_fract_x
_atom_site_fract_y
_atom_site_fract_z
Si Si1 0.374562 0.751308 0.720702
Si Si2 0.162438 0.162438 0.789345
Si Si3 0.645481 0.438696 0.279871
Si Si4 0.748250 0.748250 0.718148
Si Si5 0.939314 0.650623 0.216688
Si Si6 0.771285 0.062143 0.779439
Si Si7 0.559877 0.853115 0.713702
O O1 0.373602 0.751125 0.500000
O O2 0.400947 0.695074 0.775797
O O3 0.312977 0.759787 0.776942
O O4 0.412354 0.799337 0.785373
O O5 0.208317 0.208317 0.779248
O O6 0.107112 0.187085 0.714510
O O7 0.151815 0.151815 0.000000
O O8 0.646598 0.439718 0.500000
O O9 0.650799 0.500000 0.218873
O O10 0.590586 0.409415 0.225842
O O11 0.749308 0.749308 0.500000
O O12 0.922530 0.710422 0.277546
O O13 0.900842 0.602080 0.264252
O O14 0.000000 0.641330 0.281074
O O15 0.940731 0.653044 0.000000
O O16 0.781182 0.000000 0.726536
O O17 0.771856 0.062832 0.000000
O O18 0.554623 0.844595 0.500000
O O19 0.500000 0.863343 0.785550
#
# Coordination Sequence:
#
# PCOD9561641 Si02
#       7
#    16   8  16   8  16  16  16
#     4   9  16  28  42  59  84 116 149 180 224 279
#     4  10  18  28  48  75  96 119 153 189 222 258
#     4   9  15  23  36  54  79 113 150 183 216 262
#     4  10  18  28  46  68  92 119 149 188 230 272
#     4   9  18  33  50  65  86 119 154 186 223 268
#     4   8  15  29  48  70  96 124 152 183 222 267
#     4  10  20  31  44  64  89 117 150 189 230 272
#
# _framework density 20.907388999999998
#
# number of rings (size 3 to 8) (size 9 to 14) (size 15 to 20)
#    0.000    2.833    0.833    2.500    0.000    3.167 
#    0.000    2.500    0.000    1.750    0.000    1.750 
#    0.000    0.000    0.000    0.750    0.000    2.333 
#
# Total GULP energy -535886.326492 kJ/mol
# GULP energy per Si atom -5582.149234 kJ/mol
# Density = 2.085980 g / cm^3
# Si number density = 20.907389 Si / 1000 Ang^3
#
#
#
# Elastic Constant Matrix: (Units=GPa)
#
#
# Indices 1 2 3 4 5 6 
#
# 1 147.6779 96.5763 -0.4601 0.0000 0.0000 0.0000
# 2 96.5763 147.6779 -0.4601 0.0000 0.0000 0.0000
# 3 -0.4601 -0.4601 67.3350 0.0000 0.0000 0.0000
# 4 0.0000 0.0000 0.0000 8.9661 0.0000 0.0000
# 5 0.0000 0.0000 0.0000 0.0000 8.9661 0.0000
# 6 0.0000 0.0000 0.0000 0.0000 0.0000 6.0461
#
#
#
# Elastic Compliance Matrix: (Units=1/GPa)
#
#
# Indices 1 2 3 4 5 6 
#
# 1 0.011832 -0.007737 0.000028 0.000000 0.000000 0.000000
# 2 -0.007737 0.011832 0.000028 0.000000 0.000000 0.000000
# 3 0.000028 0.000028 0.014851 0.000000 0.000000 0.000000
# 4 0.000000 0.000000 0.000000 0.111531 0.000000 0.000000
# 5 0.000000 0.000000 0.000000 0.000000 0.111531 0.000000
# 6 0.000000 0.000000 0.000000 0.000000 0.000000 0.165396
#
#
# Mechanical properties :
#
#
# Convention : Reuss Voigt Hill
#
# Bulk Modulus (GPa) = 43.19317 61.55587 52.37452
# Shear Modulus (GPa) = 11.10983 22.59799 16.85391
#
# Velocity S-wave (km/s) = 2.30768 3.29121 2.84231
# Velocity P-wave (km/s) = 5.27301 6.62939 5.98972
#
# Compressibility (1/GPa) = 0.02315181
#
# Stress axis : x y z
#
# Youngs Moduli (GPa) = 84.51990 84.51990 67.33329
#
# Poissons Ratio (x) = 0.65396 -0.00188
# Poissons Ratio (y) = 0.65396 -0.00188
# Poissons Ratio (z) = -0.00236 -0.00236
#
# Static dielectric constant tensor:
#      x y z
#    x 1.733700 0.000000 0.000000 
#    y 0.000000 1.733700 0.000000 
#    z 0.000000 0.000000 1.891880 
# 
# From -- ./inp_files/3353.got.cif
#   From: 2010.05.17/outbox.cif.g08.bks.cpg/sg123_2_cif.got.tgz:3353.got - 2010.05.20 11:43:04.
