data_PCOD9561482
_publ_section_title
;
Structure prediction by ZEFSAII (Michael W. Deem and Ramdas Pophale) SiO2 
 PCOD9561482
Probable space group: I -4 2 D
;
_chemical_formula_sum "Si O2"
_cell_formula_units_Z 64
_cell_length_a 11.798012
_cell_length_b 11.798012
_cell_length_c 20.006643
_cell_angle_alpha 90.000000
_cell_angle_beta 90.000000
_cell_angle_gamma 90.000000
_cell_volume 2784.786403
_symmetry_space_group_name_H-M "I -4 2 D"
_symmetry_group_IT_number 122
_symmetry_cell_setting 'tetragonal'
loop_
_space_group_symop_operation_xyz
x,y,z
y,-x,-z
-x,-y,z
-y,x,-z
x,1/2-y,1/4-z
-x,1/2+y,1/4-z
-y,1/2-x,1/4+z
y,1/2+x,1/4+z
1/2+x,1/2+y,1/2+z
1/2+y,1/2-x,1/2-z
1/2-x,1/2-y,1/2+z
1/2-y,1/2+x,1/2-z
1/2+x,-y,3/4-z
1/2-x,y,3/4-z
1/2-y,-x,3/4+z
1/2+y,x,3/4+z
loop_
_atom_site_type_symbol
_atom_site_label
_atom_site_fract_x
_atom_site_fract_y
_atom_site_fract_z
Si Si1 0.734691 0.982915 0.728237
Si Si2 0.616744 0.047763 0.854660
Si Si3 0.160806 0.726619 0.548044
Si Si4 0.716051 0.108207 0.452113
O O1 0.670051 0.929783 0.665440
O O2 0.843518 0.902483 0.730494
O O3 0.645232 0.971103 0.789258
O O4 0.777427 0.111177 0.724094
O O5 0.750000 0.059203 0.875000
O O6 0.500000 0.000000 0.888583
O O7 0.193208 0.750000 0.625000
O O8 0.195576 0.829673 0.500553
O O9 0.026525 0.713218 0.543568
O O10 0.750000 0.134979 0.375000
#
# Coordination Sequence:
#
# PCOD9561482 Si02
#       4
#    16  16  16  16
#     4  12  23  47  69 105 148 189 256 319 382 471
#     4  12  25  45  72 108 152 198 253 323 398 474
#     4  11  27  46  76 109 150 203 262 324 398 488
#     4  11  26  48  72 109 151 201 257 323 398 479
#
# _framework density 22.982012999999998
#
# number of rings (size 3 to 8) (size 9 to 14) (size 15 to 20)
#    0.000    0.500    5.000    1.500    3.500    6.500 
#    0.000    0.000    0.000    0.000    0.000    0.000 
#    0.000    0.000    0.000    0.000    0.000    0.000 
#
# Total GULP energy -178475.584276 kJ/mol
# GULP energy per Si atom -5577.362009 kJ/mol
# Density = 2.292970 g / cm^3
# Si number density = 22.982013 Si / 1000 Ang^3
#
#
#
# Elastic Constant Matrix: (Units=GPa)
#
#
# Indices 1 2 3 4 5 6 
#
# 1 102.4122 31.3978 24.4954 0.0000 0.0000 0.0000
# 2 31.3978 102.4122 24.4954 0.0000 0.0000 0.0000
# 3 24.4954 24.4954 76.5798 0.0000 0.0000 0.0000
# 4 0.0000 0.0000 0.0000 36.9212 0.0000 0.0000
# 5 0.0000 0.0000 0.0000 0.0000 36.9212 0.0000
# 6 0.0000 0.0000 0.0000 0.0000 0.0000 -63.3209
#
#
#
# Elastic Compliance Matrix: (Units=1/GPa)
#
#
# Indices 1 2 3 4 5 6 
#
# 1 0.011273 -0.002809 -0.002708 0.000000 0.000000 0.000000
# 2 -0.002809 0.011273 -0.002708 0.000000 0.000000 0.000000
# 3 -0.002708 -0.002708 0.014790 0.000000 0.000000 0.000000
# 4 0.000000 0.000000 0.000000 0.027085 0.000000 0.000000
# 5 0.000000 0.000000 0.000000 0.000000 0.027085 0.000000
# 6 0.000000 0.000000 0.000000 0.000000 0.000000 -0.015793
#
#
# Mechanical properties :
#
#
# Convention : Reuss Voigt Hill
#
# Bulk Modulus (GPa) = 47.87129 49.13130 48.50129
# Shear Modulus (GPa) = 50.44195 15.50534 32.97364
#
# Velocity S-wave (km/s) = 4.69000 2.60026 3.79193
# Velocity P-wave (km/s) = 7.08542 5.51722 6.34992
#
# Compressibility (1/GPa) = 0.02088935
#
# Stress axis : x y z
#
# Youngs Moduli (GPa) = 88.70665 88.70665 67.61142
#
# Poissons Ratio (x) = 0.24914 0.18306
# Poissons Ratio (y) = 0.24914 0.18306
# Poissons Ratio (z) = 0.24018 0.24018
#
# Static dielectric constant tensor:
#      x y z
#    x 1.874780 0.000000 0.000000 
#    y 0.000000 1.874780 0.000000 
#    z 0.000000 0.000000 2.027920 
# 
# From -- ./inp_files/6936.got.cif
#   From: 2010.05.17/outbox.cif.g08.bks.cpg/sg122_4_cif.got.tgz:6936.got - 2010.05.20 11:37:33.
