data_PCOD9561938
_publ_section_title
;
Structure prediction by ZEFSAII (Michael W. Deem and Ramdas Pophale) SiO2 
 PCOD9561938
Probable space group: P 4/M M M
;
_chemical_formula_sum "Si O2"
_cell_formula_units_Z 88
_cell_length_a 18.311875
_cell_length_b 18.311875
_cell_length_c 13.601467
_cell_angle_alpha 90.000000
_cell_angle_beta 90.000000
_cell_angle_gamma 90.000000
_cell_volume 4560.908739
_symmetry_space_group_name_H-M "P 4/M M M"
_symmetry_group_IT_number 123
_symmetry_cell_setting 'tetragonal'
loop_
_space_group_symop_operation_xyz
x,y,z
-y,x,z
-x,-y,z
y,-x,z
x,-y,-z
-x,y,-z
y,x,-z
-y,-x,-z
-x,-y,-z
y,-x,-z
x,y,-z
-y,x,-z
-x,y,z
x,-y,z
-y,-x,z
y,x,z
loop_
_atom_site_type_symbol
_atom_site_label
_atom_site_fract_x
_atom_site_fract_y
_atom_site_fract_z
Si Si1 0.418317 0.085159 0.380472
Si Si2 0.916864 0.196275 0.794426
Si Si3 0.662687 0.851847 0.881686
Si Si4 0.734164 0.149502 0.383767
Si Si5 0.416543 0.000000 0.119553
Si Si6 0.702303 0.584225 0.119972
O O1 0.420699 0.085799 0.500000
O O2 0.500000 0.106101 0.346325
O O3 0.350003 0.136512 0.354272
O O4 0.404536 0.000000 0.353057
O O5 0.883179 0.116822 0.810295
O O6 0.865164 0.255068 0.847799
O O7 0.906872 0.218619 0.680408
O O8 0.000000 0.203937 0.826580
O O9 0.624335 0.777156 0.849428
O O10 0.620495 0.924911 0.848509
O O11 0.661135 0.850644 0.000000
O O12 0.740041 0.135532 0.500000
O O13 0.771462 0.228539 0.364886
O O14 0.500000 0.000000 0.149125
O O15 0.413704 0.000000 0.000000
O O16 0.699758 0.500000 0.152516
O O17 0.633251 0.633251 0.150665
O O18 0.702420 0.583241 0.000000
#
# Coordination Sequence:
#
# PCOD9561938 Si02
#       6
#    16  16  16  16   8  16
#     4   8  13  23  42  67  95 126 155 188 235 287
#     4  11  23  37  54  75  99 129 169 212 258 312
#     4  10  19  34  53  74 100 132 172 214 257 303
#     4   9  18  33  53  75 100 131 165 203 249 304
#     4   9  16  28  50  76 102 130 158 201 256 302
#     4   9  17  29  47  72 103 140 177 212 253 300
#
# _framework density 19.294401000000001
#
# number of rings (size 3 to 8) (size 9 to 14) (size 15 to 20)
#    0.000    2.636    0.909    2.182    0.000    4.727 
#    0.000    2.727    0.000    0.000    0.000    3.818 
#    0.000    0.364    0.000    5.091    0.000    0.000 
#
# Total GULP energy -491023.971934 kJ/mol
# GULP energy per Si atom -5579.817863 kJ/mol
# Density = 1.925049 g / cm^3
# Si number density = 19.294401 Si / 1000 Ang^3
#
#
#
# Elastic Constant Matrix: (Units=GPa)
#
#
# Indices 1 2 3 4 5 6 
#
# 1 123.0930 100.2103 11.8234 0.0000 0.0000 0.0000
# 2 100.2103 123.0930 11.8234 0.0000 0.0000 0.0000
# 3 11.8234 11.8234 35.2945 0.0000 0.0000 0.0000
# 4 0.0000 0.0000 0.0000 17.1078 0.0000 0.0000
# 5 0.0000 0.0000 0.0000 0.0000 17.1078 0.0000
# 6 0.0000 0.0000 0.0000 0.0000 0.0000 33.1970
#
#
#
# Elastic Compliance Matrix: (Units=1/GPa)
#
#
# Indices 1 2 3 4 5 6 
#
# 1 0.024172 -0.019529 -0.001555 0.000000 0.000000 0.000000
# 2 -0.019529 0.024172 -0.001555 0.000000 0.000000 0.000000
# 3 -0.001555 -0.001555 0.029375 0.000000 0.000000 0.000000
# 4 0.000000 0.000000 0.000000 0.058453 0.000000 0.000000
# 5 0.000000 0.000000 0.000000 0.000000 0.058453 0.000000
# 6 0.000000 0.000000 0.000000 0.000000 0.000000 0.030123
#
#
# Mechanical properties :
#
#
# Convention : Reuss Voigt Hill
#
# Bulk Modulus (GPa) = 30.82658 58.79943 44.81301
# Shear Modulus (GPa) = 17.80367 23.99074 20.89721
#
# Velocity S-wave (km/s) = 3.04096 3.53002 3.29457
# Velocity P-wave (km/s) = 5.32368 6.86700 6.14399
#
# Compressibility (1/GPa) = 0.03243953
#
# Stress axis : x y z
#
# Youngs Moduli (GPa) = 41.37017 41.37017 34.04246
#
# Poissons Ratio (x) = 0.80792 0.05295
# Poissons Ratio (y) = 0.80792 0.05295
# Poissons Ratio (z) = 0.06434 0.06434
#
# Static dielectric constant tensor:
#      x y z
#    x 1.671520 0.000000 0.000000 
#    y 0.000000 1.671520 0.000000 
#    z 0.000000 0.000000 1.735900 
# 
# From -- ./inp_files/4115.got.cif
#   From: 2010.05.17/outbox.cif.g08.bks.cpg/sg123_3_cif.got.tgz:4115.got - 2010.05.20 11:43:04.
