data_PCOD9561924
_publ_section_title
;
Structure prediction by ZEFSAII (Michael W. Deem and Ramdas Pophale) SiO2 
 PCOD9561924
Probable space group: P 4/M M M
;
_chemical_formula_sum "Si O2"
_cell_formula_units_Z 44
_cell_length_a 17.618080
_cell_length_b 17.618080
_cell_length_c 7.263089
_cell_angle_alpha 90.000000
_cell_angle_beta 90.000000
_cell_angle_gamma 90.000000
_cell_volume 2254.439169
_symmetry_space_group_name_H-M "P 4/M M M"
_symmetry_group_IT_number 123
_symmetry_cell_setting 'tetragonal'
loop_
_space_group_symop_operation_xyz
x,y,z
-y,x,z
-x,-y,z
y,-x,z
x,-y,-z
-x,y,-z
y,x,-z
-y,-x,-z
-x,-y,-z
y,-x,-z
x,y,-z
-y,x,-z
-x,y,z
x,-y,z
-y,-x,z
y,x,z
loop_
_atom_site_type_symbol
_atom_site_label
_atom_site_fract_x
_atom_site_fract_y
_atom_site_fract_z
Si Si1 0.291622 0.586608 0.224124
Si Si2 0.000000 0.125458 0.500000
Si Si3 0.290960 0.168595 0.776735
Si Si4 0.000000 0.742066 0.221336
O O1 0.289822 0.500000 0.286277
O O2 0.366581 0.633420 0.278773
O O3 0.219626 0.637554 0.281217
O O4 0.290950 0.585655 0.000000
O O5 0.000000 0.177234 0.319902
O O6 0.926980 0.073021 0.500000
O O7 0.214724 0.214724 0.719403
O O8 0.294568 0.080603 0.722102
O O9 0.290232 0.169315 0.000000
O O10 0.000000 0.748021 0.000000
#
# Coordination Sequence:
#
# PCOD9561924 Si02
#       4
#    16   4  16   8
#     4   8  13  21  34  56  88 122 157 199 242 286
#     4  11  24  36  48  74 103 124 160 210 247 284
#     4   8  14  25  41  60  83 117 161 201 236 281
#     4  10  19  33  52  70  94 131 165 195 241 292
#
# _framework density 19.517047999999999
#
# number of rings (size 3 to 8) (size 9 to 14) (size 15 to 20)
#    0.000    3.364    0.000    3.273    0.000    2.545 
#    0.000    3.636    0.000    5.455    0.000    2.545 
#    0.000    0.000    0.000    0.000    0.000   16.727 
#
# Total GULP energy -245304.068642 kJ/mol
# GULP energy per Si atom -5575.092469 kJ/mol
# Density = 1.947263 g / cm^3
# Si number density = 19.517048 Si / 1000 Ang^3
#
#
#
# Elastic Constant Matrix: (Units=GPa)
#
#
# Indices 1 2 3 4 5 6 
#
# 1 194.3292 105.6739 11.3924 0.0000 0.0000 0.0000
# 2 105.6739 194.3286 11.3924 0.0000 0.0000 0.0000
# 3 11.3924 11.3924 82.4997 0.0000 0.0000 0.0000
# 4 0.0000 0.0000 0.0000 -23.9665 0.0000 0.0000
# 5 0.0000 0.0000 0.0000 0.0000 -23.9376 0.0000
# 6 0.0000 0.0000 0.0000 0.0000 0.0000 18.4700
#
#
#
# Elastic Compliance Matrix: (Units=1/GPa)
#
#
# Indices 1 2 3 4 5 6 
#
# 1 0.007324 -0.003956 -0.000465 0.000000 0.000000 0.000000
# 2 -0.003956 0.007324 -0.000465 0.000000 0.000000 0.000000
# 3 -0.000465 -0.000465 0.012250 0.000000 0.000000 0.000000
# 4 0.000000 0.000000 0.000000 -0.041725 0.000000 0.000000
# 5 0.000000 0.000000 0.000000 0.000000 -0.041775 0.000000
# 6 0.000000 0.000000 0.000000 0.000000 0.000000 0.054142
#
#
# Mechanical properties :
#
#
# Convention : Reuss Voigt Hill
#
# Bulk Modulus (GPa) = 58.38976 80.89721 69.64348
# Shear Modulus (GPa) = 384.01923 16.95977 200.48950
#
# Velocity S-wave (km/s) = 14.04237 2.95103 10.14635
# Velocity P-wave (km/s) = 17.11431 7.29047 13.15391
#
# Compressibility (1/GPa) = 0.01712629
#
# Stress axis : x y z
#
# Youngs Moduli (GPa) = 136.53471 136.53429 81.63447
#
# Poissons Ratio (x) = 0.54006 0.03797
# Poissons Ratio (y) = 0.54007 0.03797
# Poissons Ratio (z) = 0.06351 0.06351
#
# Static dielectric constant tensor:
#      x y z
#    x 1.662830 0.000000 0.000000 
#    y 0.000000 1.662830 0.000000 
#    z 0.000000 0.000000 1.705130 
# 
# From -- ./inp_files/438.got.cif
#   From: 2010.05.17/outbox.cif.g08.bks.cpg/sg123_1_cif.got.tgz:438.got - 2010.05.20 11:43:04.
