data_PCOD9561325
_publ_section_title
;
Structure prediction by ZEFSAII (Michael W. Deem and Ramdas Pophale) SiO2 
 PCOD9561325
Probable space group: I -4 2 D
;
_chemical_formula_sum "Si O2"
_cell_formula_units_Z 96
_cell_length_a 21.807299
_cell_length_b 21.807299
_cell_length_c 12.439531
_cell_angle_alpha 90.000000
_cell_angle_beta 90.000000
_cell_angle_gamma 90.000000
_cell_volume 5915.722087
_symmetry_space_group_name_H-M "I -4 2 D"
_symmetry_group_IT_number 122
_symmetry_cell_setting 'tetragonal'
loop_
_space_group_symop_operation_xyz
x,y,z
y,-x,-z
-x,-y,z
-y,x,-z
x,1/2-y,1/4-z
-x,1/2+y,1/4-z
-y,1/2-x,1/4+z
y,1/2+x,1/4+z
1/2+x,1/2+y,1/2+z
1/2+y,1/2-x,1/2-z
1/2-x,1/2-y,1/2+z
1/2-y,1/2+x,1/2-z
1/2+x,-y,3/4-z
1/2-x,y,3/4-z
1/2-y,-x,3/4+z
1/2+y,x,3/4+z
loop_
_atom_site_type_symbol
_atom_site_label
_atom_site_fract_x
_atom_site_fract_y
_atom_site_fract_z
Si Si1 0.208871 0.808063 0.544151
Si Si2 0.164077 0.858622 0.938904
Si Si3 0.689410 0.965260 0.950474
Si Si4 0.957575 0.086708 0.023013
Si Si5 0.786490 0.662844 0.559317
Si Si6 0.784565 0.406162 0.535897
O O1 0.204116 0.750000 0.625000
O O2 0.278758 0.813668 0.502414
O O3 0.169529 0.798247 0.436519
O O4 0.194355 0.869083 0.610484
O O5 0.169523 0.786498 0.958452
O O6 0.184885 0.874832 0.818869
O O7 0.094479 0.877283 0.958636
O O8 0.211774 0.894775 0.015730
O O9 0.750000 0.966855 0.875000
O O10 0.628935 0.972233 0.876197
O O11 0.689876 0.900460 0.010521
O O12 0.697733 0.022914 0.029392
O O13 0.072435 0.980257 0.042283
#
# Coordination Sequence:
#
# PCOD9561325 Si02
#       6
#    16  16  16  16  16  16
#     4  11  19  35  56  79 108 146 181 219 267 327
#     4  11  18  32  54  88 107 141 178 211 283 329
#     4  12  21  34  56  83 112 139 176 229 275 319
#     4  11  22  35  53  80 114 140 176 225 278 327
#     4  11  22  33  56  84 111 142 182 222 271 328
#     4  11  20  33  56  80 112 143 174 221 274 321
#
# _framework density 16.227943
#
# number of rings (size 3 to 8) (size 9 to 14) (size 15 to 20)
#    0.000    0.833    8.333    2.500    0.000    0.000 
#    0.000    0.000    7.333    0.000    0.000    0.000 
#    0.000    0.000    0.000    0.000    0.000    0.000 
#
# Total GULP energy -267861.109355 kJ/mol
# GULP energy per Si atom -5580.439778 kJ/mol
# Density = 1.619101 g / cm^3
# Si number density = 16.227943 Si / 1000 Ang^3
#
#
#
# Elastic Constant Matrix: (Units=GPa)
#
#
# Indices 1 2 3 4 5 6 
#
# 1 96.6140 16.8869 26.2248 0.0000 0.0000 0.0000
# 2 16.8869 96.6140 26.2248 0.0000 0.0000 0.0000
# 3 26.2248 26.2248 58.0146 0.0000 0.0000 0.0000
# 4 0.0000 0.0000 0.0000 24.8022 0.0000 0.0000
# 5 0.0000 0.0000 0.0000 0.0000 24.8022 0.0000
# 6 0.0000 0.0000 0.0000 0.0000 0.0000 18.3519
#
#
#
# Elastic Compliance Matrix: (Units=1/GPa)
#
#
# Indices 1 2 3 4 5 6 
#
# 1 0.011840 -0.000703 -0.005034 0.000000 0.000000 0.000000
# 2 -0.000703 0.011840 -0.005034 0.000000 0.000000 0.000000
# 3 -0.005034 -0.005034 0.021788 0.000000 0.000000 0.000000
# 4 0.000000 0.000000 0.000000 0.040319 0.000000 0.000000
# 5 0.000000 0.000000 0.000000 0.000000 0.040319 0.000000
# 6 0.000000 0.000000 0.000000 0.000000 0.000000 0.054490
#
#
# Mechanical properties :
#
#
# Convention : Reuss Voigt Hill
#
# Bulk Modulus (GPa) = 41.79727 43.32398 42.56062
# Shear Modulus (GPa) = 23.79654 25.71831 24.75743
#
# Velocity S-wave (km/s) = 3.83351 3.98529 3.91014
# Velocity P-wave (km/s) = 6.73844 6.92328 6.83149
#
# Compressibility (1/GPa) = 0.02392501
#
# Stress axis : x y z
#
# Youngs Moduli (GPa) = 84.46058 84.46058 45.89586
#
# Poissons Ratio (x) = 0.05937 0.23105
# Poissons Ratio (y) = 0.05937 0.23105
# Poissons Ratio (z) = 0.42520 0.42520
#
# Static dielectric constant tensor:
#      x y z
#    x 1.559120 0.000000 0.000000 
#    y 0.000000 1.559120 0.000000 
#    z 0.000000 0.000000 1.533970 
# 
# From -- ./inp_files/4478.got.cif
#   From: 2010.05.17/outbox.cif.g08.bks.cpg/sg122_3_cif.got.tgz:4478.got - 2010.05.20 11:37:33.
