data_PCOD9561048
_publ_section_title
;
Structure prediction by ZEFSAII (Michael W. Deem and Ramdas Pophale) SiO2 
 PCOD9561048
Probable space group: I -4 2 D
;
_chemical_formula_sum "Si O2"
_cell_formula_units_Z 64
_cell_length_a 14.497563
_cell_length_b 14.497563
_cell_length_c 11.627403
_cell_angle_alpha 90.000000
_cell_angle_beta 90.000000
_cell_angle_gamma 90.000000
_cell_volume 2443.839806
_symmetry_space_group_name_H-M "I -4 2 D"
_symmetry_group_IT_number 122
_symmetry_cell_setting 'tetragonal'
loop_
_space_group_symop_operation_xyz
x,y,z
y,-x,-z
-x,-y,z
-y,x,-z
x,1/2-y,1/4-z
-x,1/2+y,1/4-z
-y,1/2-x,1/4+z
y,1/2+x,1/4+z
1/2+x,1/2+y,1/2+z
1/2+y,1/2-x,1/2-z
1/2-x,1/2-y,1/2+z
1/2-y,1/2+x,1/2-z
1/2+x,-y,3/4-z
1/2-x,y,3/4-z
1/2-y,-x,3/4+z
1/2+y,x,3/4+z
loop_
_atom_site_type_symbol
_atom_site_label
_atom_site_fract_x
_atom_site_fract_y
_atom_site_fract_z
Si Si1 0.373831 0.650846 0.863418
Si Si2 0.330098 0.648157 0.458929
Si Si3 0.473870 0.606729 0.283001
Si Si4 0.593810 0.689804 0.885422
O O1 0.334248 0.742107 0.804448
O O2 0.353547 0.561274 0.786059
O O3 0.483436 0.671518 0.880743
O O4 0.165478 0.631640 0.760257
O O5 0.250000 0.608525 0.375000
O O6 0.430422 0.620052 0.410696
O O7 0.289218 0.618918 0.580976
O O8 0.500000 0.500000 0.278703
O O9 0.387173 0.633822 0.202380
#
# Coordination Sequence:
#
# PCOD9561048 Si02
#       4
#    16  16  16  16
#     4  11  21  42  81 118 157 213 280 351 404 497
#     4  10  24  43  66 117 169 205 261 348 422 489
#     4   9  20  41  73 109 158 218 268 341 418 498
#     4  10  21  43  76 119 160 204 277 347 415 484
#
# _framework density 26.188296999999999
#
# number of rings (size 3 to 8) (size 9 to 14) (size 15 to 20)
#    0.000    2.000    2.500    0.000    0.000    6.000 
#    4.500    2.500   11.000    0.000    0.000    0.000 
#    0.000    0.000    0.000    0.000    0.000    0.000 
#
# Total GULP energy -178990.432034 kJ/mol
# GULP energy per Si atom -5593.451001 kJ/mol
# Density = 2.612869 g / cm^3
# Si number density = 26.188297 Si / 1000 Ang^3
#
#
#
# Elastic Constant Matrix: (Units=GPa)
#
#
# Indices 1 2 3 4 5 6 
#
# 1 115.8600 50.7529 78.3505 0.0000 0.0000 0.0000
# 2 50.7529 115.8600 78.3505 0.0000 0.0000 0.0000
# 3 78.3505 78.3505 219.6656 0.0000 0.0000 0.0000
# 4 0.0000 0.0000 0.0000 39.1234 0.0000 0.0000
# 5 0.0000 0.0000 0.0000 0.0000 39.1234 0.0000
# 6 0.0000 0.0000 0.0000 0.0000 0.0000 40.7887
#
#
#
# Elastic Compliance Matrix: (Units=1/GPa)
#
#
# Indices 1 2 3 4 5 6 
#
# 1 0.012196 -0.003164 -0.003221 0.000000 0.000000 0.000000
# 2 -0.003164 0.012196 -0.003221 0.000000 0.000000 0.000000
# 3 -0.003221 -0.003221 0.006850 0.000000 0.000000 0.000000
# 4 0.000000 0.000000 0.000000 0.025560 0.000000 0.000000
# 5 0.000000 0.000000 0.000000 0.000000 0.025560 0.000000
# 6 0.000000 0.000000 0.000000 0.000000 0.000000 0.024517
#
#
# Mechanical properties :
#
#
# Convention : Reuss Voigt Hill
#
# Bulk Modulus (GPa) = 83.13856 96.25485 89.69670
# Shear Modulus (GPa) = 38.43162 40.06918 39.25040
#
# Velocity S-wave (km/s) = 3.83497 3.91582 3.87560
# Velocity P-wave (km/s) = 7.17110 7.56832 7.37239
#
# Compressibility (1/GPa) = 0.01202811
#
# Stress axis : x y z
#
# Youngs Moduli (GPa) = 81.99726 81.99726 145.97616
#
# Poissons Ratio (x) = 0.25942 0.47025
# Poissons Ratio (y) = 0.25942 0.47025
# Poissons Ratio (z) = 0.26415 0.26415
#
# Static dielectric constant tensor:
#      x y z
#    x 2.097460 0.000000 0.000000 
#    y 0.000000 2.097460 0.000000 
#    z 0.000000 0.000000 2.074820 
# 
# From -- ./inp_files/5146.got.cif
#   From: 2010.05.17/outbox.cif.g08.bks.cpg/sg122_3_cif.got.tgz:5146.got - 2010.05.20 11:37:33.
