data_PCOD9561078
_publ_section_title
;
Structure prediction by ZEFSAII (Michael W. Deem and Ramdas Pophale) SiO2 
 PCOD9561078
Probable space group: I -4 2 D
;
_chemical_formula_sum "Si O2"
_cell_formula_units_Z 96
_cell_length_a 14.593910
_cell_length_b 14.593910
_cell_length_c 22.127442
_cell_angle_alpha 90.000000
_cell_angle_beta 90.000000
_cell_angle_gamma 90.000000
_cell_volume 4712.751479
_symmetry_space_group_name_H-M "I -4 2 D"
_symmetry_group_IT_number 122
_symmetry_cell_setting 'tetragonal'
loop_
_space_group_symop_operation_xyz
x,y,z
y,-x,-z
-x,-y,z
-y,x,-z
x,1/2-y,1/4-z
-x,1/2+y,1/4-z
-y,1/2-x,1/4+z
y,1/2+x,1/4+z
1/2+x,1/2+y,1/2+z
1/2+y,1/2-x,1/2-z
1/2-x,1/2-y,1/2+z
1/2-y,1/2+x,1/2-z
1/2+x,-y,3/4-z
1/2-x,y,3/4-z
1/2-y,-x,3/4+z
1/2+y,x,3/4+z
loop_
_atom_site_type_symbol
_atom_site_label
_atom_site_fract_x
_atom_site_fract_y
_atom_site_fract_z
Si Si1 0.834081 0.750000 0.625000
Si Si2 0.908242 0.499026 0.441249
Si Si3 0.578585 0.869598 0.740207
Si Si4 0.733080 0.756584 0.805059
Si Si5 0.750000 0.029644 0.875000
Si Si6 0.823418 0.417363 0.993890
Si Si7 0.284712 0.110167 0.540562
O O1 0.899841 0.704440 0.574940
O O2 0.771602 0.829058 0.590523
O O3 0.821104 0.536344 0.407712
O O4 0.930871 0.567491 0.495679
O O5 0.881191 0.393867 0.448963
O O6 0.000000 0.500000 0.401516
O O7 0.472752 0.880195 0.761580
O O8 0.641688 0.811126 0.785447
O O9 0.579278 0.813274 0.676283
O O10 0.750000 0.750109 0.875000
O O11 0.820795 0.800433 0.773366
O O12 0.730054 0.657216 0.773797
O O13 0.773091 0.500820 0.029569
#
# Coordination Sequence:
#
# PCOD9561078 Si02
#       7
#     8  16  16  16   8  16  16
#     4  10  23  46  74  97 136 188 235 298 366 429
#     4  10  22  38  63  94 132 172 222 279 349 413
#     4  11  27  43  66 104 142 188 230 282 359 424
#     4  11  25  43  64  98 134 178 226 289 350 410
#     4  12  23  44  64  93 140 178 231 286 336 439
#     4  10  24  41  67  99 134 182 237 283 361 422
#     4  10  22  44  66 100 131 179 232 290 353 424
#
# _framework density 20.370266000000001
#
# number of rings (size 3 to 8) (size 9 to 14) (size 15 to 20)
#    0.000    1.500    1.667    1.500   10.500    2.667 
#    0.000    0.000    0.000    4.500    0.000    0.000 
#    0.000    0.000    0.000    0.000    0.000    0.000 
#
# Total GULP energy -267290.710144 kJ/mol
# GULP energy per Si atom -5568.556461 kJ/mol
# Density = 2.032390 g / cm^3
# Si number density = 20.370266 Si / 1000 Ang^3
#
#
#
# Elastic Constant Matrix: (Units=GPa)
#
#
# Indices 1 2 3 4 5 6 
#
# 1 92.3662 18.1894 28.7722 0.0000 0.0000 0.0000
# 2 18.1894 92.3662 28.7722 0.0000 0.0000 0.0000
# 3 28.7722 28.7722 128.6781 0.0000 0.0000 0.0000
# 4 0.0000 0.0000 0.0000 25.5156 0.0000 0.0000
# 5 0.0000 0.0000 0.0000 0.0000 25.5156 0.0000
# 6 0.0000 0.0000 0.0000 0.0000 0.0000 30.4790
#
#
#
# Elastic Compliance Matrix: (Units=1/GPa)
#
#
# Indices 1 2 3 4 5 6 
#
# 1 0.011859 -0.001622 -0.002289 0.000000 0.000000 0.000000
# 2 -0.001622 0.011859 -0.002289 0.000000 0.000000 0.000000
# 3 -0.002289 -0.002289 0.008795 0.000000 0.000000 0.000000
# 4 0.000000 0.000000 0.000000 0.039192 0.000000 0.000000
# 5 0.000000 0.000000 0.000000 0.000000 0.039192 0.000000
# 6 0.000000 0.000000 0.000000 0.000000 0.000000 0.032809
#
#
# Mechanical properties :
#
#
# Convention : Reuss Voigt Hill
#
# Bulk Modulus (GPa) = 49.72019 51.65313 50.68666
# Shear Modulus (GPa) = 30.71061 32.14715 31.42888
#
# Velocity S-wave (km/s) = 3.88702 3.97689 3.93221
# Velocity P-wave (km/s) = 6.67881 6.81907 6.74930
#
# Compressibility (1/GPa) = 0.02011255
#
# Stress axis : x y z
#
# Youngs Moduli (GPa) = 84.32453 84.32453 113.70210
#
# Poissons Ratio (x) = 0.13680 0.26025
# Poissons Ratio (y) = 0.13680 0.26025
# Poissons Ratio (z) = 0.19301 0.19301
#
# Static dielectric constant tensor:
#      x y z
#    x 1.807340 0.000000 0.000000 
#    y 0.000000 1.807340 0.000000 
#    z 0.000000 0.000000 1.785520 
# 
# From -- ./inp_files/7357.got.cif
#   From: 2010.05.17/outbox.cif.g08.bks.cpg/sg122_4_cif.got.tgz:7357.got - 2010.05.20 11:37:33.
