data_PCOD9561865
_publ_section_title
;
Structure prediction by ZEFSAII (Michael W. Deem and Ramdas Pophale) SiO2 
 PCOD9561865
Probable space group: P 4/M M M
;
_chemical_formula_sum "Si O2"
_cell_formula_units_Z 112
_cell_length_a 15.568331
_cell_length_b 15.568331
_cell_length_c 27.090369
_cell_angle_alpha 90.000000
_cell_angle_beta 90.000000
_cell_angle_gamma 90.000000
_cell_volume 6565.972113
_symmetry_space_group_name_H-M "P 4/M M M"
_symmetry_group_IT_number 123
_symmetry_cell_setting 'tetragonal'
loop_
_space_group_symop_operation_xyz
x,y,z
-y,x,z
-x,-y,z
y,-x,z
x,-y,-z
-x,y,-z
y,x,-z
-y,-x,-z
-x,-y,-z
y,-x,-z
x,y,-z
-y,x,-z
-x,y,z
x,-y,z
-y,-x,z
y,x,z
loop_
_atom_site_type_symbol
_atom_site_label
_atom_site_fract_x
_atom_site_fract_y
_atom_site_fract_z
Si Si1 0.596475 0.811283 0.310480
Si Si2 0.903513 0.311678 0.554308
Si Si3 0.735675 0.596230 0.582157
Si Si4 0.401023 0.739805 0.201681
Si Si5 0.099044 0.599385 0.869373
Si Si6 0.235687 0.902970 0.660246
Si Si7 0.900918 0.759014 0.058766
O O1 0.500000 0.848973 0.310582
O O2 0.602130 0.750480 0.358624
O O3 0.607630 0.760350 0.259771
O O4 0.671920 0.879832 0.316942
O O5 0.895864 0.271198 0.500000
O O6 0.828414 0.380742 0.559962
O O7 0.894588 0.249025 0.600974
O O8 0.000000 0.348834 0.558108
O O9 0.709511 0.500000 0.569420
O O10 0.667166 0.667166 0.566717
O O11 0.500000 0.712780 0.192664
O O12 0.332535 0.667466 0.187269
O O13 0.387272 0.828914 0.172300
O O14 0.107391 0.500000 0.886744
O O15 0.112697 0.670709 0.911473
O O16 0.000000 0.608876 0.851498
O O17 0.166523 0.833478 0.676762
O O18 0.210637 0.000000 0.671648
O O19 0.832269 0.832269 0.072957
O O20 0.000000 0.786616 0.067838
O O21 0.892438 0.744208 0.000000
#
# Coordination Sequence:
#
# PCOD9561865 Si02
#       7
#    16  16  16  16  16  16  16
#     4   9  18  33  52  72  93 119 154 196 240 277
#     4   9  18  33  53  73  90 113 148 190 235 274
#     4  10  20  33  49  69  95 125 154 185 221 267
#     4  10  19  31  49  71  97 127 156 192 236 281
#     4   9  18  31  46  67  94 124 161 200 236 276
#     4  10  20  33  50  72  98 126 154 185 222 270
#     4   9  17  29  46  68  94 124 157 195 239 285
#
# _framework density 17.057642000000001
#
# number of rings (size 3 to 8) (size 9 to 14) (size 15 to 20)
#    0.000    2.571    0.000    3.000    0.000    3.429 
#    0.000    7.143    0.000    2.571    0.000    3.000 
#    0.000    3.429    0.000   13.286    0.000    0.286 
#
# Total GULP energy -624027.546437 kJ/mol
# GULP energy per Si atom -5571.674522 kJ/mol
# Density = 1.701882 g / cm^3
# Si number density = 17.057642 Si / 1000 Ang^3
#
#
#
# Elastic Constant Matrix: (Units=GPa)
#
#
# Indices 1 2 3 4 5 6 
#
# 1 106.9655 90.7100 35.1923 0.0000 0.0000 0.0000
# 2 90.7100 106.9655 35.1923 0.0000 0.0000 0.0000
# 3 35.1923 35.1923 38.4556 0.0000 0.0000 0.0000
# 4 0.0000 0.0000 0.0000 12.6879 0.0000 0.0000
# 5 0.0000 0.0000 0.0000 0.0000 12.6879 0.0000
# 6 0.0000 0.0000 0.0000 0.0000 0.0000 14.1530
#
#
#
# Elastic Compliance Matrix: (Units=1/GPa)
#
#
# Indices 1 2 3 4 5 6 
#
# 1 0.034511 -0.027007 -0.006867 0.000000 0.000000 0.000000
# 2 -0.027007 0.034511 -0.006867 0.000000 0.000000 0.000000
# 3 -0.006867 -0.006867 0.038573 0.000000 0.000000 0.000000
# 4 0.000000 0.000000 0.000000 0.078815 0.000000 0.000000
# 5 0.000000 0.000000 0.000000 0.000000 0.078815 0.000000
# 6 0.000000 0.000000 0.000000 0.000000 0.000000 0.070656
#
#
# Mechanical properties :
#
#
# Convention : Reuss Voigt Hill
#
# Bulk Modulus (GPa) = 38.29648 63.84177 51.06913
# Shear Modulus (GPa) = 11.73522 13.99189 12.86356
#
# Velocity S-wave (km/s) = 2.62577 2.86714 2.74911
# Velocity P-wave (km/s) = 5.62964 6.96197 6.33095
#
# Compressibility (1/GPa) = 0.02611206
#
# Stress axis : x y z
#
# Youngs Moduli (GPa) = 28.97647 28.97647 25.92503
#
# Poissons Ratio (x) = 0.78256 0.17803
# Poissons Ratio (y) = 0.78256 0.17803
# Poissons Ratio (z) = 0.19899 0.19899
#
# Static dielectric constant tensor:
#      x y z
#    x 1.572770 0.000000 0.000000 
#    y 0.000000 1.572770 0.000000 
#    z 0.000000 0.000000 1.578150 
# 
# From -- ./inp_files/8168.got.cif
#   From: 2010.05.17/outbox.cif.g08.bks.cpg/sg123_5_cif.got.tgz:8168.got - 2010.05.20 11:43:04.
