data_PCOD9561080
_publ_section_title
;
Structure prediction by ZEFSAII (Michael W. Deem and Ramdas Pophale) SiO2 
 PCOD9561080
Probable space group: I -4 2 D
;
_chemical_formula_sum "Si O2"
_cell_formula_units_Z 96
_cell_length_a 20.400045
_cell_length_b 20.400045
_cell_length_c 9.718683
_cell_angle_alpha 90.000000
_cell_angle_beta 90.000000
_cell_angle_gamma 90.000000
_cell_volume 4044.544961
_symmetry_space_group_name_H-M "I -4 2 D"
_symmetry_group_IT_number 122
_symmetry_cell_setting 'tetragonal'
loop_
_space_group_symop_operation_xyz
x,y,z
y,-x,-z
-x,-y,z
-y,x,-z
x,1/2-y,1/4-z
-x,1/2+y,1/4-z
-y,1/2-x,1/4+z
y,1/2+x,1/4+z
1/2+x,1/2+y,1/2+z
1/2+y,1/2-x,1/2-z
1/2-x,1/2-y,1/2+z
1/2-y,1/2+x,1/2-z
1/2+x,-y,3/4-z
1/2-x,y,3/4-z
1/2-y,-x,3/4+z
1/2+y,x,3/4+z
loop_
_atom_site_type_symbol
_atom_site_label
_atom_site_fract_x
_atom_site_fract_y
_atom_site_fract_z
Si Si1 0.278045 0.460091 0.679243
Si Si2 0.250000 0.141784 0.875000
Si Si3 0.815513 0.416198 0.950582
Si Si4 0.250000 0.343112 0.875000
Si Si5 0.153323 0.445673 0.554497
Si Si6 0.894769 0.983236 0.967488
Si Si7 0.849467 0.762767 0.969680
O O1 0.312547 0.505387 0.792630
O O2 0.257576 0.391080 0.744849
O O3 0.205497 0.487240 0.640873
O O4 0.330388 0.462219 0.554178
O O5 0.201625 0.097388 0.790385
O O6 0.212243 0.188149 0.981673
O O7 0.885781 0.392296 0.893126
O O8 0.800261 0.395429 0.110260
O O9 0.750000 0.391260 0.875000
O O10 0.184882 0.298695 0.892868
O O11 0.117214 0.491140 0.445113
O O12 0.949799 0.926970 0.979986
O O13 0.875248 0.750000 0.125000
#
# Coordination Sequence:
#
# PCOD9561080 Si02
#       7
#    16   8  16   8  16  16  16
#     4  12  23  40  66  92 133 180 224 280 358 415
#     4   9  18  34  56  92 128 153 200 272 340 395
#     4  11  24  43  62  98 138 174 225 287 346 416
#     4  11  24  38  62  98 134 171 216 276 352 423
#     4  11  21  39  66  95 127 174 221 279 341 418
#     4  11  24  42  65  96 134 179 237 293 335 403
#     4  10  22  38  64  94 131 172 218 276 340 414
#
# _framework density 23.735676000000002
#
# number of rings (size 3 to 8) (size 9 to 14) (size 15 to 20)
#    0.000    1.167    4.167    2.000    2.333    7.333 
#    0.000    0.000    0.000    0.000    0.000    0.000 
#    0.000    0.000    0.000    0.000    0.000    0.000 
#
# Total GULP energy -267651.943271 kJ/mol
# GULP energy per Si atom -5576.082151 kJ/mol
# Density = 2.368165 g / cm^3
# Si number density = 23.735676 Si / 1000 Ang^3
#
#
#
# Elastic Constant Matrix: (Units=GPa)
#
#
# Indices 1 2 3 4 5 6 
#
# 1 72.9021 14.4458 15.9210 0.0000 0.0000 0.0000
# 2 14.4458 72.9021 15.9210 0.0000 0.0000 0.0000
# 3 15.9210 15.9210 84.9979 0.0000 0.0000 0.0000
# 4 0.0000 0.0000 0.0000 30.5109 0.0000 0.0000
# 5 0.0000 0.0000 0.0000 0.0000 30.5109 0.0000
# 6 0.0000 0.0000 0.0000 0.0000 0.0000 41.3839
#
#
#
# Elastic Compliance Matrix: (Units=1/GPa)
#
#
# Indices 1 2 3 4 5 6 
#
# 1 0.014697 -0.002410 -0.002302 0.000000 0.000000 0.000000
# 2 -0.002410 0.014697 -0.002302 0.000000 0.000000 0.000000
# 3 -0.002302 -0.002302 0.012627 0.000000 0.000000 0.000000
# 4 0.000000 0.000000 0.000000 0.032775 0.000000 0.000000
# 5 0.000000 0.000000 0.000000 0.000000 0.032775 0.000000
# 6 0.000000 0.000000 0.000000 0.000000 0.000000 0.024164
#
#
# Mechanical properties :
#
#
# Convention : Reuss Voigt Hill
#
# Bulk Modulus (GPa) = 35.71953 35.93086 35.82519
# Shear Modulus (GPa) = 32.23865 32.78210 32.51038
#
# Velocity S-wave (km/s) = 3.68942 3.72039 3.70494
# Velocity P-wave (km/s) = 5.76461 5.79878 5.78172
#
# Compressibility (1/GPa) = 0.02799589
#
# Stress axis : x y z
#
# Youngs Moduli (GPa) = 68.04045 68.04045 79.19400
#
# Poissons Ratio (x) = 0.16395 0.18227
# Poissons Ratio (y) = 0.16395 0.18227
# Poissons Ratio (z) = 0.15660 0.15660
#
# Static dielectric constant tensor:
#      x y z
#    x 1.975300 0.000000 0.000000 
#    y 0.000000 1.975300 0.000000 
#    z 0.000000 0.000000 2.023190 
# 
# From -- ./inp_files/2953.got.cif
#   From: 2010.05.17/outbox.cif.g08.bks.cpg/sg122_2_cif.got.tgz:2953.got - 2010.05.20 11:37:33.
