data_PCOD9561010
_publ_section_title
;
Structure prediction by ZEFSAII (Michael W. Deem and Ramdas Pophale) SiO2 
 PCOD9561010
Probable space group: I -4 2 D
;
_chemical_formula_sum "Si O2"
_cell_formula_units_Z 96
_cell_length_a 22.036360
_cell_length_b 22.036360
_cell_length_c 9.244112
_cell_angle_alpha 90.000000
_cell_angle_beta 90.000000
_cell_angle_gamma 90.000000
_cell_volume 4488.951529
_symmetry_space_group_name_H-M "I -4 2 D"
_symmetry_group_IT_number 122
_symmetry_cell_setting 'tetragonal'
loop_
_space_group_symop_operation_xyz
x,y,z
y,-x,-z
-x,-y,z
-y,x,-z
x,1/2-y,1/4-z
-x,1/2+y,1/4-z
-y,1/2-x,1/4+z
y,1/2+x,1/4+z
1/2+x,1/2+y,1/2+z
1/2+y,1/2-x,1/2-z
1/2-x,1/2-y,1/2+z
1/2-y,1/2+x,1/2-z
1/2+x,-y,3/4-z
1/2-x,y,3/4-z
1/2-y,-x,3/4+z
1/2+y,x,3/4+z
loop_
_atom_site_type_symbol
_atom_site_label
_atom_site_fract_x
_atom_site_fract_y
_atom_site_fract_z
Si Si1 0.693848 0.863510 0.581937
Si Si2 0.808627 0.534103 0.469333
Si Si3 0.575813 0.821658 0.743641
Si Si4 0.721236 0.503279 0.726618
Si Si5 0.723996 0.145810 0.143285
Si Si6 0.343423 0.831410 0.425598
O O1 0.636391 0.855765 0.689804
O O2 0.692709 0.929950 0.510046
O O3 0.689408 0.812086 0.461278
O O4 0.759973 0.853745 0.647373
O O5 0.750000 0.554679 0.375000
O O6 0.832860 0.478009 0.373180
O O7 0.778869 0.513314 0.620170
O O8 0.850170 0.592123 0.504520
O O9 0.540559 0.827358 0.898457
O O10 0.597930 0.752017 0.777509
O O11 0.750000 0.480306 0.875000
O O12 0.677367 0.135354 0.276949
O O13 0.785741 0.166279 0.219544
#
# Coordination Sequence:
#
# PCOD9561010 Si02
#       6
#    16  16  16  16  16  16
#     4  11  22  38  59  87 127 168 203 259 328 396
#     4   9  19  39  54  80 120 179 199 243 306 413
#     4  11  25  39  60  85 128 168 217 245 320 400
#     4  10  21  39  59  84 121 165 211 259 307 385
#     4  11  23  35  54  99 124 161 198 268 319 405
#     4  10  24  32  59  91 136 157 203 258 343 383
#
# _framework density 21.385840999999999
#
# number of rings (size 3 to 8) (size 9 to 14) (size 15 to 20)
#    0.000    1.667    0.000    6.000   16.333    0.000 
#    0.000    0.000    0.000    0.500    0.000    0.000 
#    0.000    5.333    0.000    0.000    0.000    0.000 
#
# Total GULP energy -267251.339160 kJ/mol
# GULP energy per Si atom -5567.736232 kJ/mol
# Density = 2.133717 g / cm^3
# Si number density = 21.385841 Si / 1000 Ang^3
#
#
#
# Elastic Constant Matrix: (Units=GPa)
#
#
# Indices 1 2 3 4 5 6 
#
# 1 91.8519 17.2129 22.0525 0.0000 0.0000 0.0000
# 2 17.2129 91.8519 22.0525 0.0000 0.0000 0.0000
# 3 22.0525 22.0525 136.5541 0.0000 0.0000 0.0000
# 4 0.0000 0.0000 0.0000 21.3752 0.0000 0.0000
# 5 0.0000 0.0000 0.0000 0.0000 21.3752 0.0000
# 6 0.0000 0.0000 0.0000 0.0000 0.0000 8.6505
#
#
#
# Elastic Compliance Matrix: (Units=1/GPa)
#
#
# Indices 1 2 3 4 5 6 
#
# 1 0.011604 -0.001794 -0.001584 0.000000 0.000000 0.000000
# 2 -0.001794 0.011604 -0.001584 0.000000 0.000000 0.000000
# 3 -0.001584 -0.001584 0.007835 0.000000 0.000000 0.000000
# 4 0.000000 0.000000 0.000000 0.046783 0.000000 0.000000
# 5 0.000000 0.000000 0.000000 0.000000 0.046783 0.000000
# 6 0.000000 0.000000 0.000000 0.000000 0.000000 0.115600
#
#
# Mechanical properties :
#
#
# Convention : Reuss Voigt Hill
#
# Bulk Modulus (GPa) = 47.35498 49.21038 48.28268
# Shear Modulus (GPa) = 19.44218 27.54285 23.49252
#
# Velocity S-wave (km/s) = 3.01842 3.59263 3.31797
# Velocity P-wave (km/s) = 5.85995 6.34586 6.10774
#
# Compressibility (1/GPa) = 0.02111710
#
# Stress axis : x y z
#
# Youngs Moduli (GPa) = 86.17977 86.17977 127.63622
#
# Poissons Ratio (x) = 0.15462 0.20220
# Poissons Ratio (y) = 0.15462 0.20220
# Poissons Ratio (z) = 0.13652 0.13652
#
# Static dielectric constant tensor:
#      x y z
#    x 1.852680 0.000000 0.000000 
#    y 0.000000 1.852680 0.000000 
#    z 0.000000 0.000000 1.981180 
# 
# From -- ./inp_files/2892.got.cif
#   From: 2010.05.17/outbox.cif.g08.bks.cpg/sg122_2_cif.got.tgz:2892.got - 2010.05.20 11:37:33.
