data_PCOD9561200
_publ_section_title
;
Structure prediction by ZEFSAII (Michael W. Deem and Ramdas Pophale) SiO2 
 PCOD9561200
Probable space group: I -4 2 D
;
_chemical_formula_sum "Si O2"
_cell_formula_units_Z 92
_cell_length_a 14.378891
_cell_length_b 14.378891
_cell_length_c 21.157580
_cell_angle_alpha 90.000000
_cell_angle_beta 90.000000
_cell_angle_gamma 90.000000
_cell_volume 4374.382694
_symmetry_space_group_name_H-M "I -4 2 D"
_symmetry_group_IT_number 122
_symmetry_cell_setting 'tetragonal'
loop_
_space_group_symop_operation_xyz
x,y,z
y,-x,-z
-x,-y,z
-y,x,-z
x,1/2-y,1/4-z
-x,1/2+y,1/4-z
-y,1/2-x,1/4+z
y,1/2+x,1/4+z
1/2+x,1/2+y,1/2+z
1/2+y,1/2-x,1/2-z
1/2-x,1/2-y,1/2+z
1/2-y,1/2+x,1/2-z
1/2+x,-y,3/4-z
1/2-x,y,3/4-z
1/2-y,-x,3/4+z
1/2+y,x,3/4+z
loop_
_atom_site_type_symbol
_atom_site_label
_atom_site_fract_x
_atom_site_fract_y
_atom_site_fract_z
Si Si1 0.666944 0.433585 0.719314
Si Si2 0.000000 0.000000 0.155025
Si Si3 0.129006 0.807882 0.719341
Si Si4 0.143506 0.895488 0.590442
Si Si5 0.441339 0.615852 0.461622
Si Si6 0.736823 0.707978 0.195135
Si Si7 0.500000 0.500000 0.000000
O O1 0.561779 0.427305 0.694445
O O2 0.676854 0.540107 0.738014
O O3 0.746666 0.411804 0.668453
O O4 0.693556 0.366096 0.776917
O O5 0.069932 0.050822 0.107182
O O6 0.126837 0.886364 0.665071
O O7 0.119960 0.706357 0.687118
O O8 0.220984 0.795660 0.761149
O O9 0.082769 0.965880 0.547227
O O10 0.543094 0.615415 0.493843
O O11 0.390127 0.712073 0.452688
O O12 0.734108 0.750000 0.125000
#
# Coordination Sequence:
#
# PCOD9561200 Si02
#       7
#    16   8  16  16  16  16   4
#     4  11  24  44  64  99 135 175 228 275 341 406
#     4  10  23  45  66  96 135 169 222 290 330 414
#     4  10  23  42  64  99 135 177 223 278 330 416
#     4  10  23  40  68  96 139 175 226 270 339 409
#     4   9  22  44  70  97 128 169 224 285 349 407
#     4  11  25  43  69  97 136 181 224 287 346 408
#     4  12  20  42  72 104 130 196 212 286 340 416
#
# _framework density 21.031538000000001
#
# number of rings (size 3 to 8) (size 9 to 14) (size 15 to 20)
#    0.000    1.913    1.739    1.043    7.304    3.478 
#    6.261    0.000    0.000    0.000    0.000    0.000 
#    0.000    0.000    0.000    0.000    0.000    0.000 
#
# Total GULP energy -256743.529765 kJ/mol
# GULP energy per Si atom -5581.381082 kJ/mol
# Density = 2.098367 g / cm^3
# Si number density = 21.031538 Si / 1000 Ang^3
#
#
#
# Elastic Constant Matrix: (Units=GPa)
#
#
# Indices 1 2 3 4 5 6 
#
# 1 46.6860 15.5637 15.2414 0.0000 0.0000 0.0000
# 2 15.5637 46.6860 15.2414 0.0000 0.0000 0.0000
# 3 15.2414 15.2414 93.0259 0.0000 0.0000 0.0000
# 4 0.0000 0.0000 0.0000 11.3897 0.0000 0.0000
# 5 0.0000 0.0000 0.0000 0.0000 11.3897 0.0000
# 6 0.0000 0.0000 0.0000 0.0000 0.0000 37.6112
#
#
#
# Elastic Compliance Matrix: (Units=1/GPa)
#
#
# Indices 1 2 3 4 5 6 
#
# 1 0.024798 -0.007333 -0.002862 0.000000 0.000000 0.000000
# 2 -0.007333 0.024798 -0.002862 0.000000 0.000000 0.000000
# 3 -0.002862 -0.002862 0.011687 0.000000 0.000000 0.000000
# 4 0.000000 0.000000 0.000000 0.087799 0.000000 0.000000
# 5 0.000000 0.000000 0.000000 0.000000 0.087799 0.000000
# 6 0.000000 0.000000 0.000000 0.000000 0.000000 0.026588
#
#
# Mechanical properties :
#
#
# Convention : Reuss Voigt Hill
#
# Bulk Modulus (GPa) = 28.43145 30.94341 29.68743
# Shear Modulus (GPa) = 16.59443 21.43488 19.01465
#
# Velocity S-wave (km/s) = 2.81201 3.19592 3.01009
# Velocity P-wave (km/s) = 4.90826 5.32572 5.12125
#
# Compressibility (1/GPa) = 0.03517232
#
# Stress axis : x y z
#
# Youngs Moduli (GPa) = 40.32508 40.32508 85.56243
#
# Poissons Ratio (x) = 0.29570 0.24484
# Poissons Ratio (y) = 0.29570 0.24484
# Poissons Ratio (z) = 0.11539 0.11539
#
# Static dielectric constant tensor:
#      x y z
#    x 1.761820 0.000000 0.000000 
#    y 0.000000 1.761820 0.000000 
#    z 0.000000 0.000000 1.805030 
# 
# From -- ./inp_files/7350.got.cif
#   From: 2010.05.17/outbox.cif.g08.bks.cpg/sg122_4_cif.got.tgz:7350.got - 2010.05.20 11:37:33.
