data_PCOD9561603
_publ_section_title
;
Structure prediction by ZEFSAII (Michael W. Deem and Ramdas Pophale) SiO2 
 PCOD9561603
Probable space group: P 4/M M M
;
_chemical_formula_sum "Si O2"
_cell_formula_units_Z 128
_cell_length_a 19.053966
_cell_length_b 19.053966
_cell_length_c 24.581074
_cell_angle_alpha 90.000000
_cell_angle_beta 90.000000
_cell_angle_gamma 90.000000
_cell_volume 8924.247907
_symmetry_space_group_name_H-M "P 4/M M M"
_symmetry_group_IT_number 123
_symmetry_cell_setting 'tetragonal'
loop_
_space_group_symop_operation_xyz
x,y,z
-y,x,z
-x,-y,z
y,-x,z
x,-y,-z
-x,y,-z
y,x,-z
-y,-x,-z
-x,-y,-z
y,-x,-z
x,y,-z
-y,x,-z
-x,y,z
x,-y,z
-y,-x,z
y,x,z
loop_
_atom_site_type_symbol
_atom_site_label
_atom_site_fract_x
_atom_site_fract_y
_atom_site_fract_z
Si Si1 0.850829 0.581308 0.382382
Si Si2 0.304988 0.580309 0.214792
Si Si3 0.420252 0.305480 0.655710
Si Si4 0.287900 0.083943 0.439061
Si Si5 0.414912 0.081697 0.060298
Si Si6 0.916026 0.799741 0.331612
Si Si7 0.652397 0.916418 0.277070
Si Si8 0.416235 0.849293 0.172425
O O1 0.867721 0.500000 0.394327
O O2 0.767125 0.588247 0.375997
O O3 0.880124 0.638292 0.424314
O O4 0.883198 0.604048 0.324197
O O5 0.327778 0.500000 0.206047
O O6 0.364941 0.635060 0.200270
O O7 0.290040 0.587692 0.279583
O O8 0.233303 0.592455 0.182594
O O9 0.500000 0.331116 0.647941
O O10 0.363296 0.363296 0.640613
O O11 0.264995 0.102556 0.500000
O O12 0.231849 0.099777 0.391777
O O13 0.298849 0.000000 0.436484
O O14 0.500000 0.083671 0.059381
O O15 0.393439 0.126361 0.112511
O O16 0.395114 0.000000 0.067692
O O17 0.390914 0.104620 0.000000
O O18 0.866344 0.866344 0.321217
O O19 0.900128 0.733647 0.291830
O O20 0.000000 0.814863 0.328477
O O21 0.626705 0.888726 0.219217
O O22 0.645162 0.000000 0.279917
O O23 0.500000 0.864919 0.178885
#
# Coordination Sequence:
#
# PCOD9561603 Si02
#       8
#    16  16  16  16  16  16  16  16
#     4  10  18  28  42  63  89 115 144 177 207 243
#     4   9  17  28  41  59  82 108 142 181 221 264
#     4   9  17  29  43  60  83 108 137 176 218 258
#     4   9  19  34  48  64  88 116 144 173 207 249
#     4   8  14  24  38  58  84 114 148 183 215 246
#     4   9  19  34  50  68  88 110 138 174 213 255
#     4  10  19  28  40  62  90 118 144 169 205 253
#     4  10  17  26  41  62  88 118 151 183 213 251
#
# _framework density 14.342945
#
# number of rings (size 3 to 8) (size 9 to 14) (size 15 to 20)
#    0.000    2.750    1.250    2.250    0.000    5.625 
#    0.000    1.875    0.000    0.375    0.000    1.750 
#    0.000    0.000    0.000    7.625    0.000    0.375 
#
# Total GULP energy -712875.065068 kJ/mol
# GULP energy per Si atom -5569.336446 kJ/mol
# Density = 1.431030 g / cm^3
# Si number density = 14.342945 Si / 1000 Ang^3
#
#
#
# Elastic Constant Matrix: (Units=GPa)
#
#
# Indices 1 2 3 4 5 6 
#
# 1 52.8341 42.1343 19.5283 0.0000 0.0000 0.0000
# 2 42.1343 52.8341 19.5283 0.0000 0.0000 0.0000
# 3 19.5283 19.5283 61.0141 0.0000 0.0000 0.0000
# 4 0.0000 0.0000 0.0000 11.8168 0.0000 0.0000
# 5 0.0000 0.0000 0.0000 0.0000 11.8168 0.0000
# 6 0.0000 0.0000 0.0000 0.0000 0.0000 26.9334
#
#
#
# Elastic Compliance Matrix: (Units=1/GPa)
#
#
# Indices 1 2 3 4 5 6 
#
# 1 0.052793 -0.040667 -0.003881 0.000000 0.000000 0.000000
# 2 -0.040667 0.052793 -0.003881 0.000000 0.000000 0.000000
# 3 -0.003881 -0.003881 0.018874 0.000000 0.000000 0.000000
# 4 0.000000 0.000000 0.000000 0.084625 0.000000 0.000000
# 5 0.000000 0.000000 0.000000 0.000000 0.084625 0.000000
# 6 0.000000 0.000000 0.000000 0.000000 0.000000 0.037129
#
#
# Mechanical properties :
#
#
# Convention : Reuss Voigt Hill
#
# Bulk Modulus (GPa) = 36.22968 36.56266 36.39617
# Shear Modulus (GPa) = 11.44436 15.81285 13.62860
#
# Velocity S-wave (km/s) = 2.82779 3.32397 3.08587
# Velocity P-wave (km/s) = 5.99802 6.34655 6.17475
#
# Compressibility (1/GPa) = 0.02760168
#
# Stress axis : x y z
#
# Youngs Moduli (GPa) = 18.94201 18.94201 52.98292
#
# Poissons Ratio (x) = 0.77031 0.20563
# Poissons Ratio (y) = 0.77031 0.20563
# Poissons Ratio (z) = 0.07351 0.07351
#
# Static dielectric constant tensor:
#      x y z
#    x 1.463600 0.000000 0.000000 
#    y 0.000000 1.463600 0.000000 
#    z 0.000000 0.000000 1.477190 
# 
# From -- ./inp_files/7647.got.cif
#   From: 2010.05.17/outbox.cif.g08.bks.cpg/sg123_4_cif.got.tgz:7647.got - 2010.05.20 11:43:04.
