data_PCOD9561848
_publ_section_title
;
Structure prediction by ZEFSAII (Michael W. Deem and Ramdas Pophale) SiO2 
 PCOD9561848
Probable space group: P 4/M M M
;
_chemical_formula_sum "Si O2"
_cell_formula_units_Z 104
_cell_length_a 28.647279
_cell_length_b 28.647279
_cell_length_c 7.990506
_cell_angle_alpha 90.000000
_cell_angle_beta 90.000000
_cell_angle_gamma 90.000000
_cell_volume 6557.541344
_symmetry_space_group_name_H-M "P 4/M M M"
_symmetry_group_IT_number 123
_symmetry_cell_setting 'tetragonal'
loop_
_space_group_symop_operation_xyz
x,y,z
-y,x,z
-x,-y,z
y,-x,z
x,-y,-z
-x,y,-z
y,x,-z
-y,-x,-z
-x,-y,-z
y,-x,-z
x,y,-z
-y,x,-z
-x,y,z
x,-y,z
-y,-x,z
y,x,z
loop_
_atom_site_type_symbol
_atom_site_label
_atom_site_fract_x
_atom_site_fract_y
_atom_site_fract_z
Si Si1 0.443074 0.000000 0.305911
Si Si2 0.102244 0.446697 0.298140
Si Si3 0.642848 0.853906 0.199148
Si Si4 0.126336 0.947009 0.202149
Si Si5 0.223350 0.096229 0.300083
Si Si6 0.314117 0.949687 0.801624
Si Si7 0.805784 0.732541 0.700876
O O1 0.430584 0.949284 0.231314
O O2 0.500000 0.000000 0.306702
O O3 0.428050 0.000000 0.500000
O O4 0.098632 0.447309 0.500000
O O5 0.110038 0.500000 0.242603
O O6 0.142808 0.411065 0.248860
O O7 0.663123 0.902937 0.272000
O O8 0.678368 0.813716 0.254993
O O9 0.645810 0.855359 0.000000
O O10 0.079966 0.920035 0.258192
O O11 0.171108 0.917046 0.254716
O O12 0.129729 0.000000 0.264689
O O13 0.125877 0.948535 0.000000
O O14 0.228566 0.095193 0.500000
O O15 0.259094 0.058781 0.223516
O O16 0.239795 0.147601 0.240202
O O17 0.328416 0.000000 0.730738
O O18 0.323641 0.950416 0.000000
O O19 0.805572 0.735250 0.500000
O O20 0.760036 0.760036 0.762821
#
# Coordination Sequence:
#
# PCOD9561848 Si02
#       7
#     8  16  16  16  16  16  16
#     4   7  12  24  41  59  77 103 141 179 211 241
#     4   9  17  30  46  62  83 113 148 183 215 250
#     4  10  20  30  43  64  87 111 139 173 213 253
#     4  10  21  35  49  63  78  97 119 143 175 219
#     4  10  19  31  48  69  86  99 121 153 190 231
#     4   9  18  31  43  57  83 114 137 160 193 236
#     4   9  18  33  50  65  84 109 135 165 201 245
#
# _framework density 15.859602000000001
#
# number of rings (size 3 to 8) (size 9 to 14) (size 15 to 20)
#    0.000    2.692    0.000    2.769    1.077    5.385 
#    0.000    0.769    0.000    1.385    0.000    1.077 
#    0.000    0.000    0.000    0.000    0.000    0.000 
#
# Total GULP energy -579799.522653 kJ/mol
# GULP energy per Si atom -5574.995410 kJ/mol
# Density = 1.582350 g / cm^3
# Si number density = 15.859602 Si / 1000 Ang^3
#
#
#
# Elastic Constant Matrix: (Units=GPa)
#
#
# Indices 1 2 3 4 5 6 
#
# 1 74.5336 39.7149 6.6040 0.0000 0.0000 0.0000
# 2 39.7149 74.5336 6.6040 0.0000 0.0000 0.0000
# 3 6.6040 6.6040 18.0541 0.0000 0.0000 0.0000
# 4 0.0000 0.0000 0.0000 11.9811 0.0000 0.0000
# 5 0.0000 0.0000 0.0000 0.0000 11.9811 0.0000
# 6 0.0000 0.0000 0.0000 0.0000 0.0000 21.4178
#
#
#
# Elastic Compliance Matrix: (Units=1/GPa)
#
#
# Indices 1 2 3 4 5 6 
#
# 1 0.018930 -0.009790 -0.003343 0.000000 0.000000 0.000000
# 2 -0.009790 0.018930 -0.003343 0.000000 0.000000 0.000000
# 3 -0.003343 -0.003343 0.057835 0.000000 0.000000 0.000000
# 4 0.000000 0.000000 0.000000 0.083465 0.000000 0.000000
# 5 0.000000 0.000000 0.000000 0.000000 0.083465 0.000000
# 6 0.000000 0.000000 0.000000 0.000000 0.000000 0.046690
#
#
# Mechanical properties :
#
#
# Convention : Reuss Voigt Hill
#
# Bulk Modulus (GPa) = 15.93850 30.32967 23.13409
# Shear Modulus (GPa) = 13.76726 16.68925 15.22826
#
# Velocity S-wave (km/s) = 2.94950 3.24746 3.10206
# Velocity P-wave (km/s) = 4.65521 5.76426 5.23916
#
# Compressibility (1/GPa) = 0.06274116
#
# Stress axis : x y z
#
# Youngs Moduli (GPa) = 52.82689 52.82689 17.29066
#
# Poissons Ratio (x) = 0.51720 0.05780
# Poissons Ratio (y) = 0.51720 0.05780
# Poissons Ratio (z) = 0.17660 0.17660
#
# Static dielectric constant tensor:
#      x y z
#    x 1.561270 0.000000 0.000000 
#    y 0.000000 1.561270 0.000000 
#    z 0.000000 0.000000 1.562850 
# 
# From -- ./inp_files/1900.got.cif
#   From: 2010.05.17/outbox.cif.g08.bks.cpg/sg123_1_cif.got.tgz:1900.got - 2010.05.20 11:43:04.
