data_PCOD9561781
_publ_section_title
;
Structure prediction by ZEFSAII (Michael W. Deem and Ramdas Pophale) SiO2 
 PCOD9561781
Probable space group: P 4/M M M
;
_chemical_formula_sum "Si O2"
_cell_formula_units_Z 72
_cell_length_a 14.065789
_cell_length_b 14.065789
_cell_length_c 23.802797
_cell_angle_alpha 90.000000
_cell_angle_beta 90.000000
_cell_angle_gamma 90.000000
_cell_volume 4709.298177
_symmetry_space_group_name_H-M "P 4/M M M"
_symmetry_group_IT_number 123
_symmetry_cell_setting 'tetragonal'
loop_
_space_group_symop_operation_xyz
x,y,z
-y,x,z
-x,-y,z
y,-x,z
x,-y,-z
-x,y,-z
y,x,-z
-y,-x,-z
-x,-y,-z
y,-x,-z
x,y,-z
-y,x,-z
-x,y,z
x,-y,z
-y,-x,z
y,x,z
loop_
_atom_site_type_symbol
_atom_site_label
_atom_site_fract_x
_atom_site_fract_y
_atom_site_fract_z
Si Si1 0.114541 0.270682 0.500000
Si Si2 0.884859 0.608781 0.610520
Si Si3 0.887695 0.269107 0.935872
Si Si4 0.885623 0.730415 0.279645
Si Si5 0.115287 0.392201 0.170459
O O1 0.173040 0.173040 0.500000
O O2 0.140631 0.331961 0.555081
O O3 0.000000 0.255572 0.500000
O O4 0.849659 0.500000 0.609816
O O5 0.859004 0.665756 0.666726
O O6 0.000000 0.603722 0.610534
O O7 0.825604 0.174397 0.929122
O O8 0.857879 0.344023 0.888461
O O9 0.000000 0.249300 0.928633
O O10 0.874239 0.303864 0.000000
O O11 0.828475 0.828475 0.282057
O O12 0.858811 0.673661 0.223071
O O13 0.000000 0.744446 0.280116
O O14 0.150593 0.500000 0.176074
O O15 0.000000 0.396506 0.170987
#
# Coordination Sequence:
#
# PCOD9561781 Si02
#       5
#     8  16  16  16  16
#     4  10  19  30  45  67  96 126 153 181 214 259
#     4   9  17  30  47  65  87 117 152 190 227 255
#     4   9  17  28  42  62  89 119 148 177 210 254
#     4  10  19  30  45  66  93 122 149 177 211 258
#     4   9  17  29  44  61  83 113 148 186 225 257
#
# _framework density 15.288902999999999
#
# number of rings (size 3 to 8) (size 9 to 14) (size 15 to 20)
#    0.000    2.667    0.000    2.333    0.000    5.000 
#    0.000    3.333    0.000    8.000    0.000    0.000 
#    0.000   49.333    0.000    9.778    0.000    0.889 
#
# Total GULP energy -401000.351262 kJ/mol
# GULP energy per Si atom -5569.449323 kJ/mol
# Density = 1.525411 g / cm^3
# Si number density = 15.288903 Si / 1000 Ang^3
#
#
#
# Elastic Constant Matrix: (Units=GPa)
#
#
# Indices 1 2 3 4 5 6 
#
# 1 67.1821 41.2790 48.6712 0.0000 0.0000 0.0000
# 2 41.2790 67.1821 48.6712 0.0000 0.0000 0.0000
# 3 48.6712 48.6712 129.8434 0.0000 0.0000 0.0000
# 4 0.0000 0.0000 0.0000 16.5466 0.0000 0.0000
# 5 0.0000 0.0000 0.0000 0.0000 16.5466 0.0000
# 6 0.0000 0.0000 0.0000 0.0000 0.0000 0.6901
#
#
#
# Elastic Compliance Matrix: (Units=1/GPa)
#
#
# Indices 1 2 3 4 5 6 
#
# 1 0.026250 -0.012356 -0.005208 0.000000 0.000000 0.000000
# 2 -0.012356 0.026250 -0.005208 0.000000 0.000000 0.000000
# 3 -0.005208 -0.005208 0.011606 0.000000 0.000000 0.000000
# 4 0.000000 0.000000 0.000000 0.060435 0.000000 0.000000
# 5 0.000000 0.000000 0.000000 0.000000 0.060435 0.000000
# 6 0.000000 0.000000 0.000000 0.000000 0.000000 1.449016
#
#
# Mechanical properties :
#
#
# Convention : Reuss Voigt Hill
#
# Bulk Modulus (GPa) = 53.87422 60.16116 57.01769
# Shear Modulus (GPa) = 2.96609 15.12907 9.04758
#
# Velocity S-wave (km/s) = 1.39436 3.14912 2.43528
# Velocity P-wave (km/s) = 6.15681 7.25655 6.72918
#
# Compressibility (1/GPa) = 0.01856175
#
# Stress axis : x y z
#
# Youngs Moduli (GPa) = 38.09552 38.09552 86.16169
#
# Poissons Ratio (x) = 0.47070 0.44874
# Poissons Ratio (y) = 0.47070 0.44874
# Poissons Ratio (z) = 0.19841 0.19841
#
# Static dielectric constant tensor:
#      x y z
#    x 1.488900 0.000000 0.000000 
#    y 0.000000 1.488900 0.000000 
#    z 0.000000 0.000000 1.526720 
# 
# From -- ./inp_files/7874.got.cif
#   From: 2010.05.17/outbox.cif.g08.bks.cpg/sg123_4_cif.got.tgz:7874.got - 2010.05.20 11:43:04.
