data_PCOD9561145
_publ_section_title
;
Structure prediction by ZEFSAII (Michael W. Deem and Ramdas Pophale) SiO2 
 PCOD9561145
Probable space group: I -4 2 D
;
_chemical_formula_sum "Si O2"
_cell_formula_units_Z 52
_cell_length_a 18.740860
_cell_length_b 18.740860
_cell_length_c 7.520387
_cell_angle_alpha 90.000000
_cell_angle_beta 90.000000
_cell_angle_gamma 90.000000
_cell_volume 2641.309070
_symmetry_space_group_name_H-M "I -4 2 D"
_symmetry_group_IT_number 122
_symmetry_cell_setting 'tetragonal'
loop_
_space_group_symop_operation_xyz
x,y,z
y,-x,-z
-x,-y,z
-y,x,-z
x,1/2-y,1/4-z
-x,1/2+y,1/4-z
-y,1/2-x,1/4+z
y,1/2+x,1/4+z
1/2+x,1/2+y,1/2+z
1/2+y,1/2-x,1/2-z
1/2-x,1/2-y,1/2+z
1/2-y,1/2+x,1/2-z
1/2+x,-y,3/4-z
1/2-x,y,3/4-z
1/2-y,-x,3/4+z
1/2+y,x,3/4+z
loop_
_atom_site_type_symbol
_atom_site_label
_atom_site_fract_x
_atom_site_fract_y
_atom_site_fract_z
Si Si1 0.500000 0.000000 0.750000
Si Si2 0.196394 0.600446 0.212960
Si Si3 0.250000 0.132660 0.375000
Si Si4 0.315013 0.250000 0.125000
Si Si5 0.053028 0.645346 0.383301
O O1 0.563814 0.975022 0.620245
O O2 0.250000 0.613480 0.375000
O O3 0.120910 0.637477 0.254777
O O4 0.187851 0.515404 0.188047
O O5 0.224478 0.635614 0.034916
O O6 0.270755 0.184800 0.211397
O O7 0.315874 0.083445 0.440921
#
# Coordination Sequence:
#
# PCOD9561145 Si02
#       5
#     4  16   8   8  16
#     4   8  20  44  68  94 132 184 226 272 336 410
#     4  11  23  44  66  97 136 177 226 283 342 410
#     4  12  23  40  68 104 131 176 222 286 346 407
#     4  12  25  42  62 102 139 166 222 286 344 409
#     4  10  22  42  69  96 132 181 226 276 343 406
#
# _framework density 19.687207000000001
#
# number of rings (size 3 to 8) (size 9 to 14) (size 15 to 20)
#    0.000    1.231    3.077    2.769    4.308    0.000 
#    0.000    0.000    0.000    0.000    0.000    0.000 
#    0.000    0.000    0.000    0.000    0.000    0.000 
#
# Total GULP energy -145045.936747 kJ/mol
# GULP energy per Si atom -5578.689875 kJ/mol
# Density = 1.964240 g / cm^3
# Si number density = 19.687207 Si / 1000 Ang^3
#
#
#
# Elastic Constant Matrix: (Units=GPa)
#
#
# Indices 1 2 3 4 5 6 
#
# 1 121.8986 72.4490 66.5353 0.0000 0.0000 0.0000
# 2 72.4490 121.8986 66.5353 0.0000 0.0000 0.0000
# 3 66.5353 66.5353 125.6452 0.0000 0.0000 0.0000
# 4 0.0000 0.0000 0.0000 33.0931 0.0000 0.0000
# 5 0.0000 0.0000 0.0000 0.0000 33.0931 0.0000
# 6 0.0000 0.0000 0.0000 0.0000 0.0000 36.0686
#
#
#
# Elastic Compliance Matrix: (Units=1/GPa)
#
#
# Indices 1 2 3 4 5 6 
#
# 1 0.014147 -0.006075 -0.004275 0.000000 0.000000 0.000000
# 2 -0.006075 0.014147 -0.004275 0.000000 0.000000 0.000000
# 3 -0.004275 -0.004275 0.012486 0.000000 0.000000 0.000000
# 4 0.000000 0.000000 0.000000 0.030218 0.000000 0.000000
# 5 0.000000 0.000000 0.000000 0.000000 0.030218 0.000000
# 6 0.000000 0.000000 0.000000 0.000000 0.000000 0.027725
#
#
# Mechanical properties :
#
#
# Convention : Reuss Voigt Hill
#
# Bulk Modulus (GPa) = 86.71436 86.72018 86.71727
# Shear Modulus (GPa) = 30.85757 31.37914 31.11836
#
# Velocity S-wave (km/s) = 3.96333 3.99668 3.98004
# Velocity P-wave (km/s) = 8.06756 8.08966 8.07862
#
# Compressibility (1/GPa) = 0.01153211
#
# Stress axis : x y z
#
# Youngs Moduli (GPa) = 70.68402 70.68402 80.08822
#
# Poissons Ratio (x) = 0.42942 0.34235
# Poissons Ratio (y) = 0.42942 0.34235
# Poissons Ratio (z) = 0.30215 0.30215
#
# Static dielectric constant tensor:
#      x y z
#    x 1.713210 0.000000 0.000000 
#    y 0.000000 1.713210 0.000000 
#    z 0.000000 0.000000 1.642350 
# 
# From -- ./inp_files/781.got.cif
#   From: 2010.05.17/outbox.cif.g08.bks.cpg/sg122_1_cif.got.tgz:781.got - 2010.05.20 11:37:33.
