data_PCOD9561020
_publ_section_title
;
Structure prediction by ZEFSAII (Michael W. Deem and Ramdas Pophale) SiO2 
 PCOD9561020
Probable space group: I -4 2 D
;
_chemical_formula_sum "Si O2"
_cell_formula_units_Z 52
_cell_length_a 16.483154
_cell_length_b 16.483154
_cell_length_c 7.998775
_cell_angle_alpha 90.000000
_cell_angle_beta 90.000000
_cell_angle_gamma 90.000000
_cell_volume 2173.222101
_symmetry_space_group_name_H-M "I -4 2 D"
_symmetry_group_IT_number 122
_symmetry_cell_setting 'tetragonal'
loop_
_space_group_symop_operation_xyz
x,y,z
y,-x,-z
-x,-y,z
-y,x,-z
x,1/2-y,1/4-z
-x,1/2+y,1/4-z
-y,1/2-x,1/4+z
y,1/2+x,1/4+z
1/2+x,1/2+y,1/2+z
1/2+y,1/2-x,1/2-z
1/2-x,1/2-y,1/2+z
1/2-y,1/2+x,1/2-z
1/2+x,-y,3/4-z
1/2-x,y,3/4-z
1/2-y,-x,3/4+z
1/2+y,x,3/4+z
loop_
_atom_site_type_symbol
_atom_site_label
_atom_site_fract_x
_atom_site_fract_y
_atom_site_fract_z
Si Si1 0.157853 0.926436 0.337538
Si Si2 0.000000 0.500000 0.750000
Si Si3 0.841849 0.256160 0.326766
Si Si4 0.910991 0.087712 0.991672
O O1 0.250000 0.951267 0.375000
O O2 0.083270 0.980727 0.399622
O O3 0.142838 0.833162 0.400113
O O4 0.154333 0.917835 0.137482
O O5 0.750000 0.276257 0.375000
O O6 0.895397 0.334567 0.371934
O O7 0.852097 0.250000 0.125000
O O8 0.998184 0.093448 0.084721
#
# Coordination Sequence:
#
# PCOD9561020 Si02
#       4
#    16   4  16  16
#     4  10  24  45  62 101 136 170 223 278 336 401
#     4  12  24  44  74  92 136 184 212 274 348 392
#     4   9  20  41  62  92 133 172 221 275 332 401
#     4  10  21  40  63  95 130 169 229 273 325 403
#
# _framework density 23.927606999999998
#
# number of rings (size 3 to 8) (size 9 to 14) (size 15 to 20)
#    0.000    2.154    0.000    1.846    4.308    3.692 
#   27.692    0.000    0.000    0.000    0.000    0.000 
#    0.000    0.000    0.000    0.000    0.000    0.000 
#
# Total GULP energy -144972.481386 kJ/mol
# GULP energy per Si atom -5575.864669 kJ/mol
# Density = 2.387315 g / cm^3
# Si number density = 23.927607 Si / 1000 Ang^3
#
#
#
# Elastic Constant Matrix: (Units=GPa)
#
#
# Indices 1 2 3 4 5 6 
#
# 1 128.5022 57.1403 7.6049 0.0000 0.0000 0.0000
# 2 57.1403 128.5022 7.6049 0.0000 0.0000 0.0000
# 3 7.6049 7.6049 24.2636 0.0000 0.0000 0.0000
# 4 0.0000 0.0000 0.0000 32.8802 0.0000 0.0000
# 5 0.0000 0.0000 0.0000 0.0000 32.8802 0.0000
# 6 0.0000 0.0000 0.0000 0.0000 0.0000 48.0505
#
#
#
# Elastic Compliance Matrix: (Units=1/GPa)
#
#
# Indices 1 2 3 4 5 6 
#
# 1 0.009771 -0.004242 -0.001733 0.000000 0.000000 0.000000
# 2 -0.004242 0.009771 -0.001733 0.000000 0.000000 0.000000
# 3 -0.001733 -0.001733 0.042300 0.000000 0.000000 0.000000
# 4 0.000000 0.000000 0.000000 0.030413 0.000000 0.000000
# 5 0.000000 0.000000 0.000000 0.000000 0.030413 0.000000
# 6 0.000000 0.000000 0.000000 0.000000 0.000000 0.020811
#
#
# Mechanical properties :
#
#
# Convention : Reuss Voigt Hill
#
# Bulk Modulus (GPa) = 21.53957 47.32981 34.43469
# Shear Modulus (GPa) = 28.67440 36.69002 32.68221
#
# Velocity S-wave (km/s) = 3.46552 3.92008 3.69979
# Velocity P-wave (km/s) = 5.00346 6.34923 5.71609
#
# Compressibility (1/GPa) = 0.04642618
#
# Stress axis : x y z
#
# Youngs Moduli (GPa) = 102.34496 102.34496 23.64052
#
# Poissons Ratio (x) = 0.43417 0.04097
# Poissons Ratio (y) = 0.43417 0.04097
# Poissons Ratio (z) = 0.17735 0.17735
#
# Static dielectric constant tensor:
#      x y z
#    x 1.974810 0.000000 0.000000 
#    y 0.000000 1.974810 0.000000 
#    z 0.000000 0.000000 1.905730 
# 
# From -- ./inp_files/2176.got.cif
#   From: 2010.05.17/outbox.cif.g08.bks.cpg/sg122_2_cif.got.tgz:2176.got - 2010.05.20 11:37:33.
