data_PCOD9561158
_publ_section_title
;
Structure prediction by ZEFSAII (Michael W. Deem and Ramdas Pophale) SiO2 
 PCOD9561158
Probable space group: I -4 2 D
;
_chemical_formula_sum "Si O2"
_cell_formula_units_Z 56
_cell_length_a 10.826655
_cell_length_b 10.826655
_cell_length_c 23.089026
_cell_angle_alpha 90.000000
_cell_angle_beta 90.000000
_cell_angle_gamma 90.000000
_cell_volume 2706.413858
_symmetry_space_group_name_H-M "I -4 2 D"
_symmetry_group_IT_number 122
_symmetry_cell_setting 'tetragonal'
loop_
_space_group_symop_operation_xyz
x,y,z
y,-x,-z
-x,-y,z
-y,x,-z
x,1/2-y,1/4-z
-x,1/2+y,1/4-z
-y,1/2-x,1/4+z
y,1/2+x,1/4+z
1/2+x,1/2+y,1/2+z
1/2+y,1/2-x,1/2-z
1/2-x,1/2-y,1/2+z
1/2-y,1/2+x,1/2-z
1/2+x,-y,3/4-z
1/2-x,y,3/4-z
1/2-y,-x,3/4+z
1/2+y,x,3/4+z
loop_
_atom_site_type_symbol
_atom_site_label
_atom_site_fract_x
_atom_site_fract_y
_atom_site_fract_z
Si Si1 0.368096 0.066549 0.977307
Si Si2 0.110905 0.814740 0.359824
Si Si3 0.060490 0.342905 0.784571
Si Si4 0.750000 0.073984 0.875000
O O1 0.376568 0.211407 0.963588
O O2 0.500000 0.000000 0.969331
O O3 0.273449 0.003600 0.932839
O O4 0.337286 0.064912 0.045278
O O5 0.250000 0.865651 0.375000
O O6 0.134970 0.668086 0.368012
O O7 0.010878 0.860782 0.405483
O O8 0.151417 0.451130 0.763918
#
# Coordination Sequence:
#
# PCOD9561158 Si02
#       4
#    16  16  16   8
#     4  12  24  43  72  99 138 189 236 297 361 431
#     4  10  22  44  64  97 142 180 238 284 350 433
#     4  11  23  44  67 103 142 178 231 297 358 421
#     4  10  24  46  62 100 144 178 238 296 350 438
#
# _framework density 20.691587999999999
#
# number of rings (size 3 to 8) (size 9 to 14) (size 15 to 20)
#    0.857    0.286    5.714    0.000    4.000    2.286 
#    0.000    0.000    0.000    0.000    0.000    0.000 
#    0.000    0.000    0.000    0.000    0.000    0.000 
#
# Total GULP energy -156246.163485 kJ/mol
# GULP energy per Si atom -5580.220124 kJ/mol
# Density = 2.064449 g / cm^3
# Si number density = 20.691588 Si / 1000 Ang^3
#
#
#
# Elastic Constant Matrix: (Units=GPa)
#
#
# Indices 1 2 3 4 5 6 
#
# 1 57.2269 0.3451 23.9971 0.0000 0.0000 0.0000
# 2 0.3451 57.2269 23.9971 0.0000 0.0000 0.0000
# 3 23.9971 23.9971 174.4438 0.0000 0.0000 0.0000
# 4 0.0000 0.0000 0.0000 33.3073 0.0000 0.0000
# 5 0.0000 0.0000 0.0000 0.0000 33.3073 0.0000
# 6 0.0000 0.0000 0.0000 0.0000 0.0000 29.6694
#
#
#
# Elastic Compliance Matrix: (Units=1/GPa)
#
#
# Indices 1 2 3 4 5 6 
#
# 1 0.018600 0.001020 -0.002699 0.000000 0.000000 0.000000
# 2 0.001020 0.018600 -0.002699 0.000000 0.000000 0.000000
# 3 -0.002699 -0.002699 0.006475 0.000000 0.000000 0.000000
# 4 0.000000 0.000000 0.000000 0.030023 0.000000 0.000000
# 5 0.000000 0.000000 0.000000 0.000000 0.030023 0.000000
# 6 0.000000 0.000000 0.000000 0.000000 0.000000 0.033705
#
#
# Mechanical properties :
#
#
# Convention : Reuss Voigt Hill
#
# Bulk Modulus (GPa) = 28.63828 42.84181 35.74004
# Shear Modulus (GPa) = 31.68114 35.29399 33.48757
#
# Velocity S-wave (km/s) = 3.91719 4.13451 4.02732
# Velocity P-wave (km/s) = 5.85916 6.59865 6.23987
#
# Compressibility (1/GPa) = 0.03491829
#
# Stress axis : x y z
#
# Youngs Moduli (GPa) = 53.76374 53.76374 154.43887
#
# Poissons Ratio (x) = -0.05482 0.41682
# Poissons Ratio (y) = -0.05482 0.41682
# Poissons Ratio (z) = 0.14510 0.14510
#
# Static dielectric constant tensor:
#      x y z
#    x 1.749630 0.000000 0.000000 
#    y 0.000000 1.749630 0.000000 
#    z 0.000000 0.000000 1.728610 
# 
# From -- ./inp_files/6803.got.cif
#   From: 2010.05.17/outbox.cif.g08.bks.cpg/sg122_4_cif.got.tgz:6803.got - 2010.05.20 11:37:33.
