data_PCOD9561581
_publ_section_title
;
Structure prediction by ZEFSAII (Michael W. Deem and Ramdas Pophale) SiO2 
 PCOD9561581
Probable space group: I -4 2 D
;
_chemical_formula_sum "Si O2"
_cell_formula_units_Z 56
_cell_length_a 15.000000
_cell_length_b 15.000000
_cell_length_c 27.000000
_cell_angle_alpha 90.000000
_cell_angle_beta 90.000000
_cell_angle_gamma 90.000000
_cell_volume 6075.000000
_symmetry_space_group_name_H-M "I -4 2 D"
_symmetry_group_IT_number 122
_symmetry_cell_setting 'tetragonal'
loop_
_space_group_symop_operation_xyz
x,y,z
y,-x,-z
-x,-y,z
-y,x,-z
x,1/2-y,1/4-z
-x,1/2+y,1/4-z
-y,1/2-x,1/4+z
y,1/2+x,1/4+z
1/2+x,1/2+y,1/2+z
1/2+y,1/2-x,1/2-z
1/2-x,1/2-y,1/2+z
1/2-y,1/2+x,1/2-z
1/2+x,-y,3/4-z
1/2-x,y,3/4-z
1/2-y,-x,3/4+z
1/2+y,x,3/4+z
loop_
_atom_site_type_symbol
_atom_site_label
_atom_site_fract_x
_atom_site_fract_y
_atom_site_fract_z
Si Si1 0.145677 0.257495 0.684792
Si Si2 0.563577 0.926427 0.065309
Si Si3 0.399481 0.998952 0.322353
Si Si4 0.876652 0.950606 0.016013
Si Si5 0.737039 0.453424 0.174884
Si Si6 0.687132 0.169791 0.161795
Si Si7 0.726381 0.286376 0.510314
O O1 0.153065 0.250000 0.625000
O O2 0.092520 0.170012 0.704551
O O3 0.083258 0.341461 0.696266
O O4 0.242798 0.261204 0.709617
O O5 0.514340 0.904605 0.117538
O O6 0.500000 0.000000 0.039351
O O7 0.656525 0.977309 0.073375
O O8 0.500000 0.000000 0.304793
O O9 0.358578 0.095434 0.312856
O O10 0.829439 0.997456 0.062300
O O11 0.809747 0.877010 0.995656
O O12 0.970438 0.899968 0.022638
O O13 0.729649 0.406441 0.122012
O O14 0.728534 0.375532 0.216833
O O15 0.661785 0.250000 0.125000
O O16 0.756401 0.209642 0.200010
#
# Coordination Sequence:
#
# PCOD9561581 Si02
#       7
#    16  16  16  16  16  16  16
#     4  10  21  36  55  80 120 156 199 242 289 354
#     4  10  17  31  58  81 102 147 203 228 269 351
#     4  10  19  34  54  76 113 156 197 228 284 351
#     4   9  18  35  61  89 108 144 200 245 292 364
#     4  10  18  33  62  86 109 144 197 247 290 353
#     4  10  19  34  55  86 113 145 193 244 292 346
#     4  10  21  35  55  89 113 148 196 245 295 350
#
# _framework density 9.2181069999999998
#
# number of rings (size 3 to 8) (size 9 to 14) (size 15 to 20)
#    0.000    2.143    4.286    1.286    2.000    0.000 
#    2.571    0.000    0.000   20.571   14.857    0.000 
#    0.000    0.000    0.000    0.000    0.000    0.000 
#
# Total GULP energy -311738.278226 kJ/mol
# GULP energy per Si atom -5566.754968 kJ/mol
# Density = 0.919713 g / cm^3
# Si number density = 9.218107 Si / 1000 Ang^3
#
#
#
# Elastic Constant Matrix: (Units=GPa)
#
#
# Indices 1 2 3 4 5 6 
#
# 1 86.9208 54.8312 25.9092 0.0000 0.0000 0.0000
# 2 54.8312 86.9208 25.9092 0.0000 0.0000 0.0000
# 3 25.9092 25.9092 39.7168 0.0000 0.0000 0.0000
# 4 0.0000 0.0000 0.0000 8.3481 0.0000 0.0000
# 5 0.0000 0.0000 0.0000 0.0000 8.3481 0.0000
# 6 0.0000 0.0000 0.0000 0.0000 0.0000 43.3654
#
#
#
# Elastic Compliance Matrix: (Units=1/GPa)
#
#
# Indices 1 2 3 4 5 6 
#
# 1 0.020213 -0.010950 -0.006043 0.000000 0.000000 0.000000
# 2 -0.010950 0.020213 -0.006043 0.000000 0.000000 0.000000
# 3 -0.006043 -0.006043 0.033063 0.000000 0.000000 0.000000
# 4 0.000000 0.000000 0.000000 0.119788 0.000000 0.000000
# 5 0.000000 0.000000 0.000000 0.000000 0.119788 0.000000
# 6 0.000000 0.000000 0.000000 0.000000 0.000000 0.023060
#
#
# Mechanical properties :
#
#
# Convention : Reuss Voigt Hill
#
# Bulk Modulus (GPa) = 36.47301 47.42858 41.95080
# Shear Modulus (GPa) = 12.77675 19.13957 15.95816
#
# Velocity S-wave (km/s) = 2.63539 3.22553 2.94528
# Velocity P-wave (km/s) = 5.39321 6.29712 5.86261
#
# Compressibility (1/GPa) = 0.02741753
#
# Stress axis : x y z
#
# Youngs Moduli (GPa) = 49.47258 49.47258 30.24553
#
# Poissons Ratio (x) = 0.54170 0.18278
# Poissons Ratio (y) = 0.54170 0.18278
# Poissons Ratio (z) = 0.29897 0.29897
#
# Static dielectric constant tensor:
#      x y z
#    x 1.671070 0.000000 0.000000 
#    y 0.000000 1.671070 0.000000 
#    z 0.000000 0.000000 1.660370 
# 
# From -- ./inp_files/8824.got.cif
#   From: 2010.05.17/outbox.ucp.g08.bks.cvg/sg122_5_cif.got.tgz:8824.got - 2010.06.11 11:35:26.
