data_PCOD9561453
_publ_section_title
;
Structure prediction by ZEFSAII (Michael W. Deem and Ramdas Pophale) SiO2 
 PCOD9561453
Probable space group: I -4 2 D
;
_chemical_formula_sum "Si O2"
_cell_formula_units_Z 52
_cell_length_a 13.812725
_cell_length_b 13.812725
_cell_length_c 8.928305
_cell_angle_alpha 90.000000
_cell_angle_beta 90.000000
_cell_angle_gamma 90.000000
_cell_volume 1703.443560
_symmetry_space_group_name_H-M "I -4 2 D"
_symmetry_group_IT_number 122
_symmetry_cell_setting 'tetragonal'
loop_
_space_group_symop_operation_xyz
x,y,z
y,-x,-z
-x,-y,z
-y,x,-z
x,1/2-y,1/4-z
-x,1/2+y,1/4-z
-y,1/2-x,1/4+z
y,1/2+x,1/4+z
1/2+x,1/2+y,1/2+z
1/2+y,1/2-x,1/2-z
1/2-x,1/2-y,1/2+z
1/2-y,1/2+x,1/2-z
1/2+x,-y,3/4-z
1/2-x,y,3/4-z
1/2-y,-x,3/4+z
1/2+y,x,3/4+z
loop_
_atom_site_type_symbol
_atom_site_label
_atom_site_fract_x
_atom_site_fract_y
_atom_site_fract_z
Si Si1 0.927801 0.239257 0.302642
Si Si2 0.605568 0.029237 0.454841
Si Si3 0.323906 0.654797 0.197557
Si Si4 0.500000 0.000000 0.750000
O O1 0.873236 0.137525 0.336341
O O2 0.783385 0.045829 0.664480
O O3 0.855342 0.318696 0.379641
O O4 0.933093 0.250000 0.125000
O O5 0.658607 0.936704 0.392758
O O6 0.586768 0.024930 0.636916
O O7 0.500000 0.000000 0.404337
O O8 0.276285 0.750000 0.125000
#
# Coordination Sequence:
#
# PCOD9561453 Si02
#       4
#    16  16  16   4
#     4  11  25  44  75 100 138 187 241 290 350 437
#     4   8  18  37  68  91 126 181 235 267 330 431
#     4  11  26  45  68 104 145 183 231 294 367 425
#     4   8  12  32  68  90 120 164 260 266 300 408
#
# _framework density 30.526399999999999
#
# number of rings (size 3 to 8) (size 9 to 14) (size 15 to 20)
#    0.923    1.231    0.000    1.846    8.615    0.000 
#    5.538    0.000    0.000    0.000    0.000    0.000 
#    0.000    0.000    0.000    0.000    0.000    0.000 
#
# Total GULP energy -144802.826344 kJ/mol
# GULP energy per Si atom -5569.339475 kJ/mol
# Density = 3.045692 g / cm^3
# Si number density = 30.526400 Si / 1000 Ang^3
#
#
#
# Elastic Constant Matrix: (Units=GPa)
#
#
# Indices 1 2 3 4 5 6 
#
# 1 201.2540 37.2234 19.4343 0.0000 0.0000 0.0000
# 2 37.2234 201.2540 19.4343 0.0000 0.0000 0.0000
# 3 19.4343 19.4343 180.6386 0.0000 0.0000 0.0000
# 4 0.0000 0.0000 0.0000 32.2569 0.0000 0.0000
# 5 0.0000 0.0000 0.0000 0.0000 32.2569 0.0000
# 6 0.0000 0.0000 0.0000 0.0000 0.0000 41.5836
#
#
#
# Elastic Compliance Matrix: (Units=1/GPa)
#
#
# Indices 1 2 3 4 5 6 
#
# 1 0.005182 -0.000914 -0.000459 0.000000 0.000000 0.000000
# 2 -0.000914 0.005182 -0.000459 0.000000 0.000000 0.000000
# 3 -0.000459 -0.000459 0.005635 0.000000 0.000000 0.000000
# 4 0.000000 0.000000 0.000000 0.031001 0.000000 0.000000
# 5 0.000000 0.000000 0.000000 0.000000 0.031001 0.000000
# 6 0.000000 0.000000 0.000000 0.000000 0.000000 0.024048
#
#
# Mechanical properties :
#
#
# Convention : Reuss Voigt Hill
#
# Bulk Modulus (GPa) = 81.07555 81.70342 81.38948
# Shear Modulus (GPa) = 45.52659 55.02312 50.27486
#
# Velocity S-wave (km/s) = 3.86603 4.25016 4.06264
# Velocity P-wave (km/s) = 6.82240 7.13499 6.98045
#
# Compressibility (1/GPa) = 0.01233417
#
# Stress axis : x y z
#
# Youngs Moduli (GPa) = 192.96576 192.96576 177.47111
#
# Poissons Ratio (x) = 0.17640 0.08149
# Poissons Ratio (y) = 0.17640 0.08149
# Poissons Ratio (z) = 0.08861 0.08861
#
# Static dielectric constant tensor:
#      x y z
#    x 2.539460 0.000000 0.000000 
#    y 0.000000 2.539460 0.000000 
#    z 0.000000 0.000000 2.805780 
# 
# From -- ./inp_files/2214.got.cif
#   From: 2010.05.17/outbox.cif.g08.bks.cpg/sg122_2_cif.got.tgz:2214.got - 2010.05.20 11:37:33.
