data_PCOD9561490
_publ_section_title
;
Structure prediction by ZEFSAII (Michael W. Deem and Ramdas Pophale) SiO2 
 PCOD9561490
Probable space group: I -4 2 D
;
_chemical_formula_sum "Si O2"
_cell_formula_units_Z 48
_cell_length_a 13.724838
_cell_length_b 13.724838
_cell_length_c 9.990376
_cell_angle_alpha 90.000000
_cell_angle_beta 90.000000
_cell_angle_gamma 90.000000
_cell_volume 1881.898897
_symmetry_space_group_name_H-M "I -4 2 D"
_symmetry_group_IT_number 122
_symmetry_cell_setting 'tetragonal'
loop_
_space_group_symop_operation_xyz
x,y,z
y,-x,-z
-x,-y,z
-y,x,-z
x,1/2-y,1/4-z
-x,1/2+y,1/4-z
-y,1/2-x,1/4+z
y,1/2+x,1/4+z
1/2+x,1/2+y,1/2+z
1/2+y,1/2-x,1/2-z
1/2-x,1/2-y,1/2+z
1/2-y,1/2+x,1/2-z
1/2+x,-y,3/4-z
1/2-x,y,3/4-z
1/2-y,-x,3/4+z
1/2+y,x,3/4+z
loop_
_atom_site_type_symbol
_atom_site_label
_atom_site_fract_x
_atom_site_fract_y
_atom_site_fract_z
Si Si1 0.143395 0.821636 0.881778
Si Si2 0.534654 0.388808 0.651937
Si Si3 0.447535 0.639085 0.945941
O O1 0.250000 0.774188 0.875000
O O2 0.073346 0.753599 0.793500
O O3 0.159074 0.929649 0.825783
O O4 0.094824 0.843017 0.028463
O O5 0.500000 0.500000 0.631992
O O6 0.587068 0.381167 0.793211
O O7 0.560593 0.610528 0.965660
#
# Coordination Sequence:
#
# PCOD9561490 Si02
#       3
#    16  16  16
#     4  12  26  48  81 116 154 220 273 329 415 496
#     4  12  24  51  79 111 164 212 266 342 402 487
#     4  11  26  52  74 115 165 205 272 344 408 476
#
# _framework density 25.506153000000001
#
# number of rings (size 3 to 8) (size 9 to 14) (size 15 to 20)
#    0.000    0.333    6.667    3.000    0.000    4.000 
#   12.000    0.000    0.000    0.000    0.000    0.000 
#    0.000    0.000    0.000    0.000    0.000    0.000 
#
# Total GULP energy -134077.712695 kJ/mol
# GULP energy per Si atom -5586.571362 kJ/mol
# Density = 2.544810 g / cm^3
# Si number density = 25.506153 Si / 1000 Ang^3
#
#
#
# Elastic Constant Matrix: (Units=GPa)
#
#
# Indices 1 2 3 4 5 6 
#
# 1 134.3479 34.4153 40.1619 0.0000 0.0000 0.0000
# 2 34.4153 134.3479 40.1619 0.0000 0.0000 0.0000
# 3 40.1619 40.1619 147.2660 0.0000 0.0000 0.0000
# 4 0.0000 0.0000 0.0000 15.1771 0.0000 0.0000
# 5 0.0000 0.0000 0.0000 0.0000 15.1771 0.0000
# 6 0.0000 0.0000 0.0000 0.0000 0.0000 37.5664
#
#
#
# Elastic Compliance Matrix: (Units=1/GPa)
#
#
# Indices 1 2 3 4 5 6 
#
# 1 0.008408 -0.001599 -0.001857 0.000000 0.000000 0.000000
# 2 -0.001599 0.008408 -0.001857 0.000000 0.000000 0.000000
# 3 -0.001857 -0.001857 0.007803 0.000000 0.000000 0.000000
# 4 0.000000 0.000000 0.000000 0.065889 0.000000 0.000000
# 5 0.000000 0.000000 0.000000 0.000000 0.065889 0.000000
# 6 0.000000 0.000000 0.000000 0.000000 0.000000 0.026620
#
#
# Mechanical properties :
#
#
# Convention : Reuss Voigt Hill
#
# Bulk Modulus (GPa) = 71.45976 71.71556 71.58766
# Shear Modulus (GPa) = 25.21345 33.66562 29.43954
#
# Velocity S-wave (km/s) = 3.14749 3.63699 3.40106
# Velocity P-wave (km/s) = 6.42545 6.76867 6.59929
#
# Compressibility (1/GPa) = 0.01399389
#
# Stress axis : x y z
#
# Youngs Moduli (GPa) = 118.93396 118.93396 128.15071
#
# Poissons Ratio (x) = 0.19014 0.23798
# Poissons Ratio (y) = 0.19014 0.23798
# Poissons Ratio (z) = 0.22086 0.22086
#
# Static dielectric constant tensor:
#      x y z
#    x 2.122110 0.000000 0.000000 
#    y 0.000000 2.122110 0.000000 
#    z 0.000000 0.000000 2.025470 
# 
# From -- ./inp_files/3816.got.cif
#   From: 2010.05.17/outbox.cif.g08.bks.cpg/sg122_2_cif.got.tgz:3816.got - 2010.05.20 11:37:33.
