data_PCOD9561767
_publ_section_title
;
Structure prediction by ZEFSAII (Michael W. Deem and Ramdas Pophale) SiO2 
 PCOD9561767
Probable space group: P 4/M M M
;
_chemical_formula_sum "Si O2"
_cell_formula_units_Z 56
_cell_length_a 14.326907
_cell_length_b 14.326907
_cell_length_c 18.372487
_cell_angle_alpha 90.000000
_cell_angle_beta 90.000000
_cell_angle_gamma 90.000000
_cell_volume 3771.141535
_symmetry_space_group_name_H-M "P 4/M M M"
_symmetry_group_IT_number 123
_symmetry_cell_setting 'tetragonal'
loop_
_space_group_symop_operation_xyz
x,y,z
-y,x,z
-x,-y,z
y,-x,z
x,-y,-z
-x,y,-z
y,x,-z
-y,-x,-z
-x,-y,-z
y,-x,-z
x,y,-z
-y,x,-z
-x,y,z
x,-y,z
-y,-x,z
y,x,z
loop_
_atom_site_type_symbol
_atom_site_label
_atom_site_fract_x
_atom_site_fract_y
_atom_site_fract_z
Si Si1 0.609573 0.764150 0.918215
Si Si2 0.110779 0.608247 0.220676
Si Si3 0.887017 0.393026 0.500000
Si Si4 0.266582 0.112098 0.638852
O O1 0.500000 0.740918 0.913097
O O2 0.673397 0.673397 0.910662
O O3 0.631394 0.834971 0.853218
O O4 0.625501 0.802986 0.000000
O O5 0.132060 0.500000 0.240569
O O6 0.132807 0.677332 0.286821
O O7 0.000000 0.613353 0.207840
O O8 0.852256 0.500000 0.500000
O O9 0.861832 0.334260 0.571618
O O10 0.000000 0.398509 0.500000
O O11 0.172808 0.172808 0.635276
O O12 0.249400 0.000000 0.635479
#
# Coordination Sequence:
#
# PCOD9561767 Si02
#       4
#    16  16   8  16
#     4   9  17  28  42  61  85 112 141 174 213 259
#     4   9  17  29  45  64  85 110 142 181 221 255
#     4   9  17  30  47  65  85 109 139 175 211 244
#     4  10  19  30  45  65  90 118 145 174 209 251
#
# _framework density 14.849615
#
# number of rings (size 3 to 8) (size 9 to 14) (size 15 to 20)
#    0.000    2.714    0.000    2.143    0.000    4.571 
#    0.000    4.286    0.000    2.571    0.000    0.000 
#    0.000   21.714    0.000   26.571    0.000    0.571 
#
# Total GULP energy -311848.249760 kJ/mol
# GULP energy per Si atom -5568.718746 kJ/mol
# Density = 1.481582 g / cm^3
# Si number density = 14.849615 Si / 1000 Ang^3
#
#
#
# Elastic Constant Matrix: (Units=GPa)
#
#
# Indices 1 2 3 4 5 6 
#
# 1 62.6509 47.3127 60.8766 0.0000 0.0000 0.0000
# 2 47.3127 62.6509 60.8766 0.0000 0.0000 0.0000
# 3 60.8766 60.8766 136.4269 0.0000 0.0000 0.0000
# 4 0.0000 0.0000 0.0000 20.3895 0.0000 0.0000
# 5 0.0000 0.0000 0.0000 0.0000 20.3895 0.0000
# 6 0.0000 0.0000 0.0000 0.0000 0.0000 23.9538
#
#
#
# Elastic Compliance Matrix: (Units=1/GPa)
#
#
# Indices 1 2 3 4 5 6 
#
# 1 0.041585 -0.023611 -0.008021 0.000000 0.000000 0.000000
# 2 -0.023611 0.041585 -0.008021 0.000000 0.000000 0.000000
# 3 -0.008021 -0.008021 0.014488 0.000000 0.000000 0.000000
# 4 0.000000 0.000000 0.000000 0.049045 0.000000 0.000000
# 5 0.000000 0.000000 0.000000 0.000000 0.049045 0.000000
# 6 0.000000 0.000000 0.000000 0.000000 0.000000 0.041747
#
#
# Mechanical properties :
#
#
# Convention : Reuss Voigt Hill
#
# Bulk Modulus (GPa) = 54.48296 66.65120 60.56708
# Shear Modulus (GPa) = 15.48380 19.12408 17.30394
#
# Velocity S-wave (km/s) = 3.23260 3.59256 3.41732
# Velocity P-wave (km/s) = 7.12056 7.88608 7.51307
#
# Compressibility (1/GPa) = 0.01835436
#
# Stress axis : x y z
#
# Youngs Moduli (GPa) = 24.04685 24.04685 69.02347
#
# Poissons Ratio (x) = 0.56777 0.55361
# Poissons Ratio (y) = 0.56777 0.55361
# Poissons Ratio (z) = 0.19287 0.19287
#
# Static dielectric constant tensor:
#      x y z
#    x 1.473260 0.000000 0.000000 
#    y 0.000000 1.473260 0.000000 
#    z 0.000000 0.000000 1.499760 
# 
# From -- ./inp_files/3669.got.cif
#   From: 2010.05.17/outbox.cif.g08.bks.cpg/sg123_2_cif.got.tgz:3669.got - 2010.05.20 11:43:04.
