data_PCOD9561718
_publ_section_title
;
Structure prediction by ZEFSAII (Michael W. Deem and Ramdas Pophale) SiO2 
 PCOD9561718
Probable space group: P 4/M M M
;
_chemical_formula_sum "Si O2"
_cell_formula_units_Z 112
_cell_length_a 14.242613
_cell_length_b 14.242613
_cell_length_c 35.871583
_cell_angle_alpha 90.000000
_cell_angle_beta 90.000000
_cell_angle_gamma 90.000000
_cell_volume 7276.623254
_symmetry_space_group_name_H-M "P 4/M M M"
_symmetry_group_IT_number 123
_symmetry_cell_setting 'tetragonal'
loop_
_space_group_symop_operation_xyz
x,y,z
-y,x,z
-x,-y,z
y,-x,z
x,-y,-z
-x,y,-z
y,x,-z
-y,-x,-z
-x,-y,-z
y,-x,-z
x,y,-z
-y,x,-z
-x,y,z
x,-y,z
-y,-x,z
y,x,z
loop_
_atom_site_type_symbol
_atom_site_label
_atom_site_fract_x
_atom_site_fract_y
_atom_site_fract_z
Si Si1 0.607975 0.885881 0.958054
Si Si2 0.389721 0.110255 0.815991
Si Si3 0.765805 0.388964 0.256498
Si Si4 0.111476 0.732561 0.402761
Si Si5 0.390953 0.889823 0.670641
Si Si6 0.112190 0.735124 0.111466
Si Si7 0.762773 0.390696 0.544605
O O1 0.500000 0.856616 0.951319
O O2 0.676687 0.857064 0.925069
O O3 0.607569 0.000000 0.957853
O O4 0.635323 0.856408 0.000000
O O5 0.500000 0.123408 0.825207
O O6 0.367007 0.172819 0.780180
O O7 0.326710 0.131955 0.851797
O O8 0.377286 0.000000 0.806792
O O9 0.745293 0.500000 0.255879
O O10 0.673490 0.326511 0.256831
O O11 0.826879 0.369954 0.293501
O O12 0.171830 0.828171 0.403573
O O13 0.127717 0.678632 0.363621
O O14 0.154526 0.664056 0.434246
O O15 0.000000 0.746853 0.407409
O O16 0.500000 0.872856 0.659448
O O17 0.384056 0.000000 0.680741
O O18 0.168789 0.831212 0.113278
O O19 0.000000 0.749377 0.109515
O O20 0.776830 0.386510 0.500000
O O21 0.757323 0.500000 0.555486
O O22 0.667329 0.332672 0.553064
#
# Coordination Sequence:
#
# PCOD9561718 Si02
#       7
#    16  16  16  16  16  16  16
#     4   8  14  26  44  63  81 103 135 177 220 252
#     4   9  17  30  48  67  84 105 140 187 232 263
#     4  10  19  30  45  65  91 120 146 175 213 261
#     4  10  20  33  49  69  94 124 158 196 235 274
#     4   9  17  30  49  71  91 113 146 187 229 270
#     4  10  19  29  42  61  87 118 147 174 207 252
#     4   9  18  32  50  73  99 125 154 189 230 277
#
# _framework density 15.391754000000001
#
# number of rings (size 3 to 8) (size 9 to 14) (size 15 to 20)
#    0.000    2.714    0.000    2.571    0.000    5.429 
#    0.000    1.429    0.000    0.000    0.000    6.000 
#    0.000   12.857    0.000    6.286    0.000    0.571 
#
# Total GULP energy -624085.143662 kJ/mol
# GULP energy per Si atom -5572.188783 kJ/mol
# Density = 1.535672 g / cm^3
# Si number density = 15.391754 Si / 1000 Ang^3
#
#
#
# Elastic Constant Matrix: (Units=GPa)
#
#
# Indices 1 2 3 4 5 6 
#
# 1 85.2374 60.9436 58.0986 0.0000 0.0000 0.0000
# 2 60.9436 85.2374 58.0986 0.0000 0.0000 0.0000
# 3 58.0986 58.0986 80.5167 0.0000 0.0000 0.0000
# 4 0.0000 0.0000 0.0000 14.8821 0.0000 0.0000
# 5 0.0000 0.0000 0.0000 0.0000 14.8821 0.0000
# 6 0.0000 0.0000 0.0000 0.0000 0.0000 21.6217
#
#
#
# Elastic Compliance Matrix: (Units=1/GPa)
#
#
# Indices 1 2 3 4 5 6 
#
# 1 0.028602 -0.012560 -0.011575 0.000000 0.000000 0.000000
# 2 -0.012560 0.028602 -0.011575 0.000000 0.000000 0.000000
# 3 -0.011575 -0.011575 0.029125 0.000000 0.000000 0.000000
# 4 0.000000 0.000000 0.000000 0.067195 0.000000 0.000000
# 5 0.000000 0.000000 0.000000 0.000000 0.067195 0.000000
# 6 0.000000 0.000000 0.000000 0.000000 0.000000 0.046250
#
#
# Mechanical properties :
#
#
# Convention : Reuss Voigt Hill
#
# Bulk Modulus (GPa) = 67.08254 67.25255 67.16755
# Shear Modulus (GPa) = 14.56194 15.20055 14.88125
#
# Velocity S-wave (km/s) = 3.07919 3.14598 3.11277
# Velocity P-wave (km/s) = 7.50466 7.54884 7.52678
#
# Compressibility (1/GPa) = 0.01490701
#
# Stress axis : x y z
#
# Youngs Moduli (GPa) = 34.96206 34.96206 34.33501
#
# Poissons Ratio (x) = 0.43914 0.39744
# Poissons Ratio (y) = 0.43914 0.39744
# Poissons Ratio (z) = 0.40470 0.40470
#
# Static dielectric constant tensor:
#      x y z
#    x 1.493010 0.000000 0.000000 
#    y 0.000000 1.493010 0.000000 
#    z 0.000000 0.000000 1.509730 
# 
# From -- ./inp_files/8730.got.cif
#   From: 2010.05.17/outbox.cif.g08.bks.cpg/sg123_5_cif.got.tgz:8730.got - 2010.05.20 11:43:04.
