data_PCOD9561803
_publ_section_title
;
Structure prediction by ZEFSAII (Michael W. Deem and Ramdas Pophale) SiO2 
 PCOD9561803
Probable space group: P 4/M M M
;
_chemical_formula_sum "Si O2"
_cell_formula_units_Z 104
_cell_length_a 27.546371
_cell_length_b 27.546371
_cell_length_c 8.427196
_cell_angle_alpha 90.000000
_cell_angle_beta 90.000000
_cell_angle_gamma 90.000000
_cell_volume 6394.577859
_symmetry_space_group_name_H-M "P 4/M M M"
_symmetry_group_IT_number 123
_symmetry_cell_setting 'tetragonal'
loop_
_space_group_symop_operation_xyz
x,y,z
-y,x,z
-x,-y,z
y,-x,z
x,-y,-z
-x,y,-z
y,x,-z
-y,-x,-z
-x,-y,-z
y,-x,-z
x,y,-z
-y,x,-z
-x,y,z
x,-y,z
-y,-x,z
y,x,z
loop_
_atom_site_type_symbol
_atom_site_label
_atom_site_fract_x
_atom_site_fract_y
_atom_site_fract_z
Si Si1 0.446401 0.236613 0.690040
Si Si2 0.684466 0.158656 0.806722
Si Si3 0.866282 0.944798 0.691565
Si Si4 0.944318 0.500000 0.310185
Si Si5 0.129330 0.579763 0.190396
Si Si6 0.267017 0.654872 0.191645
Si Si7 0.209489 0.870053 0.808333
O O1 0.444363 0.235487 0.500000
O O2 0.500000 0.254099 0.739125
O O3 0.440098 0.181441 0.751763
O O4 0.400709 0.266982 0.752565
O O5 0.636329 0.129156 0.759333
O O6 0.676907 0.214769 0.757615
O O7 0.735629 0.137572 0.751699
O O8 0.685505 0.158885 0.000000
O O9 0.867357 0.945335 0.500000
O O10 0.911245 0.911245 0.746393
O O11 0.817653 0.917478 0.745332
O O12 0.869247 0.000000 0.748513
O O13 0.944923 0.500000 0.500000
O O14 0.913996 0.453156 0.253901
O O15 0.000000 0.500000 0.252205
O O16 0.128943 0.577667 0.000000
O O17 0.311021 0.688980 0.246728
O O18 0.267169 0.655061 0.000000
O O19 0.175918 0.824083 0.761997
O O20 0.209819 0.871896 0.000000
#
# Coordination Sequence:
#
# PCOD9561803 Si02
#       7
#    16  16  16   8  16  16  16
#     4  10  19  30  46  68  97 130 161 195 238 289
#     4   8  15  28  47  71  94 119 152 189 228 272
#     4   9  18  32  48  66  88 113 143 180 221 266
#     4  11  23  37  51  67  91 121 153 197 252 299
#     4  10  19  32  52  72  90 116 157 202 239 279
#     4   9  17  29  46  69  97 127 161 201 239 276
#     4   9  16  28  48  70  93 121 149 177 215 267
#
# _framework density 16.263780000000001
#
# number of rings (size 3 to 8) (size 9 to 14) (size 15 to 20)
#    0.000    2.692    0.769    2.538    0.000    4.154 
#    0.000    5.385    0.000    8.308    0.000    2.154 
#    0.000    0.308    0.000    3.385    0.000    2.462 
#
# Total GULP energy -579629.655505 kJ/mol
# GULP energy per Si atom -5573.362072 kJ/mol
# Density = 1.622676 g / cm^3
# Si number density = 16.263780 Si / 1000 Ang^3
#
#
#
# Elastic Constant Matrix: (Units=GPa)
#
#
# Indices 1 2 3 4 5 6 
#
# 1 149.7008 85.6591 20.0978 0.0000 0.0000 0.0000
# 2 85.6591 149.7008 20.0978 0.0000 0.0000 0.0000
# 3 20.0978 20.0978 15.3028 0.0000 0.0000 0.0000
# 4 0.0000 0.0000 0.0000 7.7467 0.0000 0.0000
# 5 0.0000 0.0000 0.0000 0.0000 7.7467 0.0000
# 6 0.0000 0.0000 0.0000 0.0000 0.0000 16.4850
#
#
#
# Elastic Compliance Matrix: (Units=1/GPa)
#
#
# Indices 1 2 3 4 5 6 
#
# 1 0.010546 -0.005069 -0.007194 0.000000 0.000000 0.000000
# 2 -0.005069 0.010546 -0.007194 0.000000 0.000000 0.000000
# 3 -0.007194 -0.007194 0.084243 0.000000 0.000000 0.000000
# 4 0.000000 0.000000 0.000000 0.129087 0.000000 0.000000
# 5 0.000000 0.000000 0.000000 0.000000 0.129087 0.000000
# 6 0.000000 0.000000 0.000000 0.000000 0.000000 0.060661
#
#
# Mechanical properties :
#
#
# Convention : Reuss Voigt Hill
#
# Bulk Modulus (GPa) = 15.05500 62.93488 38.99494
# Shear Modulus (GPa) = 10.30454 18.98568 14.64511
#
# Velocity S-wave (km/s) = 2.51985 3.42037 3.00405
# Velocity P-wave (km/s) = 4.21225 7.37421 6.00508
#
# Compressibility (1/GPa) = 0.06642310
#
# Stress axis : x y z
#
# Youngs Moduli (GPa) = 94.82180 94.82180 11.87042
#
# Poissons Ratio (x) = 0.48063 0.08539
# Poissons Ratio (y) = 0.48063 0.08539
# Poissons Ratio (z) = 0.68212 0.68212
#
# Static dielectric constant tensor:
#      x y z
#    x 1.544480 0.000000 0.000000 
#    y 0.000000 1.544480 0.000000 
#    z 0.000000 0.000000 1.562090 
# 
# From -- ./inp_files/1953.got.cif
#   From: 2010.05.17/outbox.cif.g08.bks.cpg/sg123_1_cif.got.tgz:1953.got - 2010.05.20 11:43:04.
