data_PCOD9561247
_publ_section_title
;
Structure prediction by ZEFSAII (Michael W. Deem and Ramdas Pophale) SiO2 
 PCOD9561247
Probable space group: I -4 2 D
;
_chemical_formula_sum "Si O2"
_cell_formula_units_Z 96
_cell_length_a 20.131720
_cell_length_b 20.131720
_cell_length_c 11.495968
_cell_angle_alpha 90.000000
_cell_angle_beta 90.000000
_cell_angle_gamma 90.000000
_cell_volume 4659.156613
_symmetry_space_group_name_H-M "I -4 2 D"
_symmetry_group_IT_number 122
_symmetry_cell_setting 'tetragonal'
loop_
_space_group_symop_operation_xyz
x,y,z
y,-x,-z
-x,-y,z
-y,x,-z
x,1/2-y,1/4-z
-x,1/2+y,1/4-z
-y,1/2-x,1/4+z
y,1/2+x,1/4+z
1/2+x,1/2+y,1/2+z
1/2+y,1/2-x,1/2-z
1/2-x,1/2-y,1/2+z
1/2-y,1/2+x,1/2-z
1/2+x,-y,3/4-z
1/2-x,y,3/4-z
1/2-y,-x,3/4+z
1/2+y,x,3/4+z
loop_
_atom_site_type_symbol
_atom_site_label
_atom_site_fract_x
_atom_site_fract_y
_atom_site_fract_z
Si Si1 0.130648 0.250000 0.125000
Si Si2 0.176231 0.162475 0.922472
Si Si3 0.559879 0.842660 0.438474
Si Si4 0.901097 0.543229 0.405745
Si Si5 0.736503 0.423656 0.753551
Si Si6 0.000000 0.500000 0.250000
Si Si7 0.000000 0.000000 0.500000
Si Si8 0.887368 0.989651 0.308611
O O1 0.171394 0.301305 0.204144
O O2 0.086786 0.207786 0.214522
O O3 0.250000 0.165539 0.875000
O O4 0.148612 0.087923 0.917672
O O5 0.125778 0.198535 0.833091
O O6 0.487909 0.865487 0.483056
O O7 0.557517 0.803134 0.316974
O O8 0.603991 0.909963 0.442978
O O9 0.932573 0.488385 0.321739
O O10 0.967229 0.579204 0.454552
O O11 0.688065 0.484005 0.795379
O O12 0.750000 0.387135 0.875000
O O13 0.065528 0.992239 0.419502
#
# Coordination Sequence:
#
# PCOD9561247 Si02
#       8
#     8  16  16  16  16   4   4  16
#     4  10  24  42  64  90 134 176 224 274 336 400
#     4  10  24  42  66  94 130 180 226 270 335 410
#     4  11  21  43  63  95 139 174 225 291 341 417
#     4  11  22  37  61 102 127 171 219 278 340 410
#     4  10  24  43  66  99 138 177 233 283 343 417
#     4  12  18  36  64  90 144 160 210 284 356 386
#     4  12  18  36  68  94 136 172 222 288 356 406
#     4  11  22  39  64  98 131 176 225 279 355 402
#
# _framework density 20.604586999999999
#
# number of rings (size 3 to 8) (size 9 to 14) (size 15 to 20)
#    0.000    1.333    3.333    2.000    2.333    1.333 
#    0.000    3.333    0.000    0.000    0.000    0.000 
#    0.000    0.000    0.000    0.000    0.000    0.000 
#
# Total GULP energy -267553.330611 kJ/mol
# GULP energy per Si atom -5574.027721 kJ/mol
# Density = 2.055769 g / cm^3
# Si number density = 20.604587 Si / 1000 Ang^3
#
#
#
# Elastic Constant Matrix: (Units=GPa)
#
#
# Indices 1 2 3 4 5 6 
#
# 1 109.7065 37.4063 41.2332 0.0000 0.0000 0.0000
# 2 37.4063 109.7065 41.2332 0.0000 0.0000 0.0000
# 3 41.2332 41.2332 120.6210 0.0000 0.0000 0.0000
# 4 0.0000 0.0000 0.0000 24.6426 0.0000 0.0000
# 5 0.0000 0.0000 0.0000 0.0000 24.6426 0.0000
# 6 0.0000 0.0000 0.0000 0.0000 0.0000 8.7831
#
#
#
# Elastic Compliance Matrix: (Units=1/GPa)
#
#
# Indices 1 2 3 4 5 6 
#
# 1 0.011120 -0.002711 -0.002874 0.000000 0.000000 0.000000
# 2 -0.002711 0.011120 -0.002874 0.000000 0.000000 0.000000
# 3 -0.002874 -0.002874 0.010256 0.000000 0.000000 0.000000
# 4 0.000000 0.000000 0.000000 0.040580 0.000000 0.000000
# 5 0.000000 0.000000 0.000000 0.000000 0.040580 0.000000
# 6 0.000000 0.000000 0.000000 0.000000 0.000000 0.113855
#
#
# Mechanical properties :
#
#
# Convention : Reuss Voigt Hill
#
# Bulk Modulus (GPa) = 64.20381 64.41995 64.31188
# Shear Modulus (GPa) = 20.03018 26.29109 23.16063
#
# Velocity S-wave (km/s) = 3.12127 3.57596 3.35633
# Velocity P-wave (km/s) = 6.64961 6.95577 6.80442
#
# Compressibility (1/GPa) = 0.01557540
#
# Stress axis : x y z
#
# Youngs Moduli (GPa) = 89.92784 89.92784 97.50710
#
# Poissons Ratio (x) = 0.24381 0.28028
# Poissons Ratio (y) = 0.24381 0.28028
# Poissons Ratio (z) = 0.25850 0.25850
#
# Static dielectric constant tensor:
#      x y z
#    x 1.755620 0.000000 0.000000 
#    y 0.000000 1.755620 0.000000 
#    z 0.000000 0.000000 1.803120 
# 
# From -- ./inp_files/4531.got.cif
#   From: 2010.05.17/outbox.cif.g08.bks.cpg/sg122_3_cif.got.tgz:4531.got - 2010.05.20 11:37:33.
