data_PCOD9561962
_publ_section_title
;
Structure prediction by ZEFSAII (Michael W. Deem and Ramdas Pophale) SiO2 
 PCOD9561962
Probable space group: P 4/M M M
;
_chemical_formula_sum "Si O2"
_cell_formula_units_Z 128
_cell_length_a 18.737961
_cell_length_b 18.737961
_cell_length_c 22.630214
_cell_angle_alpha 90.000000
_cell_angle_beta 90.000000
_cell_angle_gamma 90.000000
_cell_volume 7945.721196
_symmetry_space_group_name_H-M "P 4/M M M"
_symmetry_group_IT_number 123
_symmetry_cell_setting 'tetragonal'
loop_
_space_group_symop_operation_xyz
x,y,z
-y,x,z
-x,-y,z
y,-x,z
x,-y,-z
-x,y,-z
y,x,-z
-y,-x,-z
-x,-y,-z
y,-x,-z
x,y,-z
-y,x,-z
-x,y,z
x,-y,z
-y,-x,z
y,x,z
loop_
_atom_site_type_symbol
_atom_site_label
_atom_site_fract_x
_atom_site_fract_y
_atom_site_fract_z
Si Si1 0.083908 0.797535 0.179692
Si Si2 0.581891 0.161896 0.132909
Si Si3 0.083122 0.648862 0.240395
Si Si4 0.199621 0.415413 0.324801
Si Si5 0.193132 0.314548 0.568003
Si Si6 0.196547 0.081241 0.572016
Si Si7 0.300885 0.418260 0.784295
Si Si8 0.272377 0.844657 0.067795
O O1 0.135712 0.864289 0.191082
O O2 0.099703 0.731189 0.223598
O O3 0.103570 0.766062 0.114848
O O4 0.000000 0.814506 0.183201
O O5 0.500000 0.153180 0.112829
O O6 0.602611 0.103072 0.182233
O O7 0.587430 0.236648 0.168514
O O8 0.644410 0.160274 0.084686
O O9 0.132042 0.619753 0.292361
O O10 0.000000 0.643038 0.253569
O O11 0.189480 0.500000 0.329859
O O12 0.208804 0.377698 0.387270
O O13 0.265179 0.403514 0.279573
O O14 0.183759 0.337604 0.500000
O O15 0.257323 0.257323 0.569383
O O16 0.123416 0.268876 0.586959
O O17 0.194051 0.080213 0.500000
O O18 0.129458 0.129458 0.591706
O O19 0.194437 0.000000 0.593216
O O20 0.326359 0.500000 0.784857
O O21 0.362382 0.362382 0.796841
O O22 0.231241 0.768760 0.074825
O O23 0.263381 0.867326 0.000000
#
# Coordination Sequence:
#
# PCOD9561962 Si02
#       8
#    16  16  16  16  16  16  16  16
#     4   9  18  32  50  72  96 123 156 193 233 275
#     4   9  17  28  44  66  90 118 151 191 234 268
#     4   9  18  32  48  67  92 120 150 183 223 277
#     4  10  20  31  47  71  92 115 149 189 229 265
#     4   9  18  32  48  65  89 123 156 185 223 272
#     4   8  14  25  41  61  84 110 141 176 214 256
#     4   9  17  29  45  66  91 115 142 179 223 273
#     4   9  17  29  45  64  89 124 161 194 231 277
#
# _framework density 16.109297999999999
#
# number of rings (size 3 to 8) (size 9 to 14) (size 15 to 20)
#    0.000    3.000    0.000    2.625    0.000    6.125 
#    0.000    0.625    0.000    0.000    0.000    7.875 
#    0.000    2.000    0.000   23.375    0.000    0.500 
#
# Total GULP energy -713116.745676 kJ/mol
# GULP energy per Si atom -5571.224576 kJ/mol
# Density = 1.607263 g / cm^3
# Si number density = 16.109298 Si / 1000 Ang^3
#
#
#
# Elastic Constant Matrix: (Units=GPa)
#
#
# Indices 1 2 3 4 5 6 
#
# 1 62.2845 32.5317 -0.2309 0.0000 0.0000 0.0000
# 2 32.5317 62.2845 -0.2309 0.0000 0.0000 0.0000
# 3 -0.2309 -0.2309 21.0351 0.0000 0.0000 0.0000
# 4 0.0000 0.0000 0.0000 13.7535 0.0000 0.0000
# 5 0.0000 0.0000 0.0000 0.0000 13.7535 0.0000
# 6 0.0000 0.0000 0.0000 0.0000 0.0000 16.9649
#
#
#
# Elastic Compliance Matrix: (Units=1/GPa)
#
#
# Indices 1 2 3 4 5 6 
#
# 1 0.022079 -0.011531 0.000116 0.000000 0.000000 0.000000
# 2 -0.011531 0.022079 0.000116 0.000000 0.000000 0.000000
# 3 0.000116 0.000116 0.047542 0.000000 0.000000 0.000000
# 4 0.000000 0.000000 0.000000 0.072709 0.000000 0.000000
# 5 0.000000 0.000000 0.000000 0.000000 0.072709 0.000000
# 6 0.000000 0.000000 0.000000 0.000000 0.000000 0.058945
#
#
# Mechanical properties :
#
#
# Convention : Reuss Voigt Hill
#
# Bulk Modulus (GPa) = 14.47178 23.30485 18.88831
# Shear Modulus (GPa) = 14.63290 16.46333 15.54812
#
# Velocity S-wave (km/s) = 3.01716 3.20031 3.11008
# Velocity P-wave (km/s) = 4.59790 5.30604 4.96461
#
# Compressibility (1/GPa) = 0.06910001
#
# Stress axis : x y z
#
# Youngs Moduli (GPa) = 45.29244 45.29244 21.03393
#
# Poissons Ratio (x) = 0.52229 -0.00244
# Poissons Ratio (y) = 0.52229 -0.00244
# Poissons Ratio (z) = -0.00524 -0.00524
#
# Static dielectric constant tensor:
#      x y z
#    x 1.529690 0.000000 0.000000 
#    y 0.000000 1.529690 0.000000 
#    z 0.000000 0.000000 1.540750 
# 
# From -- ./inp_files/7643.got.cif
#   From: 2010.05.17/outbox.cif.g08.bks.cpg/sg123_4_cif.got.tgz:7643.got - 2010.05.20 11:43:04.
