data_PCOD9561605
_publ_section_title
;
Structure prediction by ZEFSAII (Michael W. Deem and Ramdas Pophale) SiO2 
 PCOD9561605
Probable space group: P 4/M M M
;
_chemical_formula_sum "Si O2"
_cell_formula_units_Z 96
_cell_length_a 25.466767
_cell_length_b 25.466767
_cell_length_c 7.585114
_cell_angle_alpha 90.000000
_cell_angle_beta 90.000000
_cell_angle_gamma 90.000000
_cell_volume 4919.372875
_symmetry_space_group_name_H-M "P 4/M M M"
_symmetry_group_IT_number 123
_symmetry_cell_setting 'tetragonal'
loop_
_space_group_symop_operation_xyz
x,y,z
-y,x,z
-x,-y,z
y,-x,z
x,-y,-z
-x,y,-z
y,x,-z
-y,-x,-z
-x,-y,-z
y,-x,-z
x,y,-z
-y,x,-z
-x,y,z
x,-y,z
-y,-x,z
y,x,z
loop_
_atom_site_type_symbol
_atom_site_label
_atom_site_fract_x
_atom_site_fract_y
_atom_site_fract_z
Si Si1 0.560448 0.646503 0.284742
Si Si2 0.355674 0.730545 0.714727
Si Si3 0.500000 0.063572 0.299963
Si Si4 0.156863 0.316690 0.287496
Si Si5 0.614250 0.940080 0.283359
Si Si6 0.939799 0.849832 0.500000
Si Si7 0.795289 0.116042 0.192580
O O1 0.559905 0.646339 0.500000
O O2 0.500000 0.644051 0.225950
O O3 0.596819 0.596819 0.231828
O O4 0.591814 0.699320 0.229888
O O5 0.357173 0.731994 0.500000
O O6 0.306990 0.693011 0.763681
O O7 0.343839 0.789479 0.776677
O O8 0.500000 0.084858 0.500000
O O9 0.443916 0.076334 0.220095
O O10 0.500000 0.000000 0.311278
O O11 0.158073 0.319993 0.500000
O O12 0.104038 0.345477 0.226597
O O13 0.149407 0.256166 0.239775
O O14 0.612598 0.940790 0.500000
O O15 0.625678 0.000000 0.229307
O O16 0.899196 0.899196 0.500000
O O17 0.926497 0.812517 0.334740
O O18 0.000000 0.867053 0.500000
O O19 0.842867 0.157134 0.189148
O O20 0.788148 0.092381 0.000000
#
# Coordination Sequence:
#
# PCOD9561605 Si02
#       7
#    16  16   8  16  16   8  16
#     4   8  13  21  31  46  74 114 160 215 277 334
#     4   8  14  23  35  52  79 114 153 202 259 318
#     4   7  10  20  34  48  77 119 153 190 242 288
#     4  10  17  27  45  72  97 131 174 212 265 321
#     4   8  14  23  36  57  87 121 158 203 250 296
#     4  10  22  41  64  90 120 153 187 227 274 322
#     4  10  21  37  57  82 113 148 185 225 269 321
#
# _framework density 19.514683999999999
#
# number of rings (size 3 to 8) (size 9 to 14) (size 15 to 20)
#    0.000    3.250    0.833    2.500    0.000    1.917 
#    1.500    0.833    0.000    0.000    0.000    2.917 
#    0.000    2.000    0.000    0.000    0.000    0.167 
#
# Total GULP energy -534837.078125 kJ/mol
# GULP energy per Si atom -5571.219564 kJ/mol
# Density = 1.947027 g / cm^3
# Si number density = 19.514684 Si / 1000 Ang^3
#
#
#
# Elastic Constant Matrix: (Units=GPa)
#
#
# Indices 1 2 3 4 5 6 
#
# 1 92.6810 64.8543 27.5634 0.0000 0.0000 0.0000
# 2 64.8543 92.6810 27.5634 0.0000 0.0000 0.0000
# 3 27.5634 27.5634 54.7026 0.0000 0.0000 0.0000
# 4 0.0000 0.0000 0.0000 -14.3281 0.0000 0.0000
# 5 0.0000 0.0000 0.0000 0.0000 -14.3281 0.0000
# 6 0.0000 0.0000 0.0000 0.0000 0.0000 11.6565
#
#
#
# Elastic Compliance Matrix: (Units=1/GPa)
#
#
# Indices 1 2 3 4 5 6 
#
# 1 0.021822 -0.014115 -0.003883 0.000000 0.000000 0.000000
# 2 -0.014115 0.021822 -0.003883 0.000000 0.000000 0.000000
# 3 -0.003883 -0.003883 0.022194 0.000000 0.000000 0.000000
# 4 0.000000 0.000000 0.000000 -0.069793 0.000000 0.000000
# 5 0.000000 0.000000 0.000000 0.000000 -0.069793 0.000000
# 6 0.000000 0.000000 0.000000 0.000000 0.000000 0.085789
#
#
# Mechanical properties :
#
#
# Convention : Reuss Voigt Hill
#
# Bulk Modulus (GPa) = 45.30125 53.33634 49.31879
# Shear Modulus (GPa) = 79.16187 4.60562 41.88375
#
# Velocity S-wave (km/s) = 6.37600 1.53792 4.63781
# Velocity P-wave (km/s) = 8.80164 5.52669 7.34892
#
# Compressibility (1/GPa) = 0.02207445
#
# Stress axis : x y z
#
# Youngs Moduli (GPa) = 45.82602 45.82602 45.05725
#
# Poissons Ratio (x) = 0.64684 0.17497
# Poissons Ratio (y) = 0.64684 0.17497
# Poissons Ratio (z) = 0.17795 0.17795
#
# Static dielectric constant tensor:
#      x y z
#    x 1.676160 0.000000 0.000000 
#    y 0.000000 1.676160 0.000000 
#    z 0.000000 0.000000 1.762970 
# 
# From -- ./inp_files/1676.got.cif
#   From: 2010.05.17/outbox.cif.g08.bks.cpg/sg123_1_cif.got.tgz:1676.got - 2010.05.20 11:43:04.
