data_PCOD9561491
_publ_section_title
;
Structure prediction by ZEFSAII (Michael W. Deem and Ramdas Pophale) SiO2 
 PCOD9561491
Probable space group: I -4 2 D
;
_chemical_formula_sum "Si O2"
_cell_formula_units_Z 36
_cell_length_a 8.760506
_cell_length_b 8.760506
_cell_length_c 17.339531
_cell_angle_alpha 90.000000
_cell_angle_beta 90.000000
_cell_angle_gamma 90.000000
_cell_volume 1330.747716
_symmetry_space_group_name_H-M "I -4 2 D"
_symmetry_group_IT_number 122
_symmetry_cell_setting 'tetragonal'
loop_
_space_group_symop_operation_xyz
x,y,z
y,-x,-z
-x,-y,z
-y,x,-z
x,1/2-y,1/4-z
-x,1/2+y,1/4-z
-y,1/2-x,1/4+z
y,1/2+x,1/4+z
1/2+x,1/2+y,1/2+z
1/2+y,1/2-x,1/2-z
1/2-x,1/2-y,1/2+z
1/2-y,1/2+x,1/2-z
1/2+x,-y,3/4-z
1/2-x,y,3/4-z
1/2-y,-x,3/4+z
1/2+y,x,3/4+z
loop_
_atom_site_type_symbol
_atom_site_label
_atom_site_fract_x
_atom_site_fract_y
_atom_site_fract_z
Si Si1 0.000000 0.000000 0.500000
Si Si2 0.171701 0.436238 0.001523
Si Si3 0.089680 0.148683 0.909976
O O1 0.830164 0.989550 0.460051
O O2 0.212877 0.486682 0.089102
O O3 0.000000 0.500000 0.985927
O O4 0.141584 0.262876 0.976824
O O5 0.250000 0.098476 0.875000
O O6 0.000000 0.000000 0.929941
#
# Coordination Sequence:
#
# PCOD9561491 Si02
#       3
#     4  16  16
#     4  12  24  52  84 128 184 252 320 400 498 588
#     4  11  27  50  88 130 181 245 322 407 487 597
#     4  11  26  54  83 127 180 245 321 399 498 588
#
# _framework density 27.052461000000001
#
# number of rings (size 3 to 8) (size 9 to 14) (size 15 to 20)
#    0.000    0.889    4.444    0.000    3.111    7.111 
#    0.000    0.000    0.000    0.000    0.000    0.000 
#    0.000    0.000    0.000    0.000    0.000    0.000 
#
# Total GULP energy -100360.548631 kJ/mol
# GULP energy per Si atom -5575.586035 kJ/mol
# Density = 2.699089 g / cm^3
# Si number density = 27.052461 Si / 1000 Ang^3
#
#
#
# Elastic Constant Matrix: (Units=GPa)
#
#
# Indices 1 2 3 4 5 6 
#
# 1 186.3273 50.9147 64.9754 0.0000 0.0000 0.0000
# 2 50.9147 186.3273 64.9754 0.0000 0.0000 0.0000
# 3 64.9754 64.9754 114.3261 0.0000 0.0000 0.0000
# 4 0.0000 0.0000 0.0000 22.3488 0.0000 0.0000
# 5 0.0000 0.0000 0.0000 0.0000 22.3488 0.0000
# 6 0.0000 0.0000 0.0000 0.0000 0.0000 67.4503
#
#
#
# Elastic Compliance Matrix: (Units=1/GPa)
#
#
# Indices 1 2 3 4 5 6 
#
# 1 0.006753 -0.000632 -0.003478 0.000000 0.000000 0.000000
# 2 -0.000632 0.006753 -0.003478 0.000000 0.000000 0.000000
# 3 -0.003478 -0.003478 0.012701 0.000000 0.000000 0.000000
# 4 0.000000 0.000000 0.000000 0.044745 0.000000 0.000000
# 5 0.000000 0.000000 0.000000 0.000000 0.044745 0.000000
# 6 0.000000 0.000000 0.000000 0.000000 0.000000 0.014826
#
#
# Mechanical properties :
#
#
# Convention : Reuss Voigt Hill
#
# Bulk Modulus (GPa) = 90.67972 94.30133 92.49052
# Shear Modulus (GPa) = 33.47250 42.83725 38.15487
#
# Velocity S-wave (km/s) = 3.52137 3.98362 3.75961
# Velocity P-wave (km/s) = 7.07998 7.48955 7.28764
#
# Compressibility (1/GPa) = 0.01102782
#
# Stress axis : x y z
#
# Youngs Moduli (GPa) = 148.09007 148.09007 78.73535
#
# Poissons Ratio (x) = 0.09362 0.27388
# Poissons Ratio (y) = 0.09362 0.27388
# Poissons Ratio (z) = 0.51513 0.51513
#
# Static dielectric constant tensor:
#      x y z
#    x 2.108880 0.000000 0.000000 
#    y 0.000000 2.108880 0.000000 
#    z 0.000000 0.000000 2.363020 
# 
# From -- ./inp_files/6639.got.cif
#   From: 2010.05.17/outbox.cif.g08.bks.cpg/sg122_4_cif.got.tgz:6639.got - 2010.05.20 11:37:33.
