data_PCOD9561335
_publ_section_title
;
Structure prediction by ZEFSAII (Michael W. Deem and Ramdas Pophale) SiO2 
 PCOD9561335
Probable space group: I -4 2 D
;
_chemical_formula_sum "Si O2"
_cell_formula_units_Z 72
_cell_length_a 17.138108
_cell_length_b 17.138108
_cell_length_c 12.861783
_cell_angle_alpha 90.000000
_cell_angle_beta 90.000000
_cell_angle_gamma 90.000000
_cell_volume 3777.695325
_symmetry_space_group_name_H-M "I -4 2 D"
_symmetry_group_IT_number 122
_symmetry_cell_setting 'tetragonal'
loop_
_space_group_symop_operation_xyz
x,y,z
y,-x,-z
-x,-y,z
-y,x,-z
x,1/2-y,1/4-z
-x,1/2+y,1/4-z
-y,1/2-x,1/4+z
y,1/2+x,1/4+z
1/2+x,1/2+y,1/2+z
1/2+y,1/2-x,1/2-z
1/2-x,1/2-y,1/2+z
1/2-y,1/2+x,1/2-z
1/2+x,-y,3/4-z
1/2-x,y,3/4-z
1/2-y,-x,3/4+z
1/2+y,x,3/4+z
loop_
_atom_site_type_symbol
_atom_site_label
_atom_site_fract_x
_atom_site_fract_y
_atom_site_fract_z
Si Si1 0.815298 0.250000 0.125000
Si Si2 0.292423 0.907194 0.121855
Si Si3 0.262473 0.425627 0.174161
Si Si4 0.817843 0.571300 0.958565
Si Si5 0.906133 0.833064 0.607549
O O1 0.762018 0.170721 0.126730
O O2 0.871713 0.252758 0.226160
O O3 0.372136 0.888008 0.064440
O O4 0.321843 0.930531 0.237952
O O5 0.254734 0.981142 0.064645
O O6 0.349017 0.402751 0.133785
O O7 0.209349 0.409967 0.074003
O O8 0.750000 0.591694 0.875000
O O9 0.835436 0.481219 0.932284
O O10 0.862567 0.750000 0.625000
#
# Coordination Sequence:
#
# PCOD9561335 Si02
#       5
#     8  16  16  16  16
#     4  12  26  40  62  90 124 176 206 250 300 376
#     4  12  22  40  66  91 124 161 211 256 312 370
#     4  12  24  39  62  92 127 161 210 256 307 374
#     4  11  21  37  63  94 120 159 200 261 318 364
#     4  11  19  39  63  92 124 154 201 266 321 354
#
# _framework density 19.059239000000002
#
# number of rings (size 3 to 8) (size 9 to 14) (size 15 to 20)
#    0.000    0.444   10.000    0.000    0.000    2.667 
#    0.000    2.222    0.000    3.333    0.000    0.000 
#    0.000    0.000    0.000    0.000    0.000    0.000 
#
# Total GULP energy -200667.213795 kJ/mol
# GULP energy per Si atom -5574.089272 kJ/mol
# Density = 1.901586 g / cm^3
# Si number density = 19.059239 Si / 1000 Ang^3
#
#
#
# Elastic Constant Matrix: (Units=GPa)
#
#
# Indices 1 2 3 4 5 6 
#
# 1 69.1059 36.5214 41.2190 0.0000 0.0000 0.0000
# 2 36.5214 69.1059 41.2190 0.0000 0.0000 0.0000
# 3 41.2190 41.2190 116.6048 0.0000 0.0000 0.0000
# 4 0.0000 0.0000 0.0000 15.7551 0.0000 0.0000
# 5 0.0000 0.0000 0.0000 0.0000 15.7551 0.0000
# 6 0.0000 0.0000 0.0000 0.0000 0.0000 3.2604
#
#
#
# Elastic Compliance Matrix: (Units=1/GPa)
#
#
# Indices 1 2 3 4 5 6 
#
# 1 0.021882 -0.008808 -0.004622 0.000000 0.000000 0.000000
# 2 -0.008808 0.021882 -0.004622 0.000000 0.000000 0.000000
# 3 -0.004622 -0.004622 0.011843 0.000000 0.000000 0.000000
# 4 0.000000 0.000000 0.000000 0.063472 0.000000 0.000000
# 5 0.000000 0.000000 0.000000 0.000000 0.063472 0.000000
# 6 0.000000 0.000000 0.000000 0.000000 0.000000 0.306714
#
#
# Mechanical properties :
#
#
# Convention : Reuss Voigt Hill
#
# Bulk Modulus (GPa) = 51.26804 54.74836 53.00820
# Shear Modulus (GPa) = 9.40082 16.01124 12.70603
#
# Velocity S-wave (km/s) = 2.22331 2.90155 2.58478
# Velocity P-wave (km/s) = 5.79211 6.32559 6.06472
#
# Compressibility (1/GPa) = 0.01950533
#
# Stress axis : x y z
#
# Youngs Moduli (GPa) = 45.69995 45.69995 84.43497
#
# Poissons Ratio (x) = 0.40251 0.39023
# Poissons Ratio (y) = 0.40251 0.39023
# Poissons Ratio (z) = 0.21121 0.21121
#
# Static dielectric constant tensor:
#      x y z
#    x 1.697490 0.000000 0.000000 
#    y 0.000000 1.697490 0.000000 
#    z 0.000000 0.000000 1.713030 
# 
# From -- ./inp_files/4176.got.cif
#   From: 2010.05.17/outbox.cif.g08.bks.cpg/sg122_3_cif.got.tgz:4176.got - 2010.05.20 11:37:33.
