data_PCOD9561166
_publ_section_title
;
Structure prediction by ZEFSAII (Michael W. Deem and Ramdas Pophale) SiO2 
 PCOD9561166
Probable space group: I -4 2 D
;
_chemical_formula_sum "Si O2"
_cell_formula_units_Z 128
_cell_length_a 21.301884
_cell_length_b 21.301884
_cell_length_c 12.247436
_cell_angle_alpha 90.000000
_cell_angle_beta 90.000000
_cell_angle_gamma 90.000000
_cell_volume 5557.522242
_symmetry_space_group_name_H-M "I -4 2 D"
_symmetry_group_IT_number 122
_symmetry_cell_setting 'tetragonal'
loop_
_space_group_symop_operation_xyz
x,y,z
y,-x,-z
-x,-y,z
-y,x,-z
x,1/2-y,1/4-z
-x,1/2+y,1/4-z
-y,1/2-x,1/4+z
y,1/2+x,1/4+z
1/2+x,1/2+y,1/2+z
1/2+y,1/2-x,1/2-z
1/2-x,1/2-y,1/2+z
1/2-y,1/2+x,1/2-z
1/2+x,-y,3/4-z
1/2-x,y,3/4-z
1/2-y,-x,3/4+z
1/2+y,x,3/4+z
loop_
_atom_site_type_symbol
_atom_site_label
_atom_site_fract_x
_atom_site_fract_y
_atom_site_fract_z
Si Si1 0.755373 0.675892 0.623849
Si Si2 0.571773 0.070946 0.759805
Si Si3 0.412218 0.910116 0.998432
Si Si4 0.459264 0.092894 0.100660
Si Si5 0.379171 0.198219 0.028044
Si Si6 0.064687 0.762895 0.746869
Si Si7 0.006231 0.352551 0.839472
Si Si8 0.150998 0.679073 0.170086
O O1 0.759496 0.750000 0.625000
O O2 0.820867 0.656395 0.569625
O O3 0.756799 0.637387 0.734403
O O4 0.696445 0.663772 0.546221
O O5 0.498357 0.079910 0.788399
O O6 0.597205 0.126195 0.682148
O O7 0.604197 0.067194 0.877979
O O8 0.477589 0.934874 0.049705
O O9 0.359125 0.932993 0.083047
O O10 0.427554 0.836638 0.986729
O O11 0.438278 0.153161 0.029994
O O12 0.401367 0.045095 0.112881
O O13 0.475556 0.120010 0.220734
O O14 0.388252 0.250000 0.125000
O O15 0.353396 0.206562 0.903453
O O16 0.043989 0.750000 0.625000
O O17 0.021995 0.717650 0.822973
O O18 0.137185 0.750000 0.125000
#
# Coordination Sequence:
#
# PCOD9561166 Si02
#       8
#    16  16  16  16  16  16  16  16
#     4  10  22  44  70  99 140 189 238 302 383 452
#     4  11  26  46  68 102 142 193 245 301 373 457
#     4  12  27  44  71 106 148 190 250 314 379 470
#     4  12  23  43  68 106 137 184 238 300 384 443
#     4  10  23  39  68 104 134 180 238 297 363 453
#     4  12  24  47  72 107 150 196 248 318 387 460
#     4  12  26  44  71 105 146 194 243 312 386 454
#     4  10  22  46  72  99 136 188 245 302 372 454
#
# _framework density 23.031846000000002
#
# number of rings (size 3 to 8) (size 9 to 14) (size 15 to 20)
#    0.000    0.875    5.000    1.125    7.000    2.500 
#    0.000    0.625    0.000    0.000    0.000    0.000 
#    0.000    0.000    0.000    0.000    0.000    0.000 
#
# Total GULP energy -356504.272600 kJ/mol
# GULP energy per Si atom -5570.379259 kJ/mol
# Density = 2.297942 g / cm^3
# Si number density = 23.031846 Si / 1000 Ang^3
#
#
#
# Elastic Constant Matrix: (Units=GPa)
#
#
# Indices 1 2 3 4 5 6 
#
# 1 104.1945 36.6857 20.8687 0.0000 0.0000 0.0000
# 2 36.6857 104.1945 20.8687 0.0000 0.0000 0.0000
# 3 20.8687 20.8687 90.3047 0.0000 0.0000 0.0000
# 4 0.0000 0.0000 0.0000 17.3630 0.0000 0.0000
# 5 0.0000 0.0000 0.0000 0.0000 17.3630 0.0000
# 6 0.0000 0.0000 0.0000 0.0000 0.0000 26.7639
#
#
#
# Elastic Compliance Matrix: (Units=1/GPa)
#
#
# Indices 1 2 3 4 5 6 
#
# 1 0.011216 -0.003596 -0.001761 0.000000 0.000000 0.000000
# 2 -0.003596 0.011216 -0.001761 0.000000 0.000000 0.000000
# 3 -0.001761 -0.001761 0.011887 0.000000 0.000000 0.000000
# 4 0.000000 0.000000 0.000000 0.057594 0.000000 0.000000
# 5 0.000000 0.000000 0.000000 0.000000 0.057594 0.000000
# 6 0.000000 0.000000 0.000000 0.000000 0.000000 0.037364
#
#
# Mechanical properties :
#
#
# Convention : Reuss Voigt Hill
#
# Bulk Modulus (GPa) = 49.79161 50.61555 50.20358
# Shear Modulus (GPa) = 24.06126 26.98267 25.52197
#
# Velocity S-wave (km/s) = 3.23568 3.42649 3.33245
# Velocity P-wave (km/s) = 5.96867 6.13828 6.05407
#
# Compressibility (1/GPa) = 0.02008371
#
# Stress axis : x y z
#
# Youngs Moduli (GPa) = 89.15524 89.15524 84.12206
#
# Poissons Ratio (x) = 0.32064 0.14813
# Poissons Ratio (y) = 0.32064 0.14813
# Poissons Ratio (z) = 0.15699 0.15699
#
# Static dielectric constant tensor:
#      x y z
#    x 2.073190 0.000000 0.000000 
#    y 0.000000 2.073190 0.000000 
#    z 0.000000 0.000000 1.901700 
# 
# From -- ./inp_files/4645.got.cif
#   From: 2010.05.17/outbox.cif.g08.bks.cpg/sg122_3_cif.got.tgz:4645.got - 2010.05.20 11:37:33.
