data_PCOD9561069
_publ_section_title
;
Structure prediction by ZEFSAII (Michael W. Deem and Ramdas Pophale) SiO2 
 PCOD9561069
Probable space group: I -4 2 D
;
_chemical_formula_sum "Si O2"
_cell_formula_units_Z 52
_cell_length_a 17.911987
_cell_length_b 17.911987
_cell_length_c 7.779301
_cell_angle_alpha 90.000000
_cell_angle_beta 90.000000
_cell_angle_gamma 90.000000
_cell_volume 2495.905318
_symmetry_space_group_name_H-M "I -4 2 D"
_symmetry_group_IT_number 122
_symmetry_cell_setting 'tetragonal'
loop_
_space_group_symop_operation_xyz
x,y,z
y,-x,-z
-x,-y,z
-y,x,-z
x,1/2-y,1/4-z
-x,1/2+y,1/4-z
-y,1/2-x,1/4+z
y,1/2+x,1/4+z
1/2+x,1/2+y,1/2+z
1/2+y,1/2-x,1/2-z
1/2-x,1/2-y,1/2+z
1/2-y,1/2+x,1/2-z
1/2+x,-y,3/4-z
1/2-x,y,3/4-z
1/2-y,-x,3/4+z
1/2+y,x,3/4+z
loop_
_atom_site_type_symbol
_atom_site_label
_atom_site_fract_x
_atom_site_fract_y
_atom_site_fract_z
Si Si1 0.250000 0.999089 0.375000
Si Si2 0.500000 0.000000 0.250000
Si Si3 0.845079 0.469274 0.558446
Si Si4 0.405321 0.750000 0.625000
Si Si5 0.304987 0.355831 0.725200
O O1 0.204922 0.958095 0.520234
O O2 0.305706 0.056201 0.471006
O O3 0.513906 0.927756 0.370529
O O4 0.814163 0.538376 0.446414
O O5 0.834570 0.390712 0.465389
O O6 0.354592 0.729472 0.462897
O O7 0.250000 0.323949 0.875000
#
# Coordination Sequence:
#
# PCOD9561069 Si02
#       5
#     8   4  16   8  16
#     4   8  18  36  59  85 126 156 190 264 328 364
#     4  12  20  36  74 100 112 170 228 268 314 388
#     4  11  20  38  63  92 125 165 208 268 335 373
#     4  10  22  38  57  95 130 160 200 274 328 384
#     4   9  19  40  58  80 123 161 201 257 315 381
#
# _framework density 20.834123000000002
#
# number of rings (size 3 to 8) (size 9 to 14) (size 15 to 20)
#    0.923    1.231    3.077    0.000    0.000    2.462 
#   11.077    1.538    0.000    0.000    0.000    0.000 
#    0.000    0.000    0.000    0.000    0.000    0.000 
#
# Total GULP energy -144824.861107 kJ/mol
# GULP energy per Si atom -5570.186966 kJ/mol
# Density = 2.078670 g / cm^3
# Si number density = 20.834123 Si / 1000 Ang^3
#
#
#
# Elastic Constant Matrix: (Units=GPa)
#
#
# Indices 1 2 3 4 5 6 
#
# 1 55.1913 32.2190 27.2473 0.0000 0.0000 0.0000
# 2 32.2190 55.1913 27.2473 0.0000 0.0000 0.0000
# 3 27.2473 27.2473 144.1293 0.0000 0.0000 0.0000
# 4 0.0000 0.0000 0.0000 7.3407 0.0000 0.0000
# 5 0.0000 0.0000 0.0000 0.0000 7.3407 0.0000
# 6 0.0000 0.0000 0.0000 0.0000 0.0000 14.1855
#
#
#
# Elastic Compliance Matrix: (Units=1/GPa)
#
#
# Indices 1 2 3 4 5 6 
#
# 1 0.028250 -0.015281 -0.002452 0.000000 0.000000 0.000000
# 2 -0.015281 0.028250 -0.002452 0.000000 0.000000 0.000000
# 3 -0.002452 -0.002452 0.007865 0.000000 0.000000 0.000000
# 4 0.000000 0.000000 0.000000 0.136227 0.000000 0.000000
# 5 0.000000 0.000000 0.000000 0.000000 0.136227 0.000000
# 6 0.000000 0.000000 0.000000 0.000000 0.000000 0.070494
#
#
# Mechanical properties :
#
#
# Convention : Reuss Voigt Hill
#
# Bulk Modulus (GPa) = 41.67377 47.54877 44.61127
# Shear Modulus (GPa) = 10.97260 16.95994 13.96627
#
# Velocity S-wave (km/s) = 2.29741 2.85624 2.59193
# Velocity P-wave (km/s) = 5.20418 5.80944 5.51512
#
# Compressibility (1/GPa) = 0.02399591
#
# Stress axis : x y z
#
# Youngs Moduli (GPa) = 35.39855 35.39855 127.14245
#
# Poissons Ratio (x) = 0.54092 0.31172
# Poissons Ratio (y) = 0.54092 0.31172
# Poissons Ratio (z) = 0.08679 0.08679
#
# Static dielectric constant tensor:
#      x y z
#    x 1.784480 0.000000 0.000000 
#    y 0.000000 1.784480 0.000000 
#    z 0.000000 0.000000 1.797610 
# 
# From -- ./inp_files/2231.got.cif
#   From: 2010.05.17/outbox.cif.g08.bks.cpg/sg122_2_cif.got.tgz:2231.got - 2010.05.20 11:37:33.
