data_PCOD9561712
_publ_section_title
;
Structure prediction by ZEFSAII (Michael W. Deem and Ramdas Pophale) SiO2 
 PCOD9561712
Probable space group: P 4/M M M
;
_chemical_formula_sum "Si O2"
_cell_formula_units_Z 56
_cell_length_a 12.868083
_cell_length_b 12.868083
_cell_length_c 21.318844
_cell_angle_alpha 90.000000
_cell_angle_beta 90.000000
_cell_angle_gamma 90.000000
_cell_volume 3530.135362
_symmetry_space_group_name_H-M "P 4/M M M"
_symmetry_group_IT_number 123
_symmetry_cell_setting 'tetragonal'
loop_
_space_group_symop_operation_xyz
x,y,z
-y,x,z
-x,-y,z
y,-x,z
x,-y,-z
-x,y,-z
y,x,-z
-y,-x,-z
-x,-y,-z
y,-x,-z
x,y,-z
-y,x,-z
-x,y,z
x,-y,z
-y,-x,z
y,x,z
loop_
_atom_site_type_symbol
_atom_site_label
_atom_site_fract_x
_atom_site_fract_y
_atom_site_fract_z
Si Si1 0.000000 0.380177 0.154997
Si Si2 0.374169 0.116812 0.368917
Si Si3 0.171204 0.000000 0.924518
Si Si4 0.375948 0.784703 0.500000
Si Si5 0.788605 0.378682 0.235678
O O1 0.896250 0.370020 0.197300
O O2 0.000000 0.500000 0.129823
O O3 0.000000 0.284546 0.106552
O O4 0.500000 0.112067 0.371608
O O5 0.339898 0.159796 0.436168
O O6 0.351905 0.184773 0.307956
O O7 0.335027 0.000000 0.359505
O O8 0.100942 0.100942 0.907092
O O9 0.180383 0.000000 0.000000
O O10 0.500000 0.784709 0.500000
O O11 0.330144 0.669857 0.500000
O O12 0.756116 0.500000 0.232663
O O13 0.699785 0.300216 0.212886
#
# Coordination Sequence:
#
# PCOD9561712 Si02
#       5
#     8  16   8   8  16
#     4  10  19  32  50  73 101 132 166 199 231 274
#     4   9  16  29  45  62  84 111 151 198 238 281
#     4   9  18  33  53  77 104 131 160 198 242 284
#     4  10  19  28  41  61  84 114 149 189 239 290
#     4  10  19  31  48  70  97 127 159 198 241 285
#
# _framework density 15.863416000000001
#
# number of rings (size 3 to 8) (size 9 to 14) (size 15 to 20)
#    0.000    2.429    1.429    2.571    0.000    2.429 
#    0.000    0.000    0.000    5.143    0.000    0.000 
#    0.000    2.286    0.000   26.571    0.000    0.000 
#
# Total GULP energy -311776.416184 kJ/mol
# GULP energy per Si atom -5567.436003 kJ/mol
# Density = 1.582731 g / cm^3
# Si number density = 15.863416 Si / 1000 Ang^3
#
#
#
# Elastic Constant Matrix: (Units=GPa)
#
#
# Indices 1 2 3 4 5 6 
#
# 1 84.3445 72.3212 32.4279 0.0000 0.0000 0.0000
# 2 72.3212 84.3530 32.4272 0.0000 0.0000 0.0000
# 3 32.4279 32.4272 52.1563 0.0000 0.0000 0.0000
# 4 0.0000 0.0000 0.0000 18.1017 0.0000 0.0000
# 5 0.0000 0.0000 0.0000 0.0000 18.1005 0.0000
# 6 0.0000 0.0000 0.0000 0.0000 0.0000 20.0490
#
#
#
# Elastic Compliance Matrix: (Units=1/GPa)
#
#
# Indices 1 2 3 4 5 6 
#
# 1 0.045872 -0.037274 -0.005346 0.000000 0.000000 0.000000
# 2 -0.037274 0.045865 -0.005341 0.000000 0.000000 0.000000
# 3 -0.005346 -0.005341 0.025818 0.000000 0.000000 0.000000
# 4 0.000000 0.000000 0.000000 0.055243 0.000000 0.000000
# 5 0.000000 0.000000 0.000000 0.000000 0.055247 0.000000
# 6 0.000000 0.000000 0.000000 0.000000 0.000000 0.049878
#
#
# Mechanical properties :
#
#
# Convention : Reuss Voigt Hill
#
# Bulk Modulus (GPa) = 46.22628 55.02295 50.62461
# Shear Modulus (GPa) = 13.12140 16.82875 14.97507
#
# Velocity S-wave (km/s) = 2.87914 3.26061 3.07579
# Velocity P-wave (km/s) = 6.34476 6.99544 6.67803
#
# Compressibility (1/GPa) = 0.02163271
#
# Stress axis : x y z
#
# Youngs Moduli (GPa) = 21.79981 21.80300 38.73254
#
# Poissons Ratio (x) = 0.81268 0.20708
# Poissons Ratio (y) = 0.81256 0.20688
# Poissons Ratio (z) = 0.11655 0.11645
#
# Static dielectric constant tensor:
#      x y z
#    x 1.525060 0.000000 0.000000 
#    y 0.000000 1.525060 0.000000 
#    z 0.000000 0.000000 1.530770 
# 
# From -- ./inp_files/6980.got.cif
#   From: 2010.05.17/outbox.cif.g08.bks.cpg/sg123_4_cif.got.tgz:6980.got - 2010.05.20 11:43:04.
