data_PCOD9561866
_publ_section_title
;
Structure prediction by ZEFSAII (Michael W. Deem and Ramdas Pophale) SiO2 
 PCOD9561866
Probable space group: P 4/M M M
;
_chemical_formula_sum "Si O2"
_cell_formula_units_Z 72
_cell_length_a 20.498109
_cell_length_b 20.498109
_cell_length_c 7.384049
_cell_angle_alpha 90.000000
_cell_angle_beta 90.000000
_cell_angle_gamma 90.000000
_cell_volume 3102.574126
_symmetry_space_group_name_H-M "P 4/M M M"
_symmetry_group_IT_number 123
_symmetry_cell_setting 'tetragonal'
loop_
_space_group_symop_operation_xyz
x,y,z
-y,x,z
-x,-y,z
y,-x,z
x,-y,-z
-x,y,-z
y,x,-z
-y,-x,-z
-x,-y,-z
y,-x,-z
x,y,-z
-y,x,-z
-x,y,z
x,-y,z
-y,-x,z
y,x,z
loop_
_atom_site_type_symbol
_atom_site_label
_atom_site_fract_x
_atom_site_fract_y
_atom_site_fract_z
Si Si1 0.174655 0.928907 0.282661
Si Si2 0.500000 0.750605 0.199345
Si Si3 0.677946 0.891343 0.785707
Si Si4 0.250067 0.354732 0.221676
Si Si5 0.605489 0.500000 0.717482
Si Si6 0.000000 0.423866 0.778235
O O1 0.169296 0.928634 0.500000
O O2 0.130496 0.869505 0.213240
O O3 0.251090 0.921510 0.242178
O O4 0.152193 0.000000 0.217573
O O5 0.429229 0.761014 0.285013
O O6 0.500000 0.672825 0.184790
O O7 0.500000 0.783140 0.000000
O O8 0.680291 0.816645 0.721736
O O9 0.618927 0.937125 0.717963
O O10 0.666584 0.887049 0.000000
O O11 0.313877 0.313877 0.281057
O O12 0.254477 0.357710 0.000000
O O13 0.562679 0.562679 0.763168
O O14 0.615360 0.500000 0.500000
O O15 0.000000 0.500000 0.722301
O O16 0.000000 0.424206 0.000000
#
# Coordination Sequence:
#
# PCOD9561866 Si02
#       6
#    16   8  16  16   8   8
#     4  10  21  37  57  81 110 143 179 222 270 321
#     4  10  19  31  49  71  98 129 168 214 258 305
#     4  10  19  34  56  80 107 142 179 218 263 317
#     4   9  18  30  46  72 102 130 164 211 262 305
#     4   9  18  32  48  66  91 125 164 207 259 316
#     4   9  18  30  51  83 112 137 174 218 263 313
#
# _framework density 23.206537999999998
#
# number of rings (size 3 to 8) (size 9 to 14) (size 15 to 20)
#    0.000    2.444    1.111    1.667    1.556    2.889 
#    0.000    2.778    0.000    5.333    0.000    1.556 
#    0.000    0.000    0.000    0.000    0.000    0.000 
#
# Total GULP energy -401819.375578 kJ/mol
# GULP energy per Si atom -5580.824661 kJ/mol
# Density = 2.315372 g / cm^3
# Si number density = 23.206538 Si / 1000 Ang^3
#
#
#
# Elastic Constant Matrix: (Units=GPa)
#
#
# Indices 1 2 3 4 5 6 
#
# 1 139.5227 50.1208 -4.9645 0.0000 0.0000 0.0000
# 2 50.1208 139.5227 -4.9645 0.0000 0.0000 0.0000
# 3 -4.9645 -4.9645 71.8446 0.0000 0.0000 0.0000
# 4 0.0000 0.0000 0.0000 2.2568 0.0000 0.0000
# 5 0.0000 0.0000 0.0000 0.0000 2.2568 0.0000
# 6 0.0000 0.0000 0.0000 0.0000 0.0000 62.8688
#
#
#
# Elastic Compliance Matrix: (Units=1/GPa)
#
#
# Indices 1 2 3 4 5 6 
#
# 1 0.008239 -0.002947 0.000366 0.000000 0.000000 0.000000
# 2 -0.002947 0.008239 0.000366 0.000000 0.000000 0.000000
# 3 0.000366 0.000366 0.013969 0.000000 0.000000 0.000000
# 4 0.000000 0.000000 0.000000 0.443112 0.000000 0.000000
# 5 0.000000 0.000000 0.000000 0.000000 0.443112 0.000000
# 6 0.000000 0.000000 0.000000 0.000000 0.000000 0.015906
#
#
# Mechanical properties :
#
#
# Convention : Reuss Voigt Hill
#
# Bulk Modulus (GPa) = 38.43693 47.91928 43.17810
# Shear Modulus (GPa) = 5.28720 34.18969 19.73845
#
# Velocity S-wave (km/s) = 1.51105 3.84249 2.91959
# Velocity P-wave (km/s) = 4.43208 6.35454 5.47830
#
# Compressibility (1/GPa) = 0.02601665
#
# Stress axis : x y z
#
# Youngs Moduli (GPa) = 121.37662 121.37662 71.58464
#
# Poissons Ratio (x) = 0.35765 -0.02618
# Poissons Ratio (y) = 0.35765 -0.02618
# Poissons Ratio (z) = -0.04439 -0.04439
#
# Static dielectric constant tensor:
#      x y z
#    x 1.862520 0.000000 0.000000 
#    y 0.000000 1.862520 0.000000 
#    z 0.000000 0.000000 1.902530 
# 
# From -- ./inp_files/1165.got.cif
#   From: 2010.05.17/outbox.cif.g08.bks.cpg/sg123_1_cif.got.tgz:1165.got - 2010.05.20 11:43:04.
