data_PCOD9561566
_publ_section_title
;
Structure prediction by ZEFSAII (Michael W. Deem and Ramdas Pophale) SiO2 
 PCOD9561566
Probable space group: I -4 2 D
;
_chemical_formula_sum "Si O2"
_cell_formula_units_Z 44
_cell_length_a 18.205641
_cell_length_b 18.205641
_cell_length_c 5.010119
_cell_angle_alpha 90.000000
_cell_angle_beta 90.000000
_cell_angle_gamma 90.000000
_cell_volume 1660.580717
_symmetry_space_group_name_H-M "I -4 2 D"
_symmetry_group_IT_number 122
_symmetry_cell_setting 'tetragonal'
loop_
_space_group_symop_operation_xyz
x,y,z
y,-x,-z
-x,-y,z
-y,x,-z
x,1/2-y,1/4-z
-x,1/2+y,1/4-z
-y,1/2-x,1/4+z
y,1/2+x,1/4+z
1/2+x,1/2+y,1/2+z
1/2+y,1/2-x,1/2-z
1/2-x,1/2-y,1/2+z
1/2-y,1/2+x,1/2-z
1/2+x,-y,3/4-z
1/2-x,y,3/4-z
1/2-y,-x,3/4+z
1/2+y,x,3/4+z
loop_
_atom_site_type_symbol
_atom_site_label
_atom_site_fract_x
_atom_site_fract_y
_atom_site_fract_z
Si Si1 0.000000 0.000000 0.500000
Si Si2 0.459571 0.250000 0.625000
Si Si3 0.250000 0.456333 0.875000
Si Si4 0.250000 0.695381 0.875000
Si Si5 0.874434 0.110737 0.707307
O O1 0.937647 0.050481 0.646399
O O2 0.499312 0.216757 0.369637
O O3 0.413491 0.321604 0.551540
O O4 0.185461 0.415844 0.026035
O O5 0.268024 0.750000 0.625000
O O6 0.182803 0.644722 0.764903
#
# Coordination Sequence:
#
# PCOD9561566 Si02
#       5
#     4   8   8   8  16
#     4  12  28  52  86 120 182 216 282 344 438 520
#     4  12  29  52  82 116 171 218 280 354 427 520
#     4  12  29  50  84 120 165 214 292 346 435 508
#     4  12  28  52  92 120 166 220 294 362 420 514
#     4  12  28  51  85 124 167 225 281 358 434 513
#
# _framework density 26.496758
#
# number of rings (size 3 to 8) (size 9 to 14) (size 15 to 20)
#    0.000    0.000    5.455    2.182    2.545    5.818 
#    0.000    0.000    0.000    0.000    0.000    0.000 
#    0.000    0.000    0.000    0.000    0.000    0.000 
#
# Total GULP energy -122711.313557 kJ/mol
# GULP energy per Si atom -5577.786980 kJ/mol
# Density = 2.643645 g / cm^3
# Si number density = 26.496758 Si / 1000 Ang^3
#
#
#
# Elastic Constant Matrix: (Units=GPa)
#
#
# Indices 1 2 3 4 5 6 
#
# 1 128.5558 24.3634 -8.3189 0.0000 0.0000 0.0000
# 2 24.3634 128.5558 -8.3189 0.0000 0.0000 0.0000
# 3 -8.3189 -8.3189 79.2769 0.0000 0.0000 0.0000
# 4 0.0000 0.0000 0.0000 28.7277 0.0000 0.0000
# 5 0.0000 0.0000 0.0000 0.0000 28.7277 0.0000
# 6 0.0000 0.0000 0.0000 0.0000 0.0000 -7.7745
#
#
#
# Elastic Compliance Matrix: (Units=1/GPa)
#
#
# Indices 1 2 3 4 5 6 
#
# 1 0.008106 -0.001491 0.000694 0.000000 0.000000 0.000000
# 2 -0.001491 0.008106 0.000694 0.000000 0.000000 0.000000
# 3 0.000694 0.000694 0.012760 0.000000 0.000000 0.000000
# 4 0.000000 0.000000 0.000000 0.034810 0.000000 0.000000
# 5 0.000000 0.000000 0.000000 0.000000 0.034810 0.000000
# 6 0.000000 0.000000 0.000000 0.000000 0.000000 -0.128626
#
#
# Mechanical properties :
#
#
# Convention : Reuss Voigt Hill
#
# Bulk Modulus (GPa) = 34.76317 39.09330 36.92823
# Shear Modulus (GPa) = -247.04013 31.84705 -107.59654
#
# Velocity S-wave (km/s) = -9.66626 3.47064 -6.37931
# Velocity P-wave (km/s) = 10.55622 5.55396 6.34773
#
# Compressibility (1/GPa) = 0.02876608
#
# Stress axis : x y z
#
# Youngs Moduli (GPa) = 123.36123 123.36123 78.37176
#
# Poissons Ratio (x) = 0.18397 -0.05440
# Poissons Ratio (y) = 0.18397 -0.05440
# Poissons Ratio (z) = -0.08563 -0.08563
#
# Static dielectric constant tensor:
#      x y z
#    x 2.255420 0.000000 0.000000 
#    y 0.000000 2.255420 0.000000 
#    z 0.000000 0.000000 1.992350 
# 
# From -- ./inp_files/656.got.cif
#   From: 2010.05.17/outbox.cif.g08.bks.cpg/sg122_1_cif.got.tgz:656.got - 2010.05.20 11:37:33.
