data_PCOD9561931
_publ_section_title
;
Structure prediction by ZEFSAII (Michael W. Deem and Ramdas Pophale) SiO2 
 PCOD9561931
Probable space group: P 4/M M M
;
_chemical_formula_sum "Si O2"
_cell_formula_units_Z 120
_cell_length_a 18.337849
_cell_length_b 18.337849
_cell_length_c 19.757127
_cell_angle_alpha 90.000000
_cell_angle_beta 90.000000
_cell_angle_gamma 90.000000
_cell_volume 6643.861587
_symmetry_space_group_name_H-M "P 4/M M M"
_symmetry_group_IT_number 123
_symmetry_cell_setting 'tetragonal'
loop_
_space_group_symop_operation_xyz
x,y,z
-y,x,z
-x,-y,z
y,-x,z
x,-y,-z
-x,y,-z
y,x,-z
-y,-x,-z
-x,-y,-z
y,-x,-z
x,y,-z
-y,x,-z
-x,y,z
x,-y,z
-y,-x,z
y,x,z
loop_
_atom_site_type_symbol
_atom_site_label
_atom_site_fract_x
_atom_site_fract_y
_atom_site_fract_z
Si Si1 0.850874 0.270139 0.707006
Si Si2 0.911856 0.337155 0.578064
Si Si3 0.309770 0.815322 0.922282
Si Si4 0.082016 0.500000 0.581835
Si Si5 0.703880 0.586634 0.425950
Si Si6 0.704319 0.415877 0.144916
Si Si7 0.779327 0.584349 0.714503
Si Si8 0.084582 0.793463 0.837416
O O1 0.775848 0.224153 0.708681
O O2 0.880827 0.280105 0.631419
O O3 0.836668 0.352666 0.731942
O O4 0.903913 0.229753 0.759081
O O5 0.893105 0.322340 0.500000
O O6 0.886621 0.420215 0.596885
O O7 0.000000 0.338530 0.582086
O O8 0.247676 0.752324 0.920958
O O9 0.379491 0.775644 0.889452
O O10 0.273053 0.880940 0.880743
O O11 0.323710 0.835455 0.000000
O O12 0.077933 0.500000 0.500000
O O13 0.000000 0.500000 0.609778
O O14 0.737791 0.605431 0.500000
O O15 0.697155 0.500000 0.424188
O O16 0.626921 0.626921 0.424802
O O17 0.744274 0.607352 0.357139
O O18 0.694788 0.500000 0.124715
O O19 0.635075 0.364926 0.128995
O O20 0.720016 0.413839 0.225471
O O21 0.805561 0.500000 0.710777
O O22 0.135659 0.864342 0.849721
O O23 0.000000 0.805693 0.852478
#
# Coordination Sequence:
#
# PCOD9561931 Si02
#       8
#    16  16  16   8  16  16  16  16
#     4  11  21  33  52  76 106 143 183 225 269 323
#     4   9  18  32  49  70  99 134 173 220 275 333
#     4   9  18  35  59  84 111 147 186 218 258 320
#     4   7  12  26  46  66  90 124 164 208 268 334
#     4   9  17  28  41  59  86 123 170 224 280 334
#     4  10  19  33  54  80 112 150 195 243 290 336
#     4  10  20  33  50  70  97 137 183 232 285 332
#     4  10  21  38  61  89 119 147 177 215 261 319
#
# _framework density 18.061783999999999
#
# number of rings (size 3 to 8) (size 9 to 14) (size 15 to 20)
#    0.000    2.467    1.333    2.400    0.933    1.733 
#    0.000    0.667    0.000    3.600    0.000    4.667 
#    0.000    0.000    0.000   12.400    0.000    0.000 
#
# Total GULP energy -668810.681117 kJ/mol
# GULP energy per Si atom -5573.422343 kJ/mol
# Density = 1.802067 g / cm^3
# Si number density = 18.061784 Si / 1000 Ang^3
#
#
#
# Elastic Constant Matrix: (Units=GPa)
#
#
# Indices 1 2 3 4 5 6 
#
# 1 85.4302 42.3502 33.9063 0.0000 0.0000 0.0000
# 2 42.3502 85.4302 33.9063 0.0000 0.0000 0.0000
# 3 33.9063 33.9063 94.5825 0.0000 0.0000 0.0000
# 4 0.0000 0.0000 0.0000 15.4101 0.0000 0.0000
# 5 0.0000 0.0000 0.0000 0.0000 15.4101 0.0000
# 6 0.0000 0.0000 0.0000 0.0000 0.0000 14.2510
#
#
#
# Elastic Compliance Matrix: (Units=1/GPa)
#
#
# Indices 1 2 3 4 5 6 
#
# 1 0.016439 -0.006774 -0.003465 0.000000 0.000000 0.000000
# 2 -0.006774 0.016439 -0.003465 0.000000 0.000000 0.000000
# 3 -0.003465 -0.003465 0.013057 0.000000 0.000000 0.000000
# 4 0.000000 0.000000 0.000000 0.064892 0.000000 0.000000
# 5 0.000000 0.000000 0.000000 0.000000 0.064892 0.000000
# 6 0.000000 0.000000 0.000000 0.000000 0.000000 0.070170
#
#
# Mechanical properties :
#
#
# Convention : Reuss Voigt Hill
#
# Bulk Modulus (GPa) = 53.97366 53.97428 53.97397
# Shear Modulus (GPa) = 17.89092 19.36627 18.62859
#
# Velocity S-wave (km/s) = 3.15070 3.27803 3.21500
# Velocity P-wave (km/s) = 6.57142 6.65397 6.61282
#
# Compressibility (1/GPa) = 0.01852756
#
# Stress axis : x y z
#
# Youngs Moduli (GPa) = 60.83243 60.83243 76.58860
#
# Poissons Ratio (x) = 0.41208 0.26535
# Poissons Ratio (y) = 0.41208 0.26535
# Poissons Ratio (z) = 0.21076 0.21076
#
# Static dielectric constant tensor:
#      x y z
#    x 1.626590 0.000000 0.000000 
#    y 0.000000 1.626590 0.000000 
#    z 0.000000 0.000000 1.661310 
# 
# From -- ./inp_files/6816.got.cif
#   From: 2010.05.17/outbox.cif.g08.bks.cpg/sg123_4_cif.got.tgz:6816.got - 2010.05.20 11:43:04.
