data_PCOD9561870
_publ_section_title
;
Structure prediction by ZEFSAII (Michael W. Deem and Ramdas Pophale) SiO2 
 PCOD9561870
Probable space group: P 4/M M M
;
_chemical_formula_sum "Si O2"
_cell_formula_units_Z 72
_cell_length_a 12.745593
_cell_length_b 12.745593
_cell_length_c 27.290932
_cell_angle_alpha 90.000000
_cell_angle_beta 90.000000
_cell_angle_gamma 90.000000
_cell_volume 4433.415749
_symmetry_space_group_name_H-M "P 4/M M M"
_symmetry_group_IT_number 123
_symmetry_cell_setting 'tetragonal'
loop_
_space_group_symop_operation_xyz
x,y,z
-y,x,z
-x,-y,z
y,-x,z
x,-y,-z
-x,y,-z
y,x,-z
-y,-x,-z
-x,-y,-z
y,-x,-z
x,y,-z
-y,x,-z
-x,y,z
x,-y,z
-y,-x,z
y,x,z
loop_
_atom_site_type_symbol
_atom_site_label
_atom_site_fract_x
_atom_site_fract_y
_atom_site_fract_z
Si Si1 0.000000 0.627279 0.780154
Si Si2 0.000000 0.627289 0.331974
Si Si3 0.626935 0.879183 0.946212
Si Si4 0.374265 0.207796 0.159586
Si Si5 0.202183 0.623542 0.395747
Si Si6 0.125163 0.297419 0.500000
O O1 0.000000 0.664110 0.724106
O O2 0.105346 0.656820 0.809107
O O3 0.000000 0.500000 0.779648
O O4 0.894450 0.657331 0.360835
O O5 0.000000 0.500000 0.331585
O O6 0.500000 0.881999 0.947219
O O7 0.651971 0.817079 0.897193
O O8 0.662431 0.000000 0.941152
O O9 0.660987 0.840205 0.000000
O O10 0.500000 0.222278 0.163783
O O11 0.308899 0.308899 0.175462
O O12 0.223694 0.500000 0.388145
O O13 0.303078 0.696923 0.387504
O O14 0.162722 0.642261 0.451319
O O15 0.186179 0.186179 0.500000
O O16 0.000000 0.286867 0.500000
#
# Coordination Sequence:
#
# PCOD9561870 Si02
#       6
#     8   8  16  16  16   8
#     4   9  18  34  52  71  93 125 171 215 250 285
#     4   9  18  33  54  73  94 127 171 217 251 289
#     4   8  13  24  44  68  93 122 160 203 240 280
#     4  10  19  31  49  73 101 131 163 201 246 297
#     4  10  20  33  52  79 108 139 171 205 249 299
#     4  10  19  32  52  78 108 141 176 215 258 302
#
# _framework density 16.240300000000001
#
# number of rings (size 3 to 8) (size 9 to 14) (size 15 to 20)
#    0.000    2.667    2.222    1.000    0.000    2.333 
#    0.000    0.000    0.000    2.667    0.000   10.889 
#    0.000    1.778    0.000    0.000    0.000    0.000 
#
# Total GULP energy -400888.380242 kJ/mol
# GULP energy per Si atom -5567.894170 kJ/mol
# Density = 1.620334 g / cm^3
# Si number density = 16.240300 Si / 1000 Ang^3
#
#
#
# Elastic Constant Matrix: (Units=GPa)
#
#
# Indices 1 2 3 4 5 6 
#
# 1 88.3614 63.4638 42.9547 0.0000 0.0000 0.0000
# 2 63.4638 88.3614 42.9547 0.0000 0.0000 0.0000
# 3 42.9547 42.9547 117.5417 0.0000 0.0000 0.0000
# 4 0.0000 0.0000 0.0000 2.8099 0.0000 0.0000
# 5 0.0000 0.0000 0.0000 0.0000 2.8099 0.0000
# 6 0.0000 0.0000 0.0000 0.0000 0.0000 5.1688
#
#
#
# Elastic Compliance Matrix: (Units=1/GPa)
#
#
# Indices 1 2 3 4 5 6 
#
# 1 0.024234 -0.015930 -0.003034 0.000000 0.000000 0.000000
# 2 -0.015930 0.024234 -0.003034 0.000000 0.000000 0.000000
# 3 -0.003034 -0.003034 0.010725 0.000000 0.000000 0.000000
# 4 0.000000 0.000000 0.000000 0.355888 0.000000 0.000000
# 5 0.000000 0.000000 0.000000 0.000000 0.355888 0.000000
# 6 0.000000 0.000000 0.000000 0.000000 0.000000 0.193469
#
#
# Mechanical properties :
#
#
# Convention : Reuss Voigt Hill
#
# Bulk Modulus (GPa) = 65.81243 65.89011 65.85127
# Shear Modulus (GPa) = 4.93339 11.81713 8.37526
#
# Velocity S-wave (km/s) = 1.74480 2.70041 2.27338
# Velocity P-wave (km/s) = 6.68365 7.09810 6.89399
#
# Compressibility (1/GPa) = 0.01519470
#
# Stress axis : x y z
#
# Youngs Moduli (GPa) = 41.26437 41.26437 93.23597
#
# Poissons Ratio (x) = 0.65736 0.28292
# Poissons Ratio (y) = 0.65736 0.28292
# Poissons Ratio (z) = 0.12522 0.12522
#
# Static dielectric constant tensor:
#      x y z
#    x 1.525980 0.000000 0.000000 
#    y 0.000000 1.525980 0.000000 
#    z 0.000000 0.000000 1.565870 
# 
# From -- ./inp_files/7929.got.cif
#   From: 2010.05.17/outbox.cif.g08.bks.cpg/sg123_4_cif.got.tgz:7929.got - 2010.05.20 11:43:04.
