data_PCOD9561507
_publ_section_title
;
Structure prediction by ZEFSAII (Michael W. Deem and Ramdas Pophale) SiO2 
 PCOD9561507
Probable space group: I -4 2 D
;
_chemical_formula_sum "Si O2"
_cell_formula_units_Z 88
_cell_length_a 17.061035
_cell_length_b 17.061035
_cell_length_c 14.049055
_cell_angle_alpha 90.000000
_cell_angle_beta 90.000000
_cell_angle_gamma 90.000000
_cell_volume 4089.383690
_symmetry_space_group_name_H-M "I -4 2 D"
_symmetry_group_IT_number 122
_symmetry_cell_setting 'tetragonal'
loop_
_space_group_symop_operation_xyz
x,y,z
y,-x,-z
-x,-y,z
-y,x,-z
x,1/2-y,1/4-z
-x,1/2+y,1/4-z
-y,1/2-x,1/4+z
y,1/2+x,1/4+z
1/2+x,1/2+y,1/2+z
1/2+y,1/2-x,1/2-z
1/2-x,1/2-y,1/2+z
1/2-y,1/2+x,1/2-z
1/2+x,-y,3/4-z
1/2-x,y,3/4-z
1/2-y,-x,3/4+z
1/2+y,x,3/4+z
loop_
_atom_site_type_symbol
_atom_site_label
_atom_site_fract_x
_atom_site_fract_y
_atom_site_fract_z
Si Si1 0.581350 0.520091 0.840558
Si Si2 0.709895 0.916187 0.551779
Si Si3 0.948498 0.377695 0.250150
Si Si4 0.297360 0.260500 0.014394
Si Si5 0.454905 0.340375 0.982828
Si Si6 0.750000 0.623880 0.375000
O O1 0.500000 0.500000 0.788809
O O2 0.644871 0.550174 0.768218
O O3 0.552447 0.586292 0.913789
O O4 0.625478 0.458910 0.909862
O O5 0.672978 0.924093 0.656760
O O6 0.732774 0.829429 0.516145
O O7 0.787479 0.969602 0.539529
O O8 0.900546 0.459522 0.246706
O O9 0.927649 0.323433 0.159562
O O10 0.315022 0.250000 0.125000
O O11 0.377264 0.289918 0.967318
O O12 0.271005 0.182430 0.961478
#
# Coordination Sequence:
#
# PCOD9561507 Si02
#       6
#    16  16  16  16  16   8
#     4  12  23  42  70 103 144 186 237 298 379 451
#     4  12  26  45  72 104 144 197 239 315 377 445
#     4  11  28  52  75 108 151 199 260 313 381 464
#     4  12  24  44  71 106 144 187 251 304 378 450
#     4  12  23  43  69 107 144 183 239 307 379 450
#     4  12  26  48  80 106 146 204 252 320 378 460
#
# _framework density 21.519134999999999
#
# number of rings (size 3 to 8) (size 9 to 14) (size 15 to 20)
#    0.000    0.182    5.455    3.818    2.545    2.909 
#    0.000    0.000    0.000    0.000    0.000    0.000 
#    0.000    0.000    0.000    0.000    0.000    0.000 
#
# Total GULP energy -246173.664071 kJ/mol
# GULP energy per Si atom -5594.856002 kJ/mol
# Density = 2.147016 g / cm^3
# Si number density = 21.519135 Si / 1000 Ang^3
#
#
#
# Elastic Constant Matrix: (Units=GPa)
#
#
# Indices 1 2 3 4 5 6 
#
# 1 112.2278 51.0778 22.4030 0.0000 0.0000 0.0000
# 2 51.0778 112.2278 22.4030 0.0000 0.0000 0.0000
# 3 22.4030 22.4030 70.6472 0.0000 0.0000 0.0000
# 4 0.0000 0.0000 0.0000 66.0391 0.0000 0.0000
# 5 0.0000 0.0000 0.0000 0.0000 66.0391 0.0000
# 6 0.0000 0.0000 0.0000 0.0000 0.0000 17.6523
#
#
#
# Elastic Compliance Matrix: (Units=1/GPa)
#
#
# Indices 1 2 3 4 5 6 
#
# 1 0.011530 -0.004823 -0.002127 0.000000 0.000000 0.000000
# 2 -0.004823 0.011530 -0.002127 0.000000 0.000000 0.000000
# 3 -0.002127 -0.002127 0.015504 0.000000 0.000000 0.000000
# 4 0.000000 0.000000 0.000000 0.015143 0.000000 0.000000
# 5 0.000000 0.000000 0.000000 0.000000 0.015143 0.000000
# 6 0.000000 0.000000 0.000000 0.000000 0.000000 0.056650
#
#
# Mechanical properties :
#
#
# Convention : Reuss Voigt Hill
#
# Bulk Modulus (GPa) = 48.99481 54.09672 51.54576
# Shear Modulus (GPa) = 33.23231 43.22739 38.22985
#
# Velocity S-wave (km/s) = 3.93404 4.48681 4.21949
# Velocity P-wave (km/s) = 6.59189 7.21356 6.90972
#
# Compressibility (1/GPa) = 0.02041032
#
# Stress axis : x y z
#
# Youngs Moduli (GPa) = 86.72930 86.72930 64.50052
#
# Poissons Ratio (x) = 0.41830 0.13718
# Poissons Ratio (y) = 0.41830 0.13718
# Poissons Ratio (z) = 0.18446 0.18446
#
# Static dielectric constant tensor:
#      x y z
#    x 1.813000 0.000000 0.000000 
#    y 0.000000 1.813000 0.000000 
#    z 0.000000 0.000000 1.807440 
# 
# From -- ./inp_files/5359.got.cif
#   From: 2010.05.17/outbox.cif.g08.bks.cpg/sg122_3_cif.got.tgz:5359.got - 2010.05.20 11:37:33.
