data_PCOD9561711
_publ_section_title
;
Structure prediction by ZEFSAII (Michael W. Deem and Ramdas Pophale) SiO2 
 PCOD9561711
Probable space group: P 4/M M M
;
_chemical_formula_sum "Si O2"
_cell_formula_units_Z 56
_cell_length_a 12.866584
_cell_length_b 12.866584
_cell_length_c 21.411039
_cell_angle_alpha 90.000000
_cell_angle_beta 90.000000
_cell_angle_gamma 90.000000
_cell_volume 3544.575749
_symmetry_space_group_name_H-M "P 4/M M M"
_symmetry_group_IT_number 123
_symmetry_cell_setting 'tetragonal'
loop_
_space_group_symop_operation_xyz
x,y,z
-y,x,z
-x,-y,z
y,-x,z
x,-y,-z
-x,y,-z
y,x,-z
-y,-x,-z
-x,-y,-z
y,-x,-z
x,y,-z
-y,x,-z
-x,y,z
x,-y,z
-y,-x,z
y,x,z
loop_
_atom_site_type_symbol
_atom_site_label
_atom_site_fract_x
_atom_site_fract_y
_atom_site_fract_z
Si Si1 0.123229 0.280417 0.000000
Si Si2 0.621460 0.789487 0.264242
Si Si3 0.375831 0.119393 0.129844
Si Si4 0.828765 0.000000 0.575157
Si Si5 0.000000 0.379925 0.345425
O O1 0.160291 0.332445 0.935682
O O2 0.163339 0.163339 0.000000
O O3 0.000000 0.290505 0.000000
O O4 0.500000 0.757386 0.267461
O O5 0.700199 0.700199 0.286029
O O6 0.647212 0.817566 0.192326
O O7 0.630715 0.896330 0.303265
O O8 0.500000 0.115849 0.124386
O O9 0.338785 0.000000 0.138334
O O10 0.899061 0.899061 0.592550
O O11 0.819672 0.000000 0.500000
O O12 0.715396 0.000000 0.606079
O O13 0.000000 0.500000 0.370133
#
# Coordination Sequence:
#
# PCOD9561711 Si02
#       5
#     8  16  16   8   8
#     4  10  19  28  41  59  80 112 147 185 235 282
#     4  10  19  31  48  69  95 125 157 197 239 281
#     4   9  16  29  46  64  83 107 148 196 237 278
#     4   9  18  33  53  77 104 131 158 192 234 276
#     4  10  19  32  50  73  99 130 164 195 229 268
#
# _framework density 15.798788
#
# number of rings (size 3 to 8) (size 9 to 14) (size 15 to 20)
#    0.000    2.429    1.429    2.571    0.000    2.429 
#    0.000    0.000    0.000    0.000    0.000    0.000 
#    0.000   10.286    0.000   26.571    0.000    0.000 
#
# Total GULP energy -311736.032797 kJ/mol
# GULP energy per Si atom -5566.714871 kJ/mol
# Density = 1.576283 g / cm^3
# Si number density = 15.798788 Si / 1000 Ang^3
#
#
#
# Elastic Constant Matrix: (Units=GPa)
#
#
# Indices 1 2 3 4 5 6 
#
# 1 89.0706 58.5055 35.5386 0.0000 0.0000 0.0000
# 2 58.5055 89.0706 35.5386 0.0000 0.0000 0.0000
# 3 35.5386 35.5386 55.4761 0.0000 0.0000 0.0000
# 4 0.0000 0.0000 0.0000 14.5515 0.0000 0.0000
# 5 0.0000 0.0000 0.0000 0.0000 14.5515 0.0000
# 6 0.0000 0.0000 0.0000 0.0000 0.0000 28.7187
#
#
#
# Elastic Compliance Matrix: (Units=1/GPa)
#
#
# Indices 1 2 3 4 5 6 
#
# 1 0.021258 -0.011459 -0.006278 0.000000 0.000000 0.000000
# 2 -0.011459 0.021258 -0.006278 0.000000 0.000000 0.000000
# 3 -0.006278 -0.006278 0.026069 0.000000 0.000000 0.000000
# 4 0.000000 0.000000 0.000000 0.068721 0.000000 0.000000
# 5 0.000000 0.000000 0.000000 0.000000 0.068721 0.000000
# 6 0.000000 0.000000 0.000000 0.000000 0.000000 0.034821
#
#
# Mechanical properties :
#
#
# Convention : Reuss Voigt Hill
#
# Bulk Modulus (GPa) = 48.64461 54.75365 51.69913
# Shear Modulus (GPa) = 16.90730 18.49999 17.70364
#
# Velocity S-wave (km/s) = 3.27489 3.42566 3.35112
# Velocity P-wave (km/s) = 6.71988 7.09782 6.91143
#
# Compressibility (1/GPa) = 0.02055726
#
# Stress axis : x y z
#
# Youngs Moduli (GPa) = 47.04022 47.04022 38.35959
#
# Poissons Ratio (x) = 0.53902 0.24082
# Poissons Ratio (y) = 0.53902 0.24082
# Poissons Ratio (z) = 0.29531 0.29531
#
# Static dielectric constant tensor:
#      x y z
#    x 1.521990 0.000000 0.000000 
#    y 0.000000 1.521990 0.000000 
#    z 0.000000 0.000000 1.526610 
# 
# From -- ./inp_files/6153.got.cif
#   From: 2010.05.17/outbox.cif.g08.bks.cpg/sg123_4_cif.got.tgz:6153.got - 2010.05.20 11:43:04.
