data_PCOD9561537
_publ_section_title
;
Structure prediction by ZEFSAII (Michael W. Deem and Ramdas Pophale) SiO2 
 PCOD9561537
Probable space group: I -4 2 D
;
_chemical_formula_sum "Si O2"
_cell_formula_units_Z 44
_cell_length_a 8.234276
_cell_length_b 8.234276
_cell_length_c 25.621432
_cell_angle_alpha 90.000000
_cell_angle_beta 90.000000
_cell_angle_gamma 90.000000
_cell_volume 1737.217672
_symmetry_space_group_name_H-M "I -4 2 D"
_symmetry_group_IT_number 122
_symmetry_cell_setting 'tetragonal'
loop_
_space_group_symop_operation_xyz
x,y,z
y,-x,-z
-x,-y,z
-y,x,-z
x,1/2-y,1/4-z
-x,1/2+y,1/4-z
-y,1/2-x,1/4+z
y,1/2+x,1/4+z
1/2+x,1/2+y,1/2+z
1/2+y,1/2-x,1/2-z
1/2-x,1/2-y,1/2+z
1/2-y,1/2+x,1/2-z
1/2+x,-y,3/4-z
1/2-x,y,3/4-z
1/2-y,-x,3/4+z
1/2+y,x,3/4+z
loop_
_atom_site_type_symbol
_atom_site_label
_atom_site_fract_x
_atom_site_fract_y
_atom_site_fract_z
Si Si1 0.207648 0.310829 0.026089
Si Si2 0.500000 0.000000 0.250000
Si Si3 0.315526 0.520577 0.171552
Si Si4 0.000000 0.500000 0.399606
O O1 0.344584 0.447137 0.032915
O O2 0.278649 0.143416 0.046178
O O3 0.055154 0.355280 0.062190
O O4 0.158873 0.314321 0.965704
O O5 0.500000 0.500000 0.150081
O O6 0.160720 0.539091 0.133952
#
# Coordination Sequence:
#
# PCOD9561537 Si02
#       4
#    16   4  16   8
#     4  12  25  52  78 121 170 221 278 363 420 512
#     4  12  24  44  82 112 172 228 270 344 432 492
#     4  12  26  51  82 118 170 222 285 351 432 512
#     4  12  28  49  81 126 164 224 295 343 436 512
#
# _framework density 25.327859
#
# number of rings (size 3 to 8) (size 9 to 14) (size 15 to 20)
#    0.000    0.000    5.455    3.273    2.545    2.909 
#    0.000    0.000    0.000    0.000    0.000    0.000 
#    0.000    0.000    0.000    0.000    0.000    0.000 
#
# Total GULP energy -123340.038054 kJ/mol
# GULP energy per Si atom -5606.365366 kJ/mol
# Density = 2.527021 g / cm^3
# Si number density = 25.327859 Si / 1000 Ang^3
#
#
#
# Elastic Constant Matrix: (Units=GPa)
#
#
# Indices 1 2 3 4 5 6 
#
# 1 158.6721 46.5355 48.8507 0.0000 0.0000 0.0000
# 2 46.5355 158.6721 48.8507 0.0000 0.0000 0.0000
# 3 48.8507 48.8507 106.5402 0.0000 0.0000 0.0000
# 4 0.0000 0.0000 0.0000 26.9870 0.0000 0.0000
# 5 0.0000 0.0000 0.0000 0.0000 26.9870 0.0000
# 6 0.0000 0.0000 0.0000 0.0000 0.0000 56.0997
#
#
#
# Elastic Compliance Matrix: (Units=1/GPa)
#
#
# Indices 1 2 3 4 5 6 
#
# 1 0.007576 -0.001342 -0.002858 0.000000 0.000000 0.000000
# 2 -0.001342 0.007576 -0.002858 0.000000 0.000000 0.000000
# 3 -0.002858 -0.002858 0.012007 0.000000 0.000000 0.000000
# 4 0.000000 0.000000 0.000000 0.037055 0.000000 0.000000
# 5 0.000000 0.000000 0.000000 0.000000 0.037055 0.000000
# 6 0.000000 0.000000 0.000000 0.000000 0.000000 0.017825
#
#
# Mechanical properties :
#
#
# Convention : Reuss Voigt Hill
#
# Bulk Modulus (GPa) = 76.67659 79.15091 77.91375
# Shear Modulus (GPa) = 36.34807 40.65790 38.50299
#
# Velocity S-wave (km/s) = 3.79238 4.01092 3.90318
# Velocity P-wave (km/s) = 7.03673 7.26418 7.15136
#
# Compressibility (1/GPa) = 0.01304179
#
# Stress axis : x y z
#
# Youngs Moduli (GPa) = 131.99804 131.99804 83.28182
#
# Poissons Ratio (x) = 0.17712 0.23806
# Poissons Ratio (y) = 0.17712 0.23806
# Poissons Ratio (z) = 0.37731 0.37731
#
# Static dielectric constant tensor:
#      x y z
#    x 2.019720 0.000000 0.000000 
#    y 0.000000 2.019720 0.000000 
#    z 0.000000 0.000000 1.970190 
# 
# From -- ./inp_files/9039.got.cif
#   From: 2010.05.17/outbox.cif.g08.bks.cpg/sg122_5_cif.got.tgz:9039.got - 2010.05.20 11:37:33.
