data_PCOD9561270
_publ_section_title
;
Structure prediction by ZEFSAII (Michael W. Deem and Ramdas Pophale) SiO2 
 PCOD9561270
Probable space group: I -4 2 D
;
_chemical_formula_sum "Si O2"
_cell_formula_units_Z 44
_cell_length_a 17.267883
_cell_length_b 17.267883
_cell_length_c 5.418606
_cell_angle_alpha 90.000000
_cell_angle_beta 90.000000
_cell_angle_gamma 90.000000
_cell_volume 1615.718763
_symmetry_space_group_name_H-M "I -4 2 D"
_symmetry_group_IT_number 122
_symmetry_cell_setting 'tetragonal'
loop_
_space_group_symop_operation_xyz
x,y,z
y,-x,-z
-x,-y,z
-y,x,-z
x,1/2-y,1/4-z
-x,1/2+y,1/4-z
-y,1/2-x,1/4+z
y,1/2+x,1/4+z
1/2+x,1/2+y,1/2+z
1/2+y,1/2-x,1/2-z
1/2-x,1/2-y,1/2+z
1/2-y,1/2+x,1/2-z
1/2+x,-y,3/4-z
1/2-x,y,3/4-z
1/2-y,-x,3/4+z
1/2+y,x,3/4+z
loop_
_atom_site_type_symbol
_atom_site_label
_atom_site_fract_x
_atom_site_fract_y
_atom_site_fract_z
Si Si1 0.403118 0.662943 0.535195
Si Si2 0.000000 0.500000 0.750000
Si Si3 0.157303 0.531693 0.902928
Si Si4 0.750000 0.202782 0.875000
O O1 0.421545 0.750000 0.625000
O O2 0.477454 0.633429 0.387083
O O3 0.363594 0.617011 0.757864
O O4 0.331141 0.659879 0.342375
O O5 0.094019 0.509681 0.694929
O O6 0.250000 0.522218 0.875000
O O7 0.739822 0.250000 0.625000
#
# Coordination Sequence:
#
# PCOD9561270 Si02
#       4
#    16   4  16   8
#     4  11  26  45  73 109 156 201 276 327 410 486
#     4  12  28  50  72 112 168 202 276 354 404 502
#     4  12  27  46  78 109 157 216 271 336 430 492
#     4  10  24  44  74 106 156 198 258 334 392 466
#
# _framework density 27.232461000000001
#
# number of rings (size 3 to 8) (size 9 to 14) (size 15 to 20)
#    0.000    0.727    0.000    5.455   17.818    0.000 
#    0.000    0.000    0.000    0.000    0.000    0.000 
#    0.000    0.000    0.000    0.000    0.000    0.000 
#
# Total GULP energy -122468.412554 kJ/mol
# GULP energy per Si atom -5566.746025 kJ/mol
# Density = 2.717048 g / cm^3
# Si number density = 27.232461 Si / 1000 Ang^3
#
#
#
# Elastic Constant Matrix: (Units=GPa)
#
#
# Indices 1 2 3 4 5 6 
#
# 1 172.2965 -9.5327 21.5215 0.0000 0.0000 0.0000
# 2 -9.5327 172.2965 21.5215 0.0000 0.0000 0.0000
# 3 21.5215 21.5215 91.4378 0.0000 0.0000 0.0000
# 4 0.0000 0.0000 0.0000 31.2507 0.0000 0.0000
# 5 0.0000 0.0000 0.0000 0.0000 31.2507 0.0000
# 6 0.0000 0.0000 0.0000 0.0000 0.0000 -24.7986
#
#
#
# Elastic Compliance Matrix: (Units=1/GPa)
#
#
# Indices 1 2 3 4 5 6 
#
# 1 0.006026 0.000526 -0.001542 0.000000 0.000000 0.000000
# 2 0.000526 0.006026 -0.001542 0.000000 0.000000 0.000000
# 3 -0.001542 -0.001542 0.011662 0.000000 0.000000 0.000000
# 4 0.000000 0.000000 0.000000 0.031999 0.000000 0.000000
# 5 0.000000 0.000000 0.000000 0.000000 0.031999 0.000000
# 6 0.000000 0.000000 0.000000 0.000000 0.000000 -0.040325
#
#
# Mechanical properties :
#
#
# Convention : Reuss Voigt Hill
#
# Bulk Modulus (GPa) = 53.77087 55.89458 54.83272
# Shear Modulus (GPa) = 85.17497 34.37526 59.77512
#
# Velocity S-wave (km/s) = 5.59865 3.55673 4.69016
# Velocity P-wave (km/s) = 7.84737 6.11855 7.03626
#
# Compressibility (1/GPa) = 0.01859743
#
# Stress axis : x y z
#
# Youngs Moduli (GPa) = 165.95667 165.95667 85.74648
#
# Poissons Ratio (x) = -0.08729 0.13223
# Poissons Ratio (y) = -0.08729 0.13223
# Poissons Ratio (z) = 0.25591 0.25591
#
# Static dielectric constant tensor:
#      x y z
#    x 2.179780 0.000000 0.000000 
#    y 0.000000 2.179780 0.000000 
#    z 0.000000 0.000000 2.167920 
# 
# From -- ./inp_files/624.got.cif
#   From: 2010.05.17/outbox.cif.g08.bks.cpg/sg122_1_cif.got.tgz:624.got - 2010.05.20 11:37:33.
