data_PCOD9561029
_publ_section_title
;
Structure prediction by ZEFSAII (Michael W. Deem and Ramdas Pophale) SiO2 
 PCOD9561029
Probable space group: I -4 2 D
;
_chemical_formula_sum "Si O2"
_cell_formula_units_Z 80
_cell_length_a 12.060154
_cell_length_b 12.060154
_cell_length_c 26.218853
_cell_angle_alpha 90.000000
_cell_angle_beta 90.000000
_cell_angle_gamma 90.000000
_cell_volume 3813.461758
_symmetry_space_group_name_H-M "I -4 2 D"
_symmetry_group_IT_number 122
_symmetry_cell_setting 'tetragonal'
loop_
_space_group_symop_operation_xyz
x,y,z
y,-x,-z
-x,-y,z
-y,x,-z
x,1/2-y,1/4-z
-x,1/2+y,1/4-z
-y,1/2-x,1/4+z
y,1/2+x,1/4+z
1/2+x,1/2+y,1/2+z
1/2+y,1/2-x,1/2-z
1/2-x,1/2-y,1/2+z
1/2-y,1/2+x,1/2-z
1/2+x,-y,3/4-z
1/2-x,y,3/4-z
1/2-y,-x,3/4+z
1/2+y,x,3/4+z
loop_
_atom_site_type_symbol
_atom_site_label
_atom_site_fract_x
_atom_site_fract_y
_atom_site_fract_z
Si Si1 0.458778 0.754796 0.922266
Si Si2 0.406720 0.741171 0.802805
Si Si3 0.884535 0.720783 0.018079
Si Si4 0.070461 0.218629 0.565755
Si Si5 0.794663 0.684162 0.816998
O O1 0.454747 0.746280 0.860373
O O2 0.388643 0.855791 0.947958
O O3 0.387586 0.648095 0.940175
O O4 0.586447 0.742681 0.937585
O O5 0.497194 0.731725 0.758506
O O6 0.328116 0.849150 0.800179
O O7 0.326027 0.635112 0.795425
O O8 0.798971 0.726866 0.970774
O O9 0.065575 0.250000 0.625000
O O10 0.945186 0.194980 0.551543
O O11 0.750000 0.691728 0.875000
#
# Coordination Sequence:
#
# PCOD9561029 Si02
#       5
#    16  16  16  16  16
#     4  10  21  41  64  96 136 170 226 286 338 419
#     4  10  22  45  65  95 133 181 234 281 342 408
#     4  11  24  40  70  93 135 179 232 281 344 409
#     4   8  18  35  61  88 125 172 213 265 335 404
#     4  11  21  38  60  97 135 174 213 276 348 413
#
# _framework density 20.978314000000001
#
# number of rings (size 3 to 8) (size 9 to 14) (size 15 to 20)
#    0.000    2.000    2.000    2.400    5.600    1.200 
#    0.000    2.000    4.400    0.000    0.000    0.000 
#    0.000    0.000    0.000    0.000    0.000    0.000 
#
# Total GULP energy -223215.907661 kJ/mol
# GULP energy per Si atom -5580.397692 kJ/mol
# Density = 2.093057 g / cm^3
# Si number density = 20.978314 Si / 1000 Ang^3
#
#
#
# Elastic Constant Matrix: (Units=GPa)
#
#
# Indices 1 2 3 4 5 6 
#
# 1 95.2678 29.7408 21.3193 0.0000 0.0000 0.0000
# 2 29.7408 95.2678 21.3193 0.0000 0.0000 0.0000
# 3 21.3193 21.3193 82.8892 0.0000 0.0000 0.0000
# 4 0.0000 0.0000 0.0000 40.6441 0.0000 0.0000
# 5 0.0000 0.0000 0.0000 0.0000 40.6441 0.0000
# 6 0.0000 0.0000 0.0000 0.0000 0.0000 6.8517
#
#
#
# Elastic Compliance Matrix: (Units=1/GPa)
#
#
# Indices 1 2 3 4 5 6 
#
# 1 0.012015 -0.003246 -0.002255 0.000000 0.000000 0.000000
# 2 -0.003246 0.012015 -0.002255 0.000000 0.000000 0.000000
# 3 -0.002255 -0.002255 0.013224 0.000000 0.000000 0.000000
# 4 0.000000 0.000000 0.000000 0.024604 0.000000 0.000000
# 5 0.000000 0.000000 0.000000 0.000000 0.024604 0.000000
# 6 0.000000 0.000000 0.000000 0.000000 0.000000 0.145949
#
#
# Mechanical properties :
#
#
# Convention : Reuss Voigt Hill
#
# Bulk Modulus (GPa) = 45.99700 46.46483 46.23092
# Shear Modulus (GPa) = 19.59469 31.03100 25.31285
#
# Velocity S-wave (km/s) = 3.05953 3.85020 3.47741
# Velocity P-wave (km/s) = 5.86980 6.47784 6.18130
#
# Compressibility (1/GPa) = 0.02174055
#
# Stress axis : x y z
#
# Youngs Moduli (GPa) = 83.23064 83.23064 75.61746
#
# Poissons Ratio (x) = 0.27017 0.17054
# Poissons Ratio (y) = 0.27017 0.17054
# Poissons Ratio (z) = 0.18771 0.18771
#
# Static dielectric constant tensor:
#      x y z
#    x 1.760220 0.000000 0.000000 
#    y 0.000000 1.760220 0.000000 
#    z 0.000000 0.000000 1.737900 
# 
# From -- ./inp_files/9357.got.cif
#   From: 2010.05.17/outbox.cif.g08.bks.cpg/sg122_5_cif.got.tgz:9357.got - 2010.05.20 11:37:33.
