data_PCOD9561828
_publ_section_title
;
Structure prediction by ZEFSAII (Michael W. Deem and Ramdas Pophale) SiO2 
 PCOD9561828
Probable space group: P 4/M M M
;
_chemical_formula_sum "Si O2"
_cell_formula_units_Z 60
_cell_length_a 12.348136
_cell_length_b 12.348136
_cell_length_c 25.911812
_cell_angle_alpha 90.000000
_cell_angle_beta 90.000000
_cell_angle_gamma 90.000000
_cell_volume 3950.941435
_symmetry_space_group_name_H-M "P 4/M M M"
_symmetry_group_IT_number 123
_symmetry_cell_setting 'tetragonal'
loop_
_space_group_symop_operation_xyz
x,y,z
-y,x,z
-x,-y,z
y,-x,z
x,-y,-z
-x,y,-z
y,x,-z
-y,-x,-z
-x,-y,-z
y,-x,-z
x,y,-z
-y,x,-z
-x,y,z
x,-y,z
-y,-x,z
y,x,z
loop_
_atom_site_type_symbol
_atom_site_label
_atom_site_fract_x
_atom_site_fract_y
_atom_site_fract_z
Si Si1 0.197087 0.622891 0.833599
Si Si2 0.875623 0.304399 0.720521
Si Si3 0.500000 0.319859 0.438749
Si Si4 0.186799 0.000000 0.000000
Si Si5 0.125366 0.500000 0.359380
Si Si6 0.000000 0.374555 0.913442
O O1 0.237911 0.500000 0.834575
O O2 0.291684 0.708317 0.842582
O O3 0.147263 0.645974 0.777099
O O4 0.104482 0.633999 0.876556
O O5 0.793460 0.206541 0.712611
O O6 0.859123 0.396052 0.677432
O O7 0.000000 0.268602 0.718558
O O8 0.604497 0.395504 0.427736
O O9 0.500000 0.296770 0.500000
O O10 0.500000 0.212605 0.404714
O O11 0.272659 0.000000 0.952381
O O12 0.105219 0.894782 0.000000
O O13 0.000000 0.500000 0.377321
O O14 0.000000 0.500000 0.934842
#
# Coordination Sequence:
#
# PCOD9561828 Si02
#       6
#    16  16   8   4   8   8
#     4  10  19  32  50  71  98 131 163 202 244 291
#     4  10  19  31  47  68  97 129 166 204 242 290
#     4   9  18  33  51  71  99 134 169 207 251 297
#     4  11  23  38  54  78 109 129 160 212 256 295
#     4  10  19  30  50  72  99 128 167 206 251 291
#     4  10  20  35  58  75  97 131 169 204 241 296
#
# _framework density 15.186253000000001
#
# number of rings (size 3 to 8) (size 9 to 14) (size 15 to 20)
#    0.000    2.067    2.667    2.200    0.000    0.800 
#    0.000    0.000    0.000    0.000    0.000    0.000 
#    0.000    9.600    0.000   24.800    0.000    0.000 
#
# Total GULP energy -334478.770935 kJ/mol
# GULP energy per Si atom -5574.646182 kJ/mol
# Density = 1.515169 g / cm^3
# Si number density = 15.186253 Si / 1000 Ang^3
#
#
#
# Elastic Constant Matrix: (Units=GPa)
#
#
# Indices 1 2 3 4 5 6 
#
# 1 129.5942 76.9947 64.1146 0.0000 0.0000 0.0000
# 2 76.9947 129.5944 64.1146 0.0000 0.0000 0.0000
# 3 64.1146 64.1146 85.1114 0.0000 0.0000 0.0000
# 4 0.0000 0.0000 0.0000 25.3865 0.0000 0.0000
# 5 0.0000 0.0000 0.0000 0.0000 25.3867 0.0000
# 6 0.0000 0.0000 0.0000 0.0000 0.0000 12.7889
#
#
#
# Elastic Compliance Matrix: (Units=1/GPa)
#
#
# Indices 1 2 3 4 5 6 
#
# 1 0.014052 -0.004960 -0.006849 0.000000 0.000000 0.000000
# 2 -0.004960 0.014051 -0.006849 0.000000 0.000000 0.000000
# 3 -0.006849 -0.006849 0.022067 0.000000 0.000000 0.000000
# 4 0.000000 0.000000 0.000000 0.039391 0.000000 0.000000
# 5 0.000000 0.000000 0.000000 0.000000 0.039391 0.000000
# 6 0.000000 0.000000 0.000000 0.000000 0.000000 0.078193
#
#
# Mechanical properties :
#
#
# Convention : Reuss Voigt Hill
#
# Bulk Modulus (GPa) = 77.78521 83.86086 80.82304
# Shear Modulus (GPa) = 20.10093 21.98416 21.04255
#
# Velocity S-wave (km/s) = 3.64211 3.80891 3.72645
# Velocity P-wave (km/s) = 8.30775 8.64206 8.47655
#
# Compressibility (1/GPa) = 0.01285591
#
# Stress axis : x y z
#
# Youngs Moduli (GPa) = 71.16676 71.16688 45.31566
#
# Poissons Ratio (x) = 0.35299 0.31035
# Poissons Ratio (y) = 0.35299 0.31035
# Poissons Ratio (z) = 0.48739 0.48739
#
# Static dielectric constant tensor:
#      x y z
#    x 1.486230 0.000000 0.000000 
#    y 0.000000 1.486230 0.000000 
#    z 0.000000 0.000000 1.489400 
# 
# From -- ./inp_files/7775.got.cif
#   From: 2010.05.17/outbox.cif.g08.bks.cpg/sg123_4_cif.got.tgz:7775.got - 2010.05.20 11:43:04.
