data_PCOD9561393
_publ_section_title
;
Structure prediction by ZEFSAII (Michael W. Deem and Ramdas Pophale) SiO2 
 PCOD9561393
Probable space group: I -4 2 D
;
_chemical_formula_sum "Si O2"
_cell_formula_units_Z 100
_cell_length_a 14.123551
_cell_length_b 14.123551
_cell_length_c 23.517938
_cell_angle_alpha 90.000000
_cell_angle_beta 90.000000
_cell_angle_gamma 90.000000
_cell_volume 4691.233459
_symmetry_space_group_name_H-M "I -4 2 D"
_symmetry_group_IT_number 122
_symmetry_cell_setting 'tetragonal'
loop_
_space_group_symop_operation_xyz
x,y,z
y,-x,-z
-x,-y,z
-y,x,-z
x,1/2-y,1/4-z
-x,1/2+y,1/4-z
-y,1/2-x,1/4+z
y,1/2+x,1/4+z
1/2+x,1/2+y,1/2+z
1/2+y,1/2-x,1/2-z
1/2-x,1/2-y,1/2+z
1/2-y,1/2+x,1/2-z
1/2+x,-y,3/4-z
1/2-x,y,3/4-z
1/2-y,-x,3/4+z
1/2+y,x,3/4+z
loop_
_atom_site_type_symbol
_atom_site_label
_atom_site_fract_x
_atom_site_fract_y
_atom_site_fract_z
Si Si1 0.866323 0.461431 0.235034
Si Si2 0.488145 0.711211 0.038088
Si Si3 0.672846 0.250000 0.125000
Si Si4 0.214062 0.414116 0.079727
Si Si5 0.693580 0.021754 0.934349
Si Si6 0.000000 0.500000 0.750000
Si Si7 0.659517 0.392415 0.629747
Si Si8 0.250000 0.849545 0.375000
O O1 0.915570 0.561042 0.219281
O O2 0.764423 0.477274 0.262250
O O3 0.871086 0.382290 0.185738
O O4 0.398040 0.751941 0.071989
O O5 0.580032 0.754245 0.070106
O O6 0.468057 0.737321 0.973137
O O7 0.494933 0.596272 0.037657
O O8 0.745037 0.165473 0.137536
O O9 0.115881 0.368381 0.059466
O O10 0.185760 0.498559 0.120421
O O11 0.281920 0.338539 0.110283
O O12 0.750000 0.033462 0.875000
O O13 0.636492 0.923755 0.922945
#
# Coordination Sequence:
#
# PCOD9561393 Si02
#       8
#    16  16   8  16  16   4  16   8
#     4  11  23  39  66  96 137 188 238 285 357 430
#     4  11  25  46  73 106 141 191 239 310 367 442
#     4  11  24  45  70 102 144 175 252 287 358 436
#     4  12  26  44  73 102 145 189 241 304 369 432
#     4  12  23  44  67 101 144 185 240 295 356 443
#     4  12  20  44  80 100 144 200 232 300 400 416
#     4  12  25  44  67 105 138 193 232 297 361 436
#     4  11  26  45  72 112 136 187 260 293 364 464
#
# _framework density 21.316355000000001
#
# number of rings (size 3 to 8) (size 9 to 14) (size 15 to 20)
#    0.000    0.480    4.800    3.360    2.240    1.280 
#    0.000    1.600    0.000    0.000    0.000    0.000 
#    0.000    0.000    0.000    0.000    0.000    0.000 
#
# Total GULP energy -278999.373168 kJ/mol
# GULP energy per Si atom -5579.987463 kJ/mol
# Density = 2.126784 g / cm^3
# Si number density = 21.316355 Si / 1000 Ang^3
#
#
#
# Elastic Constant Matrix: (Units=GPa)
#
#
# Indices 1 2 3 4 5 6 
#
# 1 119.7514 69.5780 16.4653 0.0000 0.0000 0.0000
# 2 69.5780 119.7514 16.4653 0.0000 0.0000 0.0000
# 3 16.4653 16.4653 45.3878 0.0000 0.0000 0.0000
# 4 0.0000 0.0000 0.0000 10.2479 0.0000 0.0000
# 5 0.0000 0.0000 0.0000 0.0000 10.2479 0.0000
# 6 0.0000 0.0000 0.0000 0.0000 0.0000 -22.1600
#
#
#
# Elastic Compliance Matrix: (Units=1/GPa)
#
#
# Indices 1 2 3 4 5 6 
#
# 1 0.012784 -0.007147 -0.002045 0.000000 0.000000 0.000000
# 2 -0.007147 0.012784 -0.002045 0.000000 0.000000 0.000000
# 3 -0.002045 -0.002045 0.023516 0.000000 0.000000 0.000000
# 4 0.000000 0.000000 0.000000 0.097581 0.000000 0.000000
# 5 0.000000 0.000000 0.000000 0.000000 0.097581 0.000000
# 6 0.000000 0.000000 0.000000 0.000000 0.000000 -0.045126
#
#
# Mechanical properties :
#
#
# Convention : Reuss Voigt Hill
#
# Bulk Modulus (GPa) = 37.57885 54.43419 46.00652
# Shear Modulus (GPa) = 21.69530 11.82596 16.76063
#
# Velocity S-wave (km/s) = 3.19372 2.35794 2.80711
# Velocity P-wave (km/s) = 5.59171 5.74499 5.66887
#
# Compressibility (1/GPa) = 0.02661071
#
# Stress axis : x y z
#
# Youngs Moduli (GPa) = 78.22162 78.22162 42.52400
#
# Poissons Ratio (x) = 0.55902 0.08697
# Poissons Ratio (y) = 0.55902 0.08697
# Poissons Ratio (z) = 0.15997 0.15997
#
# Static dielectric constant tensor:
#      x y z
#    x 1.944820 0.000000 0.000000 
#    y 0.000000 1.944820 0.000000 
#    z 0.000000 0.000000 1.926920 
# 
# From -- ./inp_files/8092.got.cif
#   From: 2010.05.17/outbox.cif.g08.bks.cpg/sg122_5_cif.got.tgz:8092.got - 2010.05.20 11:37:33.
