data_PCOD9561366
_publ_section_title
;
Structure prediction by ZEFSAII (Michael W. Deem and Ramdas Pophale) SiO2 
 PCOD9561366
Probable space group: I -4 2 D
;
_chemical_formula_sum "Si O2"
_cell_formula_units_Z 48
_cell_length_a 8.299967
_cell_length_b 8.299967
_cell_length_c 27.942802
_cell_angle_alpha 90.000000
_cell_angle_beta 90.000000
_cell_angle_gamma 90.000000
_cell_volume 1924.964323
_symmetry_space_group_name_H-M "I -4 2 D"
_symmetry_group_IT_number 122
_symmetry_cell_setting 'tetragonal'
loop_
_space_group_symop_operation_xyz
x,y,z
y,-x,-z
-x,-y,z
-y,x,-z
x,1/2-y,1/4-z
-x,1/2+y,1/4-z
-y,1/2-x,1/4+z
y,1/2+x,1/4+z
1/2+x,1/2+y,1/2+z
1/2+y,1/2-x,1/2-z
1/2-x,1/2-y,1/2+z
1/2-y,1/2+x,1/2-z
1/2+x,-y,3/4-z
1/2-x,y,3/4-z
1/2-y,-x,3/4+z
1/2+y,x,3/4+z
loop_
_atom_site_type_symbol
_atom_site_label
_atom_site_fract_x
_atom_site_fract_y
_atom_site_fract_z
Si Si1 0.857776 0.380108 0.665614
Si Si2 0.353377 0.398586 0.598132
Si Si3 0.835099 0.286061 0.252054
O O1 0.910104 0.250000 0.625000
O O2 0.732878 0.489528 0.636028
O O3 0.768320 0.300864 0.711384
O O4 0.000000 0.500000 0.680762
O O5 0.500000 0.500000 0.576115
O O6 0.430534 0.250000 0.625000
O O7 0.233477 0.329460 0.557749
O O8 0.774833 0.471905 0.255800
#
# Coordination Sequence:
#
# PCOD9561366 Si02
#       3
#    16  16  16
#     4  12  26  51  79 122 173 219 277 355 436 509
#     4  12  24  47  81 122 161 218 284 351 419 511
#     4  11  21  46  87 119 153 217 288 339 418 513
#
# _framework density 24.935525999999999
#
# number of rings (size 3 to 8) (size 9 to 14) (size 15 to 20)
#    0.000    0.333    6.667    4.000    0.000    0.000 
#   12.000    0.000    0.000    0.000    0.000    0.000 
#    0.000    0.000    0.000    0.000    0.000    0.000 
#
# Total GULP energy -134220.633747 kJ/mol
# GULP energy per Si atom -5592.526406 kJ/mol
# Density = 2.487877 g / cm^3
# Si number density = 24.935526 Si / 1000 Ang^3
#
#
#
# Elastic Constant Matrix: (Units=GPa)
#
#
# Indices 1 2 3 4 5 6 
#
# 1 130.0503 77.5960 92.8901 0.0000 0.0000 0.0000
# 2 77.5960 130.0503 92.8901 0.0000 0.0000 0.0000
# 3 92.8901 92.8901 219.1047 0.0000 0.0000 0.0000
# 4 0.0000 0.0000 0.0000 42.5063 0.0000 0.0000
# 5 0.0000 0.0000 0.0000 0.0000 42.5063 0.0000
# 6 0.0000 0.0000 0.0000 0.0000 0.0000 38.3561
#
#
#
# Elastic Compliance Matrix: (Units=1/GPa)
#
#
# Indices 1 2 3 4 5 6 
#
# 1 0.013412 -0.005653 -0.003289 0.000000 0.000000 0.000000
# 2 -0.005653 0.013412 -0.003289 0.000000 0.000000 0.000000
# 3 -0.003289 -0.003289 0.007353 0.000000 0.000000 0.000000
# 4 0.000000 0.000000 0.000000 0.023526 0.000000 0.000000
# 5 0.000000 0.000000 0.000000 0.000000 0.023526 0.000000
# 6 0.000000 0.000000 0.000000 0.000000 0.000000 0.026071
#
#
# Mechanical properties :
#
#
# Convention : Reuss Voigt Hill
#
# Bulk Modulus (GPa) = 102.95158 111.77307 107.36232
# Shear Modulus (GPa) = 37.03697 39.06237 38.04967
#
# Velocity S-wave (km/s) = 3.85815 3.96224 3.91054
# Velocity P-wave (km/s) = 7.82457 8.11509 7.97115
#
# Compressibility (1/GPa) = 0.00971330
#
# Stress axis : x y z
#
# Youngs Moduli (GPa) = 74.56253 74.56254 135.99644
#
# Poissons Ratio (x) = 0.42148 0.44735
# Poissons Ratio (y) = 0.42148 0.44735
# Poissons Ratio (z) = 0.24527 0.24527
#
# Static dielectric constant tensor:
#      x y z
#    x 1.985040 0.000000 0.000000 
#    y 0.000000 1.985040 0.000000 
#    z 0.000000 0.000000 2.054760 
# 
# From -- ./inp_files/9005.got.cif
#   From: 2010.05.17/outbox.cif.g08.bks.cpg/sg122_5_cif.got.tgz:9005.got - 2010.05.20 11:37:33.
