data_PCOD9561941
_publ_section_title
;
Structure prediction by ZEFSAII (Michael W. Deem and Ramdas Pophale) SiO2 
 PCOD9561941
Probable space group: P 4/M M M
;
_chemical_formula_sum "Si O2"
_cell_formula_units_Z 92
_cell_length_a 25.358929
_cell_length_b 25.358929
_cell_length_c 7.312900
_cell_angle_alpha 90.000000
_cell_angle_beta 90.000000
_cell_angle_gamma 90.000000
_cell_volume 4702.745215
_symmetry_space_group_name_H-M "P 4/M M M"
_symmetry_group_IT_number 123
_symmetry_cell_setting 'tetragonal'
loop_
_space_group_symop_operation_xyz
x,y,z
-y,x,z
-x,-y,z
y,-x,z
x,-y,-z
-x,y,-z
y,x,-z
-y,-x,-z
-x,-y,-z
y,-x,-z
x,y,-z
-y,x,-z
-x,y,z
x,-y,z
-y,-x,z
y,x,z
loop_
_atom_site_type_symbol
_atom_site_label
_atom_site_fract_x
_atom_site_fract_y
_atom_site_fract_z
Si Si1 0.170215 0.443793 0.721009
Si Si2 0.943376 0.583752 0.714461
Si Si3 0.649930 0.753420 0.791290
Si Si4 0.255096 0.826957 0.223003
Si Si5 0.365522 0.365522 0.222696
Si Si6 0.941712 0.291127 0.220342
Si Si7 0.435175 0.564826 0.500000
O O1 0.168823 0.440393 0.500000
O O2 0.193020 0.500000 0.772938
O O3 0.110428 0.439230 0.788945
O O4 0.205213 0.396733 0.787552
O O5 0.944593 0.569978 0.500000
O O6 0.939020 0.647037 0.730383
O O7 0.000000 0.568018 0.792775
O O8 0.699633 0.785779 0.711854
O O9 0.628880 0.696801 0.723321
O O10 0.664648 0.742647 0.000000
O O11 0.199414 0.800587 0.271099
O O12 0.264872 0.887045 0.284529
O O13 0.258732 0.828072 0.000000
O O14 0.405112 0.405112 0.329692
O O15 0.371746 0.371746 0.000000
O O16 0.000000 0.271931 0.282543
O O17 0.941825 0.287628 0.000000
O O18 0.427127 0.500000 0.500000
#
# Coordination Sequence:
#
# PCOD9561941 Si02
#       7
#    16  16  16  16   8  16   4
#     4  10  21  33  45  66  97 131 168 212 256 299
#     4   9  17  29  44  61  86 126 173 213 250 293
#     4  10  19  34  54  78 105 135 170 206 254 320
#     4   9  15  26  46  70  97 129 164 206 255 306
#     4  10  23  43  69  96 122 150 180 216 269 336
#     4   9  16  26  43  66  90 120 161 206 248 292
#     4  11  28  52  76 100 120 144 182 226 278 340
#
# _framework density 19.563040999999998
#
# number of rings (size 3 to 8) (size 9 to 14) (size 15 to 20)
#    0.000    2.478    2.609    0.000    1.217    1.739 
#    0.000    3.913    0.000    1.565    0.000    3.652 
#    0.000    0.348    0.000    4.870    0.000    0.000 
#
# Total GULP energy -512691.336000 kJ/mol
# GULP energy per Si atom -5572.731913 kJ/mol
# Density = 1.951851 g / cm^3
# Si number density = 19.563041 Si / 1000 Ang^3
#
#
#
# Elastic Constant Matrix: (Units=GPa)
#
#
# Indices 1 2 3 4 5 6 
#
# 1 139.0716 74.0230 15.0672 0.0000 0.0000 0.0000
# 2 74.0230 139.0705 15.0671 0.0000 0.0000 0.0000
# 3 15.0672 15.0671 92.0102 0.0000 0.0000 0.0000
# 4 0.0000 0.0000 0.0000 10.3167 0.0000 0.0000
# 5 0.0000 0.0000 0.0000 0.0000 10.3166 0.0000
# 6 0.0000 0.0000 0.0000 0.0000 0.0000 32.3214
#
#
#
# Elastic Compliance Matrix: (Units=1/GPa)
#
#
# Indices 1 2 3 4 5 6 
#
# 1 0.010089 -0.005285 -0.000787 0.000000 0.000000 0.000000
# 2 -0.005285 0.010089 -0.000787 0.000000 0.000000 0.000000
# 3 -0.000787 -0.000787 0.011126 0.000000 0.000000 0.000000
# 4 0.000000 0.000000 0.000000 0.096930 0.000000 0.000000
# 5 0.000000 0.000000 0.000000 0.000000 0.096931 0.000000
# 6 0.000000 0.000000 0.000000 0.000000 0.000000 0.030939
#
#
# Mechanical properties :
#
#
# Convention : Reuss Voigt Hill
#
# Bulk Modulus (GPa) = 56.85919 64.27410 60.56665
# Shear Modulus (GPa) = 18.13683 28.32394 23.23038
#
# Velocity S-wave (km/s) = 3.04813 3.80916 3.44970
# Velocity P-wave (km/s) = 6.44328 7.22997 6.84793
#
# Compressibility (1/GPa) = 0.01758731
#
# Stress axis : x y z
#
# Youngs Moduli (GPa) = 99.12175 99.12101 89.87947
#
# Poissons Ratio (x) = 0.52382 0.07071
# Poissons Ratio (y) = 0.52382 0.07071
# Poissons Ratio (z) = 0.07798 0.07798
#
# Static dielectric constant tensor:
#      x y z
#    x 1.684120 0.000000 0.000000 
#    y 0.000000 1.684130 0.000000 
#    z 0.000000 0.000000 1.782350 
# 
# From -- ./inp_files/1697.got.cif
#   From: 2010.05.17/outbox.cif.g08.bks.cpg/sg123_1_cif.got.tgz:1697.got - 2010.05.20 11:43:04.
