data_PCOD9561183
_publ_section_title
;
Structure prediction by ZEFSAII (Michael W. Deem and Ramdas Pophale) SiO2 
 PCOD9561183
Probable space group: I -4 2 D
;
_chemical_formula_sum "Si O2"
_cell_formula_units_Z 72
_cell_length_a 18.002415
_cell_length_b 18.002415
_cell_length_c 9.047626
_cell_angle_alpha 90.000000
_cell_angle_beta 90.000000
_cell_angle_gamma 90.000000
_cell_volume 2932.217477
_symmetry_space_group_name_H-M "I -4 2 D"
_symmetry_group_IT_number 122
_symmetry_cell_setting 'tetragonal'
loop_
_space_group_symop_operation_xyz
x,y,z
y,-x,-z
-x,-y,z
-y,x,-z
x,1/2-y,1/4-z
-x,1/2+y,1/4-z
-y,1/2-x,1/4+z
y,1/2+x,1/4+z
1/2+x,1/2+y,1/2+z
1/2+y,1/2-x,1/2-z
1/2-x,1/2-y,1/2+z
1/2-y,1/2+x,1/2-z
1/2+x,-y,3/4-z
1/2-x,y,3/4-z
1/2-y,-x,3/4+z
1/2+y,x,3/4+z
loop_
_atom_site_type_symbol
_atom_site_label
_atom_site_fract_x
_atom_site_fract_y
_atom_site_fract_z
Si Si1 0.073127 0.870274 0.846520
Si Si2 0.250000 0.368552 0.875000
Si Si3 0.135462 0.353364 0.645265
Si Si4 0.975025 0.845710 0.345619
Si Si5 0.814994 0.084977 0.078363
O O1 0.083734 0.807553 0.721077
O O2 0.089365 0.946803 0.761258
O O3 0.992284 0.860733 0.913396
O O4 0.138338 0.863321 0.968355
O O5 0.200434 0.325690 0.755066
O O6 0.060865 0.357707 0.743436
O O7 0.158575 0.437336 0.603680
O O8 0.118209 0.313293 0.493057
O O9 0.938225 0.768871 0.288621
#
# Coordination Sequence:
#
# PCOD9561183 Si02
#       5
#    16   8  16  16  16
#     4  11  25  44  73 102 148 184 232 297 356 424
#     4  10  22  46  66  98 142 186 226 284 348 422
#     4  11  23  41  74  98 142 188 230 295 359 418
#     4  11  24  43  70 100 142 187 237 289 364 420
#     4  12  25  44  71 104 144 185 237 294 359 417
#
# _framework density 24.554794999999999
#
# number of rings (size 3 to 8) (size 9 to 14) (size 15 to 20)
#    0.000    0.889    2.222    5.333    0.000    6.222 
#    0.000   17.778    0.000    0.000    0.000    0.000 
#    0.000    0.000    0.000    0.000    0.000    0.000 
#
# Total GULP energy -201631.032221 kJ/mol
# GULP energy per Si atom -5600.862006 kJ/mol
# Density = 2.449891 g / cm^3
# Si number density = 24.554795 Si / 1000 Ang^3
#
#
#
# Elastic Constant Matrix: (Units=GPa)
#
#
# Indices 1 2 3 4 5 6 
#
# 1 72.1009 38.9664 12.7557 0.0000 0.0000 0.0000
# 2 38.9664 72.1009 12.7557 0.0000 0.0000 0.0000
# 3 12.7557 12.7557 86.1661 0.0000 0.0000 0.0000
# 4 0.0000 0.0000 0.0000 35.1869 0.0000 0.0000
# 5 0.0000 0.0000 0.0000 0.0000 35.1869 0.0000
# 6 0.0000 0.0000 0.0000 0.0000 0.0000 25.7091
#
#
#
# Elastic Compliance Matrix: (Units=1/GPa)
#
#
# Indices 1 2 3 4 5 6 
#
# 1 0.019750 -0.010430 -0.001380 0.000000 0.000000 0.000000
# 2 -0.010430 0.019750 -0.001380 0.000000 0.000000 0.000000
# 3 -0.001380 -0.001380 0.012014 0.000000 0.000000 0.000000
# 4 0.000000 0.000000 0.000000 0.028420 0.000000 0.000000
# 5 0.000000 0.000000 0.000000 0.000000 0.028420 0.000000
# 6 0.000000 0.000000 0.000000 0.000000 0.000000 0.038897
#
#
# Mechanical properties :
#
#
# Convention : Reuss Voigt Hill
#
# Bulk Modulus (GPa) = 39.78378 39.92485 39.85432
# Shear Modulus (GPa) = 27.47132 30.27590 28.87361
#
# Velocity S-wave (km/s) = 3.34844 3.51521 3.43284
# Velocity P-wave (km/s) = 5.58450 5.72454 5.65495
#
# Compressibility (1/GPa) = 0.02513587
#
# Stress axis : x y z
#
# Youngs Moduli (GPa) = 50.63218 50.63218 83.23622
#
# Poissons Ratio (x) = 0.52808 0.11485
# Poissons Ratio (y) = 0.52808 0.11485
# Poissons Ratio (z) = 0.06986 0.06986
#
# Static dielectric constant tensor:
#      x y z
#    x 1.927650 0.000000 0.000000 
#    y 0.000000 1.927650 0.000000 
#    z 0.000000 0.000000 1.969800 
# 
# From -- ./inp_files/2648.got.cif
#   From: 2010.05.17/outbox.cif.g08.bks.cpg/sg122_2_cif.got.tgz:2648.got - 2010.05.20 11:37:33.
