data_PCOD9561230
_publ_section_title
;
Structure prediction by ZEFSAII (Michael W. Deem and Ramdas Pophale) SiO2 
 PCOD9561230
Probable space group: I -4 2 D
;
_chemical_formula_sum "Si O2"
_cell_formula_units_Z 60
_cell_length_a 22.039198
_cell_length_b 22.039198
_cell_length_c 5.330787
_cell_angle_alpha 90.000000
_cell_angle_beta 90.000000
_cell_angle_gamma 90.000000
_cell_volume 2589.303171
_symmetry_space_group_name_H-M "I -4 2 D"
_symmetry_group_IT_number 122
_symmetry_cell_setting 'tetragonal'
loop_
_space_group_symop_operation_xyz
x,y,z
y,-x,-z
-x,-y,z
-y,x,-z
x,1/2-y,1/4-z
-x,1/2+y,1/4-z
-y,1/2-x,1/4+z
y,1/2+x,1/4+z
1/2+x,1/2+y,1/2+z
1/2+y,1/2-x,1/2-z
1/2-x,1/2-y,1/2+z
1/2-y,1/2+x,1/2-z
1/2+x,-y,3/4-z
1/2-x,y,3/4-z
1/2-y,-x,3/4+z
1/2+y,x,3/4+z
loop_
_atom_site_type_symbol
_atom_site_label
_atom_site_fract_x
_atom_site_fract_y
_atom_site_fract_z
Si Si1 0.536806 0.681502 0.134005
Si Si2 0.250000 0.650744 0.875000
Si Si3 0.181554 0.750000 0.625000
Si Si4 0.985064 0.133436 0.138988
Si Si5 0.000000 0.500000 0.250000
Si Si6 0.397285 0.750000 0.625000
O O1 0.509013 0.750000 0.125000
O O2 0.606066 0.696037 0.204496
O O3 0.507017 0.645175 0.356280
O O4 0.530871 0.651348 0.863332
O O5 0.224596 0.692446 0.659198
O O6 0.142131 0.743592 0.375774
O O7 0.934451 0.186719 0.163973
O O8 0.977913 0.060474 0.151060
#
# Coordination Sequence:
#
# PCOD9561230 Si02
#       6
#    16   8   8  16   4   8
#     4  10  23  45  80  99 152 215 256 324 397 498
#     4  10  26  45  71 112 149 193 264 338 398 464
#     4  12  27  41  74 116 146 195 257 348 392 470
#     4  12  26  51  71 118 150 217 268 324 414 485
#     4  12  36  46  88 118 184 198 288 358 404 494
#     4  12  25  46  79 102 159 206 269 318 400 506
#
# _framework density 23.172257999999999
#
# number of rings (size 3 to 8) (size 9 to 14) (size 15 to 20)
#    0.800    0.000    2.667    2.400    7.467    7.467 
#    0.000    0.000    0.000    0.000    0.000    0.000 
#    0.000    0.000    0.000    0.000    0.000    0.000 
#
# Total GULP energy -167450.744233 kJ/mol
# GULP energy per Si atom -5581.691474 kJ/mol
# Density = 2.311952 g / cm^3
# Si number density = 23.172258 Si / 1000 Ang^3
#
#
#
# Elastic Constant Matrix: (Units=GPa)
#
#
# Indices 1 2 3 4 5 6 
#
# 1 142.7547 49.3379 38.4745 0.0000 0.0000 0.0000
# 2 49.3379 142.7547 38.4745 0.0000 0.0000 0.0000
# 3 38.4745 38.4745 100.5408 0.0000 0.0000 0.0000
# 4 0.0000 0.0000 0.0000 29.9855 0.0000 0.0000
# 5 0.0000 0.0000 0.0000 0.0000 29.9855 0.0000
# 6 0.0000 0.0000 0.0000 0.0000 0.0000 -52.2863
#
#
#
# Elastic Compliance Matrix: (Units=1/GPa)
#
#
# Indices 1 2 3 4 5 6 
#
# 1 0.008427 -0.002278 -0.002353 0.000000 0.000000 0.000000
# 2 -0.002278 0.008427 -0.002353 0.000000 0.000000 0.000000
# 3 -0.002353 -0.002353 0.011747 0.000000 0.000000 0.000000
# 4 0.000000 0.000000 0.000000 0.033349 0.000000 0.000000
# 5 0.000000 0.000000 0.000000 0.000000 0.033349 0.000000
# 6 0.000000 0.000000 0.000000 0.000000 0.000000 -0.019125
#
#
# Mechanical properties :
#
#
# Convention : Reuss Voigt Hill
#
# Bulk Modulus (GPa) = 68.34183 70.95824 69.65004
# Shear Modulus (GPa) = 52.62134 18.85449 35.73791
#
# Velocity S-wave (km/s) = 4.77054 2.85558 3.93144
# Velocity P-wave (km/s) = 7.73958 6.44678 7.12257
#
# Compressibility (1/GPa) = 0.01463233
#
# Stress axis : x y z
#
# Youngs Moduli (GPa) = 118.67299 118.67299 85.12859
#
# Poissons Ratio (x) = 0.27036 0.20029
# Poissons Ratio (y) = 0.27036 0.20029
# Poissons Ratio (z) = 0.27922 0.27922
#
# Static dielectric constant tensor:
#      x y z
#    x 1.962840 0.000000 0.000000 
#    y 0.000000 1.962840 0.000000 
#    z 0.000000 0.000000 1.874530 
# 
# From -- ./inp_files/1053.got.cif
#   From: 2010.05.17/outbox.cif.g08.bks.cpg/sg122_1_cif.got.tgz:1053.got - 2010.05.20 11:37:33.
