data_PCOD9561115
_publ_section_title
;
Structure prediction by ZEFSAII (Michael W. Deem and Ramdas Pophale) SiO2 
 PCOD9561115
Probable space group: I -4 2 D
;
_chemical_formula_sum "Si O2"
_cell_formula_units_Z 60
_cell_length_a 17.043004
_cell_length_b 17.043004
_cell_length_c 8.489932
_cell_angle_alpha 90.000000
_cell_angle_beta 90.000000
_cell_angle_gamma 90.000000
_cell_volume 2466.019484
_symmetry_space_group_name_H-M "I -4 2 D"
_symmetry_group_IT_number 122
_symmetry_cell_setting 'tetragonal'
loop_
_space_group_symop_operation_xyz
x,y,z
y,-x,-z
-x,-y,z
-y,x,-z
x,1/2-y,1/4-z
-x,1/2+y,1/4-z
-y,1/2-x,1/4+z
y,1/2+x,1/4+z
1/2+x,1/2+y,1/2+z
1/2+y,1/2-x,1/2-z
1/2-x,1/2-y,1/2+z
1/2-y,1/2+x,1/2-z
1/2+x,-y,3/4-z
1/2-x,y,3/4-z
1/2-y,-x,3/4+z
1/2+y,x,3/4+z
loop_
_atom_site_type_symbol
_atom_site_label
_atom_site_fract_x
_atom_site_fract_y
_atom_site_fract_z
Si Si1 0.482368 0.750000 0.125000
Si Si2 0.500000 0.000000 0.750000
Si Si3 0.201887 0.494142 0.541702
Si Si4 0.927716 0.882575 0.784629
Si Si5 0.666972 0.744924 0.808382
O O1 0.450949 0.760160 0.304757
O O2 0.533233 0.671589 0.154174
O O3 0.509297 0.918860 0.845692
O O4 0.250000 0.487137 0.375000
O O5 0.117176 0.457894 0.525604
O O6 0.196068 0.586965 0.577505
O O7 0.861897 0.827803 0.868210
O O8 0.680269 0.750000 0.625000
O O9 0.750000 0.717638 0.875000
#
# Coordination Sequence:
#
# PCOD9561115 Si02
#       5
#     8   4  16  16  16
#     4  10  24  44  74 112 148 200 262 322 394 464
#     4  12  24  44  82 104 156 234 260 324 426 480
#     4  10  22  46  70 102 154 200 256 320 393 471
#     4  11  24  44  73 107 158 202 269 324 394 488
#     4  10  22  40  72 107 149 194 259 322 388 464
#
# _framework density 24.330708000000001
#
# number of rings (size 3 to 8) (size 9 to 14) (size 15 to 20)
#    0.000    1.600    0.000    5.600    7.467    2.133 
#    0.000   18.667   11.733    0.000    0.000    0.000 
#    0.000    0.000    0.000    0.000    0.000    0.000 
#
# Total GULP energy -167411.071681 kJ/mol
# GULP energy per Si atom -5580.369056 kJ/mol
# Density = 2.427533 g / cm^3
# Si number density = 24.330708 Si / 1000 Ang^3
#
#
#
# Elastic Constant Matrix: (Units=GPa)
#
#
# Indices 1 2 3 4 5 6 
#
# 1 91.1125 28.5306 7.3638 0.0000 0.0000 0.0000
# 2 28.5306 91.1125 7.3638 0.0000 0.0000 0.0000
# 3 7.3638 7.3638 150.4320 0.0000 0.0000 0.0000
# 4 0.0000 0.0000 0.0000 23.7853 0.0000 0.0000
# 5 0.0000 0.0000 0.0000 0.0000 23.7853 0.0000
# 6 0.0000 0.0000 0.0000 0.0000 0.0000 41.6241
#
#
#
# Elastic Compliance Matrix: (Units=1/GPa)
#
#
# Indices 1 2 3 4 5 6 
#
# 1 0.012194 -0.003785 -0.000412 0.000000 0.000000 0.000000
# 2 -0.003785 0.012194 -0.000412 0.000000 0.000000 0.000000
# 3 -0.000412 -0.000412 0.006688 0.000000 0.000000 0.000000
# 4 0.000000 0.000000 0.000000 0.042043 0.000000 0.000000
# 5 0.000000 0.000000 0.000000 0.000000 0.042043 0.000000
# 6 0.000000 0.000000 0.000000 0.000000 0.000000 0.024025
#
#
# Mechanical properties :
#
#
# Convention : Reuss Voigt Hill
#
# Bulk Modulus (GPa) = 45.74760 46.57479 46.16120
# Shear Modulus (GPa) = 32.11533 37.13219 34.62376
#
# Velocity S-wave (km/s) = 3.63705 3.91083 3.77642
# Velocity P-wave (km/s) = 6.03993 6.29100 6.16675
#
# Compressibility (1/GPa) = 0.02185907
#
# Stress axis : x y z
#
# Youngs Moduli (GPa) = 82.00779 82.00779 149.52551
#
# Poissons Ratio (x) = 0.31041 0.06155
# Poissons Ratio (y) = 0.31041 0.06155
# Poissons Ratio (z) = 0.03376 0.03376
#
# Static dielectric constant tensor:
#      x y z
#    x 1.983870 0.000000 0.000000 
#    y 0.000000 1.983870 0.000000 
#    z 0.000000 0.000000 2.014020 
# 
# From -- ./inp_files/2352.got.cif
#   From: 2010.05.17/outbox.cif.g08.bks.cpg/sg122_2_cif.got.tgz:2352.got - 2010.05.20 11:37:33.
