data_PCOD9561621
_publ_section_title
;
Structure prediction by ZEFSAII (Michael W. Deem and Ramdas Pophale) SiO2 
 PCOD9561621
Probable space group: P 4/M M M
;
_chemical_formula_sum "Si O2"
_cell_formula_units_Z 96
_cell_length_a 25.057882
_cell_length_b 25.057882
_cell_length_c 7.314048
_cell_angle_alpha 90.000000
_cell_angle_beta 90.000000
_cell_angle_gamma 90.000000
_cell_volume 4592.472091
_symmetry_space_group_name_H-M "P 4/M M M"
_symmetry_group_IT_number 123
_symmetry_cell_setting 'tetragonal'
loop_
_space_group_symop_operation_xyz
x,y,z
-y,x,z
-x,-y,z
y,-x,z
x,-y,-z
-x,y,-z
y,x,-z
-y,-x,-z
-x,-y,-z
y,-x,-z
x,y,-z
-y,x,-z
-x,y,z
x,-y,z
-y,-x,z
y,x,z
loop_
_atom_site_type_symbol
_atom_site_label
_atom_site_fract_x
_atom_site_fract_y
_atom_site_fract_z
Si Si1 0.733965 0.647922 0.222928
Si Si2 0.561280 0.647887 0.222466
Si Si3 0.438215 0.058863 0.222769
Si Si4 0.357057 0.145424 0.212404
Si Si5 0.267874 0.059824 0.279557
Si Si6 0.059753 0.854754 0.722601
O O1 0.699073 0.699073 0.280663
O O2 0.700174 0.595390 0.276285
O O3 0.794993 0.648835 0.287593
O O4 0.734149 0.648944 0.000000
O O5 0.500000 0.647505 0.283945
O O6 0.596381 0.596381 0.277954
O O7 0.560444 0.647603 0.000000
O O8 0.500000 0.064199 0.273110
O O9 0.402950 0.107467 0.291634
O O10 0.419155 0.000000 0.281526
O O11 0.435879 0.058871 0.000000
O O12 0.304774 0.108399 0.220061
O O13 0.370972 0.153384 0.000000
O O14 0.268998 0.059215 0.500000
O O15 0.206581 0.067828 0.221918
O O16 0.284867 0.000000 0.218467
O O17 0.060708 0.854886 0.500000
O O18 0.105027 0.894974 0.785996
O O19 0.000000 0.871153 0.777174
#
# Coordination Sequence:
#
# PCOD9561621 Si02
#       6
#    16  16  16  16  16  16
#     4   8  15  26  36  51  79 108 133 170 217 251
#     4   8  13  21  33  50  76 111 146 178 213 253
#     4   8  14  24  37  56  81 100 118 159 212 242
#     4  10  18  27  44  65  80 104 145 179 201 242
#     4   9  18  31  44  60  86 115 137 165 211 256
#     4   8  14  25  41  61  84 109 137 169 206 248
#
# _framework density 20.903773999999999
#
# number of rings (size 3 to 8) (size 9 to 14) (size 15 to 20)
#    0.000    3.500    0.000    3.000    0.000    2.667 
#    0.000    5.000    0.000    0.500    0.000    2.333 
#    0.000    0.000    0.000    4.167    0.000    4.500 
#
# Total GULP energy -535495.383059 kJ/mol
# GULP energy per Si atom -5578.076907 kJ/mol
# Density = 2.085620 g / cm^3
# Si number density = 20.903774 Si / 1000 Ang^3
#
#
#
# Elastic Constant Matrix: (Units=GPa)
#
#
# Indices 1 2 3 4 5 6 
#
# 1 199.5258 126.4222 1.9511 0.0000 0.0000 0.0000
# 2 126.4222 199.5258 1.9511 0.0000 0.0000 0.0000
# 3 1.9511 1.9511 83.5014 0.0000 0.0000 0.0000
# 4 0.0000 0.0000 0.0000 -2.2107 0.0000 0.0000
# 5 0.0000 0.0000 0.0000 0.0000 -2.2107 0.0000
# 6 0.0000 0.0000 0.0000 0.0000 0.0000 51.0567
#
#
#
# Elastic Compliance Matrix: (Units=1/GPa)
#
#
# Indices 1 2 3 4 5 6 
#
# 1 0.008374 -0.005305 -0.000072 0.000000 0.000000 0.000000
# 2 -0.005305 0.008374 -0.000072 0.000000 0.000000 0.000000
# 3 -0.000072 -0.000072 0.011979 0.000000 0.000000 0.000000
# 4 0.000000 0.000000 0.000000 -0.452344 0.000000 0.000000
# 5 0.000000 0.000000 0.000000 0.000000 -0.452344 0.000000
# 6 0.000000 0.000000 0.000000 0.000000 0.000000 0.019586
#
#
# Mechanical properties :
#
#
# Convention : Reuss Voigt Hill
#
# Bulk Modulus (GPa) = 56.08512 82.57797 69.33154
# Shear Modulus (GPa) = -5.95568 32.80898 13.42665
#
# Velocity S-wave (km/s) = -1.68976 3.96602 2.53713
# Velocity P-wave (km/s) = 4.80430 7.78216 6.46697
#
# Compressibility (1/GPa) = 0.01783004
#
# Stress axis : x y z
#
# Youngs Moduli (GPa) = 119.41686 119.41686 83.47805
#
# Poissons Ratio (x) = 0.63353 0.00599
# Poissons Ratio (y) = 0.63353 0.00599
# Poissons Ratio (z) = 0.00856 0.00856
#
# Static dielectric constant tensor:
#      x y z
#    x 1.722170 0.000000 0.000000 
#    y 0.000000 1.722170 0.000000 
#    z 0.000000 0.000000 1.824370 
# 
# From -- ./inp_files/1655.got.cif
#   From: 2010.05.17/outbox.cif.g08.bks.cpg/sg123_1_cif.got.tgz:1655.got - 2010.05.20 11:43:04.
