data_PCOD9561965
_publ_section_title
;
Structure prediction by ZEFSAII (Michael W. Deem and Ramdas Pophale) SiO2 
 PCOD9561965
Probable space group: P 4/M M M
;
_chemical_formula_sum "Si O2"
_cell_formula_units_Z 88
_cell_length_a 18.388595
_cell_length_b 18.388595
_cell_length_c 13.456070
_cell_angle_alpha 90.000000
_cell_angle_beta 90.000000
_cell_angle_gamma 90.000000
_cell_volume 4550.041243
_symmetry_space_group_name_H-M "P 4/M M M"
_symmetry_group_IT_number 123
_symmetry_cell_setting 'tetragonal'
loop_
_space_group_symop_operation_xyz
x,y,z
-y,x,z
-x,-y,z
y,-x,z
x,-y,-z
-x,y,-z
y,x,-z
-y,-x,-z
-x,-y,-z
y,-x,-z
x,y,-z
-y,x,-z
-x,y,z
x,-y,z
-y,-x,z
y,x,z
loop_
_atom_site_type_symbol
_atom_site_label
_atom_site_fract_x
_atom_site_fract_y
_atom_site_fract_z
Si Si1 0.295032 0.587136 0.321371
Si Si2 0.914995 0.204088 0.718688
Si Si3 0.918483 0.352944 0.184363
Si Si4 0.412537 0.867224 0.391418
Si Si5 0.769908 0.587115 0.107776
Si Si6 0.796473 0.913638 0.500000
O O1 0.309334 0.500000 0.331279
O O2 0.361710 0.638291 0.353378
O O3 0.218843 0.603745 0.376822
O O4 0.276502 0.604504 0.205668
O O5 0.863542 0.136459 0.739440
O O6 0.907639 0.267104 0.799158
O O7 0.892966 0.234423 0.608319
O O8 0.000000 0.183789 0.713952
O O9 0.910390 0.384801 0.296044
O O10 0.851681 0.384213 0.123053
O O11 0.000000 0.367708 0.147156
O O12 0.386945 0.892665 0.500000
O O13 0.500000 0.872653 0.389746
O O14 0.774025 0.500000 0.107809
O O15 0.741626 0.611120 0.000000
O O16 0.875821 0.875821 0.500000
O O17 0.800198 0.000000 0.500000
#
# Coordination Sequence:
#
# PCOD9561965 Si02
#       6
#    16  16  16  16  16   8
#     4   9  18  33  52  75 102 129 163 206 247 292
#     4   9  18  31  46  66  94 126 161 201 242 286
#     4  10  20  31  48  75 103 126 158 208 253 290
#     4   9  19  34  49  67  96 136 174 202 236 289
#     4   9  19  36  55  73  97 131 164 195 241 301
#     4   8  14  25  40  58  83 117 153 189 230 272
#
# _framework density 19.340484
#
# number of rings (size 3 to 8) (size 9 to 14) (size 15 to 20)
#    0.000    2.909    0.000    1.636    1.273    6.273 
#    0.000    3.636    0.000    0.000    0.000    5.091 
#    0.000    0.000    0.000    4.000    0.000    0.182 
#
# Total GULP energy -490356.097517 kJ/mol
# GULP energy per Si atom -5572.228381 kJ/mol
# Density = 1.929646 g / cm^3
# Si number density = 19.340484 Si / 1000 Ang^3
#
#
#
# Elastic Constant Matrix: (Units=GPa)
#
#
# Indices 1 2 3 4 5 6 
#
# 1 34.5849 26.6108 -8.6244 0.0000 0.0000 0.0000
# 2 26.6108 34.5849 -8.6244 0.0000 0.0000 0.0000
# 3 -8.6244 -8.6244 40.2086 0.0000 0.0000 0.0000
# 4 0.0000 0.0000 0.0000 6.3777 0.0000 0.0000
# 5 0.0000 0.0000 0.0000 0.0000 6.3777 0.0000
# 6 0.0000 0.0000 0.0000 0.0000 0.0000 149.4997
#
#
#
# Elastic Compliance Matrix: (Units=1/GPa)
#
#
# Indices 1 2 3 4 5 6 
#
# 1 0.071399 -0.054006 0.003731 0.000000 0.000000 0.000000
# 2 -0.054006 0.071399 0.003731 0.000000 0.000000 0.000000
# 3 0.003731 0.003731 0.026471 0.000000 0.000000 0.000000
# 4 0.000000 0.000000 0.000000 0.156797 0.000000 0.000000
# 5 0.000000 0.000000 0.000000 0.000000 0.156797 0.000000
# 6 0.000000 0.000000 0.000000 0.000000 0.000000 0.006689
#
#
# Mechanical properties :
#
#
# Convention : Reuss Voigt Hill
#
# Bulk Modulus (GPa) = 13.12717 14.23360 13.68038
# Shear Modulus (GPa) = 8.22322 39.11878 23.67100
#
# Velocity S-wave (km/s) = 2.06423 4.50225 3.50224
# Velocity P-wave (km/s) = 3.53320 5.86536 4.84180
#
# Compressibility (1/GPa) = 0.07617790
#
# Stress axis : x y z
#
# Youngs Moduli (GPa) = 14.00583 14.00583 37.77770
#
# Poissons Ratio (x) = 0.75640 -0.14093
# Poissons Ratio (y) = 0.75640 -0.14093
# Poissons Ratio (z) = -0.05225 -0.05225
#
# Static dielectric constant tensor:
#      x y z
#    x 1.663800 0.000000 0.000000 
#    y 0.000000 1.663800 0.000000 
#    z 0.000000 0.000000 1.718940 
# 
# From -- ./inp_files/4093.got.cif
#   From: 2010.05.17/outbox.cif.g08.bks.cpg/sg123_3_cif.got.tgz:4093.got - 2010.05.20 11:43:04.
