data_PCOD9561823
_publ_section_title
;
Structure prediction by ZEFSAII (Michael W. Deem and Ramdas Pophale) SiO2 
 PCOD9561823
Probable space group: P 4/M M M
;
_chemical_formula_sum "Si O2"
_cell_formula_units_Z 72
_cell_length_a 12.964336
_cell_length_b 12.964336
_cell_length_c 26.536656
_cell_angle_alpha 90.000000
_cell_angle_beta 90.000000
_cell_angle_gamma 90.000000
_cell_volume 4460.122131
_symmetry_space_group_name_H-M "P 4/M M M"
_symmetry_group_IT_number 123
_symmetry_cell_setting 'tetragonal'
loop_
_space_group_symop_operation_xyz
x,y,z
-y,x,z
-x,-y,z
y,-x,z
x,-y,-z
-x,y,-z
y,x,-z
-y,-x,-z
-x,-y,-z
y,-x,-z
x,y,-z
-y,x,-z
-x,y,z
x,-y,z
-y,-x,z
y,x,z
loop_
_atom_site_type_symbol
_atom_site_label
_atom_site_fract_x
_atom_site_fract_y
_atom_site_fract_z
Si Si1 0.293806 0.120138 0.190748
Si Si2 0.500000 0.120673 0.876289
Si Si3 0.884557 0.289211 0.500000
Si Si4 0.615555 0.788873 0.596322
Si Si5 0.119454 0.710141 0.692452
Si Si6 0.670162 0.500000 0.060691
O O1 0.202838 0.202838 0.179367
O O2 0.395903 0.132717 0.156976
O O3 0.323779 0.134428 0.249638
O O4 0.258638 0.000000 0.185317
O O5 0.500000 0.215941 0.915446
O O6 0.500000 0.000000 0.895026
O O7 0.803905 0.196096 0.500000
O O8 0.863128 0.354991 0.550158
O O9 0.000000 0.249858 0.500000
O O10 0.500000 0.752253 0.590299
O O11 0.694517 0.694517 0.594533
O O12 0.631031 0.844266 0.649951
O O13 0.188090 0.811911 0.685331
O O14 0.000000 0.733324 0.685236
O O15 0.600356 0.600356 0.074934
O O16 0.677979 0.500000 0.000000
#
# Coordination Sequence:
#
# PCOD9561823 Si02
#       6
#    16   8   8  16  16   8
#     4   9  18  31  47  69  97 129 166 204 244 293
#     4  10  19  30  48  74 103 133 163 202 251 294
#     4  10  21  36  52  74  98 118 149 186 228 286
#     4  10  21  35  51  70  92 120 154 194 237 282
#     4   9  18  31  47  69  94 122 156 192 233 282
#     4   9  18  33  53  75  99 132 172 208 244 288
#
# _framework density 16.143056000000001
#
# number of rings (size 3 to 8) (size 9 to 14) (size 15 to 20)
#    0.000    2.556    0.000    2.000    1.556    3.222 
#    0.000    2.222    0.000    6.000    0.000    0.000 
#    0.000    0.000    0.000   20.667    0.000    0.222 
#
# Total GULP energy -401068.945186 kJ/mol
# GULP energy per Si atom -5570.402016 kJ/mol
# Density = 1.610631 g / cm^3
# Si number density = 16.143056 Si / 1000 Ang^3
#
#
#
# Elastic Constant Matrix: (Units=GPa)
#
#
# Indices 1 2 3 4 5 6 
#
# 1 97.1039 28.0461 42.9073 0.0000 0.0000 0.0000
# 2 28.0461 97.1038 42.9073 0.0000 0.0000 0.0000
# 3 42.9073 42.9073 56.9260 0.0000 0.0000 0.0000
# 4 0.0000 0.0000 0.0000 13.6227 0.0000 0.0000
# 5 0.0000 0.0000 0.0000 0.0000 13.6235 0.0000
# 6 0.0000 0.0000 0.0000 0.0000 0.0000 10.0414
#
#
#
# Elastic Compliance Matrix: (Units=1/GPa)
#
#
# Indices 1 2 3 4 5 6 
#
# 1 0.015509 0.001029 -0.012465 0.000000 0.000000 0.000000
# 2 0.001029 0.015509 -0.012465 0.000000 0.000000 0.000000
# 3 -0.012465 -0.012465 0.036357 0.000000 0.000000 0.000000
# 4 0.000000 0.000000 0.000000 0.073407 0.000000 0.000000
# 5 0.000000 0.000000 0.000000 0.000000 0.073402 0.000000
# 6 0.000000 0.000000 0.000000 0.000000 0.000000 0.099588
#
#
# Mechanical properties :
#
#
# Convention : Reuss Voigt Hill
#
# Bulk Modulus (GPa) = 51.09207 53.20613 52.14910
# Shear Modulus (GPa) = 13.58327 16.60906 15.09616
#
# Velocity S-wave (km/s) = 2.90389 3.21108 3.06134
# Velocity P-wave (km/s) = 6.55452 6.83950 6.69852
#
# Compressibility (1/GPa) = 0.01957251
#
# Stress axis : x y z
#
# Youngs Moduli (GPa) = 64.47814 64.47807 27.50464
#
# Poissons Ratio (x) = -0.06632 0.34285
# Poissons Ratio (y) = -0.06632 0.34285
# Poissons Ratio (z) = 0.80372 0.80372
#
# Static dielectric constant tensor:
#      x y z
#    x 1.521760 0.000000 0.000000 
#    y 0.000000 1.521760 0.000000 
#    z 0.000000 0.000000 1.549900 
# 
# From -- ./inp_files/7922.got.cif
#   From: 2010.05.17/outbox.cif.g08.bks.cpg/sg123_4_cif.got.tgz:7922.got - 2010.05.20 11:43:04.
