data_PCOD9561863
_publ_section_title
;
Structure prediction by ZEFSAII (Michael W. Deem and Ramdas Pophale) SiO2 
 PCOD9561863
Probable space group: P 4/M M M
;
_chemical_formula_sum "Si O2"
_cell_formula_units_Z 80
_cell_length_a 23.646441
_cell_length_b 23.646441
_cell_length_c 7.774314
_cell_angle_alpha 90.000000
_cell_angle_beta 90.000000
_cell_angle_gamma 90.000000
_cell_volume 4347.040107
_symmetry_space_group_name_H-M "P 4/M M M"
_symmetry_group_IT_number 123
_symmetry_cell_setting 'tetragonal'
loop_
_space_group_symop_operation_xyz
x,y,z
-y,x,z
-x,-y,z
y,-x,z
x,-y,-z
-x,y,-z
y,x,-z
-y,-x,-z
-x,-y,-z
y,-x,-z
x,y,-z
-y,x,-z
-x,y,z
x,-y,z
-y,-x,z
y,x,z
loop_
_atom_site_type_symbol
_atom_site_label
_atom_site_fract_x
_atom_site_fract_y
_atom_site_fract_z
Si Si1 0.060803 0.689041 0.203632
Si Si2 0.727268 0.182540 0.202854
Si Si3 0.591321 0.500000 0.792847
Si Si4 0.396285 0.215372 0.703971
Si Si5 0.437211 0.911941 0.704158
Si Si6 0.717304 0.500000 0.301229
O O1 0.118991 0.716115 0.275836
O O2 0.063324 0.620798 0.222281
O O3 0.000000 0.708094 0.275887
O O4 0.060823 0.700870 0.000000
O O5 0.777363 0.222638 0.274185
O O6 0.666150 0.212686 0.218540
O O7 0.738659 0.175748 0.000000
O O8 0.554368 0.554368 0.746751
O O9 0.650883 0.500000 0.704998
O O10 0.598350 0.500000 0.000000
O O11 0.387283 0.224221 0.500000
O O12 0.427442 0.155121 0.726541
O O13 0.441381 0.259892 0.775061
O O14 0.436976 0.924111 0.500000
O O15 0.500000 0.927770 0.770031
O O16 0.738087 0.500000 0.500000
#
# Coordination Sequence:
#
# PCOD9561863 Si02
#       6
#    16  16   8  16  16   8
#     4   9  18  31  45  63  88 116 146 182 221 259
#     4   9  18  32  48  66  89 117 149 184 220 261
#     4   9  20  38  52  60  76 103 133 169 218 274
#     4   9  17  30  46  65  90 117 144 176 215 257
#     4   9  16  28  45  62  85 118 151 179 209 248
#     4  10  19  31  49  70  89 109 138 178 220 263
#
# _framework density 18.403327000000001
#
# number of rings (size 3 to 8) (size 9 to 14) (size 15 to 20)
#    0.000    2.900    1.000    0.300    0.000    3.600 
#    0.000    6.500    0.000    0.000    0.000    0.000 
#    0.000    0.400    0.000    5.600    0.000    0.000 
#
# Total GULP energy -445567.419213 kJ/mol
# GULP energy per Si atom -5569.592740 kJ/mol
# Density = 1.836144 g / cm^3
# Si number density = 18.403327 Si / 1000 Ang^3
#
#
#
# Elastic Constant Matrix: (Units=GPa)
#
#
# Indices 1 2 3 4 5 6 
#
# 1 117.5593 65.1457 9.7751 0.0000 0.0000 0.0000
# 2 65.1457 117.5593 9.7751 0.0000 0.0000 0.0000
# 3 9.7751 9.7751 19.1645 0.0000 0.0000 0.0000
# 4 0.0000 0.0000 0.0000 24.6138 0.0000 0.0000
# 5 0.0000 0.0000 0.0000 0.0000 24.6138 0.0000
# 6 0.0000 0.0000 0.0000 0.0000 0.0000 3.1457
#
#
#
# Elastic Compliance Matrix: (Units=1/GPa)
#
#
# Indices 1 2 3 4 5 6 
#
# 1 0.012434 -0.006645 -0.002953 0.000000 0.000000 0.000000
# 2 -0.006645 0.012434 -0.002953 0.000000 0.000000 0.000000
# 3 -0.002953 -0.002953 0.055192 0.000000 0.000000 0.000000
# 4 0.000000 0.000000 0.000000 0.040628 0.000000 0.000000
# 5 0.000000 0.000000 0.000000 0.000000 0.040628 0.000000
# 6 0.000000 0.000000 0.000000 0.000000 0.000000 0.317895
#
#
# Mechanical properties :
#
#
# Convention : Reuss Voigt Hill
#
# Bulk Modulus (GPa) = 18.19535 47.07501 32.63518
# Shear Modulus (GPa) = 9.56697 21.78047 15.67372
#
# Velocity S-wave (km/s) = 2.28250 3.44395 2.92152
# Velocity P-wave (km/s) = 4.10546 6.43813 5.39927
#
# Compressibility (1/GPa) = 0.05495910
#
# Stress axis : x y z
#
# Youngs Moduli (GPa) = 80.42365 80.42365 18.11852
#
# Poissons Ratio (x) = 0.53441 0.05350
# Poissons Ratio (y) = 0.53441 0.05350
# Poissons Ratio (z) = 0.23748 0.23748
#
# Static dielectric constant tensor:
#      x y z
#    x 1.657140 0.000000 0.000000 
#    y 0.000000 1.657140 0.000000 
#    z 0.000000 0.000000 1.703250 
# 
# From -- ./inp_files/1512.got.cif
#   From: 2010.05.17/outbox.cif.g08.bks.cpg/sg123_1_cif.got.tgz:1512.got - 2010.05.20 11:43:04.
