data_PCOD9561227
_publ_section_title
;
Structure prediction by ZEFSAII (Michael W. Deem and Ramdas Pophale) SiO2 
 PCOD9561227
Probable space group: I -4 2 D
;
_chemical_formula_sum "Si O2"
_cell_formula_units_Z 52
_cell_length_a 16.305745
_cell_length_b 16.305745
_cell_length_c 9.001376
_cell_angle_alpha 90.000000
_cell_angle_beta 90.000000
_cell_angle_gamma 90.000000
_cell_volume 2393.261727
_symmetry_space_group_name_H-M "I -4 2 D"
_symmetry_group_IT_number 122
_symmetry_cell_setting 'tetragonal'
loop_
_space_group_symop_operation_xyz
x,y,z
y,-x,-z
-x,-y,z
-y,x,-z
x,1/2-y,1/4-z
-x,1/2+y,1/4-z
-y,1/2-x,1/4+z
y,1/2+x,1/4+z
1/2+x,1/2+y,1/2+z
1/2+y,1/2-x,1/2-z
1/2-x,1/2-y,1/2+z
1/2-y,1/2+x,1/2-z
1/2+x,-y,3/4-z
1/2-x,y,3/4-z
1/2-y,-x,3/4+z
1/2+y,x,3/4+z
loop_
_atom_site_type_symbol
_atom_site_label
_atom_site_fract_x
_atom_site_fract_y
_atom_site_fract_z
Si Si1 0.750000 0.042860 0.875000
Si Si2 0.425448 0.842802 0.403446
Si Si3 0.288427 0.655836 0.631218
Si Si4 0.750000 0.627773 0.875000
Si Si5 0.000000 0.000000 0.500000
O O1 0.697875 0.099748 0.761393
O O2 0.808297 0.984591 0.780018
O O3 0.336735 0.869664 0.471476
O O4 0.419130 0.771698 0.276187
O O5 0.466645 0.923574 0.341268
O O6 0.318811 0.750000 0.625000
O O7 0.190335 0.672015 0.622676
#
# Coordination Sequence:
#
# PCOD9561227 Si02
#       5
#     8  16  16   8   4
#     4  12  25  42  77 106 136 194 254 316 367 446
#     4  12  26  46  72 108 151 196 244 304 389 452
#     4  10  23  44  76 102 134 185 257 317 353 432
#     4  10  23  46  77 106 138 190 256 314 357 438
#     4  12  32  44  62 112 168 200 210 304 408 464
#
# _framework density 21.727668999999999
#
# number of rings (size 3 to 8) (size 9 to 14) (size 15 to 20)
#    0.923    0.000    1.538    4.615    4.308    2.462 
#    0.000    0.000    0.000    0.000    0.000    0.000 
#    0.000    0.000    0.000    0.000    0.000    0.000 
#
# Total GULP energy -144844.398530 kJ/mol
# GULP energy per Si atom -5570.938405 kJ/mol
# Density = 2.167822 g / cm^3
# Si number density = 21.727669 Si / 1000 Ang^3
#
#
#
# Elastic Constant Matrix: (Units=GPa)
#
#
# Indices 1 2 3 4 5 6 
#
# 1 89.9829 48.6692 62.9559 0.0000 0.0000 0.0000
# 2 48.6692 89.9829 62.9559 0.0000 0.0000 0.0000
# 3 62.9559 62.9559 149.2360 0.0000 0.0000 0.0000
# 4 0.0000 0.0000 0.0000 66.1878 0.0000 0.0000
# 5 0.0000 0.0000 0.0000 0.0000 66.1878 0.0000
# 6 0.0000 0.0000 0.0000 0.0000 0.0000 11.5898
#
#
#
# Elastic Compliance Matrix: (Units=1/GPa)
#
#
# Indices 1 2 3 4 5 6 
#
# 1 0.017948 -0.006257 -0.004932 0.000000 0.000000 0.000000
# 2 -0.006257 0.017948 -0.004932 0.000000 0.000000 0.000000
# 3 -0.004932 -0.004932 0.010862 0.000000 0.000000 0.000000
# 4 0.000000 0.000000 0.000000 0.015109 0.000000 0.000000
# 5 0.000000 0.000000 0.000000 0.000000 0.015109 0.000000
# 6 0.000000 0.000000 0.000000 0.000000 0.000000 0.086283
#
#
# Mechanical properties :
#
#
# Convention : Reuss Voigt Hill
#
# Bulk Modulus (GPa) = 68.88806 75.37375 72.13090
# Shear Modulus (GPa) = 24.95776 39.10114 32.02945
#
# Velocity S-wave (km/s) = 3.39287 4.24677 3.84361
# Velocity P-wave (km/s) = 6.86461 7.66892 7.27788
#
# Compressibility (1/GPa) = 0.01451630
#
# Stress axis : x y z
#
# Youngs Moduli (GPa) = 55.71644 55.71644 92.06491
#
# Poissons Ratio (x) = 0.34862 0.45406
# Poissons Ratio (y) = 0.34862 0.45406
# Poissons Ratio (z) = 0.27479 0.27479
#
# Static dielectric constant tensor:
#      x y z
#    x 1.884850 0.000000 0.000000 
#    y 0.000000 1.884850 0.000000 
#    z 0.000000 0.000000 1.927820 
# 
# From -- ./inp_files/2223.got.cif
#   From: 2010.05.17/outbox.cif.g08.bks.cpg/sg122_2_cif.got.tgz:2223.got - 2010.05.20 11:37:33.
