data_PCOD9561380
_publ_section_title
;
Structure prediction by ZEFSAII (Michael W. Deem and Ramdas Pophale) SiO2 
 PCOD9561380
Probable space group: I -4 2 D
;
_chemical_formula_sum "Si O2"
_cell_formula_units_Z 112
_cell_length_a 13.519770
_cell_length_b 13.519770
_cell_length_c 23.631257
_cell_angle_alpha 90.000000
_cell_angle_beta 90.000000
_cell_angle_gamma 90.000000
_cell_volume 4319.419953
_symmetry_space_group_name_H-M "I -4 2 D"
_symmetry_group_IT_number 122
_symmetry_cell_setting 'tetragonal'
loop_
_space_group_symop_operation_xyz
x,y,z
y,-x,-z
-x,-y,z
-y,x,-z
x,1/2-y,1/4-z
-x,1/2+y,1/4-z
-y,1/2-x,1/4+z
y,1/2+x,1/4+z
1/2+x,1/2+y,1/2+z
1/2+y,1/2-x,1/2-z
1/2-x,1/2-y,1/2+z
1/2-y,1/2+x,1/2-z
1/2+x,-y,3/4-z
1/2-x,y,3/4-z
1/2-y,-x,3/4+z
1/2+y,x,3/4+z
loop_
_atom_site_type_symbol
_atom_site_label
_atom_site_fract_x
_atom_site_fract_y
_atom_site_fract_z
Si Si1 0.367096 0.276519 0.298562
Si Si2 0.419496 0.806443 0.678351
Si Si3 0.987590 0.190979 0.941527
Si Si4 0.064671 0.402181 0.963725
Si Si5 0.605750 0.942689 0.346563
Si Si6 0.200715 0.633001 0.815370
Si Si7 0.172977 0.416779 0.075125
O O1 0.268149 0.326843 0.319000
O O2 0.384217 0.164285 0.318544
O O3 0.351375 0.280444 0.232050
O O4 0.466390 0.334149 0.313212
O O5 0.475268 0.750000 0.625000
O O6 0.467681 0.815577 0.741174
O O7 0.373656 0.916347 0.674012
O O8 0.907169 0.159066 0.893369
O O9 0.009578 0.308314 0.935468
O O10 0.107468 0.370382 0.024759
O O11 0.000000 0.500000 0.973280
O O12 0.138970 0.431180 0.912361
O O13 0.500000 0.000000 0.350818
O O14 0.662958 0.022305 0.309701
O O15 0.250000 0.645021 0.875000
O O16 0.117366 0.715933 0.811448
#
# Coordination Sequence:
#
# PCOD9561380 Si02
#       7
#    16  16  16  16  16  16  16
#     4  12  23  43  73 101 145 196 248 305 383 455
#     4  12  27  51  80 107 148 198 251 332 400 470
#     4  12  27  50  74 112 148 189 262 317 390 487
#     4  11  23  43  73 104 143 192 250 315 387 464
#     4  11  22  42  66 102 150 195 253 313 373 469
#     4  12  25  38  61 102 146 190 243 303 372 453
#     4  12  23  45  70  99 143 191 240 306 379 455
#
# _framework density 25.929406
#
# number of rings (size 3 to 8) (size 9 to 14) (size 15 to 20)
#    0.000    0.286    4.286    5.143    0.000    3.143 
#    0.000    0.714    0.000    0.000    0.000    0.000 
#    0.000    0.000    0.000    0.000    0.000    0.000 
#
# Total GULP energy -312937.388574 kJ/mol
# GULP energy per Si atom -5588.167653 kJ/mol
# Density = 2.587039 g / cm^3
# Si number density = 25.929406 Si / 1000 Ang^3
#
#
#
# Elastic Constant Matrix: (Units=GPa)
#
#
# Indices 1 2 3 4 5 6 
#
# 1 24.1154 17.9727 5.0123 0.0000 0.0000 0.0000
# 2 17.9727 24.1154 5.0123 0.0000 0.0000 0.0000
# 3 5.0123 5.0123 191.0877 0.0000 0.0000 0.0000
# 4 0.0000 0.0000 0.0000 35.5818 0.0000 0.0000
# 5 0.0000 0.0000 0.0000 0.0000 35.5818 0.0000
# 6 0.0000 0.0000 0.0000 0.0000 0.0000 17.0118
#
#
#
# Elastic Compliance Matrix: (Units=1/GPa)
#
#
# Indices 1 2 3 4 5 6 
#
# 1 0.093352 -0.069443 -0.000627 0.000000 0.000000 0.000000
# 2 -0.069443 0.093352 -0.000627 0.000000 0.000000 0.000000
# 3 -0.000627 -0.000627 0.005266 0.000000 0.000000 0.000000
# 4 0.000000 0.000000 0.000000 0.028104 0.000000 0.000000
# 5 0.000000 0.000000 0.000000 0.000000 0.028104 0.000000
# 6 0.000000 0.000000 0.000000 0.000000 0.000000 0.058783
#
#
# Mechanical properties :
#
#
# Convention : Reuss Voigt Hill
#
# Bulk Modulus (GPa) = 19.77238 32.81257 26.29248
# Shear Modulus (GPa) = 10.74771 31.72317 21.23544
#
# Velocity S-wave (km/s) = 2.03813 3.50157 2.86487
# Velocity P-wave (km/s) = 3.63052 5.38795 4.59406
#
# Compressibility (1/GPa) = 0.05057560
#
# Stress axis : x y z
#
# Youngs Moduli (GPa) = 10.71211 10.71211 189.89384
#
# Poissons Ratio (x) = 0.74388 0.11909
# Poissons Ratio (y) = 0.74388 0.11909
# Poissons Ratio (z) = 0.00672 0.00672
#
# Static dielectric constant tensor:
#      x y z
#    x 2.085770 0.000000 0.000000 
#    y 0.000000 2.085770 0.000000 
#    z 0.000000 0.000000 2.123590 
# 
# From -- ./inp_files/8121.got.cif
#   From: 2010.05.17/outbox.cif.g08.bks.cpg/sg122_5_cif.got.tgz:8121.got - 2010.05.20 11:37:33.
