data_PCOD9561648
_publ_section_title
;
Structure prediction by ZEFSAII (Michael W. Deem and Ramdas Pophale) SiO2 
 PCOD9561648
Probable space group: P 4/M M M
;
_chemical_formula_sum "Si O2"
_cell_formula_units_Z 112
_cell_length_a 20.692993
_cell_length_b 20.692993
_cell_length_c 18.776612
_cell_angle_alpha 90.000000
_cell_angle_beta 90.000000
_cell_angle_gamma 90.000000
_cell_volume 8040.144494
_symmetry_space_group_name_H-M "P 4/M M M"
_symmetry_group_IT_number 123
_symmetry_cell_setting 'tetragonal'
loop_
_space_group_symop_operation_xyz
x,y,z
-y,x,z
-x,-y,z
y,-x,z
x,-y,-z
-x,y,-z
y,x,-z
-y,-x,-z
-x,-y,-z
y,-x,-z
x,y,-z
-y,x,-z
-x,y,z
x,-y,z
-y,-x,z
y,x,z
loop_
_atom_site_type_symbol
_atom_site_label
_atom_site_fract_x
_atom_site_fract_y
_atom_site_fract_z
Si Si1 0.924263 0.180249 0.917461
Si Si2 0.925205 0.500000 0.678625
Si Si3 0.359258 0.073204 0.723464
Si Si4 0.261235 0.637397 0.414518
Si Si5 0.242941 0.859989 0.215277
Si Si6 0.696163 0.122357 0.419179
Si Si7 0.796136 0.500000 0.413506
Si Si8 0.076216 0.822257 0.352408
O O1 0.888829 0.111172 0.909695
O O2 0.888701 0.226518 0.861741
O O3 0.000000 0.176357 0.901717
O O4 0.916326 0.200264 0.000000
O O5 0.917971 0.435621 0.725554
O O6 0.867919 0.500000 0.620323
O O7 0.000000 0.500000 0.650862
O O8 0.316867 0.126330 0.764445
O O9 0.340895 0.080921 0.640006
O O10 0.341875 0.000000 0.746299
O O11 0.269494 0.632445 0.500000
O O12 0.323855 0.676146 0.386341
O O13 0.197232 0.680794 0.403224
O O14 0.242084 0.565084 0.390744
O O15 0.211482 0.788519 0.220422
O O16 0.204579 0.901989 0.274920
O O17 0.675888 0.108997 0.500000
O O18 0.771023 0.106693 0.407301
O O19 0.801522 0.500000 0.500000
O O20 0.108742 0.891259 0.362461
O O21 0.000000 0.822387 0.358441
#
# Coordination Sequence:
#
# PCOD9561648 Si02
#       8
#    16   8  16  16  16  16   8  16
#     4   9  16  25  39  60  85 111 137 167 204 245
#     4  10  20  31  40  58  84 107 134 163 202 256
#     4  10  19  30  43  58  81 109 134 162 202 250
#     4   9  17  28  43  60  77 100 126 153 192 239
#     4   9  17  30  45  61  81 103 134 170 200 237
#     4  10  18  29  44  58  75  96 128 169 205 241
#     4  10  18  31  44  59  86 107 126 165 206 246
#     4  10  20  31  42  55  72  98 132 172 213 249
#
# _framework density 13.930097
#
# number of rings (size 3 to 8) (size 9 to 14) (size 15 to 20)
#    0.000    2.429    1.429    3.000    0.000    3.000 
#    0.000    2.143    0.000    2.786    0.000    3.000 
#    0.000    2.857    0.000    0.000    0.000    0.000 
#
# Total GULP energy -623613.495794 kJ/mol
# GULP energy per Si atom -5567.977641 kJ/mol
# Density = 1.389839 g / cm^3
# Si number density = 13.930097 Si / 1000 Ang^3
#
#
#
# Elastic Constant Matrix: (Units=GPa)
#
#
# Indices 1 2 3 4 5 6 
#
# 1 78.7501 49.1832 11.5066 0.0000 0.0000 0.0000
# 2 49.1832 78.7501 11.5066 0.0000 0.0000 0.0000
# 3 11.5066 11.5066 31.5103 0.0000 0.0000 0.0000
# 4 0.0000 0.0000 0.0000 7.2228 0.0000 0.0000
# 5 0.0000 0.0000 0.0000 0.0000 7.2228 0.0000
# 6 0.0000 0.0000 0.0000 0.0000 0.0000 18.7369
#
#
#
# Elastic Compliance Matrix: (Units=1/GPa)
#
#
# Indices 1 2 3 4 5 6 
#
# 1 0.021094 -0.012728 -0.003055 0.000000 0.000000 0.000000
# 2 -0.012728 0.021094 -0.003055 0.000000 0.000000 0.000000
# 3 -0.003055 -0.003055 0.033967 0.000000 0.000000 0.000000
# 4 0.000000 0.000000 0.000000 0.138451 0.000000 0.000000
# 5 0.000000 0.000000 0.000000 0.000000 0.138451 0.000000
# 6 0.000000 0.000000 0.000000 0.000000 0.000000 0.053370
#
#
# Mechanical properties :
#
#
# Convention : Reuss Voigt Hill
#
# Bulk Modulus (GPa) = 25.98827 37.04483 31.51655
# Shear Modulus (GPa) = 10.94264 14.42411 12.68338
#
# Velocity S-wave (km/s) = 2.80579 3.22135 3.02073
# Velocity P-wave (km/s) = 5.40308 6.36296 5.90257
#
# Compressibility (1/GPa) = 0.03847889
#
# Stress axis : x y z
#
# Youngs Moduli (GPa) = 47.40718 47.40718 29.44045
#
# Poissons Ratio (x) = 0.60339 0.08994
# Poissons Ratio (y) = 0.60339 0.08994
# Poissons Ratio (z) = 0.14483 0.14483
#
# Static dielectric constant tensor:
#      x y z
#    x 1.478540 0.000000 0.000000 
#    y 0.000000 1.478540 0.000000 
#    z 0.000000 0.000000 1.454770 
# 
# From -- ./inp_files/5953.got.cif
#   From: 2010.05.17/outbox.cif.g08.bks.cpg/sg123_3_cif.got.tgz:5953.got - 2010.05.20 11:43:04.
