data_PCOD9561182
_publ_section_title
;
Structure prediction by ZEFSAII (Michael W. Deem and Ramdas Pophale) SiO2 
 PCOD9561182
Probable space group: I -4 2 D
;
_chemical_formula_sum "Si O2"
_cell_formula_units_Z 64
_cell_length_a 10.921405
_cell_length_b 10.921405
_cell_length_c 25.948937
_cell_angle_alpha 90.000000
_cell_angle_beta 90.000000
_cell_angle_gamma 90.000000
_cell_volume 3095.113621
_symmetry_space_group_name_H-M "I -4 2 D"
_symmetry_group_IT_number 122
_symmetry_cell_setting 'tetragonal'
loop_
_space_group_symop_operation_xyz
x,y,z
y,-x,-z
-x,-y,z
-y,x,-z
x,1/2-y,1/4-z
-x,1/2+y,1/4-z
-y,1/2-x,1/4+z
y,1/2+x,1/4+z
1/2+x,1/2+y,1/2+z
1/2+y,1/2-x,1/2-z
1/2-x,1/2-y,1/2+z
1/2-y,1/2+x,1/2-z
1/2+x,-y,3/4-z
1/2-x,y,3/4-z
1/2-y,-x,3/4+z
1/2+y,x,3/4+z
loop_
_atom_site_type_symbol
_atom_site_label
_atom_site_fract_x
_atom_site_fract_y
_atom_site_fract_z
Si Si1 0.432308 0.126277 0.484828
Si Si2 0.538545 0.144052 0.588507
Si Si3 0.170083 0.454768 0.722977
Si Si4 0.313918 0.883206 0.127536
O O1 0.420648 0.197903 0.431814
O O2 0.500000 0.000000 0.470607
O O3 0.487912 0.816715 0.530179
O O4 0.303348 0.096274 0.513036
O O5 0.482957 0.250000 0.625000
O O6 0.682431 0.143299 0.597817
O O7 0.500000 0.000000 0.595564
O O8 0.069583 0.355373 0.739152
O O9 0.144376 0.508147 0.665793
O O10 0.381613 0.750000 0.125000
#
# Coordination Sequence:
#
# PCOD9561182 Si02
#       4
#    16  16  16  16
#     4  11  23  42  67  95 135 180 220 285 347 404
#     4  10  22  46  66  95 138 176 230 286 342 420
#     4  11  23  42  66  97 133 174 232 281 340 421
#     4  11  22  42  66  95 135 177 223 286 341 407
#
# _framework density 20.677754
#
# number of rings (size 3 to 8) (size 9 to 14) (size 15 to 20)
#    0.000    1.250    7.500    0.000    3.500    0.000 
#   13.500    0.000    0.000    0.000    0.000    0.000 
#    0.000    0.000    0.000    0.000    0.000    0.000 
#
# Total GULP energy -178263.434193 kJ/mol
# GULP energy per Si atom -5570.732319 kJ/mol
# Density = 2.063069 g / cm^3
# Si number density = 20.677754 Si / 1000 Ang^3
#
#
#
# Elastic Constant Matrix: (Units=GPa)
#
#
# Indices 1 2 3 4 5 6 
#
# 1 55.9342 -21.6310 34.7306 0.0000 0.0000 0.0000
# 2 -21.6310 55.9342 34.7306 0.0000 0.0000 0.0000
# 3 34.7306 34.7306 212.8949 0.0000 0.0000 0.0000
# 4 0.0000 0.0000 0.0000 -223.4225 0.0000 0.0000
# 5 0.0000 0.0000 0.0000 0.0000 -223.4225 0.0000
# 6 0.0000 0.0000 0.0000 0.0000 0.0000 17.6531
#
#
#
# Elastic Compliance Matrix: (Units=1/GPa)
#
#
# Indices 1 2 3 4 5 6 
#
# 1 0.028212 0.015320 -0.007102 0.000000 0.000000 0.000000
# 2 0.015320 0.028212 -0.007102 0.000000 0.000000 0.000000
# 3 -0.007102 -0.007102 0.007014 0.000000 0.000000 0.000000
# 4 0.000000 0.000000 0.000000 -0.004476 0.000000 0.000000
# 5 0.000000 0.000000 0.000000 0.000000 -0.004476 0.000000
# 6 0.000000 0.000000 0.000000 0.000000 0.000000 0.056647
#
#
# Mechanical properties :
#
#
# Convention : Reuss Voigt Hill
#
# Bulk Modulus (GPa) = 15.22729 46.71374 30.97052
# Shear Modulus (GPa) = 38.22887 -67.37615 -14.57364
#
# Velocity S-wave (km/s) = 4.30442 -5.71442 -2.65768
# Velocity P-wave (km/s) = 5.66429 4.57156 2.36485
#
# Compressibility (1/GPa) = 0.06567155
#
# Stress axis : x y z
#
# Youngs Moduli (GPa) = 35.44581 35.44581 142.56849
#
# Poissons Ratio (x) = -0.54302 1.01246
# Poissons Ratio (y) = -0.54302 1.01246
# Poissons Ratio (z) = 0.25172 0.25172
#
# Static dielectric constant tensor:
#      x y z
#    x 1.870130 0.000000 0.000000 
#    y 0.000000 1.870130 0.000000 
#    z 0.000000 0.000000 1.776900 
# 
# From -- ./inp_files/7861.got.cif
#   From: 2010.05.17/outbox.cif.g08.bks.cpg/sg122_4_cif.got.tgz:7861.got - 2010.05.20 11:37:33.
