data_PCOD9561815
_publ_section_title
;
Structure prediction by ZEFSAII (Michael W. Deem and Ramdas Pophale) SiO2 
 PCOD9561815
Probable space group: P 4/M M M
;
_chemical_formula_sum "Si O2"
_cell_formula_units_Z 56
_cell_length_a 18.749525
_cell_length_b 18.749525
_cell_length_c 7.270329
_cell_angle_alpha 90.000000
_cell_angle_beta 90.000000
_cell_angle_gamma 90.000000
_cell_volume 2555.845538
_symmetry_space_group_name_H-M "P 4/M M M"
_symmetry_group_IT_number 123
_symmetry_cell_setting 'tetragonal'
loop_
_space_group_symop_operation_xyz
x,y,z
-y,x,z
-x,-y,z
y,-x,z
x,-y,-z
-x,y,-z
y,x,-z
-y,-x,-z
-x,-y,-z
y,-x,-z
x,y,-z
-y,x,-z
-x,y,z
x,-y,z
-y,-x,z
y,x,z
loop_
_atom_site_type_symbol
_atom_site_label
_atom_site_fract_x
_atom_site_fract_y
_atom_site_fract_z
Si Si1 0.855946 0.348937 0.275828
Si Si2 0.000000 0.277887 0.291797
Si Si3 0.698649 0.698649 0.724739
Si Si4 0.082930 0.500000 0.723043
Si Si5 0.581829 0.418172 0.276382
Si Si6 0.000000 0.885569 0.222063
O O1 0.853604 0.345661 0.500000
O O2 0.778555 0.322145 0.215601
O O3 0.874917 0.429448 0.221824
O O4 0.924837 0.303915 0.212322
O O5 0.000000 0.307673 0.500000
O O6 0.000000 0.193340 0.294529
O O7 0.698221 0.698221 0.500000
O O8 0.639961 0.639961 0.782676
O O9 0.080428 0.500000 0.500000
O O10 0.000000 0.500000 0.783649
O O11 0.598204 0.500000 0.220992
O O12 0.582311 0.417690 0.500000
O O13 0.931131 0.931131 0.277935
O O14 0.000000 0.882400 0.000000
#
# Coordination Sequence:
#
# PCOD9561815 Si02
#       6
#    16   8   8   8   8   8
#     4   9  17  26  37  58  87 117 150 186 227 276
#     4  10  19  30  47  72  99 122 144 186 240 278
#     4   9  17  24  33  50  76 108 143 188 235 270
#     4   9  14  24  38  52  77 117 155 181 216 271
#     4   8  14  23  32  44  66 104 156 199 225 260
#     4   9  20  38  55  69  88 120 160 193 222 270
#
# _framework density 21.910558999999999
#
# number of rings (size 3 to 8) (size 9 to 14) (size 15 to 20)
#    0.000    3.000    1.429    0.857    4.000    0.571 
#    0.000    0.714    0.000    0.000    0.000    2.000 
#    0.000    0.000    0.000    0.000    0.000    0.000 
#
# Total GULP energy -312676.029667 kJ/mol
# GULP energy per Si atom -5583.500530 kJ/mol
# Density = 2.186069 g / cm^3
# Si number density = 21.910559 Si / 1000 Ang^3
#
#
#
# Elastic Constant Matrix: (Units=GPa)
#
#
# Indices 1 2 3 4 5 6 
#
# 1 235.6015 157.8246 5.0584 0.0000 0.0000 0.0000
# 2 157.8246 235.6016 5.0584 0.0000 0.0000 0.0000
# 3 5.0584 5.0584 93.8991 0.0000 0.0000 0.0000
# 4 0.0000 0.0000 0.0000 -9.7015 0.0000 0.0000
# 5 0.0000 0.0000 0.0000 0.0000 -9.7015 0.0000
# 6 0.0000 0.0000 0.0000 0.0000 0.0000 -2.9395
#
#
#
# Elastic Compliance Matrix: (Units=1/GPa)
#
#
# Indices 1 2 3 4 5 6 
#
# 1 0.007701 -0.005156 -0.000137 0.000000 0.000000 0.000000
# 2 -0.005156 0.007701 -0.000137 0.000000 0.000000 0.000000
# 3 -0.000137 -0.000137 0.010665 0.000000 0.000000 0.000000
# 4 0.000000 0.000000 0.000000 -0.103077 0.000000 0.000000
# 5 0.000000 0.000000 0.000000 0.000000 -0.103077 0.000000
# 6 0.000000 0.000000 0.000000 0.000000 0.000000 -0.340193
#
#
# Mechanical properties :
#
#
# Convention : Reuss Voigt Hill
#
# Bulk Modulus (GPa) = 65.76075 100.10943 82.93509
# Shear Modulus (GPa) = -9.91374 22.00889 6.04758
#
# Velocity S-wave (km/s) = -2.12943 3.17280 1.66316
# Velocity P-wave (km/s) = 4.90229 7.69490 6.45151
#
# Compressibility (1/GPa) = 0.01520664
#
# Stress axis : x y z
#
# Youngs Moduli (GPa) = 129.84834 129.84840 93.76901
#
# Poissons Ratio (x) = 0.66950 0.01286
# Poissons Ratio (y) = 0.66950 0.01286
# Poissons Ratio (z) = 0.01780 0.01780
#
# Static dielectric constant tensor:
#      x y z
#    x 1.747410 0.000000 0.000000 
#    y 0.000000 1.747410 0.000000 
#    z 0.000000 0.000000 1.857410 
# 
# From -- ./inp_files/671.got.cif
#   From: 2010.05.17/outbox.cif.g08.bks.cpg/sg123_1_cif.got.tgz:671.got - 2010.05.20 11:43:04.
