data_PCOD9561947
_publ_section_title
;
Structure prediction by ZEFSAII (Michael W. Deem and Ramdas Pophale) SiO2 
 PCOD9561947
Probable space group: P 4/M M M
;
_chemical_formula_sum "Si O2"
_cell_formula_units_Z 72
_cell_length_a 21.356483
_cell_length_b 21.356483
_cell_length_c 7.614583
_cell_angle_alpha 90.000000
_cell_angle_beta 90.000000
_cell_angle_gamma 90.000000
_cell_volume 3473.006480
_symmetry_space_group_name_H-M "P 4/M M M"
_symmetry_group_IT_number 123
_symmetry_cell_setting 'tetragonal'
loop_
_space_group_symop_operation_xyz
x,y,z
-y,x,z
-x,-y,z
y,-x,z
x,-y,-z
-x,y,-z
y,x,-z
-y,-x,-z
-x,-y,-z
y,-x,-z
x,y,-z
-y,x,-z
-x,y,z
x,-y,z
-y,-x,z
y,x,z
loop_
_atom_site_type_symbol
_atom_site_label
_atom_site_fract_x
_atom_site_fract_y
_atom_site_fract_z
Si Si1 0.430826 0.331033 0.210760
Si Si2 0.234297 0.334361 0.289634
Si Si3 0.904598 0.317802 0.711820
Si Si4 0.828325 0.930449 0.210570
Si Si5 0.426032 0.000000 0.285600
O O1 0.500000 0.338758 0.280985
O O2 0.382956 0.382956 0.280794
O O3 0.401276 0.264051 0.250823
O O4 0.432818 0.337561 0.000000
O O5 0.231670 0.327262 0.500000
O O6 0.282543 0.282543 0.219608
O O7 0.165574 0.324683 0.220089
O O8 0.906113 0.320668 0.500000
O O9 0.924863 0.246487 0.754058
O O10 0.943078 0.379530 0.769383
O O11 0.872784 0.872784 0.275626
O O12 0.848198 0.000000 0.274427
O O13 0.834506 0.930271 0.000000
O O14 0.500000 0.000000 0.228246
O O15 0.428980 0.000000 0.500000
#
# Coordination Sequence:
#
# PCOD9561947 Si02
#       5
#    16  16  16  16   8
#     4   9  18  32  49  70  97 129 166 209 257 309
#     4   9  18  31  48  72  99 128 166 211 256 303
#     4  10  19  34  56  79 104 137 177 219 263 312
#     4  10  21  36  55  80 110 145 183 223 268 318
#     4   9  18  32  51  77 106 135 170 212 259 311
#
# _framework density 20.731317000000001
#
# number of rings (size 3 to 8) (size 9 to 14) (size 15 to 20)
#    0.000    2.556    1.111    0.667    0.000    4.000 
#    0.000    6.667    0.000    1.333    0.000    4.667 
#    0.000    0.000    0.000    0.000    0.000    0.000 
#
# Total GULP energy -401135.927985 kJ/mol
# GULP energy per Si atom -5571.332333 kJ/mol
# Density = 2.068413 g / cm^3
# Si number density = 20.731317 Si / 1000 Ang^3
#
#
#
# Elastic Constant Matrix: (Units=GPa)
#
#
# Indices 1 2 3 4 5 6 
#
# 1 151.6241 88.2147 3.5278 0.0000 0.0000 0.0000
# 2 88.2147 151.6241 3.5278 0.0000 0.0000 0.0000
# 3 3.5278 3.5278 43.6010 0.0000 0.0000 0.0000
# 4 0.0000 0.0000 0.0000 11.0669 0.0000 0.0000
# 5 0.0000 0.0000 0.0000 0.0000 11.0669 0.0000
# 6 0.0000 0.0000 0.0000 0.0000 0.0000 13.5293
#
#
#
# Elastic Compliance Matrix: (Units=1/GPa)
#
#
# Indices 1 2 3 4 5 6 
#
# 1 0.009975 -0.005796 -0.000338 0.000000 0.000000 0.000000
# 2 -0.005796 0.009975 -0.000338 0.000000 0.000000 0.000000
# 3 -0.000338 -0.000338 0.022990 0.000000 0.000000 0.000000
# 4 0.000000 0.000000 0.000000 0.090360 0.000000 0.000000
# 5 0.000000 0.000000 0.000000 0.000000 0.090360 0.000000
# 6 0.000000 0.000000 0.000000 0.000000 0.000000 0.073914
#
#
# Mechanical properties :
#
#
# Convention : Reuss Voigt Hill
#
# Bulk Modulus (GPa) = 33.33764 59.71000 46.52382
# Shear Modulus (GPa) = 15.59988 23.90454 19.75221
#
# Velocity S-wave (km/s) = 2.74611 3.39936 3.09005
# Velocity P-wave (km/s) = 5.11572 6.65372 5.93475
#
# Compressibility (1/GPa) = 0.02999612
#
# Stress axis : x y z
#
# Youngs Moduli (GPa) = 100.25084 100.25084 43.49727
#
# Poissons Ratio (x) = 0.58101 0.01471
# Poissons Ratio (y) = 0.58101 0.01471
# Poissons Ratio (z) = 0.03390 0.03390
#
# Static dielectric constant tensor:
#      x y z
#    x 1.751020 0.000000 0.000000 
#    y 0.000000 1.751020 0.000000 
#    z 0.000000 0.000000 1.782770 
# 
# From -- ./inp_files/1059.got.cif
#   From: 2010.05.17/outbox.cif.g08.bks.cpg/sg123_1_cif.got.tgz:1059.got - 2010.05.20 11:43:04.
