data_PCOD9561646
_publ_section_title
;
Structure prediction by ZEFSAII (Michael W. Deem and Ramdas Pophale) SiO2 
 PCOD9561646
Probable space group: P 4/M M M
;
_chemical_formula_sum "Si O2"
_cell_formula_units_Z 64
_cell_length_a 20.501457
_cell_length_b 20.501457
_cell_length_c 7.857442
_cell_angle_alpha 90.000000
_cell_angle_beta 90.000000
_cell_angle_gamma 90.000000
_cell_volume 3302.559397
_symmetry_space_group_name_H-M "P 4/M M M"
_symmetry_group_IT_number 123
_symmetry_cell_setting 'tetragonal'
loop_
_space_group_symop_operation_xyz
x,y,z
-y,x,z
-x,-y,z
y,-x,z
x,-y,-z
-x,y,-z
y,x,-z
-y,-x,-z
-x,-y,-z
y,-x,-z
x,y,-z
-y,x,-z
-x,y,z
x,-y,z
-y,-x,z
y,x,z
loop_
_atom_site_type_symbol
_atom_site_label
_atom_site_fract_x
_atom_site_fract_y
_atom_site_fract_z
Si Si1 0.359083 0.106539 0.794804
Si Si2 0.095301 0.500000 0.195035
Si Si3 0.744106 0.360189 0.794497
Si Si4 0.000000 0.894268 0.707939
Si Si5 0.500000 0.242113 0.302199
Si Si6 0.000000 0.254382 0.702194
O O1 0.429043 0.079073 0.729073
O O2 0.351090 0.181121 0.734856
O O3 0.297689 0.062169 0.753152
O O4 0.365174 0.108109 0.000000
O O5 0.174486 0.500000 0.197103
O O6 0.072311 0.500000 0.000000
O O7 0.695636 0.304365 0.732335
O O8 0.722745 0.432619 0.740682
O O9 0.745008 0.357865 0.000000
O O10 0.936546 0.936546 0.759301
O O11 0.000000 0.893340 0.500000
O O12 0.000000 0.819740 0.769964
O O13 0.500000 0.224169 0.500000
O O14 0.000000 0.249181 0.500000
#
# Coordination Sequence:
#
# PCOD9561646 Si02
#       6
#    16   8  16   8   8   8
#     4   9  18  33  51  71  97 131 169 206 243 286
#     4   8  16  33  53  68  90 133 181 208 229 281
#     4   9  18  34  55  75  97 132 176 212 244 294
#     4   8  16  34  56  71  87 121 166 201 234 289
#     4  10  18  28  47  76 107 134 162 204 258 304
#     4  11  22  32  47  76 106 127 154 202 258 303
#
# _framework density 19.378910000000001
#
# number of rings (size 3 to 8) (size 9 to 14) (size 15 to 20)
#    0.000    2.875    0.000    3.375    0.000    6.000 
#    0.000    2.500    0.000    2.625    0.000    6.125 
#    0.000    0.000    0.000    0.000    0.000    0.000 
#
# Total GULP energy -356735.228880 kJ/mol
# GULP energy per Si atom -5573.987951 kJ/mol
# Density = 1.933480 g / cm^3
# Si number density = 19.378910 Si / 1000 Ang^3
#
#
#
# Elastic Constant Matrix: (Units=GPa)
#
#
# Indices 1 2 3 4 5 6 
#
# 1 169.5002 101.3995 9.7316 0.0000 0.0000 0.0000
# 2 101.3995 169.5002 9.7316 0.0000 0.0000 0.0000
# 3 9.7316 9.7316 30.9519 0.0000 0.0000 0.0000
# 4 0.0000 0.0000 0.0000 -461.3891 0.0000 0.0000
# 5 0.0000 0.0000 0.0000 0.0000 -461.3891 0.0000
# 6 0.0000 0.0000 0.0000 0.0000 0.0000 46.4648
#
#
#
# Elastic Compliance Matrix: (Units=1/GPa)
#
#
# Indices 1 2 3 4 5 6 
#
# 1 0.009230 -0.005454 -0.001187 0.000000 0.000000 0.000000
# 2 -0.005454 0.009230 -0.001187 0.000000 0.000000 0.000000
# 3 -0.001187 -0.001187 0.033055 0.000000 0.000000 0.000000
# 4 0.000000 0.000000 0.000000 -0.002167 0.000000 0.000000
# 5 0.000000 0.000000 0.000000 0.000000 -0.002167 0.000000
# 6 0.000000 0.000000 0.000000 0.000000 0.000000 0.021522
#
#
# Mechanical properties :
#
#
# Convention : Reuss Voigt Hill
#
# Bulk Modulus (GPa) = 27.88733 67.96418 47.92576
# Shear Modulus (GPa) = 51.91422 -158.65671 -53.37125
#
# Velocity S-wave (km/s) = 5.18143 -9.05807 -5.25364
# Velocity P-wave (km/s) = 7.08647 8.61689 3.46646
#
# Compressibility (1/GPa) = 0.03585858
#
# Stress axis : x y z
#
# Youngs Moduli (GPa) = 108.33737 108.33737 30.25270
#
# Poissons Ratio (x) = 0.59084 0.03592
# Poissons Ratio (y) = 0.59084 0.03592
# Poissons Ratio (z) = 0.12864 0.12864
#
# Static dielectric constant tensor:
#      x y z
#    x 1.690260 0.000000 0.000000 
#    y 0.000000 1.690260 0.000000 
#    z 0.000000 0.000000 1.711990 
# 
# From -- ./inp_files/1011.got.cif
#   From: 2010.05.17/outbox.cif.g08.bks.cpg/sg123_1_cif.got.tgz:1011.got - 2010.05.20 11:43:04.
