data_PCOD9561194
_publ_section_title
;
Structure prediction by ZEFSAII (Michael W. Deem and Ramdas Pophale) SiO2 
 PCOD9561194
Probable space group: I -4 2 D
;
_chemical_formula_sum "Si O2"
_cell_formula_units_Z 88
_cell_length_a 17.599956
_cell_length_b 17.599956
_cell_length_c 15.127155
_cell_angle_alpha 90.000000
_cell_angle_beta 90.000000
_cell_angle_gamma 90.000000
_cell_volume 4685.764104
_symmetry_space_group_name_H-M "I -4 2 D"
_symmetry_group_IT_number 122
_symmetry_cell_setting 'tetragonal'
loop_
_space_group_symop_operation_xyz
x,y,z
y,-x,-z
-x,-y,z
-y,x,-z
x,1/2-y,1/4-z
-x,1/2+y,1/4-z
-y,1/2-x,1/4+z
y,1/2+x,1/4+z
1/2+x,1/2+y,1/2+z
1/2+y,1/2-x,1/2-z
1/2-x,1/2-y,1/2+z
1/2-y,1/2+x,1/2-z
1/2+x,-y,3/4-z
1/2-x,y,3/4-z
1/2-y,-x,3/4+z
1/2+y,x,3/4+z
loop_
_atom_site_type_symbol
_atom_site_label
_atom_site_fract_x
_atom_site_fract_y
_atom_site_fract_z
Si Si1 0.234285 0.154811 0.068045
Si Si2 0.500000 0.000000 0.109689
Si Si3 0.250000 0.119037 0.375000
Si Si4 0.712866 0.152699 0.997533
Si Si5 0.750000 0.132640 0.375000
Si Si6 0.844212 0.493879 0.778632
Si Si7 0.167833 0.495706 0.567794
O O1 0.193230 0.171841 0.162901
O O2 0.310720 0.205377 0.061526
O O3 0.270080 0.071723 0.058316
O O4 0.175369 0.198128 0.004091
O O5 0.493549 0.925048 0.172470
O O6 0.423471 0.014451 0.051887
O O7 0.188225 0.171664 0.330982
O O8 0.208794 0.064243 0.444371
O O9 0.697140 0.063973 0.006696
O O10 0.808786 0.080928 0.427389
O O11 0.838347 0.487630 0.673442
#
# Coordination Sequence:
#
# PCOD9561194 Si02
#       7
#    16   8   8  16   8  16  16
#     4  10  23  43  58  84 124 175 212 272 300 364
#     4  12  23  30  54 102 138 166 179 248 335 408
#     4  11  20  36  56  93 122 164 198 255 314 402
#     4  10  23  38  64  84 125 171 217 249 324 374
#     4   9  20  34  56  83 126 158 188 245 312 378
#     4  11  21  33  55  93 136 155 190 242 328 396
#     4  12  22  38  61  90 129 166 209 259 321 381
#
# _framework density 18.780289
#
# number of rings (size 3 to 8) (size 9 to 14) (size 15 to 20)
#    0.000    1.455    5.455    1.636    5.091    0.000 
#    0.000    1.818    0.000    0.545    0.000    0.000 
#    0.000    0.000    0.000    0.000    0.000    0.000 
#
# Total GULP energy -245034.545154 kJ/mol
# GULP energy per Si atom -5568.966935 kJ/mol
# Density = 1.873754 g / cm^3
# Si number density = 18.780289 Si / 1000 Ang^3
#
#
#
# Elastic Constant Matrix: (Units=GPa)
#
#
# Indices 1 2 3 4 5 6 
#
# 1 124.7592 58.1920 21.6011 0.0000 0.0000 0.0000
# 2 58.1920 124.7592 21.6011 0.0000 0.0000 0.0000
# 3 21.6011 21.6011 23.3027 0.0000 0.0000 0.0000
# 4 0.0000 0.0000 0.0000 13.9430 0.0000 0.0000
# 5 0.0000 0.0000 0.0000 0.0000 13.9430 0.0000
# 6 0.0000 0.0000 0.0000 0.0000 0.0000 17.8731
#
#
#
# Elastic Compliance Matrix: (Units=1/GPa)
#
#
# Indices 1 2 3 4 5 6 
#
# 1 0.011010 -0.004012 -0.006487 0.000000 0.000000 0.000000
# 2 -0.004012 0.011010 -0.006487 0.000000 0.000000 0.000000
# 3 -0.006487 -0.006487 0.054940 0.000000 0.000000 0.000000
# 4 0.000000 0.000000 0.000000 0.071720 0.000000 0.000000
# 5 0.000000 0.000000 0.000000 0.000000 0.071720 0.000000
# 6 0.000000 0.000000 0.000000 0.000000 0.000000 0.055950
#
#
# Mechanical properties :
#
#
# Convention : Reuss Voigt Hill
#
# Bulk Modulus (GPa) = 23.26224 52.84550 38.05387
# Shear Modulus (GPa) = 15.40113 20.58030 17.99072
#
# Velocity S-wave (km/s) = 2.86679 3.31395 3.09845
# Velocity P-wave (km/s) = 4.83440 6.54545 5.75388
#
# Compressibility (1/GPa) = 0.04298813
#
# Stress axis : x y z
#
# Youngs Moduli (GPa) = 90.82599 90.82599 18.20181
#
# Poissons Ratio (x) = 0.36443 0.11807
# Poissons Ratio (y) = 0.36443 0.11807
# Poissons Ratio (z) = 0.58916 0.58916
#
# Static dielectric constant tensor:
#      x y z
#    x 1.595250 0.000000 0.000000 
#    y 0.000000 1.595250 0.000000 
#    z 0.000000 0.000000 1.665600 
# 
# From -- ./inp_files/5429.got.cif
#   From: 2010.05.17/outbox.cif.g08.bks.cpg/sg122_3_cif.got.tgz:5429.got - 2010.05.20 11:37:33.
