data_PCOD9561889
_publ_section_title
;
Structure prediction by ZEFSAII (Michael W. Deem and Ramdas Pophale) SiO2 
 PCOD9561889
Probable space group: P 4/M M M
;
_chemical_formula_sum "Si O2"
_cell_formula_units_Z 72
_cell_length_a 19.453838
_cell_length_b 19.453838
_cell_length_c 10.770771
_cell_angle_alpha 90.000000
_cell_angle_beta 90.000000
_cell_angle_gamma 90.000000
_cell_volume 4076.217812
_symmetry_space_group_name_H-M "P 4/M M M"
_symmetry_group_IT_number 123
_symmetry_cell_setting 'tetragonal'
loop_
_space_group_symop_operation_xyz
x,y,z
-y,x,z
-x,-y,z
y,-x,z
x,-y,-z
-x,y,-z
y,x,-z
-y,-x,-z
-x,-y,-z
y,-x,-z
x,y,-z
-y,x,-z
-x,y,z
x,-y,z
-y,-x,z
y,x,z
loop_
_atom_site_type_symbol
_atom_site_label
_atom_site_fract_x
_atom_site_fract_y
_atom_site_fract_z
Si Si1 0.342060 0.918848 0.251340
Si Si2 0.799217 0.418900 0.637708
Si Si3 0.581294 0.304334 0.140264
Si Si4 0.192588 0.079206 0.147333
Si Si5 0.577186 0.083126 0.000000
O O1 0.374093 0.867870 0.350611
O O2 0.261595 0.908348 0.224888
O O3 0.381973 0.899974 0.124098
O O4 0.353164 0.000000 0.276495
O O5 0.768515 0.409914 0.500000
O O6 0.816274 0.500000 0.652010
O O7 0.748025 0.400431 0.749704
O O8 0.500000 0.319742 0.151099
O O9 0.628096 0.371905 0.150977
O O10 0.592600 0.275817 0.000000
O O11 0.132696 0.132696 0.176224
O O12 0.171004 0.000000 0.166660
O O13 0.209545 0.085690 0.000000
O O14 0.500000 0.112013 0.000000
O O15 0.572517 0.000000 0.000000
#
# Coordination Sequence:
#
# PCOD9561889 Si02
#       5
#    16  16  16  16   8
#     4  10  19  32  49  72 102 137 179 223 265 311
#     4  10  22  37  52  75 109 146 180 218 264 314
#     4   9  19  36  58  83 109 139 177 221 268 318
#     4   9  17  30  48  72 103 135 169 214 267 322
#     4   9  16  26  43  68  95 127 169 216 261 302
#
# _framework density 17.663433999999999
#
# number of rings (size 3 to 8) (size 9 to 14) (size 15 to 20)
#    0.000    2.556    1.111    0.667    1.556    3.556 
#    0.000    5.556    0.000    0.000    0.000    3.111 
#    0.000    0.000    0.000    4.889    0.000    0.222 
#
# Total GULP energy -401468.624460 kJ/mol
# GULP energy per Si atom -5575.953118 kJ/mol
# Density = 1.762323 g / cm^3
# Si number density = 17.663434 Si / 1000 Ang^3
#
#
#
# Elastic Constant Matrix: (Units=GPa)
#
#
# Indices 1 2 3 4 5 6 
#
# 1 71.0165 53.3071 44.9675 0.0000 0.0000 0.0000
# 2 53.3071 71.0165 44.9675 0.0000 0.0000 0.0000
# 3 44.9675 44.9675 98.0782 0.0000 0.0000 0.0000
# 4 0.0000 0.0000 0.0000 17.2958 0.0000 0.0000
# 5 0.0000 0.0000 0.0000 0.0000 17.2958 0.0000
# 6 0.0000 0.0000 0.0000 0.0000 0.0000 29.4616
#
#
#
# Elastic Compliance Matrix: (Units=1/GPa)
#
#
# Indices 1 2 3 4 5 6 
#
# 1 0.034251 -0.022216 -0.005518 0.000000 0.000000 0.000000
# 2 -0.022216 0.034251 -0.005518 0.000000 0.000000 0.000000
# 3 -0.005518 -0.005518 0.015256 0.000000 0.000000 0.000000
# 4 0.000000 0.000000 0.000000 0.057817 0.000000 0.000000
# 5 0.000000 0.000000 0.000000 0.000000 0.057817 0.000000
# 6 0.000000 0.000000 0.000000 0.000000 0.000000 0.033943
#
#
# Mechanical properties :
#
#
# Convention : Reuss Voigt Hill
#
# Bulk Modulus (GPa) = 57.95662 58.51059 58.23360
# Shear Modulus (GPa) = 16.36176 19.26859 17.81518
#
# Velocity S-wave (km/s) = 3.04683 3.30642 3.17928
# Velocity P-wave (km/s) = 6.72759 6.91186 6.82034
#
# Compressibility (1/GPa) = 0.01725428
#
# Stress axis : x y z
#
# Youngs Moduli (GPa) = 29.19610 29.19610 65.54900
#
# Poissons Ratio (x) = 0.64862 0.36170
# Poissons Ratio (y) = 0.64862 0.36170
# Poissons Ratio (z) = 0.16110 0.16110
#
# Static dielectric constant tensor:
#      x y z
#    x 1.588900 0.000000 0.000000 
#    y 0.000000 1.588900 0.000000 
#    z 0.000000 0.000000 1.621100 
# 
# From -- ./inp_files/1076.got.cif
#   From: 2010.05.17/outbox.cif.g08.bks.cpg/sg123_1_cif.got.tgz:1076.got - 2010.05.20 11:43:04.
