data_PCOD9561782
_publ_section_title
;
Structure prediction by ZEFSAII (Michael W. Deem and Ramdas Pophale) SiO2 
 PCOD9561782
Probable space group: P 4/M M M
;
_chemical_formula_sum "Si O2"
_cell_formula_units_Z 88
_cell_length_a 14.032684
_cell_length_b 14.032684
_cell_length_c 29.126968
_cell_angle_alpha 90.000000
_cell_angle_beta 90.000000
_cell_angle_gamma 90.000000
_cell_volume 5735.572446
_symmetry_space_group_name_H-M "P 4/M M M"
_symmetry_group_IT_number 123
_symmetry_cell_setting 'tetragonal'
loop_
_space_group_symop_operation_xyz
x,y,z
-y,x,z
-x,-y,z
y,-x,z
x,-y,-z
-x,y,-z
y,x,-z
-y,-x,-z
-x,-y,-z
y,-x,-z
x,y,-z
-y,x,-z
-x,y,z
x,-y,z
-y,-x,z
y,x,z
loop_
_atom_site_type_symbol
_atom_site_label
_atom_site_fract_x
_atom_site_fract_y
_atom_site_fract_z
Si Si1 0.108991 0.615443 0.818888
Si Si2 0.228896 0.385212 0.909438
Si Si3 0.230150 0.614601 0.271021
Si Si4 0.890921 0.615406 0.000000
Si Si5 0.612608 0.769697 0.447700
Si Si6 0.891974 0.384412 0.639580
O O1 0.104083 0.500000 0.818861
O O2 0.168268 0.641064 0.864207
O O3 0.165611 0.641529 0.772848
O O4 0.000000 0.650659 0.819562
O O5 0.243776 0.500000 0.909506
O O6 0.326941 0.326941 0.909689
O O7 0.167209 0.358884 0.954337
O O8 0.243766 0.500000 0.270638
O O9 0.328691 0.671310 0.268999
O O10 0.173696 0.641693 0.317336
O O11 0.895993 0.500000 0.000000
O O12 0.000000 0.650675 0.000000
O O13 0.626390 0.805150 0.500000
O O14 0.500000 0.750057 0.441949
O O15 0.674516 0.674516 0.442425
O O16 0.642577 0.843977 0.408618
O O17 0.896123 0.500000 0.639993
O O18 0.000000 0.349111 0.644174
#
# Coordination Sequence:
#
# PCOD9561782 Si02
#       6
#    16  16  16   8  16  16
#     4   9  17  30  47  65  87 117 152 190 227 255
#     4  10  19  30  45  67  96 126 153 181 215 263
#     4  10  19  30  45  66  93 122 149 177 211 258
#     4   9  17  30  47  65  87 117 153 195 235 260
#     4   9  17  28  42  62  89 119 148 177 210 254
#     4   9  17  29  44  61  83 113 148 186 225 257
#
# _framework density 15.342845000000001
#
# number of rings (size 3 to 8) (size 9 to 14) (size 15 to 20)
#    0.000    2.636    0.000    2.455    0.000    5.273 
#    0.000    2.727    0.000    8.182    0.000    0.000 
#    0.000   53.091    0.000    8.000    0.000    0.727 
#
# Total GULP energy -490152.651937 kJ/mol
# GULP energy per Si atom -5569.916499 kJ/mol
# Density = 1.530792 g / cm^3
# Si number density = 15.342845 Si / 1000 Ang^3
#
#
#
# Elastic Constant Matrix: (Units=GPa)
#
#
# Indices 1 2 3 4 5 6 
#
# 1 67.6980 41.8603 48.6756 0.0000 0.0000 0.0000
# 2 41.8603 67.6980 48.6756 0.0000 0.0000 0.0000
# 3 48.6756 48.6756 136.1746 0.0000 0.0000 0.0000
# 4 0.0000 0.0000 0.0000 15.7330 0.0000 0.0000
# 5 0.0000 0.0000 0.0000 0.0000 15.7330 0.0000
# 6 0.0000 0.0000 0.0000 0.0000 0.0000 0.6970
#
#
#
# Elastic Compliance Matrix: (Units=1/GPa)
#
#
# Indices 1 2 3 4 5 6 
#
# 1 0.026040 -0.012664 -0.004781 0.000000 0.000000 0.000000
# 2 -0.012664 0.026040 -0.004781 0.000000 0.000000 0.000000
# 3 -0.004781 -0.004781 0.010762 0.000000 0.000000 0.000000
# 4 0.000000 0.000000 0.000000 0.063561 0.000000 0.000000
# 5 0.000000 0.000000 0.000000 0.000000 0.063561 0.000000
# 6 0.000000 0.000000 0.000000 0.000000 0.000000 1.434628
#
#
# Mechanical properties :
#
#
# Convention : Reuss Voigt Hill
#
# Bulk Modulus (GPa) = 54.38119 61.11042 57.74580
# Shear Modulus (GPa) = 2.98477 15.25656 9.12066
#
# Velocity S-wave (km/s) = 1.39628 3.15679 2.44079
# Velocity P-wave (km/s) = 6.17417 7.29407 6.75736
#
# Compressibility (1/GPa) = 0.01838871
#
# Stress axis : x y z
#
# Youngs Moduli (GPa) = 38.40301 38.40301 92.92249
#
# Poissons Ratio (x) = 0.48632 0.44429
# Poissons Ratio (y) = 0.48632 0.44429
# Poissons Ratio (z) = 0.18362 0.18362
#
# Static dielectric constant tensor:
#      x y z
#    x 1.491040 0.000000 0.000000 
#    y 0.000000 1.491040 0.000000 
#    z 0.000000 0.000000 1.527350 
# 
# From -- ./inp_files/7184.got.cif
#   From: 2010.05.17/outbox.cif.g08.bks.cpg/sg123_4_cif.got.tgz:7184.got - 2010.05.20 11:43:04.
