data_PCOD9561739
_publ_section_title
;
Structure prediction by ZEFSAII (Michael W. Deem and Ramdas Pophale) SiO2 
 PCOD9561739
Probable space group: P 4/M M M
;
_chemical_formula_sum "Si O2"
_cell_formula_units_Z 56
_cell_length_a 18.652969
_cell_length_b 18.652969
_cell_length_c 7.284251
_cell_angle_alpha 90.000000
_cell_angle_beta 90.000000
_cell_angle_gamma 90.000000
_cell_volume 2534.433143
_symmetry_space_group_name_H-M "P 4/M M M"
_symmetry_group_IT_number 123
_symmetry_cell_setting 'tetragonal'
loop_
_space_group_symop_operation_xyz
x,y,z
-y,x,z
-x,-y,z
y,-x,z
x,-y,-z
-x,y,-z
y,x,-z
-y,-x,-z
-x,-y,-z
y,-x,-z
x,y,-z
-y,x,-z
-x,y,z
x,-y,z
-y,-x,z
y,x,z
loop_
_atom_site_type_symbol
_atom_site_label
_atom_site_fract_x
_atom_site_fract_y
_atom_site_fract_z
Si Si1 0.580635 0.697815 0.223339
Si Si2 0.000000 0.582927 0.223713
Si Si3 0.151701 0.353411 0.775913
Si Si4 0.198782 0.198782 0.789075
Si Si5 0.081276 0.081276 0.278551
O O1 0.500000 0.678622 0.280507
O O2 0.641572 0.641572 0.283324
O O3 0.599617 0.779268 0.277679
O O4 0.581851 0.696909 0.000000
O O5 0.926002 0.619520 0.284859
O O6 0.000000 0.500000 0.277075
O O7 0.000000 0.585333 0.000000
O O8 0.168581 0.272777 0.712213
O O9 0.149137 0.354650 0.000000
O O10 0.138467 0.138467 0.784825
O O11 0.216582 0.216582 0.000000
O O12 0.081832 0.081832 0.500000
O O13 0.000000 0.098187 0.220033
#
# Coordination Sequence:
#
# PCOD9561739 Si02
#       5
#    16   8  16   8   8
#     4   9  15  23  34  48  74 116 159 193 229 276
#     4   9  16  24  36  54  80 117 152 180 219 279
#     4   9  16  26  37  56  86 116 146 185 234 280
#     4  10  19  29  47  72  97 122 152 193 240 278
#     4   9  20  38  54  68  92 125 157 190 228 274
#
# _framework density 22.095670999999999
#
# number of rings (size 3 to 8) (size 9 to 14) (size 15 to 20)
#    0.000    2.857    1.429    1.286    2.000    4.286 
#    0.000    2.143    0.000    0.000    0.000    0.000 
#    0.000    5.714    0.000    0.000    0.000    1.714 
#
# Total GULP energy -312812.077908 kJ/mol
# GULP energy per Si atom -5585.929963 kJ/mol
# Density = 2.204538 g / cm^3
# Si number density = 22.095671 Si / 1000 Ang^3
#
#
#
# Elastic Constant Matrix: (Units=GPa)
#
#
# Indices 1 2 3 4 5 6 
#
# 1 192.5560 129.8838 3.5419 0.0000 0.0000 0.0000
# 2 129.8838 192.5560 3.5419 0.0000 0.0000 0.0000
# 3 3.5419 3.5419 92.5217 0.0000 0.0000 0.0000
# 4 0.0000 0.0000 0.0000 9.5661 0.0000 0.0000
# 5 0.0000 0.0000 0.0000 0.0000 9.5661 0.0000
# 6 0.0000 0.0000 0.0000 0.0000 0.0000 33.5088
#
#
#
# Elastic Compliance Matrix: (Units=1/GPa)
#
#
# Indices 1 2 3 4 5 6 
#
# 1 0.009530 -0.006426 -0.000119 0.000000 0.000000 0.000000
# 2 -0.006426 0.009530 -0.000119 0.000000 0.000000 0.000000
# 3 -0.000119 -0.000119 0.010817 0.000000 0.000000 0.000000
# 4 0.000000 0.000000 0.000000 0.104536 0.000000 0.000000
# 5 0.000000 0.000000 0.000000 0.000000 0.104536 0.000000
# 6 0.000000 0.000000 0.000000 0.000000 0.000000 0.029843
#
#
# Mechanical properties :
#
#
# Convention : Reuss Voigt Hill
#
# Bulk Modulus (GPa) = 60.42295 83.50764 71.96529
# Shear Modulus (GPa) = 17.38305 33.23927 25.31116
#
# Velocity S-wave (km/s) = 2.80789 3.88278 3.38823
# Velocity P-wave (km/s) = 6.15774 7.61427 6.92441
#
# Compressibility (1/GPa) = 0.01655000
#
# Stress axis : x y z
#
# Youngs Moduli (GPa) = 104.93174 104.93174 92.44388
#
# Poissons Ratio (x) = 0.67430 0.01098
# Poissons Ratio (y) = 0.67430 0.01098
# Poissons Ratio (z) = 0.01247 0.01247
#
# Static dielectric constant tensor:
#      x y z
#    x 1.758270 0.000000 0.000000 
#    y 0.000000 1.758270 0.000000 
#    z 0.000000 0.000000 1.848610 
# 
# From -- ./inp_files/627.got.cif
#   From: 2010.05.17/outbox.cif.g08.bks.cpg/sg123_1_cif.got.tgz:627.got - 2010.05.20 11:43:04.
