data_PCOD9561744
_publ_section_title
;
Structure prediction by ZEFSAII (Michael W. Deem and Ramdas Pophale) SiO2 
 PCOD9561744
Probable space group: P 4/M M M
;
_chemical_formula_sum "Si O2"
_cell_formula_units_Z 76
_cell_length_a 18.231781
_cell_length_b 18.231781
_cell_length_c 16.078898
_cell_angle_alpha 90.000000
_cell_angle_beta 90.000000
_cell_angle_gamma 90.000000
_cell_volume 5344.590940
_symmetry_space_group_name_H-M "P 4/M M M"
_symmetry_group_IT_number 123
_symmetry_cell_setting 'tetragonal'
loop_
_space_group_symop_operation_xyz
x,y,z
-y,x,z
-x,-y,z
y,-x,z
x,-y,-z
-x,y,-z
y,x,-z
-y,-x,-z
-x,-y,-z
y,-x,-z
x,y,-z
-y,x,-z
-x,y,z
x,-y,z
-y,-x,z
y,x,z
loop_
_atom_site_type_symbol
_atom_site_label
_atom_site_fract_x
_atom_site_fract_y
_atom_site_fract_z
Si Si1 0.416900 0.911598 0.756398
Si Si2 0.914935 0.085066 0.500000
Si Si3 0.083150 0.916851 0.752945
Si Si4 0.913317 0.682047 0.597616
Si Si5 0.307639 0.088452 0.096291
Si Si6 0.828836 0.171165 0.636852
Si Si7 0.856516 0.143485 0.903258
O O1 0.500000 0.883113 0.761277
O O2 0.380138 0.898166 0.666328
O O3 0.365514 0.887281 0.833209
O O4 0.420435 0.000000 0.763701
O O5 0.878922 0.121079 0.578501
O O6 0.000000 0.099383 0.500000
O O7 0.142801 0.857200 0.724892
O O8 0.090890 0.909111 0.851052
O O9 0.000000 0.899740 0.725976
O O10 0.906224 0.661277 0.500000
O O11 0.856203 0.747396 0.617208
O O12 0.000000 0.705050 0.608747
O O13 0.228614 0.124134 0.112335
O O14 0.299451 0.000000 0.103019
O O15 0.329596 0.104058 0.000000
O O16 0.869157 0.130844 0.000000
#
# Coordination Sequence:
#
# PCOD9561744 Si02
#       7
#    16   4   8  16  16   8   8
#     4   9  18  31  45  61  80 102 133 176 221 261
#     4  11  20  28  40  56  78 110 142 178 220 251
#     4  11  22  30  38  54  76 108 148 184 218 252
#     4  10  19  30  44  61  81 108 141 176 216 257
#     4   9  17  29  45  64  84 108 139 174 213 254
#     4  12  20  31  44  58  82 108 140 182 218 258
#     4  10  19  31  45  60  82 110 140 176 214 254
#
# _framework density 14.219984999999999
#
# number of rings (size 3 to 8) (size 9 to 14) (size 15 to 20)
#    0.000    2.053    1.053    3.789    0.000    4.632 
#    0.000    4.737    0.000    0.000    0.000    0.000 
#    0.000    0.000    0.000    0.000    0.000    8.421 
#
# Total GULP energy -423297.557247 kJ/mol
# GULP energy per Si atom -5569.704701 kJ/mol
# Density = 1.418762 g / cm^3
# Si number density = 14.219985 Si / 1000 Ang^3
#
#
#
# Elastic Constant Matrix: (Units=GPa)
#
#
# Indices 1 2 3 4 5 6 
#
# 1 38.4842 19.8640 37.0635 0.0000 0.0000 0.0000
# 2 19.8640 38.4843 37.0638 0.0000 0.0000 0.0000
# 3 37.0635 37.0638 97.8143 0.0000 0.0000 0.0000
# 4 0.0000 0.0000 0.0000 19.5213 0.0000 0.0000
# 5 0.0000 0.0000 0.0000 0.0000 19.5206 0.0000
# 6 0.0000 0.0000 0.0000 0.0000 0.0000 7.7572
#
#
#
# Elastic Compliance Matrix: (Units=1/GPa)
#
#
# Indices 1 2 3 4 5 6 
#
# 1 0.043376 -0.010329 -0.012522 0.000000 0.000000 0.000000
# 2 -0.010329 0.043376 -0.012522 0.000000 0.000000 0.000000
# 3 -0.012522 -0.012522 0.019713 0.000000 0.000000 0.000000
# 4 0.000000 0.000000 0.000000 0.051226 0.000000 0.000000
# 5 0.000000 0.000000 0.000000 0.000000 0.051228 0.000000
# 6 0.000000 0.000000 0.000000 0.000000 0.000000 0.128913
#
#
# Mechanical properties :
#
#
# Convention : Reuss Voigt Hill
#
# Bulk Modulus (GPa) = 27.99663 40.30727 34.15195
# Shear Modulus (GPa) = 11.89105 14.74591 13.31848
#
# Velocity S-wave (km/s) = 2.89489 3.22372 3.06372
# Velocity P-wave (km/s) = 5.55921 6.50104 6.04848
#
# Compressibility (1/GPa) = 0.03571859
#
# Stress axis : x y z
#
# Youngs Moduli (GPa) = 23.05426 23.05423 50.72757
#
# Poissons Ratio (x) = 0.23813 0.63521
# Poissons Ratio (y) = 0.23813 0.63522
# Poissons Ratio (z) = 0.28868 0.28869
#
# Static dielectric constant tensor:
#      x y z
#    x 1.457730 0.000000 0.000000 
#    y 0.000000 1.457730 0.000000 
#    z 0.000000 0.000000 1.496140 
# 
# From -- ./inp_files/4009.got.cif
#   From: 2010.05.17/outbox.cif.g08.bks.cpg/sg123_3_cif.got.tgz:4009.got - 2010.05.20 11:43:04.
