data_PCOD9561643
_publ_section_title
;
Structure prediction by ZEFSAII (Michael W. Deem and Ramdas Pophale) SiO2 
 PCOD9561643
Probable space group: P 4/M M M
;
_chemical_formula_sum "Si O2"
_cell_formula_units_Z 128
_cell_length_a 17.825791
_cell_length_b 17.825791
_cell_length_c 25.614862
_cell_angle_alpha 90.000000
_cell_angle_beta 90.000000
_cell_angle_gamma 90.000000
_cell_volume 8139.348446
_symmetry_space_group_name_H-M "P 4/M M M"
_symmetry_group_IT_number 123
_symmetry_cell_setting 'tetragonal'
loop_
_space_group_symop_operation_xyz
x,y,z
-y,x,z
-x,-y,z
y,-x,z
x,-y,-z
-x,y,-z
y,x,-z
-y,-x,-z
-x,-y,-z
y,-x,-z
x,y,-z
-y,x,-z
-x,y,z
x,-y,z
-y,-x,z
y,x,z
loop_
_atom_site_type_symbol
_atom_site_label
_atom_site_fract_x
_atom_site_fract_y
_atom_site_fract_z
Si Si1 0.412059 0.712009 0.439023
Si Si2 0.710322 0.413881 0.141220
Si Si3 0.210831 0.088543 0.674767
Si Si4 0.667884 0.205312 0.348047
Si Si5 0.809575 0.413469 0.760651
Si Si6 0.327813 0.800944 0.942075
Si Si7 0.789379 0.088630 0.097598
Si Si8 0.086958 0.724363 0.789091
O O1 0.403873 0.733146 0.500000
O O2 0.500000 0.701265 0.428178
O O3 0.364250 0.635751 0.431309
O O4 0.376246 0.772833 0.400238
O O5 0.693575 0.500000 0.129438
O O6 0.639713 0.360288 0.133015
O O7 0.738201 0.408368 0.201021
O O8 0.776780 0.384564 0.103278
O O9 0.137128 0.137128 0.661181
O O10 0.283543 0.128872 0.649221
O O11 0.226728 0.097741 0.736864
O O12 0.204942 0.000000 0.663336
O O13 0.729939 0.270062 0.338345
O O14 0.612291 0.204333 0.298680
O O15 0.835742 0.500000 0.762480
O O16 0.865798 0.351164 0.783294
O O17 0.262588 0.737413 0.940551
O O18 0.282971 0.877675 0.931839
O O19 0.361579 0.800355 0.000000
O O20 0.862259 0.137742 0.083110
O O21 0.770153 0.103769 0.158584
O O22 0.799327 0.000000 0.089626
O O23 0.000000 0.703390 0.791439
#
# Coordination Sequence:
#
# PCOD9561643 Si02
#       8
#    16  16  16  16  16  16  16  16
#     4   9  17  29  46  69  97 129 164 200 236 273
#     4  10  20  33  50  72  95 120 152 191 236 284
#     4   9  17  28  44  67  94 124 158 197 241 288
#     4   9  17  29  46  67  94 128 164 198 231 277
#     4  10  18  28  46  70  94 123 158 195 234 277
#     4   9  18  33  52  70  89 117 154 191 225 271
#     4  10  19  31  49  71  96 125 155 189 229 273
#     4   9  17  29  44  65  94 126 157 191 232 277
#
# _framework density 15.726075
#
# number of rings (size 3 to 8) (size 9 to 14) (size 15 to 20)
#    0.000    2.625    1.250    1.125    0.000    2.250 
#    0.000    0.625    0.000    4.125    0.000    7.000 
#    0.000    0.000    0.000    4.875    0.000    0.000 
#
# Total GULP energy -712809.835954 kJ/mol
# GULP energy per Si atom -5568.826843 kJ/mol
# Density = 1.569028 g / cm^3
# Si number density = 15.726075 Si / 1000 Ang^3
#
#
#
# Elastic Constant Matrix: (Units=GPa)
#
#
# Indices 1 2 3 4 5 6 
#
# 1 78.6967 64.7775 32.6012 0.0000 0.0000 0.0000
# 2 64.7775 78.6967 32.6012 0.0000 0.0000 0.0000
# 3 32.6012 32.6012 62.4171 0.0000 0.0000 0.0000
# 4 0.0000 0.0000 0.0000 16.5090 0.0000 0.0000
# 5 0.0000 0.0000 0.0000 0.0000 16.5090 0.0000
# 6 0.0000 0.0000 0.0000 0.0000 0.0000 13.9792
#
#
#
# Elastic Compliance Matrix: (Units=1/GPa)
#
#
# Indices 1 2 3 4 5 6 
#
# 1 0.040491 -0.031352 -0.004774 0.000000 0.000000 0.000000
# 2 -0.031352 0.040491 -0.004774 0.000000 0.000000 0.000000
# 3 -0.004774 -0.004774 0.021008 0.000000 0.000000 0.000000
# 4 0.000000 0.000000 0.000000 0.060573 0.000000 0.000000
# 5 0.000000 0.000000 0.000000 0.000000 0.060573 0.000000
# 6 0.000000 0.000000 0.000000 0.000000 0.000000 0.071535
#
#
# Mechanical properties :
#
#
# Convention : Reuss Voigt Hill
#
# Bulk Modulus (GPa) = 49.52421 53.30782 51.41602
# Shear Modulus (GPa) = 13.04802 15.38815 14.21809
#
# Velocity S-wave (km/s) = 2.88359 3.13151 3.01010
# Velocity P-wave (km/s) = 6.53046 6.85904 6.69677
#
# Compressibility (1/GPa) = 0.02019214
#
# Stress axis : x y z
#
# Youngs Moduli (GPa) = 24.69667 24.69667 47.60134
#
# Poissons Ratio (x) = 0.77429 0.22723
# Poissons Ratio (y) = 0.77429 0.22723
# Poissons Ratio (z) = 0.11789 0.11789
#
# Static dielectric constant tensor:
#      x y z
#    x 1.516400 0.000000 0.000000 
#    y 0.000000 1.516400 0.000000 
#    z 0.000000 0.000000 1.532390 
# 
# From -- ./inp_files/7720.got.cif
#   From: 2010.05.17/outbox.cif.g08.bks.cpg/sg123_4_cif.got.tgz:7720.got - 2010.05.20 11:43:04.
