data_PCOD9561512
_publ_section_title
;
Structure prediction by ZEFSAII (Michael W. Deem and Ramdas Pophale) SiO2 
 PCOD9561512
Probable space group: I -4 2 D
;
_chemical_formula_sum "Si O2"
_cell_formula_units_Z 36
_cell_length_a 9.443264
_cell_length_b 9.443264
_cell_length_c 18.399620
_cell_angle_alpha 90.000000
_cell_angle_beta 90.000000
_cell_angle_gamma 90.000000
_cell_volume 1640.790437
_symmetry_space_group_name_H-M "I -4 2 D"
_symmetry_group_IT_number 122
_symmetry_cell_setting 'tetragonal'
loop_
_space_group_symop_operation_xyz
x,y,z
y,-x,-z
-x,-y,z
-y,x,-z
x,1/2-y,1/4-z
-x,1/2+y,1/4-z
-y,1/2-x,1/4+z
y,1/2+x,1/4+z
1/2+x,1/2+y,1/2+z
1/2+y,1/2-x,1/2-z
1/2-x,1/2-y,1/2+z
1/2-y,1/2+x,1/2-z
1/2+x,-y,3/4-z
1/2-x,y,3/4-z
1/2-y,-x,3/4+z
1/2+y,x,3/4+z
loop_
_atom_site_type_symbol
_atom_site_label
_atom_site_fract_x
_atom_site_fract_y
_atom_site_fract_z
Si Si1 0.602105 0.636156 0.332106
Si Si2 0.500000 0.000000 0.750000
Si Si3 0.117808 0.733640 0.927047
O O1 0.500000 0.500000 0.340496
O O2 0.750000 0.621150 0.375000
O O3 0.631475 0.640123 0.245982
O O4 0.519887 0.764119 0.373790
O O5 0.607342 0.110884 0.786625
O O6 0.250000 0.720961 0.875000
#
# Coordination Sequence:
#
# PCOD9561512 Si02
#       3
#    16   4  16
#     4  12  25  43  74 104 140 187 246 291 354 444
#     4  12  20  36  72 100 124 176 250 276 332 436
#     4  12  25  45  70 103 142 186 237 296 359 432
#
# _framework density 21.940646999999998
#
# number of rings (size 3 to 8) (size 9 to 14) (size 15 to 20)
#    0.000    0.000    6.667    4.000    0.000    0.000 
#    8.000    0.000    0.000    0.000    0.000    0.000 
#    0.000    0.000    0.000    0.000    0.000    0.000 
#
# Total GULP energy -100266.936331 kJ/mol
# GULP energy per Si atom -5570.385352 kJ/mol
# Density = 2.189071 g / cm^3
# Si number density = 21.940647 Si / 1000 Ang^3
#
#
#
# Elastic Constant Matrix: (Units=GPa)
#
#
# Indices 1 2 3 4 5 6 
#
# 1 83.0930 13.6513 52.7052 0.0000 0.0000 0.0000
# 2 13.6513 83.0930 52.7052 0.0000 0.0000 0.0000
# 3 52.7052 52.7052 178.3176 0.0000 0.0000 0.0000
# 4 0.0000 0.0000 0.0000 41.4548 0.0000 0.0000
# 5 0.0000 0.0000 0.0000 0.0000 41.4548 0.0000
# 6 0.0000 0.0000 0.0000 0.0000 0.0000 10.0900
#
#
#
# Elastic Compliance Matrix: (Units=1/GPa)
#
#
# Indices 1 2 3 4 5 6 
#
# 1 0.014824 0.000423 -0.004506 0.000000 0.000000 0.000000
# 2 0.000423 0.014824 -0.004506 0.000000 0.000000 0.000000
# 3 -0.004506 -0.004506 0.008272 0.000000 0.000000 0.000000
# 4 0.000000 0.000000 0.000000 0.024123 0.000000 0.000000
# 5 0.000000 0.000000 0.000000 0.000000 0.024123 0.000000
# 6 0.000000 0.000000 0.000000 0.000000 0.000000 0.099109
#
#
# Mechanical properties :
#
#
# Convention : Reuss Voigt Hill
#
# Bulk Modulus (GPa) = 48.21734 64.73632 56.47683
# Shear Modulus (GPa) = 23.88165 33.62936 28.75550
#
# Velocity S-wave (km/s) = 3.30277 3.91927 3.62415
# Velocity P-wave (km/s) = 6.04718 7.07462 6.58098
#
# Compressibility (1/GPa) = 0.02073943
#
# Stress axis : x y z
#
# Youngs Moduli (GPa) = 67.45999 67.45999 120.89128
#
# Poissons Ratio (x) = -0.02854 0.54479
# Poissons Ratio (y) = -0.02854 0.54479
# Poissons Ratio (z) = 0.30400 0.30400
#
# Static dielectric constant tensor:
#      x y z
#    x 1.828810 0.000000 0.000000 
#    y 0.000000 1.828810 0.000000 
#    z 0.000000 0.000000 2.062910 
# 
# From -- ./inp_files/6638.got.cif
#   From: 2010.05.17/outbox.cif.g08.bks.cpg/sg122_4_cif.got.tgz:6638.got - 2010.05.20 11:37:33.
