data_PCOD9561916
_publ_section_title
;
Structure prediction by ZEFSAII (Michael W. Deem and Ramdas Pophale) SiO2 
 PCOD9561916
Probable space group: P 4/M M M
;
_chemical_formula_sum "Si O2"
_cell_formula_units_Z 120
_cell_length_a 18.766116
_cell_length_b 18.766116
_cell_length_c 18.098101
_cell_angle_alpha 90.000000
_cell_angle_beta 90.000000
_cell_angle_gamma 90.000000
_cell_volume 6373.555921
_symmetry_space_group_name_H-M "P 4/M M M"
_symmetry_group_IT_number 123
_symmetry_cell_setting 'tetragonal'
loop_
_space_group_symop_operation_xyz
x,y,z
-y,x,z
-x,-y,z
y,-x,z
x,-y,-z
-x,y,-z
y,x,-z
-y,-x,-z
-x,-y,-z
y,-x,-z
x,y,-z
-y,x,-z
-x,y,z
x,-y,z
-y,-x,z
y,x,z
loop_
_atom_site_type_symbol
_atom_site_label
_atom_site_fract_x
_atom_site_fract_y
_atom_site_fract_z
Si Si1 0.302156 0.416266 0.158295
Si Si2 0.797911 0.084202 0.882415
Si Si3 0.810530 0.922340 0.703210
Si Si4 0.500000 0.921286 0.087543
Si Si5 0.645649 0.153204 0.136637
Si Si6 0.080095 0.349309 0.708098
Si Si7 0.582556 0.302475 0.336529
Si Si8 0.839986 0.415312 0.582570
O O1 0.299141 0.500000 0.136075
O O2 0.376410 0.376410 0.141141
O O3 0.237117 0.368927 0.126626
O O4 0.293017 0.414723 0.247618
O O5 0.862476 0.137525 0.907691
O O6 0.804998 0.081366 0.792952
O O7 0.719695 0.120387 0.895756
O O8 0.800971 0.000000 0.906808
O O9 0.860149 0.860149 0.676439
O O10 0.730316 0.915692 0.676482
O O11 0.839715 0.000000 0.684663
O O12 0.426665 0.883253 0.108587
O O13 0.500000 0.000000 0.121614
O O14 0.500000 0.926444 0.000000
O O15 0.646413 0.134122 0.223828
O O16 0.098379 0.400144 0.641099
O O17 0.000000 0.359752 0.737492
O O18 0.500000 0.313647 0.355960
O O19 0.630307 0.369694 0.355837
O O20 0.610571 0.232785 0.378696
O O21 0.850641 0.386637 0.500000
O O22 0.832943 0.500000 0.577174
#
# Coordination Sequence:
#
# PCOD9561916 Si02
#       8
#    16  16  16   8  16  16  16  16
#     4  10  19  32  53  82 110 141 184 231 277 326
#     4   9  17  29  48  77 112 149 187 227 272 320
#     4   8  15  27  43  68  99 129 165 209 255 303
#     4  11  24  38  56  86 122 154 182 222 275 330
#     4  11  19  35  56  82 110 144 185 228 273 328
#     4  10  20  32  50  74 100 132 172 215 258 313
#     4   9  18  32  49  72 101 132 170 215 262 314
#     4  10  21  35  48  66  97 131 168 215 260 310
#
# _framework density 18.827794999999998
#
# number of rings (size 3 to 8) (size 9 to 14) (size 15 to 20)
#    0.000    2.333    2.000    2.400    0.933    2.400 
#    0.000    3.333    0.000    1.600    0.000    1.867 
#    0.000    0.533    0.000    5.733    0.000    5.067 
#
# Total GULP energy -668381.415482 kJ/mol
# GULP energy per Si atom -5569.845129 kJ/mol
# Density = 1.878494 g / cm^3
# Si number density = 18.827795 Si / 1000 Ang^3
#
#
#
# Elastic Constant Matrix: (Units=GPa)
#
#
# Indices 1 2 3 4 5 6 
#
# 1 99.2430 64.1055 8.6351 0.0000 0.0000 0.0000
# 2 64.1055 99.2430 8.6351 0.0000 0.0000 0.0000
# 3 8.6351 8.6351 12.2158 0.0000 0.0000 0.0000
# 4 0.0000 0.0000 0.0000 6.5298 0.0000 0.0000
# 5 0.0000 0.0000 0.0000 0.0000 6.5298 0.0000
# 6 0.0000 0.0000 0.0000 0.0000 0.0000 32.1580
#
#
#
# Elastic Compliance Matrix: (Units=1/GPa)
#
#
# Indices 1 2 3 4 5 6 
#
# 1 0.017538 -0.010922 -0.004677 0.000000 0.000000 0.000000
# 2 -0.010922 0.017538 -0.004677 0.000000 0.000000 0.000000
# 3 -0.004677 -0.004677 0.088474 0.000000 0.000000 0.000000
# 4 0.000000 0.000000 0.000000 0.153145 0.000000 0.000000
# 5 0.000000 0.000000 0.000000 0.000000 0.153145 0.000000
# 6 0.000000 0.000000 0.000000 0.000000 0.000000 0.031097
#
#
# Mechanical properties :
#
#
# Convention : Reuss Voigt Hill
#
# Bulk Modulus (GPa) = 12.04842 41.49479 26.77161
# Shear Modulus (GPa) = 9.44906 17.66523 13.55714
#
# Velocity S-wave (km/s) = 2.24267 3.06641 2.68630
# Velocity P-wave (km/s) = 3.62205 5.88423 4.88587
#
# Compressibility (1/GPa) = 0.08299840
#
# Stress axis : x y z
#
# Youngs Moduli (GPa) = 57.01905 57.01905 11.30281
#
# Poissons Ratio (x) = 0.62274 0.05286
# Poissons Ratio (y) = 0.62274 0.05286
# Poissons Ratio (z) = 0.26668 0.26668
#
# Static dielectric constant tensor:
#      x y z
#    x 1.671450 0.000000 0.000000 
#    y 0.000000 1.671450 0.000000 
#    z 0.000000 0.000000 1.650780 
# 
# From -- ./inp_files/6793.got.cif
#   From: 2010.05.17/outbox.cif.g08.bks.cpg/sg123_4_cif.got.tgz:6793.got - 2010.05.20 11:43:04.
