data_PCOD9561109
_publ_section_title
;
Structure prediction by ZEFSAII (Michael W. Deem and Ramdas Pophale) SiO2 
 PCOD9561109
Probable space group: I -4 2 D
;
_chemical_formula_sum "Si O2"
_cell_formula_units_Z 88
_cell_length_a 12.074684
_cell_length_b 12.074684
_cell_length_c 27.275492
_cell_angle_alpha 90.000000
_cell_angle_beta 90.000000
_cell_angle_gamma 90.000000
_cell_volume 3976.712011
_symmetry_space_group_name_H-M "I -4 2 D"
_symmetry_group_IT_number 122
_symmetry_cell_setting 'tetragonal'
loop_
_space_group_symop_operation_xyz
x,y,z
y,-x,-z
-x,-y,z
-y,x,-z
x,1/2-y,1/4-z
-x,1/2+y,1/4-z
-y,1/2-x,1/4+z
y,1/2+x,1/4+z
1/2+x,1/2+y,1/2+z
1/2+y,1/2-x,1/2-z
1/2-x,1/2-y,1/2+z
1/2-y,1/2+x,1/2-z
1/2+x,-y,3/4-z
1/2-x,y,3/4-z
1/2-y,-x,3/4+z
1/2+y,x,3/4+z
loop_
_atom_site_type_symbol
_atom_site_label
_atom_site_fract_x
_atom_site_fract_y
_atom_site_fract_z
Si Si1 0.378722 0.045014 0.591098
Si Si2 0.181843 0.098073 0.267884
Si Si3 0.272662 0.839950 0.476707
Si Si4 0.275708 0.250000 0.625000
Si Si5 0.344654 0.077249 0.767008
Si Si6 0.867644 0.744949 0.351857
O O1 0.373797 0.093127 0.535915
O O2 0.352395 0.143825 0.627584
O O3 0.500000 0.000000 0.598598
O O4 0.284650 0.954713 0.605361
O O5 0.291602 0.174076 0.260758
O O6 0.112543 0.157852 0.311396
O O7 0.210206 0.970201 0.275970
O O8 0.243782 0.799093 0.422602
O O9 0.380189 0.771621 0.495426
O O10 0.447018 0.134299 0.737388
O O11 0.356352 0.131675 0.820396
O O12 0.750000 0.772349 0.375000
#
# Coordination Sequence:
#
# PCOD9561109 Si02
#       6
#    16  16  16   8  16  16
#     4  11  25  42  70 104 140 185 229 297 367 432
#     4  10  24  46  68  99 144 184 242 296 353 425
#     4  10  22  42  66  96 135 183 232 288 351 415
#     4  10  24  40  62 100 140 174 234 284 360 424
#     4  10  22  40  67 100 142 180 220 293 365 429
#     4  11  25  42  71 105 137 186 243 283 357 435
#
# _framework density 22.128834000000001
#
# number of rings (size 3 to 8) (size 9 to 14) (size 15 to 20)
#    0.000    1.636    0.000    3.273    7.636    9.091 
#    0.000    0.000    0.000    0.000    0.000    0.000 
#    0.000    0.000    0.000    0.000    0.000    0.000 
#
# Total GULP energy -245873.845524 kJ/mol
# GULP energy per Si atom -5588.041944 kJ/mol
# Density = 2.207847 g / cm^3
# Si number density = 22.128834 Si / 1000 Ang^3
#
#
#
# Elastic Constant Matrix: (Units=GPa)
#
#
# Indices 1 2 3 4 5 6 
#
# 1 134.3413 36.6006 19.7377 0.0000 0.0000 0.0000
# 2 36.6006 134.3413 19.7377 0.0000 0.0000 0.0000
# 3 19.7377 19.7377 90.7408 0.0000 0.0000 0.0000
# 4 0.0000 0.0000 0.0000 31.3417 0.0000 0.0000
# 5 0.0000 0.0000 0.0000 0.0000 31.3417 0.0000
# 6 0.0000 0.0000 0.0000 0.0000 0.0000 20.8807
#
#
#
# Elastic Compliance Matrix: (Units=1/GPa)
#
#
# Indices 1 2 3 4 5 6 
#
# 1 0.008195 -0.002036 -0.001340 0.000000 0.000000 0.000000
# 2 -0.002036 0.008195 -0.001340 0.000000 0.000000 0.000000
# 3 -0.001340 -0.001340 0.011603 0.000000 0.000000 0.000000
# 4 0.000000 0.000000 0.000000 0.031906 0.000000 0.000000
# 5 0.000000 0.000000 0.000000 0.000000 0.031906 0.000000
# 6 0.000000 0.000000 0.000000 0.000000 0.000000 0.047891
#
#
# Mechanical properties :
#
#
# Convention : Reuss Voigt Hill
#
# Bulk Modulus (GPa) = 53.87100 56.84170 55.35635
# Shear Modulus (GPa) = 32.19242 35.60265 33.89753
#
# Velocity S-wave (km/s) = 3.81829 4.01544 3.91810
# Velocity P-wave (km/s) = 6.62089 6.87319 6.74822
#
# Compressibility (1/GPa) = 0.01856286
#
# Stress axis : x y z
#
# Youngs Moduli (GPa) = 122.02208 122.02208 86.18277
#
# Poissons Ratio (x) = 0.24843 0.11546
# Poissons Ratio (y) = 0.24843 0.11546
# Poissons Ratio (z) = 0.16348 0.16348
#
# Static dielectric constant tensor:
#      x y z
#    x 1.822850 0.000000 0.000000 
#    y 0.000000 1.822850 0.000000 
#    z 0.000000 0.000000 1.843490 
# 
# From -- ./inp_files/9499.got.cif
#   From: 2010.05.17/outbox.cif.g08.bks.cpg/sg122_5_cif.got.tgz:9499.got - 2010.05.20 11:37:33.
