data_PCOD9561745
_publ_section_title
;
Structure prediction by ZEFSAII (Michael W. Deem and Ramdas Pophale) SiO2 
 PCOD9561745
Probable space group: P 4/M M M
;
_chemical_formula_sum "Si O2"
_cell_formula_units_Z 112
_cell_length_a 27.878300
_cell_length_b 27.878300
_cell_length_c 7.572931
_cell_angle_alpha 90.000000
_cell_angle_beta 90.000000
_cell_angle_gamma 90.000000
_cell_volume 5885.679026
_symmetry_space_group_name_H-M "P 4/M M M"
_symmetry_group_IT_number 123
_symmetry_cell_setting 'tetragonal'
loop_
_space_group_symop_operation_xyz
x,y,z
-y,x,z
-x,-y,z
y,-x,z
x,-y,-z
-x,y,-z
y,x,-z
-y,-x,-z
-x,-y,-z
y,-x,-z
x,y,-z
-y,x,-z
-x,y,z
x,-y,z
-y,-x,z
y,x,z
loop_
_atom_site_type_symbol
_atom_site_label
_atom_site_fract_x
_atom_site_fract_y
_atom_site_fract_z
Si Si1 0.809383 0.269294 0.785071
Si Si2 0.077813 0.000000 0.784621
Si Si3 0.869366 0.553053 0.288476
Si Si4 0.737750 0.918511 0.216244
Si Si5 0.656452 0.267009 0.789008
Si Si6 0.051972 0.367906 0.788819
Si Si7 0.760446 0.552884 0.288281
Si Si8 0.000000 0.188322 0.784095
O O1 0.774041 0.225960 0.736489
O O2 0.863340 0.260584 0.724513
O O3 0.782395 0.318008 0.725451
O O4 0.811369 0.270833 0.000000
O O5 0.046659 0.953342 0.731202
O O6 0.132994 0.000000 0.725360
O O7 0.078463 0.000000 0.000000
O O8 0.866444 0.551020 0.500000
O O9 0.885327 0.500000 0.226405
O O10 0.905598 0.595337 0.247255
O O11 0.815080 0.560882 0.222445
O O12 0.686068 0.938379 0.274766
O O13 0.781051 0.953229 0.271032
O O14 0.738291 0.918767 0.000000
O O15 0.688722 0.311279 0.722287
O O16 0.600303 0.269216 0.752816
O O17 0.661536 0.266433 0.000000
O O18 0.000000 0.384933 0.723127
O O19 0.049597 0.364260 0.000000
O O20 0.762406 0.550388 0.500000
O O21 0.744423 0.500000 0.225251
O O22 0.000000 0.187608 0.000000
#
# Coordination Sequence:
#
# PCOD9561745 Si02
#       8
#    16   8  16  16  16  16  16   8
#     4   8  14  23  36  55  78 104 134 171 216 264
#     4   8  14  23  32  44  66  98 136 173 205 244
#     4   9  19  34  48  63  85 113 147 188 230 271
#     4   9  15  24  36  52  76 102 133 174 218 262
#     4   9  17  29  45  68  96 123 153 188 225 267
#     4  10  19  30  44  61  81 108 142 183 230 275
#     4   9  18  32  48  67  92 121 154 190 225 264
#     4   9  15  22  33  48  68  96 131 172 215 256
#
# _framework density 19.029239
#
# number of rings (size 3 to 8) (size 9 to 14) (size 15 to 20)
#    0.000    3.071    0.714    2.786    0.000    3.714 
#    0.000    5.714    0.000    0.000    0.000    0.000 
#    0.000    0.286    0.000    3.143    0.000    3.000 
#
# Total GULP energy -624348.741868 kJ/mol
# GULP energy per Si atom -5574.542338 kJ/mol
# Density = 1.898593 g / cm^3
# Si number density = 19.029239 Si / 1000 Ang^3
#
#
#
# Elastic Constant Matrix: (Units=GPa)
#
#
# Indices 1 2 3 4 5 6 
#
# 1 149.3368 77.8018 4.5601 0.0000 0.0000 0.0000
# 2 77.8018 149.3368 4.5601 0.0000 0.0000 0.0000
# 3 4.5601 4.5601 39.3094 0.0000 0.0000 0.0000
# 4 0.0000 0.0000 0.0000 384.9545 0.0000 0.0000
# 5 0.0000 0.0000 0.0000 0.0000 384.9545 0.0000
# 6 0.0000 0.0000 0.0000 0.0000 0.0000 20.4114
#
#
#
# Elastic Compliance Matrix: (Units=1/GPa)
#
#
# Indices 1 2 3 4 5 6 
#
# 1 0.009201 -0.004778 -0.000513 0.000000 0.000000 0.000000
# 2 -0.004778 0.009201 -0.000513 0.000000 0.000000 0.000000
# 3 -0.000513 -0.000513 0.025558 0.000000 0.000000 0.000000
# 4 0.000000 0.000000 0.000000 0.002598 0.000000 0.000000
# 5 0.000000 0.000000 0.000000 0.000000 0.002598 0.000000
# 6 0.000000 0.000000 0.000000 0.000000 0.000000 0.048992
#
#
# Mechanical properties :
#
#
# Convention : Reuss Voigt Hill
#
# Bulk Modulus (GPa) = 30.90976 56.86964 43.88970
# Shear Modulus (GPa) = 41.47974 174.80150 108.14062
#
# Velocity S-wave (km/s) = 4.67389 9.59473 7.54666
# Velocity P-wave (km/s) = 6.73836 12.35700 9.95241
#
# Compressibility (1/GPa) = 0.03235224
#
# Stress axis : x y z
#
# Youngs Moduli (GPa) = 108.68164 108.68164 39.12626
#
# Poissons Ratio (x) = 0.51928 0.02008
# Poissons Ratio (y) = 0.51928 0.02008
# Poissons Ratio (z) = 0.05577 0.05577
#
# Static dielectric constant tensor:
#      x y z
#    x 1.664640 0.000000 0.000000 
#    y 0.000000 1.664640 0.000000 
#    z 0.000000 0.000000 1.741730 
# 
# From -- ./inp_files/3458.got.cif
#   From: 2010.05.17/outbox.cif.g08.bks.cpg/sg123_2_cif.got.tgz:3458.got - 2010.05.20 11:43:04.
