data_PCOD9561622
_publ_section_title
;
Structure prediction by ZEFSAII (Michael W. Deem and Ramdas Pophale) SiO2 
 PCOD9561622
Probable space group: P 4/M M M
;
_chemical_formula_sum "Si O2"
_cell_formula_units_Z 96
_cell_length_a 25.065519
_cell_length_b 25.065519
_cell_length_c 7.315333
_cell_angle_alpha 90.000000
_cell_angle_beta 90.000000
_cell_angle_gamma 90.000000
_cell_volume 4596.079193
_symmetry_space_group_name_H-M "P 4/M M M"
_symmetry_group_IT_number 123
_symmetry_cell_setting 'tetragonal'
loop_
_space_group_symop_operation_xyz
x,y,z
-y,x,z
-x,-y,z
y,-x,z
x,-y,-z
-x,y,-z
y,x,-z
-y,-x,-z
-x,-y,-z
y,-x,-z
x,y,-z
-y,x,-z
-x,y,z
x,-y,z
-y,-x,z
y,x,z
loop_
_atom_site_type_symbol
_atom_site_label
_atom_site_fract_x
_atom_site_fract_y
_atom_site_fract_z
Si Si1 0.145003 0.060508 0.722556
Si Si2 0.644433 0.149343 0.212737
Si Si3 0.646870 0.731289 0.776976
Si Si4 0.439788 0.644408 0.777524
Si Si5 0.147210 0.231858 0.720333
Si Si6 0.061132 0.561151 0.222708
O O1 0.145660 0.059730 0.500000
O O2 0.091061 0.091061 0.776913
O O3 0.193936 0.098391 0.778161
O O4 0.148692 0.000000 0.785737
O O5 0.639401 0.208912 0.290787
O O6 0.707601 0.138248 0.221556
O O7 0.605504 0.103419 0.286866
O O8 0.629465 0.153547 0.000000
O O9 0.701159 0.701159 0.719512
O O10 0.597933 0.693406 0.723471
O O11 0.648372 0.732599 0.000000
O O12 0.500000 0.648303 0.713396
O O13 0.409425 0.590576 0.722207
O O14 0.440656 0.644786 0.000000
O O15 0.148524 0.232024 0.500000
O O16 0.201795 0.201795 0.781371
O O17 0.074841 0.500000 0.275003
O O18 0.000000 0.571978 0.280353
O O19 0.060540 0.562198 0.000000
#
# Coordination Sequence:
#
# PCOD9561622 Si02
#       6
#    16  16  16  16  16  16
#     4   8  14  25  41  61  85 113 144 177 213 254
#     4  10  18  27  45  68  83 105 146 184 209 246
#     4   8  14  23  33  49  74  97 120 160 205 231
#     4   8  13  20  29  43  67  98 127 156 192 232
#     4   9  18  31  44  61  90 122 144 169 215 267
#     4   8  15  28  43  61  88 115 137 171 221 267
#
# _framework density 20.887369
#
# number of rings (size 3 to 8) (size 9 to 14) (size 15 to 20)
#    0.000    3.500    0.000    3.000    0.000    2.667 
#    0.000    5.000    0.000    0.500    0.000    1.167 
#    0.000    0.000    0.000    3.667    0.000    3.833 
#
# Total GULP energy -535458.812242 kJ/mol
# GULP energy per Si atom -5577.695961 kJ/mol
# Density = 2.083983 g / cm^3
# Si number density = 20.887369 Si / 1000 Ang^3
#
#
#
# Elastic Constant Matrix: (Units=GPa)
#
#
# Indices 1 2 3 4 5 6 
#
# 1 222.5859 90.9790 1.7014 0.0000 0.0000 0.0000
# 2 90.9790 222.5859 1.7014 0.0000 0.0000 0.0000
# 3 1.7014 1.7014 82.9958 0.0000 0.0000 0.0000
# 4 0.0000 0.0000 0.0000 -2.5921 0.0000 0.0000
# 5 0.0000 0.0000 0.0000 0.0000 -2.5921 0.0000
# 6 0.0000 0.0000 0.0000 0.0000 0.0000 27.7218
#
#
#
# Elastic Compliance Matrix: (Units=1/GPa)
#
#
# Indices 1 2 3 4 5 6 
#
# 1 0.005394 -0.002204 -0.000065 0.000000 0.000000 0.000000
# 2 -0.002204 0.005394 -0.000065 0.000000 0.000000 0.000000
# 3 -0.000065 -0.000065 0.012051 0.000000 0.000000 0.000000
# 4 0.000000 0.000000 0.000000 -0.385790 0.000000 0.000000
# 5 0.000000 0.000000 0.000000 0.000000 -0.385790 0.000000
# 6 0.000000 0.000000 0.000000 0.000000 0.000000 0.036073
#
#
# Mechanical properties :
#
#
# Convention : Reuss Voigt Hill
#
# Bulk Modulus (GPa) = 55.03696 79.65900 67.34798
# Shear Modulus (GPa) = -7.12311 33.42659 13.15174
#
# Velocity S-wave (km/s) = -1.84869 4.00475 2.51201
# Velocity P-wave (km/s) = 4.67437 7.72038 6.38177
#
# Compressibility (1/GPa) = 0.01816961
#
# Stress axis : x y z
#
# Youngs Moduli (GPa) = 185.38730 185.38730 82.97734
#
# Poissons Ratio (x) = 0.40864 0.00543
# Poissons Ratio (y) = 0.40864 0.00543
# Poissons Ratio (z) = 0.01212 0.01212
#
# Static dielectric constant tensor:
#      x y z
#    x 1.720590 0.000000 0.000000 
#    y 0.000000 1.720590 0.000000 
#    z 0.000000 0.000000 1.855480 
# 
# From -- ./inp_files/3294.got.cif
#   From: 2010.05.17/outbox.cif.g08.bks.cpg/sg123_2_cif.got.tgz:3294.got - 2010.05.20 11:43:04.
