data_PCOD9561025
_publ_section_title
;
Structure prediction by ZEFSAII (Michael W. Deem and Ramdas Pophale) SiO2 
 PCOD9561025
Probable space group: I -4 2 D
;
_chemical_formula_sum "Si O2"
_cell_formula_units_Z 56
_cell_length_a 18.983812
_cell_length_b 18.983812
_cell_length_c 7.612776
_cell_angle_alpha 90.000000
_cell_angle_beta 90.000000
_cell_angle_gamma 90.000000
_cell_volume 2743.531177
_symmetry_space_group_name_H-M "I -4 2 D"
_symmetry_group_IT_number 122
_symmetry_cell_setting 'tetragonal'
loop_
_space_group_symop_operation_xyz
x,y,z
y,-x,-z
-x,-y,z
-y,x,-z
x,1/2-y,1/4-z
-x,1/2+y,1/4-z
-y,1/2-x,1/4+z
y,1/2+x,1/4+z
1/2+x,1/2+y,1/2+z
1/2+y,1/2-x,1/2-z
1/2-x,1/2-y,1/2+z
1/2-y,1/2+x,1/2-z
1/2+x,-y,3/4-z
1/2-x,y,3/4-z
1/2-y,-x,3/4+z
1/2+y,x,3/4+z
loop_
_atom_site_type_symbol
_atom_site_label
_atom_site_fract_x
_atom_site_fract_y
_atom_site_fract_z
Si Si1 0.072659 0.750000 0.125000
Si Si2 0.171395 0.703050 0.799456
Si Si3 0.027271 0.597666 0.183400
Si Si4 0.913738 0.070500 0.438459
O O1 0.120483 0.770462 0.293051
O O2 0.028701 0.681519 0.185499
O O3 0.165542 0.750000 0.625000
O O4 0.250000 0.704500 0.875000
O O5 0.146796 0.623713 0.754561
O O6 0.065492 0.551160 0.334605
O O7 0.076238 0.576452 0.019688
O O8 0.989798 0.096006 0.509331
#
# Coordination Sequence:
#
# PCOD9561025 Si02
#       4
#     8  16  16  16
#     4  10  24  44  60 102 122 176 226 260 342 390
#     4  11  24  43  65  89 134 173 212 269 326 390
#     4  10  21  40  67  92 131 171 219 277 321 389
#     4  10  22  40  64  98 123 166 219 267 326 381
#
# _framework density 20.411649000000001
#
# number of rings (size 3 to 8) (size 9 to 14) (size 15 to 20)
#    0.000    1.714    1.429    3.429    8.000    1.143 
#   18.000    0.000    0.000    0.000    0.000    0.000 
#    0.000    0.000    0.000    0.000    0.000    0.000 
#
# Total GULP energy -156223.857967 kJ/mol
# GULP energy per Si atom -5579.423499 kJ/mol
# Density = 2.036519 g / cm^3
# Si number density = 20.411649 Si / 1000 Ang^3
#
#
#
# Elastic Constant Matrix: (Units=GPa)
#
#
# Indices 1 2 3 4 5 6 
#
# 1 102.5142 57.1667 20.6063 0.0000 0.0000 0.0000
# 2 57.1667 102.5142 20.6063 0.0000 0.0000 0.0000
# 3 20.6063 20.6063 56.6904 0.0000 0.0000 0.0000
# 4 0.0000 0.0000 0.0000 18.3812 0.0000 0.0000
# 5 0.0000 0.0000 0.0000 0.0000 18.3812 0.0000
# 6 0.0000 0.0000 0.0000 0.0000 0.0000 28.9491
#
#
#
# Elastic Compliance Matrix: (Units=1/GPa)
#
#
# Indices 1 2 3 4 5 6 
#
# 1 0.014481 -0.007571 -0.002512 0.000000 0.000000 0.000000
# 2 -0.007571 0.014481 -0.002512 0.000000 0.000000 0.000000
# 3 -0.002512 -0.002512 0.019466 0.000000 0.000000 0.000000
# 4 0.000000 0.000000 0.000000 0.054403 0.000000 0.000000
# 5 0.000000 0.000000 0.000000 0.000000 0.054403 0.000000
# 6 0.000000 0.000000 0.000000 0.000000 0.000000 0.034543
#
#
# Mechanical properties :
#
#
# Convention : Reuss Voigt Hill
#
# Bulk Modulus (GPa) = 43.03021 50.94190 46.98605
# Shear Modulus (GPa) = 22.25045 24.03159 23.14102
#
# Velocity S-wave (km/s) = 3.30523 3.43497 3.37072
# Velocity P-wave (km/s) = 5.97436 6.38306 6.18209
#
# Compressibility (1/GPa) = 0.02323949
#
# Stress axis : x y z
#
# Youngs Moduli (GPa) = 69.05418 69.05418 51.37206
#
# Poissons Ratio (x) = 0.52278 0.12905
# Poissons Ratio (y) = 0.52278 0.12905
# Poissons Ratio (z) = 0.17346 0.17346
#
# Static dielectric constant tensor:
#      x y z
#    x 1.731100 0.000000 0.000000 
#    y 0.000000 1.731100 0.000000 
#    z 0.000000 0.000000 1.776910 
# 
# From -- ./inp_files/2165.got.cif
#   From: 2010.05.17/outbox.cif.g08.bks.cpg/sg122_2_cif.got.tgz:2165.got - 2010.05.20 11:37:33.
