data_PCOD9561154
_publ_section_title
;
Structure prediction by ZEFSAII (Michael W. Deem and Ramdas Pophale) SiO2 
 PCOD9561154
Probable space group: I -4 2 D
;
_chemical_formula_sum "Si O2"
_cell_formula_units_Z 96
_cell_length_a 13.876659
_cell_length_b 13.876659
_cell_length_c 18.616830
_cell_angle_alpha 90.000000
_cell_angle_beta 90.000000
_cell_angle_gamma 90.000000
_cell_volume 3584.887782
_symmetry_space_group_name_H-M "I -4 2 D"
_symmetry_group_IT_number 122
_symmetry_cell_setting 'tetragonal'
loop_
_space_group_symop_operation_xyz
x,y,z
y,-x,-z
-x,-y,z
-y,x,-z
x,1/2-y,1/4-z
-x,1/2+y,1/4-z
-y,1/2-x,1/4+z
y,1/2+x,1/4+z
1/2+x,1/2+y,1/2+z
1/2+y,1/2-x,1/2-z
1/2-x,1/2-y,1/2+z
1/2-y,1/2+x,1/2-z
1/2+x,-y,3/4-z
1/2-x,y,3/4-z
1/2-y,-x,3/4+z
1/2+y,x,3/4+z
loop_
_atom_site_type_symbol
_atom_site_label
_atom_site_fract_x
_atom_site_fract_y
_atom_site_fract_z
Si Si1 0.452949 0.352691 0.490334
Si Si2 0.051401 0.172017 0.351712
Si Si3 0.250000 0.922906 0.875000
Si Si4 0.316381 0.865044 0.493351
Si Si5 0.113770 0.074852 0.212438
Si Si6 0.262865 0.750000 0.625000
Si Si7 0.123266 0.668959 0.827395
O O1 0.390738 0.447015 0.476846
O O2 0.477447 0.281111 0.425066
O O3 0.395476 0.286257 0.546125
O O4 0.057671 0.102051 0.284745
O O5 0.160845 0.192178 0.369512
O O6 0.986048 0.134083 0.415801
O O7 0.136725 0.945779 0.847314
O O8 0.323544 0.781673 0.554535
O O9 0.204718 0.881723 0.469330
O O10 0.354093 0.835201 0.413922
O O11 0.363864 0.960761 0.527532
O O12 0.221444 0.118522 0.200921
#
# Coordination Sequence:
#
# PCOD9561154 Si02
#       7
#    16  16   8  16  16   8  16
#     4  10  23  42  66 108 146 194 256 323 390 484
#     4  11  25  44  76 107 154 206 266 325 401 483
#     4  10  22  43  76  99 156 206 252 329 410 467
#     4  11  26  47  82 115 160 208 272 335 407 488
#     4  11  23  47  74 114 150 210 268 327 402 486
#     4  12  24  43  76 121 148 212 260 329 388 493
#     4  11  24  49  76 111 156 214 262 340 408 479
#
# _framework density 26.779081000000001
#
# number of rings (size 3 to 8) (size 9 to 14) (size 15 to 20)
#    0.000    1.167    3.333    2.000    4.667    2.667 
#    3.000    3.333    0.000    0.000    0.000    0.000 
#    0.000    0.000    0.000    0.000    0.000    0.000 
#
# Total GULP energy -267206.120545 kJ/mol
# GULP energy per Si atom -5566.794178 kJ/mol
# Density = 2.671813 g / cm^3
# Si number density = 26.779081 Si / 1000 Ang^3
#
#
#
# Elastic Constant Matrix: (Units=GPa)
#
#
# Indices 1 2 3 4 5 6 
#
# 1 145.0058 50.5863 47.2704 0.0000 0.0000 0.0000
# 2 50.5863 145.0058 47.2704 0.0000 0.0000 0.0000
# 3 47.2704 47.2704 121.4624 0.0000 0.0000 0.0000
# 4 0.0000 0.0000 0.0000 23.8576 0.0000 0.0000
# 5 0.0000 0.0000 0.0000 0.0000 23.8576 0.0000
# 6 0.0000 0.0000 0.0000 0.0000 0.0000 13.2005
#
#
#
# Elastic Compliance Matrix: (Units=1/GPa)
#
#
# Indices 1 2 3 4 5 6 
#
# 1 0.008444 -0.002147 -0.002451 0.000000 0.000000 0.000000
# 2 -0.002147 0.008444 -0.002451 0.000000 0.000000 0.000000
# 3 -0.002451 -0.002451 0.010141 0.000000 0.000000 0.000000
# 4 0.000000 0.000000 0.000000 0.041915 0.000000 0.000000
# 5 0.000000 0.000000 0.000000 0.000000 0.041915 0.000000
# 6 0.000000 0.000000 0.000000 0.000000 0.000000 0.075754
#
#
# Mechanical properties :
#
#
# Convention : Reuss Voigt Hill
#
# Bulk Modulus (GPa) = 77.32710 77.96982 77.64846
# Shear Modulus (GPa) = 24.38770 29.93961 27.16365
#
# Velocity S-wave (km/s) = 3.02105 3.34731 3.18836
# Velocity P-wave (km/s) = 6.41152 6.64217 6.52787
#
# Compressibility (1/GPa) = 0.01293208
#
# Stress axis : x y z
#
# Youngs Moduli (GPa) = 118.42515 118.42515 98.61387
#
# Poissons Ratio (x) = 0.25424 0.24168
# Poissons Ratio (y) = 0.25424 0.24168
# Poissons Ratio (z) = 0.29023 0.29023
#
# Static dielectric constant tensor:
#      x y z
#    x 2.259840 0.000000 0.000000 
#    y 0.000000 2.259840 0.000000 
#    z 0.000000 0.000000 2.138810 
# 
# From -- ./inp_files/7352.got.cif
#   From: 2010.05.17/outbox.cif.g08.bks.cpg/sg122_4_cif.got.tgz:7352.got - 2010.05.20 11:37:33.
