data_PCOD9561840
_publ_section_title
;
Structure prediction by ZEFSAII (Michael W. Deem and Ramdas Pophale) SiO2 
 PCOD9561840
Probable space group: P 4/M M M
;
_chemical_formula_sum "Si O2"
_cell_formula_units_Z 96
_cell_length_a 22.326315
_cell_length_b 22.326315
_cell_length_c 12.964287
_cell_angle_alpha 90.000000
_cell_angle_beta 90.000000
_cell_angle_gamma 90.000000
_cell_volume 6462.234782
_symmetry_space_group_name_H-M "P 4/M M M"
_symmetry_group_IT_number 123
_symmetry_cell_setting 'tetragonal'
loop_
_space_group_symop_operation_xyz
x,y,z
-y,x,z
-x,-y,z
y,-x,z
x,-y,-z
-x,y,-z
y,x,-z
-y,-x,-z
-x,-y,-z
y,-x,-z
x,y,-z
-y,x,-z
-x,y,z
x,-y,z
-y,-x,z
y,x,z
loop_
_atom_site_type_symbol
_atom_site_label
_atom_site_fract_x
_atom_site_fract_y
_atom_site_fract_z
Si Si1 0.000000 0.430663 0.874507
Si Si2 0.246382 0.346757 0.382980
Si Si3 0.119411 0.639842 0.878386
Si Si4 0.571197 0.670357 0.000000
Si Si5 0.257470 0.159054 0.272107
Si Si6 0.571190 0.761598 0.185682
Si Si7 0.165678 0.069013 0.376155
O O1 0.940576 0.394547 0.842924
O O2 0.000000 0.500000 0.839459
O O3 0.000000 0.432422 0.000000
O O4 0.239017 0.368984 0.500000
O O5 0.305613 0.305613 0.378696
O O6 0.191875 0.302278 0.352222
O O7 0.249727 0.396750 0.294796
O O8 0.132548 0.700808 0.817133
O O9 0.176147 0.597048 0.857837
O O10 0.114160 0.651424 0.000000
O O11 0.584907 0.710431 0.898848
O O12 0.500000 0.657792 0.000000
O O13 0.611539 0.611539 0.000000
O O14 0.210993 0.210993 0.236341
O O15 0.218366 0.107540 0.324993
O O16 0.500000 0.765121 0.196775
O O17 0.173235 0.070732 0.500000
O O18 0.103954 0.103954 0.352482
O O19 0.165142 0.000000 0.343203
#
# Coordination Sequence:
#
# PCOD9561840 Si02
#       7
#     8  16  16   8  16  16  16
#     4   9  18  30  46  64  89 123 158 193 233 278
#     4   9  17  30  47  67  93 123 155 190 229 276
#     4  10  19  31  46  69  93 123 156 195 236 283
#     4  10  20  33  50  71  97 125 155 191 232 284
#     4   9  18  30  45  67  93 122 154 192 236 281
#     4  10  19  31  48  70  95 122 154 193 236 279
#     4   9  17  29  46  67  91 119 150 189 235 284
#
# _framework density 14.855543000000001
#
# number of rings (size 3 to 8) (size 9 to 14) (size 15 to 20)
#    0.000    2.583    0.833    1.500    1.167    4.250 
#    0.000    0.833    0.000    0.000    0.000    0.000 
#    0.000    7.000    0.000   19.167    0.000    0.167 
#
# Total GULP energy -534906.811447 kJ/mol
# GULP energy per Si atom -5571.945953 kJ/mol
# Density = 1.482173 g / cm^3
# Si number density = 14.855543 Si / 1000 Ang^3
#
#
#
# Elastic Constant Matrix: (Units=GPa)
#
#
# Indices 1 2 3 4 5 6 
#
# 1 105.2823 61.2326 48.6461 0.0000 0.0000 0.0000
# 2 61.2326 105.2823 48.6461 0.0000 0.0000 0.0000
# 3 48.6461 48.6461 85.6332 0.0000 0.0000 0.0000
# 4 0.0000 0.0000 0.0000 17.1032 0.0000 0.0000
# 5 0.0000 0.0000 0.0000 0.0000 17.1032 0.0000
# 6 0.0000 0.0000 0.0000 0.0000 0.0000 18.2876
#
#
#
# Elastic Compliance Matrix: (Units=1/GPa)
#
#
# Indices 1 2 3 4 5 6 
#
# 1 0.015845 -0.006856 -0.005106 0.000000 0.000000 0.000000
# 2 -0.006856 0.015845 -0.005106 0.000000 0.000000 0.000000
# 3 -0.005106 -0.005106 0.017479 0.000000 0.000000 0.000000
# 4 0.000000 0.000000 0.000000 0.058468 0.000000 0.000000
# 5 0.000000 0.000000 0.000000 0.000000 0.058468 0.000000
# 6 0.000000 0.000000 0.000000 0.000000 0.000000 0.054682
#
#
# Mechanical properties :
#
#
# Convention : Reuss Voigt Hill
#
# Bulk Modulus (GPa) = 66.52598 68.13858 67.33228
# Shear Modulus (GPa) = 19.23536 19.67703 19.45620
#
# Velocity S-wave (km/s) = 3.60227 3.64340 3.62289
# Velocity P-wave (km/s) = 7.88549 7.97911 7.93244
#
# Compressibility (1/GPa) = 0.01503172
#
# Stress axis : x y z
#
# Youngs Moduli (GPa) = 63.10998 63.10998 57.21006
#
# Poissons Ratio (x) = 0.43270 0.29214
# Poissons Ratio (y) = 0.43270 0.29214
# Poissons Ratio (z) = 0.32227 0.32227
#
# Static dielectric constant tensor:
#      x y z
#    x 1.480310 0.000000 0.000000 
#    y 0.000000 1.480310 0.000000 
#    z 0.000000 0.000000 1.476640 
# 
# From -- ./inp_files/3216.got.cif
#   From: 2010.05.17/outbox.cif.g08.bks.cpg/sg123_2_cif.got.tgz:3216.got - 2010.05.20 11:43:04.
