data_PCOD9561663
_publ_section_title
;
Structure prediction by ZEFSAII (Michael W. Deem and Ramdas Pophale) SiO2 
 PCOD9561663
Probable space group: P 4/M M M
;
_chemical_formula_sum "Si O2"
_cell_formula_units_Z 96
_cell_length_a 15.465156
_cell_length_b 15.465156
_cell_length_c 23.276625
_cell_angle_alpha 90.000000
_cell_angle_beta 90.000000
_cell_angle_gamma 90.000000
_cell_volume 5567.094844
_symmetry_space_group_name_H-M "P 4/M M M"
_symmetry_group_IT_number 123
_symmetry_cell_setting 'tetragonal'
loop_
_space_group_symop_operation_xyz
x,y,z
-y,x,z
-x,-y,z
y,-x,z
x,-y,-z
-x,y,-z
y,x,-z
-y,-x,-z
-x,-y,-z
y,-x,-z
x,y,-z
-y,x,-z
-x,y,z
x,-y,z
-y,-x,z
y,x,z
loop_
_atom_site_type_symbol
_atom_site_label
_atom_site_fract_x
_atom_site_fract_y
_atom_site_fract_z
Si Si1 0.596813 0.260134 0.262343
Si Si2 0.097241 0.315118 0.214513
Si Si3 0.104147 0.600864 0.000000
Si Si4 0.160245 0.403549 0.619864
Si Si5 0.741545 0.402746 0.500000
Si Si6 0.230964 0.906919 0.663113
Si Si7 0.753677 0.897716 0.086855
O O1 0.500000 0.290904 0.250917
O O2 0.669000 0.331001 0.249925
O O3 0.617305 0.173298 0.226561
O O4 0.602453 0.231952 0.329409
O O5 0.101686 0.250625 0.268916
O O6 0.108909 0.266432 0.154584
O O7 0.000000 0.353381 0.214862
O O8 0.126011 0.664198 0.946300
O O9 0.136236 0.500000 0.000000
O O10 0.000000 0.593701 0.000000
O O11 0.121675 0.500000 0.624696
O O12 0.201783 0.394096 0.557449
O O13 0.098543 0.323987 0.633144
O O14 0.705112 0.500000 0.500000
O O15 0.667428 0.332573 0.500000
O O16 0.171296 0.828705 0.644005
O O17 0.190214 0.000000 0.652472
O O18 0.832096 0.832096 0.072151
O O19 0.772633 0.000000 0.074121
#
# Coordination Sequence:
#
# PCOD9561663 Si02
#       7
#    16  16   8  16   8  16  16
#     4  10  19  31  47  68  97 129 161 200 242 288
#     4   9  18  32  51  73  97 127 162 202 248 292
#     4   9  19  34  49  67  95 131 169 207 239 266
#     4   9  18  32  50  70  92 121 157 198 244 291
#     4  10  18  29  47  69  94 124 156 192 239 298
#     4  10  19  32  50  71  98 129 160 198 241 288
#     4  10  19  32  51  75 104 134 163 198 242 296
#
# _framework density 17.244183
#
# number of rings (size 3 to 8) (size 9 to 14) (size 15 to 20)
#    0.000    2.417    0.000    4.250    0.000    1.917 
#    0.000    5.417    0.000    9.000    0.000    0.000 
#    0.000    4.667    0.000    0.000    0.000    0.333 
#
# Total GULP energy -534719.700267 kJ/mol
# GULP energy per Si atom -5569.996878 kJ/mol
# Density = 1.720493 g / cm^3
# Si number density = 17.244183 Si / 1000 Ang^3
#
#
#
# Elastic Constant Matrix: (Units=GPa)
#
#
# Indices 1 2 3 4 5 6 
#
# 1 95.6003 67.0010 34.9326 0.0000 0.0000 0.0000
# 2 67.0010 95.6009 34.9340 0.0000 0.0000 0.0000
# 3 34.9326 34.9340 71.0981 0.0000 0.0000 0.0000
# 4 0.0000 0.0000 0.0000 11.4612 0.0000 0.0000
# 5 0.0000 0.0000 0.0000 0.0000 11.4601 0.0000
# 6 0.0000 0.0000 0.0000 0.0000 0.0000 3.9531
#
#
#
# Elastic Compliance Matrix: (Units=1/GPa)
#
#
# Indices 1 2 3 4 5 6 
#
# 1 0.021381 -0.013585 -0.003830 0.000000 0.000000 0.000000
# 2 -0.013585 0.021381 -0.003831 0.000000 0.000000 0.000000
# 3 -0.003830 -0.003831 0.017829 0.000000 0.000000 0.000000
# 4 0.000000 0.000000 0.000000 0.087251 0.000000 0.000000
# 5 0.000000 0.000000 0.000000 0.000000 0.087259 0.000000
# 6 0.000000 0.000000 0.000000 0.000000 0.000000 0.252968
#
#
# Mechanical properties :
#
#
# Convention : Reuss Voigt Hill
#
# Bulk Modulus (GPa) = 55.25110 59.55942 57.40526
# Shear Modulus (GPa) = 9.31806 13.73699 11.52752
#
# Velocity S-wave (km/s) = 2.32709 2.82550 2.58832
# Velocity P-wave (km/s) = 6.27140 6.72744 6.50342
#
# Compressibility (1/GPa) = 0.01809919
#
# Stress axis : x y z
#
# Youngs Moduli (GPa) = 46.77136 46.77087 56.08797
#
# Poissons Ratio (x) = 0.63538 0.21482
# Poissons Ratio (y) = 0.63538 0.21486
# Poissons Ratio (z) = 0.17913 0.17917
#
# Static dielectric constant tensor:
#      x y z
#    x 1.582520 0.000000 0.000000 
#    y 0.000000 1.582520 0.000000 
#    z 0.000000 0.000000 1.590090 
# 
# From -- ./inp_files/7418.got.cif
#   From: 2010.05.17/outbox.cif.g08.bks.cpg/sg123_4_cif.got.tgz:7418.got - 2010.05.20 11:43:04.
