data_PCOD9561793
_publ_section_title
;
Structure prediction by ZEFSAII (Michael W. Deem and Ramdas Pophale) SiO2 
 PCOD9561793
Probable space group: P 4/M M M
;
_chemical_formula_sum "Si O2"
_cell_formula_units_Z 72
_cell_length_a 13.672797
_cell_length_b 13.672797
_cell_length_c 23.368971
_cell_angle_alpha 90.000000
_cell_angle_beta 90.000000
_cell_angle_gamma 90.000000
_cell_volume 4368.721112
_symmetry_space_group_name_H-M "P 4/M M M"
_symmetry_group_IT_number 123
_symmetry_cell_setting 'tetragonal'
loop_
_space_group_symop_operation_xyz
x,y,z
-y,x,z
-x,-y,z
y,-x,z
x,-y,-z
-x,y,-z
y,x,-z
-y,-x,-z
-x,-y,-z
y,-x,-z
x,y,-z
-y,x,-z
-x,y,z
x,-y,z
-y,-x,z
y,x,z
loop_
_atom_site_type_symbol
_atom_site_label
_atom_site_fract_x
_atom_site_fract_y
_atom_site_fract_z
Si Si1 0.224395 0.382387 0.500000
Si Si2 0.381485 0.111547 0.384437
Si Si3 0.383129 0.776301 0.732023
Si Si4 0.774655 0.614220 0.067482
Si Si5 0.722266 0.884869 0.835080
O O1 0.235872 0.500000 0.500000
O O2 0.327213 0.327213 0.500000
O O3 0.164635 0.353276 0.556814
O O4 0.500000 0.107189 0.385088
O O5 0.355689 0.173103 0.328256
O O6 0.345251 0.000000 0.381599
O O7 0.500000 0.765580 0.734996
O O8 0.326059 0.673942 0.736815
O O9 0.343768 0.844866 0.782889
O O10 0.764261 0.500000 0.081557
O O11 0.674471 0.674471 0.077777
O O12 0.855153 0.665213 0.107064
O O13 0.797604 0.622611 0.000000
O O14 0.822327 0.822327 0.833876
O O15 0.737675 0.000000 0.831029
#
# Coordination Sequence:
#
# PCOD9561793 Si02
#       5
#     8  16  16  16  16
#     4  10  19  30  45  67  96 128 161 197 240 295
#     4   9  17  30  48  68  91 122 160 201 242 280
#     4  10  20  33  50  74 103 133 164 197 236 287
#     4   9  18  32  50  74 103 133 165 200 239 287
#     4  10  21  36  53  73  97 126 163 207 252 296
#
# _framework density 16.480796000000002
#
# number of rings (size 3 to 8) (size 9 to 14) (size 15 to 20)
#    0.000    2.444    0.000    2.333    0.000    5.222 
#    0.000    2.222    0.000    8.000    0.000    3.111 
#    0.000   16.889    0.000    0.000    0.000    0.000 
#
# Total GULP energy -401483.182312 kJ/mol
# GULP energy per Si atom -5576.155310 kJ/mol
# Density = 1.644329 g / cm^3
# Si number density = 16.480796 Si / 1000 Ang^3
#
#
#
# Elastic Constant Matrix: (Units=GPa)
#
#
# Indices 1 2 3 4 5 6 
#
# 1 40.2856 139.2975 55.2288 0.0000 0.0000 0.0000
# 2 139.2975 40.2856 55.2288 0.0000 0.0000 0.0000
# 3 55.2288 55.2288 86.1190 0.0000 0.0000 0.0000
# 4 0.0000 0.0000 0.0000 19.0133 0.0000 0.0000
# 5 0.0000 0.0000 0.0000 0.0000 19.0133 0.0000
# 6 0.0000 0.0000 0.0000 0.0000 0.0000 5.0252
#
#
#
# Elastic Compliance Matrix: (Units=1/GPa)
#
#
# Indices 1 2 3 4 5 6 
#
# 1 -0.000452 0.009648 -0.005897 0.000000 0.000000 0.000000
# 2 0.009648 -0.000452 -0.005897 0.000000 0.000000 0.000000
# 3 -0.005897 -0.005897 0.019176 0.000000 0.000000 0.000000
# 4 0.000000 0.000000 0.000000 0.052595 0.000000 0.000000
# 5 0.000000 0.000000 0.000000 0.000000 0.052595 0.000000
# 6 0.000000 0.000000 0.000000 0.000000 0.000000 0.198999
#
#
# Mechanical properties :
#
#
# Convention : Reuss Voigt Hill
#
# Bulk Modulus (GPa) = 71.54053 74.02228 72.78141
# Shear Modulus (GPa) = 15.08692 3.07270 9.07981
#
# Velocity S-wave (km/s) = 3.02888 1.36692 2.34974
# Velocity P-wave (km/s) = 7.46558 6.89225 7.18463
#
# Compressibility (1/GPa) = 0.01397809
#
# Stress axis : x y z
#
# Youngs Moduli (GPa) = -2212.30331 -2212.30331 52.14894
#
# Poissons Ratio (x) = 21.34383 0.30754
# Poissons Ratio (y) = 21.34383 0.30754
# Poissons Ratio (z) = -13.04667 -13.04667
#
# Static dielectric constant tensor:
#      x y z
#    x 1.531440 0.000000 0.000000 
#    y 0.000000 1.531440 0.000000 
#    z 0.000000 0.000000 1.565310 
# 
# From -- ./inp_files/7856.got.cif
#   From: 2010.05.17/outbox.cif.g08.bks.cpg/sg123_4_cif.got.tgz:7856.got - 2010.05.20 11:43:04.
