data_PCOD9561983
_publ_section_title
;
Structure prediction by ZEFSAII (Michael W. Deem and Ramdas Pophale) SiO2 
 PCOD9561983
Probable space group: P 4/M M M
;
_chemical_formula_sum "Si O2"
_cell_formula_units_Z 64
_cell_length_a 13.699496
_cell_length_b 13.699496
_cell_length_c 20.730082
_cell_angle_alpha 90.000000
_cell_angle_beta 90.000000
_cell_angle_gamma 90.000000
_cell_volume 3890.542822
_symmetry_space_group_name_H-M "P 4/M M M"
_symmetry_group_IT_number 123
_symmetry_cell_setting 'tetragonal'
loop_
_space_group_symop_operation_xyz
x,y,z
-y,x,z
-x,-y,z
y,-x,z
x,-y,-z
-x,y,-z
y,x,-z
-y,-x,-z
-x,-y,-z
y,-x,-z
x,y,-z
-y,x,-z
-x,y,z
x,-y,z
-y,-x,z
y,x,z
loop_
_atom_site_type_symbol
_atom_site_label
_atom_site_fract_x
_atom_site_fract_y
_atom_site_fract_z
Si Si1 0.881552 0.387478 0.571927
Si Si2 0.113892 0.726072 0.076173
Si Si3 0.883335 0.725757 0.299300
Si Si4 0.614832 0.222779 0.185077
O O1 0.849334 0.356866 0.500000
O O2 0.850541 0.500000 0.582406
O O3 0.854284 0.319375 0.631324
O O4 0.000000 0.388335 0.571111
O O5 0.174000 0.826001 0.087966
O O6 0.165298 0.645329 0.120226
O O7 0.000000 0.736073 0.092452
O O8 0.121805 0.703785 0.000000
O O9 0.828128 0.828128 0.290386
O O10 0.843088 0.653763 0.244210
O O11 0.000000 0.734172 0.295731
O O12 0.500000 0.238656 0.188926
O O13 0.677599 0.322402 0.186563
#
# Coordination Sequence:
#
# PCOD9561983 Si02
#       4
#    16  16  16  16
#     4   8  14  26  45  67  89 116 154 199 242 280
#     4   9  18  32  50  74 103 133 165 199 234 275
#     4  10  20  32  47  69  97 129 164 200 238 283
#     4  10  21  36  53  73  96 122 156 199 245 293
#
# _framework density 16.450147000000001
#
# number of rings (size 3 to 8) (size 9 to 14) (size 15 to 20)
#    0.000    2.750    0.000    2.250    0.000    4.750 
#    0.000    2.500    0.000    4.500    0.000    7.000 
#    0.000    0.000    0.000   23.250    0.000    1.250 
#
# Total GULP energy -356647.482895 kJ/mol
# GULP energy per Si atom -5572.616920 kJ/mol
# Density = 1.641271 g / cm^3
# Si number density = 16.450147 Si / 1000 Ang^3
#
#
#
# Elastic Constant Matrix: (Units=GPa)
#
#
# Indices 1 2 3 4 5 6 
#
# 1 99.0133 72.2093 54.2764 0.0000 0.0000 0.0000
# 2 72.2093 99.0133 54.2764 0.0000 0.0000 0.0000
# 3 54.2764 54.2764 74.6957 0.0000 0.0000 0.0000
# 4 0.0000 0.0000 0.0000 21.8150 0.0000 0.0000
# 5 0.0000 0.0000 0.0000 0.0000 21.8150 0.0000
# 6 0.0000 0.0000 0.0000 0.0000 0.0000 4.4252
#
#
#
# Elastic Compliance Matrix: (Units=1/GPa)
#
#
# Indices 1 2 3 4 5 6 
#
# 1 0.024068 -0.013239 -0.007869 0.000000 0.000000 0.000000
# 2 -0.013239 0.024068 -0.007869 0.000000 0.000000 0.000000
# 3 -0.007869 -0.007869 0.024823 0.000000 0.000000 0.000000
# 4 0.000000 0.000000 0.000000 0.045840 0.000000 0.000000
# 5 0.000000 0.000000 0.000000 0.000000 0.045840 0.000000
# 6 0.000000 0.000000 0.000000 0.000000 0.000000 0.225979
#
#
# Mechanical properties :
#
#
# Convention : Reuss Voigt Hill
#
# Bulk Modulus (GPa) = 66.63941 70.47183 68.55562
# Shear Modulus (GPa) = 11.02354 15.74171 13.38262
#
# Velocity S-wave (km/s) = 2.59147 3.09679 2.85533
# Velocity P-wave (km/s) = 7.03933 7.46455 7.25505
#
# Compressibility (1/GPa) = 0.01500614
#
# Stress axis : x y z
#
# Youngs Moduli (GPa) = 41.54817 41.54817 40.28518
#
# Poissons Ratio (x) = 0.55007 0.31699
# Poissons Ratio (y) = 0.55007 0.31699
# Poissons Ratio (z) = 0.32693 0.32693
#
# Static dielectric constant tensor:
#      x y z
#    x 1.529640 0.000000 0.000000 
#    y 0.000000 1.529640 0.000000 
#    z 0.000000 0.000000 1.577750 
# 
# From -- ./inp_files/4937.got.cif
#   From: 2010.05.17/outbox.cif.g08.bks.cpg/sg123_3_cif.got.tgz:4937.got - 2010.05.20 11:43:04.
