data_PCOD9561410
_publ_section_title
;
Structure prediction by ZEFSAII (Michael W. Deem and Ramdas Pophale) SiO2 
 PCOD9561410
Probable space group: I -4 2 D
;
_chemical_formula_sum "Si O2"
_cell_formula_units_Z 88
_cell_length_a 10.916952
_cell_length_b 10.916952
_cell_length_c 34.775641
_cell_angle_alpha 90.000000
_cell_angle_beta 90.000000
_cell_angle_gamma 90.000000
_cell_volume 4144.555364
_symmetry_space_group_name_H-M "I -4 2 D"
_symmetry_group_IT_number 122
_symmetry_cell_setting 'tetragonal'
loop_
_space_group_symop_operation_xyz
x,y,z
y,-x,-z
-x,-y,z
-y,x,-z
x,1/2-y,1/4-z
-x,1/2+y,1/4-z
-y,1/2-x,1/4+z
y,1/2+x,1/4+z
1/2+x,1/2+y,1/2+z
1/2+y,1/2-x,1/2-z
1/2-x,1/2-y,1/2+z
1/2-y,1/2+x,1/2-z
1/2+x,-y,3/4-z
1/2-x,y,3/4-z
1/2-y,-x,3/4+z
1/2+y,x,3/4+z
loop_
_atom_site_type_symbol
_atom_site_label
_atom_site_fract_x
_atom_site_fract_y
_atom_site_fract_z
Si Si1 0.586347 0.684233 0.331990
Si Si2 0.309374 0.921164 0.753119
Si Si3 0.810117 0.454329 0.744165
Si Si4 0.750000 0.852455 0.375000
Si Si5 0.930288 0.123993 0.700193
Si Si6 0.186773 0.589540 0.415924
O O1 0.610749 0.762887 0.293884
O O2 0.634905 0.764642 0.366764
O O3 0.655364 0.555199 0.331814
O O4 0.442932 0.657537 0.333182
O O5 0.434885 0.847380 0.744745
O O6 0.200701 0.900870 0.721694
O O7 0.261709 0.881766 0.795414
O O8 0.914851 0.374273 0.764284
O O9 0.693199 0.484502 0.769267
O O10 0.789093 0.923191 0.337008
O O11 0.000000 0.000000 0.689638
O O12 0.250000 0.614215 0.375000
#
# Coordination Sequence:
#
# PCOD9561410 Si02
#       6
#    16  16  16   8  16  16
#     4  11  23  43  68  98 141 184 230 290 352 412
#     4  11  26  44  71 106 143 185 232 292 361 424
#     4  11  24  45  74 100 135 189 240 281 344 426
#     4  12  26  46  68 100 148 182 230 300 346 410
#     4  12  27  45  74 103 142 185 237 295 351 416
#     4  11  24  40  69 103 139 185 237 285 351 424
#
# _framework density 21.232676000000001
#
# number of rings (size 3 to 8) (size 9 to 14) (size 15 to 20)
#    0.000    0.727    4.545    2.182    5.091    2.909 
#    0.000    0.000    0.000    0.000    0.000    0.000 
#    0.000    0.000    0.000    0.000    0.000    0.000 
#
# Total GULP energy -246039.065911 kJ/mol
# GULP energy per Si atom -5591.796953 kJ/mol
# Density = 2.118435 g / cm^3
# Si number density = 21.232676 Si / 1000 Ang^3
#
#
#
# Elastic Constant Matrix: (Units=GPa)
#
#
# Indices 1 2 3 4 5 6 
#
# 1 58.3600 4.5727 15.9134 0.0000 0.0000 0.0000
# 2 4.5727 58.3600 15.9134 0.0000 0.0000 0.0000
# 3 15.9134 15.9134 95.4687 0.0000 0.0000 0.0000
# 4 0.0000 0.0000 0.0000 16.8164 0.0000 0.0000
# 5 0.0000 0.0000 0.0000 0.0000 16.8164 0.0000
# 6 0.0000 0.0000 0.0000 0.0000 0.0000 24.9034
#
#
#
# Elastic Compliance Matrix: (Units=1/GPa)
#
#
# Indices 1 2 3 4 5 6 
#
# 1 0.017972 -0.000619 -0.002892 0.000000 0.000000 0.000000
# 2 -0.000619 0.017972 -0.002892 0.000000 0.000000 0.000000
# 3 -0.002892 -0.002892 0.011439 0.000000 0.000000 0.000000
# 4 0.000000 0.000000 0.000000 0.059466 0.000000 0.000000
# 5 0.000000 0.000000 0.000000 0.000000 0.059466 0.000000
# 6 0.000000 0.000000 0.000000 0.000000 0.000000 0.040155
#
#
# Mechanical properties :
#
#
# Convention : Reuss Voigt Hill
#
# Bulk Modulus (GPa) = 28.92300 31.66530 30.29415
# Shear Modulus (GPa) = 21.66339 23.42651 22.54495
#
# Velocity S-wave (km/s) = 3.19766 3.32523 3.26207
# Velocity P-wave (km/s) = 5.22349 5.44874 5.33730
#
# Compressibility (1/GPa) = 0.03457456
#
# Stress axis : x y z
#
# Youngs Moduli (GPa) = 55.64126 55.64126 87.42083
#
# Poissons Ratio (x) = 0.03447 0.25286
# Poissons Ratio (y) = 0.03447 0.25286
# Poissons Ratio (z) = 0.16094 0.16094
#
# Static dielectric constant tensor:
#      x y z
#    x 1.756710 0.000000 0.000000 
#    y 0.000000 1.756710 0.000000 
#    z 0.000000 0.000000 1.741300 
# 
# From -- ./inp_files/9515.got.cif
#   From: 2010.05.17/outbox.cif.g08.bks.cpg/sg122_5_cif.got.tgz:9515.got - 2010.05.20 11:37:33.
