data_PCOD9561517
_publ_section_title
;
Structure prediction by ZEFSAII (Michael W. Deem and Ramdas Pophale) SiO2 
 PCOD9561517
Probable space group: I -4 2 D
;
_chemical_formula_sum "Si O2"
_cell_formula_units_Z 64
_cell_length_a 12.244783
_cell_length_b 12.244783
_cell_length_c 19.560517
_cell_angle_alpha 90.000000
_cell_angle_beta 90.000000
_cell_angle_gamma 90.000000
_cell_volume 2932.800458
_symmetry_space_group_name_H-M "I -4 2 D"
_symmetry_group_IT_number 122
_symmetry_cell_setting 'tetragonal'
loop_
_space_group_symop_operation_xyz
x,y,z
y,-x,-z
-x,-y,z
-y,x,-z
x,1/2-y,1/4-z
-x,1/2+y,1/4-z
-y,1/2-x,1/4+z
y,1/2+x,1/4+z
1/2+x,1/2+y,1/2+z
1/2+y,1/2-x,1/2-z
1/2-x,1/2-y,1/2+z
1/2-y,1/2+x,1/2-z
1/2+x,-y,3/4-z
1/2-x,y,3/4-z
1/2-y,-x,3/4+z
1/2+y,x,3/4+z
loop_
_atom_site_type_symbol
_atom_site_label
_atom_site_fract_x
_atom_site_fract_y
_atom_site_fract_z
Si Si1 0.213926 0.891766 0.295176
Si Si2 0.860509 0.201947 0.753846
Si Si3 0.601582 0.067105 0.861085
Si Si4 0.008769 0.757864 0.990265
O O1 0.250000 0.884669 0.375000
O O2 0.302366 0.818329 0.255140
O O3 0.098636 0.835382 0.274576
O O4 0.210280 0.017568 0.273653
O O5 0.860331 0.150598 0.830429
O O6 0.788167 0.108935 0.717242
O O7 0.546211 0.141247 0.804017
O O8 0.500000 0.000000 0.891976
O O9 0.691438 0.000512 0.816805
#
# Coordination Sequence:
#
# PCOD9561517 Si02
#       4
#    16  16  16  16
#     4  12  26  50  71 103 153 196 249 297 365 460
#     4  12  27  45  72 104 146 201 245 302 367 445
#     4  12  21  41  74 112 142 179 240 316 393 436
#     4  12  21  44  72 105 145 182 241 314 379 433
#
# _framework density 21.822144000000002
#
# number of rings (size 3 to 8) (size 9 to 14) (size 15 to 20)
#    0.000    0.000    7.500    3.000    0.000    2.500 
#    4.500    2.500    0.000    0.000    0.000    0.000 
#    0.000    0.000    0.000    0.000    0.000    0.000 
#
# Total GULP energy -178723.577028 kJ/mol
# GULP energy per Si atom -5585.111782 kJ/mol
# Density = 2.177248 g / cm^3
# Si number density = 21.822144 Si / 1000 Ang^3
#
#
#
# Elastic Constant Matrix: (Units=GPa)
#
#
# Indices 1 2 3 4 5 6 
#
# 1 121.9236 38.6613 23.3449 0.0000 0.0000 0.0000
# 2 38.6613 121.9236 23.3449 0.0000 0.0000 0.0000
# 3 23.3449 23.3449 67.1235 0.0000 0.0000 0.0000
# 4 0.0000 0.0000 0.0000 31.0310 0.0000 0.0000
# 5 0.0000 0.0000 0.0000 0.0000 31.0310 0.0000
# 6 0.0000 0.0000 0.0000 0.0000 0.0000 34.3515
#
#
#
# Elastic Compliance Matrix: (Units=1/GPa)
#
#
# Indices 1 2 3 4 5 6 
#
# 1 0.009469 -0.002541 -0.002409 0.000000 0.000000 0.000000
# 2 -0.002541 0.009469 -0.002409 0.000000 0.000000 0.000000
# 3 -0.002409 -0.002409 0.016574 0.000000 0.000000 0.000000
# 4 0.000000 0.000000 0.000000 0.032226 0.000000 0.000000
# 5 0.000000 0.000000 0.000000 0.000000 0.032226 0.000000
# 6 0.000000 0.000000 0.000000 0.000000 0.000000 0.029111
#
#
# Mechanical properties :
#
#
# Convention : Reuss Voigt Hill
#
# Bulk Modulus (GPa) = 48.09604 53.51923 50.80763
# Shear Modulus (GPa) = 33.17301 34.32402 33.74852
#
# Velocity S-wave (km/s) = 3.90314 3.97028 3.93686
# Velocity P-wave (km/s) = 6.51157 6.75248 6.63312
#
# Compressibility (1/GPa) = 0.02079173
#
# Stress axis : x y z
#
# Youngs Moduli (GPa) = 105.60769 105.60770 60.33604
#
# Poissons Ratio (x) = 0.26837 0.14537
# Poissons Ratio (y) = 0.26837 0.14537
# Poissons Ratio (z) = 0.25445 0.25445
#
# Static dielectric constant tensor:
#      x y z
#    x 1.760630 0.000000 0.000000 
#    y 0.000000 1.760630 0.000000 
#    z 0.000000 0.000000 1.852820 
# 
# From -- ./inp_files/6914.got.cif
#   From: 2010.05.17/outbox.cif.g08.bks.cpg/sg122_4_cif.got.tgz:6914.got - 2010.05.20 11:37:33.
