data_PCOD9561040
_publ_section_title
;
Structure prediction by ZEFSAII (Michael W. Deem and Ramdas Pophale) SiO2 
 PCOD9561040
Probable space group: I -4 2 D
;
_chemical_formula_sum "Si O2"
_cell_formula_units_Z 88
_cell_length_a 13.203234
_cell_length_b 13.203234
_cell_length_c 19.372628
_cell_angle_alpha 90.000000
_cell_angle_beta 90.000000
_cell_angle_gamma 90.000000
_cell_volume 3377.140894
_symmetry_space_group_name_H-M "I -4 2 D"
_symmetry_group_IT_number 122
_symmetry_cell_setting 'tetragonal'
loop_
_space_group_symop_operation_xyz
x,y,z
y,-x,-z
-x,-y,z
-y,x,-z
x,1/2-y,1/4-z
-x,1/2+y,1/4-z
-y,1/2-x,1/4+z
y,1/2+x,1/4+z
1/2+x,1/2+y,1/2+z
1/2+y,1/2-x,1/2-z
1/2-x,1/2-y,1/2+z
1/2-y,1/2+x,1/2-z
1/2+x,-y,3/4-z
1/2-x,y,3/4-z
1/2-y,-x,3/4+z
1/2+y,x,3/4+z
loop_
_atom_site_type_symbol
_atom_site_label
_atom_site_fract_x
_atom_site_fract_y
_atom_site_fract_z
Si Si1 0.753432 0.947171 0.228572
Si Si2 0.397127 0.825636 0.411440
Si Si3 0.502540 0.750000 0.125000
Si Si4 0.399948 0.876355 0.747619
Si Si5 0.523506 0.615703 0.722327
Si Si6 0.820334 0.145113 0.147512
O O1 0.713206 0.942283 0.306908
O O2 0.772472 0.060679 0.196559
O O3 0.683031 0.901090 0.170321
O O4 0.856341 0.880708 0.217266
O O5 0.325193 0.922757 0.416467
O O6 0.373112 0.718423 0.451735
O O7 0.499039 0.862457 0.448037
O O8 0.515170 0.878688 0.717741
O O9 0.337676 0.897435 0.678204
O O10 0.500000 0.500000 0.703729
O O11 0.431055 0.671318 0.682110
O O12 0.768700 0.250000 0.125000
#
# Coordination Sequence:
#
# PCOD9561040 Si02
#       6
#    16  16   8  16  16  16
#     4  11  25  45  68  96 134 180 228 285 344 402
#     4  12  24  44  71 102 132 181 228 284 342 409
#     4  12  26  48  66  94 134 172 240 298 316 384
#     4  11  22  36  64 106 142 172 212 263 347 438
#     4  10  21  42  67  91 133 181 216 269 343 406
#     4  11  19  38  66  95 137 172 210 273 338 410
#
# _framework density 26.057544
#
# number of rings (size 3 to 8) (size 9 to 14) (size 15 to 20)
#    0.000    0.909    7.273    1.091    5.091    2.909 
#    6.545    0.000    0.000    0.000    0.000    0.000 
#    0.000    0.000    0.000    0.000    0.000    0.000 
#
# Total GULP energy -245064.971496 kJ/mol
# GULP energy per Si atom -5569.658443 kJ/mol
# Density = 2.599824 g / cm^3
# Si number density = 26.057544 Si / 1000 Ang^3
#
#
#
# Elastic Constant Matrix: (Units=GPa)
#
#
# Indices 1 2 3 4 5 6 
#
# 1 25.5434 27.6121 6.5785 0.0000 0.0000 0.0000
# 2 27.6121 25.5434 6.5785 0.0000 0.0000 0.0000
# 3 6.5785 6.5785 168.6631 0.0000 0.0000 0.0000
# 4 0.0000 0.0000 0.0000 33.8794 0.0000 0.0000
# 5 0.0000 0.0000 0.0000 0.0000 33.8794 0.0000
# 6 0.0000 0.0000 0.0000 0.0000 0.0000 4.8238
#
#
#
# Elastic Compliance Matrix: (Units=1/GPa)
#
#
# Indices 1 2 3 4 5 6 
#
# 1 -0.232197 0.251193 -0.000741 0.000000 0.000000 0.000000
# 2 0.251193 -0.232197 -0.000741 0.000000 0.000000 0.000000
# 3 -0.000741 -0.000741 0.005987 0.000000 0.000000 0.000000
# 4 0.000000 0.000000 0.000000 0.029516 0.000000 0.000000
# 5 0.000000 0.000000 0.000000 0.000000 0.029516 0.000000
# 6 0.000000 0.000000 0.000000 0.000000 0.000000 0.207304
#
#
# Mechanical properties :
#
#
# Convention : Reuss Voigt Hill
#
# Bulk Modulus (GPa) = 24.38110 33.47644 28.92877
# Shear Modulus (GPa) = -7.37660 26.44859 9.53600
#
# Velocity S-wave (km/s) = -1.68435 3.18937 1.91508
# Velocity P-wave (km/s) = 2.36521 5.14177 4.00200
#
# Compressibility (1/GPa) = 0.04101537
#
# Stress axis : x y z
#
# Youngs Moduli (GPa) = -4.30670 -4.30669 167.03478
#
# Poissons Ratio (x) = 1.08181 0.12376
# Poissons Ratio (y) = 1.08181 0.12376
# Poissons Ratio (z) = -0.00319 -0.00319
#
# Static dielectric constant tensor:
#      x y z
#    x 2.494910 0.000000 0.000000 
#    y 0.000000 2.494910 0.000000 
#    z 0.000000 0.000000 2.342240 
# 
# From -- ./inp_files/7183.got.cif
#   From: 2010.05.17/outbox.cif.g08.bks.cpg/sg122_4_cif.got.tgz:7183.got - 2010.05.20 11:37:33.
