data_PCOD9561002
_publ_section_title
;
Structure prediction by ZEFSAII (Michael W. Deem and Ramdas Pophale) SiO2 
 PCOD9561002
Probable space group: I -4 2 D
;
_chemical_formula_sum "Si O2"
_cell_formula_units_Z 72
_cell_length_a 18.514547
_cell_length_b 18.514547
_cell_length_c 11.539058
_cell_angle_alpha 90.000000
_cell_angle_beta 90.000000
_cell_angle_gamma 90.000000
_cell_volume 3955.455813
_symmetry_space_group_name_H-M "I -4 2 D"
_symmetry_group_IT_number 122
_symmetry_cell_setting 'tetragonal'
loop_
_space_group_symop_operation_xyz
x,y,z
y,-x,-z
-x,-y,z
-y,x,-z
x,1/2-y,1/4-z
-x,1/2+y,1/4-z
-y,1/2-x,1/4+z
y,1/2+x,1/4+z
1/2+x,1/2+y,1/2+z
1/2+y,1/2-x,1/2-z
1/2-x,1/2-y,1/2+z
1/2-y,1/2+x,1/2-z
1/2+x,-y,3/4-z
1/2-x,y,3/4-z
1/2-y,-x,3/4+z
1/2+y,x,3/4+z
loop_
_atom_site_type_symbol
_atom_site_label
_atom_site_fract_x
_atom_site_fract_y
_atom_site_fract_z
Si Si1 0.354349 0.750000 0.625000
Si Si2 0.255879 0.622942 0.512852
Si Si3 0.513948 0.381621 0.011794
Si Si4 0.102275 0.679835 0.547790
Si Si5 0.537209 0.247869 0.417298
O O1 0.305039 0.683347 0.577421
O O2 0.408470 0.772413 0.520887
O O3 0.250000 0.636727 0.375000
O O4 0.173089 0.631378 0.554101
O O5 0.277916 0.539722 0.537017
O O6 0.532591 0.351641 0.138240
O O7 0.439251 0.423313 0.013154
O O8 0.519408 0.319141 0.917040
O O9 0.120856 0.750000 0.625000
O O10 0.080559 0.698091 0.417117
#
# Coordination Sequence:
#
# PCOD9561002 Si02
#       5
#     8  16  16  16  16
#     4  12  26  40  66  96 122 172 212 256 324 370
#     4  12  23  42  64  89 132 166 208 265 303 381
#     4  10  21  38  61  89 123 161 204 257 314 375
#     4  10  21  40  59  89 122 161 206 255 309 364
#     4  11  24  41  61  92 127 163 215 253 317 380
#
# _framework density 18.202705999999999
#
# number of rings (size 3 to 8) (size 9 to 14) (size 15 to 20)
#    0.000    1.111    6.667    0.000    3.111    0.000 
#    0.000    0.000    0.000    3.333    0.000    0.000 
#    0.000    0.000    0.000    0.000    0.000    0.000 
#
# Total GULP energy -200671.396536 kJ/mol
# GULP energy per Si atom -5574.205459 kJ/mol
# Density = 1.816128 g / cm^3
# Si number density = 18.202706 Si / 1000 Ang^3
#
#
#
# Elastic Constant Matrix: (Units=GPa)
#
#
# Indices 1 2 3 4 5 6 
#
# 1 73.8112 22.5540 27.0457 0.0000 0.0000 0.0000
# 2 22.5540 73.8112 27.0457 0.0000 0.0000 0.0000
# 3 27.0457 27.0457 113.1726 0.0000 0.0000 0.0000
# 4 0.0000 0.0000 0.0000 20.6721 0.0000 0.0000
# 5 0.0000 0.0000 0.0000 0.0000 20.6721 0.0000
# 6 0.0000 0.0000 0.0000 0.0000 0.0000 -40.0641
#
#
#
# Elastic Compliance Matrix: (Units=1/GPa)
#
#
# Indices 1 2 3 4 5 6 
#
# 1 0.015747 -0.003762 -0.002864 0.000000 0.000000 0.000000
# 2 -0.003762 0.015747 -0.002864 0.000000 0.000000 0.000000
# 3 -0.002864 -0.002864 0.010205 0.000000 0.000000 0.000000
# 4 0.000000 0.000000 0.000000 0.048374 0.000000 0.000000
# 5 0.000000 0.000000 0.000000 0.000000 0.048374 0.000000
# 6 0.000000 0.000000 0.000000 0.000000 0.000000 -0.024960
#
#
# Mechanical properties :
#
#
# Convention : Reuss Voigt Hill
#
# Bulk Modulus (GPa) = 44.01745 46.00952 45.01349
# Shear Modulus (GPa) = 35.70364 12.53267 24.11815
#
# Velocity S-wave (km/s) = 4.43363 2.62679 3.64397
# Velocity P-wave (km/s) = 7.10237 5.87632 6.51824
#
# Compressibility (1/GPa) = 0.02271826
#
# Stress axis : x y z
#
# Youngs Moduli (GPa) = 63.50358 63.50358 97.99141
#
# Poissons Ratio (x) = 0.23892 0.28066
# Poissons Ratio (y) = 0.23892 0.28066
# Poissons Ratio (z) = 0.18188 0.18188
#
# Static dielectric constant tensor:
#      x y z
#    x 1.620040 0.000000 0.000000 
#    y 0.000000 1.620040 0.000000 
#    z 0.000000 0.000000 1.630160 
# 
# From -- ./inp_files/2654.got.cif
#   From: 2010.05.17/outbox.cif.g08.bks.cpg/sg122_2_cif.got.tgz:2654.got - 2010.05.20 11:37:33.
