data_PCOD9561204
_publ_section_title
;
Structure prediction by ZEFSAII (Michael W. Deem and Ramdas Pophale) SiO2 
 PCOD9561204
Probable space group: I -4 2 D
;
_chemical_formula_sum "Si O2"
_cell_formula_units_Z 108
_cell_length_a 14.888888
_cell_length_b 14.888888
_cell_length_c 22.082093
_cell_angle_alpha 90.000000
_cell_angle_beta 90.000000
_cell_angle_gamma 90.000000
_cell_volume 4895.135982
_symmetry_space_group_name_H-M "I -4 2 D"
_symmetry_group_IT_number 122
_symmetry_cell_setting 'tetragonal'
loop_
_space_group_symop_operation_xyz
x,y,z
y,-x,-z
-x,-y,z
-y,x,-z
x,1/2-y,1/4-z
-x,1/2+y,1/4-z
-y,1/2-x,1/4+z
y,1/2+x,1/4+z
1/2+x,1/2+y,1/2+z
1/2+y,1/2-x,1/2-z
1/2-x,1/2-y,1/2+z
1/2-y,1/2+x,1/2-z
1/2+x,-y,3/4-z
1/2-x,y,3/4-z
1/2-y,-x,3/4+z
1/2+y,x,3/4+z
loop_
_atom_site_type_symbol
_atom_site_label
_atom_site_fract_x
_atom_site_fract_y
_atom_site_fract_z
Si Si1 0.000000 0.500000 0.750000
Si Si2 0.400791 0.970824 0.085447
Si Si3 0.751777 0.572424 0.230037
Si Si4 0.662284 0.085086 0.535192
Si Si5 0.437313 0.783006 0.056360
Si Si6 0.924447 0.826668 0.072567
Si Si7 0.639841 0.100341 0.210571
Si Si8 0.500000 0.000000 0.609168
O O1 0.041331 0.398640 0.734545
O O2 0.381188 0.874598 0.055554
O O3 0.412521 0.949383 0.156002
O O4 0.500000 0.000000 0.063335
O O5 0.319701 0.036371 0.069846
O O6 0.684486 0.626494 0.273769
O O7 0.829945 0.634837 0.202871
O O8 0.791389 0.488747 0.268360
O O9 0.759728 0.092893 0.564634
O O10 0.691529 0.030754 0.474882
O O11 0.586658 0.028781 0.569739
O O12 0.450802 0.750000 0.125000
O O13 0.381530 0.703270 0.026262
O O14 0.914369 0.750000 0.125000
O O15 0.973202 0.913300 0.101932
#
# Coordination Sequence:
#
# PCOD9561204 Si02
#       8
#     4  16  16  16  16  16  16   8
#     4  12  20  40  62 100 156 178 228 288 360 454
#     4  11  22  44  68  98 142 191 234 299 373 447
#     4  12  27  48  77 109 146 195 261 319 385 461
#     4  12  24  43  75 102 142 197 241 312 367 455
#     4  10  23  41  63  99 143 185 236 290 362 443
#     4  12  28  52  78 113 151 202 259 329 393 459
#     4  11  24  40  66 101 142 186 232 292 368 449
#     4  12  26  53  77 106 152 195 257 320 390 450
#
# _framework density 22.062719000000001
#
# number of rings (size 3 to 8) (size 9 to 14) (size 15 to 20)
#    0.000    0.593    5.185    2.667    2.074    0.593 
#    8.000    0.000    0.000    0.000    0.000    0.000 
#    0.000    0.000    0.000    0.000    0.000    0.000 
#
# Total GULP energy -300968.695968 kJ/mol
# GULP energy per Si atom -5573.494370 kJ/mol
# Density = 2.201250 g / cm^3
# Si number density = 22.062719 Si / 1000 Ang^3
#
#
#
# Elastic Constant Matrix: (Units=GPa)
#
#
# Indices 1 2 3 4 5 6 
#
# 1 152.8043 58.2282 30.9492 0.0000 0.0000 0.0000
# 2 58.2282 152.8043 30.9492 0.0000 0.0000 0.0000
# 3 30.9492 30.9492 48.5449 0.0000 0.0000 0.0000
# 4 0.0000 0.0000 0.0000 36.2448 0.0000 0.0000
# 5 0.0000 0.0000 0.0000 0.0000 36.2448 0.0000
# 6 0.0000 0.0000 0.0000 0.0000 0.0000 46.3079
#
#
#
# Elastic Compliance Matrix: (Units=1/GPa)
#
#
# Indices 1 2 3 4 5 6 
#
# 1 0.008201 -0.002372 -0.003716 0.000000 0.000000 0.000000
# 2 -0.002372 0.008201 -0.003716 0.000000 0.000000 0.000000
# 3 -0.003716 -0.003716 0.025338 0.000000 0.000000 0.000000
# 4 0.000000 0.000000 0.000000 0.027590 0.000000 0.000000
# 5 0.000000 0.000000 0.000000 0.000000 0.027590 0.000000
# 6 0.000000 0.000000 0.000000 0.000000 0.000000 0.021595
#
#
# Mechanical properties :
#
#
# Convention : Reuss Voigt Hill
#
# Bulk Modulus (GPa) = 45.18555 66.04520 55.61537
# Shear Modulus (GPa) = 34.36427 39.36131 36.86279
#
# Velocity S-wave (km/s) = 3.95089 4.22840 4.09200
# Velocity P-wave (km/s) = 6.42944 7.33753 6.89844
#
# Compressibility (1/GPa) = 0.02213097
#
# Stress axis : x y z
#
# Youngs Moduli (GPa) = 121.93625 121.93625 39.46718
#
# Poissons Ratio (x) = 0.28929 0.14666
# Poissons Ratio (y) = 0.28929 0.14666
# Poissons Ratio (z) = 0.45310 0.45310
#
# Static dielectric constant tensor:
#      x y z
#    x 1.880570 0.000000 0.000000 
#    y 0.000000 1.880570 0.000000 
#    z 0.000000 0.000000 1.356680 
# 
# From -- ./inp_files/8183.got.cif
#   From: 2010.05.17/outbox.cif.g08.bks.cpg/sg122_5_cif.got.tgz:8183.got - 2010.05.20 11:37:33.
