data_PCOD9561740
_publ_section_title
;
Structure prediction by ZEFSAII (Michael W. Deem and Ramdas Pophale) SiO2 
 PCOD9561740
Probable space group: P 4/M M M
;
_chemical_formula_sum "Si O2"
_cell_formula_units_Z 104
_cell_length_a 26.643989
_cell_length_b 26.643989
_cell_length_c 7.704987
_cell_angle_alpha 90.000000
_cell_angle_beta 90.000000
_cell_angle_gamma 90.000000
_cell_volume 5469.786836
_symmetry_space_group_name_H-M "P 4/M M M"
_symmetry_group_IT_number 123
_symmetry_cell_setting 'tetragonal'
loop_
_space_group_symop_operation_xyz
x,y,z
-y,x,z
-x,-y,z
y,-x,z
x,-y,-z
-x,y,-z
y,x,-z
-y,-x,-z
-x,-y,-z
y,-x,-z
x,y,-z
-y,x,-z
-x,y,z
x,-y,z
-y,-x,z
y,x,z
loop_
_atom_site_type_symbol
_atom_site_label
_atom_site_fract_x
_atom_site_fract_y
_atom_site_fract_z
Si Si1 0.655632 0.791659 0.291104
Si Si2 0.840645 0.238994 0.204273
Si Si3 0.641271 0.444443 0.000000
Si Si4 0.445607 0.157430 0.297188
Si Si5 0.599856 0.943283 0.790225
Si Si6 0.394314 0.310940 0.308490
Si Si7 0.716081 0.942982 0.787933
O O1 0.659079 0.798377 0.500000
O O2 0.708001 0.811406 0.219265
O O3 0.605819 0.819816 0.222786
O O4 0.642912 0.733857 0.256238
O O5 0.805512 0.194489 0.278055
O O6 0.896767 0.249742 0.274659
O O7 0.846896 0.228473 0.000000
O O8 0.676416 0.435238 0.166352
O O9 0.619900 0.500000 0.000000
O O10 0.597212 0.402789 0.000000
O O11 0.446300 0.171751 0.500000
O O12 0.500000 0.171503 0.222062
O O13 0.437041 0.098067 0.283065
O O14 0.657921 0.933398 0.737175
O O15 0.587581 0.000000 0.738864
O O16 0.598332 0.940592 0.000000
O O17 0.414718 0.298679 0.500000
O O18 0.360104 0.360104 0.321213
O O19 0.729382 0.000000 0.734318
O O20 0.716636 0.942622 0.000000
#
# Coordination Sequence:
#
# PCOD9561740 Si02
#       7
#    16  16   8  16  16  16  16
#     4  10  20  34  51  70  97 132 165 200 250 304
#     4  10  19  29  48  77 102 125 160 207 252 299
#     4  10  22  39  60  86 110 134 169 209 255 315
#     4  10  21  34  46  64  91 122 159 203 247 289
#     4   9  17  31  50  66  83 116 162 204 241 286
#     4   9  19  36  57  79 105 138 172 205 244 301
#     4   8  14  27  46  66  93 128 161 196 242 293
#
# _framework density 19.013539999999999
#
# number of rings (size 3 to 8) (size 9 to 14) (size 15 to 20)
#    0.000    2.615    1.538    1.385    1.077    2.846 
#    0.000    3.077    0.000    0.462    0.000    2.154 
#    0.000    0.308    0.000    4.308    0.000    0.000 
#
# Total GULP energy -579796.841408 kJ/mol
# GULP energy per Si atom -5574.969629 kJ/mol
# Density = 1.897026 g / cm^3
# Si number density = 19.013540 Si / 1000 Ang^3
#
#
#
# Elastic Constant Matrix: (Units=GPa)
#
#
# Indices 1 2 3 4 5 6 
#
# 1 83.6317 23.9975 15.9494 0.0000 0.0000 0.0000
# 2 23.9975 83.6331 15.9496 0.0000 0.0000 0.0000
# 3 15.9494 15.9496 35.4431 0.0000 0.0000 0.0000
# 4 0.0000 0.0000 0.0000 24.9262 0.0000 0.0000
# 5 0.0000 0.0000 0.0000 0.0000 24.9266 0.0000
# 6 0.0000 0.0000 0.0000 0.0000 0.0000 17.0914
#
#
#
# Elastic Compliance Matrix: (Units=1/GPa)
#
#
# Indices 1 2 3 4 5 6 
#
# 1 0.013745 -0.003024 -0.004824 0.000000 0.000000 0.000000
# 2 -0.003024 0.013745 -0.004824 0.000000 0.000000 0.000000
# 3 -0.004824 -0.004824 0.032556 0.000000 0.000000 0.000000
# 4 0.000000 0.000000 0.000000 0.040118 0.000000 0.000000
# 5 0.000000 0.000000 0.000000 0.000000 0.040118 0.000000
# 6 0.000000 0.000000 0.000000 0.000000 0.000000 0.058509
#
#
# Mechanical properties :
#
#
# Convention : Reuss Voigt Hill
#
# Bulk Modulus (GPa) = 28.81814 34.94453 31.88133
# Shear Modulus (GPa) = 21.21310 23.17628 22.19469
#
# Velocity S-wave (km/s) = 3.34381 3.49511 3.42030
# Velocity P-wave (km/s) = 5.48613 5.89121 5.69228
#
# Compressibility (1/GPa) = 0.03470037
#
# Stress axis : x y z
#
# Youngs Moduli (GPa) = 72.75403 72.75523 30.71601
#
# Poissons Ratio (x) = 0.22000 0.14819
# Poissons Ratio (y) = 0.22000 0.14819
# Poissons Ratio (z) = 0.35100 0.35100
#
# Static dielectric constant tensor:
#      x y z
#    x 1.674070 0.000000 0.000000 
#    y 0.000000 1.674070 0.000000 
#    z 0.000000 0.000000 1.756840 
# 
# From -- ./inp_files/1967.got.cif
#   From: 2010.05.17/outbox.cif.g08.bks.cpg/sg123_1_cif.got.tgz:1967.got - 2010.05.20 11:43:04.
