data_PCOD9561957
_publ_section_title
;
Structure prediction by ZEFSAII (Michael W. Deem and Ramdas Pophale) SiO2 
 PCOD9561957
Probable space group: P 4/M M M
;
_chemical_formula_sum "Si O2"
_cell_formula_units_Z 72
_cell_length_a 21.369877
_cell_length_b 21.369877
_cell_length_c 7.685220
_cell_angle_alpha 90.000000
_cell_angle_beta 90.000000
_cell_angle_gamma 90.000000
_cell_volume 3509.622044
_symmetry_space_group_name_H-M "P 4/M M M"
_symmetry_group_IT_number 123
_symmetry_cell_setting 'tetragonal'
loop_
_space_group_symop_operation_xyz
x,y,z
-y,x,z
-x,-y,z
y,-x,z
x,-y,-z
-x,y,-z
y,x,-z
-y,-x,-z
-x,-y,-z
y,-x,-z
x,y,-z
-y,x,-z
-x,y,z
x,-y,z
-y,-x,z
y,x,z
loop_
_atom_site_type_symbol
_atom_site_label
_atom_site_fract_x
_atom_site_fract_y
_atom_site_fract_z
Si Si1 0.183727 0.595209 0.290380
Si Si2 0.500000 0.072965 0.205718
Si Si3 0.673033 0.430003 0.287651
Si Si4 0.831133 0.930835 0.208951
Si Si5 0.834570 0.265745 0.708790
O O1 0.187803 0.594097 0.500000
O O2 0.120461 0.556989 0.250220
O O3 0.253680 0.574847 0.231221
O O4 0.174421 0.665226 0.224021
O O5 0.500000 0.000000 0.276300
O O6 0.500000 0.065871 0.000000
O O7 0.673567 0.427162 0.500000
O O8 0.650575 0.500000 0.238967
O O9 0.626508 0.373493 0.230792
O O10 0.883283 0.883283 0.278310
O O11 0.764439 0.900956 0.249386
O O12 0.838590 0.000000 0.278572
O O13 0.837502 0.932829 0.000000
O O14 0.828190 0.268059 0.500000
O O15 0.781922 0.218079 0.776698
#
# Coordination Sequence:
#
# PCOD9561957 Si02
#       5
#    16   8  16  16  16
#     4  10  19  35  57  79 104 138 179 217 258 312
#     4  11  25  41  55  75 104 137 174 220 271 317
#     4   9  16  27  48  80 114 144 176 218 264 308
#     4   9  18  32  49  70  98 132 170 212 258 311
#     4   9  18  32  52  78 105 132 166 212 261 308
#
# _framework density 20.515028999999998
#
# number of rings (size 3 to 8) (size 9 to 14) (size 15 to 20)
#    0.000    2.556    1.111    1.000    0.000    6.222 
#    0.000    6.667    0.000    2.000    0.000    3.111 
#    0.000    0.889    0.000    0.000    0.000    0.000 
#
# Total GULP energy -401098.778478 kJ/mol
# GULP energy per Si atom -5570.816368 kJ/mol
# Density = 2.046834 g / cm^3
# Si number density = 20.515029 Si / 1000 Ang^3
#
#
#
# Elastic Constant Matrix: (Units=GPa)
#
#
# Indices 1 2 3 4 5 6 
#
# 1 158.6065 81.1943 4.0208 0.0000 0.0000 0.0000
# 2 81.1943 158.6065 4.0208 0.0000 0.0000 0.0000
# 3 4.0208 4.0208 35.8431 0.0000 0.0000 0.0000
# 4 0.0000 0.0000 0.0000 20.7358 0.0000 0.0000
# 5 0.0000 0.0000 0.0000 0.0000 20.7358 0.0000
# 6 0.0000 0.0000 0.0000 0.0000 0.0000 11.6316
#
#
#
# Elastic Compliance Matrix: (Units=1/GPa)
#
#
# Indices 1 2 3 4 5 6 
#
# 1 0.008552 -0.004366 -0.000470 0.000000 0.000000 0.000000
# 2 -0.004366 0.008552 -0.000470 0.000000 0.000000 0.000000
# 3 -0.000470 -0.000470 0.028005 0.000000 0.000000 0.000000
# 4 0.000000 0.000000 0.000000 0.048226 0.000000 0.000000
# 5 0.000000 0.000000 0.000000 0.000000 0.048226 0.000000
# 6 0.000000 0.000000 0.000000 0.000000 0.000000 0.085972
#
#
# Mechanical properties :
#
#
# Convention : Reuss Voigt Hill
#
# Bulk Modulus (GPa) = 28.98701 59.05863 44.02282
# Shear Modulus (GPa) = 20.02870 28.20868 24.11869
#
# Velocity S-wave (km/s) = 3.12796 3.71216 3.43251
# Velocity P-wave (km/s) = 5.21592 6.87197 6.10040
#
# Compressibility (1/GPa) = 0.03449821
#
# Stress axis : x y z
#
# Youngs Moduli (GPa) = 116.93351 116.93351 35.70830
#
# Poissons Ratio (x) = 0.51053 0.01677
# Poissons Ratio (y) = 0.51053 0.01677
# Poissons Ratio (z) = 0.05491 0.05491
#
# Static dielectric constant tensor:
#      x y z
#    x 1.740130 0.000000 0.000000 
#    y 0.000000 1.740130 0.000000 
#    z 0.000000 0.000000 1.772350 
# 
# From -- ./inp_files/1050.got.cif
#   From: 2010.05.17/outbox.cif.g08.bks.cpg/sg123_1_cif.got.tgz:1050.got - 2010.05.20 11:43:04.
