data_PCOD9561163
_publ_section_title
;
Structure prediction by ZEFSAII (Michael W. Deem and Ramdas Pophale) SiO2 
 PCOD9561163
Probable space group: I -4 2 D
;
_chemical_formula_sum "Si O2"
_cell_formula_units_Z 80
_cell_length_a 11.118546
_cell_length_b 11.118546
_cell_length_c 28.035348
_cell_angle_alpha 90.000000
_cell_angle_beta 90.000000
_cell_angle_gamma 90.000000
_cell_volume 3465.787617
_symmetry_space_group_name_H-M "I -4 2 D"
_symmetry_group_IT_number 122
_symmetry_cell_setting 'tetragonal'
loop_
_space_group_symop_operation_xyz
x,y,z
y,-x,-z
-x,-y,z
-y,x,-z
x,1/2-y,1/4-z
-x,1/2+y,1/4-z
-y,1/2-x,1/4+z
y,1/2+x,1/4+z
1/2+x,1/2+y,1/2+z
1/2+y,1/2-x,1/2-z
1/2-x,1/2-y,1/2+z
1/2-y,1/2+x,1/2-z
1/2+x,-y,3/4-z
1/2-x,y,3/4-z
1/2-y,-x,3/4+z
1/2+y,x,3/4+z
loop_
_atom_site_type_symbol
_atom_site_label
_atom_site_fract_x
_atom_site_fract_y
_atom_site_fract_z
Si Si1 0.033211 0.169347 0.476784
Si Si2 0.000000 0.000000 0.079079
Si Si3 0.329561 0.117278 0.975502
Si Si4 0.901436 0.757481 0.965407
Si Si5 0.522489 0.250000 0.625000
Si Si6 0.582082 0.115697 0.123073
O O1 0.048091 0.310782 0.483512
O O2 0.084856 0.136970 0.424916
O O3 0.902963 0.112902 0.484431
O O4 0.115998 0.962601 0.048879
O O5 0.963584 0.876314 0.107129
O O6 0.221606 0.206189 0.991286
O O7 0.299371 0.096662 0.920063
O O8 0.315627 0.992879 0.002099
O O9 0.876905 0.683886 0.917298
O O10 0.524635 0.250000 0.125000
O O11 0.500000 0.000000 0.111413
#
# Coordination Sequence:
#
# PCOD9561163 Si02
#       6
#    16   8  16  16   8  16
#     4  11  23  44  67  92 137 187 234 301 358 426
#     4  10  22  45  66 100 132 180 224 282 359 418
#     4  11  22  43  66 102 133 183 230 287 370 432
#     4  11  24  42  73  98 142 183 230 296 363 447
#     4  10  22  44  68  96 146 178 226 300 362 440
#     4  12  26  49  73 103 143 199 251 303 379 447
#
# _framework density 23.082778000000001
#
# number of rings (size 3 to 8) (size 9 to 14) (size 15 to 20)
#    0.000    1.000    4.000    4.800    4.200    0.800 
#   18.000    0.000    0.000    0.000    0.000    0.000 
#    0.000    0.000    0.000    0.000    0.000    0.000 
#
# Total GULP energy -223508.951844 kJ/mol
# GULP energy per Si atom -5587.723796 kJ/mol
# Density = 2.303024 g / cm^3
# Si number density = 23.082778 Si / 1000 Ang^3
#
#
#
# Elastic Constant Matrix: (Units=GPa)
#
#
# Indices 1 2 3 4 5 6 
#
# 1 100.5398 25.3892 12.7715 0.0000 0.0000 0.0000
# 2 25.3892 100.5398 12.7715 0.0000 0.0000 0.0000
# 3 12.7715 12.7715 77.3238 0.0000 0.0000 0.0000
# 4 0.0000 0.0000 0.0000 21.9179 0.0000 0.0000
# 5 0.0000 0.0000 0.0000 0.0000 21.9179 0.0000
# 6 0.0000 0.0000 0.0000 0.0000 0.0000 54.5177
#
#
#
# Elastic Compliance Matrix: (Units=1/GPa)
#
#
# Indices 1 2 3 4 5 6 
#
# 1 0.010761 -0.002545 -0.001357 0.000000 0.000000 0.000000
# 2 -0.002545 0.010761 -0.001357 0.000000 0.000000 0.000000
# 3 -0.001357 -0.001357 0.013381 0.000000 0.000000 0.000000
# 4 0.000000 0.000000 0.000000 0.045625 0.000000 0.000000
# 5 0.000000 0.000000 0.000000 0.000000 0.045625 0.000000
# 6 0.000000 0.000000 0.000000 0.000000 0.000000 0.018343
#
#
# Mechanical properties :
#
#
# Convention : Reuss Voigt Hill
#
# Bulk Modulus (GPa) = 41.00859 42.25197 41.63028
# Shear Modulus (GPa) = 30.64796 34.83546 32.74171
#
# Velocity S-wave (km/s) = 3.64777 3.88900 3.77031
# Velocity P-wave (km/s) = 5.96206 6.20564 6.08507
#
# Compressibility (1/GPa) = 0.02438513
#
# Stress axis : x y z
#
# Youngs Moduli (GPa) = 92.92446 92.92446 74.73330
#
# Poissons Ratio (x) = 0.23651 0.10142
# Poissons Ratio (y) = 0.23651 0.10142
# Poissons Ratio (z) = 0.12611 0.12611
#
# Static dielectric constant tensor:
#      x y z
#    x 1.909260 0.000000 0.000000 
#    y 0.000000 1.909260 0.000000 
#    z 0.000000 0.000000 1.859420 
# 
# From -- ./inp_files/9442.got.cif
#   From: 2010.05.17/outbox.cif.g08.bks.cpg/sg122_5_cif.got.tgz:9442.got - 2010.05.20 11:37:33.
