data_PCOD9561143
_publ_section_title
;
Structure prediction by ZEFSAII (Michael W. Deem and Ramdas Pophale) SiO2 
 PCOD9561143
Probable space group: I -4 2 D
;
_chemical_formula_sum "Si O2"
_cell_formula_units_Z 40
_cell_length_a 10.634960
_cell_length_b 10.634960
_cell_length_c 16.959790
_cell_angle_alpha 90.000000
_cell_angle_beta 90.000000
_cell_angle_gamma 90.000000
_cell_volume 1918.192515
_symmetry_space_group_name_H-M "I -4 2 D"
_symmetry_group_IT_number 122
_symmetry_cell_setting 'tetragonal'
loop_
_space_group_symop_operation_xyz
x,y,z
y,-x,-z
-x,-y,z
-y,x,-z
x,1/2-y,1/4-z
-x,1/2+y,1/4-z
-y,1/2-x,1/4+z
y,1/2+x,1/4+z
1/2+x,1/2+y,1/2+z
1/2+y,1/2-x,1/2-z
1/2-x,1/2-y,1/2+z
1/2-y,1/2+x,1/2-z
1/2+x,-y,3/4-z
1/2-x,y,3/4-z
1/2-y,-x,3/4+z
1/2+y,x,3/4+z
loop_
_atom_site_type_symbol
_atom_site_label
_atom_site_fract_x
_atom_site_fract_y
_atom_site_fract_z
Si Si1 0.750000 0.000680 0.375000
Si Si2 0.332907 0.173151 0.988438
Si Si3 0.721536 0.082125 0.082789
O O1 0.745341 0.088136 0.299404
O O2 0.869948 0.910008 0.368541
O O3 0.303929 0.040763 0.031207
O O4 0.197689 0.233473 0.971334
O O5 0.412031 0.179292 0.906120
#
# Coordination Sequence:
#
# PCOD9561143 Si02
#       3
#     8  16  16
#     4  10  22  42  68  96 136 180 220 284 340 428
#     4  10  23  45  68  99 140 174 240 276 359 417
#     4  10  25  45  67 107 129 188 223 296 348 421
#
# _framework density 20.852965000000001
#
# number of rings (size 3 to 8) (size 9 to 14) (size 15 to 20)
#    0.000    2.400    0.000    1.200   11.200    4.000 
#   14.400    0.000    0.000    0.000    0.000    0.000 
#    0.000    0.000    0.000    0.000    0.000    0.000 
#
# Total GULP energy -111529.560586 kJ/mol
# GULP energy per Si atom -5576.478029 kJ/mol
# Density = 2.080550 g / cm^3
# Si number density = 20.852965 Si / 1000 Ang^3
#
#
#
# Elastic Constant Matrix: (Units=GPa)
#
#
# Indices 1 2 3 4 5 6 
#
# 1 108.7406 63.5475 87.8930 0.0000 0.0000 0.0000
# 2 63.5475 108.7406 87.8930 0.0000 0.0000 0.0000
# 3 87.8930 87.8930 138.5757 0.0000 0.0000 0.0000
# 4 0.0000 0.0000 0.0000 90.5826 0.0000 0.0000
# 5 0.0000 0.0000 0.0000 0.0000 90.5826 0.0000
# 6 0.0000 0.0000 0.0000 0.0000 0.0000 31.4706
#
#
#
# Elastic Compliance Matrix: (Units=1/GPa)
#
#
# Indices 1 2 3 4 5 6 
#
# 1 0.019288 -0.002839 -0.010433 0.000000 0.000000 0.000000
# 2 -0.002839 0.019288 -0.010433 0.000000 0.000000 0.000000
# 3 -0.010433 -0.010433 0.020451 0.000000 0.000000 0.000000
# 4 0.000000 0.000000 0.000000 0.011040 0.000000 0.000000
# 5 0.000000 0.000000 0.000000 0.000000 0.011040 0.000000
# 6 0.000000 0.000000 0.000000 0.000000 0.000000 0.031776
#
#
# Mechanical properties :
#
#
# Convention : Reuss Voigt Hill
#
# Bulk Modulus (GPa) = 86.08157 92.74712 89.41435
# Shear Modulus (GPa) = 30.45729 50.30868 40.38299
#
# Velocity S-wave (km/s) = 3.82589 4.91709 4.40541
# Velocity P-wave (km/s) = 7.80298 8.76415 8.29749
#
# Compressibility (1/GPa) = 0.01161689
#
# Stress axis : x y z
#
# Youngs Moduli (GPa) = 51.84535 51.84535 48.89816
#
# Poissons Ratio (x) = 0.14720 0.51015
# Poissons Ratio (y) = 0.14720 0.51015
# Poissons Ratio (z) = 0.54090 0.54090
#
# Static dielectric constant tensor:
#      x y z
#    x 1.754260 0.000000 0.000000 
#    y 0.000000 1.754260 0.000000 
#    z 0.000000 0.000000 1.786460 
# 
# From -- ./inp_files/4898.got.cif
#   From: 2010.05.17/outbox.cif.g08.bks.cpg/sg122_3_cif.got.tgz:4898.got - 2010.05.20 11:37:33.
