data_PCOD9561214
_publ_section_title
;
Structure prediction by ZEFSAII (Michael W. Deem and Ramdas Pophale) SiO2 
 PCOD9561214
Probable space group: I -4 2 D
;
_chemical_formula_sum "Si O2"
_cell_formula_units_Z 112
_cell_length_a 15.577705
_cell_length_b 15.577705
_cell_length_c 23.583409
_cell_angle_alpha 90.000000
_cell_angle_beta 90.000000
_cell_angle_gamma 90.000000
_cell_volume 5722.865423
_symmetry_space_group_name_H-M "I -4 2 D"
_symmetry_group_IT_number 122
_symmetry_cell_setting 'tetragonal'
loop_
_space_group_symop_operation_xyz
x,y,z
y,-x,-z
-x,-y,z
-y,x,-z
x,1/2-y,1/4-z
-x,1/2+y,1/4-z
-y,1/2-x,1/4+z
y,1/2+x,1/4+z
1/2+x,1/2+y,1/2+z
1/2+y,1/2-x,1/2-z
1/2-x,1/2-y,1/2+z
1/2-y,1/2+x,1/2-z
1/2+x,-y,3/4-z
1/2-x,y,3/4-z
1/2-y,-x,3/4+z
1/2+y,x,3/4+z
loop_
_atom_site_type_symbol
_atom_site_label
_atom_site_fract_x
_atom_site_fract_y
_atom_site_fract_z
Si Si1 0.338678 0.685080 0.339298
Si Si2 0.016278 0.253709 0.884412
Si Si3 0.645583 0.740939 0.059692
Si Si4 0.084992 0.787118 0.259975
Si Si5 0.617168 0.165402 0.661790
Si Si6 0.636226 0.468502 0.018689
Si Si7 0.601221 0.495694 0.327245
O O1 0.250000 0.677106 0.375000
O O2 0.428886 0.700365 0.371337
O O3 0.323880 0.773246 0.305266
O O4 0.356170 0.594366 0.310360
O O5 0.992817 0.291260 0.945776
O O6 0.095077 0.188828 0.895612
O O7 0.027205 0.323663 0.832953
O O8 0.618760 0.750000 0.125000
O O9 0.684654 0.830986 0.042549
O O10 0.568647 0.712059 0.020132
O O11 0.104424 0.698595 0.226178
O O12 0.066615 0.858045 0.212912
O O13 0.638675 0.250000 0.625000
O O14 0.525071 0.130925 0.639766
O O15 0.557118 0.401921 0.007253
O O16 0.500000 0.500000 0.323201
#
# Coordination Sequence:
#
# PCOD9561214 Si02
#       7
#    16  16  16  16  16  16  16
#     4  11  21  40  67  91 128 176 223 271 341 414
#     4  12  23  44  67  99 138 181 232 287 354 425
#     4  11  22  43  67  91 127 178 223 276 350 411
#     4  11  24  41  67  99 135 178 228 290 337 428
#     4  10  23  43  65  92 139 176 224 283 344 410
#     4  11  23  42  67  96 133 177 226 290 353 415
#     4  11  23  42  65  98 131 178 221 284 347 404
#
# _framework density 19.570616999999999
#
# number of rings (size 3 to 8) (size 9 to 14) (size 15 to 20)
#    0.000    1.000    5.714    3.000    2.000    1.143 
#    5.143    2.143    0.000    0.000    0.000    0.000 
#    0.000    0.000    0.000    0.000    0.000    0.000 
#
# Total GULP energy -311912.785730 kJ/mol
# GULP energy per Si atom -5569.871174 kJ/mol
# Density = 1.952607 g / cm^3
# Si number density = 19.570617 Si / 1000 Ang^3
#
#
#
# Elastic Constant Matrix: (Units=GPa)
#
#
# Indices 1 2 3 4 5 6 
#
# 1 97.7812 35.7398 40.6477 0.0000 0.0000 0.0000
# 2 35.7398 97.7812 40.6477 0.0000 0.0000 0.0000
# 3 40.6477 40.6477 123.1040 0.0000 0.0000 0.0000
# 4 0.0000 0.0000 0.0000 44.9588 0.0000 0.0000
# 5 0.0000 0.0000 0.0000 0.0000 44.9588 0.0000
# 6 0.0000 0.0000 0.0000 0.0000 0.0000 41.2609
#
#
#
# Elastic Compliance Matrix: (Units=1/GPa)
#
#
# Indices 1 2 3 4 5 6 
#
# 1 0.012746 -0.003372 -0.003095 0.000000 0.000000 0.000000
# 2 -0.003372 0.012746 -0.003095 0.000000 0.000000 0.000000
# 3 -0.003095 -0.003095 0.010167 0.000000 0.000000 0.000000
# 4 0.000000 0.000000 0.000000 0.022243 0.000000 0.000000
# 5 0.000000 0.000000 0.000000 0.000000 0.022243 0.000000
# 6 0.000000 0.000000 0.000000 0.000000 0.000000 0.024236
#
#
# Mechanical properties :
#
#
# Convention : Reuss Voigt Hill
#
# Bulk Modulus (GPa) = 60.47992 61.41520 60.94756
# Shear Modulus (GPa) = 38.75451 39.67777 39.21614
#
# Velocity S-wave (km/s) = 4.45482 4.50757 4.48127
# Velocity P-wave (km/s) = 7.57833 7.65117 7.61483
#
# Compressibility (1/GPa) = 0.01653441
#
# Stress axis : x y z
#
# Youngs Moduli (GPa) = 78.45521 78.45521 98.35534
#
# Poissons Ratio (x) = 0.26456 0.30443
# Poissons Ratio (y) = 0.26456 0.30443
# Poissons Ratio (z) = 0.24283 0.24283
#
# Static dielectric constant tensor:
#      x y z
#    x 1.704010 0.000000 0.000000 
#    y 0.000000 1.704010 0.000000 
#    z 0.000000 0.000000 1.739340 
# 
# From -- ./inp_files/8118.got.cif
#   From: 2010.05.17/outbox.cif.g08.bks.cpg/sg122_5_cif.got.tgz:8118.got - 2010.05.20 11:37:33.
