data_PCOD9561397
_publ_section_title
;
Structure prediction by ZEFSAII (Michael W. Deem and Ramdas Pophale) SiO2 
 PCOD9561397
Probable space group: I -4 2 D
;
_chemical_formula_sum "Si O2"
_cell_formula_units_Z 72
_cell_length_a 12.987054
_cell_length_b 12.987054
_cell_length_c 21.254035
_cell_angle_alpha 90.000000
_cell_angle_beta 90.000000
_cell_angle_gamma 90.000000
_cell_volume 3584.781454
_symmetry_space_group_name_H-M "I -4 2 D"
_symmetry_group_IT_number 122
_symmetry_cell_setting 'tetragonal'
loop_
_space_group_symop_operation_xyz
x,y,z
y,-x,-z
-x,-y,z
-y,x,-z
x,1/2-y,1/4-z
-x,1/2+y,1/4-z
-y,1/2-x,1/4+z
y,1/2+x,1/4+z
1/2+x,1/2+y,1/2+z
1/2+y,1/2-x,1/2-z
1/2-x,1/2-y,1/2+z
1/2-y,1/2+x,1/2-z
1/2+x,-y,3/4-z
1/2-x,y,3/4-z
1/2-y,-x,3/4+z
1/2+y,x,3/4+z
loop_
_atom_site_type_symbol
_atom_site_label
_atom_site_fract_x
_atom_site_fract_y
_atom_site_fract_z
Si Si1 0.679533 0.750000 0.125000
Si Si2 0.707081 0.560854 0.554754
Si Si3 0.000454 0.840354 0.085634
Si Si4 0.570083 0.844605 0.242701
Si Si5 0.779972 0.369392 0.113424
O O1 0.739187 0.838559 0.084694
O O2 0.610757 0.808092 0.175979
O O3 0.586227 0.576756 0.570613
O O4 0.704347 0.547526 0.479481
O O5 0.752457 0.456475 0.585591
O O6 0.946643 0.750000 0.125000
O O7 0.096694 0.871356 0.128666
O O8 0.449818 0.870730 0.240317
O O9 0.594624 0.761442 0.296416
O O10 0.748324 0.250000 0.125000
#
# Coordination Sequence:
#
# PCOD9561397 Si02
#       5
#     8  16  16  16  16
#     4  12  24  46  74  98 136 184 234 276 342 418
#     4  12  23  43  70 104 139 185 227 283 350 412
#     4  11  23  40  68 101 142 176 224 289 348 406
#     4  11  26  49  71  98 136 179 231 285 339 406
#     4  11  24  43  69  99 139 180 225 282 342 407
#
# _framework density 20.084906
#
# number of rings (size 3 to 8) (size 9 to 14) (size 15 to 20)
#    0.000    0.667    5.556    3.333    1.556    0.000 
#    0.000    0.000    4.889    0.000    0.000    0.000 
#    0.000    0.000    0.000    0.000    0.000    0.000 
#
# Total GULP energy -200892.783157 kJ/mol
# GULP energy per Si atom -5580.355088 kJ/mol
# Density = 2.003919 g / cm^3
# Si number density = 20.084906 Si / 1000 Ang^3
#
#
#
# Elastic Constant Matrix: (Units=GPa)
#
#
# Indices 1 2 3 4 5 6 
#
# 1 101.6486 42.6848 69.0909 0.0000 0.0000 0.0000
# 2 42.6848 101.6486 69.0909 0.0000 0.0000 0.0000
# 3 69.0909 69.0909 136.1028 0.0000 0.0000 0.0000
# 4 0.0000 0.0000 0.0000 -4.2390 0.0000 0.0000
# 5 0.0000 0.0000 0.0000 0.0000 -4.2390 0.0000
# 6 0.0000 0.0000 0.0000 0.0000 0.0000 17.6705
#
#
#
# Elastic Compliance Matrix: (Units=1/GPa)
#
#
# Indices 1 2 3 4 5 6 
#
# 1 0.015219 -0.001740 -0.006843 0.000000 0.000000 0.000000
# 2 -0.001740 0.015219 -0.006843 0.000000 0.000000 0.000000
# 3 -0.006843 -0.006843 0.014295 0.000000 0.000000 0.000000
# 4 0.000000 0.000000 0.000000 -0.235905 0.000000 0.000000
# 5 0.000000 0.000000 0.000000 0.000000 -0.235905 0.000000
# 6 0.000000 0.000000 0.000000 0.000000 0.000000 0.056591
#
#
# Mechanical properties :
#
#
# Convention : Reuss Voigt Hill
#
# Bulk Modulus (GPa) = 72.03174 77.90369 74.96772
# Shear Modulus (GPa) = -14.92505 12.40742 -1.25882
#
# Velocity S-wave (km/s) = -2.72894 2.48815 -0.79253
# Velocity P-wave (km/s) = 5.10020 6.86483 6.04723
#
# Compressibility (1/GPa) = 0.01388277
#
# Stress axis : x y z
#
# Youngs Moduli (GPa) = 65.70529 65.70529 69.95673
#
# Poissons Ratio (x) = 0.11433 0.47869
# Poissons Ratio (y) = 0.11433 0.47869
# Poissons Ratio (z) = 0.44960 0.44960
#
# Static dielectric constant tensor:
#      x y z
#    x 1.746670 0.000000 0.000000 
#    y 0.000000 1.746670 0.000000 
#    z 0.000000 0.000000 1.676020 
# 
# From -- ./inp_files/6132.got.cif
#   From: 2010.05.17/outbox.cif.g08.bks.cpg/sg122_4_cif.got.tgz:6132.got - 2010.05.20 11:37:33.
