data_PCOD9561598
_publ_section_title
;
Structure prediction by ZEFSAII (Michael W. Deem and Ramdas Pophale) SiO2 
 PCOD9561598
Probable space group: P 4/M M M
;
_chemical_formula_sum "Si O2"
_cell_formula_units_Z 106
_cell_length_a 17.004144
_cell_length_b 17.004144
_cell_length_c 24.302236
_cell_angle_alpha 90.000000
_cell_angle_beta 90.000000
_cell_angle_gamma 90.000000
_cell_volume 7026.770709
_symmetry_space_group_name_H-M "P 4/M M M"
_symmetry_group_IT_number 123
_symmetry_cell_setting 'tetragonal'
loop_
_space_group_symop_operation_xyz
x,y,z
-y,x,z
-x,-y,z
y,-x,z
x,-y,-z
-x,y,-z
y,x,-z
-y,-x,-z
-x,-y,-z
y,-x,-z
x,y,-z
-y,x,-z
-x,y,z
x,-y,z
-y,-x,z
y,x,z
loop_
_atom_site_type_symbol
_atom_site_label
_atom_site_fract_x
_atom_site_fract_y
_atom_site_fract_z
Si Si1 0.693201 0.824510 0.838591
Si Si2 0.192362 0.321871 0.656391
Si Si3 0.500000 0.500000 0.892219
Si Si4 0.622239 0.377762 0.935961
Si Si5 0.908201 0.594205 0.564042
Si Si6 0.408432 0.808649 0.936164
Si Si7 0.222526 0.091701 0.742796
Si Si8 0.721854 0.407456 0.754047
O O1 0.762951 0.762951 0.851859
O O2 0.649006 0.850418 0.893380
O O3 0.730707 0.890080 0.799323
O O4 0.630441 0.776112 0.801559
O O5 0.258523 0.258523 0.639490
O O6 0.148853 0.361914 0.605762
O O7 0.129804 0.275302 0.694446
O O8 0.235308 0.384002 0.696838
O O9 0.568697 0.431304 0.897750
O O10 0.605262 0.285450 0.928760
O O11 0.601936 0.398065 0.000000
O O12 0.892600 0.613388 0.500000
O O13 0.899776 0.500000 0.570149
O O14 0.000000 0.613140 0.575386
O O15 0.500000 0.825243 0.925373
O O16 0.391726 0.826320 0.000000
O O17 0.142787 0.142787 0.744501
O O18 0.209652 0.000000 0.734864
O O19 0.713008 0.500000 0.760287
O O20 0.639837 0.360164 0.755742
#
# Coordination Sequence:
#
# PCOD9561598 Si02
#       8
#    16  16   2   8  16  16  16  16
#     4   9  17  29  44  60  84 113 142 178 212 255
#     4   9  17  29  46  67  90 119 149 179 215 261
#     4  12  17  24  32  48  88 120 148 192 232 260
#     4  10  17  22  32  50  76 112 147 182 218 254
#     4   9  17  28  43  65  93 123 153 188 225 253
#     4  10  18  26  39  58  81 114 151 185 221 255
#     4   9  18  32  51  74  93 111 134 165 212 266
#     4   9  17  28  42  58  80 113 151 190 228 257
#
# _framework density 15.085165
#
# number of rings (size 3 to 8) (size 9 to 14) (size 15 to 20)
#    0.000    2.717    1.509    3.962    0.000    0.604 
#    0.000    0.000    0.000    9.509    0.000    1.057 
#    0.000    0.000    0.000   31.396    0.000    0.000 
#
# Total GULP energy -590370.487778 kJ/mol
# GULP energy per Si atom -5569.532904 kJ/mol
# Density = 1.505083 g / cm^3
# Si number density = 15.085165 Si / 1000 Ang^3
#
#
#
# Elastic Constant Matrix: (Units=GPa)
#
#
# Indices 1 2 3 4 5 6 
#
# 1 53.8637 11.2307 10.3195 0.0000 0.0000 0.0000
# 2 11.2307 53.8637 10.3195 0.0000 0.0000 0.0000
# 3 10.3195 10.3195 53.6759 0.0000 0.0000 0.0000
# 4 0.0000 0.0000 0.0000 16.4431 0.0000 0.0000
# 5 0.0000 0.0000 0.0000 0.0000 16.4431 0.0000
# 6 0.0000 0.0000 0.0000 0.0000 0.0000 11.6860
#
#
#
# Elastic Compliance Matrix: (Units=1/GPa)
#
#
# Indices 1 2 3 4 5 6 
#
# 1 0.019908 -0.003548 -0.003145 0.000000 0.000000 0.000000
# 2 -0.003548 0.019908 -0.003145 0.000000 0.000000 0.000000
# 3 -0.003145 -0.003145 0.019840 0.000000 0.000000 0.000000
# 4 0.000000 0.000000 0.000000 0.060816 0.000000 0.000000
# 5 0.000000 0.000000 0.000000 0.000000 0.060816 0.000000
# 6 0.000000 0.000000 0.000000 0.000000 0.000000 0.085573
#
#
# Mechanical properties :
#
#
# Convention : Reuss Voigt Hill
#
# Bulk Modulus (GPa) = 25.01380 25.01585 25.01483
# Shear Modulus (GPa) = 16.67430 17.55002 17.11216
#
# Velocity S-wave (km/s) = 3.32828 3.41456 3.37169
# Velocity P-wave (km/s) = 5.60247 5.67139 5.63704
#
# Compressibility (1/GPa) = 0.03997793
#
# Stress axis : x y z
#
# Youngs Moduli (GPa) = 50.23170 50.23166 50.40403
#
# Poissons Ratio (x) = 0.17823 0.15853
# Poissons Ratio (y) = 0.17823 0.15853
# Poissons Ratio (z) = 0.15799 0.15799
#
# Static dielectric constant tensor:
#      x y z
#    x 1.481760 0.000000 0.000000 
#    y 0.000000 1.481760 0.000000 
#    z 0.000000 0.000000 1.514530 
# 
# From -- ./inp_files/6741.got.cif
#   From: 2010.05.17/outbox.cif.g08.bks.cpg/sg123_4_cif.got.tgz:6741.got - 2010.05.20 11:43:04.
