data_PCOD9561303
_publ_section_title
;
Structure prediction by ZEFSAII (Michael W. Deem and Ramdas Pophale) SiO2 
 PCOD9561303
Probable space group: I -4 2 D
;
_chemical_formula_sum "Si O2"
_cell_formula_units_Z 40
_cell_length_a 14.099933
_cell_length_b 14.099933
_cell_length_c 8.268999
_cell_angle_alpha 90.000000
_cell_angle_beta 90.000000
_cell_angle_gamma 90.000000
_cell_volume 1643.944068
_symmetry_space_group_name_H-M "I -4 2 D"
_symmetry_group_IT_number 122
_symmetry_cell_setting 'tetragonal'
loop_
_space_group_symop_operation_xyz
x,y,z
y,-x,-z
-x,-y,z
-y,x,-z
x,1/2-y,1/4-z
-x,1/2+y,1/4-z
-y,1/2-x,1/4+z
y,1/2+x,1/4+z
1/2+x,1/2+y,1/2+z
1/2+y,1/2-x,1/2-z
1/2-x,1/2-y,1/2+z
1/2-y,1/2+x,1/2-z
1/2+x,-y,3/4-z
1/2-x,y,3/4-z
1/2-y,-x,3/4+z
1/2+y,x,3/4+z
loop_
_atom_site_type_symbol
_atom_site_label
_atom_site_fract_x
_atom_site_fract_y
_atom_site_fract_z
Si Si1 0.643234 0.646649 0.065176
Si Si2 0.000000 0.500000 0.250000
Si Si3 0.859761 0.643844 0.073811
Si Si4 0.500000 0.000000 0.250000
O O1 0.611659 0.750000 0.125000
O O2 0.749630 0.629541 0.127059
O O3 0.569496 0.564938 0.106771
O O4 0.642804 0.643519 0.870633
O O5 0.072565 0.433532 0.150695
O O6 0.887849 0.750000 0.125000
#
# Coordination Sequence:
#
# PCOD9561303 Si02
#       4
#    16   4  16   4
#     4  10  25  48  74 109 152 199 253 317 383 460
#     4  12  26  48  84 114 150 204 266 316 398 460
#     4  10  25  49  75 109 152 195 256 321 380 460
#     4  12  26  40  80 102 150 200 256 306 378 456
#
# _framework density 24.331727000000001
#
# number of rings (size 3 to 8) (size 9 to 14) (size 15 to 20)
#    0.000    1.600    0.000    1.200   11.200    3.200 
#    7.200    0.000    0.000    0.000    0.000    0.000 
#    0.000    0.000    0.000    0.000    0.000    0.000 
#
# Total GULP energy -112142.627022 kJ/mol
# GULP energy per Si atom -5607.131351 kJ/mol
# Density = 2.427635 g / cm^3
# Si number density = 24.331727 Si / 1000 Ang^3
#
#
#
# Elastic Constant Matrix: (Units=GPa)
#
#
# Indices 1 2 3 4 5 6 
#
# 1 165.2763 121.2527 37.8666 0.0000 0.0000 0.0000
# 2 121.2527 165.2763 37.8666 0.0000 0.0000 0.0000
# 3 37.8666 37.8666 60.8105 0.0000 0.0000 0.0000
# 4 0.0000 0.0000 0.0000 38.6768 0.0000 0.0000
# 5 0.0000 0.0000 0.0000 0.0000 38.6768 0.0000
# 6 0.0000 0.0000 0.0000 0.0000 0.0000 63.4858
#
#
#
# Elastic Compliance Matrix: (Units=1/GPa)
#
#
# Indices 1 2 3 4 5 6 
#
# 1 0.013446 -0.009269 -0.002601 0.000000 0.000000 0.000000
# 2 -0.009269 0.013446 -0.002601 0.000000 0.000000 0.000000
# 3 -0.002601 -0.002601 0.019684 0.000000 0.000000 0.000000
# 4 0.000000 0.000000 0.000000 0.025855 0.000000 0.000000
# 5 0.000000 0.000000 0.000000 0.000000 0.025855 0.000000
# 6 0.000000 0.000000 0.000000 0.000000 0.000000 0.015752
#
#
# Mechanical properties :
#
#
# Convention : Reuss Voigt Hill
#
# Bulk Modulus (GPa) = 56.70875 87.25943 71.98409
# Shear Modulus (GPa) = 33.58851 41.12633 37.35742
#
# Velocity S-wave (km/s) = 3.71946 4.11571 3.92259
# Velocity P-wave (km/s) = 6.46552 7.65021 7.08268
#
# Compressibility (1/GPa) = 0.01763396
#
# Stress axis : x y z
#
# Youngs Moduli (GPa) = 74.36943 74.36943 50.80184
#
# Poissons Ratio (x) = 0.68931 0.13216
# Poissons Ratio (y) = 0.68931 0.13216
# Poissons Ratio (z) = 0.19347 0.19347
#
# Static dielectric constant tensor:
#      x y z
#    x 1.941260 0.000000 0.000000 
#    y 0.000000 1.941260 0.000000 
#    z 0.000000 0.000000 1.991050 
# 
# From -- ./inp_files/1888.got.cif
#   From: 2010.05.17/outbox.cif.g08.bks.cpg/sg122_1_cif.got.tgz:1888.got - 2010.05.20 11:37:33.
