data_PCOD9561917
_publ_section_title
;
Structure prediction by ZEFSAII (Michael W. Deem and Ramdas Pophale) SiO2 
 PCOD9561917
Probable space group: P 4/M M M
;
_chemical_formula_sum "Si O2"
_cell_formula_units_Z 58
_cell_length_a 12.290497
_cell_length_b 12.290497
_cell_length_c 22.384900
_cell_angle_alpha 90.000000
_cell_angle_beta 90.000000
_cell_angle_gamma 90.000000
_cell_volume 3381.380539
_symmetry_space_group_name_H-M "P 4/M M M"
_symmetry_group_IT_number 123
_symmetry_cell_setting 'tetragonal'
loop_
_space_group_symop_operation_xyz
x,y,z
-y,x,z
-x,-y,z
y,-x,z
x,-y,-z
-x,y,-z
y,x,-z
-y,-x,-z
-x,-y,-z
y,-x,-z
x,y,-z
-y,x,-z
-x,y,z
x,-y,z
-y,-x,z
y,x,z
loop_
_atom_site_type_symbol
_atom_site_label
_atom_site_fract_x
_atom_site_fract_y
_atom_site_fract_z
Si Si1 0.500000 0.732959 0.066301
Si Si2 0.874151 0.300989 0.108340
Si Si3 0.628343 0.192233 0.759476
Si Si4 0.000000 0.181193 0.429223
Si Si5 0.500000 0.500000 0.118240
Si Si6 0.626906 0.000000 0.335335
O O1 0.605379 0.807467 0.074586
O O2 0.500000 0.634150 0.112570
O O3 0.500000 0.683562 0.000000
O O4 0.812447 0.187554 0.098665
O O5 0.861328 0.332943 0.178275
O O6 0.000000 0.299192 0.091761
O O7 0.500000 0.215924 0.763605
O O8 0.700693 0.299308 0.750160
O O9 0.644470 0.105437 0.706580
O O10 0.000000 0.288033 0.389089
O O11 0.104951 0.104951 0.416843
O O12 0.000000 0.205593 0.500000
O O13 0.500000 0.000000 0.354303
#
# Coordination Sequence:
#
# PCOD9561917 Si02
#       6
#     8  16  16   8   2   8
#     4  12  24  40  63  87 114 142 176 235 294 347
#     4  11  23  39  58  80 111 147 185 231 280 336
#     4  10  20  34  51  76 106 142 180 224 273 326
#     4   9  18  33  53  79 111 144 181 227 269 311
#     4  12  25  44  64  96 120 132 188 240 285 350
#     4  10  19  32  54  76 107 148 179 221 272 319
#
# _framework density 17.152759
#
# number of rings (size 3 to 8) (size 9 to 14) (size 15 to 20)
#    0.000    1.517    4.138    2.276    0.000    1.931 
#    0.000    0.000    0.000    0.000    0.000    1.931 
#    0.000    0.000    0.000   25.655    0.000    0.000 
#
# Total GULP energy -323507.572997 kJ/mol
# GULP energy per Si atom -5577.716776 kJ/mol
# Density = 1.711372 g / cm^3
# Si number density = 17.152759 Si / 1000 Ang^3
#
#
#
# Elastic Constant Matrix: (Units=GPa)
#
#
# Indices 1 2 3 4 5 6 
#
# 1 117.6113 48.5991 13.6465 0.0000 0.0000 0.0000
# 2 48.5991 117.6113 13.6465 0.0000 0.0000 0.0000
# 3 13.6465 13.6465 51.5041 0.0000 0.0000 0.0000
# 4 0.0000 0.0000 0.0000 96.1725 0.0000 0.0000
# 5 0.0000 0.0000 0.0000 0.0000 96.1725 0.0000
# 6 0.0000 0.0000 0.0000 0.0000 0.0000 17.4734
#
#
#
# Elastic Compliance Matrix: (Units=1/GPa)
#
#
# Indices 1 2 3 4 5 6 
#
# 1 0.010390 -0.004100 -0.001667 0.000000 0.000000 0.000000
# 2 -0.004100 0.010390 -0.001667 0.000000 0.000000 0.000000
# 3 -0.001667 -0.001667 0.020299 0.000000 0.000000 0.000000
# 4 0.000000 0.000000 0.000000 0.010398 0.000000 0.000000
# 5 0.000000 0.000000 0.000000 0.000000 0.010398 0.000000
# 6 0.000000 0.000000 0.000000 0.000000 0.000000 0.057230
#
#
# Mechanical properties :
#
#
# Convention : Reuss Voigt Hill
#
# Bulk Modulus (GPa) = 38.14917 48.72341 43.43629
# Shear Modulus (GPa) = 35.03622 56.01933 45.52778
#
# Velocity S-wave (km/s) = 4.52442 5.72101 5.15753
# Velocity P-wave (km/s) = 7.04151 8.49160 7.80032
#
# Compressibility (1/GPa) = 0.02621289
#
# Stress axis : x y z
#
# Youngs Moduli (GPa) = 96.24482 96.24482 49.26321
#
# Poissons Ratio (x) = 0.39461 0.08210
# Poissons Ratio (y) = 0.39461 0.08210
# Poissons Ratio (z) = 0.16040 0.16040
#
# Static dielectric constant tensor:
#      x y z
#    x 1.569040 0.000000 0.000000 
#    y 0.000000 1.569040 0.000000 
#    z 0.000000 0.000000 1.579330 
# 
# From -- ./inp_files/6195.got.cif
#   From: 2010.05.17/outbox.cif.g08.bks.cpg/sg123_4_cif.got.tgz:6195.got - 2010.05.20 11:43:04.
