data_PCOD9561122
_publ_section_title
;
Structure prediction by ZEFSAII (Michael W. Deem and Ramdas Pophale) SiO2 
 PCOD9561122
Probable space group: I -4 2 D
;
_chemical_formula_sum "Si O2"
_cell_formula_units_Z 80
_cell_length_a 16.627735
_cell_length_b 16.627735
_cell_length_c 14.032768
_cell_angle_alpha 90.000000
_cell_angle_beta 90.000000
_cell_angle_gamma 90.000000
_cell_volume 3879.801745
_symmetry_space_group_name_H-M "I -4 2 D"
_symmetry_group_IT_number 122
_symmetry_cell_setting 'tetragonal'
loop_
_space_group_symop_operation_xyz
x,y,z
y,-x,-z
-x,-y,z
-y,x,-z
x,1/2-y,1/4-z
-x,1/2+y,1/4-z
-y,1/2-x,1/4+z
y,1/2+x,1/4+z
1/2+x,1/2+y,1/2+z
1/2+y,1/2-x,1/2-z
1/2-x,1/2-y,1/2+z
1/2-y,1/2+x,1/2-z
1/2+x,-y,3/4-z
1/2-x,y,3/4-z
1/2-y,-x,3/4+z
1/2+y,x,3/4+z
loop_
_atom_site_type_symbol
_atom_site_label
_atom_site_fract_x
_atom_site_fract_y
_atom_site_fract_z
Si Si1 0.317035 0.896631 0.299712
Si Si2 0.577997 0.555820 0.203655
Si Si3 0.722402 0.846163 0.483802
Si Si4 0.448571 0.270045 0.735881
Si Si5 0.518659 0.701994 0.327565
O O1 0.250000 0.923789 0.375000
O O2 0.402016 0.913240 0.349722
O O3 0.310476 0.801899 0.282192
O O4 0.287781 0.942582 0.205693
O O5 0.500000 0.500000 0.203844
O O6 0.653899 0.503752 0.235976
O O7 0.565918 0.629075 0.278155
O O8 0.750000 0.862206 0.375000
O O9 0.644768 0.790191 0.492346
O O10 0.700816 0.928980 0.536569
O O11 0.457484 0.250000 0.625000
O O12 0.476094 0.200544 0.808800
#
# Coordination Sequence:
#
# PCOD9561122 Si02
#       5
#    16  16  16  16  16
#     4  10  22  41  67  99 131 167 215 279 345 397
#     4  11  23  46  70 100 135 172 222 280 343 406
#     4  12  22  42  70  99 136 169 223 285 341 398
#     4  12  27  45  67  98 135 190 232 271 335 410
#     4  11  24  44  68 102 136 173 223 283 344 406
#
# _framework density 20.619612
#
# number of rings (size 3 to 8) (size 9 to 14) (size 15 to 20)
#    0.000    0.800    6.000    2.400    0.000    1.600 
#    7.200    0.000    0.000    0.000    0.000    0.000 
#    0.000    0.000    0.000    0.000    0.000    0.000 
#
# Total GULP energy -223519.732082 kJ/mol
# GULP energy per Si atom -5587.993302 kJ/mol
# Density = 2.057268 g / cm^3
# Si number density = 20.619612 Si / 1000 Ang^3
#
#
#
# Elastic Constant Matrix: (Units=GPa)
#
#
# Indices 1 2 3 4 5 6 
#
# 1 68.5047 9.5271 27.5146 0.0000 0.0000 0.0000
# 2 9.5271 68.5047 27.5146 0.0000 0.0000 0.0000
# 3 27.5146 27.5146 147.3679 0.0000 0.0000 0.0000
# 4 0.0000 0.0000 0.0000 17.5619 0.0000 0.0000
# 5 0.0000 0.0000 0.0000 0.0000 17.5619 0.0000
# 6 0.0000 0.0000 0.0000 0.0000 0.0000 30.3856
#
#
#
# Elastic Compliance Matrix: (Units=1/GPa)
#
#
# Indices 1 2 3 4 5 6 
#
# 1 0.015857 -0.001099 -0.002756 0.000000 0.000000 0.000000
# 2 -0.001099 0.015857 -0.002756 0.000000 0.000000 0.000000
# 3 -0.002756 -0.002756 0.007815 0.000000 0.000000 0.000000
# 4 0.000000 0.000000 0.000000 0.056941 0.000000 0.000000
# 5 0.000000 0.000000 0.000000 0.000000 0.056941 0.000000
# 6 0.000000 0.000000 0.000000 0.000000 0.000000 0.032910
#
#
# Mechanical properties :
#
#
# Convention : Reuss Voigt Hill
#
# Bulk Modulus (GPa) = 38.00886 45.94332 41.97609
# Shear Modulus (GPa) = 24.00257 27.75663 25.87960
#
# Velocity S-wave (km/s) = 3.41554 3.67294 3.54658
# Velocity P-wave (km/s) = 5.83335 6.34957 6.09693
#
# Compressibility (1/GPa) = 0.02630965
#
# Stress axis : x y z
#
# Youngs Moduli (GPa) = 63.06345 63.06345 127.96420
#
# Poissons Ratio (x) = 0.06928 0.35261
# Poissons Ratio (y) = 0.06928 0.35261
# Poissons Ratio (z) = 0.17377 0.17377
#
# Static dielectric constant tensor:
#      x y z
#    x 1.719200 0.000000 0.000000 
#    y 0.000000 1.719200 0.000000 
#    z 0.000000 0.000000 1.789760 
# 
# From -- ./inp_files/5306.got.cif
#   From: 2010.05.17/outbox.cif.g08.bks.cpg/sg122_3_cif.got.tgz:5306.got - 2010.05.20 11:37:33.
