data_PCOD9561515
_publ_section_title
;
Structure prediction by ZEFSAII (Michael W. Deem and Ramdas Pophale) SiO2 
 PCOD9561515
Probable space group: I -4 2 D
;
_chemical_formula_sum "Si O2"
_cell_formula_units_Z 64
_cell_length_a 11.557705
_cell_length_b 11.557705
_cell_length_c 22.360699
_cell_angle_alpha 90.000000
_cell_angle_beta 90.000000
_cell_angle_gamma 90.000000
_cell_volume 2986.954356
_symmetry_space_group_name_H-M "I -4 2 D"
_symmetry_group_IT_number 122
_symmetry_cell_setting 'tetragonal'
loop_
_space_group_symop_operation_xyz
x,y,z
y,-x,-z
-x,-y,z
-y,x,-z
x,1/2-y,1/4-z
-x,1/2+y,1/4-z
-y,1/2-x,1/4+z
y,1/2+x,1/4+z
1/2+x,1/2+y,1/2+z
1/2+y,1/2-x,1/2-z
1/2-x,1/2-y,1/2+z
1/2-y,1/2+x,1/2-z
1/2+x,-y,3/4-z
1/2-x,y,3/4-z
1/2-y,-x,3/4+z
1/2+y,x,3/4+z
loop_
_atom_site_type_symbol
_atom_site_label
_atom_site_fract_x
_atom_site_fract_y
_atom_site_fract_z
Si Si1 0.750885 0.311176 0.691095
Si Si2 0.424042 0.887729 0.845580
Si Si3 0.694053 0.921113 0.532003
Si Si4 0.238762 0.500161 0.492682
O O1 0.763658 0.250000 0.625000
O O2 0.733108 0.449204 0.701258
O O3 0.856002 0.274820 0.734703
O O4 0.629533 0.268581 0.718661
O O5 0.372608 0.818821 0.900930
O O6 0.500303 0.799760 0.806851
O O7 0.500000 0.000000 0.865286
O O8 0.327532 0.937463 0.801839
O O9 0.567055 0.883048 0.506896
#
# Coordination Sequence:
#
# PCOD9561515 Si02
#       4
#    16  16  16  16
#     4  12  27  49  72 104 149 194 256 306 367 443
#     4  12  21  40  73 115 152 185 233 306 375 444
#     4  12  26  44  71 102 146 200 242 307 367 437
#     4  12  21  41  73 115 151 187 232 303 378 446
#
# _framework density 21.426507999999998
#
# number of rings (size 3 to 8) (size 9 to 14) (size 15 to 20)
#    0.000    0.000    5.000    7.500    0.000    0.500 
#    4.500    0.000    0.000    0.000    0.000    0.000 
#    0.000    0.000    0.000    0.000    0.000    0.000 
#
# Total GULP energy -178387.649352 kJ/mol
# GULP energy per Si atom -5574.614042 kJ/mol
# Density = 2.137774 g / cm^3
# Si number density = 21.426508 Si / 1000 Ang^3
#
#
#
# Elastic Constant Matrix: (Units=GPa)
#
#
# Indices 1 2 3 4 5 6 
#
# 1 138.5736 36.2790 59.2361 0.0000 0.0000 0.0000
# 2 36.2790 138.5736 59.2361 0.0000 0.0000 0.0000
# 3 59.2361 59.2361 130.3314 0.0000 0.0000 0.0000
# 4 0.0000 0.0000 0.0000 24.0422 0.0000 0.0000
# 5 0.0000 0.0000 0.0000 0.0000 24.0422 0.0000
# 6 0.0000 0.0000 0.0000 0.0000 0.0000 36.4701
#
#
#
# Elastic Compliance Matrix: (Units=1/GPa)
#
#
# Indices 1 2 3 4 5 6 
#
# 1 0.009020 -0.000756 -0.003756 0.000000 0.000000 0.000000
# 2 -0.000756 0.009020 -0.003756 0.000000 0.000000 0.000000
# 3 -0.003756 -0.003756 0.011087 0.000000 0.000000 0.000000
# 4 0.000000 0.000000 0.000000 0.041593 0.000000 0.000000
# 5 0.000000 0.000000 0.000000 0.000000 0.041593 0.000000
# 6 0.000000 0.000000 0.000000 0.000000 0.000000 0.027420
#
#
# Mechanical properties :
#
#
# Convention : Reuss Voigt Hill
#
# Bulk Modulus (GPa) = 79.42227 79.66458 79.54342
# Shear Modulus (GPa) = 31.15921 33.75940 32.45930
#
# Velocity S-wave (km/s) = 3.81758 3.97368 3.89641
# Velocity P-wave (km/s) = 7.52195 7.63640 7.57939
#
# Compressibility (1/GPa) = 0.01259093
#
# Stress axis : x y z
#
# Youngs Moduli (GPa) = 110.86657 110.86657 90.19572
#
# Poissons Ratio (x) = 0.08380 0.33878
# Poissons Ratio (y) = 0.08380 0.33878
# Poissons Ratio (z) = 0.41642 0.41642
#
# Static dielectric constant tensor:
#      x y z
#    x 1.843510 0.000000 0.000000 
#    y 0.000000 1.843510 0.000000 
#    z 0.000000 0.000000 1.796780 
# 
# From -- ./inp_files/6917.got.cif
#   From: 2010.05.17/outbox.cif.g08.bks.cpg/sg122_4_cif.got.tgz:6917.got - 2010.05.20 11:37:33.
