data_PCOD9561826
_publ_section_title
;
Structure prediction by ZEFSAII (Michael W. Deem and Ramdas Pophale) SiO2 
 PCOD9561826
Probable space group: P 4/M M M
;
_chemical_formula_sum "Si O2"
_cell_formula_units_Z 96
_cell_length_a 25.032804
_cell_length_b 25.032804
_cell_length_c 7.431073
_cell_angle_alpha 90.000000
_cell_angle_beta 90.000000
_cell_angle_gamma 90.000000
_cell_volume 4656.617068
_symmetry_space_group_name_H-M "P 4/M M M"
_symmetry_group_IT_number 123
_symmetry_cell_setting 'tetragonal'
loop_
_space_group_symop_operation_xyz
x,y,z
-y,x,z
-x,-y,z
y,-x,z
x,-y,-z
-x,y,-z
y,x,-z
-y,-x,-z
-x,-y,-z
y,-x,-z
x,y,-z
-y,x,-z
-x,y,z
x,-y,z
-y,-x,z
y,x,z
loop_
_atom_site_type_symbol
_atom_site_label
_atom_site_fract_x
_atom_site_fract_y
_atom_site_fract_z
Si Si1 0.149784 0.645296 0.789757
Si Si2 0.147214 0.233666 0.780463
Si Si3 0.559970 0.354849 0.717112
Si Si4 0.440403 0.768761 0.212904
Si Si5 0.061862 0.559297 0.282850
Si Si6 0.852891 0.938960 0.780555
O O1 0.145653 0.705247 0.716017
O O2 0.195325 0.606817 0.709839
O O3 0.096839 0.609066 0.778805
O O4 0.162853 0.652998 0.000000
O O5 0.200046 0.200046 0.728149
O O6 0.096064 0.198410 0.724513
O O7 0.146217 0.233865 0.000000
O O8 0.559608 0.357451 0.500000
O O9 0.500000 0.367854 0.779685
O O10 0.604006 0.395995 0.783961
O O11 0.571231 0.293760 0.766446
O O12 0.500000 0.778977 0.287904
O O13 0.443278 0.780485 0.000000
O O14 0.063260 0.559245 0.500000
O O15 0.081359 0.500000 0.223580
O O16 0.000000 0.564148 0.227959
O O17 0.905187 0.905187 0.726668
O O18 0.852281 0.000000 0.719124
O O19 0.852644 0.939768 0.000000
#
# Coordination Sequence:
#
# PCOD9561826 Si02
#       6
#    16  16  16  16  16  16
#     4  10  19  30  49  74  93 116 156 198 231 269
#     4   8  15  27  40  58  88 120 147 182 231 279
#     4   9  18  32  49  69  92 118 150 188 230 277
#     4   9  18  31  45  64  91 118 145 183 230 275
#     4   9  19  35  51  68  95 129 158 186 229 283
#     4   8  13  21  33  50  76 111 147 182 219 258
#
# _framework density 20.615825000000001
#
# number of rings (size 3 to 8) (size 9 to 14) (size 15 to 20)
#    0.000    3.167    0.000    2.000    0.000    4.000 
#    0.000    7.500    0.000    0.500    0.000    2.333 
#    0.000    0.000    0.000    0.000    0.000    0.000 
#
# Total GULP energy -535487.817369 kJ/mol
# GULP energy per Si atom -5577.998098 kJ/mol
# Density = 2.056890 g / cm^3
# Si number density = 20.615825 Si / 1000 Ang^3
#
#
#
# Elastic Constant Matrix: (Units=GPa)
#
#
# Indices 1 2 3 4 5 6 
#
# 1 191.0232 127.1501 1.1789 0.0000 0.0000 0.0000
# 2 127.1501 191.0232 1.1789 0.0000 0.0000 0.0000
# 3 1.1789 1.1789 64.6241 0.0000 0.0000 0.0000
# 4 0.0000 0.0000 0.0000 77.4094 0.0000 0.0000
# 5 0.0000 0.0000 0.0000 0.0000 77.4094 0.0000
# 6 0.0000 0.0000 0.0000 0.0000 0.0000 22.1706
#
#
#
# Elastic Compliance Matrix: (Units=1/GPa)
#
#
# Indices 1 2 3 4 5 6 
#
# 1 0.009400 -0.006256 -0.000057 0.000000 0.000000 0.000000
# 2 -0.006256 0.009400 -0.000057 0.000000 0.000000 0.000000
# 3 -0.000057 -0.000057 0.015476 0.000000 0.000000 0.000000
# 4 0.000000 0.000000 0.000000 0.012918 0.000000 0.000000
# 5 0.000000 0.000000 0.000000 0.000000 0.012918 0.000000
# 6 0.000000 0.000000 0.000000 0.000000 0.000000 0.045105
#
#
# Mechanical properties :
#
#
# Convention : Reuss Voigt Hill
#
# Bulk Modulus (GPa) = 46.43914 78.40959 62.42436
# Shear Modulus (GPa) = 39.95620 56.54203 48.24911
#
# Velocity S-wave (km/s) = 4.40720 5.24271 4.84301
# Velocity P-wave (km/s) = 6.96224 8.64664 7.84975
#
# Compressibility (1/GPa) = 0.02153356
#
# Stress axis : x y z
#
# Youngs Moduli (GPa) = 106.38628 106.38628 64.61532
#
# Poissons Ratio (x) = 0.66559 0.00371
# Poissons Ratio (y) = 0.66559 0.00371
# Poissons Ratio (z) = 0.00610 0.00610
#
# Static dielectric constant tensor:
#      x y z
#    x 1.717660 0.000000 0.000000 
#    y 0.000000 1.717660 0.000000 
#    z 0.000000 0.000000 1.791550 
# 
# From -- ./inp_files/1634.got.cif
#   From: 2010.05.17/outbox.cif.g08.bks.cpg/sg123_1_cif.got.tgz:1634.got - 2010.05.20 11:43:04.
