data_PCOD9561394
_publ_section_title
;
Structure prediction by ZEFSAII (Michael W. Deem and Ramdas Pophale) SiO2 
 PCOD9561394
Probable space group: I -4 2 D
;
_chemical_formula_sum "Si O2"
_cell_formula_units_Z 80
_cell_length_a 12.158277
_cell_length_b 12.158277
_cell_length_c 25.822459
_cell_angle_alpha 90.000000
_cell_angle_beta 90.000000
_cell_angle_gamma 90.000000
_cell_volume 3817.171422
_symmetry_space_group_name_H-M "I -4 2 D"
_symmetry_group_IT_number 122
_symmetry_cell_setting 'tetragonal'
loop_
_space_group_symop_operation_xyz
x,y,z
y,-x,-z
-x,-y,z
-y,x,-z
x,1/2-y,1/4-z
-x,1/2+y,1/4-z
-y,1/2-x,1/4+z
y,1/2+x,1/4+z
1/2+x,1/2+y,1/2+z
1/2+y,1/2-x,1/2-z
1/2-x,1/2-y,1/2+z
1/2-y,1/2+x,1/2-z
1/2+x,-y,3/4-z
1/2-x,y,3/4-z
1/2-y,-x,3/4+z
1/2+y,x,3/4+z
loop_
_atom_site_type_symbol
_atom_site_label
_atom_site_fract_x
_atom_site_fract_y
_atom_site_fract_z
Si Si1 0.690662 0.316472 0.178511
Si Si2 0.655718 0.923360 0.065215
Si Si3 0.609046 0.925444 0.178670
Si Si4 0.888597 0.357475 0.251811
Si Si5 0.233486 0.981374 0.254310
O O1 0.691313 0.250000 0.125000
O O2 0.660507 0.445826 0.175201
O O3 0.807843 0.313633 0.207393
O O4 0.596060 0.269451 0.215185
O O5 0.615038 0.881548 0.120433
O O6 0.776941 0.882128 0.050631
O O7 0.579249 0.881178 0.017896
O O8 0.592146 0.824619 0.217265
O O9 0.500000 0.000000 0.183577
O O10 0.717621 0.992505 0.197504
O O11 0.857146 0.483125 0.264187
#
# Coordination Sequence:
#
# PCOD9561394 Si02
#       5
#    16  16  16  16  16
#     4  11  23  39  67  94 128 175 223 279 349 420
#     4  11  24  39  65  96 128 179 230 282 344 415
#     4  12  23  39  62  94 134 178 220 273 343 411
#     4   9  21  44  67  90 127 169 226 289 347 410
#     4  12  22  39  60  94 138 174 222 281 336 414
#
# _framework density 20.957924999999999
#
# number of rings (size 3 to 8) (size 9 to 14) (size 15 to 20)
#    0.000    1.000    2.000    6.000    2.800    0.000 
#    0.000    6.000    8.800    0.000    0.000    0.000 
#    0.000    0.000    0.000    0.000    0.000    0.000 
#
# Total GULP energy -223429.277720 kJ/mol
# GULP energy per Si atom -5585.731943 kJ/mol
# Density = 2.091022 g / cm^3
# Si number density = 20.957925 Si / 1000 Ang^3
#
#
#
# Elastic Constant Matrix: (Units=GPa)
#
#
# Indices 1 2 3 4 5 6 
#
# 1 91.5981 45.3744 37.6310 0.0000 0.0000 0.0000
# 2 45.3744 91.5981 37.6310 0.0000 0.0000 0.0000
# 3 37.6310 37.6310 58.5049 0.0000 0.0000 0.0000
# 4 0.0000 0.0000 0.0000 33.2210 0.0000 0.0000
# 5 0.0000 0.0000 0.0000 0.0000 33.2210 0.0000
# 6 0.0000 0.0000 0.0000 0.0000 0.0000 36.5224
#
#
#
# Elastic Compliance Matrix: (Units=1/GPa)
#
#
# Indices 1 2 3 4 5 6 
#
# 1 0.016463 -0.005171 -0.007263 0.000000 0.000000 0.000000
# 2 -0.005171 0.016463 -0.007263 0.000000 0.000000 0.000000
# 3 -0.007263 -0.007263 0.026436 0.000000 0.000000 0.000000
# 4 0.000000 0.000000 0.000000 0.030101 0.000000 0.000000
# 5 0.000000 0.000000 0.000000 0.000000 0.030101 0.000000
# 6 0.000000 0.000000 0.000000 0.000000 0.000000 0.027380
#
#
# Mechanical properties :
#
#
# Convention : Reuss Voigt Hill
#
# Bulk Modulus (GPa) = 50.08177 53.66375 51.87276
# Shear Modulus (GPa) = 25.90763 28.66388 27.28575
#
# Velocity S-wave (km/s) = 3.51974 3.70224 3.61214
# Velocity P-wave (km/s) = 6.36131 6.62846 6.49626
#
# Compressibility (1/GPa) = 0.01996735
#
# Stress axis : x y z
#
# Youngs Moduli (GPa) = 60.74362 60.74362 37.82787
#
# Poissons Ratio (x) = 0.31412 0.27473
# Poissons Ratio (y) = 0.31412 0.27473
# Poissons Ratio (z) = 0.44116 0.44116
#
# Static dielectric constant tensor:
#      x y z
#    x 1.810520 0.000000 0.000000 
#    y 0.000000 1.810520 0.000000 
#    z 0.000000 0.000000 1.736400 
# 
# From -- ./inp_files/9392.got.cif
#   From: 2010.05.17/outbox.cif.g08.bks.cpg/sg122_5_cif.got.tgz:9392.got - 2010.05.20 11:37:33.
