data_PCOD9561981
_publ_section_title
;
Structure prediction by ZEFSAII (Michael W. Deem and Ramdas Pophale) SiO2 
 PCOD9561981
Probable space group: P 4/M M M
;
_chemical_formula_sum "Si O2"
_cell_formula_units_Z 56
_cell_length_a 13.673085
_cell_length_b 13.673085
_cell_length_c 18.544194
_cell_angle_alpha 90.000000
_cell_angle_beta 90.000000
_cell_angle_gamma 90.000000
_cell_volume 3466.897400
_symmetry_space_group_name_H-M "P 4/M M M"
_symmetry_group_IT_number 123
_symmetry_cell_setting 'tetragonal'
loop_
_space_group_symop_operation_xyz
x,y,z
-y,x,z
-x,-y,z
y,-x,z
x,-y,-z
-x,y,-z
y,x,-z
-y,-x,-z
-x,-y,-z
y,-x,-z
x,y,-z
-y,x,-z
-x,y,z
x,-y,z
-y,-x,z
y,x,z
loop_
_atom_site_type_symbol
_atom_site_label
_atom_site_fract_x
_atom_site_fract_y
_atom_site_fract_z
Si Si1 0.612891 0.881299 0.419779
Si Si2 0.724838 0.116861 0.275206
Si Si3 0.777190 0.616711 0.852946
Si Si4 0.381558 0.888340 0.000000
O O1 0.644635 0.849164 0.500000
O O2 0.500000 0.850409 0.409000
O O3 0.679477 0.853472 0.352614
O O4 0.612315 0.000000 0.420554
O O5 0.826841 0.173160 0.265281
O O6 0.652412 0.155290 0.213015
O O7 0.734165 0.000000 0.272233
O O8 0.764099 0.500000 0.851457
O O9 0.675931 0.675931 0.848036
O O10 0.830770 0.645377 0.927584
O O11 0.500000 0.892929 0.000000
O O12 0.344905 0.000000 0.000000
#
# Coordination Sequence:
#
# PCOD9561981 Si02
#       4
#    16  16  16   8
#     4   8  14  26  45  67  89 115 150 193 239 284
#     4  10  20  32  47  68  94 126 164 204 245 290
#     4  10  20  33  50  73  99 127 161 200 244 294
#     4   9  17  30  49  71  95 125 159 193 228 269
#
# _framework density 16.152771000000001
#
# number of rings (size 3 to 8) (size 9 to 14) (size 15 to 20)
#    0.000    2.714    0.000    3.000    0.000    4.000 
#    0.000    0.000    0.000    2.571    0.000    4.000 
#    0.000   10.286    0.000   26.571    0.000    1.429 
#
# Total GULP energy -311955.728232 kJ/mol
# GULP energy per Si atom -5570.638004 kJ/mol
# Density = 1.611601 g / cm^3
# Si number density = 16.152771 Si / 1000 Ang^3
#
#
#
# Elastic Constant Matrix: (Units=GPa)
#
#
# Indices 1 2 3 4 5 6 
#
# 1 82.6257 47.5727 47.6713 0.0000 0.0000 0.0000
# 2 47.5727 82.6257 47.6713 0.0000 0.0000 0.0000
# 3 47.6713 47.6713 131.0448 0.0000 0.0000 0.0000
# 4 0.0000 0.0000 0.0000 18.2233 0.0000 0.0000
# 5 0.0000 0.0000 0.0000 0.0000 18.2233 0.0000
# 6 0.0000 0.0000 0.0000 0.0000 0.0000 6.6620
#
#
#
# Elastic Compliance Matrix: (Units=1/GPa)
#
#
# Indices 1 2 3 4 5 6 
#
# 1 0.019499 -0.009029 -0.003809 0.000000 0.000000 0.000000
# 2 -0.009029 0.019499 -0.003809 0.000000 0.000000 0.000000
# 3 -0.003809 -0.003809 0.010402 0.000000 0.000000 0.000000
# 4 0.000000 0.000000 0.000000 0.054875 0.000000 0.000000
# 5 0.000000 0.000000 0.000000 0.000000 0.054875 0.000000
# 6 0.000000 0.000000 0.000000 0.000000 0.000000 0.150106
#
#
# Mechanical properties :
#
#
# Convention : Reuss Voigt Hill
#
# Bulk Modulus (GPa) = 62.08607 64.68079 63.38343
# Shear Modulus (GPa) = 14.37123 18.84709 16.60916
#
# Velocity S-wave (km/s) = 2.98603 3.41955 3.21012
# Velocity P-wave (km/s) = 7.09991 7.46467 7.28457
#
# Compressibility (1/GPa) = 0.01610667
#
# Stress axis : x y z
#
# Youngs Moduli (GPa) = 51.28494 51.28494 96.13567
#
# Poissons Ratio (x) = 0.46307 0.36614
# Poissons Ratio (y) = 0.46307 0.36614
# Poissons Ratio (z) = 0.19532 0.19532
#
# Static dielectric constant tensor:
#      x y z
#    x 1.521120 0.000000 0.000000 
#    y 0.000000 1.521120 0.000000 
#    z 0.000000 0.000000 1.556820 
# 
# From -- ./inp_files/3693.got.cif
#   From: 2010.05.17/outbox.cif.g08.bks.cpg/sg123_2_cif.got.tgz:3693.got - 2010.05.20 11:43:04.
