data_PCOD9561053
_publ_section_title
;
Structure prediction by ZEFSAII (Michael W. Deem and Ramdas Pophale) SiO2 
 PCOD9561053
Probable space group: I -4 2 D
;
_chemical_formula_sum "Si O2"
_cell_formula_units_Z 96
_cell_length_a 14.407730
_cell_length_b 14.407730
_cell_length_c 22.376069
_cell_angle_alpha 90.000000
_cell_angle_beta 90.000000
_cell_angle_gamma 90.000000
_cell_volume 4644.884455
_symmetry_space_group_name_H-M "I -4 2 D"
_symmetry_group_IT_number 122
_symmetry_cell_setting 'tetragonal'
loop_
_space_group_symop_operation_xyz
x,y,z
y,-x,-z
-x,-y,z
-y,x,-z
x,1/2-y,1/4-z
-x,1/2+y,1/4-z
-y,1/2-x,1/4+z
y,1/2+x,1/4+z
1/2+x,1/2+y,1/2+z
1/2+y,1/2-x,1/2-z
1/2-x,1/2-y,1/2+z
1/2-y,1/2+x,1/2-z
1/2+x,-y,3/4-z
1/2-x,y,3/4-z
1/2-y,-x,3/4+z
1/2+y,x,3/4+z
loop_
_atom_site_type_symbol
_atom_site_label
_atom_site_fract_x
_atom_site_fract_y
_atom_site_fract_z
Si Si1 0.911447 0.876705 0.515242
Si Si2 0.362391 0.175936 0.984930
Si Si3 0.146256 0.806969 0.368213
Si Si4 0.200649 0.994367 0.813289
Si Si5 0.527678 0.130726 0.906564
Si Si6 0.639706 0.467000 0.524994
O O1 0.858656 0.788269 0.485396
O O2 0.890165 0.867024 0.585350
O O3 0.021930 0.875388 0.504253
O O4 0.302464 0.106220 0.944271
O O5 0.465241 0.153669 0.963090
O O6 0.341561 0.138999 0.051050
O O7 0.250000 0.770097 0.375000
O O8 0.081634 0.723487 0.387394
O O9 0.250000 0.970409 0.875000
O O10 0.259421 0.955545 0.756154
O O11 0.099132 0.949264 0.823349
O O12 0.465898 0.119181 0.846047
O O13 0.569384 0.394958 0.494619
#
# Coordination Sequence:
#
# PCOD9561053 Si02
#       6
#    16  16  16  16  16  16
#     4  10  21  44  71  96 136 180 223 283 357 409
#     4  11  24  43  66 105 132 174 238 284 337 426
#     4  10  22  42  70  94 134 179 226 279 352 412
#     4  12  24  42  67  97 139 183 228 280 347 415
#     4  12  23  43  66  99 137 175 225 294 334 412
#     4  11  24  42  65  92 132 181 220 272 345 405
#
# _framework density 20.667897
#
# number of rings (size 3 to 8) (size 9 to 14) (size 15 to 20)
#    0.000    1.000    5.000    2.000    2.333    0.000 
#    9.000    2.500    0.000    0.000    0.000    0.000 
#    0.000    0.000    0.000    0.000    0.000    0.000 
#
# Total GULP energy -267692.087453 kJ/mol
# GULP energy per Si atom -5576.918489 kJ/mol
# Density = 2.062086 g / cm^3
# Si number density = 20.667897 Si / 1000 Ang^3
#
#
#
# Elastic Constant Matrix: (Units=GPa)
#
#
# Indices 1 2 3 4 5 6 
#
# 1 70.2563 -1.7135 27.6181 0.0000 0.0000 0.0000
# 2 -1.7135 70.2563 27.6181 0.0000 0.0000 0.0000
# 3 27.6181 27.6181 81.8182 0.0000 0.0000 0.0000
# 4 0.0000 0.0000 0.0000 22.0113 0.0000 0.0000
# 5 0.0000 0.0000 0.0000 0.0000 22.0113 0.0000
# 6 0.0000 0.0000 0.0000 0.0000 0.0000 29.5560
#
#
#
# Elastic Compliance Matrix: (Units=1/GPa)
#
#
# Indices 1 2 3 4 5 6 
#
# 1 0.016968 0.003073 -0.006765 0.000000 0.000000 0.000000
# 2 0.003073 0.016968 -0.006765 0.000000 0.000000 0.000000
# 3 -0.006765 -0.006765 0.016789 0.000000 0.000000 0.000000
# 4 0.000000 0.000000 0.000000 0.045431 0.000000 0.000000
# 5 0.000000 0.000000 0.000000 0.000000 0.045431 0.000000
# 6 0.000000 0.000000 0.000000 0.000000 0.000000 0.033834
#
#
# Mechanical properties :
#
#
# Convention : Reuss Voigt Hill
#
# Bulk Modulus (GPa) = 33.54396 36.59736 35.07066
# Shear Modulus (GPa) = 24.23982 25.96961 25.10472
#
# Velocity S-wave (km/s) = 3.42837 3.54859 3.48900
# Velocity P-wave (km/s) = 5.65127 5.87671 5.76509
#
# Compressibility (1/GPa) = 0.02981162
#
# Stress axis : x y z
#
# Youngs Moduli (GPa) = 58.93484 58.93484 59.56176
#
# Poissons Ratio (x) = -0.18112 0.40293
# Poissons Ratio (y) = -0.18112 0.40293
# Poissons Ratio (z) = 0.39869 0.39869
#
# Static dielectric constant tensor:
#      x y z
#    x 1.779730 0.000000 0.000000 
#    y 0.000000 1.779730 0.000000 
#    z 0.000000 0.000000 1.739060 
# 
# From -- ./inp_files/7274.got.cif
#   From: 2010.05.17/outbox.cif.g08.bks.cpg/sg122_4_cif.got.tgz:7274.got - 2010.05.20 11:37:33.
