data_PCOD9561547
_publ_section_title
;
Structure prediction by ZEFSAII (Michael W. Deem and Ramdas Pophale) SiO2 
 PCOD9561547
Probable space group: I -4 2 D
;
_chemical_formula_sum "Si O2"
_cell_formula_units_Z 52
_cell_length_a 9.060457
_cell_length_b 9.060457
_cell_length_c 25.488440
_cell_angle_alpha 90.000000
_cell_angle_beta 90.000000
_cell_angle_gamma 90.000000
_cell_volume 2092.393985
_symmetry_space_group_name_H-M "I -4 2 D"
_symmetry_group_IT_number 122
_symmetry_cell_setting 'tetragonal'
loop_
_space_group_symop_operation_xyz
x,y,z
y,-x,-z
-x,-y,z
-y,x,-z
x,1/2-y,1/4-z
-x,1/2+y,1/4-z
-y,1/2-x,1/4+z
y,1/2+x,1/4+z
1/2+x,1/2+y,1/2+z
1/2+y,1/2-x,1/2-z
1/2-x,1/2-y,1/2+z
1/2-y,1/2+x,1/2-z
1/2+x,-y,3/4-z
1/2-x,y,3/4-z
1/2-y,-x,3/4+z
1/2+y,x,3/4+z
loop_
_atom_site_type_symbol
_atom_site_label
_atom_site_fract_x
_atom_site_fract_y
_atom_site_fract_z
Si Si1 0.004896 0.676141 0.035510
Si Si2 0.929474 0.334908 0.323598
Si Si3 0.000000 0.500000 0.750000
Si Si4 0.801558 0.373160 0.659744
O O1 0.151378 0.701839 0.069640
O O2 0.000000 0.500000 0.030275
O O3 0.869659 0.756295 0.064801
O O4 0.018966 0.752682 0.979226
O O5 0.000000 0.500000 0.326589
O O6 0.991109 0.241464 0.372103
O O7 0.111571 0.580752 0.711078
O O8 0.883322 0.250000 0.625000
#
# Coordination Sequence:
#
# PCOD9561547 Si02
#       4
#    16  16   4  16
#     4  12  27  48  84 127 164 220 287 354 416 507
#     4  12  24  53  85 120 168 220 289 349 414 513
#     4  12  36  56  76 132 184 212 276 364 448 506
#     4  12  29  53  83 121 166 229 285 346 437 509
#
# _framework density 24.851915000000002
#
# number of rings (size 3 to 8) (size 9 to 14) (size 15 to 20)
#    0.000    0.000    6.154    0.923   10.769    0.000 
#    0.000    0.000    0.000    0.000    0.000    0.000 
#    0.000    0.000    0.000    0.000    0.000    0.000 
#
# Total GULP energy -145817.244888 kJ/mol
# GULP energy per Si atom -5608.355573 kJ/mol
# Density = 2.479535 g / cm^3
# Si number density = 24.851915 Si / 1000 Ang^3
#
#
#
# Elastic Constant Matrix: (Units=GPa)
#
#
# Indices 1 2 3 4 5 6 
#
# 1 133.6866 44.5852 76.9756 0.0000 0.0000 0.0000
# 2 44.5852 133.6866 76.9756 0.0000 0.0000 0.0000
# 3 76.9756 76.9756 231.3756 0.0000 0.0000 0.0000
# 4 0.0000 0.0000 0.0000 36.8638 0.0000 0.0000
# 5 0.0000 0.0000 0.0000 0.0000 36.8638 0.0000
# 6 0.0000 0.0000 0.0000 0.0000 0.0000 21.8126
#
#
#
# Elastic Compliance Matrix: (Units=1/GPa)
#
#
# Indices 1 2 3 4 5 6 
#
# 1 0.009547 -0.001676 -0.002618 0.000000 0.000000 0.000000
# 2 -0.001676 0.009547 -0.002618 0.000000 0.000000 0.000000
# 3 -0.002618 -0.002618 0.006064 0.000000 0.000000 0.000000
# 4 0.000000 0.000000 0.000000 0.027127 0.000000 0.000000
# 5 0.000000 0.000000 0.000000 0.000000 0.027127 0.000000
# 6 0.000000 0.000000 0.000000 0.000000 0.000000 0.045845
#
#
# Mechanical properties :
#
#
# Convention : Reuss Voigt Hill
#
# Bulk Modulus (GPa) = 88.24810 99.53575 93.89192
# Shear Modulus (GPa) = 34.99919 39.12221 37.06070
#
# Velocity S-wave (km/s) = 3.75682 3.97194 3.86587
# Velocity P-wave (km/s) = 7.37597 7.82135 7.60192
#
# Compressibility (1/GPa) = 0.01133169
#
# Stress axis : x y z
#
# Youngs Moduli (GPa) = 104.74591 104.74590 164.90132
#
# Poissons Ratio (x) = 0.17558 0.43179
# Poissons Ratio (y) = 0.17558 0.43179
# Poissons Ratio (z) = 0.27427 0.27427
#
# Static dielectric constant tensor:
#      x y z
#    x 2.044720 0.000000 0.000000 
#    y 0.000000 2.044720 0.000000 
#    z 0.000000 0.000000 1.946350 
# 
# From -- ./inp_files/6797.got.cif
#   From: 2010.05.17/outbox.cif.g08.bks.cpg/sg122_4_cif.got.tgz:6797.got - 2010.05.20 11:37:33.
