data_PCOD9561353
_publ_section_title
;
Structure prediction by ZEFSAII (Michael W. Deem and Ramdas Pophale) SiO2 
 PCOD9561353
Probable space group: I -4 2 D
;
_chemical_formula_sum "Si O2"
_cell_formula_units_Z 96
_cell_length_a 14.497079
_cell_length_b 14.497079
_cell_length_c 18.780507
_cell_angle_alpha 90.000000
_cell_angle_beta 90.000000
_cell_angle_gamma 90.000000
_cell_volume 3947.010879
_symmetry_space_group_name_H-M "I -4 2 D"
_symmetry_group_IT_number 122
_symmetry_cell_setting 'tetragonal'
loop_
_space_group_symop_operation_xyz
x,y,z
y,-x,-z
-x,-y,z
-y,x,-z
x,1/2-y,1/4-z
-x,1/2+y,1/4-z
-y,1/2-x,1/4+z
y,1/2+x,1/4+z
1/2+x,1/2+y,1/2+z
1/2+y,1/2-x,1/2-z
1/2-x,1/2-y,1/2+z
1/2-y,1/2+x,1/2-z
1/2+x,-y,3/4-z
1/2-x,y,3/4-z
1/2-y,-x,3/4+z
1/2+y,x,3/4+z
loop_
_atom_site_type_symbol
_atom_site_label
_atom_site_fract_x
_atom_site_fract_y
_atom_site_fract_z
Si Si1 0.276676 0.371580 0.292907
Si Si2 0.920329 0.881254 0.983254
Si Si3 0.854183 0.246567 0.848066
Si Si4 0.185046 0.532848 0.592297
Si Si5 0.677471 0.180587 0.194763
Si Si6 0.597133 0.048227 0.952419
O O1 0.250000 0.359444 0.375000
O O2 0.184033 0.356108 0.246712
O O3 0.338199 0.283536 0.280324
O O4 0.324234 0.469774 0.296844
O O5 0.942878 0.792912 0.932220
O O6 0.009334 0.896354 0.034678
O O7 0.750000 0.255615 0.875000
O O8 0.866164 0.279109 0.765815
O O9 0.882570 0.137779 0.844324
O O10 0.924044 0.307912 0.895001
O O11 0.152604 0.582023 0.663862
O O12 0.112176 0.571621 0.535210
O O13 0.672168 0.250000 0.125000
O O14 0.500000 0.000000 0.936659
#
# Coordination Sequence:
#
# PCOD9561353 Si02
#       6
#    16  16  16  16  16  16
#     4  11  21  39  66  98 148 189 233 298 368 451
#     4  11  23  36  69 105 146 191 234 290 380 471
#     4  12  28  47  77 112 152 200 252 317 389 458
#     4  12  25  49  74 107 148 198 258 315 382 452
#     4  11  22  48  74 100 140 196 247 311 375 439
#     4  12  26  44  68 106 151 198 251 308 373 459
#
# _framework density 24.322202999999998
#
# number of rings (size 3 to 8) (size 9 to 14) (size 15 to 20)
#    0.000    0.500    6.667    2.500    2.333    2.667 
#    3.000    0.833    0.000    0.000    0.000    0.000 
#    0.000    0.000    0.000    0.000    0.000    0.000 
#
# Total GULP energy -267272.228931 kJ/mol
# GULP energy per Si atom -5568.171436 kJ/mol
# Density = 2.426684 g / cm^3
# Si number density = 24.322203 Si / 1000 Ang^3
#
#
#
# Elastic Constant Matrix: (Units=GPa)
#
#
# Indices 1 2 3 4 5 6 
#
# 1 70.8539 -1.5789 17.0745 0.0000 0.0000 0.0000
# 2 -1.5789 70.8539 17.0745 0.0000 0.0000 0.0000
# 3 17.0745 17.0745 89.7802 0.0000 0.0000 0.0000
# 4 0.0000 0.0000 0.0000 36.6244 0.0000 0.0000
# 5 0.0000 0.0000 0.0000 0.0000 36.6244 0.0000
# 6 0.0000 0.0000 0.0000 0.0000 0.0000 21.1202
#
#
#
# Elastic Compliance Matrix: (Units=1/GPa)
#
#
# Indices 1 2 3 4 5 6 
#
# 1 0.014867 0.001061 -0.003029 0.000000 0.000000 0.000000
# 2 0.001061 0.014867 -0.003029 0.000000 0.000000 0.000000
# 3 -0.003029 -0.003029 0.012291 0.000000 0.000000 0.000000
# 4 0.000000 0.000000 0.000000 0.027304 0.000000 0.000000
# 5 0.000000 0.000000 0.000000 0.000000 0.027304 0.000000
# 6 0.000000 0.000000 0.000000 0.000000 0.000000 0.047348
#
#
# Mechanical properties :
#
#
# Convention : Reuss Voigt Hill
#
# Bulk Modulus (GPa) = 31.22040 32.95870 32.08955
# Shear Modulus (GPa) = 30.36692 32.13499 31.25095
#
# Velocity S-wave (km/s) = 3.53728 3.63880 3.58840
# Velocity P-wave (km/s) = 5.43573 5.58881 5.51280
#
# Compressibility (1/GPa) = 0.03203034
#
# Stress axis : x y z
#
# Youngs Moduli (GPa) = 67.26217 67.26217 81.36336
#
# Poissons Ratio (x) = -0.07139 0.24647
# Poissons Ratio (y) = -0.07139 0.24647
# Poissons Ratio (z) = 0.20376 0.20376
#
# Static dielectric constant tensor:
#      x y z
#    x 1.979610 0.000000 0.000000 
#    y 0.000000 1.979610 0.000000 
#    z 0.000000 0.000000 2.190980 
# 
# From -- ./inp_files/7303.got.cif
#   From: 2010.05.17/outbox.cif.g08.bks.cpg/sg122_4_cif.got.tgz:7303.got - 2010.05.20 11:37:33.
