data_PCOD9561371
_publ_section_title
;
Structure prediction by ZEFSAII (Michael W. Deem and Ramdas Pophale) SiO2 
 PCOD9561371
Probable space group: I -4 2 D
;
_chemical_formula_sum "Si O2"
_cell_formula_units_Z 120
_cell_length_a 19.992396
_cell_length_b 19.992396
_cell_length_c 15.532570
_cell_angle_alpha 90.000000
_cell_angle_beta 90.000000
_cell_angle_gamma 90.000000
_cell_volume 6208.304512
_symmetry_space_group_name_H-M "I -4 2 D"
_symmetry_group_IT_number 122
_symmetry_cell_setting 'tetragonal'
loop_
_space_group_symop_operation_xyz
x,y,z
y,-x,-z
-x,-y,z
-y,x,-z
x,1/2-y,1/4-z
-x,1/2+y,1/4-z
-y,1/2-x,1/4+z
y,1/2+x,1/4+z
1/2+x,1/2+y,1/2+z
1/2+y,1/2-x,1/2-z
1/2-x,1/2-y,1/2+z
1/2-y,1/2+x,1/2-z
1/2+x,-y,3/4-z
1/2-x,y,3/4-z
1/2-y,-x,3/4+z
1/2+y,x,3/4+z
loop_
_atom_site_type_symbol
_atom_site_label
_atom_site_fract_x
_atom_site_fract_y
_atom_site_fract_z
Si Si1 0.677388 0.294028 0.916836
Si Si2 0.160293 0.383758 0.998151
Si Si3 0.007912 0.196297 0.842989
Si Si4 0.184915 0.750000 0.125000
Si Si5 0.539401 0.680580 0.654453
Si Si6 0.271839 0.081566 0.022804
Si Si7 0.291415 0.866603 0.163626
Si Si8 0.981561 0.894131 0.985665
O O1 0.750000 0.284185 0.875000
O O2 0.654107 0.225238 0.963048
O O3 0.625419 0.313733 0.841621
O O4 0.682882 0.348020 0.992047
O O5 0.176333 0.462876 0.010917
O O6 0.094972 0.366163 0.054097
O O7 0.144131 0.351031 0.905380
O O8 0.954078 0.218511 0.915308
O O9 0.060997 0.255897 0.834535
O O10 0.042057 0.134947 0.894140
O O11 0.135925 0.742663 0.206665
O O12 0.233211 0.813444 0.138602
O O13 0.573570 0.750000 0.625000
O O14 0.477513 0.692532 0.719369
O O15 0.511495 0.656556 0.563856
O O16 0.051711 0.930524 0.977389
#
# Coordination Sequence:
#
# PCOD9561371 Si02
#       8
#    16  16  16   8  16  16  16  16
#     4  11  22  39  63  94 124 162 219 284 329 386
#     4  11  22  41  62  93 133 173 218 269 331 405
#     4  11  24  37  62  94 128 173 220 261 324 413
#     4  12  22  38  68  94 126 158 212 278 338 408
#     4  12  21  36  61  92 132 176 205 256 331 407
#     4  11  22  37  58  95 123 165 210 264 332 395
#     4  12  23  42  65  95 130 177 222 280 347 388
#     4  11  23  37  55  88 132 171 208 254 314 399
#
# _framework density 19.328949000000001
#
# number of rings (size 3 to 8) (size 9 to 14) (size 15 to 20)
#    0.000    0.667    7.333    0.400    3.733    1.067 
#    0.000    2.667    0.000    0.000    0.000    0.000 
#    0.000    0.000    0.000    0.000    0.000    0.000 
#
# Total GULP energy -334708.268754 kJ/mol
# GULP energy per Si atom -5578.471146 kJ/mol
# Density = 1.928496 g / cm^3
# Si number density = 19.328949 Si / 1000 Ang^3
#
#
#
# Elastic Constant Matrix: (Units=GPa)
#
#
# Indices 1 2 3 4 5 6 
#
# 1 60.9727 17.9761 30.5048 0.0000 0.0000 0.0000
# 2 17.9761 60.9727 30.5048 0.0000 0.0000 0.0000
# 3 30.5048 30.5048 88.7217 0.0000 0.0000 0.0000
# 4 0.0000 0.0000 0.0000 23.1681 0.0000 0.0000
# 5 0.0000 0.0000 0.0000 0.0000 23.1681 0.0000
# 6 0.0000 0.0000 0.0000 0.0000 0.0000 314.0601
#
#
#
# Elastic Compliance Matrix: (Units=1/GPa)
#
#
# Indices 1 2 3 4 5 6 
#
# 1 0.020254 -0.003004 -0.005931 0.000000 0.000000 0.000000
# 2 -0.003004 0.020254 -0.005931 0.000000 0.000000 0.000000
# 3 -0.005931 -0.005931 0.015350 0.000000 0.000000 0.000000
# 4 0.000000 0.000000 0.000000 0.043163 0.000000 0.000000
# 5 0.000000 0.000000 0.000000 0.000000 0.043163 0.000000
# 6 0.000000 0.000000 0.000000 0.000000 0.000000 0.003184
#
#
# Mechanical properties :
#
#
# Convention : Reuss Voigt Hill
#
# Bulk Modulus (GPa) = 38.27694 40.95984 39.61839
# Shear Modulus (GPa) = 27.20252 80.85802 54.03027
#
# Velocity S-wave (km/s) = 3.75553 6.47483 5.29280
# Velocity P-wave (km/s) = 6.21701 8.78264 7.60875
#
# Compressibility (1/GPa) = 0.02612539
#
# Stress axis : x y z
#
# Youngs Moduli (GPa) = 49.37379 49.37379 65.14840
#
# Poissons Ratio (x) = 0.14832 0.38639
# Poissons Ratio (y) = 0.14832 0.38639
# Poissons Ratio (z) = 0.29283 0.29283
#
# Static dielectric constant tensor:
#      x y z
#    x 1.758820 0.000000 0.000000 
#    y 0.000000 1.758820 0.000000 
#    z 0.000000 0.000000 1.703570 
# 
# From -- ./inp_files/5572.got.cif
#   From: 2010.05.17/outbox.cif.g08.bks.cpg/sg122_3_cif.got.tgz:5572.got - 2010.05.20 11:37:33.
