data_PCOD9561451
_publ_section_title
;
Structure prediction by ZEFSAII (Michael W. Deem and Ramdas Pophale) SiO2 
 PCOD9561451
Probable space group: I -4 2 D
;
_chemical_formula_sum "Si O2"
_cell_formula_units_Z 32
_cell_length_a 10.667169
_cell_length_b 10.667169
_cell_length_c 12.194474
_cell_angle_alpha 90.000000
_cell_angle_beta 90.000000
_cell_angle_gamma 90.000000
_cell_volume 1387.590837
_symmetry_space_group_name_H-M "I -4 2 D"
_symmetry_group_IT_number 122
_symmetry_cell_setting 'tetragonal'
loop_
_space_group_symop_operation_xyz
x,y,z
y,-x,-z
-x,-y,z
-y,x,-z
x,1/2-y,1/4-z
-x,1/2+y,1/4-z
-y,1/2-x,1/4+z
y,1/2+x,1/4+z
1/2+x,1/2+y,1/2+z
1/2+y,1/2-x,1/2-z
1/2-x,1/2-y,1/2+z
1/2-y,1/2+x,1/2-z
1/2+x,-y,3/4-z
1/2-x,y,3/4-z
1/2-y,-x,3/4+z
1/2+y,x,3/4+z
loop_
_atom_site_type_symbol
_atom_site_label
_atom_site_fract_x
_atom_site_fract_y
_atom_site_fract_z
Si Si1 0.073771 0.113539 0.416270
Si Si2 0.313714 0.596419 0.489605
O O1 0.121072 0.218445 0.338159
O O2 0.966788 0.162926 0.502404
O O3 0.000000 0.000000 0.353605
O O4 0.446732 0.661751 0.507795
O O5 0.250000 0.632218 0.375000
#
# Coordination Sequence:
#
# PCOD9561451 Si02
#       2
#    16  16
#     4   6  17  39  73  79 113 162 232 233 277 381
#     4  11  25  40  61  94 131 156 196 267 328 356
#
# _framework density 23.061551000000001
#
# number of rings (size 3 to 8) (size 9 to 14) (size 15 to 20)
#    3.000    0.500    0.000    0.000    7.000    4.000 
#    0.000    5.000    0.000    0.000    0.000    0.000 
#    0.000    0.000    0.000    0.000    0.000    0.000 
#
# Total GULP energy -89119.384217 kJ/mol
# GULP energy per Si atom -5569.961514 kJ/mol
# Density = 2.300906 g / cm^3
# Si number density = 23.061551 Si / 1000 Ang^3
#
#
#
# Elastic Constant Matrix: (Units=GPa)
#
#
# Indices 1 2 3 4 5 6 
#
# 1 74.3581 28.6602 40.4578 0.0000 0.0000 0.0000
# 2 28.6602 74.3581 40.4578 0.0000 0.0000 0.0000
# 3 40.4578 40.4578 126.2054 0.0000 0.0000 0.0000
# 4 0.0000 0.0000 0.0000 8.4414 0.0000 0.0000
# 5 0.0000 0.0000 0.0000 0.0000 8.4414 0.0000
# 6 0.0000 0.0000 0.0000 0.0000 0.0000 12.7822
#
#
#
# Elastic Compliance Matrix: (Units=1/GPa)
#
#
# Indices 1 2 3 4 5 6 
#
# 1 0.017428 -0.004455 -0.004159 0.000000 0.000000 0.000000
# 2 -0.004455 0.017428 -0.004159 0.000000 0.000000 0.000000
# 3 -0.004159 -0.004159 0.010590 0.000000 0.000000 0.000000
# 4 0.000000 0.000000 0.000000 0.118464 0.000000 0.000000
# 5 0.000000 0.000000 0.000000 0.000000 0.118464 0.000000
# 6 0.000000 0.000000 0.000000 0.000000 0.000000 0.078234
#
#
# Mechanical properties :
#
#
# Convention : Reuss Voigt Hill
#
# Bulk Modulus (GPa) = 50.24743 54.89701 52.57222
# Shear Modulus (GPa) = 12.72952 16.95604 14.84278
#
# Velocity S-wave (km/s) = 2.35197 2.71449 2.53971
# Velocity P-wave (km/s) = 5.40476 5.80352 5.60769
#
# Compressibility (1/GPa) = 0.01990152
#
# Stress axis : x y z
#
# Youngs Moduli (GPa) = 57.37809 57.37809 94.42789
#
# Poissons Ratio (x) = 0.25559 0.39272
# Poissons Ratio (y) = 0.25559 0.39272
# Poissons Ratio (z) = 0.23863 0.23863
#
# Static dielectric constant tensor:
#      x y z
#    x 1.927580 0.000000 0.000000 
#    y 0.000000 1.927580 0.000000 
#    z 0.000000 0.000000 1.836480 
# 
# From -- ./inp_files/1712.got.cif
#   From: 2010.05.17/outbox.cif.g08.bks.cpg/sg122_1_cif.got.tgz:1712.got - 2010.05.20 11:37:33.
