data_PCOD9561649
_publ_section_title
;
Structure prediction by ZEFSAII (Michael W. Deem and Ramdas Pophale) SiO2 
 PCOD9561649
Probable space group: P 4/M M M
;
_chemical_formula_sum "Si O2"
_cell_formula_units_Z 120
_cell_length_a 20.094112
_cell_length_b 20.094112
_cell_length_c 15.269794
_cell_angle_alpha 90.000000
_cell_angle_beta 90.000000
_cell_angle_gamma 90.000000
_cell_volume 6165.535680
_symmetry_space_group_name_H-M "P 4/M M M"
_symmetry_group_IT_number 123
_symmetry_cell_setting 'tetragonal'
loop_
_space_group_symop_operation_xyz
x,y,z
-y,x,z
-x,-y,z
y,-x,z
x,-y,-z
-x,y,-z
y,x,-z
-y,-x,-z
-x,-y,-z
y,-x,-z
x,y,-z
-y,x,-z
-x,y,z
x,-y,z
-y,-x,z
y,x,z
loop_
_atom_site_type_symbol
_atom_site_label
_atom_site_fract_x
_atom_site_fract_y
_atom_site_fract_z
Si Si1 0.337507 0.925806 0.897794
Si Si2 0.215201 0.578000 0.596123
Si Si3 0.690328 0.419857 0.754499
Si Si4 0.126744 0.228208 0.681194
Si Si5 0.075827 0.171680 0.500000
Si Si6 0.077320 0.360639 0.395595
Si Si7 0.421394 0.801013 0.896624
Si Si8 0.183596 0.075677 0.861721
O O1 0.379044 0.863828 0.862110
O O2 0.258559 0.911793 0.894861
O O3 0.348226 0.000000 0.859068
O O4 0.356946 0.929855 0.000000
O O5 0.229044 0.608673 0.500000
O O6 0.229158 0.500000 0.591335
O O7 0.262639 0.602743 0.673306
O O8 0.136197 0.585824 0.612136
O O9 0.678191 0.500000 0.748764
O O10 0.623563 0.376438 0.755471
O O11 0.735147 0.407824 0.840687
O O12 0.202896 0.202896 0.696985
O O13 0.106671 0.201541 0.586754
O O14 0.104145 0.303947 0.670713
O O15 0.084700 0.192825 0.757125
O O16 0.093985 0.093985 0.500000
O O17 0.000000 0.187094 0.500000
O O18 0.078306 0.340460 0.500000
O O19 0.000000 0.377582 0.377205
O O20 0.500000 0.816144 0.887700
O O21 0.407167 0.790913 0.000000
O O22 0.129629 0.129629 0.891381
O O23 0.165092 0.000000 0.883705
#
# Coordination Sequence:
#
# PCOD9561649 Si02
#       8
#    16  16  16  16   8  16  16  16
#     4   9  19  36  57  82 112 145 182 225 272 325
#     4   9  20  38  56  79 114 151 187 230 278 327
#     4  10  22  40  62  88 117 150 189 232 280 337
#     4  10  20  32  46  66  94 129 170 218 269 318
#     4  10  18  29  44  60  85 119 157 207 260 310
#     4  10  19  31  51  75 102 141 185 229 276 329
#     4   9  19  37  60  87 120 154 186 223 271 329
#     4  10  21  35  51  71  97 133 177 228 281 329
#
# _framework density 19.46303
#
# number of rings (size 3 to 8) (size 9 to 14) (size 15 to 20)
#    0.000    2.400    0.667    1.200    1.867    2.733 
#    0.000    5.333    0.000    4.800    0.000    5.600 
#    0.000    0.000    0.000    0.000    0.000    0.000 
#
# Total GULP energy -668215.954168 kJ/mol
# GULP energy per Si atom -5568.466285 kJ/mol
# Density = 1.941873 g / cm^3
# Si number density = 19.463030 Si / 1000 Ang^3
#
#
#
# Elastic Constant Matrix: (Units=GPa)
#
#
# Indices 1 2 3 4 5 6 
#
# 1 47.3002 88.1354 33.1194 0.0000 0.0000 0.0000
# 2 88.1354 47.3002 33.1194 0.0000 0.0000 0.0000
# 3 33.1194 33.1194 72.5435 0.0000 0.0000 0.0000
# 4 0.0000 0.0000 0.0000 3.4221 0.0000 0.0000
# 5 0.0000 0.0000 0.0000 0.0000 3.4221 0.0000
# 6 0.0000 0.0000 0.0000 0.0000 0.0000 31.2116
#
#
#
# Elastic Compliance Matrix: (Units=1/GPa)
#
#
# Indices 1 2 3 4 5 6 
#
# 1 -0.007491 0.016997 -0.004340 0.000000 0.000000 0.000000
# 2 0.016997 -0.007491 -0.004340 0.000000 0.000000 0.000000
# 3 -0.004340 -0.004340 0.017748 0.000000 0.000000 0.000000
# 4 0.000000 0.000000 0.000000 0.292217 0.000000 0.000000
# 5 0.000000 0.000000 0.000000 0.000000 0.292217 0.000000
# 6 0.000000 0.000000 0.000000 0.000000 0.000000 0.032039
#
#
# Mechanical properties :
#
#
# Convention : Reuss Voigt Hill
#
# Bulk Modulus (GPa) = 51.54638 52.87693 52.21165
# Shear Modulus (GPa) = 8.20924 8.46248 8.33586
#
# Velocity S-wave (km/s) = 2.05597 2.08744 2.07177
# Velocity P-wave (km/s) = 5.67255 5.74776 5.71028
#
# Compressibility (1/GPa) = 0.01940001
#
# Stress axis : x y z
#
# Youngs Moduli (GPa) = -133.48935 -133.48935 56.34544
#
# Poissons Ratio (x) = 2.26898 0.24454
# Poissons Ratio (y) = 2.26898 0.24454
# Poissons Ratio (z) = -0.57935 -0.57935
#
# Static dielectric constant tensor:
#      x y z
#    x 1.696400 0.000000 0.000000 
#    y 0.000000 1.696400 0.000000 
#    z 0.000000 0.000000 1.737470 
# 
# From -- ./inp_files/4603.got.cif
#   From: 2010.05.17/outbox.cif.g08.bks.cpg/sg123_3_cif.got.tgz:4603.got - 2010.05.20 11:43:04.
