data_PCOD9561548
_publ_section_title
;
Structure prediction by ZEFSAII (Michael W. Deem and Ramdas Pophale) SiO2 
 PCOD9561548
Probable space group: I -4 2 D
;
_chemical_formula_sum "Si O2"
_cell_formula_units_Z 48
_cell_length_a 16.911613
_cell_length_b 16.911613
_cell_length_c 7.570374
_cell_angle_alpha 90.000000
_cell_angle_beta 90.000000
_cell_angle_gamma 90.000000
_cell_volume 2165.147058
_symmetry_space_group_name_H-M "I -4 2 D"
_symmetry_group_IT_number 122
_symmetry_cell_setting 'tetragonal'
loop_
_space_group_symop_operation_xyz
x,y,z
y,-x,-z
-x,-y,z
-y,x,-z
x,1/2-y,1/4-z
-x,1/2+y,1/4-z
-y,1/2-x,1/4+z
y,1/2+x,1/4+z
1/2+x,1/2+y,1/2+z
1/2+y,1/2-x,1/2-z
1/2-x,1/2-y,1/2+z
1/2-y,1/2+x,1/2-z
1/2+x,-y,3/4-z
1/2-x,y,3/4-z
1/2-y,-x,3/4+z
1/2+y,x,3/4+z
loop_
_atom_site_type_symbol
_atom_site_label
_atom_site_fract_x
_atom_site_fract_y
_atom_site_fract_z
Si Si1 0.459290 0.163849 0.129337
Si Si2 0.895719 0.431580 0.485111
Si Si3 0.343554 0.102643 0.857058
O O1 0.498325 0.250000 0.125000
O O2 0.437487 0.150404 0.331792
O O3 0.518581 0.097385 0.054338
O O4 0.382851 0.158388 0.004577
O O5 0.870359 0.368625 0.337894
O O6 0.882964 0.515961 0.389714
O O7 0.250000 0.095892 0.875000
#
# Coordination Sequence:
#
# PCOD9561548 Si02
#       3
#    16  16  16
#     4  12  27  46  72 108 141 189 243 300 364 431
#     4  12  25  44  76 100 142 188 244 297 346 438
#     4  12  27  46  72 108 141 189 243 300 364 431
#
# _framework density 22.169395999999999
#
# number of rings (size 3 to 8) (size 9 to 14) (size 15 to 20)
#    0.000    0.000    6.667    3.000    0.000    0.000 
#    6.000    0.000    0.000    0.000    0.000    0.000 
#    0.000    0.000    0.000    0.000    0.000    0.000 
#
# Total GULP energy -134185.057358 kJ/mol
# GULP energy per Si atom -5591.044057 kJ/mol
# Density = 2.211894 g / cm^3
# Si number density = 22.169396 Si / 1000 Ang^3
#
#
#
# Elastic Constant Matrix: (Units=GPa)
#
#
# Indices 1 2 3 4 5 6 
#
# 1 43.5183 -12.8133 -10.8615 0.0000 0.0000 0.0000
# 2 -12.8133 43.5183 -10.8615 0.0000 0.0000 0.0000
# 3 -10.8615 -10.8615 157.4789 0.0000 0.0000 0.0000
# 4 0.0000 0.0000 0.0000 16.6040 0.0000 0.0000
# 5 0.0000 0.0000 0.0000 0.0000 16.6040 0.0000
# 6 0.0000 0.0000 0.0000 0.0000 0.0000 8.6242
#
#
#
# Elastic Compliance Matrix: (Units=1/GPa)
#
#
# Indices 1 2 3 4 5 6 
#
# 1 0.025995 0.008243 0.002361 0.000000 0.000000 0.000000
# 2 0.008243 0.025995 0.002361 0.000000 0.000000 0.000000
# 3 0.002361 0.002361 0.006676 0.000000 0.000000 0.000000
# 4 0.000000 0.000000 0.000000 0.060226 0.000000 0.000000
# 5 0.000000 0.000000 0.000000 0.000000 0.060226 0.000000
# 6 0.000000 0.000000 0.000000 0.000000 0.000000 0.115953
#
#
# Mechanical properties :
#
#
# Convention : Reuss Voigt Hill
#
# Bulk Modulus (GPa) = 11.82049 19.49368 15.65708
# Shear Modulus (GPa) = 16.81579 26.96990 21.89284
#
# Velocity S-wave (km/s) = 2.75710 3.49167 3.14590
# Velocity P-wave (km/s) = 3.93433 5.00678 4.50260
#
# Compressibility (1/GPa) = 0.08459885
#
# Stress axis : x y z
#
# Youngs Moduli (GPa) = 38.46849 38.46849 149.79468
#
# Poissons Ratio (x) = -0.31711 -0.35374
# Poissons Ratio (y) = -0.31711 -0.35374
# Poissons Ratio (z) = -0.09084 -0.09084
#
# Static dielectric constant tensor:
#      x y z
#    x 1.830200 0.000000 0.000000 
#    y 0.000000 1.830200 0.000000 
#    z 0.000000 0.000000 1.786790 
# 
# From -- ./inp_files/2054.got.cif
#   From: 2010.05.17/outbox.cif.g08.bks.cpg/sg122_2_cif.got.tgz:2054.got - 2010.05.20 11:37:33.
