data_PCOD9561432
_publ_section_title
;
Structure prediction by ZEFSAII (Michael W. Deem and Ramdas Pophale) SiO2 
 PCOD9561432
Probable space group: I -4 2 D
;
_chemical_formula_sum "Si O2"
_cell_formula_units_Z 48
_cell_length_a 19.400126
_cell_length_b 19.400126
_cell_length_c 4.932265
_cell_angle_alpha 90.000000
_cell_angle_beta 90.000000
_cell_angle_gamma 90.000000
_cell_volume 1856.331368
_symmetry_space_group_name_H-M "I -4 2 D"
_symmetry_group_IT_number 122
_symmetry_cell_setting 'tetragonal'
loop_
_space_group_symop_operation_xyz
x,y,z
y,-x,-z
-x,-y,z
-y,x,-z
x,1/2-y,1/4-z
-x,1/2+y,1/4-z
-y,1/2-x,1/4+z
y,1/2+x,1/4+z
1/2+x,1/2+y,1/2+z
1/2+y,1/2-x,1/2-z
1/2-x,1/2-y,1/2+z
1/2-y,1/2+x,1/2-z
1/2+x,-y,3/4-z
1/2-x,y,3/4-z
1/2-y,-x,3/4+z
1/2+y,x,3/4+z
loop_
_atom_site_type_symbol
_atom_site_label
_atom_site_fract_x
_atom_site_fract_y
_atom_site_fract_z
Si Si1 0.798022 0.069248 0.636806
Si Si2 0.865599 0.296335 0.376324
Si Si3 0.600193 0.522422 0.402739
O O1 0.750000 0.069480 0.375000
O O2 0.817498 0.146814 0.728344
O O3 0.866600 0.022205 0.660210
O O4 0.750000 0.041549 0.875000
O O5 0.890556 0.250000 0.625000
O O6 0.927115 0.340791 0.253887
O O7 0.837090 0.250000 0.125000
O O8 0.572684 0.465730 0.618692
#
# Coordination Sequence:
#
# PCOD9561432 Si02
#       3
#    16  16  16
#     4  11  24  44  71 104 144 191 242 299 365 442
#     4  11  24  44  71 104 145 191 241 301 367 443
#     4   9  21  44  74 108 143 185 241 304 372 442
#
# _framework density 25.857453
#
# number of rings (size 3 to 8) (size 9 to 14) (size 15 to 20)
#    0.000    1.667    0.000    3.000    0.000    8.000 
#    0.000   10.000    0.000   28.000    0.000    0.000 
#    0.000    0.000    0.000    0.000    0.000    0.000 
#
# Total GULP energy -134212.367561 kJ/mol
# GULP energy per Si atom -5592.181982 kJ/mol
# Density = 2.579860 g / cm^3
# Si number density = 25.857453 Si / 1000 Ang^3
#
#
#
# Elastic Constant Matrix: (Units=GPa)
#
#
# Indices 1 2 3 4 5 6 
#
# 1 106.6221 44.8423 59.8536 0.0000 0.0000 0.0000
# 2 44.8423 106.6221 59.8536 0.0000 0.0000 0.0000
# 3 59.8536 59.8536 197.2778 0.0000 0.0000 0.0000
# 4 0.0000 0.0000 0.0000 46.7062 0.0000 0.0000
# 5 0.0000 0.0000 0.0000 0.0000 46.7062 0.0000
# 6 0.0000 0.0000 0.0000 0.0000 0.0000 50.4232
#
#
#
# Elastic Compliance Matrix: (Units=1/GPa)
#
#
# Indices 1 2 3 4 5 6 
#
# 1 0.012436 -0.003751 -0.002635 0.000000 0.000000 0.000000
# 2 -0.003751 0.012436 -0.002635 0.000000 0.000000 0.000000
# 3 -0.002635 -0.002635 0.006668 0.000000 0.000000 0.000000
# 4 0.000000 0.000000 0.000000 0.021410 0.000000 0.000000
# 5 0.000000 0.000000 0.000000 0.000000 0.021410 0.000000
# 6 0.000000 0.000000 0.000000 0.000000 0.000000 0.019832
#
#
# Mechanical properties :
#
#
# Convention : Reuss Voigt Hill
#
# Bulk Modulus (GPa) = 74.08753 82.18008 78.13381
# Shear Modulus (GPa) = 42.83291 45.16529 43.99910
#
# Velocity S-wave (km/s) = 4.07443 4.18389 4.12952
# Velocity P-wave (km/s) = 7.13086 7.42906 7.28148
#
# Compressibility (1/GPa) = 0.01349755
#
# Stress axis : x y z
#
# Youngs Moduli (GPa) = 80.41441 80.41441 149.97362
#
# Poissons Ratio (x) = 0.30163 0.39517
# Poissons Ratio (y) = 0.30163 0.39517
# Poissons Ratio (z) = 0.21188 0.21188
#
# Static dielectric constant tensor:
#      x y z
#    x 1.918410 0.000000 0.000000 
#    y 0.000000 1.918410 0.000000 
#    z 0.000000 0.000000 1.983210 
# 
# From -- ./inp_files/702.got.cif
#   From: 2010.05.17/outbox.cif.g08.bks.cpg/sg122_1_cif.got.tgz:702.got - 2010.05.20 11:37:33.
