data_PCOD9561285
_publ_section_title
;
Structure prediction by ZEFSAII (Michael W. Deem and Ramdas Pophale) SiO2 
 PCOD9561285
Probable space group: I -4 2 D
;
_chemical_formula_sum "Si O2"
_cell_formula_units_Z 40
_cell_length_a 10.840379
_cell_length_b 10.840379
_cell_length_c 13.583873
_cell_angle_alpha 90.000000
_cell_angle_beta 90.000000
_cell_angle_gamma 90.000000
_cell_volume 1596.292764
_symmetry_space_group_name_H-M "I -4 2 D"
_symmetry_group_IT_number 122
_symmetry_cell_setting 'tetragonal'
loop_
_space_group_symop_operation_xyz
x,y,z
y,-x,-z
-x,-y,z
-y,x,-z
x,1/2-y,1/4-z
-x,1/2+y,1/4-z
-y,1/2-x,1/4+z
y,1/2+x,1/4+z
1/2+x,1/2+y,1/2+z
1/2+y,1/2-x,1/2-z
1/2-x,1/2-y,1/2+z
1/2-y,1/2+x,1/2-z
1/2+x,-y,3/4-z
1/2-x,y,3/4-z
1/2-y,-x,3/4+z
1/2+y,x,3/4+z
loop_
_atom_site_type_symbol
_atom_site_label
_atom_site_fract_x
_atom_site_fract_y
_atom_site_fract_z
Si Si1 0.375512 0.552376 0.733622
Si Si2 0.750000 0.481767 0.375000
Si Si3 0.798653 0.268042 0.507532
O O1 0.500000 0.500000 0.787661
O O2 0.437549 0.629283 0.644855
O O3 0.287081 0.656568 0.777287
O O4 0.287822 0.435902 0.714385
O O5 0.735958 0.393630 0.469254
O O6 0.813961 0.250000 0.625000
#
# Coordination Sequence:
#
# PCOD9561285 Si02
#       3
#    16   8  16
#     4  10  24  48  76 118 166 228 285 359 440 530
#     4  10  24  50  78 114 170 226 290 352 450 544
#     4  11  25  48  79 122 167 230 293 365 441 529
#
# _framework density 25.058057999999999
#
# number of rings (size 3 to 8) (size 9 to 14) (size 15 to 20)
#    0.000    1.600    2.000    0.000    2.800   13.600 
#    7.200    0.000    0.000    0.000    0.000    0.000 
#    0.000    0.000    0.000    0.000    0.000    0.000 
#
# Total GULP energy -111500.264652 kJ/mol
# GULP energy per Si atom -5575.013233 kJ/mol
# Density = 2.500102 g / cm^3
# Si number density = 25.058058 Si / 1000 Ang^3
#
#
#
# Elastic Constant Matrix: (Units=GPa)
#
#
# Indices 1 2 3 4 5 6 
#
# 1 210.1555 118.1103 54.2557 0.0000 0.0000 0.0000
# 2 118.1103 210.1555 54.2557 0.0000 0.0000 0.0000
# 3 54.2557 54.2557 136.0674 0.0000 0.0000 0.0000
# 4 0.0000 0.0000 0.0000 45.7966 0.0000 0.0000
# 5 0.0000 0.0000 0.0000 0.0000 45.7966 0.0000
# 6 0.0000 0.0000 0.0000 0.0000 0.0000 81.8500
#
#
#
# Elastic Compliance Matrix: (Units=1/GPa)
#
#
# Indices 1 2 3 4 5 6 
#
# 1 0.007187 -0.003678 -0.001399 0.000000 0.000000 0.000000
# 2 -0.003678 0.007187 -0.001399 0.000000 0.000000 0.000000
# 3 -0.001399 -0.001399 0.008465 0.000000 0.000000 0.000000
# 4 0.000000 0.000000 0.000000 0.021836 0.000000 0.000000
# 5 0.000000 0.000000 0.000000 0.000000 0.021836 0.000000
# 6 0.000000 0.000000 0.000000 0.000000 0.000000 0.012217
#
#
# Mechanical properties :
#
#
# Convention : Reuss Voigt Hill
#
# Bulk Modulus (GPa) = 101.15064 112.18020 106.66542
# Shear Modulus (GPa) = 52.64588 56.67240 54.65914
#
# Velocity S-wave (km/s) = 4.58859 4.76083 4.67551
# Velocity P-wave (km/s) = 8.27815 8.66522 8.47389
#
# Compressibility (1/GPa) = 0.00988624
#
# Stress axis : x y z
#
# Youngs Moduli (GPa) = 139.14949 139.14948 118.13263
#
# Poissons Ratio (x) = 0.51175 0.16528
# Poissons Ratio (y) = 0.51175 0.16528
# Poissons Ratio (z) = 0.19468 0.19468
#
# Static dielectric constant tensor:
#      x y z
#    x 2.024630 0.000000 0.000000 
#    y 0.000000 2.024630 0.000000 
#    z 0.000000 0.000000 1.977060 
# 
# From -- ./inp_files/4908.got.cif
#   From: 2010.05.17/outbox.cif.g08.bks.cpg/sg122_3_cif.got.tgz:4908.got - 2010.05.20 11:37:33.
