data_PCOD9561590
_publ_section_title
;
Structure prediction by ZEFSAII (Michael W. Deem and Ramdas Pophale) SiO2 
 PCOD9561590
Probable space group: I -4 2 D
;
_chemical_formula_sum "Si O2"
_cell_formula_units_Z 30
_cell_length_a 12.000000
_cell_length_b 12.000000
_cell_length_c 21.000000
_cell_angle_alpha 90.000000
_cell_angle_beta 90.000000
_cell_angle_gamma 90.000000
_cell_volume 3024.000000
_symmetry_space_group_name_H-M "I -4 2 D"
_symmetry_group_IT_number 122
_symmetry_cell_setting 'tetragonal'
loop_
_space_group_symop_operation_xyz
x,y,z
y,-x,-z
-x,-y,z
-y,x,-z
x,1/2-y,1/4-z
-x,1/2+y,1/4-z
-y,1/2-x,1/4+z
y,1/2+x,1/4+z
1/2+x,1/2+y,1/2+z
1/2+y,1/2-x,1/2-z
1/2-x,1/2-y,1/2+z
1/2-y,1/2+x,1/2-z
1/2+x,-y,3/4-z
1/2-x,y,3/4-z
1/2-y,-x,3/4+z
1/2+y,x,3/4+z
loop_
_atom_site_type_symbol
_atom_site_label
_atom_site_fract_x
_atom_site_fract_y
_atom_site_fract_z
Si Si1 0.511564 0.818587 0.770491
Si Si2 0.474800 0.232162 0.332834
Si Si3 0.325696 0.750000 0.125000
Si Si4 0.500000 0.500000 0.000000
Si Si5 0.584708 0.401482 0.236273
O O1 0.406023 0.885109 0.740418
O O2 0.493125 0.772575 0.844047
O O3 0.548133 0.701794 0.739201
O O4 0.340300 0.241372 0.334216
O O5 0.531687 0.321528 0.288081
O O6 0.499103 0.109919 0.298019
O O7 0.394366 0.672950 0.173308
O O8 0.500000 0.500000 0.220664
#
# Coordination Sequence:
#
# PCOD9561590 Si02
#       5
#    16  16   8   4  16
#     4  10  26  50  71 110 156 206 258 313 377 462
#     4  11  25  46  75 108 153 198 248 322 384 464
#     4  10  24  46  66 106 156 188 242 308 388 466
#     4  12  24  48  84 124 148 196 256 334 416 452
#     4  11  26  42  75 109 142 203 247 316 385 457
#
# _framework density 9.9206350000000008
#
# number of rings (size 3 to 8) (size 9 to 14) (size 15 to 20)
#    0.000    1.333    2.667    0.000   18.667    1.067 
#    0.000    2.667    0.000    0.000    0.000    0.000 
#    0.000    0.000    0.000    0.000    0.000    0.000 
#
# Total GULP energy -167071.889464 kJ/mol
# GULP energy per Si atom -5569.062982 kJ/mol
# Density = 0.989806 g / cm^3
# Si number density = 9.920635 Si / 1000 Ang^3
#
#
#
# Elastic Constant Matrix: (Units=GPa)
#
#
# Indices 1 2 3 4 5 6 
#
# 1 146.2871 66.6873 39.8817 0.0000 0.0000 0.0000
# 2 66.6873 146.2871 39.8817 0.0000 0.0000 0.0000
# 3 39.8817 39.8817 103.5597 0.0000 0.0000 0.0000
# 4 0.0000 0.0000 0.0000 36.4725 0.0000 0.0000
# 5 0.0000 0.0000 0.0000 0.0000 36.4725 0.0000
# 6 0.0000 0.0000 0.0000 0.0000 0.0000 44.6850
#
#
#
# Elastic Compliance Matrix: (Units=1/GPa)
#
#
# Indices 1 2 3 4 5 6 
#
# 1 0.009025 -0.003538 -0.002113 0.000000 0.000000 0.000000
# 2 -0.003538 0.009025 -0.002113 0.000000 0.000000 0.000000
# 3 -0.002113 -0.002113 0.011284 0.000000 0.000000 0.000000
# 4 0.000000 0.000000 0.000000 0.027418 0.000000 0.000000
# 5 0.000000 0.000000 0.000000 0.000000 0.027418 0.000000
# 6 0.000000 0.000000 0.000000 0.000000 0.000000 0.022379
#
#
# Mechanical properties :
#
#
# Convention : Reuss Voigt Hill
#
# Bulk Modulus (GPa) = 72.43612 76.55947 74.49779
# Shear Modulus (GPa) = 39.47021 40.17157 39.82089
#
# Velocity S-wave (km/s) = 4.46499 4.50449 4.48479
# Velocity P-wave (km/s) = 7.94787 8.10701 8.02783
#
# Compressibility (1/GPa) = 0.01380527
#
# Stress axis : x y z
#
# Youngs Moduli (GPa) = 110.80574 110.80574 88.62323
#
# Poissons Ratio (x) = 0.39204 0.18726
# Poissons Ratio (y) = 0.39204 0.18726
# Poissons Ratio (z) = 0.23413 0.23413
#
# Static dielectric constant tensor:
#      x y z
#    x 1.720210 0.000000 0.000000 
#    y 0.000000 1.720210 0.000000 
#    z 0.000000 0.000000 1.756090 
# 
# From -- ./inp_files/6949.got.cif
#   From: 2010.05.17/outbox.ucp.g08.bks.cvg/sg122_4_cif.got.tgz:6949.got - 2010.06.11 11:35:26.
