data_PCOD9561167
_publ_section_title
;
Structure prediction by ZEFSAII (Michael W. Deem and Ramdas Pophale) SiO2 
 PCOD9561167
Probable space group: I -4 2 D
;
_chemical_formula_sum "Si O2"
_cell_formula_units_Z 56
_cell_length_a 10.134146
_cell_length_b 10.134146
_cell_length_c 21.792060
_cell_angle_alpha 90.000000
_cell_angle_beta 90.000000
_cell_angle_gamma 90.000000
_cell_volume 2238.064505
_symmetry_space_group_name_H-M "I -4 2 D"
_symmetry_group_IT_number 122
_symmetry_cell_setting 'tetragonal'
loop_
_space_group_symop_operation_xyz
x,y,z
y,-x,-z
-x,-y,z
-y,x,-z
x,1/2-y,1/4-z
-x,1/2+y,1/4-z
-y,1/2-x,1/4+z
y,1/2+x,1/4+z
1/2+x,1/2+y,1/2+z
1/2+y,1/2-x,1/2-z
1/2-x,1/2-y,1/2+z
1/2-y,1/2+x,1/2-z
1/2+x,-y,3/4-z
1/2-x,y,3/4-z
1/2-y,-x,3/4+z
1/2+y,x,3/4+z
loop_
_atom_site_type_symbol
_atom_site_label
_atom_site_fract_x
_atom_site_fract_y
_atom_site_fract_z
Si Si1 0.396458 0.891014 0.394629
Si Si2 0.500031 0.750000 0.625000
Si Si3 0.172072 0.767169 0.235597
Si Si4 0.929093 0.308009 0.454687
O O1 0.250000 0.939480 0.375000
O O2 0.382768 0.772928 0.444804
O O3 0.445705 0.827590 0.331907
O O4 0.500000 0.000000 0.415127
O O5 0.407726 0.801466 0.680954
O O6 0.588832 0.859516 0.591268
O O7 0.321163 0.715109 0.241898
O O8 0.160344 0.923747 0.223431
#
# Coordination Sequence:
#
# PCOD9561167 Si02
#       4
#    16   8  16  16
#     4  10  22  44  71 108 147 190 245 315 378 458
#     4  12  24  50  68 114 152 196 250 310 394 466
#     4  11  26  45  77 101 154 193 249 317 369 473
#     4  11  25  49  71 113 145 195 258 303 395 454
#
# _framework density 25.021618
#
# number of rings (size 3 to 8) (size 9 to 14) (size 15 to 20)
#    0.000    1.143    4.286    2.571    8.000    4.571 
#    5.143    0.000    0.000    0.000    0.000    0.000 
#    0.000    0.000    0.000    0.000    0.000    0.000 
#
# Total GULP energy -156509.707793 kJ/mol
# GULP energy per Si atom -5589.632421 kJ/mol
# Density = 2.496467 g / cm^3
# Si number density = 25.021618 Si / 1000 Ang^3
#
#
#
# Elastic Constant Matrix: (Units=GPa)
#
#
# Indices 1 2 3 4 5 6 
#
# 1 102.3824 25.8919 44.2210 0.0000 0.0000 0.0000
# 2 25.8919 102.3824 44.2210 0.0000 0.0000 0.0000
# 3 44.2210 44.2210 95.6365 0.0000 0.0000 0.0000
# 4 0.0000 0.0000 0.0000 37.5457 0.0000 0.0000
# 5 0.0000 0.0000 0.0000 0.0000 37.5457 0.0000
# 6 0.0000 0.0000 0.0000 0.0000 0.0000 33.6465
#
#
#
# Elastic Compliance Matrix: (Units=1/GPa)
#
#
# Indices 1 2 3 4 5 6 
#
# 1 0.012259 -0.000815 -0.005292 0.000000 0.000000 0.000000
# 2 -0.000815 0.012259 -0.005292 0.000000 0.000000 0.000000
# 3 -0.005292 -0.005292 0.015350 0.000000 0.000000 0.000000
# 4 0.000000 0.000000 0.000000 0.026634 0.000000 0.000000
# 5 0.000000 0.000000 0.000000 0.000000 0.026634 0.000000
# 6 0.000000 0.000000 0.000000 0.000000 0.000000 0.029721
#
#
# Mechanical properties :
#
#
# Convention : Reuss Voigt Hill
#
# Bulk Modulus (GPa) = 58.57645 58.78545 58.68095
# Shear Modulus (GPa) = 33.03746 34.15207 33.59476
#
# Velocity S-wave (km/s) = 3.63761 3.69847 3.66817
# Velocity P-wave (km/s) = 6.41125 6.46398 6.43767
#
# Compressibility (1/GPa) = 0.01707171
#
# Stress axis : x y z
#
# Youngs Moduli (GPa) = 81.57340 81.57340 65.14717
#
# Poissons Ratio (x) = 0.06645 0.34474
# Poissons Ratio (y) = 0.06645 0.34474
# Poissons Ratio (z) = 0.43166 0.43166
#
# Static dielectric constant tensor:
#      x y z
#    x 2.008680 0.000000 0.000000 
#    y 0.000000 2.008680 0.000000 
#    z 0.000000 0.000000 2.114420 
# 
# From -- ./inp_files/6842.got.cif
#   From: 2010.05.17/outbox.cif.g08.bks.cpg/sg122_4_cif.got.tgz:6842.got - 2010.05.20 11:37:33.
