data_PCOD9561373
_publ_section_title
;
Structure prediction by ZEFSAII (Michael W. Deem and Ramdas Pophale) SiO2 
 PCOD9561373
Probable space group: I -4 2 D
;
_chemical_formula_sum "Si O2"
_cell_formula_units_Z 80
_cell_length_a 12.079772
_cell_length_b 12.079772
_cell_length_c 22.472907
_cell_angle_alpha 90.000000
_cell_angle_beta 90.000000
_cell_angle_gamma 90.000000
_cell_volume 3279.266626
_symmetry_space_group_name_H-M "I -4 2 D"
_symmetry_group_IT_number 122
_symmetry_cell_setting 'tetragonal'
loop_
_space_group_symop_operation_xyz
x,y,z
y,-x,-z
-x,-y,z
-y,x,-z
x,1/2-y,1/4-z
-x,1/2+y,1/4-z
-y,1/2-x,1/4+z
y,1/2+x,1/4+z
1/2+x,1/2+y,1/2+z
1/2+y,1/2-x,1/2-z
1/2-x,1/2-y,1/2+z
1/2-y,1/2+x,1/2-z
1/2+x,-y,3/4-z
1/2-x,y,3/4-z
1/2-y,-x,3/4+z
1/2+y,x,3/4+z
loop_
_atom_site_type_symbol
_atom_site_label
_atom_site_fract_x
_atom_site_fract_y
_atom_site_fract_z
Si Si1 0.238352 0.006697 0.614726
Si Si2 0.633182 0.321251 0.683178
Si Si3 0.686242 0.000673 0.746396
Si Si4 0.551814 0.168845 0.178494
Si Si5 0.810750 0.685775 0.718488
O O1 0.345455 0.945286 0.587375
O O2 0.132854 0.930501 0.593246
O O3 0.249677 0.995970 0.684682
O O4 0.236337 0.133302 0.591959
O O5 0.675647 0.250000 0.625000
O O6 0.514890 0.270996 0.699324
O O7 0.696727 0.314595 0.747876
O O8 0.604738 0.894465 0.748130
O O9 0.522536 0.250000 0.125000
O O10 0.616685 0.240515 0.227311
O O11 0.437263 0.142913 0.210786
#
# Coordination Sequence:
#
# PCOD9561373 Si02
#       5
#    16  16  16  16  16
#     4  11  23  42  72 102 136 183 224 286 358 422
#     4  11  23  47  71  98 140 184 228 296 355 419
#     4  11  26  49  71  96 134 186 246 300 343 408
#     4  11  23  39  65 101 148 182 216 275 349 436
#     4  11  22  39  68 105 144 181 220 275 358 438
#
# _framework density 24.395696999999998
#
# number of rings (size 3 to 8) (size 9 to 14) (size 15 to 20)
#    0.000    1.000    6.000    3.000    2.800    0.000 
#    3.600    0.000    4.400    0.000    0.000    0.000 
#    0.000    0.000    0.000    0.000    0.000    0.000 
#
# Total GULP energy -222763.894927 kJ/mol
# GULP energy per Si atom -5569.097373 kJ/mol
# Density = 2.434017 g / cm^3
# Si number density = 24.395697 Si / 1000 Ang^3
#
#
#
# Elastic Constant Matrix: (Units=GPa)
#
#
# Indices 1 2 3 4 5 6 
#
# 1 34.2618 27.8385 39.8922 0.0000 0.0000 0.0000
# 2 27.8385 34.2618 39.8922 0.0000 0.0000 0.0000
# 3 39.8922 39.8922 118.8522 0.0000 0.0000 0.0000
# 4 0.0000 0.0000 0.0000 33.2289 0.0000 0.0000
# 5 0.0000 0.0000 0.0000 0.0000 33.2289 0.0000
# 6 0.0000 0.0000 0.0000 0.0000 0.0000 20.2441
#
#
#
# Elastic Compliance Matrix: (Units=1/GPa)
#
#
# Indices 1 2 3 4 5 6 
#
# 1 0.091998 -0.063686 -0.009503 0.000000 0.000000 0.000000
# 2 -0.063686 0.091998 -0.009503 0.000000 0.000000 0.000000
# 3 -0.009503 -0.009503 0.014793 0.000000 0.000000 0.000000
# 4 0.000000 0.000000 0.000000 0.030094 0.000000 0.000000
# 5 0.000000 0.000000 0.000000 0.000000 0.030094 0.000000
# 6 0.000000 0.000000 0.000000 0.000000 0.000000 0.049397
#
#
# Mechanical properties :
#
#
# Convention : Reuss Voigt Hill
#
# Bulk Modulus (GPa) = 29.93515 44.73574 37.33544
# Shear Modulus (GPa) = 10.31159 22.65723 16.48441
#
# Velocity S-wave (km/s) = 2.05815 3.05083 2.60226
# Velocity P-wave (km/s) = 4.23619 5.54864 4.93623
#
# Compressibility (1/GPa) = 0.03340555
#
# Stress axis : x y z
#
# Youngs Moduli (GPa) = 10.86986 10.86986 67.59995
#
# Poissons Ratio (x) = 0.69226 0.64238
# Poissons Ratio (y) = 0.69226 0.64238
# Poissons Ratio (z) = 0.10329 0.10329
#
# Static dielectric constant tensor:
#      x y z
#    x 2.010160 0.000000 0.000000 
#    y 0.000000 2.010160 0.000000 
#    z 0.000000 0.000000 1.888490 
# 
# From -- ./inp_files/7074.got.cif
#   From: 2010.05.17/outbox.cif.g08.bks.cpg/sg122_4_cif.got.tgz:7074.got - 2010.05.20 11:37:33.
