data_PCOD9561681
_publ_section_title
;
Structure prediction by ZEFSAII (Michael W. Deem and Ramdas Pophale) SiO2 
 PCOD9561681
Probable space group: P 4/M M M
;
_chemical_formula_sum "Si O2"
_cell_formula_units_Z 128
_cell_length_a 21.183725
_cell_length_b 21.183725
_cell_length_c 19.172101
_cell_angle_alpha 90.000000
_cell_angle_beta 90.000000
_cell_angle_gamma 90.000000
_cell_volume 8603.484252
_symmetry_space_group_name_H-M "P 4/M M M"
_symmetry_group_IT_number 123
_symmetry_cell_setting 'tetragonal'
loop_
_space_group_symop_operation_xyz
x,y,z
-y,x,z
-x,-y,z
y,-x,z
x,-y,-z
-x,y,-z
y,x,-z
-y,-x,-z
-x,-y,-z
y,-x,-z
x,y,-z
-y,x,-z
-x,y,z
x,-y,z
-y,-x,z
y,x,z
loop_
_atom_site_type_symbol
_atom_site_label
_atom_site_fract_x
_atom_site_fract_y
_atom_site_fract_z
Si Si1 0.322417 0.427818 0.578803
Si Si2 0.796460 0.575786 0.820530
Si Si3 0.824789 0.072175 0.584270
Si Si4 0.931039 0.575515 0.793968
Si Si5 0.350226 0.247061 0.315086
Si Si6 0.571860 0.074565 0.627640
Si Si7 0.323183 0.573013 0.916420
Si Si8 0.694871 0.144365 0.580332
O O1 0.297512 0.420257 0.500000
O O2 0.340084 0.500000 0.589313
O O3 0.382693 0.382693 0.585314
O O4 0.271608 0.404848 0.633657
O O5 0.795818 0.500000 0.805487
O O6 0.868972 0.594376 0.836649
O O7 0.779408 0.616252 0.752797
O O8 0.743080 0.586726 0.878474
O O9 0.830384 0.069878 0.500000
O O10 0.878726 0.121275 0.609104
O O11 0.754760 0.099887 0.597307
O O12 0.831575 0.000000 0.609887
O O13 0.935657 0.500000 0.801798
O O14 0.919535 0.585167 0.710916
O O15 0.000000 0.602694 0.811952
O O16 0.305398 0.305398 0.296172
O O17 0.310077 0.198671 0.361880
O O18 0.500000 0.097980 0.614645
O O19 0.628031 0.108264 0.587068
O O20 0.572418 0.000000 0.611770
O O21 0.340579 0.500000 0.899908
O O22 0.377652 0.622349 0.895182
O O23 0.315830 0.577213 0.000000
O O24 0.702951 0.166884 0.500000
#
# Coordination Sequence:
#
# PCOD9561681 Si02
#       8
#    16  16  16  16  16  16  16  16
#     4   9  18  31  44  57  74  99 136 185 237 284
#     4  10  18  30  49  68  88 113 144 182 219 258
#     4   9  18  32  48  64  81 103 135 178 229 282
#     4   8  14  26  44  64  86 111 140 176 215 254
#     4  11  21  31  43  59  81 110 144 180 220 267
#     4   9  17  29  43  60  83 109 140 177 214 254
#     4   9  18  32  50  73  99 125 152 182 219 263
#     4  11  21  31  43  59  84 116 146 180 224 270
#
# _framework density 14.877694
#
# number of rings (size 3 to 8) (size 9 to 14) (size 15 to 20)
#    0.000    2.500    1.250    2.625    0.000    3.125 
#    0.000    2.500    0.000    0.375    0.000    4.375 
#    0.000    0.000    0.000    0.000    0.000    0.000 
#
# Total GULP energy -712777.646010 kJ/mol
# GULP energy per Si atom -5568.575359 kJ/mol
# Density = 1.484383 g / cm^3
# Si number density = 14.877694 Si / 1000 Ang^3
#
#
#
# Elastic Constant Matrix: (Units=GPa)
#
#
# Indices 1 2 3 4 5 6 
#
# 1 69.6957 30.2546 28.1156 0.0000 0.0000 0.0000
# 2 30.2546 69.6957 28.1156 0.0000 0.0000 0.0000
# 3 28.1156 28.1156 25.2824 0.0000 0.0000 0.0000
# 4 0.0000 0.0000 0.0000 13.8404 0.0000 0.0000
# 5 0.0000 0.0000 0.0000 0.0000 13.8404 0.0000
# 6 0.0000 0.0000 0.0000 0.0000 0.0000 1.8341
#
#
#
# Elastic Compliance Matrix: (Units=1/GPa)
#
#
# Indices 1 2 3 4 5 6 
#
# 1 0.026040 0.000685 -0.029720 0.000000 0.000000 0.000000
# 2 0.000685 0.026040 -0.029720 0.000000 0.000000 0.000000
# 3 -0.029720 -0.029720 0.105654 0.000000 0.000000 0.000000
# 4 0.000000 0.000000 0.000000 0.072252 0.000000 0.000000
# 5 0.000000 0.000000 0.000000 0.000000 0.072252 0.000000
# 6 0.000000 0.000000 0.000000 0.000000 0.000000 0.545238
#
#
# Mechanical properties :
#
#
# Convention : Reuss Voigt Hill
#
# Bulk Modulus (GPa) = 24.86051 37.51613 31.18832
# Shear Modulus (GPa) = 5.11042 11.11551 8.11296
#
# Velocity S-wave (km/s) = 1.85537 2.73633 2.33772
# Velocity P-wave (km/s) = 4.61910 5.93754 5.31933
#
# Compressibility (1/GPa) = 0.04022444
#
# Stress axis : x y z
#
# Youngs Moduli (GPa) = 38.40283 38.40283 9.46484
#
# Poissons Ratio (x) = -0.02632 0.28130
# Poissons Ratio (y) = -0.02632 0.28130
# Poissons Ratio (z) = 1.14133 1.14133
#
# Static dielectric constant tensor:
#      x y z
#    x 1.512370 0.000000 0.000000 
#    y 0.000000 1.512370 0.000000 
#    z 0.000000 0.000000 1.481840 
# 
# From -- ./inp_files/5983.got.cif
#   From: 2010.05.17/outbox.cif.g08.bks.cpg/sg123_3_cif.got.tgz:5983.got - 2010.05.20 11:43:04.
