data_PCOD9561152
_publ_section_title
;
Structure prediction by ZEFSAII (Michael W. Deem and Ramdas Pophale) SiO2 
 PCOD9561152
Probable space group: I -4 2 D
;
_chemical_formula_sum "Si O2"
_cell_formula_units_Z 88
_cell_length_a 17.869659
_cell_length_b 17.869659
_cell_length_c 11.808891
_cell_angle_alpha 90.000000
_cell_angle_beta 90.000000
_cell_angle_gamma 90.000000
_cell_volume 3770.870727
_symmetry_space_group_name_H-M "I -4 2 D"
_symmetry_group_IT_number 122
_symmetry_cell_setting 'tetragonal'
loop_
_space_group_symop_operation_xyz
x,y,z
y,-x,-z
-x,-y,z
-y,x,-z
x,1/2-y,1/4-z
-x,1/2+y,1/4-z
-y,1/2-x,1/4+z
y,1/2+x,1/4+z
1/2+x,1/2+y,1/2+z
1/2+y,1/2-x,1/2-z
1/2-x,1/2-y,1/2+z
1/2-y,1/2+x,1/2-z
1/2+x,-y,3/4-z
1/2-x,y,3/4-z
1/2-y,-x,3/4+z
1/2+y,x,3/4+z
loop_
_atom_site_type_symbol
_atom_site_label
_atom_site_fract_x
_atom_site_fract_y
_atom_site_fract_z
Si Si1 0.475533 0.248194 0.957724
Si Si2 0.266808 0.250000 0.625000
Si Si3 0.100710 0.557929 0.735117
Si Si4 0.120781 0.848281 0.737514
Si Si5 0.821794 0.661493 0.453857
Si Si6 0.317800 0.509168 0.292379
O O1 0.455920 0.318567 0.040110
O O2 0.550176 0.203554 0.987957
O O3 0.399559 0.203122 0.940579
O O4 0.489243 0.285235 0.834543
O O5 0.312998 0.300055 0.718198
O O6 0.213386 0.313346 0.572525
O O7 0.079701 0.472810 0.693648
O O8 0.114456 0.623371 0.642871
O O9 0.119018 0.927865 0.802659
O O10 0.750000 0.678964 0.375000
O O11 0.840092 0.575119 0.434940
O O12 0.250000 0.528786 0.375000
#
# Coordination Sequence:
#
# PCOD9561152 Si02
#       6
#    16   8  16  16  16  16
#     4  11  25  43  70 111 144 195 255 305 390 456
#     4  12  24  48  76 108 156 200 256 318 388 470
#     4  10  25  47  71 105 155 192 249 315 383 460
#     4  11  24  44  77 105 147 201 244 317 392 449
#     4  11  25  42  71 106 147 196 256 311 378 457
#     4  10  22  43  69 103 150 191 245 314 371 455
#
# _framework density 23.336784999999999
#
# number of rings (size 3 to 8) (size 9 to 14) (size 15 to 20)
#    0.000    1.273    2.727    2.182    2.545    8.727 
#    3.273    0.000    0.000    2.182    0.000    0.000 
#    0.000    0.000    0.000    0.000    0.000    0.000 
#
# Total GULP energy -245398.181388 kJ/mol
# GULP energy per Si atom -5577.231395 kJ/mol
# Density = 2.328367 g / cm^3
# Si number density = 23.336785 Si / 1000 Ang^3
#
#
#
# Elastic Constant Matrix: (Units=GPa)
#
#
# Indices 1 2 3 4 5 6 
#
# 1 156.3376 100.3904 24.4364 0.0000 0.0000 0.0000
# 2 100.3904 156.3376 24.4364 0.0000 0.0000 0.0000
# 3 24.4364 24.4364 49.4008 0.0000 0.0000 0.0000
# 4 0.0000 0.0000 0.0000 27.9335 0.0000 0.0000
# 5 0.0000 0.0000 0.0000 0.0000 27.9335 0.0000
# 6 0.0000 0.0000 0.0000 0.0000 0.0000 50.5645
#
#
#
# Elastic Compliance Matrix: (Units=1/GPa)
#
#
# Indices 1 2 3 4 5 6 
#
# 1 0.011087 -0.006787 -0.002127 0.000000 0.000000 0.000000
# 2 -0.006787 0.011087 -0.002127 0.000000 0.000000 0.000000
# 3 -0.002127 -0.002127 0.022347 0.000000 0.000000 0.000000
# 4 0.000000 0.000000 0.000000 0.035799 0.000000 0.000000
# 5 0.000000 0.000000 0.000000 0.000000 0.035799 0.000000
# 6 0.000000 0.000000 0.000000 0.000000 0.000000 0.019777
#
#
# Mechanical properties :
#
#
# Convention : Reuss Voigt Hill
#
# Bulk Modulus (GPa) = 44.56560 73.40026 58.98293
# Shear Modulus (GPa) = 30.21912 35.47381 32.84646
#
# Velocity S-wave (km/s) = 3.60239 3.90305 3.75573
# Velocity P-wave (km/s) = 6.03665 7.19949 6.64356
#
# Compressibility (1/GPa) = 0.02243883
#
# Stress axis : x y z
#
# Youngs Moduli (GPa) = 90.19531 90.19531 44.74889
#
# Poissons Ratio (x) = 0.61215 0.09518
# Poissons Ratio (y) = 0.61215 0.09518
# Poissons Ratio (z) = 0.19185 0.19185
#
# Static dielectric constant tensor:
#      x y z
#    x 1.902930 0.000000 0.000000 
#    y 0.000000 1.902930 0.000000 
#    z 0.000000 0.000000 1.977820 
# 
# From -- ./inp_files/5411.got.cif
#   From: 2010.05.17/outbox.cif.g08.bks.cpg/sg122_3_cif.got.tgz:5411.got - 2010.05.20 11:37:33.
