data_PCOD9561978
_publ_section_title
;
Structure prediction by ZEFSAII (Michael W. Deem and Ramdas Pophale) SiO2 
 PCOD9561978
Probable space group: P 4/M M M
;
_chemical_formula_sum "Si O2"
_cell_formula_units_Z 80
_cell_length_a 13.913569
_cell_length_b 13.913569
_cell_length_c 26.396715
_cell_angle_alpha 90.000000
_cell_angle_beta 90.000000
_cell_angle_gamma 90.000000
_cell_volume 5110.071487
_symmetry_space_group_name_H-M "P 4/M M M"
_symmetry_group_IT_number 123
_symmetry_cell_setting 'tetragonal'
loop_
_space_group_symop_operation_xyz
x,y,z
-y,x,z
-x,-y,z
y,-x,z
x,-y,-z
-x,y,-z
y,x,-z
-y,-x,-z
-x,-y,-z
y,-x,-z
x,y,-z
-y,x,-z
-x,y,z
x,-y,z
-y,-x,z
y,x,z
loop_
_atom_site_type_symbol
_atom_site_label
_atom_site_fract_x
_atom_site_fract_y
_atom_site_fract_z
Si Si1 0.615286 0.228113 0.156176
Si Si2 0.388931 0.885361 0.343243
Si Si3 0.115025 0.727262 0.758117
Si Si4 0.110355 0.383421 0.056832
Si Si5 0.771321 0.613759 0.556175
O O1 0.500000 0.237272 0.159233
O O2 0.671520 0.328481 0.162040
O O3 0.655724 0.156573 0.199146
O O4 0.642835 0.181126 0.102047
O O5 0.500000 0.857643 0.331824
O O6 0.320729 0.861640 0.296237
O O7 0.360253 0.837134 0.396164
O O8 0.387280 0.000000 0.349432
O O9 0.173221 0.826780 0.763012
O O10 0.000000 0.737581 0.762521
O O11 0.108916 0.500000 0.056083
O O12 0.000000 0.352481 0.066639
O O13 0.137846 0.351560 0.000000
O O14 0.813879 0.633367 0.500000
O O15 0.753335 0.500000 0.558861
O O16 0.674004 0.674004 0.559712
#
# Coordination Sequence:
#
# PCOD9561978 Si02
#       5
#    16  16  16  16  16
#     4  10  20  32  47  68  94 125 160 196 233 275
#     4   9  17  29  46  67  89 114 145 181 221 266
#     4  10  20  33  50  71  93 118 149 186 230 279
#     4   8  14  26  45  67  89 115 150 192 233 269
#     4   9  17  28  42  61  86 116 148 182 219 258
#
# _framework density 15.655358
#
# number of rings (size 3 to 8) (size 9 to 14) (size 15 to 20)
#    0.000    2.800    0.000    2.400    0.000    3.400 
#    0.000    3.000    0.000    0.000    0.000    5.600 
#    0.000    0.000    0.000   37.200    0.000    1.400 
#
# Total GULP energy -445402.482799 kJ/mol
# GULP energy per Si atom -5567.531035 kJ/mol
# Density = 1.561973 g / cm^3
# Si number density = 15.655358 Si / 1000 Ang^3
#
#
#
# Elastic Constant Matrix: (Units=GPa)
#
#
# Indices 1 2 3 4 5 6 
#
# 1 66.8639 43.9410 51.7975 0.0000 0.0000 0.0000
# 2 43.9410 66.8639 51.7975 0.0000 0.0000 0.0000
# 3 51.7975 51.7975 123.1030 0.0000 0.0000 0.0000
# 4 0.0000 0.0000 0.0000 21.9957 0.0000 0.0000
# 5 0.0000 0.0000 0.0000 0.0000 21.9957 0.0000
# 6 0.0000 0.0000 0.0000 0.0000 0.0000 13.0011
#
#
#
# Elastic Compliance Matrix: (Units=1/GPa)
#
#
# Indices 1 2 3 4 5 6 
#
# 1 0.029251 -0.014373 -0.006260 0.000000 0.000000 0.000000
# 2 -0.014373 0.029251 -0.006260 0.000000 0.000000 0.000000
# 3 -0.006260 -0.006260 0.013391 0.000000 0.000000 0.000000
# 4 0.000000 0.000000 0.000000 0.045463 0.000000 0.000000
# 5 0.000000 0.000000 0.000000 0.000000 0.045463 0.000000
# 6 0.000000 0.000000 0.000000 0.000000 0.000000 0.076917
#
#
# Mechanical properties :
#
#
# Convention : Reuss Voigt Hill
#
# Bulk Modulus (GPa) = 55.22895 61.32253 58.27574
# Shear Modulus (GPa) = 16.69121 18.68482 17.68801
#
# Velocity S-wave (km/s) = 3.26876 3.45847 3.36495
# Velocity P-wave (km/s) = 7.04280 7.42990 7.23893
#
# Compressibility (1/GPa) = 0.01810645
#
# Stress axis : x y z
#
# Youngs Moduli (GPa) = 34.18692 34.18692 74.67584
#
# Poissons Ratio (x) = 0.49138 0.46747
# Poissons Ratio (y) = 0.49138 0.46747
# Poissons Ratio (z) = 0.21401 0.21401
#
# Static dielectric constant tensor:
#      x y z
#    x 1.503540 0.000000 0.000000 
#    y 0.000000 1.503540 0.000000 
#    z 0.000000 0.000000 1.542620 
# 
# From -- ./inp_files/6312.got.cif
#   From: 2010.05.17/outbox.cif.g08.bks.cpg/sg123_4_cif.got.tgz:6312.got - 2010.05.20 11:43:04.
