data_PCOD9561245
_publ_section_title
;
Structure prediction by ZEFSAII (Michael W. Deem and Ramdas Pophale) SiO2 
 PCOD9561245
Probable space group: I -4 2 D
;
_chemical_formula_sum "Si O2"
_cell_formula_units_Z 56
_cell_length_a 21.913083
_cell_length_b 21.913083
_cell_length_c 5.235504
_cell_angle_alpha 90.000000
_cell_angle_beta 90.000000
_cell_angle_gamma 90.000000
_cell_volume 2514.001099
_symmetry_space_group_name_H-M "I -4 2 D"
_symmetry_group_IT_number 122
_symmetry_cell_setting 'tetragonal'
loop_
_space_group_symop_operation_xyz
x,y,z
y,-x,-z
-x,-y,z
-y,x,-z
x,1/2-y,1/4-z
-x,1/2+y,1/4-z
-y,1/2-x,1/4+z
y,1/2+x,1/4+z
1/2+x,1/2+y,1/2+z
1/2+y,1/2-x,1/2-z
1/2-x,1/2-y,1/2+z
1/2-y,1/2+x,1/2-z
1/2+x,-y,3/4-z
1/2-x,y,3/4-z
1/2-y,-x,3/4+z
1/2+y,x,3/4+z
loop_
_atom_site_type_symbol
_atom_site_label
_atom_site_fract_x
_atom_site_fract_y
_atom_site_fract_z
Si Si1 0.677440 0.687373 0.053247
Si Si2 0.581487 0.250000 0.125000
Si Si3 0.111607 0.351670 0.222827
Si Si4 0.319231 0.024302 0.760263
O O1 0.723772 0.630402 0.077798
O O2 0.646975 0.675204 0.775701
O O3 0.711585 0.750000 0.125000
O O4 0.626994 0.687047 0.275263
O O5 0.537493 0.303718 0.212890
O O6 0.136307 0.418454 0.302988
O O7 0.039791 0.348966 0.176387
O O8 0.250000 0.024482 0.875000
#
# Coordination Sequence:
#
# PCOD9561245 Si02
#       4
#    16   8  16  16
#     4  11  23  42  63 103 130 175 222 270 345 405
#     4  10  24  40  70  90 144 172 216 286 340 400
#     4  11  26  40  70  97 134 182 225 275 341 394
#     4  11  23  45  66  97 137 176 228 282 333 411
#
# _framework density 22.275247
#
# number of rings (size 3 to 8) (size 9 to 14) (size 15 to 20)
#    0.000    1.143    2.857    2.571    6.000    5.143 
#    0.000    0.000    0.000    3.429    0.000    0.000 
#    0.000    0.000    0.000    0.000    0.000    0.000 
#
# Total GULP energy -155975.620073 kJ/mol
# GULP energy per Si atom -5570.557860 kJ/mol
# Density = 2.222455 g / cm^3
# Si number density = 22.275247 Si / 1000 Ang^3
#
#
#
# Elastic Constant Matrix: (Units=GPa)
#
#
# Indices 1 2 3 4 5 6 
#
# 1 143.1733 50.2580 34.7173 0.0000 0.0000 0.0000
# 2 50.2580 143.1733 34.7173 0.0000 0.0000 0.0000
# 3 34.7173 34.7173 106.4199 0.0000 0.0000 0.0000
# 4 0.0000 0.0000 0.0000 22.5482 0.0000 0.0000
# 5 0.0000 0.0000 0.0000 0.0000 22.5482 0.0000
# 6 0.0000 0.0000 0.0000 0.0000 0.0000 26.6573
#
#
#
# Elastic Compliance Matrix: (Units=1/GPa)
#
#
# Indices 1 2 3 4 5 6 
#
# 1 0.008309 -0.002454 -0.001910 0.000000 0.000000 0.000000
# 2 -0.002454 0.008309 -0.001910 0.000000 0.000000 0.000000
# 3 -0.001910 -0.001910 0.010643 0.000000 0.000000 0.000000
# 4 0.000000 0.000000 0.000000 0.044349 0.000000 0.000000
# 5 0.000000 0.000000 0.000000 0.000000 0.044349 0.000000
# 6 0.000000 0.000000 0.000000 0.000000 0.000000 0.037513
#
#
# Mechanical properties :
#
#
# Convention : Reuss Voigt Hill
#
# Bulk Modulus (GPa) = 67.96645 70.23908 69.10277
# Shear Modulus (GPa) = 29.25254 32.55567 30.90411
#
# Velocity S-wave (km/s) = 3.62778 3.82713 3.72879
# Velocity P-wave (km/s) = 6.93730 7.15053 7.04472
#
# Compressibility (1/GPa) = 0.01471314
#
# Stress axis : x y z
#
# Youngs Moduli (GPa) = 120.35145 120.35145 93.95768
#
# Poissons Ratio (x) = 0.29528 0.17948
# Poissons Ratio (y) = 0.29528 0.17948
# Poissons Ratio (z) = 0.22990 0.22990
#
# Static dielectric constant tensor:
#      x y z
#    x 1.851610 0.000000 0.000000 
#    y 0.000000 1.851610 0.000000 
#    z 0.000000 0.000000 2.074020 
# 
# From -- ./inp_files/1012.got.cif
#   From: 2010.05.17/outbox.cif.g08.bks.cpg/sg122_1_cif.got.tgz:1012.got - 2010.05.20 11:37:33.
