data_PCOD9561959
_publ_section_title
;
Structure prediction by ZEFSAII (Michael W. Deem and Ramdas Pophale) SiO2 
 PCOD9561959
Probable space group: P 4/M M M
;
_chemical_formula_sum "Si O2"
_cell_formula_units_Z 64
_cell_length_a 13.930568
_cell_length_b 13.930568
_cell_length_c 16.762968
_cell_angle_alpha 90.000000
_cell_angle_beta 90.000000
_cell_angle_gamma 90.000000
_cell_volume 3253.033720
_symmetry_space_group_name_H-M "P 4/M M M"
_symmetry_group_IT_number 123
_symmetry_cell_setting 'tetragonal'
loop_
_space_group_symop_operation_xyz
x,y,z
-y,x,z
-x,-y,z
y,-x,z
x,-y,-z
-x,y,-z
y,x,-z
-y,-x,-z
-x,-y,-z
y,-x,-z
x,y,-z
-y,x,-z
-x,y,z
x,-y,z
-y,-x,z
y,x,z
loop_
_atom_site_type_symbol
_atom_site_label
_atom_site_fract_x
_atom_site_fract_y
_atom_site_fract_z
Si Si1 0.607080 0.896611 0.595304
Si Si2 0.696877 0.303124 0.408810
Si Si3 0.703022 0.296979 0.239975
Si Si4 0.722796 0.885911 0.000000
Si Si5 0.886180 0.614535 0.831758
Si Si6 0.386367 0.386367 0.084325
O O1 0.595904 0.905487 0.500000
O O2 0.500000 0.875034 0.627861
O O3 0.676776 0.808390 0.600632
O O4 0.638315 0.000000 0.626263
O O5 0.666579 0.333422 0.500000
O O6 0.659721 0.340280 0.322799
O O7 0.814926 0.327078 0.227171
O O8 0.655973 0.344028 0.163137
O O9 0.658818 0.870690 0.920295
O O10 0.814589 0.814589 0.000000
O O11 0.750627 0.000000 0.000000
O O12 0.864305 0.500000 0.830627
O O13 0.000000 0.624956 0.813900
O O14 0.500000 0.370122 0.084554
O O15 0.347421 0.347421 0.000000
#
# Coordination Sequence:
#
# PCOD9561959 Si02
#       6
#    16   8   8   8  16   8
#     4   8  15  31  56  82 107 141 187 235 283 339
#     4  10  22  37  55  83 117 149 188 242 298 350
#     4  12  23  36  58  86 114 151 195 240 294 356
#     4  10  19  36  61  92 128 166 205 242 290 354
#     4  10  22  39  59  86 120 157 199 247 297 351
#     4   9  20  38  58  82 111 143 184 234 284 337
#
# _framework density 19.673942
#
# number of rings (size 3 to 8) (size 9 to 14) (size 15 to 20)
#    0.000    2.375    1.250    2.250    1.750    4.625 
#    0.000    2.500    0.000    1.125    0.000    7.875 
#    0.000    0.000    0.000    0.000    0.000    0.000 
#
# Total GULP energy -356381.774316 kJ/mol
# GULP energy per Si atom -5568.465224 kJ/mol
# Density = 1.962916 g / cm^3
# Si number density = 19.673942 Si / 1000 Ang^3
#
#
#
# Elastic Constant Matrix: (Units=GPa)
#
#
# Indices 1 2 3 4 5 6 
#
# 1 101.8576 32.6729 15.5682 0.0000 0.0000 0.0000
# 2 32.6729 101.8573 15.5680 0.0000 0.0000 0.0000
# 3 15.5682 15.5680 167.0611 0.0000 0.0000 0.0000
# 4 0.0000 0.0000 0.0000 -22.7390 0.0000 0.0000
# 5 0.0000 0.0000 0.0000 0.0000 -22.7391 0.0000
# 6 0.0000 0.0000 0.0000 0.0000 0.0000 74.5159
#
#
#
# Elastic Compliance Matrix: (Units=1/GPa)
#
#
# Indices 1 2 3 4 5 6 
#
# 1 0.011026 -0.003428 -0.000708 0.000000 0.000000 0.000000
# 2 -0.003428 0.011026 -0.000708 0.000000 0.000000 0.000000
# 3 -0.000708 -0.000708 0.006118 0.000000 0.000000 0.000000
# 4 0.000000 0.000000 0.000000 -0.043977 0.000000 0.000000
# 5 0.000000 0.000000 0.000000 0.000000 -0.043977 0.000000
# 6 0.000000 0.000000 0.000000 0.000000 0.000000 0.013420
#
#
# Mechanical properties :
#
#
# Convention : Reuss Voigt Hill
#
# Bulk Modulus (GPa) = 54.11203 55.37713 54.74458
# Shear Modulus (GPa) = -163.84509 26.27201 -68.78654
#
# Velocity S-wave (km/s) = -9.13570 3.65824 -5.91939
# Velocity P-wave (km/s) = 9.14971 6.78617 4.33965
#
# Compressibility (1/GPa) = 0.01848018
#
# Stress axis : x y z
#
# Youngs Moduli (GPa) = 90.69814 90.69786 163.45791
#
# Poissons Ratio (x) = 0.31096 0.11572
# Poissons Ratio (y) = 0.31096 0.11572
# Poissons Ratio (z) = 0.06421 0.06421
#
# Static dielectric constant tensor:
#      x y z
#    x 1.719250 0.000000 0.000000 
#    y 0.000000 1.719250 0.000000 
#    z 0.000000 0.000000 1.786630 
# 
# From -- ./inp_files/5088.got.cif
#   From: 2010.05.17/outbox.cif.g08.bks.cpg/sg123_3_cif.got.tgz:5088.got - 2010.05.20 11:43:04.
