data_PCOD9561844
_publ_section_title
;
Structure prediction by ZEFSAII (Michael W. Deem and Ramdas Pophale) SiO2 
 PCOD9561844
Probable space group: P 4/M M M
;
_chemical_formula_sum "Si O2"
_cell_formula_units_Z 82
_cell_length_a 20.367443
_cell_length_b 20.367443
_cell_length_c 13.530984
_cell_angle_alpha 90.000000
_cell_angle_beta 90.000000
_cell_angle_gamma 90.000000
_cell_volume 5613.095091
_symmetry_space_group_name_H-M "P 4/M M M"
_symmetry_group_IT_number 123
_symmetry_cell_setting 'tetragonal'
loop_
_space_group_symop_operation_xyz
x,y,z
-y,x,z
-x,-y,z
y,-x,z
x,-y,-z
-x,y,-z
y,x,-z
-y,-x,-z
-x,-y,-z
y,-x,-z
x,y,-z
-y,x,-z
-x,y,z
x,-y,z
-y,-x,z
y,x,z
loop_
_atom_site_type_symbol
_atom_site_label
_atom_site_fract_x
_atom_site_fract_y
_atom_site_fract_z
Si Si1 0.578307 0.865918 0.727020
Si Si2 0.678888 0.784168 0.617669
Si Si3 0.000000 0.000000 0.631336
Si Si4 0.000000 0.159178 0.383800
Si Si5 0.665950 0.922641 0.115166
Si Si6 0.119467 0.224220 0.267557
Si Si7 0.000000 0.420454 0.387961
O O1 0.500000 0.861183 0.728000
O O2 0.612383 0.803931 0.674193
O O3 0.609058 0.879270 0.834447
O O4 0.598047 0.932585 0.666650
O O5 0.670685 0.790146 0.500000
O O6 0.714042 0.714042 0.638169
O O7 0.729766 0.838278 0.659258
O O8 0.000000 0.919131 0.627228
O O9 0.062729 0.189984 0.329885
O O10 0.000000 0.174945 0.500000
O O11 0.730584 0.908508 0.180216
O O12 0.649283 0.000000 0.123423
O O13 0.675405 0.907608 0.000000
O O14 0.168810 0.168810 0.227794
O O15 0.000000 0.500000 0.390741
O O16 0.000000 0.395365 0.500000
#
# Coordination Sequence:
#
# PCOD9561844 Si02
#       7
#    16  16   2   8  16  16   8
#     4  10  19  31  47  70  96 124 155 191 240 288
#     4   9  18  31  46  67  95 126 158 190 222 272
#     4  12  25  32  44  72  97 118 153 212 276 324
#     4  12  21  31  46  68  93 119 152 199 260 315
#     4  10  20  34  49  66  87 115 156 199 242 293
#     4  10  20  33  48  66  87 119 159 200 247 297
#     4   9  16  25  39  63  93 121 148 178 220 278
#
# _framework density 14.608696
#
# number of rings (size 3 to 8) (size 9 to 14) (size 15 to 20)
#    0.000    2.049    2.927    1.610    0.000    2.732 
#    0.000    3.902    0.000    0.000    0.000    0.683 
#    0.000    0.390    0.000    2.146    0.000    0.000 
#
# Total GULP energy -456570.930415 kJ/mol
# GULP energy per Si atom -5567.938176 kJ/mol
# Density = 1.457545 g / cm^3
# Si number density = 14.608696 Si / 1000 Ang^3
#
#
#
# Elastic Constant Matrix: (Units=GPa)
#
#
# Indices 1 2 3 4 5 6 
#
# 1 80.2142 31.9713 43.5444 0.0000 0.0000 0.0000
# 2 31.9713 80.2142 43.5444 0.0000 0.0000 0.0000
# 3 43.5444 43.5444 106.5330 0.0000 0.0000 0.0000
# 4 0.0000 0.0000 0.0000 8.3038 0.0000 0.0000
# 5 0.0000 0.0000 0.0000 0.0000 8.3038 0.0000
# 6 0.0000 0.0000 0.0000 0.0000 0.0000 18.4769
#
#
#
# Elastic Compliance Matrix: (Units=1/GPa)
#
#
# Indices 1 2 3 4 5 6 
#
# 1 0.016893 -0.003836 -0.005337 0.000000 0.000000 0.000000
# 2 -0.003836 0.016893 -0.005337 0.000000 0.000000 0.000000
# 3 -0.005337 -0.005337 0.013750 0.000000 0.000000 0.000000
# 4 0.000000 0.000000 0.000000 0.120427 0.000000 0.000000
# 5 0.000000 0.000000 0.000000 0.000000 0.120427 0.000000
# 6 0.000000 0.000000 0.000000 0.000000 0.000000 0.054122
#
#
# Mechanical properties :
#
#
# Convention : Reuss Voigt Hill
#
# Bulk Modulus (GPa) = 54.00819 56.12017 55.06418
# Shear Modulus (GPa) = 13.23797 16.87697 15.05747
#
# Velocity S-wave (km/s) = 3.01353 3.40261 3.21397
# Velocity P-wave (km/s) = 7.01132 7.34411 7.17965
#
# Compressibility (1/GPa) = 0.01851571
#
# Stress axis : x y z
#
# Youngs Moduli (GPa) = 59.19754 59.19754 72.72978
#
# Poissons Ratio (x) = 0.22707 0.38815
# Poissons Ratio (y) = 0.22707 0.38815
# Poissons Ratio (z) = 0.31593 0.31593
#
# Static dielectric constant tensor:
#      x y z
#    x 1.485770 0.000000 0.000000 
#    y 0.000000 1.485770 0.000000 
#    z 0.000000 0.000000 1.478000 
# 
# From -- ./inp_files/3101.got.cif
#   From: 2010.05.17/outbox.cif.g08.bks.cpg/sg123_2_cif.got.tgz:3101.got - 2010.05.20 11:43:04.
