data_PCOD9561146
_publ_section_title
;
Structure prediction by ZEFSAII (Michael W. Deem and Ramdas Pophale) SiO2 
 PCOD9561146
Probable space group: I -4 2 D
;
_chemical_formula_sum "Si O2"
_cell_formula_units_Z 96
_cell_length_a 19.065611
_cell_length_b 19.065611
_cell_length_c 11.864358
_cell_angle_alpha 90.000000
_cell_angle_beta 90.000000
_cell_angle_gamma 90.000000
_cell_volume 4312.664743
_symmetry_space_group_name_H-M "I -4 2 D"
_symmetry_group_IT_number 122
_symmetry_cell_setting 'tetragonal'
loop_
_space_group_symop_operation_xyz
x,y,z
y,-x,-z
-x,-y,z
-y,x,-z
x,1/2-y,1/4-z
-x,1/2+y,1/4-z
-y,1/2-x,1/4+z
y,1/2+x,1/4+z
1/2+x,1/2+y,1/2+z
1/2+y,1/2-x,1/2-z
1/2-x,1/2-y,1/2+z
1/2-y,1/2+x,1/2-z
1/2+x,-y,3/4-z
1/2-x,y,3/4-z
1/2-y,-x,3/4+z
1/2+y,x,3/4+z
loop_
_atom_site_type_symbol
_atom_site_label
_atom_site_fract_x
_atom_site_fract_y
_atom_site_fract_z
Si Si1 0.257125 0.023813 0.005324
Si Si2 0.620265 0.715089 0.863021
Si Si3 0.750000 0.302660 0.375000
Si Si4 0.500000 0.000000 0.504453
Si Si5 0.799255 0.834960 0.764874
Si Si6 0.021129 0.900413 0.944936
Si Si7 0.935197 0.922300 0.439909
O O1 0.178192 0.046454 0.042338
O O2 0.274288 0.960643 0.086047
O O3 0.250000 0.000489 0.875000
O O4 0.315378 0.084602 0.010005
O O5 0.657320 0.725842 0.739835
O O6 0.646574 0.775542 0.947994
O O7 0.622009 0.638228 0.920423
O O8 0.810311 0.249939 0.335754
O O9 0.430625 0.988710 0.580031
O O10 0.475551 0.063578 0.426909
O O11 0.750000 0.841088 0.875000
O O12 0.956370 0.916882 0.029767
O O13 0.000411 0.906256 0.524532
#
# Coordination Sequence:
#
# PCOD9561146 Si02
#       7
#    16  16   8   8  16  16  16
#     4  11  24  35  61  95 140 176 222 289 343 429
#     4  11  23  40  71  98 134 194 232 278 367 428
#     4  10  22  42  70  94 130 182 234 282 348 426
#     4   8  18  36  64  94 126 176 220 304 334 420
#     4   9  23  42  59  96 139 176 224 291 336 417
#     4   9  21  34  59  95 133 168 219 291 364 418
#     4   9  21  42  68 100 140 183 241 304 353 422
#
# _framework density 22.260019
#
# number of rings (size 3 to 8) (size 9 to 14) (size 15 to 20)
#    0.000    2.667    0.833    0.000   14.000    1.333 
#    0.000    1.667    0.000    0.000    0.000    0.000 
#    0.000    0.000    0.000    0.000    0.000    0.000 
#
# Total GULP energy -267389.616883 kJ/mol
# GULP energy per Si atom -5570.617018 kJ/mol
# Density = 2.220935 g / cm^3
# Si number density = 22.260019 Si / 1000 Ang^3
#
#
#
# Elastic Constant Matrix: (Units=GPa)
#
#
# Indices 1 2 3 4 5 6 
#
# 1 90.4991 28.3228 32.4340 0.0000 0.0000 0.0000
# 2 28.3228 90.4991 32.4340 0.0000 0.0000 0.0000
# 3 32.4340 32.4340 64.1307 0.0000 0.0000 0.0000
# 4 0.0000 0.0000 0.0000 16.6146 0.0000 0.0000
# 5 0.0000 0.0000 0.0000 0.0000 16.6146 0.0000
# 6 0.0000 0.0000 0.0000 0.0000 0.0000 37.0263
#
#
#
# Elastic Compliance Matrix: (Units=1/GPa)
#
#
# Indices 1 2 3 4 5 6 
#
# 1 0.013855 -0.002229 -0.005880 0.000000 0.000000 0.000000
# 2 -0.002229 0.013855 -0.005880 0.000000 0.000000 0.000000
# 3 -0.005880 -0.005880 0.021541 0.000000 0.000000 0.000000
# 4 0.000000 0.000000 0.000000 0.060188 0.000000 0.000000
# 5 0.000000 0.000000 0.000000 0.000000 0.060188 0.000000
# 6 0.000000 0.000000 0.000000 0.000000 0.000000 0.027008
#
#
# Mechanical properties :
#
#
# Convention : Reuss Voigt Hill
#
# Bulk Modulus (GPa) = 47.00751 47.94562 47.47656
# Shear Modulus (GPa) = 21.57955 24.18033 22.87994
#
# Velocity S-wave (km/s) = 3.11695 3.29943 3.20949
# Velocity P-wave (km/s) = 5.84099 6.00838 5.92527
#
# Compressibility (1/GPa) = 0.02127320
#
# Stress axis : x y z
#
# Youngs Moduli (GPa) = 72.17826 72.17826 46.42412
#
# Poissons Ratio (x) = 0.16086 0.27296
# Poissons Ratio (y) = 0.16086 0.27296
# Poissons Ratio (z) = 0.42439 0.42439
#
# Static dielectric constant tensor:
#      x y z
#    x 1.942680 0.000000 0.000000 
#    y 0.000000 1.942680 0.000000 
#    z 0.000000 0.000000 1.920900 
# 
# From -- ./inp_files/4510.got.cif
#   From: 2010.05.17/outbox.cif.g08.bks.cpg/sg122_3_cif.got.tgz:4510.got - 2010.05.20 11:37:33.
