data_PCOD9561406
_publ_section_title
;
Structure prediction by ZEFSAII (Michael W. Deem and Ramdas Pophale) SiO2 
 PCOD9561406
Probable space group: I -4 2 D
;
_chemical_formula_sum "Si O2"
_cell_formula_units_Z 88
_cell_length_a 11.520094
_cell_length_b 11.520094
_cell_length_c 32.115396
_cell_angle_alpha 90.000000
_cell_angle_beta 90.000000
_cell_angle_gamma 90.000000
_cell_volume 4262.116604
_symmetry_space_group_name_H-M "I -4 2 D"
_symmetry_group_IT_number 122
_symmetry_cell_setting 'tetragonal'
loop_
_space_group_symop_operation_xyz
x,y,z
y,-x,-z
-x,-y,z
-y,x,-z
x,1/2-y,1/4-z
-x,1/2+y,1/4-z
-y,1/2-x,1/4+z
y,1/2+x,1/4+z
1/2+x,1/2+y,1/2+z
1/2+y,1/2-x,1/2-z
1/2-x,1/2-y,1/2+z
1/2-y,1/2+x,1/2-z
1/2+x,-y,3/4-z
1/2-x,y,3/4-z
1/2-y,-x,3/4+z
1/2+y,x,3/4+z
loop_
_atom_site_type_symbol
_atom_site_label
_atom_site_fract_x
_atom_site_fract_y
_atom_site_fract_z
Si Si1 0.204270 0.702189 0.578205
Si Si2 0.290879 0.250000 0.125000
Si Si3 0.372251 0.446283 0.187241
Si Si4 0.612040 0.151873 0.941110
Si Si5 0.153092 0.401352 0.464539
Si Si6 0.671340 0.916911 0.259955
O O1 0.207868 0.750000 0.625000
O O2 0.201226 0.562361 0.574870
O O3 0.313528 0.753020 0.553031
O O4 0.097176 0.768219 0.554630
O O5 0.357265 0.335514 0.157065
O O6 0.212382 0.340898 0.099669
O O7 0.500000 0.500000 0.184333
O O8 0.353097 0.409333 0.235321
O O9 0.473685 0.131801 0.945611
O O10 0.674634 0.030722 0.948434
O O11 0.639589 0.238211 0.978669
O O12 0.548153 0.853334 0.254798
#
# Coordination Sequence:
#
# PCOD9561406 Si02
#       6
#    16   8  16  16  16  16
#     4  12  26  45  71 111 145 187 248 310 364 439
#     4  12  30  46  72 110 146 182 254 310 368 438
#     4  12  27  47  74 110 149 198 239 310 381 458
#     4  11  23  46  71 100 137 194 236 298 366 436
#     4  11  23  48  76  96 145 198 245 293 377 449
#     4  11  23  42  73 105 145 195 239 292 374 458
#
# _framework density 20.647017000000002
#
# number of rings (size 3 to 8) (size 9 to 14) (size 15 to 20)
#    0.000    0.545    5.455    2.182    5.091    0.000 
#    0.000    0.000    0.000    0.000    0.000    0.000 
#    0.000    0.000    0.000    0.000    0.000    0.000 
#
# Total GULP energy -245851.552870 kJ/mol
# GULP energy per Si atom -5587.535293 kJ/mol
# Density = 2.060002 g / cm^3
# Si number density = 20.647017 Si / 1000 Ang^3
#
#
#
# Elastic Constant Matrix: (Units=GPa)
#
#
# Indices 1 2 3 4 5 6 
#
# 1 116.4306 45.0738 54.7106 0.0000 0.0000 0.0000
# 2 45.0738 116.4306 54.7106 0.0000 0.0000 0.0000
# 3 54.7106 54.7106 150.0475 0.0000 0.0000 0.0000
# 4 0.0000 0.0000 0.0000 31.6696 0.0000 0.0000
# 5 0.0000 0.0000 0.0000 0.0000 31.6696 0.0000
# 6 0.0000 0.0000 0.0000 0.0000 0.0000 22.2081
#
#
#
# Elastic Compliance Matrix: (Units=1/GPa)
#
#
# Indices 1 2 3 4 5 6 
#
# 1 0.011119 -0.002895 -0.002998 0.000000 0.000000 0.000000
# 2 -0.002895 0.011119 -0.002998 0.000000 0.000000 0.000000
# 3 -0.002998 -0.002998 0.008851 0.000000 0.000000 0.000000
# 4 0.000000 0.000000 0.000000 0.031576 0.000000 0.000000
# 5 0.000000 0.000000 0.000000 0.000000 0.031576 0.000000
# 6 0.000000 0.000000 0.000000 0.000000 0.000000 0.045029
#
#
# Mechanical properties :
#
#
# Convention : Reuss Voigt Hill
#
# Bulk Modulus (GPa) = 75.16500 76.87762 76.02131
# Shear Modulus (GPa) = 30.96205 32.33705 31.64955
#
# Velocity S-wave (km/s) = 3.87665 3.96180 3.91946
# Velocity P-wave (km/s) = 7.51809 7.63170 7.57511
#
# Compressibility (1/GPa) = 0.01330406
#
# Stress axis : x y z
#
# Youngs Moduli (GPa) = 89.93898 89.93897 112.98046
#
# Poissons Ratio (x) = 0.26041 0.33876
# Poissons Ratio (y) = 0.26041 0.33876
# Poissons Ratio (z) = 0.26967 0.26967
#
# Static dielectric constant tensor:
#      x y z
#    x 1.793600 0.000000 0.000000 
#    y 0.000000 1.793600 0.000000 
#    z 0.000000 0.000000 1.756790 
# 
# From -- ./inp_files/9504.got.cif
#   From: 2010.05.17/outbox.cif.g08.bks.cpg/sg122_5_cif.got.tgz:9504.got - 2010.05.20 11:37:33.
