data_PCOD9561248
_publ_section_title
;
Structure prediction by ZEFSAII (Michael W. Deem and Ramdas Pophale) SiO2 
 PCOD9561248
Probable space group: I -4 2 D
;
_chemical_formula_sum "Si O2"
_cell_formula_units_Z 56
_cell_length_a 15.296589
_cell_length_b 15.296589
_cell_length_c 11.219842
_cell_angle_alpha 90.000000
_cell_angle_beta 90.000000
_cell_angle_gamma 90.000000
_cell_volume 2625.281855
_symmetry_space_group_name_H-M "I -4 2 D"
_symmetry_group_IT_number 122
_symmetry_cell_setting 'tetragonal'
loop_
_space_group_symop_operation_xyz
x,y,z
y,-x,-z
-x,-y,z
-y,x,-z
x,1/2-y,1/4-z
-x,1/2+y,1/4-z
-y,1/2-x,1/4+z
y,1/2+x,1/4+z
1/2+x,1/2+y,1/2+z
1/2+y,1/2-x,1/2-z
1/2-x,1/2-y,1/2+z
1/2-y,1/2+x,1/2-z
1/2+x,-y,3/4-z
1/2-x,y,3/4-z
1/2-y,-x,3/4+z
1/2+y,x,3/4+z
loop_
_atom_site_type_symbol
_atom_site_label
_atom_site_fract_x
_atom_site_fract_y
_atom_site_fract_z
Si Si1 0.559185 0.371282 0.525748
Si Si2 0.895920 0.601581 0.751920
Si Si3 0.698511 0.250000 0.125000
Si Si4 0.298537 0.359808 0.228741
O O1 0.456687 0.393357 0.526731
O O2 0.598827 0.348111 0.656074
O O3 0.578202 0.284059 0.450590
O O4 0.882195 0.498210 0.733946
O O5 0.835760 0.639448 0.858004
O O6 0.863760 0.644558 0.629669
O O7 0.767375 0.243871 0.233510
#
# Coordination Sequence:
#
# PCOD9561248 Si02
#       4
#    16  16   8  16
#     4   9  20  39  66  94 131 183 228 291 344 414
#     4  11  27  45  70 104 142 187 232 295 357 418
#     4  10  24  44  68  94 140 184 222 288 346 414
#     4  10  24  42  66 101 135 179 238 283 356 413
#
# _framework density 21.331043000000001
#
# number of rings (size 3 to 8) (size 9 to 14) (size 15 to 20)
#    0.000    2.286    0.000    0.857   12.000    6.857 
#   10.286    0.000    0.000    0.000    0.000    0.000 
#    0.000    0.000    0.000    0.000    0.000    0.000 
#
# Total GULP energy -156254.911874 kJ/mol
# GULP energy per Si atom -5580.532567 kJ/mol
# Density = 2.128249 g / cm^3
# Si number density = 21.331043 Si / 1000 Ang^3
#
#
#
# Elastic Constant Matrix: (Units=GPa)
#
#
# Indices 1 2 3 4 5 6 
#
# 1 124.3432 67.1694 34.1011 0.0000 0.0000 0.0000
# 2 67.1694 124.3432 34.1011 0.0000 0.0000 0.0000
# 3 34.1011 34.1011 66.3268 0.0000 0.0000 0.0000
# 4 0.0000 0.0000 0.0000 27.4986 0.0000 0.0000
# 5 0.0000 0.0000 0.0000 0.0000 27.4986 0.0000
# 6 0.0000 0.0000 0.0000 0.0000 0.0000 33.1952
#
#
#
# Elastic Compliance Matrix: (Units=1/GPa)
#
#
# Indices 1 2 3 4 5 6 
#
# 1 0.011941 -0.005549 -0.003286 0.000000 0.000000 0.000000
# 2 -0.005549 0.011941 -0.003286 0.000000 0.000000 0.000000
# 3 -0.003286 -0.003286 0.018456 0.000000 0.000000 0.000000
# 4 0.000000 0.000000 0.000000 0.036366 0.000000 0.000000
# 5 0.000000 0.000000 0.000000 0.000000 0.036366 0.000000
# 6 0.000000 0.000000 0.000000 0.000000 0.000000 0.030125
#
#
# Mechanical properties :
#
#
# Convention : Reuss Voigt Hill
#
# Bulk Modulus (GPa) = 55.26495 65.08404 60.17450
# Shear Modulus (GPa) = 28.49490 29.61456 29.05473
#
# Velocity S-wave (km/s) = 3.65888 3.73007 3.69465
# Velocity P-wave (km/s) = 6.61924 7.00920 6.81701
#
# Compressibility (1/GPa) = 0.01809465
#
# Stress axis : x y z
#
# Youngs Moduli (GPa) = 83.74345 83.74345 54.18258
#
# Poissons Ratio (x) = 0.46472 0.17806
# Poissons Ratio (y) = 0.46472 0.17806
# Poissons Ratio (z) = 0.27521 0.27521
#
# Static dielectric constant tensor:
#      x y z
#    x 1.775530 0.000000 0.000000 
#    y 0.000000 1.775530 0.000000 
#    z 0.000000 0.000000 1.806790 
# 
# From -- ./inp_files/3919.got.cif
#   From: 2010.05.17/outbox.cif.g08.bks.cpg/sg122_2_cif.got.tgz:3919.got - 2010.05.20 11:37:33.
