data_PCOD9561368
_publ_section_title
;
Structure prediction by ZEFSAII (Michael W. Deem and Ramdas Pophale) SiO2 
 PCOD9561368
Probable space group: I -4 2 D
;
_chemical_formula_sum "Si O2"
_cell_formula_units_Z 104
_cell_length_a 16.831637
_cell_length_b 16.831637
_cell_length_c 19.177465
_cell_angle_alpha 90.000000
_cell_angle_beta 90.000000
_cell_angle_gamma 90.000000
_cell_volume 5433.052623
_symmetry_space_group_name_H-M "I -4 2 D"
_symmetry_group_IT_number 122
_symmetry_cell_setting 'tetragonal'
loop_
_space_group_symop_operation_xyz
x,y,z
y,-x,-z
-x,-y,z
-y,x,-z
x,1/2-y,1/4-z
-x,1/2+y,1/4-z
-y,1/2-x,1/4+z
y,1/2+x,1/4+z
1/2+x,1/2+y,1/2+z
1/2+y,1/2-x,1/2-z
1/2-x,1/2-y,1/2+z
1/2-y,1/2+x,1/2-z
1/2+x,-y,3/4-z
1/2-x,y,3/4-z
1/2-y,-x,3/4+z
1/2+y,x,3/4+z
loop_
_atom_site_type_symbol
_atom_site_label
_atom_site_fract_x
_atom_site_fract_y
_atom_site_fract_z
Si Si1 0.154443 0.597688 0.176380
Si Si2 0.250000 0.982386 0.875000
Si Si3 0.075826 0.113879 0.219117
Si Si4 0.427699 0.402823 0.278753
Si Si5 0.711108 0.801480 0.443875
Si Si6 0.290550 0.683352 0.800281
Si Si7 0.433628 0.699444 0.481139
O O1 0.103791 0.605142 0.106949
O O2 0.221338 0.664884 0.171760
O O3 0.105209 0.615627 0.246481
O O4 0.191235 0.510438 0.183299
O O5 0.174732 0.930324 0.846647
O O6 0.269696 0.034175 0.806316
O O7 0.143011 0.147826 0.269361
O O8 0.986421 0.105495 0.250397
O O9 0.096175 0.021742 0.208546
O O10 0.395187 0.330219 0.233101
O O11 0.750000 0.838001 0.375000
O O12 0.778218 0.774149 0.498313
O O13 0.250000 0.672352 0.875000
O O14 0.364419 0.745864 0.800266
#
# Coordination Sequence:
#
# PCOD9561368 Si02
#       7
#    16   8  16  16  16  16  16
#     4  11  22  36  60  89 134 172 205 259 338 411
#     4  12  20  42  60  94 134 176 206 276 344 424
#     4  11  25  38  68  94 133 173 226 266 347 416
#     4  11  23  43  62  93 132 180 214 282 341 408
#     4  11  23  41  63  93 124 174 219 278 337 403
#     4  11  24  41  65  91 128 177 230 280 329 397
#     4  11  23  36  60  92 133 174 217 267 334 418
#
# _framework density 19.142094
#
# number of rings (size 3 to 8) (size 9 to 14) (size 15 to 20)
#    0.000    0.923    6.154    0.000    7.538    0.923 
#    0.000    0.000    0.000    0.000    0.000    2.154 
#    0.000    0.000    0.000    0.000    0.000    0.000 
#
# Total GULP energy -290203.625285 kJ/mol
# GULP energy per Si atom -5580.838948 kJ/mol
# Density = 1.909853 g / cm^3
# Si number density = 19.142094 Si / 1000 Ang^3
#
#
#
# Elastic Constant Matrix: (Units=GPa)
#
#
# Indices 1 2 3 4 5 6 
#
# 1 95.9976 37.7032 46.5399 0.0000 0.0000 0.0000
# 2 37.7032 95.9976 46.5399 0.0000 0.0000 0.0000
# 3 46.5399 46.5399 104.7965 0.0000 0.0000 0.0000
# 4 0.0000 0.0000 0.0000 32.5937 0.0000 0.0000
# 5 0.0000 0.0000 0.0000 0.0000 32.5937 0.0000
# 6 0.0000 0.0000 0.0000 0.0000 0.0000 29.2026
#
#
#
# Elastic Compliance Matrix: (Units=1/GPa)
#
#
# Indices 1 2 3 4 5 6 
#
# 1 0.013991 -0.003164 -0.004808 0.000000 0.000000 0.000000
# 2 -0.003164 0.013991 -0.004808 0.000000 0.000000 0.000000
# 3 -0.004808 -0.004808 0.013813 0.000000 0.000000 0.000000
# 4 0.000000 0.000000 0.000000 0.030681 0.000000 0.000000
# 5 0.000000 0.000000 0.000000 0.000000 0.030681 0.000000
# 6 0.000000 0.000000 0.000000 0.000000 0.000000 0.034243
#
#
# Mechanical properties :
#
#
# Convention : Reuss Voigt Hill
#
# Bulk Modulus (GPa) = 61.59993 62.03978 61.81986
# Shear Modulus (GPa) = 29.69646 29.94525 29.82085
#
# Velocity S-wave (km/s) = 3.94302 3.95950 3.95127
# Velocity P-wave (km/s) = 7.27874 7.30644 7.29260
#
# Compressibility (1/GPa) = 0.01623378
#
# Stress axis : x y z
#
# Youngs Moduli (GPa) = 71.47707 71.47707 72.39635
#
# Poissons Ratio (x) = 0.22614 0.34809
# Poissons Ratio (y) = 0.22614 0.34809
# Poissons Ratio (z) = 0.34367 0.34367
#
# Static dielectric constant tensor:
#      x y z
#    x 1.719740 0.000000 0.000000 
#    y 0.000000 1.719740 0.000000 
#    z 0.000000 0.000000 1.660200 
# 
# From -- ./inp_files/6400.got.cif
#   From: 2010.05.17/outbox.cif.g08.bks.cpg/sg122_4_cif.got.tgz:6400.got - 2010.05.20 11:37:33.
