data_PCOD9561855
_publ_section_title
;
Structure prediction by ZEFSAII (Michael W. Deem and Ramdas Pophale) SiO2 
 PCOD9561855
Probable space group: P 4/M M M
;
_chemical_formula_sum "Si O2"
_cell_formula_units_Z 120
_cell_length_a 16.229445
_cell_length_b 16.229445
_cell_length_c 23.927337
_cell_angle_alpha 90.000000
_cell_angle_beta 90.000000
_cell_angle_gamma 90.000000
_cell_volume 6302.338178
_symmetry_space_group_name_H-M "P 4/M M M"
_symmetry_group_IT_number 123
_symmetry_cell_setting 'tetragonal'
loop_
_space_group_symop_operation_xyz
x,y,z
-y,x,z
-x,-y,z
y,-x,z
x,-y,-z
-x,y,-z
y,x,-z
-y,-x,-z
-x,-y,-z
y,-x,-z
x,y,-z
-y,x,-z
-x,y,z
x,-y,z
-y,-x,z
y,x,z
loop_
_atom_site_type_symbol
_atom_site_label
_atom_site_fract_x
_atom_site_fract_y
_atom_site_fract_z
Si Si1 0.590728 0.274830 0.177467
Si Si2 0.091697 0.772516 0.614075
Si Si3 0.274402 0.589104 0.500000
Si Si4 0.857037 0.408191 0.599273
Si Si5 0.226739 0.091341 0.935603
Si Si6 0.908869 0.223806 0.748498
Si Si7 0.277021 0.591126 0.311754
Si Si8 0.637701 0.907912 0.839509
O O1 0.500000 0.309912 0.163619
O O2 0.666137 0.333864 0.158304
O O3 0.596748 0.271422 0.245045
O O4 0.592923 0.179898 0.157916
O O5 0.165864 0.834137 0.596146
O O6 0.097045 0.678546 0.592081
O O7 0.097543 0.766145 0.681758
O O8 0.000000 0.805629 0.600801
O O9 0.316742 0.500000 0.500000
O O10 0.337632 0.662369 0.500000
O O11 0.215175 0.592668 0.553508
O O12 0.897181 0.500000 0.595096
O O13 0.811151 0.403267 0.658952
O O14 0.160647 0.160647 0.922331
O O15 0.300482 0.093564 0.891956
O O16 0.188876 0.000000 0.931854
O O17 0.254449 0.102507 0.000000
O O18 0.837134 0.162867 0.767179
O O19 0.903470 0.307761 0.782942
O O20 0.000000 0.188678 0.760182
O O21 0.310584 0.500000 0.325712
O O22 0.336601 0.663400 0.332168
O O23 0.597858 0.000000 0.839533
#
# Coordination Sequence:
#
# PCOD9561855 Si02
#       8
#    16  16   8  16  16  16  16  16
#     4  10  20  33  51  74  99 130 165 202 247 294
#     4  10  20  34  53  75 100 131 165 204 250 297
#     4  10  20  33  51  75 102 134 170 206 245 290
#     4  10  20  34  52  74 100 130 165 203 242 289
#     4   9  17  28  43  65  94 130 170 209 248 289
#     4   9  17  28  44  68  97 131 168 204 245 291
#     4   9  17  29  46  69  98 131 165 202 243 288
#     4  10  19  31  48  70  98 130 164 202 243 291
#
# _framework density 19.040552999999999
#
# number of rings (size 3 to 8) (size 9 to 14) (size 15 to 20)
#    0.000    2.400    0.000    3.200    0.000    3.400 
#    0.000    3.667    0.000   11.200    0.000    1.867 
#    0.000    1.600    0.000    2.800    0.000    0.133 
#
# Total GULP energy -668388.932044 kJ/mol
# GULP energy per Si atom -5569.907767 kJ/mol
# Density = 1.899722 g / cm^3
# Si number density = 19.040553 Si / 1000 Ang^3
#
#
#
# Elastic Constant Matrix: (Units=GPa)
#
#
# Indices 1 2 3 4 5 6 
#
# 1 95.7865 58.5987 8.5267 0.0000 0.0000 0.0000
# 2 58.5987 95.7857 8.5262 0.0000 0.0000 0.0000
# 3 8.5267 8.5262 16.6242 0.0000 0.0000 0.0000
# 4 0.0000 0.0000 0.0000 11.9611 0.0000 0.0000
# 5 0.0000 0.0000 0.0000 0.0000 11.9612 0.0000
# 6 0.0000 0.0000 0.0000 0.0000 0.0000 -4.8478
#
#
#
# Elastic Compliance Matrix: (Units=1/GPa)
#
#
# Indices 1 2 3 4 5 6 
#
# 1 0.016879 -0.010012 -0.003522 0.000000 0.000000 0.000000
# 2 -0.010012 0.016879 -0.003521 0.000000 0.000000 0.000000
# 3 -0.003522 -0.003521 0.063766 0.000000 0.000000 0.000000
# 4 0.000000 0.000000 0.000000 0.083605 0.000000 0.000000
# 5 0.000000 0.000000 0.000000 0.000000 0.083603 0.000000
# 6 0.000000 0.000000 0.000000 0.000000 0.000000 -0.206279
#
#
# Mechanical properties :
#
#
# Convention : Reuss Voigt Hill
#
# Bulk Modulus (GPa) = 15.77001 39.94439 27.85720
# Shear Modulus (GPa) = 43.97525 12.65123 28.31324
#
# Velocity S-wave (km/s) = 4.81100 2.58046 3.86034
# Velocity P-wave (km/s) = 6.25790 5.46832 5.87638
#
# Compressibility (1/GPa) = 0.06341151
#
# Stress axis : x y z
#
# Youngs Moduli (GPa) = 59.24692 59.24670 15.68244
#
# Poissons Ratio (x) = 0.59319 0.05523
# Poissons Ratio (y) = 0.59319 0.05522
# Poissons Ratio (z) = 0.20867 0.20863
#
# Static dielectric constant tensor:
#      x y z
#    x 1.679560 0.000000 0.000000 
#    y 0.000000 1.679560 0.000000 
#    z 0.000000 0.000000 1.666060 
# 
# From -- ./inp_files/8832.got.cif
#   From: 2010.05.17/outbox.cif.g08.bks.cpg/sg123_5_cif.got.tgz:8832.got - 2010.05.20 11:43:04.
