data_PCOD9561295
_publ_section_title
;
Structure prediction by ZEFSAII (Michael W. Deem and Ramdas Pophale) SiO2 
 PCOD9561295
Probable space group: I -4 2 D
;
_chemical_formula_sum "Si O2"
_cell_formula_units_Z 52
_cell_length_a 14.927383
_cell_length_b 14.927383
_cell_length_c 10.240723
_cell_angle_alpha 90.000000
_cell_angle_beta 90.000000
_cell_angle_gamma 90.000000
_cell_volume 2281.907159
_symmetry_space_group_name_H-M "I -4 2 D"
_symmetry_group_IT_number 122
_symmetry_cell_setting 'tetragonal'
loop_
_space_group_symop_operation_xyz
x,y,z
y,-x,-z
-x,-y,z
-y,x,-z
x,1/2-y,1/4-z
-x,1/2+y,1/4-z
-y,1/2-x,1/4+z
y,1/2+x,1/4+z
1/2+x,1/2+y,1/2+z
1/2+y,1/2-x,1/2-z
1/2-x,1/2-y,1/2+z
1/2-y,1/2+x,1/2-z
1/2+x,-y,3/4-z
1/2-x,y,3/4-z
1/2-y,-x,3/4+z
1/2+y,x,3/4+z
loop_
_atom_site_type_symbol
_atom_site_label
_atom_site_fract_x
_atom_site_fract_y
_atom_site_fract_z
Si Si1 0.500000 0.500000 0.500000
Si Si2 0.586751 0.384612 0.970051
Si Si3 0.250000 0.215913 0.375000
Si Si4 0.250000 0.858676 0.875000
Si Si5 0.344701 0.034907 0.927514
O O1 0.431720 0.445759 0.408288
O O2 0.654335 0.322787 0.049682
O O3 0.487707 0.382269 0.032376
O O4 0.571025 0.355345 0.821914
O O5 0.199601 0.264786 0.254796
O O6 0.330536 0.926644 0.915309
O O7 0.250000 0.067757 0.875000
#
# Coordination Sequence:
#
# PCOD9561295 Si02
#       5
#     4  16   8   8  16
#     4  12  24  44  74 100 152 204 240 330 384 464
#     4  11  23  44  73 104 136 191 255 309 370 459
#     4  12  26  47  75 100 158 190 248 308 397 435
#     4  10  26  47  63 116 140 200 238 318 371 465
#     4  10  25  42  66 107 144 187 258 303 381 452
#
# _framework density 22.787958
#
# number of rings (size 3 to 8) (size 9 to 14) (size 15 to 20)
#    0.923    0.308    3.077    1.846    4.308    3.692 
#    0.000    0.000    0.000    0.000    0.000    0.000 
#    0.000    0.000    0.000    0.000    0.000    0.000 
#
# Total GULP energy -145286.241866 kJ/mol
# GULP energy per Si atom -5587.932379 kJ/mol
# Density = 2.273609 g / cm^3
# Si number density = 22.787958 Si / 1000 Ang^3
#
#
#
# Elastic Constant Matrix: (Units=GPa)
#
#
# Indices 1 2 3 4 5 6 
#
# 1 67.5914 17.2433 46.6868 0.0000 0.0000 0.0000
# 2 17.2433 67.5914 46.6868 0.0000 0.0000 0.0000
# 3 46.6868 46.6868 221.2998 0.0000 0.0000 0.0000
# 4 0.0000 0.0000 0.0000 31.1453 0.0000 0.0000
# 5 0.0000 0.0000 0.0000 0.0000 31.1453 0.0000
# 6 0.0000 0.0000 0.0000 0.0000 0.0000 27.8592
#
#
#
# Elastic Compliance Matrix: (Units=1/GPa)
#
#
# Indices 1 2 3 4 5 6 
#
# 1 0.017607 -0.002255 -0.003239 0.000000 0.000000 0.000000
# 2 -0.002255 0.017607 -0.003239 0.000000 0.000000 0.000000
# 3 -0.003239 -0.003239 0.005885 0.000000 0.000000 0.000000
# 4 0.000000 0.000000 0.000000 0.032108 0.000000 0.000000
# 5 0.000000 0.000000 0.000000 0.000000 0.032108 0.000000
# 6 0.000000 0.000000 0.000000 0.000000 0.000000 0.035895
#
#
# Mechanical properties :
#
#
# Convention : Reuss Voigt Hill
#
# Bulk Modulus (GPa) = 42.31036 64.19071 53.25053
# Shear Modulus (GPa) = 30.02058 34.42101 32.22080
#
# Velocity S-wave (km/s) = 3.63352 3.89072 3.76432
# Velocity P-wave (km/s) = 6.01752 6.95798 6.50477
#
# Compressibility (1/GPa) = 0.02363488
#
# Stress axis : x y z
#
# Youngs Moduli (GPa) = 56.79530 56.79530 169.91384
#
# Poissons Ratio (x) = 0.12805 0.55033
# Poissons Ratio (y) = 0.12805 0.55033
# Poissons Ratio (z) = 0.18395 0.18395
#
# Static dielectric constant tensor:
#      x y z
#    x 1.909010 0.000000 0.000000 
#    y 0.000000 1.909010 0.000000 
#    z 0.000000 0.000000 1.777320 
# 
# From -- ./inp_files/2221.got.cif
#   From: 2010.05.17/outbox.cif.g08.bks.cpg/sg122_2_cif.got.tgz:2221.got - 2010.05.20 11:37:33.
