data_PCOD9561668
_publ_section_title
;
Structure prediction by ZEFSAII (Michael W. Deem and Ramdas Pophale) SiO2 
 PCOD9561668
Probable space group: P 4/M M M
;
_chemical_formula_sum "Si O2"
_cell_formula_units_Z 120
_cell_length_a 18.088049
_cell_length_b 18.088049
_cell_length_c 22.387416
_cell_angle_alpha 90.000000
_cell_angle_beta 90.000000
_cell_angle_gamma 90.000000
_cell_volume 7324.659171
_symmetry_space_group_name_H-M "P 4/M M M"
_symmetry_group_IT_number 123
_symmetry_cell_setting 'tetragonal'
loop_
_space_group_symop_operation_xyz
x,y,z
-y,x,z
-x,-y,z
y,-x,z
x,-y,-z
-x,y,-z
y,x,-z
-y,-x,-z
-x,-y,-z
y,-x,-z
x,y,-z
-y,x,-z
-x,y,z
x,-y,z
-y,-x,z
y,x,z
loop_
_atom_site_type_symbol
_atom_site_label
_atom_site_fract_x
_atom_site_fract_y
_atom_site_fract_z
Si Si1 0.162704 0.348469 0.928536
Si Si2 0.792749 0.086285 0.869031
Si Si3 0.413710 0.086128 0.571816
Si Si4 0.810057 0.310968 0.650332
Si Si5 0.914470 0.204222 0.273785
Si Si6 0.414388 0.705035 0.271649
Si Si7 0.300396 0.584912 0.130096
Si Si8 0.500000 0.916308 0.072486
O O1 0.124435 0.277110 0.900399
O O2 0.245074 0.363071 0.906008
O O3 0.121688 0.424029 0.908863
O O4 0.159987 0.342725 0.000000
O O5 0.865798 0.134202 0.883068
O O6 0.781522 0.089914 0.797367
O O7 0.799251 0.000000 0.885798
O O8 0.408340 0.091283 0.500000
O O9 0.500000 0.101003 0.587935
O O10 0.357757 0.143156 0.602551
O O11 0.398081 0.000000 0.588169
O O12 0.748833 0.251168 0.627283
O O13 0.867439 0.264679 0.690633
O O14 0.765586 0.368208 0.692166
O O15 0.874129 0.125872 0.284374
O O16 0.000000 0.203902 0.291406
O O17 0.500000 0.703359 0.289116
O O18 0.372807 0.627194 0.281735
O O19 0.410601 0.719571 0.200418
O O20 0.294433 0.500000 0.110550
O O21 0.382373 0.617628 0.123804
O O22 0.500000 0.000000 0.093318
O O23 0.500000 0.915308 0.000000
#
# Coordination Sequence:
#
# PCOD9561668 Si02
#       8
#    16  16  16  16  16  16  16   8
#     4  11  21  35  53  73  95 122 158 197 242 294
#     4  10  21  36  54  76 101 129 162 200 242 291
#     4   9  18  32  49  69  95 130 170 207 240 277
#     4  10  18  29  48  73 101 129 158 196 244 290
#     4   9  18  32  50  72  98 128 160 196 238 284
#     4   9  18  31  48  70  95 126 159 194 237 282
#     4  10  20  34  51  72  98 126 160 199 239 288
#     4   9  18  32  50  70  91 115 145 185 229 277
#
# _framework density 16.383015
#
# number of rings (size 3 to 8) (size 9 to 14) (size 15 to 20)
#    0.000    2.333    0.667    2.800    0.000    4.800 
#    0.000    2.667    0.000    0.000    0.000    1.867 
#    0.000    0.000    0.000   24.800    0.000    0.267 
#
# Total GULP energy -668952.878181 kJ/mol
# GULP energy per Si atom -5574.607318 kJ/mol
# Density = 1.634573 g / cm^3
# Si number density = 16.383015 Si / 1000 Ang^3
#
#
#
# Elastic Constant Matrix: (Units=GPa)
#
#
# Indices 1 2 3 4 5 6 
#
# 1 129.7952 77.1772 37.0385 0.0000 0.0000 0.0000
# 2 77.1772 129.7952 37.0385 0.0000 0.0000 0.0000
# 3 37.0385 37.0385 21.9887 0.0000 0.0000 0.0000
# 4 0.0000 0.0000 0.0000 23.2043 0.0000 0.0000
# 5 0.0000 0.0000 0.0000 0.0000 23.2043 0.0000
# 6 0.0000 0.0000 0.0000 0.0000 0.0000 25.7603
#
#
#
# Elastic Compliance Matrix: (Units=1/GPa)
#
#
# Indices 1 2 3 4 5 6 
#
# 1 0.015586 -0.003419 -0.020493 0.000000 0.000000 0.000000
# 2 -0.003419 0.015586 -0.020493 0.000000 0.000000 0.000000
# 3 -0.020493 -0.020493 0.114516 0.000000 0.000000 0.000000
# 4 0.000000 0.000000 0.000000 0.043095 0.000000 0.000000
# 5 0.000000 0.000000 0.000000 0.000000 0.043095 0.000000
# 6 0.000000 0.000000 0.000000 0.000000 0.000000 0.038819
#
#
# Mechanical properties :
#
#
# Convention : Reuss Voigt Hill
#
# Bulk Modulus (GPa) = 17.58204 64.89860 41.24032
# Shear Modulus (GPa) = 13.21117 23.12210 18.16664
#
# Velocity S-wave (km/s) = 2.84279 3.76086 3.33358
# Velocity P-wave (km/s) = 4.64009 7.65233 6.32806
#
# Compressibility (1/GPa) = 0.05687621
#
# Stress axis : x y z
#
# Youngs Moduli (GPa) = 64.16196 64.16196 8.73239
#
# Poissons Ratio (x) = 0.21939 0.17895
# Poissons Ratio (y) = 0.21939 0.17895
# Poissons Ratio (z) = 1.31488 1.31488
#
# Static dielectric constant tensor:
#      x y z
#    x 1.554380 0.000000 0.000000 
#    y 0.000000 1.554380 0.000000 
#    z 0.000000 0.000000 1.525270 
# 
# From -- ./inp_files/6844.got.cif
#   From: 2010.05.17/outbox.cif.g08.bks.cpg/sg123_4_cif.got.tgz:6844.got - 2010.05.20 11:43:04.
