data_PCOD9561141
_publ_section_title
;
Structure prediction by ZEFSAII (Michael W. Deem and Ramdas Pophale) SiO2 
 PCOD9561141
Probable space group: I -4 2 D
;
_chemical_formula_sum "Si O2"
_cell_formula_units_Z 60
_cell_length_a 10.775814
_cell_length_b 10.775814
_cell_length_c 21.986493
_cell_angle_alpha 90.000000
_cell_angle_beta 90.000000
_cell_angle_gamma 90.000000
_cell_volume 2553.031274
_symmetry_space_group_name_H-M "I -4 2 D"
_symmetry_group_IT_number 122
_symmetry_cell_setting 'tetragonal'
loop_
_space_group_symop_operation_xyz
x,y,z
y,-x,-z
-x,-y,z
-y,x,-z
x,1/2-y,1/4-z
-x,1/2+y,1/4-z
-y,1/2-x,1/4+z
y,1/2+x,1/4+z
1/2+x,1/2+y,1/2+z
1/2+y,1/2-x,1/2-z
1/2-x,1/2-y,1/2+z
1/2-y,1/2+x,1/2-z
1/2+x,-y,3/4-z
1/2-x,y,3/4-z
1/2-y,-x,3/4+z
1/2+y,x,3/4+z
loop_
_atom_site_type_symbol
_atom_site_label
_atom_site_fract_x
_atom_site_fract_y
_atom_site_fract_z
Si Si1 0.500000 0.500000 0.500000
Si Si2 0.676896 0.262167 0.311323
Si Si3 0.594971 0.823273 0.983144
Si Si4 0.544331 0.730826 0.787932
Si Si5 0.250000 0.263265 0.375000
O O1 0.503598 0.624853 0.458111
O O2 0.750000 0.255389 0.375000
O O3 0.532792 0.297486 0.301708
O O4 0.705652 0.137166 0.273217
O O5 0.735262 0.373107 0.272492
O O6 0.628893 0.938011 0.027301
O O7 0.692977 0.842478 0.928903
O O8 0.637034 0.691884 0.842445
#
# Coordination Sequence:
#
# PCOD9561141 Si02
#       5
#     4  16  16  16   8
#     4  12  20  40  68 104 152 184 248 312 380 454
#     4  11  25  45  73 107 148 196 255 312 380 456
#     4  11  24  45  70 109 147 197 253 312 384 454
#     4  11  23  42  69 109 152 194 251 310 385 451
#     4  10  22  42  68 102 150 192 248 318 374 452
#
# _framework density 23.501474999999999
#
# number of rings (size 3 to 8) (size 9 to 14) (size 15 to 20)
#    0.000    1.067    5.333    2.400    1.867    0.533 
#    9.600    0.000    0.000    0.000    0.000    0.000 
#    0.000    0.000    0.000    0.000    0.000    0.000 
#
# Total GULP energy -167112.049888 kJ/mol
# GULP energy per Si atom -5570.401663 kJ/mol
# Density = 2.344798 g / cm^3
# Si number density = 23.501475 Si / 1000 Ang^3
#
#
#
# Elastic Constant Matrix: (Units=GPa)
#
#
# Indices 1 2 3 4 5 6 
#
# 1 137.6687 44.0455 47.0485 0.0000 0.0000 0.0000
# 2 44.0455 137.6687 47.0485 0.0000 0.0000 0.0000
# 3 47.0485 47.0485 106.1159 0.0000 0.0000 0.0000
# 4 0.0000 0.0000 0.0000 23.0603 0.0000 0.0000
# 5 0.0000 0.0000 0.0000 0.0000 23.0603 0.0000
# 6 0.0000 0.0000 0.0000 0.0000 0.0000 21.1795
#
#
#
# Elastic Compliance Matrix: (Units=1/GPa)
#
#
# Indices 1 2 3 4 5 6 
#
# 1 0.008912 -0.001769 -0.003167 0.000000 0.000000 0.000000
# 2 -0.001769 0.008912 -0.003167 0.000000 0.000000 0.000000
# 3 -0.003167 -0.003167 0.012232 0.000000 0.000000 0.000000
# 4 0.000000 0.000000 0.000000 0.043364 0.000000 0.000000
# 5 0.000000 0.000000 0.000000 0.000000 0.043364 0.000000
# 6 0.000000 0.000000 0.000000 0.000000 0.000000 0.047215
#
#
# Mechanical properties :
#
#
# Convention : Reuss Voigt Hill
#
# Bulk Modulus (GPa) = 72.20169 73.08203 72.64186
# Shear Modulus (GPa) = 27.05284 29.68077 28.36681
#
# Velocity S-wave (km/s) = 3.39649 3.55763 3.47799
# Velocity P-wave (km/s) = 6.79488 6.93109 6.86332
#
# Compressibility (1/GPa) = 0.01385009
#
# Stress axis : x y z
#
# Youngs Moduli (GPa) = 112.20670 112.20671 81.75288
#
# Poissons Ratio (x) = 0.19849 0.25891
# Poissons Ratio (y) = 0.19849 0.25891
# Poissons Ratio (z) = 0.35536 0.35536
#
# Static dielectric constant tensor:
#      x y z
#    x 1.997020 0.000000 0.000000 
#    y 0.000000 1.997020 0.000000 
#    z 0.000000 0.000000 1.908560 
# 
# From -- ./inp_files/6982.got.cif
#   From: 2010.05.17/outbox.cif.g08.bks.cpg/sg122_4_cif.got.tgz:6982.got - 2010.05.20 11:37:33.
