data_PCOD9561541
_publ_section_title
;
Structure prediction by ZEFSAII (Michael W. Deem and Ramdas Pophale) SiO2 
 PCOD9561541
Probable space group: I -4 2 D
;
_chemical_formula_sum "Si O2"
_cell_formula_units_Z 52
_cell_length_a 8.963306
_cell_length_b 8.963306
_cell_length_c 26.041429
_cell_angle_alpha 90.000000
_cell_angle_beta 90.000000
_cell_angle_gamma 90.000000
_cell_volume 2092.190657
_symmetry_space_group_name_H-M "I -4 2 D"
_symmetry_group_IT_number 122
_symmetry_cell_setting 'tetragonal'
loop_
_space_group_symop_operation_xyz
x,y,z
y,-x,-z
-x,-y,z
-y,x,-z
x,1/2-y,1/4-z
-x,1/2+y,1/4-z
-y,1/2-x,1/4+z
y,1/2+x,1/4+z
1/2+x,1/2+y,1/2+z
1/2+y,1/2-x,1/2-z
1/2-x,1/2-y,1/2+z
1/2-y,1/2+x,1/2-z
1/2+x,-y,3/4-z
1/2-x,y,3/4-z
1/2-y,-x,3/4+z
1/2+y,x,3/4+z
loop_
_atom_site_type_symbol
_atom_site_label
_atom_site_fract_x
_atom_site_fract_y
_atom_site_fract_z
Si Si1 0.500000 0.500000 0.000000
Si Si2 0.292474 0.453758 0.529960
Si Si3 0.869849 0.911422 0.143370
Si Si4 0.767330 0.067937 0.432134
O O1 0.359844 0.456035 0.966043
O O2 0.327914 0.595035 0.494030
O O3 0.335157 0.492397 0.589007
O O4 0.132659 0.376732 0.539150
O O5 0.927645 0.750000 0.125000
O O6 0.715449 0.871612 0.171493
O O7 0.000000 0.000000 0.171388
O O8 0.750000 0.006192 0.375000
#
# Coordination Sequence:
#
# PCOD9561541 Si02
#       4
#     4  16  16  16
#     4  12  24  48  60  76 124 180 200 248 320 346
#     4   9  15  31  60  89 114 145 187 248 308 351
#     4   9  17  32  54  86 124 146 192 260 301 359
#     4   9  23  41  56  86 125 152 210 252 285 386
#
# _framework density 24.854331999999999
#
# number of rings (size 3 to 8) (size 9 to 14) (size 15 to 20)
#    0.000    3.385    3.077    0.000    0.000    4.923 
#   11.077    0.000    0.000    0.000    0.000    0.000 
#    0.000    0.000    0.000    0.000    0.000    0.000 
#
# Total GULP energy -144952.312549 kJ/mol
# GULP energy per Si atom -5575.088944 kJ/mol
# Density = 2.479776 g / cm^3
# Si number density = 24.854332 Si / 1000 Ang^3
#
#
#
# Elastic Constant Matrix: (Units=GPa)
#
#
# Indices 1 2 3 4 5 6 
#
# 1 27.7941 12.1995 13.8609 0.0000 0.0000 0.0000
# 2 12.1995 27.7941 13.8609 0.0000 0.0000 0.0000
# 3 13.8609 13.8609 129.8669 0.0000 0.0000 0.0000
# 4 0.0000 0.0000 0.0000 10.5307 0.0000 0.0000
# 5 0.0000 0.0000 0.0000 0.0000 10.5307 0.0000
# 6 0.0000 0.0000 0.0000 0.0000 0.0000 34.5059
#
#
#
# Elastic Compliance Matrix: (Units=1/GPa)
#
#
# Indices 1 2 3 4 5 6 
#
# 1 0.045563 -0.018562 -0.002882 0.000000 0.000000 0.000000
# 2 -0.018562 0.045563 -0.002882 0.000000 0.000000 0.000000
# 3 -0.002882 -0.002882 0.008315 0.000000 0.000000 0.000000
# 4 0.000000 0.000000 0.000000 0.094961 0.000000 0.000000
# 5 0.000000 0.000000 0.000000 0.000000 0.094961 0.000000
# 6 0.000000 0.000000 0.000000 0.000000 0.000000 0.028981
#
#
# Mechanical properties :
#
#
# Convention : Reuss Voigt Hill
#
# Bulk Modulus (GPa) = 19.68856 29.47753 24.58305
# Shear Modulus (GPa) = 13.02337 20.81571 16.91954
#
# Velocity S-wave (km/s) = 2.29156 2.89711 2.61195
# Velocity P-wave (km/s) = 3.86529 4.80384 4.35989
#
# Compressibility (1/GPa) = 0.05079091
#
# Stress axis : x y z
#
# Youngs Moduli (GPa) = 21.94748 21.94749 120.25917
#
# Poissons Ratio (x) = 0.40738 0.34658
# Poissons Ratio (y) = 0.40738 0.34658
# Poissons Ratio (z) = 0.06325 0.06325
#
# Static dielectric constant tensor:
#      x y z
#    x 2.020600 0.000000 0.000000 
#    y 0.000000 2.020600 0.000000 
#    z 0.000000 0.000000 1.995290 
# 
# From -- ./inp_files/8466.got.cif
#   From: 2010.05.17/outbox.cif.g08.bks.cpg/sg122_5_cif.got.tgz:8466.got - 2010.05.20 11:37:33.
