data_PCOD9561769
_publ_section_title
;
Structure prediction by ZEFSAII (Michael W. Deem and Ramdas Pophale) SiO2 
 PCOD9561769
Probable space group: P 4/M M M
;
_chemical_formula_sum "Si O2"
_cell_formula_units_Z 72
_cell_length_a 14.188039
_cell_length_b 14.188039
_cell_length_c 23.759985
_cell_angle_alpha 90.000000
_cell_angle_beta 90.000000
_cell_angle_gamma 90.000000
_cell_volume 4782.895688
_symmetry_space_group_name_H-M "P 4/M M M"
_symmetry_group_IT_number 123
_symmetry_cell_setting 'tetragonal'
loop_
_space_group_symop_operation_xyz
x,y,z
-y,x,z
-x,-y,z
y,-x,z
x,-y,-z
-x,y,-z
y,x,-z
-y,-x,-z
-x,-y,-z
y,-x,-z
x,y,-z
-y,x,-z
-x,y,z
x,-y,z
-y,-x,z
y,x,z
loop_
_atom_site_type_symbol
_atom_site_label
_atom_site_fract_x
_atom_site_fract_y
_atom_site_fract_z
Si Si1 0.386347 0.769437 0.500000
Si Si2 0.892057 0.614091 0.390133
Si Si3 0.109451 0.387838 0.828098
Si Si4 0.231851 0.613227 0.281650
Si Si5 0.266632 0.111044 0.937050
O O1 0.500000 0.753090 0.500000
O O2 0.326540 0.673461 0.500000
O O3 0.361318 0.831328 0.445080
O O4 0.897440 0.500000 0.389878
O O5 0.835763 0.640224 0.333800
O O6 0.000000 0.649126 0.391643
O O7 0.114467 0.500000 0.836659
O O8 0.177051 0.364255 0.776184
O O9 0.134709 0.335726 0.885853
O O10 0.000000 0.365244 0.814107
O O11 0.247449 0.500000 0.283956
O O12 0.327563 0.672438 0.284991
O O13 0.173513 0.173513 0.931981
O O14 0.245405 0.000000 0.933349
O O15 0.306828 0.128113 0.000000
#
# Coordination Sequence:
#
# PCOD9561769 Si02
#       5
#     8  16  16  16  16
#     4  10  19  30  45  67  96 126 153 181 214 257
#     4   9  17  30  47  65  86 113 146 185 223 252
#     4   9  17  29  45  64  85 110 142 181 221 255
#     4  10  19  30  45  65  90 118 145 174 210 256
#     4   9  17  28  42  61  85 112 141 174 213 259
#
# _framework density 15.053642
#
# number of rings (size 3 to 8) (size 9 to 14) (size 15 to 20)
#    0.000    2.667    0.000    2.333    0.000    5.000 
#    0.000    3.333    0.000    4.000    0.000    0.000 
#    0.000   32.444    0.000   20.667    0.000    0.444 
#
# Total GULP energy -400976.301443 kJ/mol
# GULP energy per Si atom -5569.115298 kJ/mol
# Density = 1.501938 g / cm^3
# Si number density = 15.053642 Si / 1000 Ang^3
#
#
#
# Elastic Constant Matrix: (Units=GPa)
#
#
# Indices 1 2 3 4 5 6 
#
# 1 60.6984 43.5786 55.3308 0.0000 0.0000 0.0000
# 2 43.5786 60.7003 55.3314 0.0000 0.0000 0.0000
# 3 55.3308 55.3314 143.5488 0.0000 0.0000 0.0000
# 4 0.0000 0.0000 0.0000 18.2126 0.0000 0.0000
# 5 0.0000 0.0000 0.0000 0.0000 18.2122 0.0000
# 6 0.0000 0.0000 0.0000 0.0000 0.0000 19.9031
#
#
#
# Elastic Compliance Matrix: (Units=1/GPa)
#
#
# Indices 1 2 3 4 5 6 
#
# 1 0.037319 -0.021091 -0.006255 0.000000 0.000000 0.000000
# 2 -0.021091 0.037318 -0.006255 0.000000 0.000000 0.000000
# 3 -0.006255 -0.006255 0.011788 0.000000 0.000000 0.000000
# 4 0.000000 0.000000 0.000000 0.054907 0.000000 0.000000
# 5 0.000000 0.000000 0.000000 0.000000 0.054908 0.000000
# 6 0.000000 0.000000 0.000000 0.000000 0.000000 0.050244
#
#
# Mechanical properties :
#
#
# Convention : Reuss Voigt Hill
#
# Bulk Modulus (GPa) = 52.01914 63.71436 57.86675
# Shear Modulus (GPa) = 15.62048 18.64601 17.13324
#
# Velocity S-wave (km/s) = 3.22476 3.52325 3.37730
# Velocity P-wave (km/s) = 6.96393 7.67905 7.33021
#
# Compressibility (1/GPa) = 0.01922369
#
# Stress axis : x y z
#
# Youngs Moduli (GPa) = 26.79604 26.79701 84.83009
#
# Poissons Ratio (x) = 0.56516 0.53062
# Poissons Ratio (y) = 0.56514 0.53060
# Poissons Ratio (z) = 0.16761 0.16761
#
# Static dielectric constant tensor:
#      x y z
#    x 1.481330 0.000000 0.000000 
#    y 0.000000 1.481330 0.000000 
#    z 0.000000 0.000000 1.510780 
# 
# From -- ./inp_files/6259.got.cif
#   From: 2010.05.17/outbox.cif.g08.bks.cpg/sg123_4_cif.got.tgz:6259.got - 2010.05.20 11:43:04.
