data_PCOD9561441
_publ_section_title
;
Structure prediction by ZEFSAII (Michael W. Deem and Ramdas Pophale) SiO2 
 PCOD9561441
Probable space group: I -4 2 D
;
_chemical_formula_sum "Si O2"
_cell_formula_units_Z 52
_cell_length_a 20.316145
_cell_length_b 20.316145
_cell_length_c 4.898280
_cell_angle_alpha 90.000000
_cell_angle_beta 90.000000
_cell_angle_gamma 90.000000
_cell_volume 2021.744241
_symmetry_space_group_name_H-M "I -4 2 D"
_symmetry_group_IT_number 122
_symmetry_cell_setting 'tetragonal'
loop_
_space_group_symop_operation_xyz
x,y,z
y,-x,-z
-x,-y,z
-y,x,-z
x,1/2-y,1/4-z
-x,1/2+y,1/4-z
-y,1/2-x,1/4+z
y,1/2+x,1/4+z
1/2+x,1/2+y,1/2+z
1/2+y,1/2-x,1/2-z
1/2-x,1/2-y,1/2+z
1/2-y,1/2+x,1/2-z
1/2+x,-y,3/4-z
1/2-x,y,3/4-z
1/2-y,-x,3/4+z
1/2+y,x,3/4+z
loop_
_atom_site_type_symbol
_atom_site_label
_atom_site_fract_x
_atom_site_fract_y
_atom_site_fract_z
Si Si1 0.500000 0.500000 0.000000
Si Si2 0.103406 0.650365 0.177939
Si Si3 0.750000 0.789832 0.875000
Si Si4 0.250000 0.988471 0.875000
Si Si5 0.068341 0.130361 0.411749
O O1 0.511076 0.581007 0.011000
O O2 0.164011 0.695822 0.263949
O O3 0.038510 0.693333 0.227484
O O4 0.103675 0.586347 0.361516
O O5 0.119887 0.628245 0.870881
O O6 0.779704 0.750000 0.625000
O O7 0.207308 0.948957 0.649505
#
# Coordination Sequence:
#
# PCOD9561441 Si02
#       5
#     4  16   8   8  16
#     4  12  28  54  76 114 160 210 268 342 404 498
#     4  11  28  48  71 113 151 199 264 328 391 488
#     4  11  24  46  70 100 146 188 241 308 384 459
#     4  11  28  50  80 114 162 216 273 338 420 495
#     4  12  28  48  80 110 157 207 268 333 406 483
#
# _framework density 25.720365000000001
#
# number of rings (size 3 to 8) (size 9 to 14) (size 15 to 20)
#    0.000    0.615    3.077    1.846   10.769    7.385 
#    0.000    0.000    0.000    0.000    0.000    0.000 
#    0.000    0.000    0.000    0.000    0.000    0.000 
#
# Total GULP energy -144809.695304 kJ/mol
# GULP energy per Si atom -5569.603666 kJ/mol
# Density = 2.566182 g / cm^3
# Si number density = 25.720365 Si / 1000 Ang^3
#
#
#
# Elastic Constant Matrix: (Units=GPa)
#
#
# Indices 1 2 3 4 5 6 
#
# 1 111.6706 41.5040 16.0232 0.0000 0.0000 0.0000
# 2 41.5040 111.6706 16.0232 0.0000 0.0000 0.0000
# 3 16.0232 16.0232 71.1921 0.0000 0.0000 0.0000
# 4 0.0000 0.0000 0.0000 4.9990 0.0000 0.0000
# 5 0.0000 0.0000 0.0000 0.0000 4.9990 0.0000
# 6 0.0000 0.0000 0.0000 0.0000 0.0000 60.1174
#
#
#
# Elastic Compliance Matrix: (Units=1/GPa)
#
#
# Indices 1 2 3 4 5 6 
#
# 1 0.010551 -0.003700 -0.001542 0.000000 0.000000 0.000000
# 2 -0.003700 0.010551 -0.001542 0.000000 0.000000 0.000000
# 3 -0.001542 -0.001542 0.014741 0.000000 0.000000 0.000000
# 4 0.000000 0.000000 0.000000 0.200039 0.000000 0.000000
# 5 0.000000 0.000000 0.000000 0.000000 0.200039 0.000000
# 6 0.000000 0.000000 0.000000 0.000000 0.000000 0.016634
#
#
# Mechanical properties :
#
#
# Convention : Reuss Voigt Hill
#
# Bulk Modulus (GPa) = 44.89356 49.07044 46.98200
# Shear Modulus (GPa) = 10.55858 28.75529 19.65694
#
# Velocity S-wave (km/s) = 2.02831 3.34727 2.76752
# Velocity P-wave (km/s) = 4.79351 5.83600 5.34025
#
# Compressibility (1/GPa) = 0.02227491
#
# Stress axis : x y z
#
# Youngs Moduli (GPa) = 94.77379 94.77379 67.83983
#
# Poissons Ratio (x) = 0.35070 0.10461
# Poissons Ratio (y) = 0.35070 0.10461
# Poissons Ratio (z) = 0.14614 0.14614
#
# Static dielectric constant tensor:
#      x y z
#    x 2.081020 0.000000 0.000000 
#    y 0.000000 2.081020 0.000000 
#    z 0.000000 0.000000 2.016810 
# 
# From -- ./inp_files/867.got.cif
#   From: 2010.05.17/outbox.cif.g08.bks.cpg/sg122_1_cif.got.tgz:867.got - 2010.05.20 11:37:33.
