data_PCOD9561018
_publ_section_title
;
Structure prediction by ZEFSAII (Michael W. Deem and Ramdas Pophale) SiO2 
 PCOD9561018
Probable space group: I -4 2 D
;
_chemical_formula_sum "Si O2"
_cell_formula_units_Z 60
_cell_length_a 10.658501
_cell_length_b 10.658501
_cell_length_c 24.611084
_cell_angle_alpha 90.000000
_cell_angle_beta 90.000000
_cell_angle_gamma 90.000000
_cell_volume 2795.908815
_symmetry_space_group_name_H-M "I -4 2 D"
_symmetry_group_IT_number 122
_symmetry_cell_setting 'tetragonal'
loop_
_space_group_symop_operation_xyz
x,y,z
y,-x,-z
-x,-y,z
-y,x,-z
x,1/2-y,1/4-z
-x,1/2+y,1/4-z
-y,1/2-x,1/4+z
y,1/2+x,1/4+z
1/2+x,1/2+y,1/2+z
1/2+y,1/2-x,1/2-z
1/2-x,1/2-y,1/2+z
1/2-y,1/2+x,1/2-z
1/2+x,-y,3/4-z
1/2-x,y,3/4-z
1/2-y,-x,3/4+z
1/2+y,x,3/4+z
loop_
_atom_site_type_symbol
_atom_site_label
_atom_site_fract_x
_atom_site_fract_y
_atom_site_fract_z
Si Si1 0.965868 0.679495 0.721044
Si Si2 0.500000 0.500000 0.126569
Si Si3 0.675450 0.932730 0.034661
Si Si4 0.000000 0.500000 0.250000
Si Si5 0.936289 0.788063 0.062518
O O1 0.856498 0.591493 0.746507
O O2 0.924016 0.821409 0.724835
O O3 0.985485 0.621651 0.661422
O O4 0.622580 0.492097 0.163980
O O5 0.803314 0.857799 0.051516
O O6 0.686093 0.024544 0.982692
O O7 0.963101 0.392830 0.207384
O O8 0.945228 0.750000 0.125000
#
# Coordination Sequence:
#
# PCOD9561018 Si02
#       5
#    16   8  16   4  16
#     4   9  21  42  62  97 137 171 225 292 357 419
#     4  10  21  39  66  96 129 181 222 292 348 412
#     4  11  23  42  66  99 133 176 239 279 357 427
#     4   8  20  42  56  88 130 160 228 260 322 408
#     4  10  22  42  63  92 132 179 220 282 339 415
#
# _framework density 21.459927
#
# number of rings (size 3 to 8) (size 9 to 14) (size 15 to 20)
#    0.000    2.400    0.000    2.400    3.733    1.067 
#   28.800    0.000    0.000    0.000    0.000    0.000 
#    0.000    0.000    0.000    0.000    0.000    0.000 
#
# Total GULP energy -167053.926495 kJ/mol
# GULP energy per Si atom -5568.464217 kJ/mol
# Density = 2.141108 g / cm^3
# Si number density = 21.459927 Si / 1000 Ang^3
#
#
#
# Elastic Constant Matrix: (Units=GPa)
#
#
# Indices 1 2 3 4 5 6 
#
# 1 82.3581 14.7177 63.7991 0.0000 0.0000 0.0000
# 2 14.7177 82.3581 63.7991 0.0000 0.0000 0.0000
# 3 63.7991 63.7991 217.8394 0.0000 0.0000 0.0000
# 4 0.0000 0.0000 0.0000 10.7998 0.0000 0.0000
# 5 0.0000 0.0000 0.0000 0.0000 10.7998 0.0000
# 6 0.0000 0.0000 0.0000 0.0000 0.0000 36.5165
#
#
#
# Elastic Compliance Matrix: (Units=1/GPa)
#
#
# Indices 1 2 3 4 5 6 
#
# 1 0.015766 0.000982 -0.004905 0.000000 0.000000 0.000000
# 2 0.000982 0.015766 -0.004905 0.000000 0.000000 0.000000
# 3 -0.004905 -0.004905 0.007464 0.000000 0.000000 0.000000
# 4 0.000000 0.000000 0.000000 0.092594 0.000000 0.000000
# 5 0.000000 0.000000 0.000000 0.000000 0.092594 0.000000
# 6 0.000000 0.000000 0.000000 0.000000 0.000000 0.027385
#
#
# Mechanical properties :
#
#
# Convention : Reuss Voigt Hill
#
# Bulk Modulus (GPa) = 46.85966 74.13193 60.49580
# Shear Modulus (GPa) = 18.09368 27.63920 22.86644
#
# Velocity S-wave (km/s) = 2.90683 3.59269 3.26780
# Velocity P-wave (km/s) = 5.75756 7.19925 6.51839
#
# Compressibility (1/GPa) = 0.02134032
#
# Stress axis : x y z
#
# Youngs Moduli (GPa) = 63.42592 63.42592 133.98067
#
# Poissons Ratio (x) = -0.06231 0.65721
# Poissons Ratio (y) = -0.06231 0.65721
# Poissons Ratio (z) = 0.31112 0.31112
#
# Static dielectric constant tensor:
#      x y z
#    x 1.901260 0.000000 0.000000 
#    y 0.000000 1.901260 0.000000 
#    z 0.000000 0.000000 1.791640 
# 
# From -- ./inp_files/6964.got.cif
#   From: 2010.05.17/outbox.cif.g08.bks.cpg/sg122_4_cif.got.tgz:6964.got - 2010.05.20 11:37:33.
