data_PCOD9561258
_publ_section_title
;
Structure prediction by ZEFSAII (Michael W. Deem and Ramdas Pophale) SiO2 
 PCOD9561258
Probable space group: I -4 2 D
;
_chemical_formula_sum "Si O2"
_cell_formula_units_Z 52
_cell_length_a 19.114548
_cell_length_b 19.114548
_cell_length_c 5.232579
_cell_angle_alpha 90.000000
_cell_angle_beta 90.000000
_cell_angle_gamma 90.000000
_cell_volume 1911.806172
_symmetry_space_group_name_H-M "I -4 2 D"
_symmetry_group_IT_number 122
_symmetry_cell_setting 'tetragonal'
loop_
_space_group_symop_operation_xyz
x,y,z
y,-x,-z
-x,-y,z
-y,x,-z
x,1/2-y,1/4-z
-x,1/2+y,1/4-z
-y,1/2-x,1/4+z
y,1/2+x,1/4+z
1/2+x,1/2+y,1/2+z
1/2+y,1/2-x,1/2-z
1/2-x,1/2-y,1/2+z
1/2-y,1/2+x,1/2-z
1/2+x,-y,3/4-z
1/2-x,y,3/4-z
1/2-y,-x,3/4+z
1/2+y,x,3/4+z
loop_
_atom_site_type_symbol
_atom_site_label
_atom_site_fract_x
_atom_site_fract_y
_atom_site_fract_z
Si Si1 0.899048 0.387154 0.049122
Si Si2 0.703304 0.830717 0.616897
Si Si3 0.500000 0.500000 0.500000
Si Si4 0.077464 0.250000 0.625000
Si Si5 0.488993 0.750000 0.625000
O O1 0.873533 0.366506 0.336515
O O2 0.943710 0.457767 0.074667
O O3 0.950893 0.320846 0.019702
O O4 0.827472 0.385008 0.874536
O O5 0.683823 0.750000 0.625000
O O6 0.750000 0.848316 0.375000
O O7 0.750000 0.837572 0.875000
O O8 0.032681 0.266009 0.375424
#
# Coordination Sequence:
#
# PCOD9561258 Si02
#       5
#    16  16   4   8   8
#     4  12  28  51  90 125 175 240 307 371 470 556
#     4  10  24  43  76 122 165 206 276 363 437 517
#     4  12  28  56  86 124 182 236 302 368 470 576
#     4  12  32  54  88 126 180 238 306 390 458 556
#     4  12  30  56  84 128 182 238 306 384 464 564
#
# _framework density 27.199414000000001
#
# number of rings (size 3 to 8) (size 9 to 14) (size 15 to 20)
#    0.000    0.615    4.615    0.000   10.769    4.923 
#    0.000    0.000    0.000    0.000    0.000    0.000 
#    0.000    0.000    0.000    0.000    0.000    0.000 
#
# Total GULP energy -145048.494612 kJ/mol
# GULP energy per Si atom -5578.788254 kJ/mol
# Density = 2.713751 g / cm^3
# Si number density = 27.199414 Si / 1000 Ang^3
#
#
#
# Elastic Constant Matrix: (Units=GPa)
#
#
# Indices 1 2 3 4 5 6 
#
# 1 134.0543 72.3571 35.0562 0.0000 0.0000 0.0000
# 2 72.3571 134.0543 35.0562 0.0000 0.0000 0.0000
# 3 35.0562 35.0562 102.9187 0.0000 0.0000 0.0000
# 4 0.0000 0.0000 0.0000 32.9513 0.0000 0.0000
# 5 0.0000 0.0000 0.0000 0.0000 32.9513 0.0000
# 6 0.0000 0.0000 0.0000 0.0000 0.0000 77.5740
#
#
#
# Elastic Compliance Matrix: (Units=1/GPa)
#
#
# Indices 1 2 3 4 5 6 
#
# 1 0.010843 -0.005365 -0.001866 0.000000 0.000000 0.000000
# 2 -0.005365 0.010843 -0.001866 0.000000 0.000000 0.000000
# 3 -0.001866 -0.001866 0.010988 0.000000 0.000000 0.000000
# 4 0.000000 0.000000 0.000000 0.030348 0.000000 0.000000
# 5 0.000000 0.000000 0.000000 0.000000 0.030348 0.000000
# 6 0.000000 0.000000 0.000000 0.000000 0.000000 0.012891
#
#
# Mechanical properties :
#
#
# Convention : Reuss Voigt Hill
#
# Bulk Modulus (GPa) = 69.05906 72.88515 70.97210
# Shear Modulus (GPa) = 38.67518 43.93249 41.30383
#
# Velocity S-wave (km/s) = 3.77492 4.02332 3.90109
# Velocity P-wave (km/s) = 6.66671 6.95971 6.81478
#
# Compressibility (1/GPa) = 0.01448036
#
# Stress axis : x y z
#
# Youngs Moduli (GPa) = 92.22219 92.22219 91.01104
#
# Poissons Ratio (x) = 0.49475 0.16984
# Poissons Ratio (y) = 0.49475 0.16984
# Poissons Ratio (z) = 0.17210 0.17210
#
# Static dielectric constant tensor:
#      x y z
#    x 2.463220 0.000000 0.000000 
#    y 0.000000 2.463220 0.000000 
#    z 0.000000 0.000000 2.175580 
# 
# From -- ./inp_files/783.got.cif
#   From: 2010.05.17/outbox.cif.g08.bks.cpg/sg122_1_cif.got.tgz:783.got - 2010.05.20 11:37:33.
