data_PCOD9561816
_publ_section_title
;
Structure prediction by ZEFSAII (Michael W. Deem and Ramdas Pophale) SiO2 
 PCOD9561816
Probable space group: P 4/M M M
;
_chemical_formula_sum "Si O2"
_cell_formula_units_Z 56
_cell_length_a 19.392149
_cell_length_b 19.392149
_cell_length_c 7.862705
_cell_angle_alpha 90.000000
_cell_angle_beta 90.000000
_cell_angle_gamma 90.000000
_cell_volume 2956.813011
_symmetry_space_group_name_H-M "P 4/M M M"
_symmetry_group_IT_number 123
_symmetry_cell_setting 'tetragonal'
loop_
_space_group_symop_operation_xyz
x,y,z
-y,x,z
-x,-y,z
y,-x,z
x,-y,-z
-x,y,-z
y,x,-z
-y,-x,-z
-x,-y,-z
y,-x,-z
x,y,-z
-y,x,-z
-x,y,z
x,-y,z
-y,-x,z
y,x,z
loop_
_atom_site_type_symbol
_atom_site_label
_atom_site_fract_x
_atom_site_fract_y
_atom_site_fract_z
Si Si1 0.268065 0.156760 0.807387
Si Si2 0.575336 0.314990 0.202481
Si Si3 0.918416 0.191800 0.500000
Si Si4 0.576633 0.839605 0.304762
O O1 0.234632 0.234632 0.784395
O O2 0.231515 0.111062 0.664805
O O3 0.350418 0.146993 0.786040
O O4 0.250132 0.136893 0.000000
O O5 0.500000 0.347903 0.220510
O O6 0.634810 0.365191 0.259712
O O7 0.574999 0.243266 0.298610
O O8 0.584744 0.299898 0.000000
O O9 0.883089 0.116911 0.500000
O O10 0.000000 0.189978 0.500000
O O11 0.581514 0.863609 0.500000
O O12 0.500000 0.861719 0.237652
#
# Coordination Sequence:
#
# PCOD9561816 Si02
#       4
#    16  16   8  16
#     4  10  20  35  58  86 116 154 198 242 287 336
#     4   9  17  27  38  55  82 120 169 225 285 345
#     4  10  22  41  65  95 127 155 184 220 266 326
#     4  10  19  30  47  73 105 142 186 238 292 339
#
# _framework density 18.939309999999999
#
# number of rings (size 3 to 8) (size 9 to 14) (size 15 to 20)
#    0.000    2.286    1.429    1.714    0.000    6.714 
#    0.000    1.429    0.000    1.714    0.000   10.000 
#    0.000    0.000    0.000    0.000    0.000    0.000 
#
# Total GULP energy -311801.401022 kJ/mol
# GULP energy per Si atom -5567.882161 kJ/mol
# Density = 1.889620 g / cm^3
# Si number density = 18.939310 Si / 1000 Ang^3
#
#
#
# Elastic Constant Matrix: (Units=GPa)
#
#
# Indices 1 2 3 4 5 6 
#
# 1 88.4647 25.0011 38.5017 0.0000 0.0000 0.0000
# 2 25.0011 88.4680 38.5023 0.0000 0.0000 0.0000
# 3 38.5017 38.5023 97.7979 0.0000 0.0000 0.0000
# 4 0.0000 0.0000 0.0000 20.8988 0.0000 0.0000
# 5 0.0000 0.0000 0.0000 0.0000 20.8950 0.0000
# 6 0.0000 0.0000 0.0000 0.0000 0.0000 9.3009
#
#
#
# Elastic Compliance Matrix: (Units=1/GPa)
#
#
# Indices 1 2 3 4 5 6 
#
# 1 0.013892 -0.001865 -0.004735 0.000000 0.000000 0.000000
# 2 -0.001865 0.013891 -0.004735 0.000000 0.000000 0.000000
# 3 -0.004735 -0.004735 0.013953 0.000000 0.000000 0.000000
# 4 0.000000 0.000000 0.000000 0.047850 0.000000 0.000000
# 5 0.000000 0.000000 0.000000 0.000000 0.047858 0.000000
# 6 0.000000 0.000000 0.000000 0.000000 0.000000 0.107517
#
#
# Mechanical properties :
#
#
# Convention : Reuss Voigt Hill
#
# Bulk Modulus (GPa) = 52.44627 53.19341 52.81984
# Shear Modulus (GPa) = 18.24915 21.73397 19.99156
#
# Velocity S-wave (km/s) = 3.10749 3.39124 3.25246
# Velocity P-wave (km/s) = 6.37395 6.59403 6.48492
#
# Compressibility (1/GPa) = 0.01906713
#
# Stress axis : x y z
#
# Youngs Moduli (GPa) = 71.98545 71.98824 71.66872
#
# Poissons Ratio (x) = 0.13427 0.33933
# Poissons Ratio (y) = 0.13427 0.33932
# Poissons Ratio (z) = 0.34083 0.34083
#
# Static dielectric constant tensor:
#      x y z
#    x 1.665820 0.000000 0.000000 
#    y 0.000000 1.665820 0.000000 
#    z 0.000000 0.000000 1.689340 
# 
# From -- ./inp_files/577.got.cif
#   From: 2010.05.17/outbox.cif.g08.bks.cpg/sg123_1_cif.got.tgz:577.got - 2010.05.20 11:43:04.
