data_PCOD9561920
_publ_section_title
;
Structure prediction by ZEFSAII (Michael W. Deem and Ramdas Pophale) SiO2 
 PCOD9561920
Probable space group: P 4/M M M
;
_chemical_formula_sum "Si O2"
_cell_formula_units_Z 104
_cell_length_a 27.080252
_cell_length_b 27.080252
_cell_length_c 7.797554
_cell_angle_alpha 90.000000
_cell_angle_beta 90.000000
_cell_angle_gamma 90.000000
_cell_volume 5718.258628
_symmetry_space_group_name_H-M "P 4/M M M"
_symmetry_group_IT_number 123
_symmetry_cell_setting 'tetragonal'
loop_
_space_group_symop_operation_xyz
x,y,z
-y,x,z
-x,-y,z
y,-x,z
x,-y,-z
-x,y,-z
y,x,-z
-y,-x,-z
-x,-y,-z
y,-x,-z
x,y,-z
-y,x,-z
-x,y,z
x,-y,z
-y,-x,z
y,x,z
loop_
_atom_site_type_symbol
_atom_site_label
_atom_site_fract_x
_atom_site_fract_y
_atom_site_fract_z
Si Si1 0.446148 0.239291 0.706066
Si Si2 0.691006 0.146878 0.803280
Si Si3 0.865651 0.055162 0.707727
Si Si4 0.055949 0.500000 0.794272
Si Si5 0.130068 0.584453 0.702126
Si Si6 0.255983 0.664715 0.206240
Si Si7 0.248409 0.944794 0.796444
O O1 0.447779 0.241208 0.500000
O O2 0.500000 0.257729 0.769221
O O3 0.440666 0.181671 0.756886
O O4 0.393519 0.262646 0.756130
O O5 0.635726 0.125458 0.799548
O O6 0.684147 0.202291 0.728103
O O7 0.724769 0.103909 0.723355
O O8 0.708033 0.153932 0.000000
O O9 0.863886 0.057060 0.500000
O O10 0.902858 0.097143 0.768492
O O11 0.810090 0.061466 0.773055
O O12 0.882415 0.000000 0.756464
O O13 0.085613 0.547611 0.732344
O O14 0.000000 0.500000 0.732338
O O15 0.056112 0.500000 0.000000
O O16 0.134270 0.595402 0.500000
O O17 0.300089 0.699912 0.268297
O O18 0.253941 0.668392 0.000000
O O19 0.261352 0.000000 0.727684
O O20 0.259734 0.945994 0.000000
#
# Coordination Sequence:
#
# PCOD9561920 Si02
#       7
#    16  16  16   8  16  16  16
#     4   9  17  31  50  71  95 125 160 197 239 289
#     4   9  18  32  49  69  94 129 164 196 241 291
#     4   9  18  32  49  69  92 116 144 182 229 283
#     4  11  23  35  47  65  91 123 159 203 252 299
#     4  10  19  33  50  69  93 120 156 203 246 288
#     4   9  18  31  46  69 100 130 164 204 241 284
#     4   9  18  32  49  68  91 120 156 197 237 282
#
# _framework density 18.187356000000001
#
# number of rings (size 3 to 8) (size 9 to 14) (size 15 to 20)
#    0.000    2.692    0.769    0.692    0.000    4.154 
#    0.000    3.846    0.000    0.000    0.000    2.154 
#    0.000    0.308    0.000    3.385    0.000    2.462 
#
# Total GULP energy -579352.785842 kJ/mol
# GULP energy per Si atom -5570.699864 kJ/mol
# Density = 1.814596 g / cm^3
# Si number density = 18.187356 Si / 1000 Ang^3
#
#
#
# Elastic Constant Matrix: (Units=GPa)
#
#
# Indices 1 2 3 4 5 6 
#
# 1 112.8554 84.8623 3.2161 0.0000 0.0000 0.0000
# 2 84.8623 112.8554 3.2161 0.0000 0.0000 0.0000
# 3 3.2161 3.2161 26.6022 0.0000 0.0000 0.0000
# 4 0.0000 0.0000 0.0000 15.9859 0.0000 0.0000
# 5 0.0000 0.0000 0.0000 0.0000 15.9859 0.0000
# 6 0.0000 0.0000 0.0000 0.0000 0.0000 21.6605
#
#
#
# Elastic Compliance Matrix: (Units=1/GPa)
#
#
# Indices 1 2 3 4 5 6 
#
# 1 0.020400 -0.015323 -0.000614 0.000000 0.000000 0.000000
# 2 -0.015323 0.020400 -0.000614 0.000000 0.000000 0.000000
# 3 -0.000614 -0.000614 0.037739 0.000000 0.000000 0.000000
# 4 0.000000 0.000000 0.000000 0.062555 0.000000 0.000000
# 5 0.000000 0.000000 0.000000 0.000000 0.062555 0.000000
# 6 0.000000 0.000000 0.000000 0.000000 0.000000 0.046167
#
#
# Mechanical properties :
#
#
# Convention : Reuss Voigt Hill
#
# Bulk Modulus (GPa) = 22.00742 48.32244 35.16493
# Shear Modulus (GPa) = 16.77490 21.46104 19.11797
#
# Velocity S-wave (km/s) = 3.04030 3.43884 3.24569
# Velocity P-wave (km/s) = 4.94482 6.51110 5.78125
#
# Compressibility (1/GPa) = 0.04543923
#
# Stress axis : x y z
#
# Youngs Moduli (GPa) = 49.01875 49.01875 26.49755
#
# Poissons Ratio (x) = 0.75110 0.01627
# Poissons Ratio (y) = 0.75110 0.01627
# Poissons Ratio (z) = 0.03009 0.03009
#
# Static dielectric constant tensor:
#      x y z
#    x 1.627240 0.000000 0.000000 
#    y 0.000000 1.627240 0.000000 
#    z 0.000000 0.000000 1.680070 
# 
# From -- ./inp_files/1954.got.cif
#   From: 2010.05.17/outbox.cif.g08.bks.cpg/sg123_1_cif.got.tgz:1954.got - 2010.05.20 11:43:04.
