data_PCOD9561151
_publ_section_title
;
Structure prediction by ZEFSAII (Michael W. Deem and Ramdas Pophale) SiO2 
 PCOD9561151
Probable space group: I -4 2 D
;
_chemical_formula_sum "Si O2"
_cell_formula_units_Z 80
_cell_length_a 13.076436
_cell_length_b 13.076436
_cell_length_c 17.435814
_cell_angle_alpha 90.000000
_cell_angle_beta 90.000000
_cell_angle_gamma 90.000000
_cell_volume 2981.405255
_symmetry_space_group_name_H-M "I -4 2 D"
_symmetry_group_IT_number 122
_symmetry_cell_setting 'tetragonal'
loop_
_space_group_symop_operation_xyz
x,y,z
y,-x,-z
-x,-y,z
-y,x,-z
x,1/2-y,1/4-z
-x,1/2+y,1/4-z
-y,1/2-x,1/4+z
y,1/2+x,1/4+z
1/2+x,1/2+y,1/2+z
1/2+y,1/2-x,1/2-z
1/2-x,1/2-y,1/2+z
1/2-y,1/2+x,1/2-z
1/2+x,-y,3/4-z
1/2-x,y,3/4-z
1/2-y,-x,3/4+z
1/2+y,x,3/4+z
loop_
_atom_site_type_symbol
_atom_site_label
_atom_site_fract_x
_atom_site_fract_y
_atom_site_fract_z
Si Si1 0.870496 0.433627 0.290911
Si Si2 0.874129 0.043631 0.624165
Si Si3 0.637905 0.455489 0.291157
Si Si4 0.164815 0.942108 0.434646
Si Si5 0.151663 0.197642 0.819738
O O1 0.878228 0.553137 0.266693
O O2 0.751720 0.408051 0.289429
O O3 0.908396 0.420794 0.378257
O O4 0.946440 0.102364 0.561304
O O5 0.911908 0.069765 0.709743
O O6 0.878418 0.924749 0.604933
O O7 0.644302 0.578970 0.298667
O O8 0.568252 0.754813 0.371825
O O9 0.250000 0.975006 0.375000
O O10 0.232840 0.873066 0.493890
O O11 0.250000 0.212845 0.875000
#
# Coordination Sequence:
#
# PCOD9561151 Si02
#       5
#    16  16  16  16  16
#     4  10  22  43  69 101 147 195 246 316 388 471
#     4  11  25  45  77 106 152 200 252 325 384 468
#     4  11  23  44  69 110 147 191 255 314 385 456
#     4  11  24  48  72 109 148 199 260 313 390 462
#     4  12  24  46  73 107 150 198 249 319 378 462
#
# _framework density 26.832984
#
# number of rings (size 3 to 8) (size 9 to 14) (size 15 to 20)
#    0.000    1.000    4.000    3.000    0.000    4.800 
#    7.200    0.000    0.000    0.000    0.000    0.000 
#    0.000    0.000    0.000    0.000    0.000    0.000 
#
# Total GULP energy -223121.034334 kJ/mol
# GULP energy per Si atom -5578.025858 kJ/mol
# Density = 2.677191 g / cm^3
# Si number density = 26.832984 Si / 1000 Ang^3
#
#
#
# Elastic Constant Matrix: (Units=GPa)
#
#
# Indices 1 2 3 4 5 6 
#
# 1 102.9377 15.7590 13.3365 0.0000 0.0000 0.0000
# 2 15.7590 102.9377 13.3365 0.0000 0.0000 0.0000
# 3 13.3365 13.3365 190.6155 0.0000 0.0000 0.0000
# 4 0.0000 0.0000 0.0000 29.6927 0.0000 0.0000
# 5 0.0000 0.0000 0.0000 0.0000 29.6927 0.0000
# 6 0.0000 0.0000 0.0000 0.0000 0.0000 31.1169
#
#
#
# Elastic Compliance Matrix: (Units=1/GPa)
#
#
# Indices 1 2 3 4 5 6 
#
# 1 0.010015 -0.001456 -0.000599 0.000000 0.000000 0.000000
# 2 -0.001456 0.010015 -0.000599 0.000000 0.000000 0.000000
# 3 -0.000599 -0.000599 0.005330 0.000000 0.000000 0.000000
# 4 0.000000 0.000000 0.000000 0.033678 0.000000 0.000000
# 5 0.000000 0.000000 0.000000 0.000000 0.033678 0.000000
# 6 0.000000 0.000000 0.000000 0.000000 0.000000 0.032137
#
#
# Mechanical properties :
#
#
# Convention : Reuss Voigt Hill
#
# Bulk Modulus (GPa) = 49.86703 53.48388 51.67545
# Shear Modulus (GPa) = 36.53774 41.70437 39.12105
#
# Velocity S-wave (km/s) = 3.69409 3.94664 3.82245
# Velocity P-wave (km/s) = 6.06792 6.38305 6.22748
#
# Compressibility (1/GPa) = 0.02005333
#
# Stress axis : x y z
#
# Youngs Moduli (GPa) = 99.84970 99.84970 187.61857
#
# Poissons Ratio (x) = 0.14535 0.11236
# Poissons Ratio (y) = 0.14535 0.11236
# Poissons Ratio (z) = 0.05980 0.05980
#
# Static dielectric constant tensor:
#      x y z
#    x 2.116990 0.000000 0.000000 
#    y 0.000000 2.116990 0.000000 
#    z 0.000000 0.000000 2.437220 
# 
# From -- ./inp_files/5311.got.cif
#   From: 2010.05.17/outbox.cif.g08.bks.cpg/sg122_3_cif.got.tgz:5311.got - 2010.05.20 11:37:33.
