data_PCOD9561357
_publ_section_title
;
Structure prediction by ZEFSAII (Michael W. Deem and Ramdas Pophale) SiO2 
 PCOD9561357
Probable space group: I -4 2 D
;
_chemical_formula_sum "Si O2"
_cell_formula_units_Z 68
_cell_length_a 17.357603
_cell_length_b 17.357603
_cell_length_c 12.923755
_cell_angle_alpha 90.000000
_cell_angle_beta 90.000000
_cell_angle_gamma 90.000000
_cell_volume 3893.751385
_symmetry_space_group_name_H-M "I -4 2 D"
_symmetry_group_IT_number 122
_symmetry_cell_setting 'tetragonal'
loop_
_space_group_symop_operation_xyz
x,y,z
y,-x,-z
-x,-y,z
-y,x,-z
x,1/2-y,1/4-z
-x,1/2+y,1/4-z
-y,1/2-x,1/4+z
y,1/2+x,1/4+z
1/2+x,1/2+y,1/2+z
1/2+y,1/2-x,1/2-z
1/2-x,1/2-y,1/2+z
1/2-y,1/2+x,1/2-z
1/2+x,-y,3/4-z
1/2-x,y,3/4-z
1/2-y,-x,3/4+z
1/2+y,x,3/4+z
loop_
_atom_site_type_symbol
_atom_site_label
_atom_site_fract_x
_atom_site_fract_y
_atom_site_fract_z
Si Si1 0.777304 0.366490 0.590943
Si Si2 0.407426 0.636049 0.591662
Si Si3 0.780493 0.544448 0.545641
Si Si4 0.500000 0.000000 0.750000
Si Si5 0.773907 0.819976 0.544912
O O1 0.684707 0.357614 0.583463
O O2 0.793477 0.456134 0.575450
O O3 0.813914 0.311790 0.503336
O O4 0.806477 0.332438 0.699979
O O5 0.443080 0.698210 0.511627
O O6 0.430424 0.659758 0.707257
O O7 0.442380 0.553352 0.565449
O O8 0.784745 0.601013 0.643342
O O9 0.783488 0.750000 0.625000
#
# Coordination Sequence:
#
# PCOD9561357 Si02
#       5
#    16  16  16   4  16
#     4  11  23  39  62  90 119 163 201 246 305 351
#     4  11  22  36  60  94 120 151 197 244 312 351
#     4  11  23  38  62  88 120 160 195 250 299 358
#     4  12  24  36  56 100 130 144 188 268 300 360
#     4  11  21  41  62  87 122 157 212 248 287 375
#
# _framework density 17.463878999999999
#
# number of rings (size 3 to 8) (size 9 to 14) (size 15 to 20)
#    0.000    0.941    7.059    1.412    6.588    0.000 
#    4.235    2.353    0.000    0.000    0.000    0.000 
#    0.000    0.000    0.000    0.000    0.000    0.000 
#
# Total GULP energy -189913.451325 kJ/mol
# GULP energy per Si atom -5585.689745 kJ/mol
# Density = 1.742413 g / cm^3
# Si number density = 17.463879 Si / 1000 Ang^3
#
#
#
# Elastic Constant Matrix: (Units=GPa)
#
#
# Indices 1 2 3 4 5 6 
#
# 1 108.8734 33.5274 47.4280 0.0000 0.0000 0.0000
# 2 33.5274 108.8734 47.4280 0.0000 0.0000 0.0000
# 3 47.4280 47.4280 97.9042 0.0000 0.0000 0.0000
# 4 0.0000 0.0000 0.0000 9.1519 0.0000 0.0000
# 5 0.0000 0.0000 0.0000 0.0000 9.1519 0.0000
# 6 0.0000 0.0000 0.0000 0.0000 0.0000 19.5870
#
#
#
# Elastic Compliance Matrix: (Units=1/GPa)
#
#
# Indices 1 2 3 4 5 6 
#
# 1 0.011820 -0.001452 -0.005023 0.000000 0.000000 0.000000
# 2 -0.001452 0.011820 -0.005023 0.000000 0.000000 0.000000
# 3 -0.005023 -0.005023 0.015080 0.000000 0.000000 0.000000
# 4 0.000000 0.000000 0.000000 0.109267 0.000000 0.000000
# 5 0.000000 0.000000 0.000000 0.000000 0.109267 0.000000
# 6 0.000000 0.000000 0.000000 0.000000 0.000000 0.051054
#
#
# Mechanical properties :
#
#
# Convention : Reuss Voigt Hill
#
# Bulk Modulus (GPa) = 63.58911 63.60197 63.59554
# Shear Modulus (GPa) = 14.85685 20.06266 17.45975
#
# Velocity S-wave (km/s) = 2.91987 3.39309 3.16533
# Velocity P-wave (km/s) = 6.91798 7.20062 7.06071
#
# Compressibility (1/GPa) = 0.01572596
#
# Stress axis : x y z
#
# Youngs Moduli (GPa) = 84.60150 84.60150 66.31145
#
# Poissons Ratio (x) = 0.12284 0.33306
# Poissons Ratio (y) = 0.12284 0.33306
# Poissons Ratio (z) = 0.42492 0.42492
#
# Static dielectric constant tensor:
#      x y z
#    x 1.587480 0.000000 0.000000 
#    y 0.000000 1.587480 0.000000 
#    z 0.000000 0.000000 1.575650 
# 
# From -- ./inp_files/4155.got.cif
#   From: 2010.05.17/outbox.cif.g08.bks.cpg/sg122_3_cif.got.tgz:4155.got - 2010.05.20 11:37:33.
