data_PCOD9561277
_publ_section_title
;
Structure prediction by ZEFSAII (Michael W. Deem and Ramdas Pophale) SiO2 
 PCOD9561277
Probable space group: I -4 2 D
;
_chemical_formula_sum "Si O2"
_cell_formula_units_Z 36
_cell_length_a 9.659702
_cell_length_b 9.659702
_cell_length_c 15.509463
_cell_angle_alpha 90.000000
_cell_angle_beta 90.000000
_cell_angle_gamma 90.000000
_cell_volume 1447.185553
_symmetry_space_group_name_H-M "I -4 2 D"
_symmetry_group_IT_number 122
_symmetry_cell_setting 'tetragonal'
loop_
_space_group_symop_operation_xyz
x,y,z
y,-x,-z
-x,-y,z
-y,x,-z
x,1/2-y,1/4-z
-x,1/2+y,1/4-z
-y,1/2-x,1/4+z
y,1/2+x,1/4+z
1/2+x,1/2+y,1/2+z
1/2+y,1/2-x,1/2-z
1/2-x,1/2-y,1/2+z
1/2-y,1/2+x,1/2-z
1/2+x,-y,3/4-z
1/2-x,y,3/4-z
1/2-y,-x,3/4+z
1/2+y,x,3/4+z
loop_
_atom_site_type_symbol
_atom_site_label
_atom_site_fract_x
_atom_site_fract_y
_atom_site_fract_z
Si Si1 0.380686 0.230883 0.937585
Si Si2 0.313948 0.420341 0.544290
Si Si3 0.500000 0.500000 0.000000
O O1 0.250000 0.208270 0.875000
O O2 0.517214 0.175440 0.889768
O O3 0.405615 0.393165 0.948318
O O4 0.328939 0.157329 0.024499
O O5 0.327560 0.554360 0.481200
#
# Coordination Sequence:
#
# PCOD9561277 Si02
#       3
#    16  16   4
#     4  10  24  46  69 103 138 185 233 295 356 428
#     4   9  20  47  70 105 136 183 234 293 358 434
#     4  12  28  44  68  96 140 188 230 292 356 424
#
# _framework density 24.875869999999999
#
# number of rings (size 3 to 8) (size 9 to 14) (size 15 to 20)
#    0.000    2.222    0.000    0.000    6.222    0.000 
#   88.000    0.000    0.000    0.000    0.000    0.000 
#    0.000    0.000    0.000    0.000    0.000    0.000 
#
# Total GULP energy -100649.914138 kJ/mol
# GULP energy per Si atom -5591.661897 kJ/mol
# Density = 2.481925 g / cm^3
# Si number density = 24.875870 Si / 1000 Ang^3
#
#
#
# Elastic Constant Matrix: (Units=GPa)
#
#
# Indices 1 2 3 4 5 6 
#
# 1 101.8152 38.6817 36.3906 0.0000 0.0000 0.0000
# 2 38.6817 101.8152 36.3906 0.0000 0.0000 0.0000
# 3 36.3906 36.3906 34.9929 0.0000 0.0000 0.0000
# 4 0.0000 0.0000 0.0000 21.7095 0.0000 0.0000
# 5 0.0000 0.0000 0.0000 0.0000 21.7095 0.0000
# 6 0.0000 0.0000 0.0000 0.0000 0.0000 61.6723
#
#
#
# Elastic Compliance Matrix: (Units=1/GPa)
#
#
# Indices 1 2 3 4 5 6 
#
# 1 0.015635 -0.000205 -0.016046 0.000000 0.000000 0.000000
# 2 -0.000205 0.015635 -0.016046 0.000000 0.000000 0.000000
# 3 -0.016046 -0.016046 0.061952 0.000000 0.000000 0.000000
# 4 0.000000 0.000000 0.000000 0.046063 0.000000 0.000000
# 5 0.000000 0.000000 0.000000 0.000000 0.046063 0.000000
# 6 0.000000 0.000000 0.000000 0.000000 0.000000 0.016215
#
#
# Mechanical properties :
#
#
# Convention : Reuss Voigt Hill
#
# Bulk Modulus (GPa) = 34.93268 51.28322 43.10795
# Shear Modulus (GPa) = 18.13572 29.49562 23.81567
#
# Velocity S-wave (km/s) = 2.70302 3.44715 3.09751
# Velocity P-wave (km/s) = 4.88007 6.04187 5.49178
#
# Compressibility (1/GPa) = 0.02862649
#
# Stress axis : x y z
#
# Youngs Moduli (GPa) = 63.96003 63.96003 16.14154
#
# Poissons Ratio (x) = 0.01309 0.25901
# Poissons Ratio (y) = 0.01309 0.25901
# Poissons Ratio (z) = 1.02633 1.02633
#
# Static dielectric constant tensor:
#      x y z
#    x 1.980130 0.000000 0.000000 
#    y 0.000000 1.980130 0.000000 
#    z 0.000000 0.000000 2.042610 
# 
# From -- ./inp_files/4842.got.cif
#   From: 2010.05.17/outbox.cif.g08.bks.cpg/sg122_3_cif.got.tgz:4842.got - 2010.05.20 11:37:33.
