data_PCOD9561982
_publ_section_title
;
Structure prediction by ZEFSAII (Michael W. Deem and Ramdas Pophale) SiO2 
 PCOD9561982
Probable space group: P 4/M M M
;
_chemical_formula_sum "Si O2"
_cell_formula_units_Z 96
_cell_length_a 25.675530
_cell_length_b 25.675530
_cell_length_c 9.306328
_cell_angle_alpha 90.000000
_cell_angle_beta 90.000000
_cell_angle_gamma 90.000000
_cell_volume 6135.037045
_symmetry_space_group_name_H-M "P 4/M M M"
_symmetry_group_IT_number 123
_symmetry_cell_setting 'tetragonal'
loop_
_space_group_symop_operation_xyz
x,y,z
-y,x,z
-x,-y,z
y,-x,z
x,-y,-z
-x,y,-z
y,x,-z
-y,-x,-z
-x,-y,-z
y,-x,-z
x,y,-z
-y,x,-z
-x,y,z
x,-y,z
-y,-x,z
y,x,z
loop_
_atom_site_type_symbol
_atom_site_label
_atom_site_fract_x
_atom_site_fract_y
_atom_site_fract_z
Si Si1 0.060904 0.853535 0.828527
Si Si2 0.561527 0.865975 0.327007
Si Si3 0.937664 0.643547 0.829816
Si Si4 0.748616 0.936750 0.665082
Si Si5 0.748716 0.563198 0.335355
Si Si6 0.560411 0.644982 0.172847
O O1 0.097618 0.902383 0.794952
O O2 0.078303 0.802172 0.743017
O O3 0.000000 0.863961 0.795393
O O4 0.064110 0.843486 0.000000
O O5 0.567271 0.871035 0.500000
O O6 0.500000 0.871990 0.294842
O O7 0.596436 0.907311 0.244555
O O8 0.578399 0.806848 0.287966
O O9 0.921196 0.697528 0.753893
O O10 0.000000 0.637624 0.809575
O O11 0.927659 0.645573 0.000000
O O12 0.746292 0.918998 0.500000
O O13 0.748586 0.000000 0.664176
O O14 0.740888 0.580238 0.500000
O O15 0.749730 0.500000 0.336118
O O16 0.699887 0.578481 0.238842
O O17 0.500000 0.635987 0.215434
O O18 0.598114 0.598114 0.217993
O O19 0.561613 0.648279 0.000000
#
# Coordination Sequence:
#
# PCOD9561982 Si02
#       6
#    16  16  16  16  16  16
#     4   9  17  29  46  69  97 127 157 190 229 273
#     4   9  18  32  49  69  93 121 152 186 226 272
#     4  10  20  32  47  69  96 123 151 186 228 272
#     4   9  17  30  48  67  88 119 159 196 228 268
#     4   8  15  29  47  65  86 115 152 189 222 260
#     4   9  17  28  43  65  92 121 152 185 222 265
#
# _framework density 15.647826999999999
#
# number of rings (size 3 to 8) (size 9 to 14) (size 15 to 20)
#    0.000    3.000    0.000    2.000    0.000    5.333 
#    0.000    5.000    0.000    1.000    0.000    9.333 
#    0.000    0.000    0.000    0.000    0.000    0.000 
#
# Total GULP energy -534593.544898 kJ/mol
# GULP energy per Si atom -5568.682759 kJ/mol
# Density = 1.561221 g / cm^3
# Si number density = 15.647827 Si / 1000 Ang^3
#
#
#
# Elastic Constant Matrix: (Units=GPa)
#
#
# Indices 1 2 3 4 5 6 
#
# 1 92.1943 64.9558 58.2295 0.0000 0.0000 0.0000
# 2 64.9558 92.1943 58.2295 0.0000 0.0000 0.0000
# 3 58.2295 58.2295 61.3019 0.0000 0.0000 0.0000
# 4 0.0000 0.0000 0.0000 25.5184 0.0000 0.0000
# 5 0.0000 0.0000 0.0000 0.0000 25.5184 0.0000
# 6 0.0000 0.0000 0.0000 0.0000 0.0000 -2.8345
#
#
#
# Elastic Compliance Matrix: (Units=1/GPa)
#
#
# Indices 1 2 3 4 5 6 
#
# 1 0.029103 -0.007610 -0.020415 0.000000 0.000000 0.000000
# 2 -0.007610 0.029103 -0.020415 0.000000 0.000000 0.000000
# 3 -0.020415 -0.020415 0.055097 0.000000 0.000000 0.000000
# 4 0.000000 0.000000 0.000000 0.039187 0.000000 0.000000
# 5 0.000000 0.000000 0.000000 0.000000 0.039187 0.000000
# 6 0.000000 0.000000 0.000000 0.000000 0.000000 -0.352795
#
#
# Mechanical properties :
#
#
# Convention : Reuss Voigt Hill
#
# Bulk Modulus (GPa) = 60.89882 67.61335 64.25609
# Shear Modulus (GPa) = -85.08766 13.92550 -35.58108
#
# Velocity S-wave (km/s) = -7.38205 2.98641 -4.77368
# Velocity P-wave (km/s) = 5.80144 7.42932 3.28162
#
# Compressibility (1/GPa) = 0.01642068
#
# Stress axis : x y z
#
# Youngs Moduli (GPa) = 34.36119 34.36119 18.14982
#
# Poissons Ratio (x) = 0.26149 0.37053
# Poissons Ratio (y) = 0.26149 0.37053
# Poissons Ratio (z) = 0.70149 0.70149
#
# Static dielectric constant tensor:
#      x y z
#    x 1.509710 0.000000 0.000000 
#    y 0.000000 1.509710 0.000000 
#    z 0.000000 0.000000 1.524760 
# 
# From -- ./inp_files/1627.got.cif
#   From: 2010.05.17/outbox.cif.g08.bks.cpg/sg123_1_cif.got.tgz:1627.got - 2010.05.20 11:43:04.
