data_PCOD9561338
_publ_section_title
;
Structure prediction by ZEFSAII (Michael W. Deem and Ramdas Pophale) SiO2 
 PCOD9561338
Probable space group: I -4 2 D
;
_chemical_formula_sum "Si O2"
_cell_formula_units_Z 80
_cell_length_a 21.825676
_cell_length_b 21.825676
_cell_length_c 9.710473
_cell_angle_alpha 90.000000
_cell_angle_beta 90.000000
_cell_angle_gamma 90.000000
_cell_volume 4625.682208
_symmetry_space_group_name_H-M "I -4 2 D"
_symmetry_group_IT_number 122
_symmetry_cell_setting 'tetragonal'
loop_
_space_group_symop_operation_xyz
x,y,z
y,-x,-z
-x,-y,z
-y,x,-z
x,1/2-y,1/4-z
-x,1/2+y,1/4-z
-y,1/2-x,1/4+z
y,1/2+x,1/4+z
1/2+x,1/2+y,1/2+z
1/2+y,1/2-x,1/2-z
1/2-x,1/2-y,1/2+z
1/2-y,1/2+x,1/2-z
1/2+x,-y,3/4-z
1/2-x,y,3/4-z
1/2-y,-x,3/4+z
1/2+y,x,3/4+z
loop_
_atom_site_type_symbol
_atom_site_label
_atom_site_fract_x
_atom_site_fract_y
_atom_site_fract_z
Si Si1 0.058009 0.426163 0.716864
Si Si2 0.750000 0.645900 0.875000
Si Si3 0.250000 0.146753 0.875000
Si Si4 0.427415 0.809234 0.378319
Si Si5 0.554811 0.717664 0.976701
Si Si6 0.750145 0.339708 0.526929
O O1 0.067834 0.485129 0.819515
O O2 0.116634 0.434578 0.617072
O O3 0.065403 0.355674 0.761571
O O4 0.788452 0.607562 0.762326
O O5 0.703445 0.690483 0.794867
O O6 0.215068 0.107471 0.760859
O O7 0.297367 0.191246 0.797876
O O8 0.493161 0.777676 0.361348
O O9 0.610842 0.747485 0.897002
O O10 0.547775 0.750000 0.125000
O O11 0.750000 0.367602 0.375000
#
# Coordination Sequence:
#
# PCOD9561338 Si02
#       6
#    16   8   8  16  16  16
#     4   9  19  36  59  87 114 150 200 250 290 351
#     4  11  20  38  56  80 110 151 196 238 292 345
#     4  11  24  38  56  82 120 157 188 244 314 359
#     4  11  21  38  58  85 115 150 200 246 296 356
#     4  11  22  35  60  88 117 152 198 245 298 368
#     4  11  23  36  55  82 117 153 189 242 303 364
#
# _framework density 17.294746
#
# number of rings (size 3 to 8) (size 9 to 14) (size 15 to 20)
#    0.000    1.400    5.000    1.200    1.400    0.000 
#    0.000    0.000    0.000    0.000    0.000    0.000 
#    0.000    0.000    0.000    0.000    0.000    0.000 
#
# Total GULP energy -222680.040984 kJ/mol
# GULP energy per Si atom -5567.001025 kJ/mol
# Density = 1.725538 g / cm^3
# Si number density = 17.294746 Si / 1000 Ang^3
#
#
#
# Elastic Constant Matrix: (Units=GPa)
#
#
# Indices 1 2 3 4 5 6 
#
# 1 89.2898 23.2015 19.4510 0.0000 0.0000 0.0000
# 2 23.2015 89.2898 19.4510 0.0000 0.0000 0.0000
# 3 19.4510 19.4510 58.1716 0.0000 0.0000 0.0000
# 4 0.0000 0.0000 0.0000 698.0360 0.0000 0.0000
# 5 0.0000 0.0000 0.0000 0.0000 698.0360 0.0000
# 6 0.0000 0.0000 0.0000 0.0000 0.0000 21.7927
#
#
#
# Elastic Compliance Matrix: (Units=1/GPa)
#
#
# Indices 1 2 3 4 5 6 
#
# 1 0.012592 -0.002540 -0.003361 0.000000 0.000000 0.000000
# 2 -0.002540 0.012592 -0.003361 0.000000 0.000000 0.000000
# 3 -0.003361 -0.003361 0.019438 0.000000 0.000000 0.000000
# 4 0.000000 0.000000 0.000000 0.001433 0.000000 0.000000
# 5 0.000000 0.000000 0.000000 0.000000 0.001433 0.000000
# 6 0.000000 0.000000 0.000000 0.000000 0.000000 0.045887
#
#
# Mechanical properties :
#
#
# Convention : Reuss Voigt Hill
#
# Bulk Modulus (GPa) = 38.31754 40.10647 39.21201
# Shear Modulus (GPa) = 41.46058 295.21610 168.33834
#
# Velocity S-wave (km/s) = 4.90153 13.07928 9.87655
# Velocity P-wave (km/s) = 7.36458 15.85340 12.36057
#
# Compressibility (1/GPa) = 0.02609771
#
# Stress axis : x y z
#
# Youngs Moduli (GPa) = 79.41802 79.41802 51.44500
#
# Poissons Ratio (x) = 0.20170 0.17291
# Poissons Ratio (y) = 0.20170 0.17291
# Poissons Ratio (z) = 0.26693 0.26693
#
# Static dielectric constant tensor:
#      x y z
#    x 1.599780 0.000000 0.000000 
#    y 0.000000 1.599780 0.000000 
#    z 0.000000 0.000000 1.543490 
# 
# From -- ./inp_files/2829.got.cif
#   From: 2010.05.17/outbox.cif.g08.bks.cpg/sg122_2_cif.got.tgz:2829.got - 2010.05.20 11:37:33.
