data_PCOD9561813
_publ_section_title
;
Structure prediction by ZEFSAII (Michael W. Deem and Ramdas Pophale) SiO2 
 PCOD9561813
Probable space group: P 4/M M M
;
_chemical_formula_sum "Si O2"
_cell_formula_units_Z 104
_cell_length_a 18.216511
_cell_length_b 18.216511
_cell_length_c 16.807409
_cell_angle_alpha 90.000000
_cell_angle_beta 90.000000
_cell_angle_gamma 90.000000
_cell_volume 5577.391999
_symmetry_space_group_name_H-M "P 4/M M M"
_symmetry_group_IT_number 123
_symmetry_cell_setting 'tetragonal'
loop_
_space_group_symop_operation_xyz
x,y,z
-y,x,z
-x,-y,z
y,-x,z
x,-y,-z
-x,y,-z
y,x,-z
-y,-x,-z
-x,-y,-z
y,-x,-z
x,y,-z
-y,x,-z
-x,y,z
x,-y,z
-y,-x,z
y,x,z
loop_
_atom_site_type_symbol
_atom_site_label
_atom_site_fract_x
_atom_site_fract_y
_atom_site_fract_z
Si Si1 0.585772 0.696265 0.500000
Si Si2 0.690011 0.184033 0.909447
Si Si3 0.920090 0.196439 0.622980
Si Si4 0.352663 0.764114 0.661700
Si Si5 0.083182 0.364008 0.410140
Si Si6 0.292843 0.414042 0.826371
Si Si7 0.915233 0.794994 0.814132
O O1 0.500000 0.704998 0.500000
O O2 0.612193 0.612193 0.500000
O O3 0.619773 0.732518 0.421808
O O4 0.752315 0.247686 0.908252
O O5 0.618105 0.224964 0.877325
O O6 0.723000 0.121541 0.852499
O O7 0.681593 0.158376 0.000000
O O8 0.855653 0.144348 0.595862
O O9 0.918454 0.275813 0.584538
O O10 0.913118 0.208759 0.718266
O O11 0.000000 0.162346 0.608763
O O12 0.268058 0.731943 0.671241
O O13 0.372280 0.850257 0.652197
O O14 0.395897 0.729386 0.735281
O O15 0.098485 0.393065 0.500000
O O16 0.000000 0.387683 0.387264
O O17 0.304535 0.500000 0.838185
O O18 0.364711 0.364711 0.844803
O O19 0.864754 0.864754 0.837545
O O20 0.000000 0.803165 0.838108
#
# Coordination Sequence:
#
# PCOD9561813 Si02
#       7
#     8  16  16  16  16  16  16
#     4  10  20  33  51  75 101 131 164 200 246 302
#     4   9  18  33  53  77 105 139 178 216 257 312
#     4   9  17  27  40  61  91 127 168 215 266 317
#     4  10  19  33  53  76 103 138 177 214 256 312
#     4  10  19  30  47  71  97 128 173 228 272 303
#     4  10  21  37  59  85 110 137 169 209 260 320
#     4   9  17  30  49  75 107 144 186 232 280 325
#
# _framework density 18.646708
#
# number of rings (size 3 to 8) (size 9 to 14) (size 15 to 20)
#    0.000    2.462    0.769    1.846    0.000    4.538 
#    0.000    1.538    0.000    6.462    0.000    7.538 
#    0.000    0.000    0.000    0.000    0.000    0.000 
#
# Total GULP energy -579455.587226 kJ/mol
# GULP energy per Si atom -5571.688339 kJ/mol
# Density = 1.860427 g / cm^3
# Si number density = 18.646708 Si / 1000 Ang^3
#
#
#
# Elastic Constant Matrix: (Units=GPa)
#
#
# Indices 1 2 3 4 5 6 
#
# 1 95.8676 19.7876 13.3798 0.0000 0.0000 0.0000
# 2 19.7876 95.8676 13.3798 0.0000 0.0000 0.0000
# 3 13.3798 13.3798 49.7908 0.0000 0.0000 0.0000
# 4 0.0000 0.0000 0.0000 3.4138 0.0000 0.0000
# 5 0.0000 0.0000 0.0000 0.0000 3.4138 0.0000
# 6 0.0000 0.0000 0.0000 0.0000 0.0000 13.5124
#
#
#
# Elastic Compliance Matrix: (Units=1/GPa)
#
#
# Indices 1 2 3 4 5 6 
#
# 1 0.011182 -0.001962 -0.002477 0.000000 0.000000 0.000000
# 2 -0.001962 0.011182 -0.002477 0.000000 0.000000 0.000000
# 3 -0.002477 -0.002477 0.021416 0.000000 0.000000 0.000000
# 4 0.000000 0.000000 0.000000 0.292932 0.000000 0.000000
# 5 0.000000 0.000000 0.000000 0.000000 0.292932 0.000000
# 6 0.000000 0.000000 0.000000 0.000000 0.000000 0.074006
#
#
# Mechanical properties :
#
#
# Convention : Reuss Voigt Hill
#
# Bulk Modulus (GPa) = 33.39479 37.18003 35.28741
# Shear Modulus (GPa) = 6.87318 17.06657 11.96987
#
# Velocity S-wave (km/s) = 1.92198 3.02861 2.53638
# Velocity P-wave (km/s) = 4.78262 5.67560 5.24814
#
# Compressibility (1/GPa) = 0.02994479
#
# Stress axis : x y z
#
# Youngs Moduli (GPa) = 89.43076 89.43076 46.69513
#
# Poissons Ratio (x) = 0.17548 0.11569
# Poissons Ratio (y) = 0.17548 0.11569
# Poissons Ratio (z) = 0.22156 0.22156
#
# Static dielectric constant tensor:
#      x y z
#    x 1.660800 0.000000 0.000000 
#    y 0.000000 1.660800 0.000000 
#    z 0.000000 0.000000 1.648310 
# 
# From -- ./inp_files/5606.got.cif
#   From: 2010.05.17/outbox.cif.g08.bks.cpg/sg123_3_cif.got.tgz:5606.got - 2010.05.20 11:43:04.
