data_PCOD9561596
_publ_section_title
;
Structure prediction by ZEFSAII (Michael W. Deem and Ramdas Pophale) SiO2 
 PCOD9561596
Probable space group: P 4/M M M
;
_chemical_formula_sum "Si O2"
_cell_formula_units_Z 96
_cell_length_a 20.466845
_cell_length_b 20.466845
_cell_length_c 18.273531
_cell_angle_alpha 90.000000
_cell_angle_beta 90.000000
_cell_angle_gamma 90.000000
_cell_volume 7654.631274
_symmetry_space_group_name_H-M "P 4/M M M"
_symmetry_group_IT_number 123
_symmetry_cell_setting 'tetragonal'
loop_
_space_group_symop_operation_xyz
x,y,z
-y,x,z
-x,-y,z
y,-x,z
x,-y,-z
-x,y,-z
y,x,-z
-y,-x,-z
-x,-y,-z
y,-x,-z
x,y,-z
-y,x,-z
-x,y,z
x,-y,z
-y,-x,z
y,x,z
loop_
_atom_site_type_symbol
_atom_site_label
_atom_site_fract_x
_atom_site_fract_y
_atom_site_fract_z
Si Si1 0.816762 0.922627 0.000000
Si Si2 0.078536 0.573291 0.348037
Si Si3 0.923218 0.182772 0.697450
Si Si4 0.868843 0.763291 0.847404
Si Si5 0.078509 0.622857 0.817597
Si Si6 0.705993 0.079516 0.418071
Si Si7 0.500000 0.079036 0.917460
O O1 0.780481 0.898804 0.073527
O O2 0.886605 0.886605 0.000000
O O3 0.822051 0.000000 0.000000
O O4 0.104164 0.500000 0.361218
O O5 0.088272 0.595288 0.264101
O O6 0.102543 0.632965 0.397918
O O7 0.000000 0.569998 0.358376
O O8 0.880547 0.119454 0.680167
O O9 0.908796 0.202908 0.781168
O O10 0.901992 0.242152 0.644230
O O11 0.000000 0.171905 0.687482
O O12 0.797021 0.797021 0.844790
O O13 0.878742 0.686749 0.832957
O O14 0.096077 0.565208 0.873434
O O15 0.000000 0.638335 0.824498
O O16 0.724679 0.099882 0.500000
O O17 0.704410 0.000000 0.416939
O O18 0.500000 0.000000 0.919967
O O19 0.500000 0.104147 0.000000
#
# Coordination Sequence:
#
# PCOD9561596 Si02
#       7
#     8  16  16  16  16  16   8
#     4  10  20  31  42  57  73  93 127 167 208 250
#     4   9  15  24  39  58  78  99 120 145 183 232
#     4  10  19  31  45  58  74  97 129 170 214 256
#     4  10  20  31  43  59  77 102 135 165 199 244
#     4  10  16  26  42  57  79 105 128 160 197 232
#     4   9  17  28  41  57  76  97 121 152 194 242
#     4   9  18  26  36  62  85 101 127 156 193 239
#
# _framework density 12.541427000000001
#
# number of rings (size 3 to 8) (size 9 to 14) (size 15 to 20)
#    0.000    2.417    2.500    1.500    1.167    0.917 
#    0.000    1.667    0.000    3.000    0.000    2.333 
#    0.000    0.000    0.000    0.000    0.000    0.417 
#
# Total GULP energy -534478.750882 kJ/mol
# GULP energy per Si atom -5567.486988 kJ/mol
# Density = 1.251288 g / cm^3
# Si number density = 12.541427 Si / 1000 Ang^3
#
#
#
# Elastic Constant Matrix: (Units=GPa)
#
#
# Indices 1 2 3 4 5 6 
#
# 1 59.5294 31.3262 16.4432 0.0000 0.0000 0.0000
# 2 31.3262 59.5294 16.4432 0.0000 0.0000 0.0000
# 3 16.4432 16.4432 71.2900 0.0000 0.0000 0.0000
# 4 0.0000 0.0000 0.0000 8.7152 0.0000 0.0000
# 5 0.0000 0.0000 0.0000 0.0000 8.7152 0.0000
# 6 0.0000 0.0000 0.0000 0.0000 0.0000 7.5314
#
#
#
# Elastic Compliance Matrix: (Units=1/GPa)
#
#
# Indices 1 2 3 4 5 6 
#
# 1 0.023733 -0.011724 -0.002770 0.000000 0.000000 0.000000
# 2 -0.011724 0.023733 -0.002770 0.000000 0.000000 0.000000
# 3 -0.002770 -0.002770 0.015305 0.000000 0.000000 0.000000
# 4 0.000000 0.000000 0.000000 0.114742 0.000000 0.000000
# 5 0.000000 0.000000 0.000000 0.000000 0.114742 0.000000
# 6 0.000000 0.000000 0.000000 0.000000 0.000000 0.132778
#
#
# Mechanical properties :
#
#
# Convention : Reuss Voigt Hill
#
# Bulk Modulus (GPa) = 35.40638 35.41931 35.41285
# Shear Modulus (GPa) = 10.66156 13.40145 12.03151
#
# Velocity S-wave (km/s) = 2.91882 3.27245 3.10068
# Velocity P-wave (km/s) = 6.29700 6.52547 6.41225
#
# Compressibility (1/GPa) = 0.02824349
#
# Stress axis : x y z
#
# Youngs Moduli (GPa) = 42.13539 42.13539 65.33818
#
# Poissons Ratio (x) = 0.49399 0.18098
# Poissons Ratio (y) = 0.49399 0.18098
# Poissons Ratio (z) = 0.11671 0.11671
#
# Static dielectric constant tensor:
#      x y z
#    x 1.396570 0.000000 0.000000 
#    y 0.000000 1.396570 0.000000 
#    z 0.000000 0.000000 1.428520 
# 
# From -- ./inp_files/5822.got.cif
#   From: 2010.05.17/outbox.cif.g08.bks.cpg/sg123_3_cif.got.tgz:5822.got - 2010.05.20 11:43:04.
