data_PCOD9561549
_publ_section_title
;
Structure prediction by ZEFSAII (Michael W. Deem and Ramdas Pophale) SiO2 
 PCOD9561549
Probable space group: I -4 2 D
;
_chemical_formula_sum "Si O2"
_cell_formula_units_Z 56
_cell_length_a 15.794291
_cell_length_b 15.794291
_cell_length_c 9.782686
_cell_angle_alpha 90.000000
_cell_angle_beta 90.000000
_cell_angle_gamma 90.000000
_cell_volume 2440.385212
_symmetry_space_group_name_H-M "I -4 2 D"
_symmetry_group_IT_number 122
_symmetry_cell_setting 'tetragonal'
loop_
_space_group_symop_operation_xyz
x,y,z
y,-x,-z
-x,-y,z
-y,x,-z
x,1/2-y,1/4-z
-x,1/2+y,1/4-z
-y,1/2-x,1/4+z
y,1/2+x,1/4+z
1/2+x,1/2+y,1/2+z
1/2+y,1/2-x,1/2-z
1/2-x,1/2-y,1/2+z
1/2-y,1/2+x,1/2-z
1/2+x,-y,3/4-z
1/2-x,y,3/4-z
1/2-y,-x,3/4+z
1/2+y,x,3/4+z
loop_
_atom_site_type_symbol
_atom_site_label
_atom_site_fract_x
_atom_site_fract_y
_atom_site_fract_z
Si Si1 0.315235 0.250000 0.625000
Si Si2 0.891078 0.306361 0.995496
Si Si3 0.353214 0.923311 0.097684
Si Si4 0.471014 0.158208 0.096345
O O1 0.253847 0.326098 0.582176
O O2 0.368558 0.209898 0.497974
O O3 0.846530 0.397899 0.017561
O O4 0.979709 0.329756 0.927813
O O5 0.913209 0.250000 0.125000
O O6 0.451196 0.902474 0.062425
O O7 0.354908 0.917663 0.262963
O O8 0.510257 0.250000 0.125000
#
# Coordination Sequence:
#
# PCOD9561549 Si02
#       4
#     8  16  16  16
#     4  12  28  48  76 108 156 202 258 320 396 466
#     4  12  26  48  74 110 153 200 257 320 393 462
#     4  12  26  47  74 112 150 200 259 323 384 463
#     4  12  25  45  80 109 148 204 260 320 383 464
#
# _framework density 22.947196000000002
#
# number of rings (size 3 to 8) (size 9 to 14) (size 15 to 20)
#    0.000    0.000    5.714    4.286    0.000    0.000 
#    0.000    0.000    0.000    0.000    0.000    0.000 
#    0.000    0.000    0.000    0.000    0.000    0.000 
#
# Total GULP energy -156363.685673 kJ/mol
# GULP energy per Si atom -5584.417345 kJ/mol
# Density = 2.289497 g / cm^3
# Si number density = 22.947196 Si / 1000 Ang^3
#
#
#
# Elastic Constant Matrix: (Units=GPa)
#
#
# Indices 1 2 3 4 5 6 
#
# 1 171.8259 60.4032 52.6762 0.0000 0.0000 0.0000
# 2 60.4032 171.8259 52.6762 0.0000 0.0000 0.0000
# 3 52.6762 52.6762 80.9441 0.0000 0.0000 0.0000
# 4 0.0000 0.0000 0.0000 35.5303 0.0000 0.0000
# 5 0.0000 0.0000 0.0000 0.0000 35.5303 0.0000
# 6 0.0000 0.0000 0.0000 0.0000 0.0000 80.7439
#
#
#
# Elastic Compliance Matrix: (Units=1/GPa)
#
#
# Indices 1 2 3 4 5 6 
#
# 1 0.007542 -0.001432 -0.003976 0.000000 0.000000 0.000000
# 2 -0.001432 0.007542 -0.003976 0.000000 0.000000 0.000000
# 3 -0.003976 -0.003976 0.017529 0.000000 0.000000 0.000000
# 4 0.000000 0.000000 0.000000 0.028145 0.000000 0.000000
# 5 0.000000 0.000000 0.000000 0.000000 0.028145 0.000000
# 6 0.000000 0.000000 0.000000 0.000000 0.000000 0.012385
#
#
# Mechanical properties :
#
#
# Convention : Reuss Voigt Hill
#
# Bulk Modulus (GPa) = 72.23066 84.01188 78.12127
# Shear Modulus (GPa) = 40.10483 47.61693 43.86088
#
# Velocity S-wave (km/s) = 4.18509 4.56023 4.37668
# Velocity P-wave (km/s) = 7.40935 8.02608 7.72388
#
# Compressibility (1/GPa) = 0.01384454
#
# Stress axis : x y z
#
# Youngs Moduli (GPa) = 132.58439 132.58439 57.04717
#
# Poissons Ratio (x) = 0.18992 0.22683
# Poissons Ratio (y) = 0.18992 0.22683
# Poissons Ratio (z) = 0.52718 0.52718
#
# Static dielectric constant tensor:
#      x y z
#    x 1.867000 0.000000 0.000000 
#    y 0.000000 1.867000 0.000000 
#    z 0.000000 0.000000 1.198570 
# 
# From -- ./inp_files/3928.got.cif
#   From: 2010.05.17/outbox.cif.g08.bks.cpg/sg122_2_cif.got.tgz:3928.got - 2010.05.20 11:37:33.
