data_PCOD9561218
_publ_section_title
;
Structure prediction by ZEFSAII (Michael W. Deem and Ramdas Pophale) SiO2 
 PCOD9561218
Probable space group: I -4 2 D
;
_chemical_formula_sum "Si O2"
_cell_formula_units_Z 48
_cell_length_a 19.982516
_cell_length_b 19.982516
_cell_length_c 5.159326
_cell_angle_alpha 90.000000
_cell_angle_beta 90.000000
_cell_angle_gamma 90.000000
_cell_volume 2060.123751
_symmetry_space_group_name_H-M "I -4 2 D"
_symmetry_group_IT_number 122
_symmetry_cell_setting 'tetragonal'
loop_
_space_group_symop_operation_xyz
x,y,z
y,-x,-z
-x,-y,z
-y,x,-z
x,1/2-y,1/4-z
-x,1/2+y,1/4-z
-y,1/2-x,1/4+z
y,1/2+x,1/4+z
1/2+x,1/2+y,1/2+z
1/2+y,1/2-x,1/2-z
1/2-x,1/2-y,1/2+z
1/2-y,1/2+x,1/2-z
1/2+x,-y,3/4-z
1/2-x,y,3/4-z
1/2-y,-x,3/4+z
1/2+y,x,3/4+z
loop_
_atom_site_type_symbol
_atom_site_label
_atom_site_fract_x
_atom_site_fract_y
_atom_site_fract_z
Si Si1 0.675814 0.801089 0.424302
Si Si2 0.076466 0.124138 0.646987
Si Si3 0.565420 0.370476 0.343941
O O1 0.641554 0.750000 0.625000
O O2 0.750000 0.775949 0.375000
O O3 0.631926 0.820005 0.173319
O O4 0.682135 0.874374 0.559138
O O5 0.073244 0.086164 0.370523
O O6 0.007338 0.152715 0.756316
O O7 0.102344 0.073827 0.867898
#
# Coordination Sequence:
#
# PCOD9561218 Si02
#       3
#    16  16  16
#     4  10  26  46  73 104 148 201 257 312 384 461
#     4  10  23  43  71 109 143 195 244 316 377 454
#     4  10  23  43  69 109 147 188 251 308 382 455
#
# _framework density 23.299572999999999
#
# number of rings (size 3 to 8) (size 9 to 14) (size 15 to 20)
#    2.000    0.000    0.000    2.000    4.667    4.000 
#    6.000    0.000    0.000    0.000    0.000    0.000 
#    0.000    0.000    0.000    0.000    0.000    0.000 
#
# Total GULP energy -133678.364868 kJ/mol
# GULP energy per Si atom -5569.931870 kJ/mol
# Density = 2.324654 g / cm^3
# Si number density = 23.299573 Si / 1000 Ang^3
#
#
#
# Elastic Constant Matrix: (Units=GPa)
#
#
# Indices 1 2 3 4 5 6 
#
# 1 72.6553 38.8971 49.9275 0.0000 0.0000 0.0000
# 2 38.8971 72.6553 49.9275 0.0000 0.0000 0.0000
# 3 49.9275 49.9275 178.5841 0.0000 0.0000 0.0000
# 4 0.0000 0.0000 0.0000 39.2450 0.0000 0.0000
# 5 0.0000 0.0000 0.0000 0.0000 39.2450 0.0000
# 6 0.0000 0.0000 0.0000 0.0000 0.0000 -1.8083
#
#
#
# Elastic Compliance Matrix: (Units=1/GPa)
#
#
# Indices 1 2 3 4 5 6 
#
# 1 0.020790 -0.008833 -0.003343 0.000000 0.000000 0.000000
# 2 -0.008833 0.020790 -0.003343 0.000000 0.000000 0.000000
# 3 -0.003343 -0.003343 0.007469 0.000000 0.000000 0.000000
# 4 0.000000 0.000000 0.000000 0.025481 0.000000 0.000000
# 5 0.000000 0.000000 0.000000 0.000000 0.025481 0.000000
# 6 0.000000 0.000000 0.000000 0.000000 0.000000 -0.552998
#
#
# Mechanical properties :
#
#
# Convention : Reuss Voigt Hill
#
# Bulk Modulus (GPa) = 55.52189 66.82210 61.17199
# Shear Modulus (GPa) = -12.02072 27.67917 7.82922
#
# Velocity S-wave (km/s) = -2.27385 3.45043 1.83508
# Velocity P-wave (km/s) = 4.12158 6.67950 5.54992
#
# Compressibility (1/GPa) = 0.01801092
#
# Stress axis : x y z
#
# Youngs Moduli (GPa) = 48.10114 48.10114 133.89201
#
# Poissons Ratio (x) = 0.42487 0.44757
# Poissons Ratio (y) = 0.42487 0.44757
# Poissons Ratio (z) = 0.16079 0.16079
#
# Static dielectric constant tensor:
#      x y z
#    x 1.902880 0.000000 0.000000 
#    y 0.000000 1.902880 0.000000 
#    z 0.000000 0.000000 1.961730 
# 
# From -- ./inp_files/705.got.cif
#   From: 2010.05.17/outbox.cif.g08.bks.cpg/sg122_1_cif.got.tgz:705.got - 2010.05.20 11:37:33.
