data_PCOD9561932
_publ_section_title
;
Structure prediction by ZEFSAII (Michael W. Deem and Ramdas Pophale) SiO2 
 PCOD9561932
Probable space group: P 4/M M M
;
_chemical_formula_sum "Si O2"
_cell_formula_units_Z 68
_cell_length_a 13.013357
_cell_length_b 13.013357
_cell_length_c 24.123282
_cell_angle_alpha 90.000000
_cell_angle_beta 90.000000
_cell_angle_gamma 90.000000
_cell_volume 4085.216543
_symmetry_space_group_name_H-M "P 4/M M M"
_symmetry_group_IT_number 123
_symmetry_cell_setting 'tetragonal'
loop_
_space_group_symop_operation_xyz
x,y,z
-y,x,z
-x,-y,z
y,-x,z
x,-y,-z
-x,y,-z
y,x,-z
-y,-x,-z
-x,-y,-z
y,-x,-z
x,y,-z
-y,x,-z
-x,y,z
x,-y,z
-y,-x,z
y,x,z
loop_
_atom_site_type_symbol
_atom_site_label
_atom_site_fract_x
_atom_site_fract_y
_atom_site_fract_z
Si Si1 0.260489 0.260489 0.937320
Si Si2 0.378684 0.116906 0.858329
Si Si3 0.000000 0.375419 0.563628
Si Si4 0.207904 0.620944 0.628819
Si Si5 0.880117 0.880117 0.000000
Si Si6 0.714103 0.121077 0.263241
O O1 0.346822 0.202811 0.902418
O O2 0.291656 0.291656 0.000000
O O3 0.173555 0.173555 0.947955
O O4 0.500000 0.119795 0.848858
O O5 0.323255 0.135163 0.799748
O O6 0.352577 0.000000 0.877250
O O7 0.106005 0.346327 0.594299
O O8 0.000000 0.500000 0.564114
O O9 0.000000 0.340450 0.500000
O O10 0.228864 0.500000 0.618677
O O11 0.304288 0.695713 0.616681
O O12 0.175527 0.638751 0.692876
O O13 0.000000 0.860504 0.000000
O O14 0.823369 0.176632 0.270118
O O15 0.717184 0.000000 0.274623
#
# Coordination Sequence:
#
# PCOD9561932 Si02
#       6
#     8  16   8  16   4  16
#     4  10  21  34  50  73 104 134 170 215 259 314
#     4  10  20  34  54  78 103 134 172 217 265 317
#     4   9  18  34  56  81 111 149 192 229 265 320
#     4  10  20  34  55  83 114 149 187 232 281 328
#     4   9  18  32  50  70 100 135 162 200 258 321
#     4  10  19  33  54  81 112 143 177 220 271 327
#
# _framework density 16.645385000000001
#
# number of rings (size 3 to 8) (size 9 to 14) (size 15 to 20)
#    0.353    1.824    2.353    1.412    0.000    2.353 
#    0.000    1.176    0.000    0.706    0.000    4.941 
#    0.000    0.000    0.000    0.000    0.000    0.000 
#
# Total GULP energy -378736.211821 kJ/mol
# GULP energy per Si atom -5569.650174 kJ/mol
# Density = 1.660750 g / cm^3
# Si number density = 16.645385 Si / 1000 Ang^3
#
#
#
# Elastic Constant Matrix: (Units=GPa)
#
#
# Indices 1 2 3 4 5 6 
#
# 1 71.4184 52.9181 20.8044 0.0000 0.0000 0.0000
# 2 52.9181 71.4184 20.8044 0.0000 0.0000 0.0000
# 3 20.8044 20.8044 69.2525 0.0000 0.0000 0.0000
# 4 0.0000 0.0000 0.0000 20.8733 0.0000 0.0000
# 5 0.0000 0.0000 0.0000 0.0000 20.8733 0.0000
# 6 0.0000 0.0000 0.0000 0.0000 0.0000 24.1352
#
#
#
# Elastic Compliance Matrix: (Units=1/GPa)
#
#
# Indices 1 2 3 4 5 6 
#
# 1 0.031497 -0.022556 -0.002686 0.000000 0.000000 0.000000
# 2 -0.022556 0.031497 -0.002686 0.000000 0.000000 0.000000
# 3 -0.002686 -0.002686 0.016054 0.000000 0.000000 0.000000
# 4 0.000000 0.000000 0.000000 0.047908 0.000000 0.000000
# 5 0.000000 0.000000 0.000000 0.000000 0.047908 0.000000
# 6 0.000000 0.000000 0.000000 0.000000 0.000000 0.041433
#
#
# Mechanical properties :
#
#
# Convention : Reuss Voigt Hill
#
# Bulk Modulus (GPa) = 43.11769 44.57146 43.84458
# Shear Modulus (GPa) = 17.86447 21.01384 19.43916
#
# Velocity S-wave (km/s) = 3.27959 3.55694 3.42108
# Velocity P-wave (km/s) = 6.34829 6.61092 6.48094
#
# Compressibility (1/GPa) = 0.02319234
#
# Stress axis : x y z
#
# Youngs Moduli (GPa) = 31.74868 31.74868 62.29037
#
# Poissons Ratio (x) = 0.71612 0.16732
# Poissons Ratio (y) = 0.71612 0.16732
# Poissons Ratio (z) = 0.08528 0.08528
#
# Static dielectric constant tensor:
#      x y z
#    x 1.545430 0.000000 0.000000 
#    y 0.000000 1.545430 0.000000 
#    z 0.000000 0.000000 1.583500 
# 
# From -- ./inp_files/7934.got.cif
#   From: 2010.05.17/outbox.cif.g08.bks.cpg/sg123_4_cif.got.tgz:7934.got - 2010.05.20 11:43:04.
