data_PCOD9561102
_publ_section_title
;
Structure prediction by ZEFSAII (Michael W. Deem and Ramdas Pophale) SiO2 
 PCOD9561102
Probable space group: I -4 2 D
;
_chemical_formula_sum "Si O2"
_cell_formula_units_Z 72
_cell_length_a 16.645140
_cell_length_b 16.645140
_cell_length_c 12.004410
_cell_angle_alpha 90.000000
_cell_angle_beta 90.000000
_cell_angle_gamma 90.000000
_cell_volume 3325.950065
_symmetry_space_group_name_H-M "I -4 2 D"
_symmetry_group_IT_number 122
_symmetry_cell_setting 'tetragonal'
loop_
_space_group_symop_operation_xyz
x,y,z
y,-x,-z
-x,-y,z
-y,x,-z
x,1/2-y,1/4-z
-x,1/2+y,1/4-z
-y,1/2-x,1/4+z
y,1/2+x,1/4+z
1/2+x,1/2+y,1/2+z
1/2+y,1/2-x,1/2-z
1/2-x,1/2-y,1/2+z
1/2-y,1/2+x,1/2-z
1/2+x,-y,3/4-z
1/2-x,y,3/4-z
1/2-y,-x,3/4+z
1/2+y,x,3/4+z
loop_
_atom_site_type_symbol
_atom_site_label
_atom_site_fract_x
_atom_site_fract_y
_atom_site_fract_z
Si Si1 0.943104 0.886920 0.840642
Si Si2 0.827800 0.192982 0.318836
Si Si3 0.334788 0.115288 0.528079
Si Si4 0.170213 0.521253 0.326870
Si Si5 0.279283 0.750000 0.125000
O O1 0.874242 0.872727 0.750071
O O2 0.026776 0.873057 0.776415
O O3 0.908999 0.967370 0.900527
O O4 0.955401 0.828055 0.947160
O O5 0.750000 0.151845 0.375000
O O6 0.876927 0.249765 0.403777
O O7 0.781052 0.246947 0.228448
O O8 0.398777 0.162919 0.601322
O O9 0.320691 0.159192 0.410274
O O10 0.250000 0.478447 0.375000
#
# Coordination Sequence:
#
# PCOD9561102 Si02
#       5
#    16  16  16  16   8
#     4  12  24  38  63  97 134 166 213 272 342 388
#     4  10  22  41  65  94 126 171 222 268 324 406
#     4  11  23  41  65  95 132 171 221 277 330 394
#     4  12  24  40  64  96 131 172 215 272 334 394
#     4  10  22  40  64  90 122 168 226 260 320 394
#
# _framework density 21.647950000000002
#
# number of rings (size 3 to 8) (size 9 to 14) (size 15 to 20)
#    0.000    0.889    2.222    6.667    3.111    0.000 
#    0.000    0.000    0.000    0.000    0.000    0.000 
#    0.000    0.000    0.000    0.000    0.000    0.000 
#
# Total GULP energy -200553.582240 kJ/mol
# GULP energy per Si atom -5570.932840 kJ/mol
# Density = 2.159868 g / cm^3
# Si number density = 21.647950 Si / 1000 Ang^3
#
#
#
# Elastic Constant Matrix: (Units=GPa)
#
#
# Indices 1 2 3 4 5 6 
#
# 1 89.6906 22.8576 3.4585 0.0000 0.0000 0.0000
# 2 22.8576 89.6906 3.4585 0.0000 0.0000 0.0000
# 3 3.4585 3.4585 41.5583 0.0000 0.0000 0.0000
# 4 0.0000 0.0000 0.0000 33.1794 0.0000 0.0000
# 5 0.0000 0.0000 0.0000 0.0000 33.1794 0.0000
# 6 0.0000 0.0000 0.0000 0.0000 0.0000 28.5434
#
#
#
# Elastic Compliance Matrix: (Units=1/GPa)
#
#
# Indices 1 2 3 4 5 6 
#
# 1 0.011947 -0.003016 -0.000743 0.000000 0.000000 0.000000
# 2 -0.003016 0.011947 -0.000743 0.000000 0.000000 0.000000
# 3 -0.000743 -0.000743 0.024186 0.000000 0.000000 0.000000
# 4 0.000000 0.000000 0.000000 0.030139 0.000000 0.000000
# 5 0.000000 0.000000 0.000000 0.000000 0.030139 0.000000
# 6 0.000000 0.000000 0.000000 0.000000 0.000000 0.035034
#
#
# Mechanical properties :
#
#
# Convention : Reuss Voigt Hill
#
# Bulk Modulus (GPa) = 25.59187 31.16543 28.37865
# Shear Modulus (GPa) = 30.22569 31.72477 30.97523
#
# Velocity S-wave (km/s) = 3.74068 3.83232 3.78678
# Velocity P-wave (km/s) = 5.52308 5.83181 5.67954
#
# Compressibility (1/GPa) = 0.03907491
#
# Stress axis : x y z
#
# Youngs Moduli (GPa) = 83.70503 83.70503 41.34572
#
# Poissons Ratio (x) = 0.25245 0.03073
# Poissons Ratio (y) = 0.25245 0.03073
# Poissons Ratio (z) = 0.06221 0.06221
#
# Static dielectric constant tensor:
#      x y z
#    x 1.847870 0.000000 0.000000 
#    y 0.000000 1.847870 0.000000 
#    z 0.000000 0.000000 1.857180 
# 
# From -- ./inp_files/4195.got.cif
#   From: 2010.05.17/outbox.cif.g08.bks.cpg/sg122_3_cif.got.tgz:4195.got - 2010.05.20 11:37:33.
