data_PCOD9561943
_publ_section_title
;
Structure prediction by ZEFSAII (Michael W. Deem and Ramdas Pophale) SiO2 
 PCOD9561943
Probable space group: P 4/M M M
;
_chemical_formula_sum "Si O2"
_cell_formula_units_Z 88
_cell_length_a 17.837527
_cell_length_b 17.837527
_cell_length_c 14.623997
_cell_angle_alpha 90.000000
_cell_angle_beta 90.000000
_cell_angle_gamma 90.000000
_cell_volume 4653.024897
_symmetry_space_group_name_H-M "P 4/M M M"
_symmetry_group_IT_number 123
_symmetry_cell_setting 'tetragonal'
loop_
_space_group_symop_operation_xyz
x,y,z
-y,x,z
-x,-y,z
y,-x,z
x,-y,-z
-x,y,-z
y,x,-z
-y,-x,-z
-x,-y,-z
y,-x,-z
x,y,-z
-y,x,-z
-x,y,z
x,-y,z
-y,-x,z
y,x,z
loop_
_atom_site_type_symbol
_atom_site_label
_atom_site_fract_x
_atom_site_fract_y
_atom_site_fract_z
Si Si1 0.207947 0.914102 0.111488
Si Si2 0.708358 0.411718 0.748668
Si Si3 0.200545 0.329454 0.895305
Si Si4 0.913858 0.205190 0.388736
Si Si5 0.500000 0.916526 0.610684
Si Si6 0.646639 0.821970 0.390266
O O1 0.138813 0.861188 0.140931
O O2 0.285951 0.873849 0.137628
O O3 0.201719 0.000000 0.140817
O O4 0.207358 0.913074 0.000000
O O5 0.700060 0.500000 0.735313
O O6 0.630528 0.369473 0.769198
O O7 0.766889 0.392744 0.829898
O O8 0.745630 0.371608 0.661178
O O9 0.263771 0.263771 0.895534
O O10 0.190530 0.354509 0.000000
O O11 0.915775 0.206320 0.500000
O O12 0.870074 0.129927 0.361249
O O13 0.862996 0.276524 0.362329
O O14 0.000000 0.210032 0.357945
O O15 0.500000 0.920297 0.500000
O O16 0.424163 0.873978 0.634665
O O17 0.500000 0.000000 0.647951
O O18 0.648931 0.811963 0.500000
#
# Coordination Sequence:
#
# PCOD9561943 Si02
#       6
#    16  16  16  16   8  16
#     4   8  13  23  43  72 106 144 182 219 261 307
#     4  11  23  38  58  82 106 133 169 211 263 326
#     4   8  16  33  55  76 100 135 178 219 259 309
#     4   9  17  29  47  72 103 141 182 223 267 310
#     4   9  16  28  50  76 104 138 172 217 268 300
#     4  10  19  34  54  79 109 141 179 217 256 307
#
# _framework density 18.912428999999999
#
# number of rings (size 3 to 8) (size 9 to 14) (size 15 to 20)
#    0.000    2.818    0.909    2.182    0.000    4.182 
#    0.000    3.636    0.000    0.000    0.000    6.364 
#    0.000    4.364    0.000    0.364    0.000    0.000 
#
# Total GULP energy -490784.356480 kJ/mol
# GULP energy per Si atom -5577.094960 kJ/mol
# Density = 1.886938 g / cm^3
# Si number density = 18.912429 Si / 1000 Ang^3
#
#
#
# Elastic Constant Matrix: (Units=GPa)
#
#
# Indices 1 2 3 4 5 6 
#
# 1 65.8844 127.7255 22.5558 0.0000 0.0000 0.0000
# 2 127.7255 65.8844 22.5558 0.0000 0.0000 0.0000
# 3 22.5558 22.5558 68.8629 0.0000 0.0000 0.0000
# 4 0.0000 0.0000 0.0000 -5.4141 0.0000 0.0000
# 5 0.0000 0.0000 0.0000 0.0000 -5.4141 0.0000
# 6 0.0000 0.0000 0.0000 0.0000 0.0000 18.6819
#
#
#
# Elastic Compliance Matrix: (Units=1/GPa)
#
#
# Indices 1 2 3 4 5 6 
#
# 1 -0.005289 0.010881 -0.001832 0.000000 0.000000 0.000000
# 2 0.010881 -0.005289 -0.001832 0.000000 0.000000 0.000000
# 3 -0.001832 -0.001832 0.015721 0.000000 0.000000 0.000000
# 4 0.000000 0.000000 0.000000 -0.184704 0.000000 0.000000
# 5 0.000000 0.000000 0.000000 0.000000 -0.184704 0.000000
# 6 0.000000 0.000000 0.000000 0.000000 0.000000 0.053528
#
#
# Mechanical properties :
#
#
# Convention : Reuss Voigt Hill
#
# Bulk Modulus (GPa) = 51.07576 60.70065 55.88820
# Shear Modulus (GPa) = -15.69137 3.42373 -6.13382
#
# Velocity S-wave (km/s) = -2.88355 1.34694 -1.80286
# Velocity P-wave (km/s) = 3.99732 5.88084 5.02807
#
# Compressibility (1/GPa) = 0.01957876
#
# Stress axis : x y z
#
# Youngs Moduli (GPa) = -189.05931 -189.05931 63.60734
#
# Poissons Ratio (x) = 2.05718 0.11650
# Poissons Ratio (y) = 2.05718 0.11650
# Poissons Ratio (z) = -0.34627 -0.34627
#
# Static dielectric constant tensor:
#      x y z
#    x 1.683870 0.000000 0.000000 
#    y 0.000000 1.683870 0.000000 
#    z 0.000000 0.000000 1.716100 
# 
# From -- ./inp_files/4098.got.cif
#   From: 2010.05.17/outbox.cif.g08.bks.cpg/sg123_3_cif.got.tgz:4098.got - 2010.05.20 11:43:04.
