data_PCOD9561819
_publ_section_title
;
Structure prediction by ZEFSAII (Michael W. Deem and Ramdas Pophale) SiO2 
 PCOD9561819
Probable space group: P 4/M M M
;
_chemical_formula_sum "Si O2"
_cell_formula_units_Z 96
_cell_length_a 25.114144
_cell_length_b 25.114144
_cell_length_c 7.544788
_cell_angle_alpha 90.000000
_cell_angle_beta 90.000000
_cell_angle_gamma 90.000000
_cell_volume 4758.650414
_symmetry_space_group_name_H-M "P 4/M M M"
_symmetry_group_IT_number 123
_symmetry_cell_setting 'tetragonal'
loop_
_space_group_symop_operation_xyz
x,y,z
-y,x,z
-x,-y,z
y,-x,z
x,-y,-z
-x,y,-z
y,x,-z
-y,-x,-z
-x,-y,-z
y,-x,-z
x,y,-z
-y,x,-z
-x,y,z
x,-y,z
-y,-x,z
y,x,z
loop_
_atom_site_type_symbol
_atom_site_label
_atom_site_fract_x
_atom_site_fract_y
_atom_site_fract_z
Si Si1 0.059664 0.732717 0.289218
Si Si2 0.352961 0.142859 0.286898
Si Si3 0.144198 0.940446 0.213872
Si Si4 0.352550 0.732105 0.211767
Si Si5 0.438712 0.059080 0.716032
Si Si6 0.561078 0.352307 0.216356
O O1 0.056705 0.722909 0.500000
O O2 0.108103 0.697144 0.220582
O O3 0.070451 0.794856 0.261662
O O4 0.000000 0.721201 0.217606
O O5 0.353071 0.140358 0.500000
O O6 0.352508 0.205196 0.246183
O O7 0.403674 0.108648 0.223508
O O8 0.103707 0.896294 0.281016
O O9 0.130866 0.000000 0.276534
O O10 0.141229 0.940856 0.000000
O O11 0.300554 0.699447 0.277516
O O12 0.404652 0.699348 0.274375
O O13 0.352759 0.726699 0.000000
O O14 0.438011 0.059272 0.500000
O O15 0.500000 0.063677 0.771143
O O16 0.418695 0.000000 0.769046
O O17 0.500000 0.352715 0.277099
O O18 0.595982 0.404019 0.267758
O O19 0.559859 0.351914 0.000000
#
# Coordination Sequence:
#
# PCOD9561819 Si02
#       6
#    16  16  16  16  16  16
#     4   9  18  32  48  66  90 118 147 185 232 273
#     4  10  19  30  48  72  92 115 154 196 227 262
#     4   9  18  32  49  69  92 117 146 181 222 270
#     4   9  19  34  47  62  91 128 157 182 222 275
#     4   8  14  26  45  69  96 122 147 181 227 274
#     4   8  14  26  45  68  93 121 153 189 228 269
#
# _framework density 20.173786
#
# number of rings (size 3 to 8) (size 9 to 14) (size 15 to 20)
#    0.000    3.167    0.000    2.000    0.000    5.000 
#    0.000    5.000    0.000    1.500    0.000    3.500 
#    0.000    0.000    0.000    3.667    0.000    3.667 
#
# Total GULP energy -535196.686232 kJ/mol
# GULP energy per Si atom -5574.965482 kJ/mol
# Density = 2.012787 g / cm^3
# Si number density = 20.173786 Si / 1000 Ang^3
#
#
#
# Elastic Constant Matrix: (Units=GPa)
#
#
# Indices 1 2 3 4 5 6 
#
# 1 198.3458 139.6205 5.0151 0.0000 0.0000 0.0000
# 2 139.6205 198.3458 5.0151 0.0000 0.0000 0.0000
# 3 5.0151 5.0151 47.0485 0.0000 0.0000 0.0000
# 4 0.0000 0.0000 0.0000 15.9450 0.0000 0.0000
# 5 0.0000 0.0000 0.0000 0.0000 15.9450 0.0000
# 6 0.0000 0.0000 0.0000 0.0000 0.0000 24.1090
#
#
#
# Elastic Compliance Matrix: (Units=1/GPa)
#
#
# Indices 1 2 3 4 5 6 
#
# 1 0.009998 -0.007030 -0.000316 0.000000 0.000000 0.000000
# 2 -0.007030 0.009998 -0.000316 0.000000 0.000000 0.000000
# 3 -0.000316 -0.000316 0.021322 0.000000 0.000000 0.000000
# 4 0.000000 0.000000 0.000000 0.062716 0.000000 0.000000
# 5 0.000000 0.000000 0.000000 0.000000 0.062716 0.000000
# 6 0.000000 0.000000 0.000000 0.000000 0.000000 0.041478
#
#
# Mechanical properties :
#
#
# Convention : Reuss Voigt Hill
#
# Bulk Modulus (GPa) = 38.47183 82.56019 60.51601
# Shear Modulus (GPa) = 21.53143 30.80574 26.16858
#
# Velocity S-wave (km/s) = 3.27050 3.91195 3.60551
# Velocity P-wave (km/s) = 5.77695 7.83695 6.88444
#
# Compressibility (1/GPa) = 0.02599304
#
# Stress axis : x y z
#
# Youngs Moduli (GPa) = 100.01644 100.01644 46.89964
#
# Poissons Ratio (x) = 0.70312 0.01484
# Poissons Ratio (y) = 0.70312 0.01484
# Poissons Ratio (z) = 0.03165 0.03165
#
# Static dielectric constant tensor:
#      x y z
#    x 1.704450 0.000000 0.000000 
#    y 0.000000 1.704450 0.000000 
#    z 0.000000 0.000000 1.785810 
# 
# From -- ./inp_files/1600.got.cif
#   From: 2010.05.17/outbox.cif.g08.bks.cpg/sg123_1_cif.got.tgz:1600.got - 2010.05.20 11:43:04.
