data_PCOD9561694
_publ_section_title
;
Structure prediction by ZEFSAII (Michael W. Deem and Ramdas Pophale) SiO2 
 PCOD9561694
Probable space group: P 4/M M M
;
_chemical_formula_sum "Si O2"
_cell_formula_units_Z 72
_cell_length_a 21.473538
_cell_length_b 21.473538
_cell_length_c 7.394989
_cell_angle_alpha 90.000000
_cell_angle_beta 90.000000
_cell_angle_gamma 90.000000
_cell_volume 3409.924337
_symmetry_space_group_name_H-M "P 4/M M M"
_symmetry_group_IT_number 123
_symmetry_cell_setting 'tetragonal'
loop_
_space_group_symop_operation_xyz
x,y,z
-y,x,z
-x,-y,z
y,-x,z
x,-y,-z
-x,y,-z
y,x,-z
-y,-x,-z
-x,-y,-z
y,-x,-z
x,y,-z
-y,x,-z
-x,y,z
x,-y,z
-y,-x,z
y,x,z
loop_
_atom_site_type_symbol
_atom_site_label
_atom_site_fract_x
_atom_site_fract_y
_atom_site_fract_z
Si Si1 0.669834 0.430458 0.720605
Si Si2 0.930740 0.828999 0.215605
Si Si3 0.333230 0.767336 0.720358
Si Si4 0.093970 0.317772 0.282704
Si Si5 0.573771 0.000000 0.720530
O O1 0.668996 0.431216 0.500000
O O2 0.664611 0.500000 0.785509
O O3 0.613098 0.386903 0.777681
O O4 0.733160 0.396366 0.774665
O O5 0.872983 0.872983 0.282709
O O6 0.925218 0.753926 0.243705
O O7 0.000000 0.847645 0.283776
O O8 0.931243 0.837051 0.000000
O O9 0.332485 0.768755 0.500000
O O10 0.276609 0.723392 0.776542
O O11 0.325076 0.836328 0.785607
O O12 0.092088 0.321164 0.500000
O O13 0.056221 0.379475 0.223064
O O14 0.500000 0.000000 0.778874
O O15 0.570607 0.000000 0.500000
#
# Coordination Sequence:
#
# PCOD9561694 Si02
#       5
#    16  16  16  16   8
#     4   8  13  20  29  45  73 108 146 186 227 273
#     4  10  21  36  54  76 102 132 166 207 255 308
#     4   8  14  23  36  56  79 105 143 189 230 269
#     4  10  18  31  51  72  97 130 167 205 245 293
#     4   9  18  30  45  71 102 127 158 202 247 291
#
# _framework density 21.114837000000001
#
# number of rings (size 3 to 8) (size 9 to 14) (size 15 to 20)
#    0.000    3.000    1.111    2.000    0.000    2.667 
#    0.000    6.667    0.000    1.333    0.000    1.556 
#    0.000    0.000    0.000    0.000    0.000    0.222 
#
# Total GULP energy -401030.960642 kJ/mol
# GULP energy per Si atom -5569.874453 kJ/mol
# Density = 2.106678 g / cm^3
# Si number density = 21.114837 Si / 1000 Ang^3
#
#
#
# Elastic Constant Matrix: (Units=GPa)
#
#
# Indices 1 2 3 4 5 6 
#
# 1 178.8855 85.7636 4.1355 0.0000 0.0000 0.0000
# 2 85.7636 178.8855 4.1355 0.0000 0.0000 0.0000
# 3 4.1355 4.1355 73.5564 0.0000 0.0000 0.0000
# 4 0.0000 0.0000 0.0000 1.4921 0.0000 0.0000
# 5 0.0000 0.0000 0.0000 0.0000 1.4921 0.0000
# 6 0.0000 0.0000 0.0000 0.0000 0.0000 -7.2236
#
#
#
# Elastic Compliance Matrix: (Units=1/GPa)
#
#
# Indices 1 2 3 4 5 6 
#
# 1 0.007262 -0.003477 -0.000213 0.000000 0.000000 0.000000
# 2 -0.003477 0.007262 -0.000213 0.000000 0.000000 0.000000
# 3 -0.000213 -0.000213 0.013619 0.000000 0.000000 0.000000
# 4 0.000000 0.000000 0.000000 0.670204 0.000000 0.000000
# 5 0.000000 0.000000 0.000000 0.000000 0.670204 0.000000
# 6 0.000000 0.000000 0.000000 0.000000 0.000000 -0.138434
#
#
# Mechanical properties :
#
#
# Convention : Reuss Voigt Hill
#
# Bulk Modulus (GPa) = 49.16866 68.82185 58.99526
# Shear Modulus (GPa) = 4.01703 21.63830 12.82766
#
# Velocity S-wave (km/s) = 1.38080 3.20471 2.46746
# Velocity P-wave (km/s) = 5.08714 6.80870 6.00988
#
# Compressibility (1/GPa) = 0.02033816
#
# Stress axis : x y z
#
# Youngs Moduli (GPa) = 137.70460 137.70460 73.42714
#
# Poissons Ratio (x) = 0.47876 0.01563
# Poissons Ratio (y) = 0.47876 0.01563
# Poissons Ratio (z) = 0.02931 0.02931
#
# Static dielectric constant tensor:
#      x y z
#    x 1.754000 0.000000 0.000000 
#    y 0.000000 1.754000 0.000000 
#    z 0.000000 0.000000 1.843980 
# 
# From -- ./inp_files/1133.got.cif
#   From: 2010.05.17/outbox.cif.g08.bks.cpg/sg123_1_cif.got.tgz:1133.got - 2010.05.20 11:43:04.
