data_PCOD9561703
_publ_section_title
;
Structure prediction by ZEFSAII (Michael W. Deem and Ramdas Pophale) SiO2 
 PCOD9561703
Probable space group: P 4/M M M
;
_chemical_formula_sum "Si O2"
_cell_formula_units_Z 56
_cell_length_a 18.451246
_cell_length_b 18.451246
_cell_length_c 7.453020
_cell_angle_alpha 90.000000
_cell_angle_beta 90.000000
_cell_angle_gamma 90.000000
_cell_volume 2537.369323
_symmetry_space_group_name_H-M "P 4/M M M"
_symmetry_group_IT_number 123
_symmetry_cell_setting 'tetragonal'
loop_
_space_group_symop_operation_xyz
x,y,z
-y,x,z
-x,-y,z
y,-x,z
x,-y,-z
-x,y,-z
y,x,-z
-y,-x,-z
-x,-y,-z
y,-x,-z
x,y,-z
-y,x,-z
-x,y,z
x,-y,z
-y,-x,z
y,x,z
loop_
_atom_site_type_symbol
_atom_site_label
_atom_site_fract_x
_atom_site_fract_y
_atom_site_fract_z
Si Si1 0.693580 0.417694 0.781129
Si Si2 0.917481 0.198651 0.712540
Si Si3 0.083103 0.500000 0.781388
Si Si4 0.351657 0.841413 0.783640
O O1 0.704593 0.500000 0.720298
O O2 0.618039 0.381962 0.726838
O O3 0.758795 0.364760 0.725915
O O4 0.695138 0.419723 0.000000
O O5 0.923265 0.185913 0.500000
O O6 0.863642 0.136359 0.785764
O O7 0.879769 0.277181 0.731698
O O8 0.000000 0.198712 0.784850
O O9 0.118495 0.424846 0.721629
O O10 0.000000 0.500000 0.730451
O O11 0.088398 0.500000 0.000000
O O12 0.351752 0.842333 0.000000
#
# Coordination Sequence:
#
# PCOD9561703 Si02
#       4
#    16  16   8  16
#     4   9  16  26  42  67  99 134 172 211 251 297
#     4  10  22  39  57  78 105 137 174 217 265 317
#     4   9  16  26  45  73 104 136 166 201 249 309
#     4  10  18  32  53  79 107 135 172 215 259 308
#
# _framework density 22.070101999999999
#
# number of rings (size 3 to 8) (size 9 to 14) (size 15 to 20)
#    0.000    2.429    1.429    1.714    0.000    4.000 
#    0.000    3.571    0.000    2.571    0.000    2.000 
#    0.000    0.000    0.000    6.000    0.000    5.714 
#
# Total GULP energy -312640.809017 kJ/mol
# GULP energy per Si atom -5582.871590 kJ/mol
# Density = 2.201987 g / cm^3
# Si number density = 22.070102 Si / 1000 Ang^3
#
#
#
# Elastic Constant Matrix: (Units=GPa)
#
#
# Indices 1 2 3 4 5 6 
#
# 1 161.7800 141.3170 3.1840 0.0000 0.0000 0.0000
# 2 141.3170 161.7800 3.1840 0.0000 0.0000 0.0000
# 3 3.1840 3.1840 64.6015 0.0000 0.0000 0.0000
# 4 0.0000 0.0000 0.0000 9.1124 0.0000 0.0000
# 5 0.0000 0.0000 0.0000 0.0000 9.1124 0.0000
# 6 0.0000 0.0000 0.0000 0.0000 0.0000 31.2506
#
#
#
# Elastic Compliance Matrix: (Units=1/GPa)
#
#
# Indices 1 2 3 4 5 6 
#
# 1 0.026086 -0.022783 -0.000163 0.000000 0.000000 0.000000
# 2 -0.022783 0.026086 -0.000163 0.000000 0.000000 0.000000
# 3 -0.000163 -0.000163 0.015496 0.000000 0.000000 0.000000
# 4 0.000000 0.000000 0.000000 0.109740 0.000000 0.000000
# 5 0.000000 0.000000 0.000000 0.000000 0.109740 0.000000
# 6 0.000000 0.000000 0.000000 0.000000 0.000000 0.031999
#
#
# Mechanical properties :
#
#
# Convention : Reuss Voigt Hill
#
# Bulk Modulus (GPa) = 46.62043 75.94796 61.28419
# Shear Modulus (GPa) = 13.42235 25.92686 19.67460
#
# Velocity S-wave (km/s) = 2.46878 3.43118 2.98897
# Velocity P-wave (km/s) = 5.41259 7.08408 6.30398
#
# Compressibility (1/GPa) = 0.02144983
#
# Stress axis : x y z
#
# Youngs Moduli (GPa) = 38.33531 38.33531 64.53460
#
# Poissons Ratio (x) = 0.87339 0.01051
# Poissons Ratio (y) = 0.87339 0.01051
# Poissons Ratio (z) = 0.00624 0.00624
#
# Static dielectric constant tensor:
#      x y z
#    x 1.789960 0.000000 0.000000 
#    y 0.000000 1.789960 0.000000 
#    z 0.000000 0.000000 1.873770 
# 
# From -- ./inp_files/575.got.cif
#   From: 2010.05.17/outbox.cif.g08.bks.cpg/sg123_1_cif.got.tgz:575.got - 2010.05.20 11:43:04.
