data_PCOD9561202
_publ_section_title
;
Structure prediction by ZEFSAII (Michael W. Deem and Ramdas Pophale) SiO2 
 PCOD9561202
Probable space group: I -4 2 D
;
_chemical_formula_sum "Si O2"
_cell_formula_units_Z 112
_cell_length_a 14.195333
_cell_length_b 14.195333
_cell_length_c 25.754245
_cell_angle_alpha 90.000000
_cell_angle_beta 90.000000
_cell_angle_gamma 90.000000
_cell_volume 5189.672983
_symmetry_space_group_name_H-M "I -4 2 D"
_symmetry_group_IT_number 122
_symmetry_cell_setting 'tetragonal'
loop_
_space_group_symop_operation_xyz
x,y,z
y,-x,-z
-x,-y,z
-y,x,-z
x,1/2-y,1/4-z
-x,1/2+y,1/4-z
-y,1/2-x,1/4+z
y,1/2+x,1/4+z
1/2+x,1/2+y,1/2+z
1/2+y,1/2-x,1/2-z
1/2-x,1/2-y,1/2+z
1/2-y,1/2+x,1/2-z
1/2+x,-y,3/4-z
1/2-x,y,3/4-z
1/2-y,-x,3/4+z
1/2+y,x,3/4+z
loop_
_atom_site_type_symbol
_atom_site_label
_atom_site_fract_x
_atom_site_fract_y
_atom_site_fract_z
Si Si1 0.013313 0.140161 0.023728
Si Si2 0.790779 0.366764 0.930387
Si Si3 0.935628 0.091600 0.134904
Si Si4 0.049322 0.589612 0.573094
Si Si5 0.231805 0.858963 0.615414
Si Si6 0.130452 0.910033 0.507407
Si Si7 0.838114 0.526446 0.498902
O O1 0.978801 0.140015 0.083324
O O2 0.032924 0.243581 0.004643
O O3 0.098449 0.070136 0.012280
O O4 0.750000 0.331844 0.875000
O O5 0.826293 0.475396 0.925360
O O6 0.884278 0.327831 0.961091
O O7 0.698949 0.364038 0.965547
O O8 0.824410 0.078359 0.125309
O O9 0.937819 0.142387 0.190782
O O10 0.000000 0.000000 0.140494
O O11 0.147183 0.619675 0.596285
O O12 0.081139 0.544165 0.518556
O O13 0.000000 0.500000 0.601927
O O14 0.260400 0.750000 0.625000
O O15 0.182575 0.882801 0.560702
O O16 0.023086 0.874188 0.502053
#
# Coordination Sequence:
#
# PCOD9561202 Si02
#       7
#    16  16  16  16  16  16  16
#     4  11  23  46  70  98 141 187 234 301 369 434
#     4  11  23  45  65  95 141 177 228 288 356 432
#     4  12  24  45  72 102 141 189 245 307 374 442
#     4  10  23  40  70  95 136 184 224 286 359 434
#     4  12  25  44  72 102 137 189 246 299 363 455
#     4  11  25  41  66 100 136 177 231 290 362 434
#     4  11  24  43  70 104 135 185 239 294 360 445
#
# _framework density 21.581322
#
# number of rings (size 3 to 8) (size 9 to 14) (size 15 to 20)
#    0.000    0.857    2.857    5.571    6.000    0.000 
#    2.571    1.429    0.000    0.000    0.000    0.000 
#    0.000    0.000    0.000    0.000    0.000    0.000 
#
# Total GULP energy -312430.263767 kJ/mol
# GULP energy per Si atom -5579.111853 kJ/mol
# Density = 2.153220 g / cm^3
# Si number density = 21.581322 Si / 1000 Ang^3
#
#
#
# Elastic Constant Matrix: (Units=GPa)
#
#
# Indices 1 2 3 4 5 6 
#
# 1 65.5413 -1.2513 -0.2005 0.0000 0.0000 0.0000
# 2 -1.2513 65.5413 -0.2005 0.0000 0.0000 0.0000
# 3 -0.2005 -0.2005 112.7306 0.0000 0.0000 0.0000
# 4 0.0000 0.0000 0.0000 18.9155 0.0000 0.0000
# 5 0.0000 0.0000 0.0000 0.0000 18.9155 0.0000
# 6 0.0000 0.0000 0.0000 0.0000 0.0000 -17.4656
#
#
#
# Elastic Compliance Matrix: (Units=1/GPa)
#
#
# Indices 1 2 3 4 5 6 
#
# 1 0.015263 0.000291 0.000028 0.000000 0.000000 0.000000
# 2 0.000291 0.015263 0.000028 0.000000 0.000000 0.000000
# 3 0.000028 0.000028 0.008871 0.000000 0.000000 0.000000
# 4 0.000000 0.000000 0.000000 0.052867 0.000000 0.000000
# 5 0.000000 0.000000 0.000000 0.000000 0.052867 0.000000
# 6 0.000000 0.000000 0.000000 0.000000 0.000000 -0.057256
#
#
# Mechanical properties :
#
#
# Convention : Reuss Voigt Hill
#
# Bulk Modulus (GPa) = 24.94334 26.72317 25.83326
# Shear Modulus (GPa) = 49.72896 20.43745 35.08320
#
# Velocity S-wave (km/s) = 4.80548 3.08067 4.03628
# Velocity P-wave (km/s) = 6.50946 5.00634 5.80674
#
# Compressibility (1/GPa) = 0.04009087
#
# Stress axis : x y z
#
# Youngs Moduli (GPa) = 65.51700 65.51700 112.72937
#
# Poissons Ratio (x) = -0.01910 -0.00312
# Poissons Ratio (y) = -0.01910 -0.00312
# Poissons Ratio (z) = -0.00181 -0.00181
#
# Static dielectric constant tensor:
#      x y z
#    x 1.756850 0.000000 0.000000 
#    y 0.000000 1.756850 0.000000 
#    z 0.000000 0.000000 1.998340 
# 
# From -- ./inp_files/8111.got.cif
#   From: 2010.05.17/outbox.cif.g08.bks.cpg/sg122_5_cif.got.tgz:8111.got - 2010.05.20 11:37:33.
