data_PCOD9561516
_publ_section_title
;
Structure prediction by ZEFSAII (Michael W. Deem and Ramdas Pophale) SiO2 
 PCOD9561516
Probable space group: I -4 2 D
;
_chemical_formula_sum "Si O2"
_cell_formula_units_Z 72
_cell_length_a 19.270699
_cell_length_b 19.270699
_cell_length_c 10.017450
_cell_angle_alpha 90.000000
_cell_angle_beta 90.000000
_cell_angle_gamma 90.000000
_cell_volume 3720.078629
_symmetry_space_group_name_H-M "I -4 2 D"
_symmetry_group_IT_number 122
_symmetry_cell_setting 'tetragonal'
loop_
_space_group_symop_operation_xyz
x,y,z
y,-x,-z
-x,-y,z
-y,x,-z
x,1/2-y,1/4-z
-x,1/2+y,1/4-z
-y,1/2-x,1/4+z
y,1/2+x,1/4+z
1/2+x,1/2+y,1/2+z
1/2+y,1/2-x,1/2-z
1/2-x,1/2-y,1/2+z
1/2-y,1/2+x,1/2-z
1/2+x,-y,3/4-z
1/2-x,y,3/4-z
1/2-y,-x,3/4+z
1/2+y,x,3/4+z
loop_
_atom_site_type_symbol
_atom_site_label
_atom_site_fract_x
_atom_site_fract_y
_atom_site_fract_z
Si Si1 0.750000 0.932441 0.875000
Si Si2 0.540170 0.762602 0.385374
Si Si3 0.612112 0.604910 0.757296
Si Si4 0.599527 0.611930 0.435364
Si Si5 0.500000 0.500000 0.289317
Si Si6 0.038696 0.750000 0.625000
O O1 0.678699 0.891978 0.860964
O O2 0.760411 0.980372 0.746226
O O3 0.594092 0.820501 0.432257
O O4 0.568695 0.684475 0.386695
O O5 0.508946 0.780475 0.242199
O O6 0.603628 0.608484 0.596241
O O7 0.553132 0.548080 0.793464
O O8 0.687713 0.581443 0.806218
O O9 0.552616 0.549299 0.375511
#
# Coordination Sequence:
#
# PCOD9561516 Si02
#       6
#     8  16  16  16   8   8
#     4  12  22  41  76 103 136 184 250 296 350 429
#     4  12  25  45  69 105 147 186 240 305 358 427
#     4  12  24  42  71 104 147 187 239 301 367 421
#     4  12  22  42  75 108 134 193 251 295 347 439
#     4  12  21  40  81 108 129 194 265 294 337 428
#     4  12  28  45  64 107 154 184 232 314 368 421
#
# _framework density 19.354430000000001
#
# number of rings (size 3 to 8) (size 9 to 14) (size 15 to 20)
#    0.000    0.000    8.889    2.000    0.000    4.444 
#    0.000    0.000    0.000    0.000    0.000    0.000 
#    0.000    0.000    0.000    0.000    0.000    0.000 
#
# Total GULP energy -201248.253436 kJ/mol
# GULP energy per Si atom -5590.229262 kJ/mol
# Density = 1.931038 g / cm^3
# Si number density = 19.354430 Si / 1000 Ang^3
#
#
#
# Elastic Constant Matrix: (Units=GPa)
#
#
# Indices 1 2 3 4 5 6 
#
# 1 113.1691 33.0143 20.9687 0.0000 0.0000 0.0000
# 2 33.0143 113.1691 20.9687 0.0000 0.0000 0.0000
# 3 20.9687 20.9687 70.5896 0.0000 0.0000 0.0000
# 4 0.0000 0.0000 0.0000 29.8874 0.0000 0.0000
# 5 0.0000 0.0000 0.0000 0.0000 29.8874 0.0000
# 6 0.0000 0.0000 0.0000 0.0000 0.0000-1105.4280
#
#
#
# Elastic Compliance Matrix: (Units=1/GPa)
#
#
# Indices 1 2 3 4 5 6 
#
# 1 0.009977 -0.002499 -0.002221 0.000000 0.000000 0.000000
# 2 -0.002499 0.009977 -0.002221 0.000000 0.000000 0.000000
# 3 -0.002221 -0.002221 0.015486 0.000000 0.000000 0.000000
# 4 0.000000 0.000000 0.000000 0.033459 0.000000 0.000000
# 5 0.000000 0.000000 0.000000 0.000000 0.033459 0.000000
# 6 0.000000 0.000000 0.000000 0.000000 0.000000 -0.000905
#
#
# Mechanical properties :
#
#
# Convention : Reuss Voigt Hill
#
# Bulk Modulus (GPa) = 46.38929 49.64792 48.01861
# Shear Modulus (GPa) = 40.80904 -194.33222 -76.76159
#
# Velocity S-wave (km/s) = 4.59683 -10.03121 -6.30453
# Velocity P-wave (km/s) = 7.22460 10.41437 5.30397
#
# Compressibility (1/GPa) = 0.02155670
#
# Stress axis : x y z
#
# Youngs Moduli (GPa) = 100.23132 100.23132 64.57403
#
# Poissons Ratio (x) = 0.25047 0.14344
# Poissons Ratio (y) = 0.25047 0.14344
# Poissons Ratio (z) = 0.22265 0.22265
#
# Static dielectric constant tensor:
#      x y z
#    x 1.553560 0.000000 0.000000 
#    y 0.000000 1.553560 0.000000 
#    z 0.000000 0.000000 3.241180 
# 
# From -- ./inp_files/2685.got.cif
#   From: 2010.05.17/outbox.cif.g08.bks.cpg/sg122_2_cif.got.tgz:2685.got - 2010.05.20 11:37:33.
