data_PCOD9561693
_publ_section_title
;
Structure prediction by ZEFSAII (Michael W. Deem and Ramdas Pophale) SiO2 
 PCOD9561693
Probable space group: P 4/M M M
;
_chemical_formula_sum "Si O2"
_cell_formula_units_Z 112
_cell_length_a 16.163335
_cell_length_b 16.163335
_cell_length_c 23.405629
_cell_angle_alpha 90.000000
_cell_angle_beta 90.000000
_cell_angle_gamma 90.000000
_cell_volume 6114.800116
_symmetry_space_group_name_H-M "P 4/M M M"
_symmetry_group_IT_number 123
_symmetry_cell_setting 'tetragonal'
loop_
_space_group_symop_operation_xyz
x,y,z
-y,x,z
-x,-y,z
y,-x,z
x,-y,-z
-x,y,-z
y,x,-z
-y,-x,-z
-x,-y,-z
y,-x,-z
x,y,-z
-y,x,-z
-x,y,z
x,-y,z
-y,-x,z
y,x,z
loop_
_atom_site_type_symbol
_atom_site_label
_atom_site_fract_x
_atom_site_fract_y
_atom_site_fract_z
Si Si1 0.216980 0.349998 0.783483
Si Si2 0.772666 0.091444 0.591972
Si Si3 0.411169 0.724418 0.663164
Si Si4 0.906268 0.771838 0.068760
Si Si5 0.591294 0.858625 0.563458
Si Si6 0.408202 0.095949 0.122143
Si Si7 0.780862 0.092678 0.270712
O O1 0.298168 0.298168 0.803495
O O2 0.241087 0.400822 0.727101
O O3 0.166773 0.401397 0.829951
O O4 0.151987 0.281948 0.761174
O O5 0.833718 0.166283 0.573674
O O6 0.679046 0.095548 0.568674
O O7 0.765784 0.097467 0.661067
O O8 0.807303 0.000000 0.578528
O O9 0.500000 0.682231 0.658323
O O10 0.336549 0.663452 0.652782
O O11 0.407311 0.795146 0.615706
O O12 0.835163 0.835163 0.090402
O O13 0.892554 0.675900 0.085791
O O14 0.000000 0.794635 0.087852
O O15 0.905392 0.776479 0.000000
O O16 0.592167 0.819639 0.500000
O O17 0.500000 0.901459 0.567450
O O18 0.500000 0.103026 0.094396
O O19 0.404110 0.000000 0.143853
O O20 0.872247 0.127754 0.260952
O O21 0.770108 0.000000 0.251120
#
# Coordination Sequence:
#
# PCOD9561693 Si02
#       7
#    16  16  16  16  16  16  16
#     4  10  18  31  51  71  96 130 169 214 256 304
#     4  10  20  35  54  76 103 134 167 204 248 299
#     4  10  20  34  52  74  98 125 159 201 255 317
#     4   9  18  33  53  78 109 144 182 224 267 310
#     4  10  21  37  57  78  99 127 165 209 258 312
#     4  10  20  32  48  73 105 141 179 217 261 311
#     4   9  17  29  46  68  95 128 165 204 248 297
#
# _framework density 18.316216000000001
#
# number of rings (size 3 to 8) (size 9 to 14) (size 15 to 20)
#    0.000    2.286    1.429    1.714    0.000    2.571 
#    0.000    4.286    0.000    0.000    0.000    5.000 
#    0.000    2.571    0.000    6.286    0.000    0.286 
#
# Total GULP energy -623589.382694 kJ/mol
# GULP energy per Si atom -5567.762345 kJ/mol
# Density = 1.827453 g / cm^3
# Si number density = 18.316216 Si / 1000 Ang^3
#
#
#
# Elastic Constant Matrix: (Units=GPa)
#
#
# Indices 1 2 3 4 5 6 
#
# 1 99.2276 59.3990 15.8093 0.0000 0.0000 0.0000
# 2 59.3990 99.2276 15.8093 0.0000 0.0000 0.0000
# 3 15.8093 15.8093 21.1602 0.0000 0.0000 0.0000
# 4 0.0000 0.0000 0.0000 19.2061 0.0000 0.0000
# 5 0.0000 0.0000 0.0000 0.0000 19.2061 0.0000
# 6 0.0000 0.0000 0.0000 0.0000 0.0000 6.9954
#
#
#
# Elastic Compliance Matrix: (Units=1/GPa)
#
#
# Indices 1 2 3 4 5 6 
#
# 1 0.016257 -0.008850 -0.005534 0.000000 0.000000 0.000000
# 2 -0.008850 0.016257 -0.005534 0.000000 0.000000 0.000000
# 3 -0.005534 -0.005534 0.055528 0.000000 0.000000 0.000000
# 4 0.000000 0.000000 0.000000 0.052067 0.000000 0.000000
# 5 0.000000 0.000000 0.000000 0.000000 0.052067 0.000000
# 6 0.000000 0.000000 0.000000 0.000000 0.000000 0.142952
#
#
# Mechanical properties :
#
#
# Convention : Reuss Voigt Hill
#
# Bulk Modulus (GPa) = 20.74439 44.62786 32.68612
# Shear Modulus (GPa) = 12.78663 17.65471 15.22067
#
# Velocity S-wave (km/s) = 2.64503 3.10802 2.88582
# Velocity P-wave (km/s) = 4.54737 6.10719 5.38407
#
# Compressibility (1/GPa) = 0.04820581
#
# Stress axis : x y z
#
# Youngs Moduli (GPa) = 61.51050 61.51050 18.00898
#
# Poissons Ratio (x) = 0.54438 0.09966
# Poissons Ratio (y) = 0.54438 0.09966
# Poissons Ratio (z) = 0.34041 0.34041
#
# Static dielectric constant tensor:
#      x y z
#    x 1.642560 0.000000 0.000000 
#    y 0.000000 1.642560 0.000000 
#    z 0.000000 0.000000 1.650100 
# 
# From -- ./inp_files/7472.got.cif
#   From: 2010.05.17/outbox.cif.g08.bks.cpg/sg123_4_cif.got.tgz:7472.got - 2010.05.20 11:43:04.
