data_PCOD9561416
_publ_section_title
;
Structure prediction by ZEFSAII (Michael W. Deem and Ramdas Pophale) SiO2 
 PCOD9561416
Probable space group: I -4 2 D
;
_chemical_formula_sum "Si O2"
_cell_formula_units_Z 88
_cell_length_a 14.381354
_cell_length_b 14.381354
_cell_length_c 19.528084
_cell_angle_alpha 90.000000
_cell_angle_beta 90.000000
_cell_angle_gamma 90.000000
_cell_volume 4038.863613
_symmetry_space_group_name_H-M "I -4 2 D"
_symmetry_group_IT_number 122
_symmetry_cell_setting 'tetragonal'
loop_
_space_group_symop_operation_xyz
x,y,z
y,-x,-z
-x,-y,z
-y,x,-z
x,1/2-y,1/4-z
-x,1/2+y,1/4-z
-y,1/2-x,1/4+z
y,1/2+x,1/4+z
1/2+x,1/2+y,1/2+z
1/2+y,1/2-x,1/2-z
1/2-x,1/2-y,1/2+z
1/2-y,1/2+x,1/2-z
1/2+x,-y,3/4-z
1/2-x,y,3/4-z
1/2-y,-x,3/4+z
1/2+y,x,3/4+z
loop_
_atom_site_type_symbol
_atom_site_label
_atom_site_fract_x
_atom_site_fract_y
_atom_site_fract_z
Si Si1 0.250000 0.649340 0.375000
Si Si2 0.881349 0.563809 0.279233
Si Si3 0.919823 0.927501 0.195051
Si Si4 0.209327 0.581346 0.096546
Si Si5 0.291909 0.147043 0.027872
Si Si6 0.898542 0.488801 0.597883
O O1 0.171150 0.585933 0.409019
O O2 0.213228 0.720381 0.316939
O O3 0.905092 0.454180 0.280620
O O4 0.892997 0.638460 0.340691
O O5 0.776264 0.570384 0.254710
O O6 0.938378 0.915502 0.275103
O O7 0.825087 0.980656 0.178808
O O8 0.000000 0.000000 0.171492
O O9 0.193296 0.652019 0.034104
O O10 0.316399 0.568993 0.116625
O O11 0.359600 0.091339 0.078629
O O12 0.000000 0.500000 0.631940
#
# Coordination Sequence:
#
# PCOD9561416 Si02
#       6
#     8  16  16  16  16  16
#     4  12  26  44  72 110 152 200 248 312 366 460
#     4  11  24  38  66 110 154 187 230 302 373 461
#     4  11  24  42  74 106 149 200 235 301 387 449
#     4  12  24  44  71 108 146 197 252 298 382 455
#     4  12  25  44  70 105 150 194 248 302 377 447
#     4  11  23  45  71 102 147 197 244 312 371 445
#
# _framework density 21.788308000000001
#
# number of rings (size 3 to 8) (size 9 to 14) (size 15 to 20)
#    0.000    0.545    7.273    1.636    5.091    0.000 
#    0.000    1.818    0.000    0.000    0.000    0.000 
#    0.000    0.000    0.000    0.000    0.000    0.000 
#
# Total GULP energy -245898.157017 kJ/mol
# GULP energy per Si atom -5588.594478 kJ/mol
# Density = 2.173872 g / cm^3
# Si number density = 21.788308 Si / 1000 Ang^3
#
#
#
# Elastic Constant Matrix: (Units=GPa)
#
#
# Indices 1 2 3 4 5 6 
#
# 1 135.5559 37.0444 28.6895 0.0000 0.0000 0.0000
# 2 37.0444 135.5559 28.6895 0.0000 0.0000 0.0000
# 3 28.6895 28.6895 54.3086 0.0000 0.0000 0.0000
# 4 0.0000 0.0000 0.0000 25.2931 0.0000 0.0000
# 5 0.0000 0.0000 0.0000 0.0000 25.2931 0.0000
# 6 0.0000 0.0000 0.0000 0.0000 0.0000 36.5608
#
#
#
# Elastic Compliance Matrix: (Units=1/GPa)
#
#
# Indices 1 2 3 4 5 6 
#
# 1 0.008590 -0.001562 -0.003713 0.000000 0.000000 0.000000
# 2 -0.001562 0.008590 -0.003713 0.000000 0.000000 0.000000
# 3 -0.003713 -0.003713 0.022336 0.000000 0.000000 0.000000
# 4 0.000000 0.000000 0.000000 0.039537 0.000000 0.000000
# 5 0.000000 0.000000 0.000000 0.000000 0.039537 0.000000
# 6 0.000000 0.000000 0.000000 0.000000 0.000000 0.027352
#
#
# Mechanical properties :
#
#
# Convention : Reuss Voigt Hill
#
# Bulk Modulus (GPa) = 46.42273 57.14079 51.78176
# Shear Modulus (GPa) = 29.22374 32.82918 31.02646
#
# Velocity S-wave (km/s) = 3.66629 3.88588 3.77768
# Velocity P-wave (km/s) = 6.26696 6.81291 6.54563
#
# Compressibility (1/GPa) = 0.02154117
#
# Stress axis : x y z
#
# Youngs Moduli (GPa) = 116.42083 116.42083 44.77115
#
# Poissons Ratio (x) = 0.18180 0.16622
# Poissons Ratio (y) = 0.18180 0.16622
# Poissons Ratio (z) = 0.43223 0.43223
#
# Static dielectric constant tensor:
#      x y z
#    x 1.830510 0.000000 0.000000 
#    y 0.000000 1.830510 0.000000 
#    z 0.000000 0.000000 1.837750 
# 
# From -- ./inp_files/7166.got.cif
#   From: 2010.05.17/outbox.cif.g08.bks.cpg/sg122_4_cif.got.tgz:7166.got - 2010.05.20 11:37:33.
