data_PCOD9561378
_publ_section_title
;
Structure prediction by ZEFSAII (Michael W. Deem and Ramdas Pophale) SiO2 
 PCOD9561378
Probable space group: I -4 2 D
;
_chemical_formula_sum "Si O2"
_cell_formula_units_Z 64
_cell_length_a 10.362547
_cell_length_b 10.362547
_cell_length_c 24.684245
_cell_angle_alpha 90.000000
_cell_angle_beta 90.000000
_cell_angle_gamma 90.000000
_cell_volume 2650.652985
_symmetry_space_group_name_H-M "I -4 2 D"
_symmetry_group_IT_number 122
_symmetry_cell_setting 'tetragonal'
loop_
_space_group_symop_operation_xyz
x,y,z
y,-x,-z
-x,-y,z
-y,x,-z
x,1/2-y,1/4-z
-x,1/2+y,1/4-z
-y,1/2-x,1/4+z
y,1/2+x,1/4+z
1/2+x,1/2+y,1/2+z
1/2+y,1/2-x,1/2-z
1/2-x,1/2-y,1/2+z
1/2-y,1/2+x,1/2-z
1/2+x,-y,3/4-z
1/2-x,y,3/4-z
1/2-y,-x,3/4+z
1/2+y,x,3/4+z
loop_
_atom_site_type_symbol
_atom_site_label
_atom_site_fract_x
_atom_site_fract_y
_atom_site_fract_z
Si Si1 0.807059 0.566767 0.528203
Si Si2 0.963819 0.790812 0.488726
Si Si3 0.048588 0.190807 0.071161
Si Si4 0.897375 0.775001 0.881056
O O1 0.913047 0.676560 0.526586
O O2 0.661079 0.621546 0.537695
O O3 0.800217 0.503450 0.469126
O O4 0.816777 0.466766 0.576342
O O5 0.965274 0.738181 0.427048
O O6 0.097065 0.855414 0.506404
O O7 0.110337 0.250000 0.125000
O O8 0.920878 0.115156 0.093468
O O9 0.750000 0.735179 0.875000
#
# Coordination Sequence:
#
# PCOD9561378 Si02
#       4
#    16  16  16  16
#     4  12  23  45  75 109 148 199 241 307 399 441
#     4  11  27  53  71 103 156 204 263 318 375 474
#     4  11  22  40  73 112 148 178 240 310 367 460
#     4  11  23  47  71 113 153 188 246 322 376 457
#
# _framework density 24.144991000000001
#
# number of rings (size 3 to 8) (size 9 to 14) (size 15 to 20)
#    0.000    0.750    7.500    0.750    3.500    0.000 
#    9.000    3.750    0.000    0.000    0.000    0.000 
#    0.000    0.000    0.000    0.000    0.000    0.000 
#
# Total GULP energy -179089.948506 kJ/mol
# GULP energy per Si atom -5596.560891 kJ/mol
# Density = 2.409004 g / cm^3
# Si number density = 24.144991 Si / 1000 Ang^3
#
#
#
# Elastic Constant Matrix: (Units=GPa)
#
#
# Indices 1 2 3 4 5 6 
#
# 1 86.5434 30.2806 34.9387 0.0000 0.0000 0.0000
# 2 30.2806 86.5434 34.9387 0.0000 0.0000 0.0000
# 3 34.9387 34.9387 132.5324 0.0000 0.0000 0.0000
# 4 0.0000 0.0000 0.0000 34.5179 0.0000 0.0000
# 5 0.0000 0.0000 0.0000 0.0000 34.5179 0.0000
# 6 0.0000 0.0000 0.0000 0.0000 0.0000 35.8308
#
#
#
# Elastic Compliance Matrix: (Units=1/GPa)
#
#
# Indices 1 2 3 4 5 6 
#
# 1 0.013968 -0.003806 -0.002679 0.000000 0.000000 0.000000
# 2 -0.003806 0.013968 -0.002679 0.000000 0.000000 0.000000
# 3 -0.002679 -0.002679 0.008958 0.000000 0.000000 0.000000
# 4 0.000000 0.000000 0.000000 0.028970 0.000000 0.000000
# 5 0.000000 0.000000 0.000000 0.000000 0.028970 0.000000
# 6 0.000000 0.000000 0.000000 0.000000 0.000000 0.027909
#
#
# Mechanical properties :
#
#
# Convention : Reuss Voigt Hill
#
# Bulk Modulus (GPa) = 53.86084 56.21504 55.03794
# Shear Modulus (GPa) = 33.95352 34.67073 34.31212
#
# Velocity S-wave (km/s) = 3.75405 3.79349 3.77382
# Velocity P-wave (km/s) = 6.41453 6.52075 6.46786
#
# Compressibility (1/GPa) = 0.01856636
#
# Stress axis : x y z
#
# Youngs Moduli (GPa) = 71.59202 71.59202 111.63406
#
# Poissons Ratio (x) = 0.27246 0.29907
# Poissons Ratio (y) = 0.27246 0.29907
# Poissons Ratio (z) = 0.19180 0.19180
#
# Static dielectric constant tensor:
#      x y z
#    x 1.960040 0.000000 0.000000 
#    y 0.000000 1.960040 0.000000 
#    z 0.000000 0.000000 1.869050 
# 
# From -- ./inp_files/7834.got.cif
#   From: 2010.05.17/outbox.cif.g08.bks.cpg/sg122_4_cif.got.tgz:7834.got - 2010.05.20 11:37:33.
