data_PCOD9561607
_publ_section_title
;
Structure prediction by ZEFSAII (Michael W. Deem and Ramdas Pophale) SiO2 
 PCOD9561607
Probable space group: P 4/M M M
;
_chemical_formula_sum "Si O2"
_cell_formula_units_Z 120
_cell_length_a 19.062351
_cell_length_b 19.062351
_cell_length_c 20.719894
_cell_angle_alpha 90.000000
_cell_angle_beta 90.000000
_cell_angle_gamma 90.000000
_cell_volume 7529.054718
_symmetry_space_group_name_H-M "P 4/M M M"
_symmetry_group_IT_number 123
_symmetry_cell_setting 'tetragonal'
loop_
_space_group_symop_operation_xyz
x,y,z
-y,x,z
-x,-y,z
y,-x,z
x,-y,-z
-x,y,-z
y,x,-z
-y,-x,-z
-x,-y,-z
y,-x,-z
x,y,-z
-y,x,-z
-x,y,z
x,-y,z
-y,-x,z
y,x,z
loop_
_atom_site_type_symbol
_atom_site_label
_atom_site_fract_x
_atom_site_fract_y
_atom_site_fract_z
Si Si1 0.303200 0.578852 0.500000
Si Si2 0.077579 0.804225 0.288032
Si Si3 0.418103 0.193553 0.254867
Si Si4 0.236535 0.883218 0.570599
Si Si5 0.193838 0.311004 0.075057
Si Si6 0.299205 0.583340 0.862625
Si Si7 0.226664 0.345963 0.610936
Si Si8 0.323553 0.917010 0.187475
O O1 0.328034 0.500000 0.500000
O O2 0.367045 0.632956 0.500000
O O3 0.257341 0.596215 0.437076
O O4 0.137920 0.862081 0.282221
O O5 0.078102 0.775391 0.361668
O O6 0.090243 0.741594 0.237285
O O7 0.000000 0.833714 0.275198
O O8 0.500000 0.185713 0.268167
O O9 0.409095 0.259619 0.206338
O O10 0.376250 0.207432 0.320052
O O11 0.387823 0.124245 0.220595
O O12 0.235817 0.918711 0.500000
O O13 0.173946 0.826054 0.568817
O O14 0.307938 0.839529 0.578672
O O15 0.244058 0.244058 0.088629
O O16 0.243577 0.378457 0.089765
O O17 0.127160 0.309828 0.122274
O O18 0.174247 0.310444 0.000000
O O19 0.308993 0.500000 0.875218
O O20 0.370603 0.629398 0.864010
O O21 0.285956 0.285956 0.618215
O O22 0.335356 0.000000 0.177065
#
# Coordination Sequence:
#
# PCOD9561607 Si02
#       8
#     8  16  16  16  16  16  16  16
#     4  10  20  31  44  66  95 127 166 212 260 310
#     4  10  20  33  51  74 100 130 162 198 240 289
#     4  10  19  31  48  69  95 127 162 203 248 293
#     4   9  16  28  47  70  94 121 156 199 244 284
#     4   9  18  33  53  75 100 130 161 197 240 285
#     4   9  18  31  48  72  99 128 163 200 241 290
#     4  10  17  28  47  69  91 119 160 208 251 294
#     4  10  20  33  51  75 100 129 164 199 240 289
#
# _framework density 15.938256000000001
#
# number of rings (size 3 to 8) (size 9 to 14) (size 15 to 20)
#    0.000    2.400    2.000    1.200    0.000    2.467 
#    0.000    0.000    0.000    0.000    0.000    9.333 
#    0.000    4.267    0.000   12.400    0.000    0.000 
#
# Total GULP energy -668399.958099 kJ/mol
# GULP energy per Si atom -5569.999651 kJ/mol
# Density = 1.590198 g / cm^3
# Si number density = 15.938256 Si / 1000 Ang^3
#
#
#
# Elastic Constant Matrix: (Units=GPa)
#
#
# Indices 1 2 3 4 5 6 
#
# 1 80.1534 26.8750 31.1644 0.0000 0.0000 0.0000
# 2 26.8750 80.1531 31.1644 0.0000 0.0000 0.0000
# 3 31.1644 31.1644 96.3407 0.0000 0.0000 0.0000
# 4 0.0000 0.0000 0.0000 8.1772 0.0000 0.0000
# 5 0.0000 0.0000 0.0000 0.0000 8.1780 0.0000
# 6 0.0000 0.0000 0.0000 0.0000 0.0000 12.2676
#
#
#
# Elastic Compliance Matrix: (Units=1/GPa)
#
#
# Indices 1 2 3 4 5 6 
#
# 1 0.015141 -0.003629 -0.003724 0.000000 0.000000 0.000000
# 2 -0.003629 0.015141 -0.003724 0.000000 0.000000 0.000000
# 3 -0.003724 -0.003724 0.012789 0.000000 0.000000 0.000000
# 4 0.000000 0.000000 0.000000 0.122291 0.000000 0.000000
# 5 0.000000 0.000000 0.000000 0.000000 0.122279 0.000000
# 6 0.000000 0.000000 0.000000 0.000000 0.000000 0.081516
#
#
# Mechanical properties :
#
#
# Convention : Reuss Voigt Hill
#
# Bulk Modulus (GPa) = 47.80716 48.33945 48.07330
# Shear Modulus (GPa) = 12.55393 16.88745 14.72069
#
# Velocity S-wave (km/s) = 2.80957 3.25861 3.04239
# Velocity P-wave (km/s) = 6.37066 6.67481 6.52451
#
# Compressibility (1/GPa) = 0.02091737
#
# Stress axis : x y z
#
# Youngs Moduli (GPa) = 66.04731 66.04704 78.19180
#
# Poissons Ratio (x) = 0.23967 0.29118
# Poissons Ratio (y) = 0.23967 0.29118
# Poissons Ratio (z) = 0.24595 0.24595
#
# Static dielectric constant tensor:
#      x y z
#    x 1.517430 0.000000 0.000000 
#    y 0.000000 1.517430 0.000000 
#    z 0.000000 0.000000 1.534320 
# 
# From -- ./inp_files/6857.got.cif
#   From: 2010.05.17/outbox.cif.g08.bks.cpg/sg123_4_cif.got.tgz:6857.got - 2010.05.20 11:43:04.
