data_PCOD9561586
_publ_section_title
;
Structure prediction by ZEFSAII (Michael W. Deem and Ramdas Pophale) SiO2 
 PCOD9561586
Probable space group: I -4 2 D
;
_chemical_formula_sum "Si O2"
_cell_formula_units_Z 52
_cell_length_a 18.000000
_cell_length_b 18.000000
_cell_length_c 18.000000
_cell_angle_alpha 90.000000
_cell_angle_beta 90.000000
_cell_angle_gamma 90.000000
_cell_volume 5832.000000
_symmetry_space_group_name_H-M "I -4 2 D"
_symmetry_group_IT_number 122
_symmetry_cell_setting 'tetragonal'
loop_
_space_group_symop_operation_xyz
x,y,z
y,-x,-z
-x,-y,z
-y,x,-z
x,1/2-y,1/4-z
-x,1/2+y,1/4-z
-y,1/2-x,1/4+z
y,1/2+x,1/4+z
1/2+x,1/2+y,1/2+z
1/2+y,1/2-x,1/2-z
1/2-x,1/2-y,1/2+z
1/2-y,1/2+x,1/2-z
1/2+x,-y,3/4-z
1/2-x,y,3/4-z
1/2-y,-x,3/4+z
1/2+y,x,3/4+z
loop_
_atom_site_type_symbol
_atom_site_label
_atom_site_fract_x
_atom_site_fract_y
_atom_site_fract_z
Si Si1 0.221121 0.818129 0.684375
Si Si2 0.764075 0.438052 0.060957
Si Si3 0.610619 0.883325 0.063037
Si Si4 0.890044 0.048292 0.479325
Si Si5 0.908846 0.146654 0.806575
Si Si6 0.680273 0.268172 0.425621
Si Si7 0.500000 0.500000 0.261512
O O1 0.207283 0.750000 0.625000
O O2 0.255104 0.887006 0.635421
O O3 0.146116 0.839029 0.733904
O O4 0.282502 0.792264 0.746036
O O5 0.795090 0.522588 0.065432
O O6 0.818890 0.404611 0.997854
O O7 0.681908 0.438614 0.028129
O O8 0.577357 0.873766 0.146046
O O9 0.700427 0.878859 0.067978
O O10 0.564006 0.954988 0.033835
O O11 0.961044 0.089846 0.515129
O O12 0.856957 0.164395 0.878376
O O13 0.951254 0.066159 0.801657
O O14 0.750000 0.240637 0.375000
#
# Coordination Sequence:
#
# PCOD9561586 Si02
#       7
#    16  16  16  16  16  16   8
#     4  11  24  42  68 101 132 171 224 271 331 411
#     4  11  24  39  62  97 128 173 215 268 327 396
#     4  11  22  39  62  89 134 170 215 276 326 395
#     4  11  24  35  56  92 132 175 213 254 324 399
#     4  10  25  41  69  91 136 172 220 277 340 389
#     4  10  21  43  67  97 126 175 222 280 329 393
#     4  10  24  42  61  97 128 176 218 270 334 394
#
# _framework density 8.9163239999999995
#
# number of rings (size 3 to 8) (size 9 to 14) (size 15 to 20)
#    0.000    1.385    1.538    3.231   12.923    0.000 
#    0.000    3.077    6.769    0.923    0.000    0.000 
#    0.000    0.000    0.000    0.000    0.000    0.000 
#
# Total GULP energy -289781.852079 kJ/mol
# GULP energy per Si atom -5572.727925 kJ/mol
# Density = 0.889603 g / cm^3
# Si number density = 8.916324 Si / 1000 Ang^3
#
#
#
# Elastic Constant Matrix: (Units=GPa)
#
#
# Indices 1 2 3 4 5 6 
#
# 1 115.3556 47.9920 62.4097 0.0000 0.0000 0.0000
# 2 47.9920 115.3556 62.4097 0.0000 0.0000 0.0000
# 3 62.4097 62.4097 128.1696 0.0000 0.0000 0.0000
# 4 0.0000 0.0000 0.0000 32.8116 0.0000 0.0000
# 5 0.0000 0.0000 0.0000 0.0000 32.8116 0.0000
# 6 0.0000 0.0000 0.0000 0.0000 0.0000 36.2209
#
#
#
# Elastic Compliance Matrix: (Units=1/GPa)
#
#
# Indices 1 2 3 4 5 6 
#
# 1 0.012297 -0.002548 -0.004747 0.000000 0.000000 0.000000
# 2 -0.002548 0.012297 -0.004747 0.000000 0.000000 0.000000
# 3 -0.004747 -0.004747 0.012425 0.000000 0.000000 0.000000
# 4 0.000000 0.000000 0.000000 0.030477 0.000000 0.000000
# 5 0.000000 0.000000 0.000000 0.000000 0.030477 0.000000
# 6 0.000000 0.000000 0.000000 0.000000 0.000000 0.027608
#
#
# Mechanical properties :
#
#
# Convention : Reuss Voigt Hill
#
# Bulk Modulus (GPa) = 77.30911 78.27819 77.79365
# Shear Modulus (GPa) = 32.47207 32.77345 32.62276
#
# Velocity S-wave (km/s) = 4.27187 4.29165 4.28177
# Velocity P-wave (km/s) = 8.23277 8.27943 8.25613
#
# Compressibility (1/GPa) = 0.01293509
#
# Stress axis : x y z
#
# Youngs Moduli (GPa) = 81.31962 81.31962 80.48031
#
# Poissons Ratio (x) = 0.20717 0.38207
# Poissons Ratio (y) = 0.20717 0.38207
# Poissons Ratio (z) = 0.38605 0.38605
#
# Static dielectric constant tensor:
#      x y z
#    x 1.636300 0.000000 0.000000 
#    y 0.000000 1.636300 0.000000 
#    z 0.000000 0.000000 1.612110 
# 
# From -- ./inp_files/6389.got.cif
#   From: 2010.05.17/outbox.ucp.g08.bks.cvg/sg122_4_cif.got.tgz:6389.got - 2010.06.11 11:35:26.
