data_PCOD9561849
_publ_section_title
;
Structure prediction by ZEFSAII (Michael W. Deem and Ramdas Pophale) SiO2 
 PCOD9561849
Probable space group: P 4/M M M
;
_chemical_formula_sum "Si O2"
_cell_formula_units_Z 104
_cell_length_a 27.959248
_cell_length_b 27.959248
_cell_length_c 9.125955
_cell_angle_alpha 90.000000
_cell_angle_beta 90.000000
_cell_angle_gamma 90.000000
_cell_volume 7133.937424
_symmetry_space_group_name_H-M "P 4/M M M"
_symmetry_group_IT_number 123
_symmetry_cell_setting 'tetragonal'
loop_
_space_group_symop_operation_xyz
x,y,z
-y,x,z
-x,-y,z
y,-x,z
x,-y,-z
-x,y,-z
y,x,-z
-y,-x,-z
-x,-y,-z
y,-x,-z
x,y,-z
-y,x,-z
-x,y,z
x,-y,z
-y,-x,z
y,x,z
loop_
_atom_site_type_symbol
_atom_site_label
_atom_site_fract_x
_atom_site_fract_y
_atom_site_fract_z
Si Si1 0.942082 0.500000 0.666847
Si Si2 0.398274 0.717237 0.826533
Si Si3 0.445620 0.371019 0.675557
Si Si4 0.056854 0.400293 0.826749
Si Si5 0.774726 0.301959 0.176241
Si Si6 0.861719 0.649459 0.327938
Si Si7 0.801021 0.552948 0.330107
O O1 0.922869 0.500000 0.500000
O O2 0.930467 0.548826 0.751518
O O3 0.000000 0.500000 0.657195
O O4 0.412105 0.668967 0.745965
O O5 0.346449 0.739334 0.787415
O O6 0.436588 0.756776 0.775389
O O7 0.399120 0.710237 0.000000
O O8 0.445450 0.364515 0.500000
O O9 0.500000 0.366377 0.727965
O O10 0.422411 0.422411 0.707092
O O11 0.088293 0.358576 0.754175
O O12 0.000000 0.392894 0.805807
O O13 0.066508 0.403179 0.000000
O O14 0.746706 0.253295 0.215033
O O15 0.824694 0.313282 0.255653
O O16 0.781671 0.302879 0.000000
O O17 0.868056 0.659085 0.500000
O O18 0.836438 0.597345 0.312438
O O19 0.784505 0.554230 0.500000
O O20 0.821427 0.500000 0.303186
#
# Coordination Sequence:
#
# PCOD9561849 Si02
#       7
#     8  16  16  16  16  16  16
#     4   9  17  29  45  63  83 111 147 185 223 259
#     4  10  19  31  48  69  87 103 126 154 189 235
#     4  10  21  35  49  63  78  97 120 147 181 224
#     4  10  20  33  47  64  88 118 152 187 221 261
#     4   9  18  33  50  66  88 115 139 168 208 255
#     4  10  20  31  46  67  88 113 145 181 220 259
#     4   9  18  31  44  60  85 113 137 165 201 241
#
# _framework density 14.578205000000001
#
# number of rings (size 3 to 8) (size 9 to 14) (size 15 to 20)
#    0.000    2.385    0.000    2.538    1.077    6.923 
#    0.000    0.769    0.000    0.000    0.000    1.077 
#    0.000    0.000    0.000    0.000    0.000    0.000 
#
# Total GULP energy -580099.839240 kJ/mol
# GULP energy per Si atom -5577.883070 kJ/mol
# Density = 1.454502 g / cm^3
# Si number density = 14.578205 Si / 1000 Ang^3
#
#
#
# Elastic Constant Matrix: (Units=GPa)
#
#
# Indices 1 2 3 4 5 6 
#
# 1 55.3791 32.2526 38.1756 0.0000 0.0000 0.0000
# 2 32.2526 55.3791 38.1756 0.0000 0.0000 0.0000
# 3 38.1756 38.1756 55.6482 0.0000 0.0000 0.0000
# 4 0.0000 0.0000 0.0000 16.4546 0.0000 0.0000
# 5 0.0000 0.0000 0.0000 0.0000 16.4546 0.0000
# 6 0.0000 0.0000 0.0000 0.0000 0.0000 20.2513
#
#
#
# Elastic Compliance Matrix: (Units=1/GPa)
#
#
# Indices 1 2 3 4 5 6 
#
# 1 0.035803 -0.007437 -0.019460 0.000000 0.000000 0.000000
# 2 -0.007437 0.035803 -0.019460 0.000000 0.000000 0.000000
# 3 -0.019460 -0.019460 0.044669 0.000000 0.000000 0.000000
# 4 0.000000 0.000000 0.000000 0.060773 0.000000 0.000000
# 5 0.000000 0.000000 0.000000 0.000000 0.060773 0.000000
# 6 0.000000 0.000000 0.000000 0.000000 0.000000 0.049380
#
#
# Mechanical properties :
#
#
# Convention : Reuss Voigt Hill
#
# Bulk Modulus (GPa) = 42.43947 42.62379 42.53163
# Shear Modulus (GPa) = 12.89430 14.48561 13.68996
#
# Velocity S-wave (km/s) = 2.97727 3.15564 3.06775
# Velocity P-wave (km/s) = 6.40263 6.52525 6.46423
#
# Compressibility (1/GPa) = 0.02356297
#
# Stress axis : x y z
#
# Youngs Moduli (GPa) = 27.93050 27.93050 22.38682
#
# Poissons Ratio (x) = 0.20773 0.43564
# Poissons Ratio (y) = 0.20773 0.43564
# Poissons Ratio (z) = 0.54351 0.54351
#
# Static dielectric constant tensor:
#      x y z
#    x 1.488380 0.000000 0.000000 
#    y 0.000000 1.488380 0.000000 
#    z 0.000000 0.000000 1.488110 
# 
# From -- ./inp_files/1923.got.cif
#   From: 2010.05.17/outbox.cif.g08.bks.cpg/sg123_1_cif.got.tgz:1923.got - 2010.05.20 11:43:04.
