data_PCOD9561370
_publ_section_title
;
Structure prediction by ZEFSAII (Michael W. Deem and Ramdas Pophale) SiO2 
 PCOD9561370
Probable space group: I -4 2 D
;
_chemical_formula_sum "Si O2"
_cell_formula_units_Z 64
_cell_length_a 18.362273
_cell_length_b 18.362273
_cell_length_c 10.614011
_cell_angle_alpha 90.000000
_cell_angle_beta 90.000000
_cell_angle_gamma 90.000000
_cell_volume 3578.758671
_symmetry_space_group_name_H-M "I -4 2 D"
_symmetry_group_IT_number 122
_symmetry_cell_setting 'tetragonal'
loop_
_space_group_symop_operation_xyz
x,y,z
y,-x,-z
-x,-y,z
-y,x,-z
x,1/2-y,1/4-z
-x,1/2+y,1/4-z
-y,1/2-x,1/4+z
y,1/2+x,1/4+z
1/2+x,1/2+y,1/2+z
1/2+y,1/2-x,1/2-z
1/2-x,1/2-y,1/2+z
1/2-y,1/2+x,1/2-z
1/2+x,-y,3/4-z
1/2-x,y,3/4-z
1/2-y,-x,3/4+z
1/2+y,x,3/4+z
loop_
_atom_site_type_symbol
_atom_site_label
_atom_site_fract_x
_atom_site_fract_y
_atom_site_fract_z
Si Si1 0.234293 0.406578 0.076439
Si Si2 0.750000 0.472333 0.875000
Si Si3 0.750000 0.784136 0.375000
Si Si4 0.900531 0.935773 0.995568
Si Si5 0.661087 0.147597 0.510074
O O1 0.160505 0.427692 0.147689
O O2 0.293141 0.381990 0.178806
O O3 0.263514 0.473457 0.992095
O O4 0.221816 0.337590 0.984609
O O5 0.686040 0.418727 0.828949
O O6 0.812343 0.732441 0.432792
O O7 0.878547 0.887786 0.875735
O O8 0.979630 0.908883 0.040600
#
# Coordination Sequence:
#
# PCOD9561370 Si02
#       5
#    16   8   8  16  16
#     4  11  23  41  64  97 124 173 209 259 328 372
#     4  11  24  42  64  93 136 158 212 267 316 388
#     4  11  22  36  68  91 124 156 218 263 312 374
#     4  11  24  42  63  92 132 169 213 261 319 388
#     4  12  22  42  65  94 126 165 214 267 311 381
#
# _framework density 17.883295
#
# number of rings (size 3 to 8) (size 9 to 14) (size 15 to 20)
#    0.000    0.750    7.500    0.000    0.000    2.000 
#    4.500    0.000    0.000    0.000    0.000    0.000 
#    0.000    0.000    0.000    0.000    0.000    0.000 
#
# Total GULP energy -178726.404092 kJ/mol
# GULP energy per Si atom -5585.200128 kJ/mol
# Density = 1.784259 g / cm^3
# Si number density = 17.883295 Si / 1000 Ang^3
#
#
#
# Elastic Constant Matrix: (Units=GPa)
#
#
# Indices 1 2 3 4 5 6 
#
# 1 110.5886 56.7948 51.9963 0.0000 0.0000 0.0000
# 2 56.7948 110.5886 51.9963 0.0000 0.0000 0.0000
# 3 51.9963 51.9963 88.8159 0.0000 0.0000 0.0000
# 4 0.0000 0.0000 0.0000 24.6850 0.0000 0.0000
# 5 0.0000 0.0000 0.0000 0.0000 24.6850 0.0000
# 6 0.0000 0.0000 0.0000 0.0000 0.0000 27.7336
#
#
#
# Elastic Compliance Matrix: (Units=1/GPa)
#
#
# Indices 1 2 3 4 5 6 
#
# 1 0.013989 -0.004600 -0.005497 0.000000 0.000000 0.000000
# 2 -0.004600 0.013989 -0.005497 0.000000 0.000000 0.000000
# 3 -0.005497 -0.005497 0.017696 0.000000 0.000000 0.000000
# 4 0.000000 0.000000 0.000000 0.040510 0.000000 0.000000
# 5 0.000000 0.000000 0.000000 0.000000 0.040510 0.000000
# 6 0.000000 0.000000 0.000000 0.000000 0.000000 0.036057
#
#
# Mechanical properties :
#
#
# Convention : Reuss Voigt Hill
#
# Bulk Modulus (GPa) = 69.02924 70.17421 69.60172
# Shear Modulus (GPa) = 25.15475 25.36776 25.26126
#
# Velocity S-wave (km/s) = 3.75454 3.77041 3.76248
# Velocity P-wave (km/s) = 7.58150 7.63413 7.60786
#
# Compressibility (1/GPa) = 0.01448661
#
# Stress axis : x y z
#
# Youngs Moduli (GPa) = 71.48223 71.48223 56.51144
#
# Poissons Ratio (x) = 0.32882 0.31064
# Poissons Ratio (y) = 0.32882 0.31064
# Poissons Ratio (z) = 0.39294 0.39294
#
# Static dielectric constant tensor:
#      x y z
#    x 1.597960 0.000000 0.000000 
#    y 0.000000 1.597960 0.000000 
#    z 0.000000 0.000000 1.597620 
# 
# From -- ./inp_files/4099.got.cif
#   From: 2010.05.17/outbox.cif.g08.bks.cpg/sg122_3_cif.got.tgz:4099.got - 2010.05.20 11:37:33.
