data_PCOD9561997
_publ_section_title
;
Structure prediction by ZEFSAII (Michael W. Deem and Ramdas Pophale) SiO2 
 PCOD9561997
Probable space group: P 4/M M M
;
_chemical_formula_sum "Si O2"
_cell_formula_units_Z 96
_cell_length_a 24.885722
_cell_length_b 24.885722
_cell_length_c 8.955645
_cell_angle_alpha 90.000000
_cell_angle_beta 90.000000
_cell_angle_gamma 90.000000
_cell_volume 5546.223421
_symmetry_space_group_name_H-M "P 4/M M M"
_symmetry_group_IT_number 123
_symmetry_cell_setting 'tetragonal'
loop_
_space_group_symop_operation_xyz
x,y,z
-y,x,z
-x,-y,z
y,-x,z
x,-y,-z
-x,y,-z
y,x,-z
-y,-x,-z
-x,-y,-z
y,-x,-z
x,y,-z
-y,x,-z
-x,y,z
x,-y,z
-y,-x,z
y,x,z
loop_
_atom_site_type_symbol
_atom_site_label
_atom_site_fract_x
_atom_site_fract_y
_atom_site_fract_z
Si Si1 0.651632 0.262188 0.175645
Si Si2 0.000000 0.236742 0.677473
Si Si3 0.436986 0.913104 0.680100
Si Si4 0.212260 0.436460 0.670115
Si Si5 0.805303 0.894922 0.823614
Si Si6 0.180844 0.272204 0.666412
Si Si7 0.000000 0.642778 0.179773
O O1 0.683650 0.316351 0.216422
O O2 0.590788 0.255910 0.224472
O O3 0.678970 0.213242 0.264698
O O4 0.658595 0.254157 0.000000
O O5 0.948800 0.202117 0.730571
O O6 0.000000 0.244127 0.500000
O O7 0.000000 0.296383 0.753694
O O8 0.432325 0.920022 0.500000
O O9 0.500000 0.925868 0.717860
O O10 0.427447 0.850152 0.714043
O O11 0.392867 0.949570 0.761400
O O12 0.219100 0.416612 0.500000
O O13 0.218948 0.500000 0.669136
O O14 0.856453 0.856453 0.786788
O O15 0.751709 0.862030 0.779907
O O16 0.806985 0.905708 0.000000
O O17 0.158911 0.282946 0.500000
O O18 0.225203 0.225203 0.653354
O O19 0.000000 0.645967 0.000000
#
# Coordination Sequence:
#
# PCOD9561997 Si02
#       7
#    16   8  16  16  16  16   8
#     4  10  20  32  48  73 105 139 175 218 266 313
#     4  12  26  41  59  83 111 143 178 215 259 313
#     4   9  19  37  57  74  98 137 181 224 272 321
#     4   9  19  35  54  75 100 134 178 225 270 317
#     4  10  21  39  61  83 110 139 168 210 264 318
#     4   9  17  30  50  75 102 136 174 208 249 306
#     4  12  25  37  52  77 109 139 176 229 274 309
#
# _framework density 17.309075
#
# number of rings (size 3 to 8) (size 9 to 14) (size 15 to 20)
#    0.000    2.167    0.000    4.250    2.333    6.333 
#    0.000    1.667    0.000    0.250    0.000    1.750 
#    0.000    0.333    0.000    3.667    0.000    2.667 
#
# Total GULP energy -535296.480679 kJ/mol
# GULP energy per Si atom -5576.005007 kJ/mol
# Density = 1.726968 g / cm^3
# Si number density = 17.309075 Si / 1000 Ang^3
#
#
#
# Elastic Constant Matrix: (Units=GPa)
#
#
# Indices 1 2 3 4 5 6 
#
# 1 71.1079 42.6667 45.6687 0.0000 0.0000 0.0000
# 2 42.6667 71.1079 45.6687 0.0000 0.0000 0.0000
# 3 45.6687 45.6687 87.8590 0.0000 0.0000 0.0000
# 4 0.0000 0.0000 0.0000 25.5828 0.0000 0.0000
# 5 0.0000 0.0000 0.0000 0.0000 25.5828 0.0000
# 6 0.0000 0.0000 0.0000 0.0000 0.0000 22.8470
#
#
#
# Elastic Compliance Matrix: (Units=1/GPa)
#
#
# Indices 1 2 3 4 5 6 
#
# 1 0.025122 -0.010038 -0.007840 0.000000 0.000000 0.000000
# 2 -0.010038 0.025122 -0.007840 0.000000 0.000000 0.000000
# 3 -0.007840 -0.007840 0.019533 0.000000 0.000000 0.000000
# 4 0.000000 0.000000 0.000000 0.039089 0.000000 0.000000
# 5 0.000000 0.000000 0.000000 0.000000 0.039089 0.000000
# 6 0.000000 0.000000 0.000000 0.000000 0.000000 0.043769
#
#
# Mechanical properties :
#
#
# Convention : Reuss Voigt Hill
#
# Bulk Modulus (GPa) = 54.53082 55.34255 54.93668
# Shear Modulus (GPa) = 20.05825 21.20725 20.63275
#
# Velocity S-wave (km/s) = 3.40785 3.50410 3.45631
# Velocity P-wave (km/s) = 6.85982 6.95803 6.90910
#
# Compressibility (1/GPa) = 0.01833825
#
# Stress axis : x y z
#
# Youngs Moduli (GPa) = 39.80590 39.80590 51.19655
#
# Poissons Ratio (x) = 0.39959 0.40140
# Poissons Ratio (y) = 0.39959 0.40140
# Poissons Ratio (z) = 0.31209 0.31209
#
# Static dielectric constant tensor:
#      x y z
#    x 1.619720 0.000000 0.000000 
#    y 0.000000 1.619720 0.000000 
#    z 0.000000 0.000000 1.588010 
# 
# From -- ./inp_files/1687.got.cif
#   From: 2010.05.17/outbox.cif.g08.bks.cpg/sg123_1_cif.got.tgz:1687.got - 2010.05.20 11:43:04.
