data_PCOD9561993
_publ_section_title
;
Structure prediction by ZEFSAII (Michael W. Deem and Ramdas Pophale) SiO2 
 PCOD9561993
Probable space group: P 4/M M M
;
_chemical_formula_sum "Si O2"
_cell_formula_units_Z 56
_cell_length_a 20.411389
_cell_length_b 20.411389
_cell_length_c 7.767181
_cell_angle_alpha 90.000000
_cell_angle_beta 90.000000
_cell_angle_gamma 90.000000
_cell_volume 3236.000238
_symmetry_space_group_name_H-M "P 4/M M M"
_symmetry_group_IT_number 123
_symmetry_cell_setting 'tetragonal'
loop_
_space_group_symop_operation_xyz
x,y,z
-y,x,z
-x,-y,z
y,-x,z
x,-y,-z
-x,y,-z
y,x,-z
-y,-x,-z
-x,-y,-z
y,-x,-z
x,y,-z
-y,x,-z
-x,y,z
x,-y,z
-y,-x,z
y,x,z
loop_
_atom_site_type_symbol
_atom_site_label
_atom_site_fract_x
_atom_site_fract_y
_atom_site_fract_z
Si Si1 0.819843 0.071807 0.500000
Si Si2 0.320776 0.425424 0.710199
Si Si3 0.786682 0.680388 0.291586
Si Si4 0.284296 0.927365 0.804177
O O1 0.871516 0.128485 0.500000
O O2 0.773498 0.076920 0.666052
O O3 0.850997 0.000000 0.500000
O O4 0.320595 0.426404 0.500000
O O5 0.318143 0.500000 0.770469
O O6 0.385876 0.385876 0.762842
O O7 0.259098 0.380422 0.761126
O O8 0.789716 0.681463 0.500000
O O9 0.746738 0.746738 0.240117
O O10 0.860489 0.675701 0.223612
O O11 0.315958 0.000000 0.777661
O O12 0.260049 0.926364 0.000000
#
# Coordination Sequence:
#
# PCOD9561993 Si02
#       4
#     8  16  16  16
#     4  10  20  33  48  68  95 125 158 198 242 290
#     4   8  14  24  40  66  99 133 167 201 239 286
#     4   9  16  27  45  68  94 125 162 204 246 288
#     4  10  20  32  48  71  96 124 160 202 248 295
#
# _framework density 17.305313000000002
#
# number of rings (size 3 to 8) (size 9 to 14) (size 15 to 20)
#    0.000    2.857    1.429    2.571    0.000    2.714 
#    0.000    1.429    0.000    1.714    0.000   10.000 
#    0.000    0.000    0.000    6.286    0.000    6.286 
#
# Total GULP energy -311836.097407 kJ/mol
# GULP energy per Si atom -5568.501739 kJ/mol
# Density = 1.726593 g / cm^3
# Si number density = 17.305313 Si / 1000 Ang^3
#
#
#
# Elastic Constant Matrix: (Units=GPa)
#
#
# Indices 1 2 3 4 5 6 
#
# 1 137.7792 67.3344 21.8102 0.0000 0.0000 0.0000
# 2 67.3344 137.7779 21.8101 0.0000 0.0000 0.0000
# 3 21.8102 21.8101 59.1647 0.0000 0.0000 0.0000
# 4 0.0000 0.0000 0.0000 -51.4306 0.0000 0.0000
# 5 0.0000 0.0000 0.0000 0.0000 -51.5352 0.0000
# 6 0.0000 0.0000 0.0000 0.0000 0.0000 15.4805
#
#
#
# Elastic Compliance Matrix: (Units=1/GPa)
#
#
# Indices 1 2 3 4 5 6 
#
# 1 0.009743 -0.004453 -0.001950 0.000000 0.000000 0.000000
# 2 -0.004453 0.009743 -0.001950 0.000000 0.000000 0.000000
# 3 -0.001950 -0.001950 0.018340 0.000000 0.000000 0.000000
# 4 0.000000 0.000000 0.000000 -0.019444 0.000000 0.000000
# 5 0.000000 0.000000 0.000000 0.000000 -0.019404 0.000000
# 6 0.000000 0.000000 0.000000 0.000000 0.000000 0.064597
#
#
# Mechanical properties :
#
#
# Convention : Reuss Voigt Hill
#
# Bulk Modulus (GPa) = 47.34968 61.84789 54.59879
# Shear Modulus (GPa) = 57.26025 -2.57924 27.34051
#
# Velocity S-wave (km/s) = 5.75848 -1.22216 3.97910
# Velocity P-wave (km/s) = 8.46370 5.81595 7.26152
#
# Compressibility (1/GPa) = 0.02111947
#
# Stress axis : x y z
#
# Youngs Moduli (GPa) = 102.63984 102.63881 54.52647
#
# Poissons Ratio (x) = 0.45703 0.10633
# Poissons Ratio (y) = 0.45703 0.10633
# Poissons Ratio (z) = 0.20016 0.20016
#
# Static dielectric constant tensor:
#      x y z
#    x 1.593290 0.000000 0.000000 
#    y 0.000000 1.593290 0.000000 
#    z 0.000000 0.000000 1.600400 
# 
# From -- ./inp_files/744.got.cif
#   From: 2010.05.17/outbox.cif.g08.bks.cpg/sg123_1_cif.got.tgz:744.got - 2010.05.20 11:43:04.
