data_PCOD9561477
_publ_section_title
;
Structure prediction by ZEFSAII (Michael W. Deem and Ramdas Pophale) SiO2 
 PCOD9561477
Probable space group: I -4 2 D
;
_chemical_formula_sum "Si O2"
_cell_formula_units_Z 88
_cell_length_a 12.241248
_cell_length_b 12.241248
_cell_length_c 24.002988
_cell_angle_alpha 90.000000
_cell_angle_beta 90.000000
_cell_angle_gamma 90.000000
_cell_volume 3596.803409
_symmetry_space_group_name_H-M "I -4 2 D"
_symmetry_group_IT_number 122
_symmetry_cell_setting 'tetragonal'
loop_
_space_group_symop_operation_xyz
x,y,z
y,-x,-z
-x,-y,z
-y,x,-z
x,1/2-y,1/4-z
-x,1/2+y,1/4-z
-y,1/2-x,1/4+z
y,1/2+x,1/4+z
1/2+x,1/2+y,1/2+z
1/2+y,1/2-x,1/2-z
1/2-x,1/2-y,1/2+z
1/2-y,1/2+x,1/2-z
1/2+x,-y,3/4-z
1/2-x,y,3/4-z
1/2-y,-x,3/4+z
1/2+y,x,3/4+z
loop_
_atom_site_type_symbol
_atom_site_label
_atom_site_fract_x
_atom_site_fract_y
_atom_site_fract_z
Si Si1 0.673496 0.926952 0.674612
Si Si2 0.500000 0.000000 0.250000
Si Si3 0.426952 0.673496 0.924612
Si Si4 0.081051 0.659551 0.012957
Si Si5 0.750000 0.495566 0.375000
Si Si6 0.500000 0.500000 0.500000
Si Si7 0.750000 0.004434 0.375000
Si Si8 0.418949 0.659551 0.237043
O O1 0.750000 0.968540 0.625000
O O2 0.752931 0.872509 0.719878
O O3 0.584982 0.843707 0.649015
O O4 0.603722 0.013483 0.710075
O O5 0.513483 0.896278 0.289925
O O6 0.343707 0.584982 0.899015
O O7 0.372508 0.752931 0.969878
O O8 0.068400 0.702269 0.075333
O O9 0.139628 0.543868 0.007793
O O10 0.956132 0.639628 0.992207
O O11 0.702269 0.931600 0.424667
#
# Coordination Sequence:
#
# PCOD9561477 Si02
#       8
#    16   4  16  16   8   4   8  16
#     4  12  26  44  77 105 148 193 248 308 370 446
#     4  12  28  48  72 122 148 196 252 312 386 444
#     4  12  26  44  77 105 148 193 248 308 370 446
#     4  11  26  45  72 106 146 191 241 301 372 437
#     4  12  25  46  72 105 144 192 245 300 363 442
#     4  12  28  48  72 122 148 196 252 312 386 444
#     4  12  25  46  72 105 144 192 245 300 363 442
#     4  11  26  45  72 106 146 191 241 301 372 437
#
# _framework density 24.466170000000002
#
# number of rings (size 3 to 8) (size 9 to 14) (size 15 to 20)
#    0.000    0.364    7.273    0.545    5.091    0.000 
#    0.000    0.000    0.000    2.182    0.000    0.000 
#    0.000    0.000    0.000    0.000    0.000    0.000 
#
# Total GULP energy -246566.435664 kJ/mol
# GULP energy per Si atom -5603.782629 kJ/mol
# Density = 2.441048 g / cm^3
# Si number density = 24.466170 Si / 1000 Ang^3
#
#
#
# Elastic Constant Matrix: (Units=GPa)
#
#
# Indices 1 2 3 4 5 6 
#
# 1 76.4486 2.0517 48.6508 0.0000 0.0000 0.0000
# 2 2.0517 76.4486 48.6508 0.0000 0.0000 0.0000
# 3 48.6508 48.6508 210.7828 0.0000 0.0000 0.0000
# 4 0.0000 0.0000 0.0000 33.0864 0.0000 0.0000
# 5 0.0000 0.0000 0.0000 0.0000 33.0864 0.0000
# 6 0.0000 0.0000 0.0000 0.0000 0.0000 10.7373
#
#
#
# Elastic Compliance Matrix: (Units=1/GPa)
#
#
# Indices 1 2 3 4 5 6 
#
# 1 0.015643 0.002201 -0.004119 0.000000 0.000000 0.000000
# 2 0.002201 0.015643 -0.004119 0.000000 0.000000 0.000000
# 3 -0.004119 -0.004119 0.006645 0.000000 0.000000 0.000000
# 4 0.000000 0.000000 0.000000 0.030224 0.000000 0.000000
# 5 0.000000 0.000000 0.000000 0.000000 0.030224 0.000000
# 6 0.000000 0.000000 0.000000 0.000000 0.000000 0.093133
#
#
# Mechanical properties :
#
#
# Convention : Reuss Voigt Hill
#
# Bulk Modulus (GPa) = 38.67152 62.48737 50.57945
# Shear Modulus (GPa) = 23.56238 33.00380 28.28309
#
# Velocity S-wave (km/s) = 3.10669 3.67680 3.40370
# Velocity P-wave (km/s) = 5.35809 6.60461 6.01373
#
# Compressibility (1/GPa) = 0.02585882
#
# Stress axis : x y z
#
# Youngs Moduli (GPa) = 63.92810 63.92810 150.47988
#
# Poissons Ratio (x) = -0.14072 0.61975
# Poissons Ratio (y) = -0.14072 0.61975
# Poissons Ratio (z) = 0.26329 0.26329
#
# Static dielectric constant tensor:
#      x y z
#    x 1.948760 0.000000 0.000000 
#    y 0.000000 1.948760 0.000000 
#    z 0.000000 0.000000 1.928880 
# 
# From -- ./inp_files/7256.got.cif
#   From: 2010.05.17/outbox.cif.g08.bks.cpg/sg122_4_cif.got.tgz:7256.got - 2010.05.20 11:37:33.
