data_PCOD9561937
_publ_section_title
;
Structure prediction by ZEFSAII (Michael W. Deem and Ramdas Pophale) SiO2 
 PCOD9561937
Probable space group: P 4/M M M
;
_chemical_formula_sum "Si O2"
_cell_formula_units_Z 88
_cell_length_a 18.457812
_cell_length_b 18.457812
_cell_length_c 13.194396
_cell_angle_alpha 90.000000
_cell_angle_beta 90.000000
_cell_angle_gamma 90.000000
_cell_volume 4495.209643
_symmetry_space_group_name_H-M "P 4/M M M"
_symmetry_group_IT_number 123
_symmetry_cell_setting 'tetragonal'
loop_
_space_group_symop_operation_xyz
x,y,z
-y,x,z
-x,-y,z
y,-x,z
x,-y,-z
-x,y,-z
y,x,-z
-y,-x,-z
-x,-y,-z
y,-x,-z
x,y,-z
-y,x,-z
-x,y,z
x,-y,z
-y,-x,z
y,x,z
loop_
_atom_site_type_symbol
_atom_site_label
_atom_site_fract_x
_atom_site_fract_y
_atom_site_fract_z
Si Si1 0.422231 0.085281 0.376744
Si Si2 0.914590 0.196935 0.826118
Si Si3 0.652218 0.852020 0.881205
Si Si4 0.736084 0.086921 0.387036
Si Si5 0.414418 0.000000 0.118749
Si Si6 0.701184 0.584039 0.123814
O O1 0.423904 0.085688 0.500000
O O2 0.500000 0.116838 0.341759
O O3 0.342790 0.118324 0.356611
O O4 0.423016 0.000000 0.347690
O O5 0.878759 0.121242 0.856059
O O6 0.868367 0.262726 0.872844
O O7 0.904678 0.209284 0.705290
O O8 0.000000 0.203915 0.850463
O O9 0.614817 0.924673 0.838053
O O10 0.622751 0.775762 0.841347
O O11 0.632483 0.849927 0.000000
O O12 0.757060 0.111903 0.500000
O O13 0.725423 0.000000 0.394224
O O14 0.500000 0.000000 0.121731
O O15 0.391171 0.000000 0.000000
O O16 0.698479 0.500000 0.155231
O O17 0.632825 0.632825 0.155977
O O18 0.700879 0.584449 0.000000
#
# Coordination Sequence:
#
# PCOD9561937 Si02
#       6
#    16  16  16  16   8  16
#     4   7   9  16  34  59  86 115 141 166 204 260
#     4  11  23  37  53  71  92 120 163 214 265 321
#     4  10  19  34  53  74 100 131 168 206 248 297
#     4   8  15  29  48  68  92 120 151 191 243 303
#     4   9  16  28  50  76 102 130 158 199 248 288
#     4   9  17  29  47  72 103 140 176 207 242 285
#
# _framework density 19.576395000000002
#
# number of rings (size 3 to 8) (size 9 to 14) (size 15 to 20)
#    0.000    3.000    0.909    2.727    0.000    4.000 
#    0.000    2.727    0.000    0.000    0.000    3.818 
#    0.000    0.000    0.000    0.000    0.000    0.182 
#
# Total GULP energy -490301.810873 kJ/mol
# GULP energy per Si atom -5571.611487 kJ/mol
# Density = 1.953184 g / cm^3
# Si number density = 19.576395 Si / 1000 Ang^3
#
#
#
# Elastic Constant Matrix: (Units=GPa)
#
#
# Indices 1 2 3 4 5 6 
#
# 1 101.5475 81.4646 -0.0197 0.0000 0.0000 0.0000
# 2 81.4646 101.5475 -0.0197 0.0000 0.0000 0.0000
# 3 -0.0197 -0.0197 30.7169 0.0000 0.0000 0.0000
# 4 0.0000 0.0000 0.0000 6.9662 0.0000 0.0000
# 5 0.0000 0.0000 0.0000 0.0000 6.9662 0.0000
# 6 0.0000 0.0000 0.0000 0.0000 0.0000 24.6259
#
#
#
# Elastic Compliance Matrix: (Units=1/GPa)
#
#
# Indices 1 2 3 4 5 6 
#
# 1 0.027629 -0.022165 0.000004 0.000000 0.000000 0.000000
# 2 -0.022165 0.027629 0.000004 0.000000 0.000000 0.000000
# 3 0.000004 0.000004 0.032555 0.000000 0.000000 0.000000
# 4 0.000000 0.000000 0.000000 0.143551 0.000000 0.000000
# 5 0.000000 0.000000 0.000000 0.000000 0.143551 0.000000
# 6 0.000000 0.000000 0.000000 0.000000 0.000000 0.040608
#
#
# Mechanical properties :
#
#
# Convention : Reuss Voigt Hill
#
# Bulk Modulus (GPa) = 22.98976 44.07358 33.53167
# Shear Modulus (GPa) = 10.54104 17.87077 14.20590
#
# Velocity S-wave (km/s) = 2.32298 3.02466 2.69674
# Velocity P-wave (km/s) = 4.35478 5.89581 5.18289
#
# Compressibility (1/GPa) = 0.04349764
#
# Stress axis : x y z
#
# Youngs Moduli (GPa) = 36.19412 36.19412 30.71692
#
# Poissons Ratio (x) = 0.80223 -0.00011
# Poissons Ratio (y) = 0.80223 -0.00011
# Poissons Ratio (z) = -0.00013 -0.00013
#
# Static dielectric constant tensor:
#      x y z
#    x 1.694110 0.000000 0.000000 
#    y 0.000000 1.694110 0.000000 
#    z 0.000000 0.000000 1.781350 
# 
# From -- ./inp_files/4104.got.cif
#   From: 2010.05.17/outbox.cif.g08.bks.cpg/sg123_3_cif.got.tgz:4104.got - 2010.05.20 11:43:04.
