data_PCOD9561352
_publ_section_title
;
Structure prediction by ZEFSAII (Michael W. Deem and Ramdas Pophale) SiO2 
 PCOD9561352
Probable space group: I -4 2 D
;
_chemical_formula_sum "Si O2"
_cell_formula_units_Z 48
_cell_length_a 19.897979
_cell_length_b 19.897979
_cell_length_c 5.074430
_cell_angle_alpha 90.000000
_cell_angle_beta 90.000000
_cell_angle_gamma 90.000000
_cell_volume 2009.116879
_symmetry_space_group_name_H-M "I -4 2 D"
_symmetry_group_IT_number 122
_symmetry_cell_setting 'tetragonal'
loop_
_space_group_symop_operation_xyz
x,y,z
y,-x,-z
-x,-y,z
-y,x,-z
x,1/2-y,1/4-z
-x,1/2+y,1/4-z
-y,1/2-x,1/4+z
y,1/2+x,1/4+z
1/2+x,1/2+y,1/2+z
1/2+y,1/2-x,1/2-z
1/2-x,1/2-y,1/2+z
1/2-y,1/2+x,1/2-z
1/2+x,-y,3/4-z
1/2-x,y,3/4-z
1/2-y,-x,3/4+z
1/2+y,x,3/4+z
loop_
_atom_site_type_symbol
_atom_site_label
_atom_site_fract_x
_atom_site_fract_y
_atom_site_fract_z
Si Si1 0.821718 0.798871 0.877404
Si Si2 0.181497 0.527391 0.202332
Si Si3 0.991756 0.110355 0.452348
O O1 0.829089 0.750000 0.625000
O O2 0.750000 0.837938 0.875000
O O3 0.813976 0.750000 0.125000
O O4 0.893050 0.833926 0.915595
O O5 0.250000 0.525190 0.375000
O O6 0.131020 0.491250 0.399796
O O7 0.171283 0.495335 0.913453
O O8 0.931344 0.060511 0.513209
#
# Coordination Sequence:
#
# PCOD9561352 Si02
#       3
#    16  16  16
#     4   9  17  31  53  83 119 158 192 227 292 374
#     4  11  21  39  65  93 123 157 203 264 316 357
#     4  11  24  43  64  86 120 168 213 247 299 376
#
# _framework density 23.891096999999998
#
# number of rings (size 3 to 8) (size 9 to 14) (size 15 to 20)
#    0.000    1.667    0.000    7.000    0.000    2.667 
#    0.000   10.000    0.000    0.000    0.000    0.000 
#    0.000    0.000    0.000    0.000    0.000    0.000 
#
# Total GULP energy -133987.052665 kJ/mol
# GULP energy per Si atom -5582.793861 kJ/mol
# Density = 2.383672 g / cm^3
# Si number density = 23.891097 Si / 1000 Ang^3
#
#
#
# Elastic Constant Matrix: (Units=GPa)
#
#
# Indices 1 2 3 4 5 6 
#
# 1 60.4203 16.9334 18.8708 0.0000 0.0000 0.0000
# 2 16.9334 60.4203 18.8708 0.0000 0.0000 0.0000
# 3 18.8708 18.8708 163.3002 0.0000 0.0000 0.0000
# 4 0.0000 0.0000 0.0000 20.4901 0.0000 0.0000
# 5 0.0000 0.0000 0.0000 0.0000 20.4901 0.0000
# 6 0.0000 0.0000 0.0000 0.0000 0.0000 27.9634
#
#
#
# Elastic Compliance Matrix: (Units=1/GPa)
#
#
# Indices 1 2 3 4 5 6 
#
# 1 0.018348 -0.004648 -0.001583 0.000000 0.000000 0.000000
# 2 -0.004648 0.018348 -0.001583 0.000000 0.000000 0.000000
# 3 -0.001583 -0.001583 0.006490 0.000000 0.000000 0.000000
# 4 0.000000 0.000000 0.000000 0.048804 0.000000 0.000000
# 5 0.000000 0.000000 0.000000 0.000000 0.048804 0.000000
# 6 0.000000 0.000000 0.000000 0.000000 0.000000 0.035761
#
#
# Mechanical properties :
#
#
# Convention : Reuss Voigt Hill
#
# Bulk Modulus (GPa) = 36.28836 43.72121 40.00479
# Shear Modulus (GPa) = 24.83020 29.08647 26.95833
#
# Velocity S-wave (km/s) = 3.22733 3.49300 3.36279
# Velocity P-wave (km/s) = 5.39533 5.88286 5.64436
#
# Compressibility (1/GPa) = 0.02755705
#
# Stress axis : x y z
#
# Youngs Moduli (GPa) = 54.50263 54.50263 154.09301
#
# Poissons Ratio (x) = 0.25331 0.24395
# Poissons Ratio (y) = 0.25331 0.24395
# Poissons Ratio (z) = 0.08629 0.08629
#
# Static dielectric constant tensor:
#      x y z
#    x 1.940910 0.000000 0.000000 
#    y 0.000000 1.940910 0.000000 
#    z 0.000000 0.000000 1.830550 
# 
# From -- ./inp_files/685.got.cif
#   From: 2010.05.17/outbox.cif.g08.bks.cpg/sg122_1_cif.got.tgz:685.got - 2010.05.20 11:37:33.
