data_PCOD9561569
_publ_section_title
;
Structure prediction by ZEFSAII (Michael W. Deem and Ramdas Pophale) SiO2 
 PCOD9561569
Probable space group: I -4 2 D
;
_chemical_formula_sum "Si O2"
_cell_formula_units_Z 28
_cell_length_a 7.578072
_cell_length_b 7.578072
_cell_length_c 17.294488
_cell_angle_alpha 90.000000
_cell_angle_beta 90.000000
_cell_angle_gamma 90.000000
_cell_volume 993.173593
_symmetry_space_group_name_H-M "I -4 2 D"
_symmetry_group_IT_number 122
_symmetry_cell_setting 'tetragonal'
loop_
_space_group_symop_operation_xyz
x,y,z
y,-x,-z
-x,-y,z
-y,x,-z
x,1/2-y,1/4-z
-x,1/2+y,1/4-z
-y,1/2-x,1/4+z
y,1/2+x,1/4+z
1/2+x,1/2+y,1/2+z
1/2+y,1/2-x,1/2-z
1/2-x,1/2-y,1/2+z
1/2-y,1/2+x,1/2-z
1/2+x,-y,3/4-z
1/2-x,y,3/4-z
1/2-y,-x,3/4+z
1/2+y,x,3/4+z
loop_
_atom_site_type_symbol
_atom_site_label
_atom_site_fract_x
_atom_site_fract_y
_atom_site_fract_z
Si Si1 0.500000 0.500000 0.000000
Si Si2 0.478932 0.750000 0.625000
Si Si3 0.866717 0.846169 0.287897
O O1 0.584089 0.332811 0.043660
O O2 0.337529 0.882022 0.666628
O O3 0.594172 0.686406 0.696987
O O4 0.000000 0.000000 0.310472
#
# Coordination Sequence:
#
# PCOD9561569 Si02
#       3
#     4   8  16
#     4  12  28  56  80 128 172 232 296 378 448 548
#     4  12  32  54  96 126 192 242 312 388 478 548
#     4  12  30  55  89 133 182 244 310 383 469 561
#
# _framework density 28.192450999999998
#
# number of rings (size 3 to 8) (size 9 to 14) (size 15 to 20)
#    0.000    0.000    5.714    0.000   12.000    2.286 
#    0.000    0.000    0.000    0.000    0.000    0.000 
#    0.000    0.000    0.000    0.000    0.000    0.000 
#
# Total GULP energy -78615.532323 kJ/mol
# GULP energy per Si atom -5615.395166 kJ/mol
# Density = 2.812828 g / cm^3
# Si number density = 28.192451 Si / 1000 Ang^3
#
#
#
# Elastic Constant Matrix: (Units=GPa)
#
#
# Indices 1 2 3 4 5 6 
#
# 1 171.1248 35.4381 71.5086 0.0000 0.0000 0.0000
# 2 35.4381 171.1248 71.5086 0.0000 0.0000 0.0000
# 3 71.5086 71.5086 231.2778 0.0000 0.0000 0.0000
# 4 0.0000 0.0000 0.0000 73.1975 0.0000 0.0000
# 5 0.0000 0.0000 0.0000 0.0000 73.1975 0.0000
# 6 0.0000 0.0000 0.0000 0.0000 0.0000 63.0361
#
#
#
# Elastic Compliance Matrix: (Units=1/GPa)
#
#
# Indices 1 2 3 4 5 6 
#
# 1 0.006765 -0.000605 -0.001905 0.000000 0.000000 0.000000
# 2 -0.000605 0.006765 -0.001905 0.000000 0.000000 0.000000
# 3 -0.001905 -0.001905 0.005502 0.000000 0.000000 0.000000
# 4 0.000000 0.000000 0.000000 0.013662 0.000000 0.000000
# 5 0.000000 0.000000 0.000000 0.000000 0.013662 0.000000
# 6 0.000000 0.000000 0.000000 0.000000 0.000000 0.015864
#
#
# Mechanical properties :
#
#
# Convention : Reuss Voigt Hill
#
# Bulk Modulus (GPa) = 98.01098 103.38199 100.69648
# Shear Modulus (GPa) = 67.16120 68.22437 67.69278
#
# Velocity S-wave (km/s) = 4.88612 4.92464 4.90541
# Velocity P-wave (km/s) = 8.16533 8.31178 8.23888
#
# Compressibility (1/GPa) = 0.01020294
#
# Stress axis : x y z
#
# Youngs Moduli (GPa) = 147.82300 147.82299 181.76774
#
# Poissons Ratio (x) = 0.08944 0.34618
# Poissons Ratio (y) = 0.08944 0.34618
# Poissons Ratio (z) = 0.28153 0.28153
#
# Static dielectric constant tensor:
#      x y z
#    x 2.145640 0.000000 0.000000 
#    y 0.000000 2.145640 0.000000 
#    z 0.000000 0.000000 2.210580 
# 
# From -- ./inp_files/5656.got.cif
#   From: 2010.05.17/outbox.cif.g08.bks.cpg/sg122_3_cif.got.tgz:5656.got - 2010.05.20 11:37:33.
