data_PCOD9561454
_publ_section_title
;
Structure prediction by ZEFSAII (Michael W. Deem and Ramdas Pophale) SiO2 
 PCOD9561454
Probable space group: I -4 2 D
;
_chemical_formula_sum "Si O2"
_cell_formula_units_Z 96
_cell_length_a 20.663570
_cell_length_b 20.663570
_cell_length_c 10.877929
_cell_angle_alpha 90.000000
_cell_angle_beta 90.000000
_cell_angle_gamma 90.000000
_cell_volume 4644.692120
_symmetry_space_group_name_H-M "I -4 2 D"
_symmetry_group_IT_number 122
_symmetry_cell_setting 'tetragonal'
loop_
_space_group_symop_operation_xyz
x,y,z
y,-x,-z
-x,-y,z
-y,x,-z
x,1/2-y,1/4-z
-x,1/2+y,1/4-z
-y,1/2-x,1/4+z
y,1/2+x,1/4+z
1/2+x,1/2+y,1/2+z
1/2+y,1/2-x,1/2-z
1/2-x,1/2-y,1/2+z
1/2-y,1/2+x,1/2-z
1/2+x,-y,3/4-z
1/2-x,y,3/4-z
1/2-y,-x,3/4+z
1/2+y,x,3/4+z
loop_
_atom_site_type_symbol
_atom_site_label
_atom_site_fract_x
_atom_site_fract_y
_atom_site_fract_z
Si Si1 0.216199 0.180517 0.588097
Si Si2 0.146251 0.884094 0.212271
Si Si3 0.445182 0.907010 0.753738
Si Si4 0.608603 0.341270 0.256678
Si Si5 0.708138 0.401264 0.103390
Si Si6 0.989911 0.673597 0.653829
O O1 0.246341 0.250000 0.625000
O O2 0.181221 0.154794 0.710023
O O3 0.268741 0.132608 0.532772
O O4 0.158689 0.194838 0.491104
O O5 0.214068 0.903391 0.144928
O O6 0.136208 0.940355 0.314068
O O7 0.090298 0.877794 0.114016
O O8 0.521113 0.915580 0.732831
O O9 0.429751 0.866767 0.875663
O O10 0.672184 0.383044 0.227711
O O11 0.561305 0.345175 0.138400
O O12 0.673575 0.464017 0.042761
O O13 0.981918 0.750000 0.625000
#
# Coordination Sequence:
#
# PCOD9561454 Si02
#       6
#    16  16  16  16  16  16
#     4   9  20  37  64  95 127 157 194 256 321 379
#     4   9  19  42  61  86 123 167 198 247 317 365
#     4  11  25  45  61  82 124 172 215 255 308 372
#     4  12  22  38  62  95 119 163 206 256 311 374
#     4   9  20  37  63  94 125 153 200 259 311 370
#     4   9  18  38  62  85 122 157 194 248 306 362
#
# _framework density 20.668755000000001
#
# number of rings (size 3 to 8) (size 9 to 14) (size 15 to 20)
#    0.000    2.167    1.667    3.500    2.333    0.667 
#   12.000    1.667    0.000    0.000    0.000    0.000 
#    0.000    0.000    0.000    0.000    0.000    0.000 
#
# Total GULP energy -267946.430841 kJ/mol
# GULP energy per Si atom -5582.217309 kJ/mol
# Density = 2.062171 g / cm^3
# Si number density = 20.668755 Si / 1000 Ang^3
#
#
#
# Elastic Constant Matrix: (Units=GPa)
#
#
# Indices 1 2 3 4 5 6 
#
# 1 50.1052 16.9427 7.9194 0.0000 0.0000 0.0000
# 2 16.9427 50.1052 7.9194 0.0000 0.0000 0.0000
# 3 7.9194 7.9194 28.4239 0.0000 0.0000 0.0000
# 4 0.0000 0.0000 0.0000 25.3771 0.0000 0.0000
# 5 0.0000 0.0000 0.0000 0.0000 25.3771 0.0000
# 6 0.0000 0.0000 0.0000 0.0000 0.0000 24.7814
#
#
#
# Elastic Compliance Matrix: (Units=1/GPa)
#
#
# Indices 1 2 3 4 5 6 
#
# 1 0.023060 -0.007095 -0.004448 0.000000 0.000000 0.000000
# 2 -0.007095 0.023060 -0.004448 0.000000 0.000000 0.000000
# 3 -0.004448 -0.004448 0.037660 0.000000 0.000000 0.000000
# 4 0.000000 0.000000 0.000000 0.039406 0.000000 0.000000
# 5 0.000000 0.000000 0.000000 0.000000 0.039406 0.000000
# 6 0.000000 0.000000 0.000000 0.000000 0.000000 0.040353
#
#
# Mechanical properties :
#
#
# Convention : Reuss Voigt Hill
#
# Bulk Modulus (GPa) = 19.30563 21.57749 20.44156
# Shear Modulus (GPa) = 19.82611 21.49732 20.66172
#
# Velocity S-wave (km/s) = 3.10051 3.22854 3.16517
# Velocity P-wave (km/s) = 4.70938 4.93561 4.82382
#
# Compressibility (1/GPa) = 0.05179836
#
# Stress axis : x y z
#
# Youngs Moduli (GPa) = 43.36507 43.36507 26.55307
#
# Poissons Ratio (x) = 0.30765 0.11812
# Poissons Ratio (y) = 0.30765 0.11812
# Poissons Ratio (z) = 0.19290 0.19290
#
# Static dielectric constant tensor:
#      x y z
#    x 1.750070 0.000000 0.000000 
#    y 0.000000 1.750070 0.000000 
#    z 0.000000 0.000000 1.742930 
# 
# From -- ./inp_files/4459.got.cif
#   From: 2010.05.17/outbox.cif.g08.bks.cpg/sg122_3_cif.got.tgz:4459.got - 2010.05.20 11:37:33.
