data_PCOD9561159
_publ_section_title
;
Structure prediction by ZEFSAII (Michael W. Deem and Ramdas Pophale) SiO2 
 PCOD9561159
Probable space group: I -4 2 D
;
_chemical_formula_sum "Si O2"
_cell_formula_units_Z 112
_cell_length_a 31.087434
_cell_length_b 31.087434
_cell_length_c 5.626949
_cell_angle_alpha 90.000000
_cell_angle_beta 90.000000
_cell_angle_gamma 90.000000
_cell_volume 5438.044178
_symmetry_space_group_name_H-M "I -4 2 D"
_symmetry_group_IT_number 122
_symmetry_cell_setting 'tetragonal'
loop_
_space_group_symop_operation_xyz
x,y,z
y,-x,-z
-x,-y,z
-y,x,-z
x,1/2-y,1/4-z
-x,1/2+y,1/4-z
-y,1/2-x,1/4+z
y,1/2+x,1/4+z
1/2+x,1/2+y,1/2+z
1/2+y,1/2-x,1/2-z
1/2-x,1/2-y,1/2+z
1/2-y,1/2+x,1/2-z
1/2+x,-y,3/4-z
1/2-x,y,3/4-z
1/2-y,-x,3/4+z
1/2+y,x,3/4+z
loop_
_atom_site_type_symbol
_atom_site_label
_atom_site_fract_x
_atom_site_fract_y
_atom_site_fract_z
Si Si1 0.488435 0.704567 0.749592
Si Si2 0.914117 0.908604 0.858644
Si Si3 0.728280 0.698207 0.621610
Si Si4 0.846118 0.573838 0.773829
Si Si5 0.874999 0.508343 0.150962
Si Si6 0.275381 0.580323 0.115989
Si Si7 0.846065 0.140529 0.812334
O O1 0.483301 0.750000 0.625000
O O2 0.500012 0.665158 0.575009
O O3 0.530446 0.710828 0.913352
O O4 0.442304 0.691248 0.853644
O O5 0.889655 0.913214 0.610753
O O6 0.964195 0.898784 0.848178
O O7 0.904701 0.954167 0.987011
O O8 0.889868 0.869985 0.997226
O O9 0.730707 0.750000 0.625000
O O10 0.750000 0.682956 0.375000
O O11 0.678661 0.684249 0.600887
O O12 0.750000 0.684134 0.875000
O O13 0.856131 0.530961 0.919840
O O14 0.835695 0.614262 0.933927
O O15 0.250000 0.583091 0.375000
O O16 0.316920 0.610295 0.146845
O O17 0.250000 0.592692 0.875000
#
# Coordination Sequence:
#
# PCOD9561159 Si02
#       7
#    16  16  16  16  16  16  16
#     4  10  23  42  64  94 137 179 225 287 352 421
#     4  10  23  43  66  95 136 177 228 286 352 418
#     4  10  24  46  70  97 136 180 230 291 350 412
#     4  10  25  39  64  97 130 183 223 289 344 424
#     4  10  22  44  65  96 133 176 230 284 352 414
#     4  11  26  41  73 110 134 179 233 298 354 412
#     4  11  24  44  68  98 134 179 232 289 351 423
#
# _framework density 20.595641000000001
#
# number of rings (size 3 to 8) (size 9 to 14) (size 15 to 20)
#    0.000    1.714    1.429    0.429   10.000    3.143 
#    7.714    0.000    0.000    0.000    0.000    0.000 
#    0.000    0.000    0.000    0.000    0.000    0.000 
#
# Total GULP energy -312523.240698 kJ/mol
# GULP energy per Si atom -5580.772155 kJ/mol
# Density = 2.054876 g / cm^3
# Si number density = 20.595641 Si / 1000 Ang^3
#
#
#
# Elastic Constant Matrix: (Units=GPa)
#
#
# Indices 1 2 3 4 5 6 
#
# 1 75.9554 8.7548 12.5866 0.0000 0.0000 0.0000
# 2 8.7548 75.9554 12.5866 0.0000 0.0000 0.0000
# 3 12.5866 12.5866 59.8667 0.0000 0.0000 0.0000
# 4 0.0000 0.0000 0.0000 12.0511 0.0000 0.0000
# 5 0.0000 0.0000 0.0000 0.0000 12.0511 0.0000
# 6 0.0000 0.0000 0.0000 0.0000 0.0000 20.7003
#
#
#
# Elastic Compliance Matrix: (Units=1/GPa)
#
#
# Indices 1 2 3 4 5 6 
#
# 1 0.013736 -0.001145 -0.002647 0.000000 0.000000 0.000000
# 2 -0.001145 0.013736 -0.002647 0.000000 0.000000 0.000000
# 3 -0.002647 -0.002647 0.017817 0.000000 0.000000 0.000000
# 4 0.000000 0.000000 0.000000 0.082980 0.000000 0.000000
# 5 0.000000 0.000000 0.000000 0.000000 0.082980 0.000000
# 6 0.000000 0.000000 0.000000 0.000000 0.000000 0.048309
#
#
# Mechanical properties :
#
#
# Convention : Reuss Voigt Hill
#
# Bulk Modulus (GPa) = 30.85375 31.07039 30.96207
# Shear Modulus (GPa) = 17.65291 20.81714 19.23502
#
# Velocity S-wave (km/s) = 2.93084 3.18269 3.05935
# Velocity P-wave (km/s) = 5.14454 5.35020 5.24838
#
# Compressibility (1/GPa) = 0.03241098
#
# Stress axis : x y z
#
# Youngs Moduli (GPa) = 72.80010 72.80010 56.12641
#
# Poissons Ratio (x) = 0.08333 0.14858
# Poissons Ratio (y) = 0.08333 0.14858
# Poissons Ratio (z) = 0.19272 0.19272
#
# Static dielectric constant tensor:
#      x y z
#    x 1.698950 0.000000 0.000000 
#    y 0.000000 1.698950 0.000000 
#    z 0.000000 0.000000 1.840430 
# 
# From -- ./inp_files/1534.got.cif
#   From: 2010.05.17/outbox.cif.g08.bks.cpg/sg122_1_cif.got.tgz:1534.got - 2010.05.20 11:37:33.
