data_PCOD9561939
_publ_section_title
;
Structure prediction by ZEFSAII (Michael W. Deem and Ramdas Pophale) SiO2 
 PCOD9561939
Probable space group: P 4/M M M
;
_chemical_formula_sum "Si O2"
_cell_formula_units_Z 56
_cell_length_a 18.583719
_cell_length_b 18.583719
_cell_length_c 7.366582
_cell_angle_alpha 90.000000
_cell_angle_beta 90.000000
_cell_angle_gamma 90.000000
_cell_volume 2544.083067
_symmetry_space_group_name_H-M "P 4/M M M"
_symmetry_group_IT_number 123
_symmetry_cell_setting 'tetragonal'
loop_
_space_group_symop_operation_xyz
x,y,z
-y,x,z
-x,-y,z
y,-x,z
x,-y,-z
-x,y,-z
y,x,-z
-y,-x,-z
-x,-y,-z
y,-x,-z
x,y,-z
-y,x,-z
-x,y,z
x,-y,z
-y,-x,z
y,x,z
loop_
_atom_site_type_symbol
_atom_site_label
_atom_site_fract_x
_atom_site_fract_y
_atom_site_fract_z
Si Si1 0.000000 0.584428 0.221076
Si Si2 0.197358 0.802643 0.282171
Si Si3 0.419641 0.697114 0.221862
Si Si4 0.918361 0.918361 0.278974
Si Si5 0.639532 0.846942 0.788514
O O1 0.074147 0.621203 0.286186
O O2 0.000000 0.500000 0.267376
O O3 0.000000 0.589666 0.000000
O O4 0.197486 0.802515 0.500000
O O5 0.139279 0.860722 0.217015
O O6 0.276690 0.826167 0.222928
O O7 0.500000 0.675204 0.273929
O O8 0.358355 0.641646 0.281643
O O9 0.402709 0.777947 0.286477
O O10 0.416908 0.698102 0.000000
O O11 0.917857 0.917857 0.500000
O O12 0.000000 0.901361 0.222933
O O13 0.618915 0.850573 0.000000
#
# Coordination Sequence:
#
# PCOD9561939 Si02
#       5
#     8   8  16   8  16
#     4   9  18  32  55  85 110 137 174 216 266 326
#     4  11  22  33  52  78 103 135 176 218 257 304
#     4   9  16  27  46  72 101 131 164 205 251 299
#     4   8  16  32  51  70  94 127 167 207 247 294
#     4  10  19  34  53  76 106 138 171 211 259 312
#
# _framework density 22.011859999999999
#
# number of rings (size 3 to 8) (size 9 to 14) (size 15 to 20)
#    0.000    2.571    1.429    1.714    2.000    3.714 
#    0.000    1.429    0.000    4.286    0.000    4.000 
#    0.000    1.143    0.000    0.000    0.000    0.000 
#
# Total GULP energy -312804.181624 kJ/mol
# GULP energy per Si atom -5585.788958 kJ/mol
# Density = 2.196176 g / cm^3
# Si number density = 22.011860 Si / 1000 Ang^3
#
#
#
# Elastic Constant Matrix: (Units=GPa)
#
#
# Indices 1 2 3 4 5 6 
#
# 1 153.0492 106.7117 -3.3404 0.0000 0.0000 0.0000
# 2 106.7117 153.0497 -3.3405 0.0000 0.0000 0.0000
# 3 -3.3404 -3.3405 80.2023 0.0000 0.0000 0.0000
# 4 0.0000 0.0000 0.0000 114.6190 0.0000 0.0000
# 5 0.0000 0.0000 0.0000 0.0000 114.6044 0.0000
# 6 0.0000 0.0000 0.0000 0.0000 0.0000 22.8796
#
#
#
# Elastic Compliance Matrix: (Units=1/GPa)
#
#
# Indices 1 2 3 4 5 6 
#
# 1 0.012717 -0.008863 0.000161 0.000000 0.000000 0.000000
# 2 -0.008863 0.012717 0.000161 0.000000 0.000000 0.000000
# 3 0.000161 0.000161 0.012482 0.000000 0.000000 0.000000
# 4 0.000000 0.000000 0.000000 0.008725 0.000000 0.000000
# 5 0.000000 0.000000 0.000000 0.000000 0.008726 0.000000
# 6 0.000000 0.000000 0.000000 0.000000 0.000000 0.043707
#
#
# Mechanical properties :
#
#
# Convention : Reuss Voigt Hill
#
# Bulk Modulus (GPa) = 48.00416 65.15142 56.57779
# Shear Modulus (GPa) = 40.61662 69.50530 55.06096
#
# Velocity S-wave (km/s) = 4.30026 5.62538 5.00685
# Velocity P-wave (km/s) = 6.81997 8.47677 7.69310
#
# Compressibility (1/GPa) = 0.02083153
#
# Stress axis : x y z
#
# Youngs Moduli (GPa) = 78.63327 78.63356 80.11641
#
# Poissons Ratio (x) = 0.69696 -0.01286
# Poissons Ratio (y) = 0.69696 -0.01286
# Poissons Ratio (z) = -0.01262 -0.01262
#
# Static dielectric constant tensor:
#      x y z
#    x 1.772070 0.000000 0.000000 
#    y 0.000000 1.772070 0.000000 
#    z 0.000000 0.000000 1.835000 
# 
# From -- ./inp_files/633.got.cif
#   From: 2010.05.17/outbox.cif.g08.bks.cpg/sg123_1_cif.got.tgz:633.got - 2010.05.20 11:43:04.
