data_PCOD9561895
_publ_section_title
;
Structure prediction by ZEFSAII (Michael W. Deem and Ramdas Pophale) SiO2 
 PCOD9561895
Probable space group: P 4/M M M
;
_chemical_formula_sum "Si O2"
_cell_formula_units_Z 72
_cell_length_a 12.693783
_cell_length_b 12.693783
_cell_length_c 28.594760
_cell_angle_alpha 90.000000
_cell_angle_beta 90.000000
_cell_angle_gamma 90.000000
_cell_volume 4607.534496
_symmetry_space_group_name_H-M "P 4/M M M"
_symmetry_group_IT_number 123
_symmetry_cell_setting 'tetragonal'
loop_
_space_group_symop_operation_xyz
x,y,z
-y,x,z
-x,-y,z
y,-x,z
x,-y,-z
-x,y,-z
y,x,-z
-y,-x,-z
-x,-y,-z
y,-x,-z
x,y,-z
-y,x,-z
-x,y,z
x,-y,z
-y,-x,z
y,x,z
loop_
_atom_site_type_symbol
_atom_site_label
_atom_site_fract_x
_atom_site_fract_y
_atom_site_fract_z
Si Si1 0.000000 0.378681 0.380692
Si Si2 0.704917 0.123643 0.777106
Si Si3 0.792448 0.381658 0.682852
Si Si4 0.124903 0.299537 0.884822
Si Si5 0.500000 0.872076 0.946472
Si Si6 0.000000 0.173708 0.556154
O O1 0.896680 0.366795 0.348358
O O2 0.000000 0.500000 0.398883
O O3 0.000000 0.285852 0.418582
O O4 0.816571 0.183430 0.773951
O O5 0.633344 0.173659 0.736953
O O6 0.666867 0.137908 0.830425
O O7 0.715568 0.000000 0.768360
O O8 0.753015 0.500000 0.675446
O O9 0.705383 0.294618 0.671722
O O10 0.197286 0.197286 0.892529
O O11 0.157955 0.394729 0.918514
O O12 0.000000 0.277288 0.891584
O O13 0.500000 0.000000 0.946988
O O14 0.500000 0.835211 0.000000
O O15 0.102064 0.102064 0.568555
O O16 0.000000 0.185944 0.500000
#
# Coordination Sequence:
#
# PCOD9561895 Si02
#       6
#     8  16  16  16   8   8
#     4  10  19  32  50  74 101 130 163 210 252 290
#     4   9  17  29  45  67  96 126 159 194 234 284
#     4  10  20  32  47  68  95 129 164 203 245 287
#     4   9  18  31  49  72  94 123 155 190 236 283
#     4   9  18  32  48  69  93 119 153 190 229 281
#     4   9  18  33  53  75 101 136 173 207 245 291
#
# _framework density 15.626578
#
# number of rings (size 3 to 8) (size 9 to 14) (size 15 to 20)
#    0.000    2.667    1.111    1.000    1.556    1.333 
#    0.000    2.222    0.000    0.333    0.000    3.889 
#    0.000    0.000    0.000   20.667    0.000    0.000 
#
# Total GULP energy -401066.965126 kJ/mol
# GULP energy per Si atom -5570.374516 kJ/mol
# Density = 1.559101 g / cm^3
# Si number density = 15.626578 Si / 1000 Ang^3
#
#
#
# Elastic Constant Matrix: (Units=GPa)
#
#
# Indices 1 2 3 4 5 6 
#
# 1 99.8735 58.8291 46.4268 0.0000 0.0000 0.0000
# 2 58.8291 99.8735 46.4268 0.0000 0.0000 0.0000
# 3 46.4268 46.4268 61.4896 0.0000 0.0000 0.0000
# 4 0.0000 0.0000 0.0000 23.2774 0.0000 0.0000
# 5 0.0000 0.0000 0.0000 0.0000 23.2774 0.0000
# 6 0.0000 0.0000 0.0000 0.0000 0.0000 11.5935
#
#
#
# Elastic Compliance Matrix: (Units=1/GPa)
#
#
# Indices 1 2 3 4 5 6 
#
# 1 0.017826 -0.006538 -0.008522 0.000000 0.000000 0.000000
# 2 -0.006538 0.017826 -0.008522 0.000000 0.000000 0.000000
# 3 -0.008522 -0.008522 0.029132 0.000000 0.000000 0.000000
# 4 0.000000 0.000000 0.000000 0.042960 0.000000 0.000000
# 5 0.000000 0.000000 0.000000 0.000000 0.042960 0.000000
# 6 0.000000 0.000000 0.000000 0.000000 0.000000 0.086255
#
#
# Mechanical properties :
#
#
# Convention : Reuss Voigt Hill
#
# Bulk Modulus (GPa) = 56.76149 62.73355 59.74752
# Shear Modulus (GPa) = 17.24155 18.93327 18.08741
#
# Velocity S-wave (km/s) = 3.32527 3.48459 3.40586
# Velocity P-wave (km/s) = 7.15163 7.51148 7.33376
#
# Compressibility (1/GPa) = 0.01761758
#
# Stress axis : x y z
#
# Youngs Moduli (GPa) = 56.09913 56.09913 34.32628
#
# Poissons Ratio (x) = 0.36679 0.29254
# Poissons Ratio (y) = 0.36679 0.29254
# Poissons Ratio (z) = 0.47809 0.47809
#
# Static dielectric constant tensor:
#      x y z
#    x 1.504640 0.000000 0.000000 
#    y 0.000000 1.504640 0.000000 
#    z 0.000000 0.000000 1.521160 
# 
# From -- ./inp_files/8297.got.cif
#   From: 2010.05.17/outbox.cif.g08.bks.cpg/sg123_5_cif.got.tgz:8297.got - 2010.05.20 11:43:04.
