data_PCOD9561969
_publ_section_title
;
Structure prediction by ZEFSAII (Michael W. Deem and Ramdas Pophale) SiO2 
 PCOD9561969
Probable space group: P 4/M M M
;
_chemical_formula_sum "Si O2"
_cell_formula_units_Z 128
_cell_length_a 24.253351
_cell_length_b 24.253351
_cell_length_c 13.549153
_cell_angle_alpha 90.000000
_cell_angle_beta 90.000000
_cell_angle_gamma 90.000000
_cell_volume 7969.950994
_symmetry_space_group_name_H-M "P 4/M M M"
_symmetry_group_IT_number 123
_symmetry_cell_setting 'tetragonal'
loop_
_space_group_symop_operation_xyz
x,y,z
-y,x,z
-x,-y,z
y,-x,z
x,-y,-z
-x,y,-z
y,x,-z
-y,-x,-z
-x,-y,-z
y,-x,-z
x,y,-z
-y,x,-z
-x,y,z
x,-y,z
-y,-x,z
y,x,z
loop_
_atom_site_type_symbol
_atom_site_label
_atom_site_fract_x
_atom_site_fract_y
_atom_site_fract_z
Si Si1 0.387374 0.938088 0.293416
Si Si2 0.062330 0.265173 0.616692
Si Si3 0.566203 0.775807 0.807620
Si Si4 0.765252 0.856748 0.214315
Si Si5 0.937727 0.850736 0.881571
Si Si6 0.563222 0.652986 0.118971
Si Si7 0.565233 0.831546 0.609386
Si Si8 0.865850 0.352764 0.114948
O O1 0.329260 0.938385 0.351307
O O2 0.423582 0.892479 0.348422
O O3 0.374876 0.915976 0.183081
O O4 0.409837 0.000000 0.293140
O O5 0.071067 0.259797 0.500000
O O6 0.111299 0.239713 0.681514
O O7 0.000000 0.243916 0.639685
O O8 0.500000 0.786480 0.818312
O O9 0.575693 0.712632 0.835626
O O10 0.583806 0.789982 0.695258
O O11 0.602566 0.816965 0.873418
O O12 0.801245 0.801245 0.220695
O O13 0.799215 0.900142 0.147771
O O14 0.705296 0.848539 0.165446
O O15 0.905137 0.905137 0.846312
O O16 0.000000 0.846879 0.843954
O O17 0.940032 0.853177 0.000000
O O18 0.500000 0.638220 0.144183
O O19 0.606445 0.606445 0.149787
O O20 0.565995 0.658159 0.000000
O O21 0.589776 0.824736 0.500000
O O22 0.500000 0.823880 0.601625
O O23 0.879488 0.345095 0.000000
#
# Coordination Sequence:
#
# PCOD9561969 Si02
#       8
#    16  16  16  16  16  16  16  16
#     4   9  18  31  45  64  90 117 148 189 234 277
#     4   9  17  30  48  66  84 112 151 189 224 269
#     4   9  18  33  51  70  94 124 160 200 238 280
#     4  10  20  32  45  65  94 122 149 186 234 284
#     4   9  17  29  45  64  87 115 145 180 223 270
#     4   9  17  29  47  72 100 129 160 194 235 284
#     4   9  17  29  47  70  93 119 152 191 235 279
#     4  10  20  32  47  67  91 122 159 196 233 279
#
# _framework density 16.060324000000001
#
# number of rings (size 3 to 8) (size 9 to 14) (size 15 to 20)
#    0.000    2.750    0.000    1.500    0.000    4.250 
#    0.000    1.875    0.000    0.375    0.000    3.500 
#    0.000    0.000    0.000   16.500    0.000    0.250 
#
# Total GULP energy -712713.421601 kJ/mol
# GULP energy per Si atom -5568.073606 kJ/mol
# Density = 1.602377 g / cm^3
# Si number density = 16.060324 Si / 1000 Ang^3
#
#
#
# Elastic Constant Matrix: (Units=GPa)
#
#
# Indices 1 2 3 4 5 6 
#
# 1 54.3911 36.0423 16.6112 0.0000 0.0000 0.0000
# 2 36.0423 54.3911 16.6112 0.0000 0.0000 0.0000
# 3 16.6112 16.6112 78.9810 0.0000 0.0000 0.0000
# 4 0.0000 0.0000 0.0000 16.1035 0.0000 0.0000
# 5 0.0000 0.0000 0.0000 0.0000 16.1035 0.0000
# 6 0.0000 0.0000 0.0000 0.0000 0.0000 15.3945
#
#
#
# Elastic Compliance Matrix: (Units=1/GPa)
#
#
# Indices 1 2 3 4 5 6 
#
# 1 0.033242 -0.021258 -0.002520 0.000000 0.000000 0.000000
# 2 -0.021258 0.033242 -0.002520 0.000000 0.000000 0.000000
# 3 -0.002520 -0.002520 0.013721 0.000000 0.000000 0.000000
# 4 0.000000 0.000000 0.000000 0.062098 0.000000 0.000000
# 5 0.000000 0.000000 0.000000 0.000000 0.062098 0.000000
# 6 0.000000 0.000000 0.000000 0.000000 0.000000 0.064958
#
#
# Mechanical properties :
#
#
# Convention : Reuss Voigt Hill
#
# Bulk Modulus (GPa) = 36.22223 36.25473 36.23848
# Shear Modulus (GPa) = 15.09847 17.42021 16.25934
#
# Velocity S-wave (km/s) = 3.06945 3.29701 3.18526
# Velocity P-wave (km/s) = 5.92999 6.09236 6.01172
#
# Compressibility (1/GPa) = 0.02760736
#
# Stress axis : x y z
#
# Youngs Moduli (GPa) = 30.08274 30.08274 72.87859
#
# Poissons Ratio (x) = 0.63950 0.18368
# Poissons Ratio (y) = 0.63950 0.18368
# Poissons Ratio (z) = 0.07582 0.07582
#
# Static dielectric constant tensor:
#      x y z
#    x 1.535520 0.000000 0.000000 
#    y 0.000000 1.535520 0.000000 
#    z 0.000000 0.000000 1.556180 
# 
# From -- ./inp_files/3516.got.cif
#   From: 2010.05.17/outbox.cif.g08.bks.cpg/sg123_2_cif.got.tgz:3516.got - 2010.05.20 11:43:04.
