data_PCOD9561121
_publ_section_title
;
Structure prediction by ZEFSAII (Michael W. Deem and Ramdas Pophale) SiO2 
 PCOD9561121
Probable space group: I -4 2 D
;
_chemical_formula_sum "Si O2"
_cell_formula_units_Z 28
_cell_length_a 12.141717
_cell_length_b 12.141717
_cell_length_c 7.346010
_cell_angle_alpha 90.000000
_cell_angle_beta 90.000000
_cell_angle_gamma 90.000000
_cell_volume 1082.958283
_symmetry_space_group_name_H-M "I -4 2 D"
_symmetry_group_IT_number 122
_symmetry_cell_setting 'tetragonal'
loop_
_space_group_symop_operation_xyz
x,y,z
y,-x,-z
-x,-y,z
-y,x,-z
x,1/2-y,1/4-z
-x,1/2+y,1/4-z
-y,1/2-x,1/4+z
y,1/2+x,1/4+z
1/2+x,1/2+y,1/2+z
1/2+y,1/2-x,1/2-z
1/2-x,1/2-y,1/2+z
1/2-y,1/2+x,1/2-z
1/2+x,-y,3/4-z
1/2-x,y,3/4-z
1/2-y,-x,3/4+z
1/2+y,x,3/4+z
loop_
_atom_site_type_symbol
_atom_site_label
_atom_site_fract_x
_atom_site_fract_y
_atom_site_fract_z
Si Si1 0.750000 0.832040 0.375000
Si Si2 0.010641 0.229342 0.337294
Si Si3 0.500000 0.500000 0.000000
O O1 0.861014 0.760625 0.401939
O O2 0.714650 0.917071 0.537072
O O3 0.979695 0.103551 0.375605
O O4 0.003536 0.250000 0.125000
#
# Coordination Sequence:
#
# PCOD9561121 Si02
#       3
#     8  16   4
#     4  10  24  40  62 102 128 166 232 272 322 420
#     4  10  22  41  67  91 134 174 212 276 336 389
#     4   8  20  44  62 104 136 158 232 284 318 412
#
# _framework density 25.855107
#
# number of rings (size 3 to 8) (size 9 to 14) (size 15 to 20)
#    0.000    2.286    0.000    0.000    4.000   13.714 
#    0.000    2.857    0.000    0.000    0.000    0.000 
#    0.000    0.000    0.000    0.000    0.000    0.000 
#
# Total GULP energy -78310.479322 kJ/mol
# GULP energy per Si atom -5593.605666 kJ/mol
# Density = 2.579626 g / cm^3
# Si number density = 25.855107 Si / 1000 Ang^3
#
#
#
# Elastic Constant Matrix: (Units=GPa)
#
#
# Indices 1 2 3 4 5 6 
#
# 1 97.4861 14.9868 40.5446 0.0000 0.0000 0.0000
# 2 14.9868 97.4861 40.5446 0.0000 0.0000 0.0000
# 3 40.5446 40.5446 210.4359 0.0000 0.0000 0.0000
# 4 0.0000 0.0000 0.0000 34.8065 0.0000 0.0000
# 5 0.0000 0.0000 0.0000 0.0000 34.8065 0.0000
# 6 0.0000 0.0000 0.0000 0.0000 0.0000 30.8995
#
#
#
# Elastic Compliance Matrix: (Units=1/GPa)
#
#
# Indices 1 2 3 4 5 6 
#
# 1 0.011223 -0.000898 -0.001989 0.000000 0.000000 0.000000
# 2 -0.000898 0.011223 -0.001989 0.000000 0.000000 0.000000
# 3 -0.001989 -0.001989 0.005519 0.000000 0.000000 0.000000
# 4 0.000000 0.000000 0.000000 0.028730 0.000000 0.000000
# 5 0.000000 0.000000 0.000000 0.000000 0.028730 0.000000
# 6 0.000000 0.000000 0.000000 0.000000 0.000000 0.032363
#
#
# Mechanical properties :
#
#
# Convention : Reuss Voigt Hill
#
# Bulk Modulus (GPa) = 54.90966 66.39559 60.65262
# Shear Modulus (GPa) = 37.42154 40.72462 39.07308
#
# Velocity S-wave (km/s) = 3.80854 3.97307 3.89167
# Velocity P-wave (km/s) = 6.37366 6.83979 6.61083
#
# Compressibility (1/GPa) = 0.01821173
#
# Stress axis : x y z
#
# Youngs Moduli (GPa) = 89.10024 89.10024 181.20450
#
# Poissons Ratio (x) = 0.08001 0.36048
# Poissons Ratio (y) = 0.08001 0.36048
# Poissons Ratio (z) = 0.17725 0.17725
#
# Static dielectric constant tensor:
#      x y z
#    x 2.110970 0.000000 0.000000 
#    y 0.000000 2.110970 0.000000 
#    z 0.000000 0.000000 1.825100 
# 
# From -- ./inp_files/142.got.cif
#   From: 2010.05.17/outbox.cif.g08.bks.cpg/sg122_1_cif.got.tgz:142.got - 2010.05.20 11:37:33.
