data_PCOD9561358
_publ_section_title
;
Structure prediction by ZEFSAII (Michael W. Deem and Ramdas Pophale) SiO2 
 PCOD9561358
Probable space group: I -4 2 D
;
_chemical_formula_sum "Si O2"
_cell_formula_units_Z 104
_cell_length_a 16.692456
_cell_length_b 16.692456
_cell_length_c 17.201423
_cell_angle_alpha 90.000000
_cell_angle_beta 90.000000
_cell_angle_gamma 90.000000
_cell_volume 4792.971604
_symmetry_space_group_name_H-M "I -4 2 D"
_symmetry_group_IT_number 122
_symmetry_cell_setting 'tetragonal'
loop_
_space_group_symop_operation_xyz
x,y,z
y,-x,-z
-x,-y,z
-y,x,-z
x,1/2-y,1/4-z
-x,1/2+y,1/4-z
-y,1/2-x,1/4+z
y,1/2+x,1/4+z
1/2+x,1/2+y,1/2+z
1/2+y,1/2-x,1/2-z
1/2-x,1/2-y,1/2+z
1/2-y,1/2+x,1/2-z
1/2+x,-y,3/4-z
1/2-x,y,3/4-z
1/2-y,-x,3/4+z
1/2+y,x,3/4+z
loop_
_atom_site_type_symbol
_atom_site_label
_atom_site_fract_x
_atom_site_fract_y
_atom_site_fract_z
Si Si1 0.502814 0.233944 0.953162
Si Si2 0.546869 0.750000 0.125000
Si Si3 0.050941 0.825036 0.179092
Si Si4 0.427739 0.053188 0.631918
Si Si5 0.300876 0.845450 0.800052
Si Si6 0.685298 0.626217 0.157313
Si Si7 0.733541 0.343388 0.620885
O O1 0.512785 0.142654 0.919431
O O2 0.577375 0.279085 0.914436
O O3 0.415871 0.266389 0.923407
O O4 0.503117 0.245038 0.045546
O O5 0.605825 0.673135 0.133600
O O6 0.028404 0.750000 0.125000
O O7 0.065336 0.818372 0.270615
O O8 0.139222 0.843051 0.143931
O O9 0.981396 0.889010 0.170625
O O10 0.383588 0.110474 0.693948
O O11 0.500000 0.000000 0.665453
O O12 0.250000 0.866807 0.875000
O O13 0.311214 0.749866 0.807681
O O14 0.261173 0.867772 0.719285
O O15 0.761145 0.250000 0.625000
#
# Coordination Sequence:
#
# PCOD9561358 Si02
#       7
#    16   8  16  16  16  16  16
#     4  11  26  44  68 100 135 175 243 287 343 427
#     4  12  22  52  74  88 140 184 226 308 350 402
#     4  11  21  41  64  97 135 175 214 273 349 426
#     4  11  23  40  58  95 135 178 209 273 341 409
#     4  11  23  38  62  99 133 170 227 274 331 424
#     4  11  23  42  71 100 131 176 232 285 355 402
#     4  11  21  41  64  97 130 178 223 275 346 412
#
# _framework density 21.698437999999999
#
# number of rings (size 3 to 8) (size 9 to 14) (size 15 to 20)
#    0.000    0.923    6.923    0.462    4.308    0.000 
#    5.538    0.000    1.692    0.000    0.000    0.000 
#    0.000    0.000    0.000    0.000    0.000    0.000 
#
# Total GULP energy -290126.201065 kJ/mol
# GULP energy per Si atom -5579.350020 kJ/mol
# Density = 2.164905 g / cm^3
# Si number density = 21.698438 Si / 1000 Ang^3
#
#
#
# Elastic Constant Matrix: (Units=GPa)
#
#
# Indices 1 2 3 4 5 6 
#
# 1 45.9517 7.7768 24.7329 0.0000 0.0000 0.0000
# 2 7.7768 45.9517 24.7329 0.0000 0.0000 0.0000
# 3 24.7329 24.7329 168.5086 0.0000 0.0000 0.0000
# 4 0.0000 0.0000 0.0000 30.7449 0.0000 0.0000
# 5 0.0000 0.0000 0.0000 0.0000 30.7449 0.0000
# 6 0.0000 0.0000 0.0000 0.0000 0.0000 11.4224
#
#
#
# Elastic Compliance Matrix: (Units=1/GPa)
#
#
# Indices 1 2 3 4 5 6 
#
# 1 0.023858 -0.002338 -0.003159 0.000000 0.000000 0.000000
# 2 -0.002338 0.023858 -0.003159 0.000000 0.000000 0.000000
# 3 -0.003159 -0.003159 0.006862 0.000000 0.000000 0.000000
# 4 0.000000 0.000000 0.000000 0.032526 0.000000 0.000000
# 5 0.000000 0.000000 0.000000 0.000000 0.032526 0.000000
# 6 0.000000 0.000000 0.000000 0.000000 0.000000 0.087547
#
#
# Mechanical properties :
#
#
# Convention : Reuss Voigt Hill
#
# Bulk Modulus (GPa) = 26.83309 41.65523 34.24416
# Shear Modulus (GPa) = 21.10526 28.12708 24.61617
#
# Velocity S-wave (km/s) = 3.12214 3.60428 3.37184
# Velocity P-wave (km/s) = 5.03887 6.04650 5.56554
#
# Compressibility (1/GPa) = 0.03726742
#
# Stress axis : x y z
#
# Youngs Moduli (GPa) = 41.91523 41.91523 145.73793
#
# Poissons Ratio (x) = 0.09798 0.46033
# Poissons Ratio (y) = 0.09798 0.46033
# Poissons Ratio (z) = 0.13239 0.13239
#
# Static dielectric constant tensor:
#      x y z
#    x 1.870340 0.000000 0.000000 
#    y 0.000000 1.870340 0.000000 
#    z 0.000000 0.000000 1.781150 
# 
# From -- ./inp_files/6410.got.cif
#   From: 2010.05.17/outbox.cif.g08.bks.cpg/sg122_4_cif.got.tgz:6410.got - 2010.05.20 11:37:33.
