data_PCOD9561133
_publ_section_title
;
Structure prediction by ZEFSAII (Michael W. Deem and Ramdas Pophale) SiO2 
 PCOD9561133
Probable space group: I -4 2 D
;
_chemical_formula_sum "Si O2"
_cell_formula_units_Z 84
_cell_length_a 11.245618
_cell_length_b 11.245618
_cell_length_c 29.680684
_cell_angle_alpha 90.000000
_cell_angle_beta 90.000000
_cell_angle_gamma 90.000000
_cell_volume 3753.535772
_symmetry_space_group_name_H-M "I -4 2 D"
_symmetry_group_IT_number 122
_symmetry_cell_setting 'tetragonal'
loop_
_space_group_symop_operation_xyz
x,y,z
y,-x,-z
-x,-y,z
-y,x,-z
x,1/2-y,1/4-z
-x,1/2+y,1/4-z
-y,1/2-x,1/4+z
y,1/2+x,1/4+z
1/2+x,1/2+y,1/2+z
1/2+y,1/2-x,1/2-z
1/2-x,1/2-y,1/2+z
1/2-y,1/2+x,1/2-z
1/2+x,-y,3/4-z
1/2-x,y,3/4-z
1/2-y,-x,3/4+z
1/2+y,x,3/4+z
loop_
_atom_site_type_symbol
_atom_site_label
_atom_site_fract_x
_atom_site_fract_y
_atom_site_fract_z
Si Si1 0.740072 0.863385 0.036019
Si Si2 0.750000 0.195478 0.375000
Si Si3 0.142439 0.000000 0.232104
Si Si4 0.500000 0.000000 0.250000
Si Si5 0.695478 0.250000 0.125000
Si Si6 0.259928 0.863385 0.036019
Si Si7 0.000000 0.665413 0.834980
O O1 0.763179 0.785677 0.079914
O O2 0.728891 1.000000 0.048920
O O3 0.616999 0.825172 0.011487
O O4 0.841948 0.841948 0.000000
O O5 0.623105 0.134742 0.360907
O O6 0.174828 0.116999 0.261487
O O7 0.198074 0.000000 0.182016
O O8 0.000000 0.000000 0.228367
O O9 0.393621 0.000000 0.214486
O O10 0.763179 0.214323 0.079914
O O11 0.634742 0.123105 0.139093
#
# Coordination Sequence:
#
# PCOD9561133 Si02
#       7
#    16   8  16   4   8  16  16
#     4  11  23  42  66  97 135 182 232 297 364 442
#     4  12  24  43  71 102 146 178 249 297 370 442
#     4  10  22  42  66  89 135 180 225 285 358 437
#     4  12  28  44  76  96 160 188 232 300 368 448
#     4  12  24  43  71 102 146 178 249 297 370 442
#     4  11  23  42  66  97 135 182 232 297 364 442
#     4  12  24  44  68 109 136 196 237 301 369 436
#
# _framework density 22.378900999999999
#
# number of rings (size 3 to 8) (size 9 to 14) (size 15 to 20)
#    0.000    0.762    5.714    2.286    0.000    3.429 
#    0.000    3.810    0.000    0.000    0.000    0.000 
#    0.000    0.000    0.000    0.000    0.000    0.000 
#
# Total GULP energy -234313.029444 kJ/mol
# GULP energy per Si atom -5578.881653 kJ/mol
# Density = 2.232797 g / cm^3
# Si number density = 22.378901 Si / 1000 Ang^3
#
#
#
# Elastic Constant Matrix: (Units=GPa)
#
#
# Indices 1 2 3 4 5 6 
#
# 1 95.5933 17.5515 44.0134 0.0000 0.0000 0.0000
# 2 17.5515 95.5933 44.0134 0.0000 0.0000 0.0000
# 3 44.0134 44.0134 123.3236 0.0000 0.0000 0.0000
# 4 0.0000 0.0000 0.0000 -28.6403 0.0000 0.0000
# 5 0.0000 0.0000 0.0000 0.0000 -28.6403 0.0000
# 6 0.0000 0.0000 0.0000 0.0000 0.0000 -41.6085
#
#
#
# Elastic Compliance Matrix: (Units=1/GPa)
#
#
# Indices 1 2 3 4 5 6 
#
# 1 0.012525 -0.000289 -0.004367 0.000000 0.000000 0.000000
# 2 -0.000289 0.012525 -0.004367 0.000000 0.000000 0.000000
# 3 -0.004367 -0.004367 0.011226 0.000000 0.000000 0.000000
# 4 0.000000 0.000000 0.000000 -0.034916 0.000000 0.000000
# 5 0.000000 0.000000 0.000000 0.000000 -0.034916 0.000000
# 6 0.000000 0.000000 0.000000 0.000000 0.000000 -0.024034
#
#
# Mechanical properties :
#
#
# Convention : Reuss Voigt Hill
#
# Bulk Modulus (GPa) = 54.85551 58.40742 56.63147
# Shear Modulus (GPa) = -149.39536 -5.84905 -77.62221
#
# Velocity S-wave (km/s) = -8.17937 -1.61843 -5.89582
# Velocity P-wave (km/s) = 8.03975 4.76063 4.58115
#
# Compressibility (1/GPa) = 0.01822971
#
# Stress axis : x y z
#
# Youngs Moduli (GPa) = 79.84260 79.84260 89.08109
#
# Poissons Ratio (x) = 0.02308 0.38900
# Poissons Ratio (y) = 0.02308 0.38900
# Poissons Ratio (z) = 0.34866 0.34866
#
# Static dielectric constant tensor:
#      x y z
#    x 1.907730 0.000000 0.000000 
#    y 0.000000 1.907730 0.000000 
#    z 0.000000 0.000000 1.784800 
# 
# From -- ./inp_files/9567.got.cif
#   From: 2010.05.17/outbox.cif.g08.bks.cpg/sg122_5_cif.got.tgz:9567.got - 2010.05.20 11:37:33.
