data_PCOD9561013
_publ_section_title
;
Structure prediction by ZEFSAII (Michael W. Deem and Ramdas Pophale) SiO2 
 PCOD9561013
Probable space group: I -4 2 D
;
_chemical_formula_sum "Si O2"
_cell_formula_units_Z 84
_cell_length_a 14.787338
_cell_length_b 14.787338
_cell_length_c 18.227971
_cell_angle_alpha 90.000000
_cell_angle_beta 90.000000
_cell_angle_gamma 90.000000
_cell_volume 3985.825934
_symmetry_space_group_name_H-M "I -4 2 D"
_symmetry_group_IT_number 122
_symmetry_cell_setting 'tetragonal'
loop_
_space_group_symop_operation_xyz
x,y,z
y,-x,-z
-x,-y,z
-y,x,-z
x,1/2-y,1/4-z
-x,1/2+y,1/4-z
-y,1/2-x,1/4+z
y,1/2+x,1/4+z
1/2+x,1/2+y,1/2+z
1/2+y,1/2-x,1/2-z
1/2-x,1/2-y,1/2+z
1/2-y,1/2+x,1/2-z
1/2+x,-y,3/4-z
1/2-x,y,3/4-z
1/2-y,-x,3/4+z
1/2+y,x,3/4+z
loop_
_atom_site_type_symbol
_atom_site_label
_atom_site_fract_x
_atom_site_fract_y
_atom_site_fract_z
Si Si1 0.183447 0.507393 0.177828
Si Si2 0.806994 0.572037 0.446739
Si Si3 0.500000 0.500000 0.500000
Si Si4 0.344389 0.616651 0.331451
Si Si5 0.607060 0.244396 0.212847
Si Si6 0.908864 0.749835 0.466113
O O1 0.241130 0.479185 0.247392
O O2 0.164833 0.417303 0.131913
O O3 0.235353 0.571552 0.120887
O O4 0.085356 0.539641 0.205371
O O5 0.750000 0.601207 0.375000
O O6 0.871954 0.488365 0.426248
O O7 0.856802 0.656148 0.483680
O O8 0.250000 0.619306 0.375000
O O9 0.346258 0.671158 0.255113
O O10 0.607462 0.250000 0.125000
O O11 0.504101 0.241040 0.242297
O O12 0.666013 0.155880 0.231978
#
# Coordination Sequence:
#
# PCOD9561013 Si02
#       6
#    16  16   4  16  16  16
#     4  11  22  36  60  90 127 164 202 255 314 387
#     4  11  22  38  64  95 127 164 204 257 325 395
#     4  12  20  36  60 100 136 160 192 246 328 412
#     4  10  21  39  63  95 127 162 203 258 326 392
#     4  11  25  44  67  92 127 173 222 272 319 379
#     4  11  25  43  63  90 124 168 219 267 316 371
#
# _framework density 21.074679
#
# number of rings (size 3 to 8) (size 9 to 14) (size 15 to 20)
#    0.000    1.143    0.000    7.429    0.000    6.476 
#    0.000    1.905    0.000    0.000    0.000    0.000 
#    0.000    0.000    0.000    0.000    0.000    0.000 
#
# Total GULP energy -234736.763534 kJ/mol
# GULP energy per Si atom -5588.970560 kJ/mol
# Density = 2.102671 g / cm^3
# Si number density = 21.074679 Si / 1000 Ang^3
#
#
#
# Elastic Constant Matrix: (Units=GPa)
#
#
# Indices 1 2 3 4 5 6 
#
# 1 110.2842 57.0996 30.5816 0.0000 0.0000 0.0000
# 2 57.0996 110.2842 30.5816 0.0000 0.0000 0.0000
# 3 30.5816 30.5816 101.1589 0.0000 0.0000 0.0000
# 4 0.0000 0.0000 0.0000 36.5592 0.0000 0.0000
# 5 0.0000 0.0000 0.0000 0.0000 36.5592 0.0000
# 6 0.0000 0.0000 0.0000 0.0000 0.0000 2.4496
#
#
#
# Elastic Compliance Matrix: (Units=1/GPa)
#
#
# Indices 1 2 3 4 5 6 
#
# 1 0.012759 -0.006043 -0.002030 0.000000 0.000000 0.000000
# 2 -0.006043 0.012759 -0.002030 0.000000 0.000000 0.000000
# 3 -0.002030 -0.002030 0.011113 0.000000 0.000000 0.000000
# 4 0.000000 0.000000 0.000000 0.027353 0.000000 0.000000
# 5 0.000000 0.000000 0.000000 0.000000 0.027353 0.000000
# 6 0.000000 0.000000 0.000000 0.000000 0.000000 0.408236
#
#
# Mechanical properties :
#
#
# Convention : Reuss Voigt Hill
#
# Bulk Modulus (GPa) = 60.88683 62.02809 61.45746
# Shear Modulus (GPa) = 9.51916 28.67788 19.09852
#
# Velocity S-wave (km/s) = 2.12760 3.69287 3.01363
# Velocity P-wave (km/s) = 5.91517 6.90503 6.42918
#
# Compressibility (1/GPa) = 0.01642391
#
# Stress axis : x y z
#
# Youngs Moduli (GPa) = 78.37402 78.37402 89.98423
#
# Poissons Ratio (x) = 0.47362 0.18270
# Poissons Ratio (y) = 0.47362 0.18270
# Poissons Ratio (z) = 0.15913 0.15913
#
# Static dielectric constant tensor:
#      x y z
#    x 1.763470 0.000000 0.000000 
#    y 0.000000 1.763470 0.000000 
#    z 0.000000 0.000000 1.797140 
# 
# From -- ./inp_files/7195.got.cif
#   From: 2010.05.17/outbox.cif.g08.bks.cpg/sg122_4_cif.got.tgz:7195.got - 2010.05.20 11:37:33.
