data_PCOD9561461
_publ_section_title
;
Structure prediction by ZEFSAII (Michael W. Deem and Ramdas Pophale) SiO2 
 PCOD9561461
Probable space group: I -4 2 D
;
_chemical_formula_sum "Si O2"
_cell_formula_units_Z 52
_cell_length_a 15.913459
_cell_length_b 15.913459
_cell_length_c 8.722752
_cell_angle_alpha 90.000000
_cell_angle_beta 90.000000
_cell_angle_gamma 90.000000
_cell_volume 2208.933818
_symmetry_space_group_name_H-M "I -4 2 D"
_symmetry_group_IT_number 122
_symmetry_cell_setting 'tetragonal'
loop_
_space_group_symop_operation_xyz
x,y,z
y,-x,-z
-x,-y,z
-y,x,-z
x,1/2-y,1/4-z
-x,1/2+y,1/4-z
-y,1/2-x,1/4+z
y,1/2+x,1/4+z
1/2+x,1/2+y,1/2+z
1/2+y,1/2-x,1/2-z
1/2-x,1/2-y,1/2+z
1/2-y,1/2+x,1/2-z
1/2+x,-y,3/4-z
1/2-x,y,3/4-z
1/2-y,-x,3/4+z
1/2+y,x,3/4+z
loop_
_atom_site_type_symbol
_atom_site_label
_atom_site_fract_x
_atom_site_fract_y
_atom_site_fract_z
Si Si1 0.091938 0.593041 0.248741
Si Si2 0.242612 0.842678 0.193281
Si Si3 0.000000 0.000000 0.500000
Si Si4 0.925734 0.154809 0.675905
O O1 0.099085 0.500444 0.323554
O O2 0.165844 0.605659 0.128512
O O3 0.087659 0.655782 0.391089
O O4 0.228960 0.750000 0.125000
O O5 0.250000 0.841055 0.375000
O O6 0.333318 0.869737 0.134062
O O7 0.917333 0.985749 0.393286
O O8 0.947712 0.250000 0.625000
#
# Coordination Sequence:
#
# PCOD9561461 Si02
#       4
#    16  16   4  16
#     4  11  26  46  72 108 150 196 251 315 381 458
#     4  11  25  47  76 106 148 202 253 316 385 458
#     4  12  28  44  86 112 152 212 258 316 380 456
#     4  11  27  49  73 113 153 198 257 316 382 454
#
# _framework density 23.540769000000001
#
# number of rings (size 3 to 8) (size 9 to 14) (size 15 to 20)
#    0.000    0.923    0.000    6.462   12.923    2.462 
#    0.000    0.000    0.000    0.000    0.000    0.000 
#    0.000    0.000    0.000    0.000    0.000    0.000 
#
# Total GULP energy -145495.748209 kJ/mol
# GULP energy per Si atom -5595.990316 kJ/mol
# Density = 2.348719 g / cm^3
# Si number density = 23.540769 Si / 1000 Ang^3
#
#
#
# Elastic Constant Matrix: (Units=GPa)
#
#
# Indices 1 2 3 4 5 6 
#
# 1 125.0109 49.0930 48.6291 0.0000 0.0000 0.0000
# 2 49.0930 125.0109 48.6291 0.0000 0.0000 0.0000
# 3 48.6291 48.6291 153.7128 0.0000 0.0000 0.0000
# 4 0.0000 0.0000 0.0000 38.5525 0.0000 0.0000
# 5 0.0000 0.0000 0.0000 0.0000 38.5525 0.0000
# 6 0.0000 0.0000 0.0000 0.0000 0.0000 38.5605
#
#
#
# Elastic Compliance Matrix: (Units=1/GPa)
#
#
# Indices 1 2 3 4 5 6 
#
# 1 0.010074 -0.003098 -0.002207 0.000000 0.000000 0.000000
# 2 -0.003098 0.010074 -0.002207 0.000000 0.000000 0.000000
# 3 -0.002207 -0.002207 0.007902 0.000000 0.000000 0.000000
# 4 0.000000 0.000000 0.000000 0.025939 0.000000 0.000000
# 5 0.000000 0.000000 0.000000 0.000000 0.025939 0.000000
# 6 0.000000 0.000000 0.000000 0.000000 0.000000 0.025933
#
#
# Mechanical properties :
#
#
# Convention : Reuss Voigt Hill
#
# Bulk Modulus (GPa) = 76.76452 77.38190 77.07321
# Shear Modulus (GPa) = 39.92719 40.29199 40.10959
#
# Velocity S-wave (km/s) = 4.12283 4.14162 4.13223
# Velocity P-wave (km/s) = 7.43933 7.47084 7.45510
#
# Compressibility (1/GPa) = 0.01302685
#
# Stress axis : x y z
#
# Youngs Moduli (GPa) = 99.26157 99.26157 126.54754
#
# Poissons Ratio (x) = 0.30749 0.27931
# Poissons Ratio (y) = 0.30749 0.27931
# Poissons Ratio (z) = 0.21909 0.21909
#
# Static dielectric constant tensor:
#      x y z
#    x 1.973720 0.000000 0.000000 
#    y 0.000000 1.973720 0.000000 
#    z 0.000000 0.000000 1.868990 
# 
# From -- ./inp_files/2212.got.cif
#   From: 2010.05.17/outbox.cif.g08.bks.cpg/sg122_2_cif.got.tgz:2212.got - 2010.05.20 11:37:33.
