data_PCOD9561662
_publ_section_title
;
Structure prediction by ZEFSAII (Michael W. Deem and Ramdas Pophale) SiO2 
 PCOD9561662
Probable space group: P 4/M M M
;
_chemical_formula_sum "Si O2"
_cell_formula_units_Z 48
_cell_length_a 17.020277
_cell_length_b 17.020277
_cell_length_c 10.561970
_cell_angle_alpha 90.000000
_cell_angle_beta 90.000000
_cell_angle_gamma 90.000000
_cell_volume 3059.695285
_symmetry_space_group_name_H-M "P 4/M M M"
_symmetry_group_IT_number 123
_symmetry_cell_setting 'tetragonal'
loop_
_space_group_symop_operation_xyz
x,y,z
-y,x,z
-x,-y,z
y,-x,z
x,-y,-z
-x,y,-z
y,x,-z
-y,-x,-z
-x,-y,-z
y,-x,-z
x,y,-z
-y,x,-z
-x,y,z
x,-y,z
-y,-x,z
y,x,z
loop_
_atom_site_type_symbol
_atom_site_label
_atom_site_fract_x
_atom_site_fract_y
_atom_site_fract_z
Si Si1 0.591658 0.725930 0.000000
Si Si2 0.908523 0.778415 0.651148
Si Si3 0.588643 0.722014 0.500000
Si Si4 0.207576 0.657958 0.746321
O O1 0.612205 0.776931 0.875746
O O2 0.500000 0.703495 0.000000
O O3 0.649659 0.649659 0.000000
O O4 0.899020 0.762696 0.500000
O O5 0.854381 0.854381 0.679132
O O6 0.873653 0.704147 0.726548
O O7 0.000000 0.792175 0.676477
O O8 0.500000 0.692450 0.500000
O O9 0.650484 0.650484 0.500000
O O10 0.605033 0.773346 0.624746
O O11 0.272853 0.727148 0.743303
#
# Coordination Sequence:
#
# PCOD9561662 Si02
#       4
#     8  16   8  16
#     4  10  20  33  51  73  96 124 160 202 246 290
#     4   9  16  28  49  75 101 128 159 197 238 282
#     4  10  18  29  47  67  90 120 154 196 242 286
#     4   9  17  31  48  68  94 128 163 191 230 287
#
# _framework density 15.687835
#
# number of rings (size 3 to 8) (size 9 to 14) (size 15 to 20)
#    0.000    2.667    1.667    1.000    0.000    0.667 
#    0.000    2.500    0.000   12.000    0.000    0.000 
#    0.000    6.667    0.000    0.000    0.000    0.000 
#
# Total GULP energy -267293.214733 kJ/mol
# GULP energy per Si atom -5568.608640 kJ/mol
# Density = 1.565213 g / cm^3
# Si number density = 15.687835 Si / 1000 Ang^3
#
#
#
# Elastic Constant Matrix: (Units=GPa)
#
#
# Indices 1 2 3 4 5 6 
#
# 1 72.2603 66.8728 45.2836 0.0000 0.0000 0.0000
# 2 66.8728 72.2603 45.2836 0.0000 0.0000 0.0000
# 3 45.2836 45.2836 113.5584 0.0000 0.0000 0.0000
# 4 0.0000 0.0000 0.0000 11.4346 0.0000 0.0000
# 5 0.0000 0.0000 0.0000 0.0000 11.4346 0.0000
# 6 0.0000 0.0000 0.0000 0.0000 0.0000 14.5376
#
#
#
# Elastic Compliance Matrix: (Units=1/GPa)
#
#
# Indices 1 2 3 4 5 6 
#
# 1 0.097661 -0.087954 -0.003871 0.000000 0.000000 0.000000
# 2 -0.087954 0.097661 -0.003871 0.000000 0.000000 0.000000
# 3 -0.003871 -0.003871 0.011893 0.000000 0.000000 0.000000
# 4 0.000000 0.000000 0.000000 0.087454 0.000000 0.000000
# 5 0.000000 0.000000 0.000000 0.000000 0.087454 0.000000
# 6 0.000000 0.000000 0.000000 0.000000 0.000000 0.068787
#
#
# Mechanical properties :
#
#
# Convention : Reuss Voigt Hill
#
# Bulk Modulus (GPa) = 63.19582 63.66212 63.42897
# Shear Modulus (GPa) = 7.72109 14.19063 10.95586
#
# Velocity S-wave (km/s) = 2.22090 3.01086 2.64553
# Velocity P-wave (km/s) = 6.85181 7.26331 7.06056
#
# Compressibility (1/GPa) = 0.01582383
#
# Stress axis : x y z
#
# Youngs Moduli (GPa) = 10.23949 10.23949 84.08160
#
# Poissons Ratio (x) = 0.90060 0.32547
# Poissons Ratio (y) = 0.90060 0.32547
# Poissons Ratio (z) = 0.03964 0.03964
#
# Static dielectric constant tensor:
#      x y z
#    x 1.512340 0.000000 0.000000 
#    y 0.000000 1.512340 0.000000 
#    z 0.000000 0.000000 1.532450 
# 
# From -- ./inp_files/466.got.cif
#   From: 2010.05.17/outbox.cif.g08.bks.cpg/sg123_1_cif.got.tgz:466.got - 2010.05.20 11:43:04.
