data_PCOD9561273
_publ_section_title
;
Structure prediction by ZEFSAII (Michael W. Deem and Ramdas Pophale) SiO2 
 PCOD9561273
Probable space group: I -4 2 D
;
_chemical_formula_sum "Si O2"
_cell_formula_units_Z 32
_cell_length_a 11.819873
_cell_length_b 11.819873
_cell_length_c 7.435610
_cell_angle_alpha 90.000000
_cell_angle_beta 90.000000
_cell_angle_gamma 90.000000
_cell_volume 1038.824595
_symmetry_space_group_name_H-M "I -4 2 D"
_symmetry_group_IT_number 122
_symmetry_cell_setting 'tetragonal'
loop_
_space_group_symop_operation_xyz
x,y,z
y,-x,-z
-x,-y,z
-y,x,-z
x,1/2-y,1/4-z
-x,1/2+y,1/4-z
-y,1/2-x,1/4+z
y,1/2+x,1/4+z
1/2+x,1/2+y,1/2+z
1/2+y,1/2-x,1/2-z
1/2-x,1/2-y,1/2+z
1/2-y,1/2+x,1/2-z
1/2+x,-y,3/4-z
1/2-x,y,3/4-z
1/2-y,-x,3/4+z
1/2+y,x,3/4+z
loop_
_atom_site_type_symbol
_atom_site_label
_atom_site_fract_x
_atom_site_fract_y
_atom_site_fract_z
Si Si1 0.158843 0.615278 0.631747
Si Si2 0.878058 0.909531 0.797148
O O1 0.154551 0.750000 0.625000
O O2 0.100098 0.547057 0.466479
O O3 0.113360 0.601253 0.833985
O O4 0.289827 0.575938 0.627673
O O5 0.750000 0.901476 0.875000
#
# Coordination Sequence:
#
# PCOD9561273 Si02
#       2
#    16  16
#     4  10  24  47  73 105 147 193 257 313 386 471
#     4  10  24  45  73 106 145 199 247 321 382 460
#
# _framework density 30.804044999999999
#
# number of rings (size 3 to 8) (size 9 to 14) (size 15 to 20)
#    0.000    2.000    0.000    0.000   21.000    1.000 
#    0.000    0.000    0.000    0.000    0.000    0.000 
#    0.000    0.000    0.000    0.000    0.000    0.000 
#
# Total GULP energy -89143.026347 kJ/mol
# GULP energy per Si atom -5571.439147 kJ/mol
# Density = 3.073393 g / cm^3
# Si number density = 30.804045 Si / 1000 Ang^3
#
#
#
# Elastic Constant Matrix: (Units=GPa)
#
#
# Indices 1 2 3 4 5 6 
#
# 1 177.5925 19.0670 7.5588 0.0000 0.0000 0.0000
# 2 19.0670 177.5925 7.5588 0.0000 0.0000 0.0000
# 3 7.5588 7.5588 74.2311 0.0000 0.0000 0.0000
# 4 0.0000 0.0000 0.0000 62.2953 0.0000 0.0000
# 5 0.0000 0.0000 0.0000 0.0000 62.2953 0.0000
# 6 0.0000 0.0000 0.0000 0.0000 0.0000 -7.1790
#
#
#
# Elastic Compliance Matrix: (Units=1/GPa)
#
#
# Indices 1 2 3 4 5 6 
#
# 1 0.005717 -0.000592 -0.000522 0.000000 0.000000 0.000000
# 2 -0.000592 0.005717 -0.000522 0.000000 0.000000 0.000000
# 3 -0.000522 -0.000522 0.013578 0.000000 0.000000 0.000000
# 4 0.000000 0.000000 0.000000 0.016053 0.000000 0.000000
# 5 0.000000 0.000000 0.000000 0.000000 0.016053 0.000000
# 6 0.000000 0.000000 0.000000 0.000000 0.000000 -0.139296
#
#
# Mechanical properties :
#
#
# Convention : Reuss Voigt Hill
#
# Bulk Modulus (GPa) = 45.99748 55.30950 50.65349
# Shear Modulus (GPa) = -69.77171 49.83110 -9.97031
#
# Velocity S-wave (km/s) = -4.76438 4.02640 -1.80103
# Velocity P-wave (km/s) = 3.91166 6.29366 3.48633
#
# Compressibility (1/GPa) = 0.02174032
#
# Stress axis : x y z
#
# Youngs Moduli (GPa) = 174.92946 174.92946 73.65004
#
# Poissons Ratio (x) = 0.10348 0.03844
# Poissons Ratio (y) = 0.10348 0.03844
# Poissons Ratio (z) = 0.09129 0.09129
#
# Static dielectric constant tensor:
#      x y z
#    x 2.738810 0.000000 0.000000 
#    y 0.000000 2.738810 0.000000 
#    z 0.000000 0.000000 2.276230 
# 
# From -- ./inp_files/1688.got.cif
#   From: 2010.05.17/outbox.cif.g08.bks.cpg/sg122_1_cif.got.tgz:1688.got - 2010.05.20 11:37:33.
