data_PCOD9561852
_publ_section_title
;
Structure prediction by ZEFSAII (Michael W. Deem and Ramdas Pophale) SiO2 
 PCOD9561852
Probable space group: P 4/M M M
;
_chemical_formula_sum "Si O2"
_cell_formula_units_Z 96
_cell_length_a 16.037693
_cell_length_b 16.037693
_cell_length_c 20.637139
_cell_angle_alpha 90.000000
_cell_angle_beta 90.000000
_cell_angle_gamma 90.000000
_cell_volume 5308.028926
_symmetry_space_group_name_H-M "P 4/M M M"
_symmetry_group_IT_number 123
_symmetry_cell_setting 'tetragonal'
loop_
_space_group_symop_operation_xyz
x,y,z
-y,x,z
-x,-y,z
y,-x,z
x,-y,-z
-x,y,-z
y,x,-z
-y,-x,-z
-x,-y,-z
y,-x,-z
x,y,-z
-y,x,-z
-x,y,z
x,-y,z
-y,-x,z
y,x,z
loop_
_atom_site_type_symbol
_atom_site_label
_atom_site_fract_x
_atom_site_fract_y
_atom_site_fract_z
Si Si1 0.908574 0.227357 0.730673
Si Si2 0.726316 0.409618 0.802731
Si Si3 0.593373 0.159002 0.925917
Si Si4 0.592962 0.862124 0.688812
Si Si5 0.594117 0.268959 0.424236
Si Si6 0.093482 0.769415 0.112998
O O1 0.832651 0.167349 0.709413
O O2 0.907734 0.319495 0.699762
O O3 0.900532 0.237146 0.808678
O O4 0.000000 0.189063 0.718281
O O5 0.684398 0.500000 0.799518
O O6 0.664097 0.335904 0.789650
O O7 0.768226 0.400381 0.872980
O O8 0.798082 0.408496 0.749059
O O9 0.500000 0.120189 0.916160
O O10 0.675962 0.104639 0.914273
O O11 0.595849 0.188687 0.000000
O O12 0.500000 0.902761 0.688937
O O13 0.600282 0.809628 0.622785
O O14 0.605132 0.247026 0.500000
O O15 0.500000 0.302850 0.416796
O O16 0.662082 0.337919 0.406559
O O17 0.166462 0.833539 0.091889
O O18 0.000000 0.799758 0.097050
#
# Coordination Sequence:
#
# PCOD9561852 Si02
#       6
#    16  16  16  16  16  16
#     4  10  20  34  54  79 107 139 175 216 261 312
#     4  10  19  31  48  70  97 131 170 213 260 307
#     4  10  21  36  54  76 100 130 171 217 262 307
#     4  10  19  32  52  77 105 136 171 214 260 308
#     4   9  17  28  44  69 102 141 181 219 261 310
#     4  10  21  36  55  79 106 137 172 211 258 314
#
# _framework density 18.085809999999999
#
# number of rings (size 3 to 8) (size 9 to 14) (size 15 to 20)
#    0.000    2.167    1.667    2.000    0.000    3.000 
#    0.000    5.000    0.000    3.500    0.000    5.833 
#    0.000    0.000    0.000    3.500    0.000    0.167 
#
# Total GULP energy -534777.943969 kJ/mol
# GULP energy per Si atom -5570.603583 kJ/mol
# Density = 1.804465 g / cm^3
# Si number density = 18.085810 Si / 1000 Ang^3
#
#
#
# Elastic Constant Matrix: (Units=GPa)
#
#
# Indices 1 2 3 4 5 6 
#
# 1 93.3865 58.5138 17.6363 0.0000 0.0000 0.0000
# 2 58.5138 93.3865 17.6363 0.0000 0.0000 0.0000
# 3 17.6363 17.6363 42.0394 0.0000 0.0000 0.0000
# 4 0.0000 0.0000 0.0000 -15.3544 0.0000 0.0000
# 5 0.0000 0.0000 0.0000 0.0000 -15.3544 0.0000
# 6 0.0000 0.0000 0.0000 0.0000 0.0000 -8.7622
#
#
#
# Elastic Compliance Matrix: (Units=1/GPa)
#
#
# Indices 1 2 3 4 5 6 
#
# 1 0.017985 -0.010691 -0.003060 0.000000 0.000000 0.000000
# 2 -0.010691 0.017985 -0.003060 0.000000 0.000000 0.000000
# 3 -0.003060 -0.003060 0.026355 0.000000 0.000000 0.000000
# 4 0.000000 0.000000 0.000000 -0.065128 0.000000 0.000000
# 5 0.000000 0.000000 0.000000 0.000000 -0.065128 0.000000
# 6 0.000000 0.000000 0.000000 0.000000 0.000000 -0.114127
#
#
# Mechanical properties :
#
#
# Convention : Reuss Voigt Hill
#
# Bulk Modulus (GPa) = 34.84001 46.26502 40.55251
# Shear Modulus (GPa) = -36.00490 1.10754 -17.44868
#
# Velocity S-wave (km/s) = -4.46666 0.78340 -3.10945
# Velocity P-wave (km/s) = 2.70108 5.14341 3.09506
#
# Compressibility (1/GPa) = 0.02870263
#
# Stress axis : x y z
#
# Youngs Moduli (GPa) = 55.60268 55.60268 37.94408
#
# Poissons Ratio (x) = 0.59445 0.11610
# Poissons Ratio (y) = 0.59445 0.11610
# Poissons Ratio (z) = 0.17014 0.17014
#
# Static dielectric constant tensor:
#      x y z
#    x 1.633190 0.000000 0.000000 
#    y 0.000000 1.633190 0.000000 
#    z 0.000000 0.000000 1.604700 
# 
# From -- ./inp_files/6456.got.cif
#   From: 2010.05.17/outbox.cif.g08.bks.cpg/sg123_4_cif.got.tgz:6456.got - 2010.05.20 11:43:04.
