data_PCOD9561157
_publ_section_title
;
Structure prediction by ZEFSAII (Michael W. Deem and Ramdas Pophale) SiO2 
 PCOD9561157
Probable space group: I -4 2 D
;
_chemical_formula_sum "Si O2"
_cell_formula_units_Z 64
_cell_length_a 11.801723
_cell_length_b 11.801723
_cell_length_c 19.522695
_cell_angle_alpha 90.000000
_cell_angle_beta 90.000000
_cell_angle_gamma 90.000000
_cell_volume 2719.133957
_symmetry_space_group_name_H-M "I -4 2 D"
_symmetry_group_IT_number 122
_symmetry_cell_setting 'tetragonal'
loop_
_space_group_symop_operation_xyz
x,y,z
y,-x,-z
-x,-y,z
-y,x,-z
x,1/2-y,1/4-z
-x,1/2+y,1/4-z
-y,1/2-x,1/4+z
y,1/2+x,1/4+z
1/2+x,1/2+y,1/2+z
1/2+y,1/2-x,1/2-z
1/2-x,1/2-y,1/2+z
1/2-y,1/2+x,1/2-z
1/2+x,-y,3/4-z
1/2-x,y,3/4-z
1/2-y,-x,3/4+z
1/2+y,x,3/4+z
loop_
_atom_site_type_symbol
_atom_site_label
_atom_site_fract_x
_atom_site_fract_y
_atom_site_fract_z
Si Si1 0.809954 0.081113 0.605826
Si Si2 0.430244 0.128309 0.122094
Si Si3 0.925390 0.103316 0.212980
Si Si4 0.032540 0.317372 0.253944
O O1 0.704397 0.118330 0.560380
O O2 0.936913 0.133599 0.606644
O O3 0.850073 0.954747 0.585248
O O4 0.750270 0.081662 0.680576
O O5 0.378582 0.250000 0.125000
O O6 0.422352 0.086298 0.044057
O O7 0.995305 0.218083 0.203149
O O8 0.000000 0.000000 0.182252
O O9 0.914386 0.382270 0.271249
#
# Coordination Sequence:
#
# PCOD9561157 Si02
#       4
#    16  16  16  16
#     4  10  23  42  63  96 127 169 214 267 329 377
#     4  10  22  44  64  92 135 159 218 275 313 397
#     4  11  23  42  68  94 130 173 215 272 327 390
#     4  10  23  42  62  94 134 167 219 267 315 399
#
# _framework density 23.536905999999998
#
# number of rings (size 3 to 8) (size 9 to 14) (size 15 to 20)
#    0.000    1.750    5.000    0.000    7.000    6.000 
#    0.000    2.500    0.000    0.000    0.000    0.000 
#    0.000    0.000    0.000    0.000    0.000    0.000 
#
# Total GULP energy -178366.028597 kJ/mol
# GULP energy per Si atom -5573.938394 kJ/mol
# Density = 2.348333 g / cm^3
# Si number density = 23.536906 Si / 1000 Ang^3
#
#
#
# Elastic Constant Matrix: (Units=GPa)
#
#
# Indices 1 2 3 4 5 6 
#
# 1 101.7630 -10.1884 -1.5485 0.0000 0.0000 0.0000
# 2 -10.1884 101.7630 -1.5485 0.0000 0.0000 0.0000
# 3 -1.5485 -1.5485 39.0183 0.0000 0.0000 0.0000
# 4 0.0000 0.0000 0.0000 39.7298 0.0000 0.0000
# 5 0.0000 0.0000 0.0000 0.0000 39.7298 0.0000
# 6 0.0000 0.0000 0.0000 0.0000 0.0000 -9.3441
#
#
#
# Elastic Compliance Matrix: (Units=1/GPa)
#
#
# Indices 1 2 3 4 5 6 
#
# 1 0.009934 0.001001 0.000434 0.000000 0.000000 0.000000
# 2 0.001001 0.009934 0.000434 0.000000 0.000000 0.000000
# 3 0.000434 0.000434 0.025663 0.000000 0.000000 0.000000
# 4 0.000000 0.000000 0.000000 0.025170 0.000000 0.000000
# 5 0.000000 0.000000 0.000000 0.000000 0.025170 0.000000
# 6 0.000000 0.000000 0.000000 0.000000 0.000000 -0.107020
#
#
# Mechanical properties :
#
#
# Convention : Reuss Voigt Hill
#
# Bulk Modulus (GPa) = 20.29684 23.99705 22.14694
# Shear Modulus (GPa) = 3255.69322 31.07840 1643.38581
#
# Velocity S-wave (km/s) = 37.23214 3.63769 26.45245
# Velocity P-wave (km/s) = 43.09236 5.27838 30.69864
#
# Compressibility (1/GPa) = 0.04926874
#
# Stress axis : x y z
#
# Youngs Moduli (GPa) = 100.66848 100.66848 38.96598
#
# Poissons Ratio (x) = -0.10078 -0.01691
# Poissons Ratio (y) = -0.10078 -0.01691
# Poissons Ratio (z) = -0.04369 -0.04369
#
# Static dielectric constant tensor:
#      x y z
#    x 1.871210 0.000000 0.000000 
#    y 0.000000 1.871210 0.000000 
#    z 0.000000 0.000000 1.939680 
# 
# From -- ./inp_files/6932.got.cif
#   From: 2010.05.17/outbox.cif.g08.bks.cpg/sg122_4_cif.got.tgz:6932.got - 2010.05.20 11:37:33.
