data_PCOD9561506
_publ_section_title
;
Structure prediction by ZEFSAII (Michael W. Deem and Ramdas Pophale) SiO2 
 PCOD9561506
Probable space group: I -4 2 D
;
_chemical_formula_sum "Si O2"
_cell_formula_units_Z 36
_cell_length_a 12.375249
_cell_length_b 12.375249
_cell_length_c 8.617110
_cell_angle_alpha 90.000000
_cell_angle_beta 90.000000
_cell_angle_gamma 90.000000
_cell_volume 1319.682717
_symmetry_space_group_name_H-M "I -4 2 D"
_symmetry_group_IT_number 122
_symmetry_cell_setting 'tetragonal'
loop_
_space_group_symop_operation_xyz
x,y,z
y,-x,-z
-x,-y,z
-y,x,-z
x,1/2-y,1/4-z
-x,1/2+y,1/4-z
-y,1/2-x,1/4+z
y,1/2+x,1/4+z
1/2+x,1/2+y,1/2+z
1/2+y,1/2-x,1/2-z
1/2-x,1/2-y,1/2+z
1/2-y,1/2+x,1/2-z
1/2+x,-y,3/4-z
1/2-x,y,3/4-z
1/2-y,-x,3/4+z
1/2+y,x,3/4+z
loop_
_atom_site_type_symbol
_atom_site_label
_atom_site_fract_x
_atom_site_fract_y
_atom_site_fract_z
Si Si1 0.974377 0.170506 0.989935
Si Si2 0.000000 0.500000 0.750000
Si Si3 0.821700 0.840381 0.508630
O O1 0.010256 0.250000 0.125000
O O2 0.914170 0.240538 0.860285
O O3 0.079787 0.104851 0.937394
O O4 0.086013 0.414861 0.819365
O O5 0.866947 0.750000 0.625000
O O6 0.750000 0.787853 0.375000
#
# Coordination Sequence:
#
# PCOD9561506 Si02
#       3
#    16   4  16
#     4  11  28  51  81 118 162 216 272 331 404 479
#     4  12  32  48  84 122 164 216 264 338 392 496
#     4  12  30  54  82 120 164 212 270 332 406 478
#
# _framework density 27.279285000000002
#
# number of rings (size 3 to 8) (size 9 to 14) (size 15 to 20)
#    0.000    0.444    0.000    4.000   24.889    0.000 
#    0.000    0.000    0.000    0.000    0.000    0.000 
#    0.000    0.000    0.000    0.000    0.000    0.000 
#
# Total GULP energy -100887.793653 kJ/mol
# GULP energy per Si atom -5604.877425 kJ/mol
# Density = 2.721720 g / cm^3
# Si number density = 27.279285 Si / 1000 Ang^3
#
#
#
# Elastic Constant Matrix: (Units=GPa)
#
#
# Indices 1 2 3 4 5 6 
#
# 1 136.7865 59.6488 21.0293 0.0000 0.0000 0.0000
# 2 59.6488 136.7865 21.0293 0.0000 0.0000 0.0000
# 3 21.0293 21.0293 63.8431 0.0000 0.0000 0.0000
# 4 0.0000 0.0000 0.0000 32.1133 0.0000 0.0000
# 5 0.0000 0.0000 0.0000 0.0000 32.1133 0.0000
# 6 0.0000 0.0000 0.0000 0.0000 0.0000 78.6303
#
#
#
# Elastic Compliance Matrix: (Units=1/GPa)
#
#
# Indices 1 2 3 4 5 6 
#
# 1 0.009220 -0.003743 -0.001804 0.000000 0.000000 0.000000
# 2 -0.003743 0.009220 -0.001804 0.000000 0.000000 0.000000
# 3 -0.001804 -0.001804 0.016852 0.000000 0.000000 0.000000
# 4 0.000000 0.000000 0.000000 0.031140 0.000000 0.000000
# 5 0.000000 0.000000 0.000000 0.000000 0.031140 0.000000
# 6 0.000000 0.000000 0.000000 0.000000 0.000000 0.012718
#
#
# Mechanical properties :
#
#
# Convention : Reuss Voigt Hill
#
# Bulk Modulus (GPa) = 48.56824 60.09236 54.33030
# Shear Modulus (GPa) = 37.92009 44.28529 41.10269
#
# Velocity S-wave (km/s) = 3.73241 4.03352 3.88588
# Velocity P-wave (km/s) = 6.03467 6.61580 6.33190
#
# Compressibility (1/GPa) = 0.02058959
#
# Stress axis : x y z
#
# Youngs Moduli (GPa) = 108.45495 108.45495 59.34057
#
# Poissons Ratio (x) = 0.40599 0.10705
# Poissons Ratio (y) = 0.40599 0.10705
# Poissons Ratio (z) = 0.19566 0.19566
#
# Static dielectric constant tensor:
#      x y z
#    x 2.076440 0.000000 0.000000 
#    y 0.000000 2.076440 0.000000 
#    z 0.000000 0.000000 2.041540 
# 
# From -- ./inp_files/3358.got.cif
#   From: 2010.05.17/outbox.cif.g08.bks.cpg/sg122_2_cif.got.tgz:3358.got - 2010.05.20 11:37:33.
