data_PCOD9561956
_publ_section_title
;
Structure prediction by ZEFSAII (Michael W. Deem and Ramdas Pophale) SiO2 
 PCOD9561956
Probable space group: P 4/M M M
;
_chemical_formula_sum "Si O2"
_cell_formula_units_Z 56
_cell_length_a 18.557400
_cell_length_b 18.557400
_cell_length_c 7.515316
_cell_angle_alpha 90.000000
_cell_angle_beta 90.000000
_cell_angle_gamma 90.000000
_cell_volume 2588.102690
_symmetry_space_group_name_H-M "P 4/M M M"
_symmetry_group_IT_number 123
_symmetry_cell_setting 'tetragonal'
loop_
_space_group_symop_operation_xyz
x,y,z
-y,x,z
-x,-y,z
y,-x,z
x,-y,-z
-x,y,-z
y,x,-z
-y,-x,-z
-x,-y,-z
y,-x,-z
x,y,-z
-y,x,-z
-x,y,z
x,-y,z
-y,-x,z
y,x,z
loop_
_atom_site_type_symbol
_atom_site_label
_atom_site_fract_x
_atom_site_fract_y
_atom_site_fract_z
Si Si1 0.652037 0.141675 0.206548
Si Si2 0.500000 0.915416 0.217094
Si Si3 0.300026 0.300026 0.703864
Si Si4 0.801979 0.081016 0.217905
Si Si5 0.582236 0.417765 0.784608
O O1 0.573841 0.121750 0.281918
O O2 0.670221 0.226310 0.213751
O O3 0.721774 0.101011 0.281735
O O4 0.648782 0.119557 0.000000
O O5 0.500000 0.000000 0.261464
O O6 0.500000 0.909693 0.000000
O O7 0.283530 0.283530 0.500000
O O8 0.360835 0.360835 0.716243
O O9 0.859255 0.140746 0.276281
O O10 0.821477 0.000000 0.269499
O O11 0.801022 0.083617 0.000000
O O12 0.598657 0.500000 0.730596
O O13 0.584314 0.415687 0.000000
#
# Coordination Sequence:
#
# PCOD9561956 Si02
#       5
#    16   8   8  16   8
#     4  10  19  35  56  80 109 145 187 229 276 329
#     4   9  18  32  57  91 116 137 176 233 287 336
#     4  12  25  37  53  80 115 151 188 228 274 325
#     4   9  16  27  47  76 109 140 173 222 280 333
#     4   9  20  40  64  86 108 139 181 227 274 326
#
# _framework density 21.637471999999999
#
# number of rings (size 3 to 8) (size 9 to 14) (size 15 to 20)
#    0.000    2.286    1.429    2.571    2.000    4.286 
#    0.000    2.143    0.000    4.286    0.000    0.000 
#    0.000    1.143    0.000    0.000    0.000    0.000 
#
# Total GULP energy -312801.351746 kJ/mol
# GULP energy per Si atom -5585.738424 kJ/mol
# Density = 2.158822 g / cm^3
# Si number density = 21.637472 Si / 1000 Ang^3
#
#
#
# Elastic Constant Matrix: (Units=GPa)
#
#
# Indices 1 2 3 4 5 6 
#
# 1 160.1051 109.4208 -2.8327 0.0000 0.0000 0.0000
# 2 109.4208 160.1051 -2.8326 0.0000 0.0000 0.0000
# 3 -2.8327 -2.8326 56.0874 0.0000 0.0000 0.0000
# 4 0.0000 0.0000 0.0000 -62.7603 0.0000 0.0000
# 5 0.0000 0.0000 0.0000 0.0000 -62.7604 0.0000
# 6 0.0000 0.0000 0.0000 0.0000 0.0000 20.6144
#
#
#
# Elastic Compliance Matrix: (Units=1/GPa)
#
#
# Indices 1 2 3 4 5 6 
#
# 1 0.011722 -0.008008 0.000188 0.000000 0.000000 0.000000
# 2 -0.008008 0.011722 0.000188 0.000000 0.000000 0.000000
# 3 0.000188 0.000188 0.017848 0.000000 0.000000 0.000000
# 4 0.000000 0.000000 0.000000 -0.015934 0.000000 0.000000
# 5 0.000000 0.000000 0.000000 0.000000 -0.015934 0.000000
# 6 0.000000 0.000000 0.000000 0.000000 0.000000 0.048510
#
#
# Mechanical properties :
#
#
# Convention : Reuss Voigt Hill
#
# Bulk Modulus (GPa) = 38.42179 64.86763 51.64471
# Shear Modulus (GPa) = 61.06783 -2.81180 29.12801
#
# Velocity S-wave (km/s) = 5.31831 -1.14120 3.67302
# Velocity P-wave (km/s) = 7.45038 5.32052 6.47365
#
# Compressibility (1/GPa) = 0.02602690
#
# Stress axis : x y z
#
# Youngs Moduli (GPa) = 85.30913 85.30917 56.02788
#
# Poissons Ratio (x) = 0.68315 -0.01051
# Poissons Ratio (y) = 0.68315 -0.01051
# Poissons Ratio (z) = -0.01600 -0.01600
#
# Static dielectric constant tensor:
#      x y z
#    x 1.753850 0.000000 0.000000 
#    y 0.000000 1.753850 0.000000 
#    z 0.000000 0.000000 1.822040 
# 
# From -- ./inp_files/628.got.cif
#   From: 2010.05.17/outbox.cif.g08.bks.cpg/sg123_1_cif.got.tgz:628.got - 2010.05.20 11:43:04.
