data_PCOD9561696
_publ_section_title
;
Structure prediction by ZEFSAII (Michael W. Deem and Ramdas Pophale) SiO2 
 PCOD9561696
Probable space group: P 4/M M M
;
_chemical_formula_sum "Si O2"
_cell_formula_units_Z 56
_cell_length_a 18.417460
_cell_length_b 18.417460
_cell_length_c 7.370461
_cell_angle_alpha 90.000000
_cell_angle_beta 90.000000
_cell_angle_gamma 90.000000
_cell_volume 2500.081251
_symmetry_space_group_name_H-M "P 4/M M M"
_symmetry_group_IT_number 123
_symmetry_cell_setting 'tetragonal'
loop_
_space_group_symop_operation_xyz
x,y,z
-y,x,z
-x,-y,z
y,-x,z
x,-y,-z
-x,y,-z
y,x,-z
-y,-x,-z
-x,-y,-z
y,-x,-z
x,y,-z
-y,x,-z
-x,y,z
x,-y,z
-y,-x,z
y,x,z
loop_
_atom_site_type_symbol
_atom_site_label
_atom_site_fract_x
_atom_site_fract_y
_atom_site_fract_z
Si Si1 0.500000 0.084293 0.279305
Si Si2 0.648201 0.845489 0.286673
Si Si3 0.798574 0.084082 0.278238
Si Si4 0.582085 0.694020 0.781638
O O1 0.500000 0.092193 0.500000
O O2 0.425743 0.119753 0.210932
O O3 0.500000 0.000000 0.237022
O O4 0.649260 0.863243 0.500000
O O5 0.723680 0.877528 0.216168
O O6 0.635144 0.759987 0.268054
O O7 0.798465 0.084460 0.500000
O O8 0.866858 0.133143 0.221633
O O9 0.801696 0.000000 0.222109
O O10 0.500000 0.705704 0.713851
O O11 0.619288 0.619288 0.721260
O O12 0.578528 0.692769 0.000000
#
# Coordination Sequence:
#
# PCOD9561696 Si02
#       4
#     8  16  16  16
#     4   9  16  26  45  73 102 131 160 194 241 297
#     4  10  18  31  51  76 102 129 165 207 249 295
#     4   9  17  28  44  69 100 133 169 208 248 292
#     4  10  21  36  53  73  99 131 166 205 249 298
#
# _framework density 22.399273000000001
#
# number of rings (size 3 to 8) (size 9 to 14) (size 15 to 20)
#    0.000    2.429    1.429    1.714    0.000    5.714 
#    0.000    2.857    0.000    4.286    0.000    2.000 
#    0.000    0.000    0.000    6.000    0.000    5.714 
#
# Total GULP energy -312808.201111 kJ/mol
# GULP energy per Si atom -5585.860734 kJ/mol
# Density = 2.234829 g / cm^3
# Si number density = 22.399273 Si / 1000 Ang^3
#
#
#
# Elastic Constant Matrix: (Units=GPa)
#
#
# Indices 1 2 3 4 5 6 
#
# 1 150.6437 146.6153 1.1316 0.0000 0.0000 0.0000
# 2 146.6153 150.6437 1.1316 0.0000 0.0000 0.0000
# 3 1.1316 1.1316 79.0143 0.0000 0.0000 0.0000
# 4 0.0000 0.0000 0.0000 0.5703 0.0000 0.0000
# 5 0.0000 0.0000 0.0000 0.0000 0.5703 0.0000
# 6 0.0000 0.0000 0.0000 0.0000 0.0000 29.2127
#
#
#
# Elastic Compliance Matrix: (Units=1/GPa)
#
#
# Indices 1 2 3 4 5 6 
#
# 1 0.125801 -0.122436 -0.000048 0.000000 0.000000 0.000000
# 2 -0.122436 0.125801 -0.000048 0.000000 0.000000 0.000000
# 3 -0.000048 -0.000048 0.012657 0.000000 0.000000 0.000000
# 4 0.000000 0.000000 0.000000 1.753484 0.000000 0.000000
# 5 0.000000 0.000000 0.000000 0.000000 1.753484 0.000000
# 6 0.000000 0.000000 0.000000 0.000000 0.000000 0.034232
#
#
# Mechanical properties :
#
#
# Convention : Reuss Voigt Hill
#
# Bulk Modulus (GPa) = 52.10109 75.33987 63.72048
# Shear Modulus (GPa) = 1.23246 21.49886 11.36566
#
# Velocity S-wave (km/s) = 0.74258 3.10143 2.25502
# Velocity P-wave (km/s) = 4.90366 6.82152 5.94050
#
# Compressibility (1/GPa) = 0.01919346
#
# Stress axis : x y z
#
# Youngs Moduli (GPa) = 7.94907 7.94907 79.00565
#
# Poissons Ratio (x) = 0.97326 0.00381
# Poissons Ratio (y) = 0.97326 0.00381
# Poissons Ratio (z) = 0.00038 0.00038
#
# Static dielectric constant tensor:
#      x y z
#    x 1.798540 0.000000 0.000000 
#    y 0.000000 1.798540 0.000000 
#    z 0.000000 0.000000 1.880710 
# 
# From -- ./inp_files/573.got.cif
#   From: 2010.05.17/outbox.cif.g08.bks.cpg/sg123_1_cif.got.tgz:573.got - 2010.05.20 11:43:04.
