data_PCOD9561511
_publ_section_title
;
Structure prediction by ZEFSAII (Michael W. Deem and Ramdas Pophale) SiO2 
 PCOD9561511
Probable space group: I -4 2 D
;
_chemical_formula_sum "Si O2"
_cell_formula_units_Z 40
_cell_length_a 7.017292
_cell_length_b 7.017292
_cell_length_c 29.270469
_cell_angle_alpha 90.000000
_cell_angle_beta 90.000000
_cell_angle_gamma 90.000000
_cell_volume 1441.347763
_symmetry_space_group_name_H-M "I -4 2 D"
_symmetry_group_IT_number 122
_symmetry_cell_setting 'tetragonal'
loop_
_space_group_symop_operation_xyz
x,y,z
y,-x,-z
-x,-y,z
-y,x,-z
x,1/2-y,1/4-z
-x,1/2+y,1/4-z
-y,1/2-x,1/4+z
y,1/2+x,1/4+z
1/2+x,1/2+y,1/2+z
1/2+y,1/2-x,1/2-z
1/2-x,1/2-y,1/2+z
1/2-y,1/2+x,1/2-z
1/2+x,-y,3/4-z
1/2-x,y,3/4-z
1/2-y,-x,3/4+z
1/2+y,x,3/4+z
loop_
_atom_site_type_symbol
_atom_site_label
_atom_site_fract_x
_atom_site_fract_y
_atom_site_fract_z
Si Si1 0.287755 0.851547 0.947899
Si Si2 0.840884 0.732419 0.950216
Si Si3 0.250000 0.576213 0.875000
O O1 0.368707 0.725310 0.906574
O O2 0.060876 0.800318 0.949382
O O3 0.287090 0.079475 0.941417
O O4 0.351308 0.804787 0.999219
O O5 0.817176 0.571115 0.913204
#
# Coordination Sequence:
#
# PCOD9561511 Si02
#       3
#    16  16   8
#     4   9  20  41  64  91 138 193 236 288 366 445
#     4   9  20  41  64  91 138 193 236 288 366 445
#     4  12  20  36  68 108 132 170 254 302 358 426
#
# _framework density 27.751805999999998
#
# number of rings (size 3 to 8) (size 9 to 14) (size 15 to 20)
#    0.000    2.400    0.000    4.800    0.000    0.000 
#   14.400    0.000    0.000    0.000    0.000    0.000 
#    0.000    0.000    0.000    0.000    0.000    0.000 
#
# Total GULP energy -112026.755513 kJ/mol
# GULP energy per Si atom -5601.337776 kJ/mol
# Density = 2.768864 g / cm^3
# Si number density = 27.751806 Si / 1000 Ang^3
#
#
#
# Elastic Constant Matrix: (Units=GPa)
#
#
# Indices 1 2 3 4 5 6 
#
# 1 135.9346 47.5667 94.8933 0.0000 0.0000 0.0000
# 2 47.5667 135.9346 94.8933 0.0000 0.0000 0.0000
# 3 94.8933 94.8933 296.2949 0.0000 0.0000 0.0000
# 4 0.0000 0.0000 0.0000 26.7242 0.0000 0.0000
# 5 0.0000 0.0000 0.0000 0.0000 26.7242 0.0000
# 6 0.0000 0.0000 0.0000 0.0000 0.0000 38.7827
#
#
#
# Elastic Compliance Matrix: (Units=1/GPa)
#
#
# Indices 1 2 3 4 5 6 
#
# 1 0.009733 -0.001584 -0.002610 0.000000 0.000000 0.000000
# 2 -0.001584 0.009733 -0.002610 0.000000 0.000000 0.000000
# 3 -0.002610 -0.002610 0.005047 0.000000 0.000000 0.000000
# 4 0.000000 0.000000 0.000000 0.037419 0.000000 0.000000
# 5 0.000000 0.000000 0.000000 0.000000 0.037419 0.000000
# 6 0.000000 0.000000 0.000000 0.000000 0.000000 0.025785
#
#
# Mechanical properties :
#
#
# Convention : Reuss Voigt Hill
#
# Bulk Modulus (GPa) = 91.70083 115.87453 103.78768
# Shear Modulus (GPa) = 35.11816 40.50028 37.80922
#
# Velocity S-wave (km/s) = 3.56116 3.82432 3.69508
# Velocity P-wave (km/s) = 7.07277 7.83231 7.46221
#
# Compressibility (1/GPa) = 0.01090503
#
# Stress axis : x y z
#
# Youngs Moduli (GPa) = 102.74841 102.74837 198.15122
#
# Poissons Ratio (x) = 0.16273 0.51713
# Poissons Ratio (y) = 0.16273 0.51713
# Poissons Ratio (z) = 0.26815 0.26815
#
# Static dielectric constant tensor:
#      x y z
#    x 2.274700 0.000000 0.000000 
#    y 0.000000 2.274700 0.000000 
#    z 0.000000 0.000000 2.091870 
# 
# From -- ./inp_files/8385.got.cif
#   From: 2010.05.17/outbox.cif.g08.bks.cpg/sg122_5_cif.got.tgz:8385.got - 2010.05.20 11:37:33.
