data_PCOD9561215
_publ_section_title
;
Structure prediction by ZEFSAII (Michael W. Deem and Ramdas Pophale) SiO2 
 PCOD9561215
Probable space group: I -4 2 D
;
_chemical_formula_sum "Si O2"
_cell_formula_units_Z 76
_cell_length_a 13.684432
_cell_length_b 13.684432
_cell_length_c 21.666435
_cell_angle_alpha 90.000000
_cell_angle_beta 90.000000
_cell_angle_gamma 90.000000
_cell_volume 4057.336332
_symmetry_space_group_name_H-M "I -4 2 D"
_symmetry_group_IT_number 122
_symmetry_cell_setting 'tetragonal'
loop_
_space_group_symop_operation_xyz
x,y,z
y,-x,-z
-x,-y,z
-y,x,-z
x,1/2-y,1/4-z
-x,1/2+y,1/4-z
-y,1/2-x,1/4+z
y,1/2+x,1/4+z
1/2+x,1/2+y,1/2+z
1/2+y,1/2-x,1/2-z
1/2-x,1/2-y,1/2+z
1/2-y,1/2+x,1/2-z
1/2+x,-y,3/4-z
1/2-x,y,3/4-z
1/2-y,-x,3/4+z
1/2+y,x,3/4+z
loop_
_atom_site_type_symbol
_atom_site_label
_atom_site_fract_x
_atom_site_fract_y
_atom_site_fract_z
Si Si1 0.218972 0.848395 0.265932
Si Si2 0.649833 0.423119 0.090825
Si Si3 0.791350 0.362002 0.309109
Si Si4 0.750000 0.997376 0.375000
Si Si5 0.524125 0.243937 0.458597
Si Si6 0.000000 0.000000 0.500000
O O1 0.268949 0.871359 0.201315
O O2 0.256573 0.743510 0.291708
O O3 0.238740 0.932673 0.315678
O O4 0.102734 0.830761 0.261657
O O5 0.571525 0.343714 0.114494
O O6 0.696545 0.478609 0.147914
O O7 0.593089 0.495858 0.044501
O O8 0.750000 0.393192 0.375000
O O9 0.906408 0.335003 0.309956
O O10 0.770726 0.440672 0.256714
#
# Coordination Sequence:
#
# PCOD9561215 Si02
#       6
#    16  16  16   8  16   4
#     4  10  23  43  65  95 140 175 229 291 354 411
#     4  12  24  39  67 102 137 177 232 287 354 425
#     4  10  23  45  70  93 140 182 233 289 351 410
#     4  12  22  40  68  96 134 180 230 290 360 416
#     4  10  25  43  68 101 136 184 237 285 351 426
#     4  12  24  36  68 104 132 176 220 282 368 432
#
# _framework density 18.7315
#
# number of rings (size 3 to 8) (size 9 to 14) (size 15 to 20)
#    1.263    0.000    3.158    2.526    2.947    3.789 
#    0.000    0.000    0.000    0.000    0.000    0.000 
#    0.000    0.000    0.000    0.000    0.000    0.000 
#
# Total GULP energy -212049.515228 kJ/mol
# GULP energy per Si atom -5580.250401 kJ/mol
# Density = 1.868887 g / cm^3
# Si number density = 18.731500 Si / 1000 Ang^3
#
#
#
# Elastic Constant Matrix: (Units=GPa)
#
#
# Indices 1 2 3 4 5 6 
#
# 1 100.7596 46.4683 73.4886 0.0000 0.0000 0.0000
# 2 46.4683 100.7596 73.4886 0.0000 0.0000 0.0000
# 3 73.4886 73.4886 136.4511 0.0000 0.0000 0.0000
# 4 0.0000 0.0000 0.0000 37.7374 0.0000 0.0000
# 5 0.0000 0.0000 0.0000 0.0000 37.7374 0.0000
# 6 0.0000 0.0000 0.0000 0.0000 0.0000 27.6162
#
#
#
# Elastic Compliance Matrix: (Units=1/GPa)
#
#
# Indices 1 2 3 4 5 6 
#
# 1 0.016555 -0.001864 -0.007912 0.000000 0.000000 0.000000
# 2 -0.001864 0.016555 -0.007912 0.000000 0.000000 0.000000
# 3 -0.007912 -0.007912 0.015851 0.000000 0.000000 0.000000
# 4 0.000000 0.000000 0.000000 0.026499 0.000000 0.000000
# 5 0.000000 0.000000 0.000000 0.000000 0.026499 0.000000
# 6 0.000000 0.000000 0.000000 0.000000 0.000000 0.036211
#
#
# Mechanical properties :
#
#
# Convention : Reuss Voigt Hill
#
# Bulk Modulus (GPa) = 73.61370 80.54014 77.07692
# Shear Modulus (GPa) = 28.07823 30.25316 29.16570
#
# Velocity S-wave (km/s) = 3.87587 4.02319 3.95022
# Velocity P-wave (km/s) = 7.70809 8.04188 7.87675
#
# Compressibility (1/GPa) = 0.01358443
#
# Stress axis : x y z
#
# Youngs Moduli (GPa) = 60.40495 60.40495 63.08771
#
# Poissons Ratio (x) = 0.11261 0.49915
# Poissons Ratio (y) = 0.11261 0.49915
# Poissons Ratio (z) = 0.47792 0.47792
#
# Static dielectric constant tensor:
#      x y z
#    x 1.656400 0.000000 0.000000 
#    y 0.000000 1.656400 0.000000 
#    z 0.000000 0.000000 1.608030 
# 
# From -- ./inp_files/7138.got.cif
#   From: 2010.05.17/outbox.cif.g08.bks.cpg/sg122_4_cif.got.tgz:7138.got - 2010.05.20 11:37:33.
