data_PCOD9561513
_publ_section_title
;
Structure prediction by ZEFSAII (Michael W. Deem and Ramdas Pophale) SiO2 
 PCOD9561513
Probable space group: I -4 2 D
;
_chemical_formula_sum "Si O2"
_cell_formula_units_Z 56
_cell_length_a 9.860629
_cell_length_b 9.860629
_cell_length_c 25.340436
_cell_angle_alpha 90.000000
_cell_angle_beta 90.000000
_cell_angle_gamma 90.000000
_cell_volume 2463.901381
_symmetry_space_group_name_H-M "I -4 2 D"
_symmetry_group_IT_number 122
_symmetry_cell_setting 'tetragonal'
loop_
_space_group_symop_operation_xyz
x,y,z
y,-x,-z
-x,-y,z
-y,x,-z
x,1/2-y,1/4-z
-x,1/2+y,1/4-z
-y,1/2-x,1/4+z
y,1/2+x,1/4+z
1/2+x,1/2+y,1/2+z
1/2+y,1/2-x,1/2-z
1/2-x,1/2-y,1/2+z
1/2-y,1/2+x,1/2-z
1/2+x,-y,3/4-z
1/2-x,y,3/4-z
1/2-y,-x,3/4+z
1/2+y,x,3/4+z
loop_
_atom_site_type_symbol
_atom_site_label
_atom_site_fract_x
_atom_site_fract_y
_atom_site_fract_z
Si Si1 0.750000 0.860707 0.375000
Si Si2 0.109734 0.384176 0.415788
Si Si3 0.848800 0.963926 0.273171
Si Si4 0.689987 0.449253 0.479915
O O1 0.871191 0.749746 0.380808
O O2 0.754547 0.953192 0.323460
O O3 0.249990 0.463880 0.431321
O O4 0.000000 0.500000 0.400541
O O5 0.060401 0.328077 0.473261
O O6 0.859016 0.813392 0.249309
O O7 0.000000 0.000000 0.292838
O O8 0.558015 0.355968 0.475346
#
# Coordination Sequence:
#
# PCOD9561513 Si02
#       4
#     8  16  16  16
#     4  12  20  40  64  84 124 174 202 262 332 348
#     4   9  21  37  57  91 128 150 211 267 303 387
#     4   9  21  39  53  85 123 157 204 255 299 382
#     4   9  15  30  58  85 115 161 190 252 323 348
#
# _framework density 22.728180999999999
#
# number of rings (size 3 to 8) (size 9 to 14) (size 15 to 20)
#    0.000    3.143    2.857    0.000    0.000    2.286 
#    5.143    0.000    0.000    0.000    0.000    0.000 
#    0.000    0.000    0.000    0.000    0.000    0.000 
#
# Total GULP energy -155953.318943 kJ/mol
# GULP energy per Si atom -5569.761391 kJ/mol
# Density = 2.267645 g / cm^3
# Si number density = 22.728181 Si / 1000 Ang^3
#
#
#
# Elastic Constant Matrix: (Units=GPa)
#
#
# Indices 1 2 3 4 5 6 
#
# 1 52.9898 2.2706 3.9936 0.0000 0.0000 0.0000
# 2 2.2706 52.9898 3.9936 0.0000 0.0000 0.0000
# 3 3.9936 3.9936 65.8428 0.0000 0.0000 0.0000
# 4 0.0000 0.0000 0.0000 30.6523 0.0000 0.0000
# 5 0.0000 0.0000 0.0000 0.0000 30.6523 0.0000
# 6 0.0000 0.0000 0.0000 0.0000 0.0000 31.8524
#
#
#
# Elastic Compliance Matrix: (Units=1/GPa)
#
#
# Indices 1 2 3 4 5 6 
#
# 1 0.018986 -0.000730 -0.001107 0.000000 0.000000 0.000000
# 2 -0.000730 0.018986 -0.001107 0.000000 0.000000 0.000000
# 3 -0.001107 -0.001107 0.015322 0.000000 0.000000 0.000000
# 4 0.000000 0.000000 0.000000 0.032624 0.000000 0.000000
# 5 0.000000 0.000000 0.000000 0.000000 0.032624 0.000000
# 6 0.000000 0.000000 0.000000 0.000000 0.000000 0.031395
#
#
# Mechanical properties :
#
#
# Convention : Reuss Voigt Hill
#
# Bulk Modulus (GPa) = 21.09474 21.37088 21.23281
# Shear Modulus (GPa) = 29.13269 29.40238 29.26754
#
# Velocity S-wave (km/s) = 3.58409 3.60064 3.59237
# Velocity P-wave (km/s) = 5.14092 5.16811 5.15453
#
# Compressibility (1/GPa) = 0.04740519
#
# Stress axis : x y z
#
# Youngs Moduli (GPa) = 52.66957 52.66957 65.26558
#
# Poissons Ratio (x) = 0.03845 0.07227
# Poissons Ratio (y) = 0.03845 0.07227
# Poissons Ratio (z) = 0.05832 0.05832
#
# Static dielectric constant tensor:
#      x y z
#    x 1.876210 0.000000 0.000000 
#    y 0.000000 1.876210 0.000000 
#    z 0.000000 0.000000 1.909400 
# 
# From -- ./inp_files/7759.got.cif
#   From: 2010.05.17/outbox.cif.g08.bks.cpg/sg122_4_cif.got.tgz:7759.got - 2010.05.20 11:37:33.
