data_PCOD9561343
_publ_section_title
;
Structure prediction by ZEFSAII (Michael W. Deem and Ramdas Pophale) SiO2 
 PCOD9561343
Probable space group: I -4 2 D
;
_chemical_formula_sum "Si O2"
_cell_formula_units_Z 96
_cell_length_a 15.122656
_cell_length_b 15.122656
_cell_length_c 21.874068
_cell_angle_alpha 90.000000
_cell_angle_beta 90.000000
_cell_angle_gamma 90.000000
_cell_volume 5002.483955
_symmetry_space_group_name_H-M "I -4 2 D"
_symmetry_group_IT_number 122
_symmetry_cell_setting 'tetragonal'
loop_
_space_group_symop_operation_xyz
x,y,z
y,-x,-z
-x,-y,z
-y,x,-z
x,1/2-y,1/4-z
-x,1/2+y,1/4-z
-y,1/2-x,1/4+z
y,1/2+x,1/4+z
1/2+x,1/2+y,1/2+z
1/2+y,1/2-x,1/2-z
1/2-x,1/2-y,1/2+z
1/2-y,1/2+x,1/2-z
1/2+x,-y,3/4-z
1/2-x,y,3/4-z
1/2-y,-x,3/4+z
1/2+y,x,3/4+z
loop_
_atom_site_type_symbol
_atom_site_label
_atom_site_fract_x
_atom_site_fract_y
_atom_site_fract_z
Si Si1 0.078453 0.427995 0.404549
Si Si2 0.124523 0.505382 0.774846
Si Si3 0.928406 0.421363 0.899285
Si Si4 0.120061 0.560147 0.228620
Si Si5 0.535926 0.822080 0.493632
Si Si6 0.019300 0.822997 0.749923
O O1 0.104618 0.400758 0.336609
O O2 0.150702 0.472082 0.449540
O O3 0.000000 0.500000 0.400552
O O4 0.032045 0.345515 0.437914
O O5 0.060803 0.419924 0.780473
O O6 0.116252 0.570470 0.832899
O O7 0.220149 0.469626 0.760365
O O8 0.855286 0.452656 0.947359
O O9 0.000000 0.500000 0.901354
O O10 0.979654 0.339498 0.930908
O O11 0.099012 0.454467 0.225974
O O12 0.221747 0.568645 0.246929
O O13 0.617097 0.892389 0.495567
#
# Coordination Sequence:
#
# PCOD9561343 Si02
#       6
#    16  16  16  16  16  16
#     4   9  18  40  62  84 114 164 197 246 307 378
#     4  11  21  33  55  86 121 157 198 247 301 358
#     4   9  17  37  58  79 112 164 194 231 297 370
#     4  11  22  39  64  91 122 155 206 257 318 372
#     4   9  21  39  65  85 119 164 207 249 313 372
#     4   9  20  36  59  82 116 158 206 239 298 361
#
# _framework density 19.190465
#
# number of rings (size 3 to 8) (size 9 to 14) (size 15 to 20)
#    0.000    2.333    3.333    2.500    2.333    0.667 
#    6.000    0.000    3.667    0.000    0.000    0.000 
#    0.000    0.000    0.000    0.000    0.000    0.000 
#
# Total GULP energy -267210.150785 kJ/mol
# GULP energy per Si atom -5566.878141 kJ/mol
# Density = 1.914679 g / cm^3
# Si number density = 19.190465 Si / 1000 Ang^3
#
#
#
# Elastic Constant Matrix: (Units=GPa)
#
#
# Indices 1 2 3 4 5 6 
#
# 1 88.8602 11.7163 13.3355 0.0000 0.0000 0.0000
# 2 11.7163 88.8602 13.3355 0.0000 0.0000 0.0000
# 3 13.3355 13.3355 91.2644 0.0000 0.0000 0.0000
# 4 0.0000 0.0000 0.0000 17.1851 0.0000 0.0000
# 5 0.0000 0.0000 0.0000 0.0000 17.1851 0.0000
# 6 0.0000 0.0000 0.0000 0.0000 0.0000 13.5745
#
#
#
# Elastic Compliance Matrix: (Units=1/GPa)
#
#
# Indices 1 2 3 4 5 6 
#
# 1 0.011653 -0.001310 -0.001511 0.000000 0.000000 0.000000
# 2 -0.001310 0.011653 -0.001511 0.000000 0.000000 0.000000
# 3 -0.001511 -0.001511 0.011399 0.000000 0.000000 0.000000
# 4 0.000000 0.000000 0.000000 0.058190 0.000000 0.000000
# 5 0.000000 0.000000 0.000000 0.000000 0.058190 0.000000
# 6 0.000000 0.000000 0.000000 0.000000 0.000000 0.073668
#
#
# Mechanical properties :
#
#
# Convention : Reuss Voigt Hill
#
# Bulk Modulus (GPa) = 38.40207 38.41773 38.40990
# Shear Modulus (GPa) = 20.65285 24.96212 22.80749
#
# Velocity S-wave (km/s) = 3.28411 3.61051 3.45117
# Velocity P-wave (km/s) = 5.86813 6.11913 5.99494
#
# Compressibility (1/GPa) = 0.02604026
#
# Stress axis : x y z
#
# Youngs Moduli (GPa) = 85.81386 85.81386 87.72810
#
# Poissons Ratio (x) = 0.11239 0.13259
# Poissons Ratio (y) = 0.11239 0.13259
# Poissons Ratio (z) = 0.12970 0.12970
#
# Static dielectric constant tensor:
#      x y z
#    x 1.672720 0.000000 0.000000 
#    y 0.000000 1.672720 0.000000 
#    z 0.000000 0.000000 1.759980 
# 
# From -- ./inp_files/7308.got.cif
#   From: 2010.05.17/outbox.cif.g08.bks.cpg/sg122_4_cif.got.tgz:7308.got - 2010.05.20 11:37:33.
