data_PCOD9561854
_publ_section_title
;
Structure prediction by ZEFSAII (Michael W. Deem and Ramdas Pophale) SiO2 
 PCOD9561854
Probable space group: P 4/M M M
;
_chemical_formula_sum "Si O2"
_cell_formula_units_Z 96
_cell_length_a 21.346986
_cell_length_b 21.346986
_cell_length_c 12.747332
_cell_angle_alpha 90.000000
_cell_angle_beta 90.000000
_cell_angle_gamma 90.000000
_cell_volume 5808.880303
_symmetry_space_group_name_H-M "P 4/M M M"
_symmetry_group_IT_number 123
_symmetry_cell_setting 'tetragonal'
loop_
_space_group_symop_operation_xyz
x,y,z
-y,x,z
-x,-y,z
y,-x,z
x,-y,-z
-x,y,-z
y,x,-z
-y,-x,-z
-x,-y,-z
y,-x,-z
x,y,-z
-y,x,-z
-x,y,z
x,-y,z
-y,-x,z
y,x,z
loop_
_atom_site_type_symbol
_atom_site_label
_atom_site_fract_x
_atom_site_fract_y
_atom_site_fract_z
Si Si1 0.673313 0.573619 0.270482
Si Si2 0.681466 0.104080 0.122824
Si Si3 0.576141 0.860197 0.500000
Si Si4 0.247632 0.353426 0.117384
Si Si5 0.571948 0.926919 0.284116
Si Si6 0.719816 0.424827 0.500000
Si Si7 0.824671 0.928256 0.127440
O O1 0.663347 0.500000 0.260452
O O2 0.613515 0.613515 0.234027
O O3 0.732973 0.595902 0.203369
O O4 0.686259 0.589845 0.391611
O O5 0.674884 0.179051 0.128751
O O6 0.623671 0.080483 0.193249
O O7 0.751833 0.084819 0.157355
O O8 0.674352 0.085244 0.000000
O O9 0.500000 0.860619 0.500000
O O10 0.593351 0.892438 0.390395
O O11 0.601155 0.789758 0.500000
O O12 0.297230 0.297230 0.126375
O O13 0.252889 0.380521 0.000000
O O14 0.500000 0.906036 0.256092
O O15 0.567841 0.000000 0.309392
O O16 0.725750 0.500000 0.500000
O O17 0.874969 0.874969 0.162300
O O18 0.841231 0.000000 0.158225
O O19 0.825205 0.926124 0.000000
#
# Coordination Sequence:
#
# PCOD9561854 Si02
#       7
#    16  16   8  16  16   8  16
#     4  10  20  33  49  69  93 121 154 195 244 294
#     4  10  19  31  48  70  98 130 161 195 241 293
#     4   9  17  31  50  68  88 119 159 200 242 285
#     4   9  18  32  49  68  90 118 154 195 235 278
#     4  10  20  32  46  66  94 128 164 199 235 279
#     4   9  17  30  48  68  88 110 143 187 232 283
#     4   9  17  29  46  69  98 132 168 204 242 288
#
# _framework density 16.526420999999999
#
# number of rings (size 3 to 8) (size 9 to 14) (size 15 to 20)
#    0.000    2.500    0.000    2.500    0.000    7.000 
#    0.000    3.333    0.000    1.500    0.000    2.333 
#    0.000    0.000    0.000    0.000    0.000    5.167 
#
# Total GULP energy -534550.059270 kJ/mol
# GULP energy per Si atom -5568.229784 kJ/mol
# Density = 1.648881 g / cm^3
# Si number density = 16.526421 Si / 1000 Ang^3
#
#
#
# Elastic Constant Matrix: (Units=GPa)
#
#
# Indices 1 2 3 4 5 6 
#
# 1 86.6976 42.1939 26.7674 0.0000 0.0000 0.0000
# 2 42.1939 86.6976 26.7674 0.0000 0.0000 0.0000
# 3 26.7674 26.7674 38.1803 0.0000 0.0000 0.0000
# 4 0.0000 0.0000 0.0000 4.5655 0.0000 0.0000
# 5 0.0000 0.0000 0.0000 0.0000 4.5655 0.0000
# 6 0.0000 0.0000 0.0000 0.0000 0.0000 20.0708
#
#
#
# Elastic Compliance Matrix: (Units=1/GPa)
#
#
# Indices 1 2 3 4 5 6 
#
# 1 0.016708 -0.005762 -0.007674 0.000000 0.000000 0.000000
# 2 -0.005762 0.016708 -0.007674 0.000000 0.000000 0.000000
# 3 -0.007674 -0.007674 0.036952 0.000000 0.000000 0.000000
# 4 0.000000 0.000000 0.000000 0.219032 0.000000 0.000000
# 5 0.000000 0.000000 0.000000 0.000000 0.219032 0.000000
# 6 0.000000 0.000000 0.000000 0.000000 0.000000 0.049824
#
#
# Mechanical properties :
#
#
# Convention : Reuss Voigt Hill
#
# Bulk Modulus (GPa) = 35.52698 44.78144 40.15421
# Shear Modulus (GPa) = 8.19864 13.56349 10.88107
#
# Velocity S-wave (km/s) = 2.22973 2.86792 2.56872
# Velocity P-wave (km/s) = 5.30779 6.17433 5.75739
#
# Compressibility (1/GPa) = 0.02814762
#
# Stress axis : x y z
#
# Youngs Moduli (GPa) = 59.85183 59.85183 27.06244
#
# Poissons Ratio (x) = 0.34487 0.20767
# Poissons Ratio (y) = 0.34487 0.20767
# Poissons Ratio (z) = 0.45930 0.45930
#
# Static dielectric constant tensor:
#      x y z
#    x 1.568470 0.000000 0.000000 
#    y 0.000000 1.568470 0.000000 
#    z 0.000000 0.000000 1.553580 
# 
# From -- ./inp_files/3212.got.cif
#   From: 2010.05.17/outbox.cif.g08.bks.cpg/sg123_2_cif.got.tgz:3212.got - 2010.05.20 11:43:04.
