data_PCOD9561680
_publ_section_title
;
Structure prediction by ZEFSAII (Michael W. Deem and Ramdas Pophale) SiO2 
 PCOD9561680
Probable space group: P 4/M M M
;
_chemical_formula_sum "Si O2"
_cell_formula_units_Z 72
_cell_length_a 24.699843
_cell_length_b 24.699843
_cell_length_c 7.323541
_cell_angle_alpha 90.000000
_cell_angle_beta 90.000000
_cell_angle_gamma 90.000000
_cell_volume 4467.962329
_symmetry_space_group_name_H-M "P 4/M M M"
_symmetry_group_IT_number 123
_symmetry_cell_setting 'tetragonal'
loop_
_space_group_symop_operation_xyz
x,y,z
-y,x,z
-x,-y,z
y,-x,z
x,-y,-z
-x,y,-z
y,x,-z
-y,-x,-z
-x,-y,-z
y,-x,-z
x,y,-z
-y,x,-z
-x,y,z
x,-y,z
-y,-x,z
y,x,z
loop_
_atom_site_type_symbol
_atom_site_label
_atom_site_fract_x
_atom_site_fract_y
_atom_site_fract_z
Si Si1 0.000000 0.438322 0.222004
Si Si2 0.161047 0.724302 0.216810
Si Si3 0.111931 0.387970 0.783401
Si Si4 0.806323 0.562927 0.500000
Si Si5 0.325492 0.243972 0.500000
Si Si6 0.151893 0.151893 0.221012
Si Si7 0.937226 0.062775 0.222241
O O1 0.053949 0.408367 0.278496
O O2 0.000000 0.500000 0.283546
O O3 0.000000 0.438622 0.000000
O O4 0.118245 0.676234 0.248821
O O5 0.212038 0.701702 0.329548
O O6 0.142877 0.784760 0.272602
O O7 0.172900 0.726459 0.000000
O O8 0.156617 0.421634 0.674034
O O9 0.118222 0.396989 0.000000
O O10 0.791002 0.500000 0.500000
O O11 0.761439 0.610084 0.500000
O O12 0.304431 0.304431 0.500000
O O13 0.107447 0.107447 0.283199
O O14 0.149703 0.149703 0.000000
O O15 0.000000 0.074764 0.275944
O O16 0.936585 0.063416 0.000000
#
# Coordination Sequence:
#
# PCOD9561680 Si02
#       7
#     8  16  16   8   8   8   8
#     4   9  16  27  43  59  80 115 152 179 211 256
#     4   9  17  29  45  66  89 110 142 183 220 266
#     4   9  18  31  44  62  89 118 148 188 226 256
#     4  10  20  31  46  68  89 115 153 184 213 260
#     4  10  18  30  49  67  89 121 143 170 221 260
#     4   9  15  25  42  63  85 112 146 182 224 277
#     4   8  14  25  39  59  88 115 142 181 227 278
#
# _framework density 16.114726999999998
#
# number of rings (size 3 to 8) (size 9 to 14) (size 15 to 20)
#    0.000    2.889    1.111    1.000    0.000    1.778 
#    2.000    1.111    0.000    0.000    0.000    2.333 
#    0.000    3.778    0.000    0.444    0.000    0.000 
#
# Total GULP energy -400955.666187 kJ/mol
# GULP energy per Si atom -5568.828697 kJ/mol
# Density = 1.607805 g / cm^3
# Si number density = 16.114727 Si / 1000 Ang^3
#
#
#
# Elastic Constant Matrix: (Units=GPa)
#
#
# Indices 1 2 3 4 5 6 
#
# 1 134.7391 85.1259 21.6742 0.0000 0.0000 0.0000
# 2 85.1259 134.7391 21.6742 0.0000 0.0000 0.0000
# 3 21.6742 21.6742 61.3991 0.0000 0.0000 0.0000
# 4 0.0000 0.0000 0.0000 6.0149 0.0000 0.0000
# 5 0.0000 0.0000 0.0000 0.0000 6.0148 0.0000
# 6 0.0000 0.0000 0.0000 0.0000 0.0000 21.2659
#
#
#
# Elastic Compliance Matrix: (Units=1/GPa)
#
#
# Indices 1 2 3 4 5 6 
#
# 1 0.012522 -0.007634 -0.001726 0.000000 0.000000 0.000000
# 2 -0.007634 0.012522 -0.001726 0.000000 0.000000 0.000000
# 3 -0.001726 -0.001726 0.017505 0.000000 0.000000 0.000000
# 4 0.000000 0.000000 0.000000 0.166255 0.000000 0.000000
# 5 0.000000 0.000000 0.000000 0.000000 0.166257 0.000000
# 6 0.000000 0.000000 0.000000 0.000000 0.000000 0.047024
#
#
# Mechanical properties :
#
#
# Convention : Reuss Voigt Hill
#
# Bulk Modulus (GPa) = 49.06882 65.31399 57.19141
# Shear Modulus (GPa) = 11.08529 20.15265 15.61897
#
# Velocity S-wave (km/s) = 2.62563 3.54018 3.11663
# Velocity P-wave (km/s) = 6.30140 7.57160 6.96551
#
# Compressibility (1/GPa) = 0.02037954
#
# Stress axis : x y z
#
# Youngs Moduli (GPa) = 79.85819 79.85816 57.12578
#
# Poissons Ratio (x) = 0.60962 0.09858
# Poissons Ratio (y) = 0.60962 0.09858
# Poissons Ratio (z) = 0.13781 0.13781
#
# Static dielectric constant tensor:
#      x y z
#    x 1.539850 0.000000 0.000000 
#    y 0.000000 1.539850 0.000000 
#    z 0.000000 0.000000 1.590160 
# 
# From -- ./inp_files/1416.got.cif
#   From: 2010.05.17/outbox.cif.g08.bks.cpg/sg123_1_cif.got.tgz:1416.got - 2010.05.20 11:43:04.
