data_PCOD9561974
_publ_section_title
;
Structure prediction by ZEFSAII (Michael W. Deem and Ramdas Pophale) SiO2 
 PCOD9561974
Probable space group: P 4/M M M
;
_chemical_formula_sum "Si O2"
_cell_formula_units_Z 92
_cell_length_a 24.357156
_cell_length_b 24.357156
_cell_length_c 8.450664
_cell_angle_alpha 90.000000
_cell_angle_beta 90.000000
_cell_angle_gamma 90.000000
_cell_volume 5013.534291
_symmetry_space_group_name_H-M "P 4/M M M"
_symmetry_group_IT_number 123
_symmetry_cell_setting 'tetragonal'
loop_
_space_group_symop_operation_xyz
x,y,z
-y,x,z
-x,-y,z
y,-x,z
x,-y,-z
-x,y,-z
y,x,-z
-y,-x,-z
-x,-y,-z
y,-x,-z
x,y,-z
-y,x,-z
-x,y,z
x,-y,z
-y,-x,z
y,x,z
loop_
_atom_site_type_symbol
_atom_site_label
_atom_site_fract_x
_atom_site_fract_y
_atom_site_fract_z
Si Si1 0.840897 0.000000 0.820753
Si Si2 0.280893 0.280893 0.817355
Si Si3 0.684043 0.846396 0.185451
Si Si4 0.436001 0.277324 0.173749
Si Si5 0.090334 0.000000 0.500000
Si Si6 0.162038 0.563944 0.684013
Si Si7 0.637854 0.637854 0.678978
Si Si8 0.203712 0.889440 0.686704
O O1 0.808996 0.942737 0.792671
O O2 0.880032 0.000000 0.668403
O O3 0.863668 0.000000 0.000000
O O4 0.217899 0.298724 0.797713
O O5 0.315435 0.315435 0.692788
O O6 0.295327 0.295327 0.000000
O O7 0.620849 0.859047 0.236657
O O8 0.732624 0.875011 0.283565
O O9 0.689422 0.859991 0.000000
O O10 0.500000 0.284271 0.161191
O O11 0.427912 0.227514 0.294236
O O12 0.411128 0.333844 0.229600
O O13 0.414509 0.260064 0.000000
O O14 0.053597 0.946404 0.500000
O O15 0.146989 0.564434 0.500000
O O16 0.150599 0.500000 0.743356
O O17 0.624464 0.624464 0.500000
O O18 0.195304 0.901951 0.500000
O O19 0.161751 0.838250 0.724436
#
# Coordination Sequence:
#
# PCOD9561974 Si02
#       8
#     8   8  16  16   4  16   8  16
#     4  12  25  43  67  94 131 173 217 266 318 371
#     4  10  20  32  46  72 111 145 180 229 279 344
#     4  11  21  34  54  81 115 154 198 244 296 362
#     4  10  20  33  48  65  89 124 165 210 263 326
#     4  11  24  44  68  96 132 170 219 270 314 368
#     4  10  20  33  49  73 108 147 188 235 288 349
#     4  12  22  30  48  69  95 128 162 208 264 329
#     4  11  23  40  63  90 125 165 207 258 312 367
#
# _framework density 18.350328999999999
#
# number of rings (size 3 to 8) (size 9 to 14) (size 15 to 20)
#    0.000    1.261    3.478    3.391    0.000    4.870 
#    0.000    0.435    0.000    0.261    0.000    2.435 
#    0.000    4.870    0.000    0.000    0.000    0.000 
#
# Total GULP energy -512335.068194 kJ/mol
# GULP energy per Si atom -5568.859437 kJ/mol
# Density = 1.830856 g / cm^3
# Si number density = 18.350329 Si / 1000 Ang^3
#
#
#
# Elastic Constant Matrix: (Units=GPa)
#
#
# Indices 1 2 3 4 5 6 
#
# 1 54.0419 40.3516 23.0106 0.0000 0.0000 0.0000
# 2 40.3516 54.0421 23.0106 0.0000 0.0000 0.0000
# 3 23.0106 23.0106 83.2514 0.0000 0.0000 0.0000
# 4 0.0000 0.0000 0.0000 27.0378 0.0000 0.0000
# 5 0.0000 0.0000 0.0000 0.0000 27.0380 0.0000
# 6 0.0000 0.0000 0.0000 0.0000 0.0000 26.4612
#
#
#
# Elastic Compliance Matrix: (Units=1/GPa)
#
#
# Indices 1 2 3 4 5 6 
#
# 1 0.042644 -0.030400 -0.003384 0.000000 0.000000 0.000000
# 2 -0.030400 0.042644 -0.003384 0.000000 0.000000 0.000000
# 3 -0.003384 -0.003384 0.013883 0.000000 0.000000 0.000000
# 4 0.000000 0.000000 0.000000 0.036985 0.000000 0.000000
# 5 0.000000 0.000000 0.000000 0.000000 0.036985 0.000000
# 6 0.000000 0.000000 0.000000 0.000000 0.000000 0.037791
#
#
# Mechanical properties :
#
#
# Convention : Reuss Voigt Hill
#
# Bulk Modulus (GPa) = 40.26807 40.45345 40.36076
# Shear Modulus (GPa) = 17.03308 23.10492 20.06900
#
# Velocity S-wave (km/s) = 3.04997 3.55223 3.31064
# Velocity P-wave (km/s) = 5.86471 6.23838 6.05443
#
# Compressibility (1/GPa) = 0.02483357
#
# Stress axis : x y z
#
# Youngs Moduli (GPa) = 23.44994 23.45006 72.03268
#
# Poissons Ratio (x) = 0.71288 0.24378
# Poissons Ratio (y) = 0.71288 0.24377
# Poissons Ratio (z) = 0.07936 0.07936
#
# Static dielectric constant tensor:
#      x y z
#    x 1.736650 0.000000 0.000000 
#    y 0.000000 1.736650 0.000000 
#    z 0.000000 0.000000 1.623440 
# 
# From -- ./inp_files/1757.got.cif
#   From: 2010.05.17/outbox.cif.g08.bks.cpg/sg123_1_cif.got.tgz:1757.got - 2010.05.20 11:43:04.
