data_PCOD9561017
_publ_section_title
;
Structure prediction by ZEFSAII (Michael W. Deem and Ramdas Pophale) SiO2 
 PCOD9561017
Probable space group: I -4 2 D
;
_chemical_formula_sum "Si O2"
_cell_formula_units_Z 76
_cell_length_a 12.888050
_cell_length_b 12.888050
_cell_length_c 21.389223
_cell_angle_alpha 90.000000
_cell_angle_beta 90.000000
_cell_angle_gamma 90.000000
_cell_volume 3552.789143
_symmetry_space_group_name_H-M "I -4 2 D"
_symmetry_group_IT_number 122
_symmetry_cell_setting 'tetragonal'
loop_
_space_group_symop_operation_xyz
x,y,z
y,-x,-z
-x,-y,z
-y,x,-z
x,1/2-y,1/4-z
-x,1/2+y,1/4-z
-y,1/2-x,1/4+z
y,1/2+x,1/4+z
1/2+x,1/2+y,1/2+z
1/2+y,1/2-x,1/2-z
1/2-x,1/2-y,1/2+z
1/2-y,1/2+x,1/2-z
1/2+x,-y,3/4-z
1/2-x,y,3/4-z
1/2-y,-x,3/4+z
1/2+y,x,3/4+z
loop_
_atom_site_type_symbol
_atom_site_label
_atom_site_fract_x
_atom_site_fract_y
_atom_site_fract_z
Si Si1 0.250000 0.518973 0.375000
Si Si2 0.135611 0.359087 0.460125
Si Si3 0.576942 0.175639 0.028351
Si Si4 0.387025 0.369288 0.909756
Si Si5 0.275220 0.712588 0.441199
Si Si6 0.000000 0.000000 0.500000
O O1 0.171926 0.449923 0.414963
O O2 0.187054 0.599435 0.330937
O O3 0.136326 0.251173 0.421306
O O4 0.220400 0.347687 0.515027
O O5 0.024141 0.363625 0.492847
O O6 0.567333 0.288846 0.061593
O O7 0.607347 0.102754 0.086774
O O8 0.670169 0.190459 0.979557
O O9 0.482097 0.405044 0.952635
O O10 0.250000 0.768089 0.375000
#
# Coordination Sequence:
#
# PCOD9561017 Si02
#       6
#     8  16  16  16  16   4
#     4  10  24  44  62  88 130 180 224 280 330 394
#     4  11  21  43  68  90 130 177 220 274 340 404
#     4  10  21  39  65  92 127 174 210 274 336 402
#     4  10  22  36  63  99 135 162 218 266 344 409
#     4   9  23  44  60  94 133 162 226 281 327 398
#     4  12  20  36  56 108 136 164 200 286 352 412
#
# _framework density 21.391645
#
# number of rings (size 3 to 8) (size 9 to 14) (size 15 to 20)
#    0.632    1.263    2.105    2.526    2.947    2.526 
#    7.579    0.000    0.000    0.000    0.000    0.000 
#    0.000    0.000    0.000    0.000    0.000    0.000 
#
# Total GULP energy -212102.373997 kJ/mol
# GULP energy per Si atom -5581.641421 kJ/mol
# Density = 2.134296 g / cm^3
# Si number density = 21.391645 Si / 1000 Ang^3
#
#
#
# Elastic Constant Matrix: (Units=GPa)
#
#
# Indices 1 2 3 4 5 6 
#
# 1 56.7001 10.1772 44.4529 0.0000 0.0000 0.0000
# 2 10.1772 56.7001 44.4529 0.0000 0.0000 0.0000
# 3 44.4529 44.4529 163.5781 0.0000 0.0000 0.0000
# 4 0.0000 0.0000 0.0000 20.9879 0.0000 0.0000
# 5 0.0000 0.0000 0.0000 0.0000 20.9879 0.0000
# 6 0.0000 0.0000 0.0000 0.0000 0.0000 12.5890
#
#
#
# Elastic Compliance Matrix: (Units=1/GPa)
#
#
# Indices 1 2 3 4 5 6 
#
# 1 0.022452 0.000958 -0.006362 0.000000 0.000000 0.000000
# 2 0.000958 0.022452 -0.006362 0.000000 0.000000 0.000000
# 3 -0.006362 -0.006362 0.009571 0.000000 0.000000 0.000000
# 4 0.000000 0.000000 0.000000 0.047646 0.000000 0.000000
# 5 0.000000 0.000000 0.000000 0.000000 0.047646 0.000000
# 6 0.000000 0.000000 0.000000 0.000000 0.000000 0.079435
#
#
# Mechanical properties :
#
#
# Convention : Reuss Voigt Hill
#
# Bulk Modulus (GPa) = 32.31653 52.79380 42.55517
# Shear Modulus (GPa) = 19.00782 22.77266 20.89024
#
# Velocity S-wave (km/s) = 2.98411 3.26630 3.12839
# Velocity P-wave (km/s) = 5.19741 6.24165 5.74331
#
# Compressibility (1/GPa) = 0.03094391
#
# Stress axis : x y z
#
# Youngs Moduli (GPa) = 44.53875 44.53875 104.48309
#
# Poissons Ratio (x) = -0.04265 0.66469
# Poissons Ratio (y) = -0.04265 0.66469
# Poissons Ratio (z) = 0.28334 0.28334
#
# Static dielectric constant tensor:
#      x y z
#    x 1.799330 0.000000 0.000000 
#    y 0.000000 1.799330 0.000000 
#    z 0.000000 0.000000 1.786970 
# 
# From -- ./inp_files/7132.got.cif
#   From: 2010.05.17/outbox.cif.g08.bks.cpg/sg122_4_cif.got.tgz:7132.got - 2010.05.20 11:37:33.
