data_PCOD9561168
_publ_section_title
;
Structure prediction by ZEFSAII (Michael W. Deem and Ramdas Pophale) SiO2 
 PCOD9561168
Probable space group: I -4 2 D
;
_chemical_formula_sum "Si O2"
_cell_formula_units_Z 116
_cell_length_a 18.771715
_cell_length_b 18.771715
_cell_length_c 16.759692
_cell_angle_alpha 90.000000
_cell_angle_beta 90.000000
_cell_angle_gamma 90.000000
_cell_volume 5905.734748
_symmetry_space_group_name_H-M "I -4 2 D"
_symmetry_group_IT_number 122
_symmetry_cell_setting 'tetragonal'
loop_
_space_group_symop_operation_xyz
x,y,z
y,-x,-z
-x,-y,z
-y,x,-z
x,1/2-y,1/4-z
-x,1/2+y,1/4-z
-y,1/2-x,1/4+z
y,1/2+x,1/4+z
1/2+x,1/2+y,1/2+z
1/2+y,1/2-x,1/2-z
1/2-x,1/2-y,1/2+z
1/2-y,1/2+x,1/2-z
1/2+x,-y,3/4-z
1/2-x,y,3/4-z
1/2-y,-x,3/4+z
1/2+y,x,3/4+z
loop_
_atom_site_type_symbol
_atom_site_label
_atom_site_fract_x
_atom_site_fract_y
_atom_site_fract_z
Si Si1 0.080622 0.713274 0.215133
Si Si2 0.440849 0.223161 0.960155
Si Si3 0.053955 0.383190 0.847599
Si Si4 0.316392 0.809138 0.423983
Si Si5 0.451478 0.822023 0.086608
Si Si6 0.418636 0.097446 0.169363
Si Si7 0.500000 0.000000 0.750000
Si Si8 0.644285 0.056076 0.703046
O O1 0.079862 0.750000 0.125000
O O2 0.128293 0.764306 0.272359
O O3 0.121908 0.637113 0.225866
O O4 0.998678 0.695102 0.245320
O O5 0.452414 0.302026 0.927633
O O6 0.431971 0.175814 0.883392
O O7 0.373084 0.215220 0.019537
O O8 0.511654 0.198046 0.004898
O O9 0.114916 0.395263 0.912061
O O10 0.078231 0.416983 0.763157
O O11 0.979416 0.417360 0.872221
O O12 0.250000 0.774707 0.375000
O O13 0.363123 0.847322 0.356050
O O14 0.422305 0.750000 0.125000
O O15 0.517522 0.852594 0.139394
O O16 0.569428 0.014765 0.698342
#
# Coordination Sequence:
#
# PCOD9561168 Si02
#       8
#    16  16  16  16  16  16   4  16
#     4  11  23  44  72 103 137 182 240 298 357 432
#     4  11  21  42  60  92 136 171 223 283 342 415
#     4  12  21  36  61  89 129 178 222 268 345 419
#     4  11  22  41  66  95 135 184 219 282 360 414
#     4  11  22  38  56  88 131 174 221 274 330 408
#     4  11  20  34  59  88 125 173 222 274 333 404
#     4   8  20  44  68  92 116 164 222 296 356 388
#     4  10  22  44  71  95 132 176 227 294 360 405
#
# _framework density 19.641925000000001
#
# number of rings (size 3 to 8) (size 9 to 14) (size 15 to 20)
#    0.000    1.103    5.517    2.069    0.000    0.552 
#    7.448    2.759    0.000    0.000    0.000    0.000 
#    0.000    0.000    0.000    0.000    0.000    0.000 
#
# Total GULP energy -323030.678775 kJ/mol
# GULP energy per Si atom -5569.494462 kJ/mol
# Density = 1.959722 g / cm^3
# Si number density = 19.641925 Si / 1000 Ang^3
#
#
#
# Elastic Constant Matrix: (Units=GPa)
#
#
# Indices 1 2 3 4 5 6 
#
# 1 86.3686 27.0123 21.0544 0.0000 0.0000 0.0000
# 2 27.0123 86.3686 21.0544 0.0000 0.0000 0.0000
# 3 21.0544 21.0544 41.3431 0.0000 0.0000 0.0000
# 4 0.0000 0.0000 0.0000 44.2321 0.0000 0.0000
# 5 0.0000 0.0000 0.0000 0.0000 44.2321 0.0000
# 6 0.0000 0.0000 0.0000 0.0000 0.0000 26.5218
#
#
#
# Elastic Compliance Matrix: (Units=1/GPa)
#
#
# Indices 1 2 3 4 5 6 
#
# 1 0.013862 -0.002985 -0.005539 0.000000 0.000000 0.000000
# 2 -0.002985 0.013862 -0.005539 0.000000 0.000000 0.000000
# 3 -0.005539 -0.005539 0.029830 0.000000 0.000000 0.000000
# 4 0.000000 0.000000 0.000000 0.022608 0.000000 0.000000
# 5 0.000000 0.000000 0.000000 0.000000 0.022608 0.000000
# 6 0.000000 0.000000 0.000000 0.000000 0.000000 0.037705
#
#
# Mechanical properties :
#
#
# Convention : Reuss Voigt Hill
#
# Bulk Modulus (GPa) = 33.98264 39.14696 36.56480
# Shear Modulus (GPa) = 28.02513 32.66115 30.34314
#
# Velocity S-wave (km/s) = 3.78140 4.08220 3.93468
# Velocity P-wave (km/s) = 6.03357 6.49559 6.26884
#
# Compressibility (1/GPa) = 0.02942679
#
# Stress axis : x y z
#
# Youngs Moduli (GPa) = 72.13844 72.13844 33.52363
#
# Poissons Ratio (x) = 0.21535 0.18570
# Poissons Ratio (y) = 0.21535 0.18570
# Poissons Ratio (z) = 0.39959 0.39959
#
# Static dielectric constant tensor:
#      x y z
#    x 1.719890 0.000000 0.000000 
#    y 0.000000 1.719890 0.000000 
#    z 0.000000 0.000000 1.734160 
# 
# From -- ./inp_files/6450.got.cif
#   From: 2010.05.17/outbox.cif.g08.bks.cpg/sg122_4_cif.got.tgz:6450.got - 2010.05.20 11:37:33.
