data_PCOD9561795
_publ_section_title
;
Structure prediction by ZEFSAII (Michael W. Deem and Ramdas Pophale) SiO2 
 PCOD9561795
Probable space group: P 4/M M M
;
_chemical_formula_sum "Si O2"
_cell_formula_units_Z 72
_cell_length_a 21.405566
_cell_length_b 21.405566
_cell_length_c 8.183597
_cell_angle_alpha 90.000000
_cell_angle_beta 90.000000
_cell_angle_gamma 90.000000
_cell_volume 3749.709871
_symmetry_space_group_name_H-M "P 4/M M M"
_symmetry_group_IT_number 123
_symmetry_cell_setting 'tetragonal'
loop_
_space_group_symop_operation_xyz
x,y,z
-y,x,z
-x,-y,z
y,-x,z
x,-y,-z
-x,y,-z
y,x,-z
-y,-x,-z
-x,-y,-z
y,-x,-z
x,y,-z
-y,x,-z
-x,y,z
x,-y,z
-y,-x,z
y,x,z
loop_
_atom_site_type_symbol
_atom_site_label
_atom_site_fract_x
_atom_site_fract_y
_atom_site_fract_z
Si Si1 0.135429 0.428778 0.194681
Si Si2 0.865068 0.768988 0.198807
Si Si3 0.332293 0.764434 0.306599
Si Si4 0.765182 0.000000 0.814919
Si Si5 0.000000 0.427543 0.305188
Si Si6 0.000000 0.103874 0.687356
O O1 0.138163 0.500000 0.259023
O O2 0.199161 0.392901 0.240780
O O3 0.067678 0.401209 0.250210
O O4 0.132475 0.429732 0.000000
O O5 0.837303 0.837303 0.240698
O O6 0.815577 0.720459 0.266250
O O7 0.933349 0.751867 0.263389
O O8 0.866593 0.765173 0.000000
O O9 0.340018 0.757544 0.500000
O O10 0.301270 0.698731 0.244246
O O11 0.840522 0.000000 0.814410
O O12 0.739950 0.000000 0.000000
O O13 0.000000 0.500000 0.243910
O O14 0.000000 0.427466 0.500000
O O15 0.059348 0.059348 0.706088
O O16 0.000000 0.128506 0.500000
#
# Coordination Sequence:
#
# PCOD9561795 Si02
#       6
#    16  16  16   8   8   8
#     4  10  20  34  54  80 109 141 176 214 260 314
#     4   9  18  32  47  63  87 119 154 196 247 299
#     4  10  21  36  53  73  99 134 174 212 251 296
#     4  10  19  30  46  66  83 105 144 192 239 287
#     4   9  17  30  49  74 106 142 177 216 261 307
#     4   9  18  30  41  55  77 104 133 172 231 297
#
# _framework density 19.201487
#
# number of rings (size 3 to 8) (size 9 to 14) (size 15 to 20)
#    0.000    2.444    0.000    2.667    0.000    7.111 
#    0.000    6.111    0.000    0.000    0.000    0.000 
#    0.000    0.444    0.000    4.889    0.000    3.556 
#
# Total GULP energy -400956.400404 kJ/mol
# GULP energy per Si atom -5568.838895 kJ/mol
# Density = 1.915778 g / cm^3
# Si number density = 19.201487 Si / 1000 Ang^3
#
#
#
# Elastic Constant Matrix: (Units=GPa)
#
#
# Indices 1 2 3 4 5 6 
#
# 1 73.3904 34.6636 11.3716 0.0000 0.0000 0.0000
# 2 34.6636 73.3904 11.3716 0.0000 0.0000 0.0000
# 3 11.3716 11.3716 23.6620 0.0000 0.0000 0.0000
# 4 0.0000 0.0000 0.0000 16.8176 0.0000 0.0000
# 5 0.0000 0.0000 0.0000 0.0000 16.8176 0.0000
# 6 0.0000 0.0000 0.0000 0.0000 0.0000 24.2959
#
#
#
# Elastic Compliance Matrix: (Units=1/GPa)
#
#
# Indices 1 2 3 4 5 6 
#
# 1 0.018059 -0.007763 -0.004948 0.000000 0.000000 0.000000
# 2 -0.007763 0.018059 -0.004948 0.000000 0.000000 0.000000
# 3 -0.004948 -0.004948 0.047018 0.000000 0.000000 0.000000
# 4 0.000000 0.000000 0.000000 0.059462 0.000000 0.000000
# 5 0.000000 0.000000 0.000000 0.000000 0.059462 0.000000
# 6 0.000000 0.000000 0.000000 0.000000 0.000000 0.041159
#
#
# Mechanical properties :
#
#
# Convention : Reuss Voigt Hill
#
# Bulk Modulus (GPa) = 20.91286 31.69517 26.30402
# Shear Modulus (GPa) = 16.97931 19.12193 18.05062
#
# Velocity S-wave (km/s) = 2.97689 3.15914 3.06937
# Velocity P-wave (km/s) = 4.76768 5.46346 5.12739
#
# Compressibility (1/GPa) = 0.04781747
#
# Stress axis : x y z
#
# Youngs Moduli (GPa) = 55.37398 55.37398 21.26849
#
# Poissons Ratio (x) = 0.42986 0.10524
# Poissons Ratio (y) = 0.42986 0.10524
# Poissons Ratio (z) = 0.27400 0.27400
#
# Static dielectric constant tensor:
#      x y z
#    x 1.733460 0.000000 0.000000 
#    y 0.000000 1.733460 0.000000 
#    z 0.000000 0.000000 1.679930 
# 
# From -- ./inp_files/1215.got.cif
#   From: 2010.05.17/outbox.cif.g08.bks.cpg/sg123_1_cif.got.tgz:1215.got - 2010.05.20 11:43:04.
