data_PCOD9561652
_publ_section_title
;
Structure prediction by ZEFSAII (Michael W. Deem and Ramdas Pophale) SiO2 
 PCOD9561652
Probable space group: P 4/M M M
;
_chemical_formula_sum "Si O2"
_cell_formula_units_Z 72
_cell_length_a 15.628178
_cell_length_b 15.628178
_cell_length_c 17.613642
_cell_angle_alpha 90.000000
_cell_angle_beta 90.000000
_cell_angle_gamma 90.000000
_cell_volume 4301.954999
_symmetry_space_group_name_H-M "P 4/M M M"
_symmetry_group_IT_number 123
_symmetry_cell_setting 'tetragonal'
loop_
_space_group_symop_operation_xyz
x,y,z
-y,x,z
-x,-y,z
y,-x,z
x,-y,-z
-x,y,-z
y,x,-z
-y,-x,-z
-x,-y,-z
y,-x,-z
x,y,-z
-y,x,-z
-x,y,z
x,-y,z
-y,-x,z
y,x,z
loop_
_atom_site_type_symbol
_atom_site_label
_atom_site_fract_x
_atom_site_fract_y
_atom_site_fract_z
Si Si1 0.095272 0.396234 0.911541
Si Si2 0.590335 0.730889 0.500000
Si Si3 0.600786 0.256441 0.809180
Si Si4 0.905631 0.764305 0.590390
Si Si5 0.405611 0.157515 0.652135
O O1 0.094287 0.500000 0.908435
O O2 0.176832 0.370294 0.862111
O O3 0.000000 0.367897 0.885478
O O4 0.104953 0.372212 0.000000
O O5 0.500000 0.682139 0.500000
O O6 0.669748 0.669748 0.500000
O O7 0.592109 0.787864 0.575016
O O8 0.500000 0.275457 0.824849
O O9 0.662174 0.337827 0.818821
O O10 0.605570 0.220123 0.723530
O O11 0.897168 0.743663 0.500000
O O12 0.829961 0.829961 0.609614
O O13 0.899349 0.677950 0.639472
O O14 0.000000 0.802964 0.600319
O O15 0.500000 0.115494 0.660799
#
# Coordination Sequence:
#
# PCOD9561652 Si02
#       5
#    16   8  16  16  16
#     4   8  15  30  51  72  94 122 158 201 247 290
#     4  10  18  29  45  61  84 120 160 206 253 294
#     4  10  20  32  48  72 102 135 169 204 244 295
#     4  10  20  33  50  70  94 125 158 197 247 304
#     4  10  20  33  49  69  93 126 167 211 255 296
#
# _framework density 16.736577
#
# number of rings (size 3 to 8) (size 9 to 14) (size 15 to 20)
#    0.000    2.444    1.111    2.667    0.000    2.333 
#    0.000    4.444    0.000    4.000    0.000    3.111 
#    0.000    0.444    0.000    2.444    0.000    0.222 
#
# Total GULP energy -400907.260557 kJ/mol
# GULP energy per Si atom -5568.156397 kJ/mol
# Density = 1.669848 g / cm^3
# Si number density = 16.736577 Si / 1000 Ang^3
#
#
#
# Elastic Constant Matrix: (Units=GPa)
#
#
# Indices 1 2 3 4 5 6 
#
# 1 93.7256 57.3597 30.6790 0.0000 0.0000 0.0000
# 2 57.3597 93.7256 30.6790 0.0000 0.0000 0.0000
# 3 30.6790 30.6790 64.3564 0.0000 0.0000 0.0000
# 4 0.0000 0.0000 0.0000 8.2872 0.0000 0.0000
# 5 0.0000 0.0000 0.0000 0.0000 8.2872 0.0000
# 6 0.0000 0.0000 0.0000 0.0000 0.0000 -1.7201
#
#
#
# Elastic Compliance Matrix: (Units=1/GPa)
#
#
# Indices 1 2 3 4 5 6 
#
# 1 0.017853 -0.009645 -0.003913 0.000000 0.000000 0.000000
# 2 -0.009645 0.017853 -0.003913 0.000000 0.000000 0.000000
# 3 -0.003913 -0.003913 0.019269 0.000000 0.000000 0.000000
# 4 0.000000 0.000000 0.000000 0.120668 0.000000 0.000000
# 5 0.000000 0.000000 0.000000 0.000000 0.120668 0.000000
# 6 0.000000 0.000000 0.000000 0.000000 0.000000 -0.581365
#
#
# Mechanical properties :
#
#
# Convention : Reuss Voigt Hill
#
# Bulk Modulus (GPa) = 49.91597 54.36034 52.13815
# Shear Modulus (GPa) = -20.53933 11.84354 -4.34790
#
# Velocity S-wave (km/s) = -3.50696 2.66304 -1.61353
# Velocity P-wave (km/s) = 3.67299 6.48122 5.26769
#
# Compressibility (1/GPa) = 0.02003367
#
# Stress axis : x y z
#
# Youngs Moduli (GPa) = 56.01296 56.01296 51.89721
#
# Poissons Ratio (x) = 0.54026 0.20306
# Poissons Ratio (y) = 0.54026 0.20306
# Poissons Ratio (z) = 0.21916 0.21916
#
# Static dielectric constant tensor:
#      x y z
#    x 1.577210 0.000000 0.000000 
#    y 0.000000 1.577210 0.000000 
#    z 0.000000 0.000000 1.559310 
# 
# From -- ./inp_files/5138.got.cif
#   From: 2010.05.17/outbox.cif.g08.bks.cpg/sg123_3_cif.got.tgz:5138.got - 2010.05.20 11:43:04.
