data_PCOD9561908
_publ_section_title
;
Structure prediction by ZEFSAII (Michael W. Deem and Ramdas Pophale) SiO2 
 PCOD9561908
Probable space group: P 4/M M M
;
_chemical_formula_sum "Si O2"
_cell_formula_units_Z 80
_cell_length_a 12.890589
_cell_length_b 12.890589
_cell_length_c 29.106190
_cell_angle_alpha 90.000000
_cell_angle_beta 90.000000
_cell_angle_gamma 90.000000
_cell_volume 4836.496562
_symmetry_space_group_name_H-M "P 4/M M M"
_symmetry_group_IT_number 123
_symmetry_cell_setting 'tetragonal'
loop_
_space_group_symop_operation_xyz
x,y,z
-y,x,z
-x,-y,z
y,-x,z
x,-y,-z
-x,y,-z
y,x,-z
-y,-x,-z
-x,-y,-z
y,-x,-z
x,y,-z
-y,x,-z
-x,y,z
x,-y,z
-y,-x,z
y,x,z
loop_
_atom_site_type_symbol
_atom_site_label
_atom_site_fract_x
_atom_site_fract_y
_atom_site_fract_z
Si Si1 0.209599 0.379640 0.266340
Si Si2 0.205885 0.620933 0.551346
Si Si3 0.879766 0.500000 0.886832
Si Si4 0.708104 0.118354 0.357472
Si Si5 0.329273 0.500000 0.944683
Si Si6 0.291717 0.119023 0.825769
O O1 0.222575 0.500000 0.255989
O O2 0.318110 0.318110 0.266801
O O3 0.157427 0.363832 0.315902
O O4 0.141048 0.326457 0.226675
O O5 0.161715 0.639089 0.500000
O O6 0.231341 0.500000 0.555092
O O7 0.308433 0.691568 0.555208
O O8 0.133485 0.653548 0.593349
O O9 0.784447 0.500000 0.922499
O O10 0.868459 0.395802 0.856213
O O11 0.000000 0.500000 0.904631
O O12 0.808409 0.191592 0.356866
O O13 0.735876 0.000000 0.350073
O O14 0.399231 0.399231 0.931623
O O15 0.321256 0.500000 0.000000
O O16 0.202915 0.202915 0.837638
O O17 0.255944 0.000000 0.830585
#
# Coordination Sequence:
#
# PCOD9561908 Si02
#       6
#    16  16   8  16   8  16
#     4  10  20  34  51  72 100 130 163 202 243 293
#     4   9  18  32  49  71  97 121 149 186 228 280
#     4  10  19  32  52  76 105 138 174 220 262 304
#     4  10  21  35  51  70  91 120 156 196 243 290
#     4   9  18  33  53  77 107 142 177 216 262 310
#     4  10  20  33  50  73 101 135 173 214 259 304
#
# _framework density 16.540899
#
# number of rings (size 3 to 8) (size 9 to 14) (size 15 to 20)
#    0.000    2.300    1.000    2.100    0.000    3.800 
#    0.000    2.000    0.000    7.200    0.000    2.800 
#    0.000    0.000    0.000   18.600    0.000    0.000 
#
# Total GULP energy -445959.469032 kJ/mol
# GULP energy per Si atom -5574.493363 kJ/mol
# Density = 1.650325 g / cm^3
# Si number density = 16.540899 Si / 1000 Ang^3
#
#
#
# Elastic Constant Matrix: (Units=GPa)
#
#
# Indices 1 2 3 4 5 6 
#
# 1 97.9317 52.8218 32.9125 0.0000 0.0000 0.0000
# 2 52.8218 97.9317 32.9125 0.0000 0.0000 0.0000
# 3 32.9125 32.9125 53.1303 0.0000 0.0000 0.0000
# 4 0.0000 0.0000 0.0000 20.3544 0.0000 0.0000
# 5 0.0000 0.0000 0.0000 0.0000 20.3544 0.0000
# 6 0.0000 0.0000 0.0000 0.0000 0.0000 9.7224
#
#
#
# Elastic Compliance Matrix: (Units=1/GPa)
#
#
# Indices 1 2 3 4 5 6 
#
# 1 0.015630 -0.006538 -0.005633 0.000000 0.000000 0.000000
# 2 -0.006538 0.015630 -0.005633 0.000000 0.000000 0.000000
# 3 -0.005633 -0.005633 0.025800 0.000000 0.000000 0.000000
# 4 0.000000 0.000000 0.000000 0.049129 0.000000 0.000000
# 5 0.000000 0.000000 0.000000 0.000000 0.049129 0.000000
# 6 0.000000 0.000000 0.000000 0.000000 0.000000 0.102855
#
#
# Mechanical properties :
#
#
# Convention : Reuss Voigt Hill
#
# Bulk Modulus (GPa) = 46.60918 54.03196 50.32057
# Shear Modulus (GPa) = 16.61500 18.77603 17.69551
#
# Velocity S-wave (km/s) = 3.17279 3.37282 3.27433
# Velocity P-wave (km/s) = 6.45457 6.92131 6.69201
#
# Compressibility (1/GPa) = 0.02145500
#
# Stress axis : x y z
#
# Youngs Moduli (GPa) = 63.97771 63.97771 38.75940
#
# Poissons Ratio (x) = 0.41826 0.21832
# Poissons Ratio (y) = 0.41826 0.21832
# Poissons Ratio (z) = 0.36037 0.36037
#
# Static dielectric constant tensor:
#      x y z
#    x 1.535130 0.000000 0.000000 
#    y 0.000000 1.535130 0.000000 
#    z 0.000000 0.000000 1.561000 
# 
# From -- ./inp_files/8350.got.cif
#   From: 2010.05.17/outbox.cif.g08.bks.cpg/sg123_5_cif.got.tgz:8350.got - 2010.05.20 11:43:04.
