data_PCOD9561896
_publ_section_title
;
Structure prediction by ZEFSAII (Michael W. Deem and Ramdas Pophale) SiO2 
 PCOD9561896
Probable space group: P 4/M M M
;
_chemical_formula_sum "Si O2"
_cell_formula_units_Z 88
_cell_length_a 12.519347
_cell_length_b 12.519347
_cell_length_c 33.284613
_cell_angle_alpha 90.000000
_cell_angle_beta 90.000000
_cell_angle_gamma 90.000000
_cell_volume 5216.832175
_symmetry_space_group_name_H-M "P 4/M M M"
_symmetry_group_IT_number 123
_symmetry_cell_setting 'tetragonal'
loop_
_space_group_symop_operation_xyz
x,y,z
-y,x,z
-x,-y,z
y,-x,z
x,-y,-z
-x,y,-z
y,x,-z
-y,-x,-z
-x,-y,-z
y,-x,-z
x,y,-z
-y,x,-z
-x,y,z
x,-y,z
-y,-x,z
y,x,z
loop_
_atom_site_type_symbol
_atom_site_label
_atom_site_fract_x
_atom_site_fract_y
_atom_site_fract_z
Si Si1 0.202820 0.379987 0.585729
Si Si2 0.619710 0.200451 0.000000
Si Si3 0.698625 0.873971 0.500000
Si Si4 0.375469 0.000000 0.644231
Si Si5 0.814628 0.000000 0.710230
Si Si6 0.624057 0.000000 0.224074
Si Si7 0.700176 0.122293 0.916939
Si Si8 0.204801 0.618655 0.166613
O O1 0.245184 0.500000 0.589476
O O2 0.292628 0.292628 0.593978
O O3 0.160852 0.362125 0.540369
O O4 0.104102 0.367731 0.616053
O O5 0.640569 0.135087 0.959328
O O6 0.500000 0.241406 0.000000
O O7 0.702789 0.297212 0.000000
O O8 0.810191 0.810191 0.500000
O O9 0.713856 0.000000 0.500000
O O10 0.500000 0.000000 0.660799
O O11 0.272084 0.000000 0.673560
O O12 0.728045 0.000000 0.746935
O O13 0.895900 0.895900 0.710208
O O14 0.630781 0.103955 0.195849
O O15 0.500000 0.000000 0.241109
O O16 0.805888 0.194113 0.919267
O O17 0.633230 0.165703 0.879276
O O18 0.726500 0.000000 0.909591
O O19 0.249382 0.500000 0.171708
O O20 0.291777 0.708224 0.175124
#
# Coordination Sequence:
#
# PCOD9561896 Si02
#       8
#    16   8   8   8   8   8  16  16
#     4  10  20  33  52  77 106 142 182 226 270 314
#     4  10  21  34  50  72  98 132 173 216 258 302
#     4  10  19  32  50  74 106 143 186 229 268 314
#     4  10  20  36  58  79 104 140 183 219 258 315
#     4  11  23  38  57  82 113 140 165 210 266 318
#     4  10  20  37  60  81 105 136 174 212 252 307
#     4  10  20  34  51  74 103 135 174 214 254 302
#     4  10  20  34  54  79 107 138 172 213 258 306
#
# _framework density 16.868473000000002
#
# number of rings (size 3 to 8) (size 9 to 14) (size 15 to 20)
#    0.000    1.909    1.818    2.455    0.000    2.545 
#    0.000    0.000    0.000    6.545    0.000    0.000 
#    0.000   13.091    0.000    0.000    0.000    0.000 
#
# Total GULP energy -490481.699698 kJ/mol
# GULP energy per Si atom -5573.655678 kJ/mol
# Density = 1.683008 g / cm^3
# Si number density = 16.868473 Si / 1000 Ang^3
#
#
#
# Elastic Constant Matrix: (Units=GPa)
#
#
# Indices 1 2 3 4 5 6 
#
# 1 129.9111 57.2453 48.3567 0.0000 0.0000 0.0000
# 2 57.2453 129.8984 48.3603 0.0000 0.0000 0.0000
# 3 48.3567 48.3603 81.6984 0.0000 0.0000 0.0000
# 4 0.0000 0.0000 0.0000 20.4170 0.0000 0.0000
# 5 0.0000 0.0000 0.0000 0.0000 20.4168 0.0000
# 6 0.0000 0.0000 0.0000 0.0000 0.0000 16.7909
#
#
#
# Elastic Compliance Matrix: (Units=1/GPa)
#
#
# Indices 1 2 3 4 5 6 
#
# 1 0.010730 -0.003032 -0.004556 0.000000 0.000000 0.000000
# 2 -0.003032 0.010731 -0.004557 0.000000 0.000000 0.000000
# 3 -0.004556 -0.004557 0.017634 0.000000 0.000000 0.000000
# 4 0.000000 0.000000 0.000000 0.048979 0.000000 0.000000
# 5 0.000000 0.000000 0.000000 0.000000 0.048979 0.000000
# 6 0.000000 0.000000 0.000000 0.000000 0.000000 0.059556
#
#
# Mechanical properties :
#
#
# Convention : Reuss Voigt Hill
#
# Bulk Modulus (GPa) = 67.54872 72.15918 69.85395
# Shear Modulus (GPa) = 22.14000 24.02797 23.08398
#
# Velocity S-wave (km/s) = 3.62678 3.77826 3.70330
# Velocity P-wave (km/s) = 7.59404 7.86791 7.73219
#
# Compressibility (1/GPa) = 0.01480413
#
# Stress axis : x y z
#
# Youngs Moduli (GPa) = 93.20030 93.18463 56.70725
#
# Poissons Ratio (x) = 0.28257 0.25835
# Poissons Ratio (y) = 0.28262 0.25844
# Poissons Ratio (z) = 0.42460 0.42469
#
# Static dielectric constant tensor:
#      x y z
#    x 1.545750 0.000000 0.000000 
#    y 0.000000 1.545750 0.000000 
#    z 0.000000 0.000000 1.584430 
# 
# From -- ./inp_files/8561.got.cif
#   From: 2010.05.17/outbox.cif.g08.bks.cpg/sg123_5_cif.got.tgz:8561.got - 2010.05.20 11:43:04.
