data_PCOD9561314
_publ_section_title
;
Structure prediction by ZEFSAII (Michael W. Deem and Ramdas Pophale) SiO2 
 PCOD9561314
Probable space group: I -4 2 D
;
_chemical_formula_sum "Si O2"
_cell_formula_units_Z 48
_cell_length_a 13.276004
_cell_length_b 13.276004
_cell_length_c 11.042645
_cell_angle_alpha 90.000000
_cell_angle_beta 90.000000
_cell_angle_gamma 90.000000
_cell_volume 1946.291383
_symmetry_space_group_name_H-M "I -4 2 D"
_symmetry_group_IT_number 122
_symmetry_cell_setting 'tetragonal'
loop_
_space_group_symop_operation_xyz
x,y,z
y,-x,-z
-x,-y,z
-y,x,-z
x,1/2-y,1/4-z
-x,1/2+y,1/4-z
-y,1/2-x,1/4+z
y,1/2+x,1/4+z
1/2+x,1/2+y,1/2+z
1/2+y,1/2-x,1/2-z
1/2-x,1/2-y,1/2+z
1/2-y,1/2+x,1/2-z
1/2+x,-y,3/4-z
1/2-x,y,3/4-z
1/2-y,-x,3/4+z
1/2+y,x,3/4+z
loop_
_atom_site_type_symbol
_atom_site_label
_atom_site_fract_x
_atom_site_fract_y
_atom_site_fract_z
Si Si1 0.103630 0.111620 0.943581
Si Si2 0.302153 0.153656 0.049077
Si Si3 0.528511 0.168238 0.235497
O O1 0.112524 0.122312 0.798133
O O2 0.196273 0.179175 0.987171
O O3 0.003717 0.130187 0.020528
O O4 0.332503 0.250000 0.125000
O O5 0.278929 0.064004 0.141532
O O6 0.536120 0.250000 0.125000
O O7 0.424191 0.110137 0.269190
#
# Coordination Sequence:
#
# PCOD9561314 Si02
#       3
#    16  16  16
#     4  10  26  48  77 111 156 210 272 343 423 506
#     4  11  27  45  77 113 159 215 274 341 426 519
#     4  11  28  48  79 119 166 223 288 356 440 525
#
# _framework density 24.662288
#
# number of rings (size 3 to 8) (size 9 to 14) (size 15 to 20)
#    0.000    1.333    0.000    1.000   23.333    2.667 
#    0.000    0.000    0.000    0.000    0.000    0.000 
#    0.000    0.000    0.000    0.000    0.000    0.000 
#
# Total GULP energy -133796.832602 kJ/mol
# GULP energy per Si atom -5574.868025 kJ/mol
# Density = 2.460616 g / cm^3
# Si number density = 24.662288 Si / 1000 Ang^3
#
#
#
# Elastic Constant Matrix: (Units=GPa)
#
#
# Indices 1 2 3 4 5 6 
#
# 1 110.5270 50.4713 73.4793 0.0000 0.0000 0.0000
# 2 50.4713 110.5270 73.4793 0.0000 0.0000 0.0000
# 3 73.4793 73.4793 191.7560 0.0000 0.0000 0.0000
# 4 0.0000 0.0000 0.0000 40.6057 0.0000 0.0000
# 5 0.0000 0.0000 0.0000 0.0000 40.6057 0.0000
# 6 0.0000 0.0000 0.0000 0.0000 0.0000 17.9775
#
#
#
# Elastic Compliance Matrix: (Units=1/GPa)
#
#
# Indices 1 2 3 4 5 6 
#
# 1 0.013102 -0.003549 -0.003660 0.000000 0.000000 0.000000
# 2 -0.003549 0.013102 -0.003660 0.000000 0.000000 0.000000
# 3 -0.003660 -0.003660 0.008020 0.000000 0.000000 0.000000
# 4 0.000000 0.000000 0.000000 0.024627 0.000000 0.000000
# 5 0.000000 0.000000 0.000000 0.000000 0.024627 0.000000
# 6 0.000000 0.000000 0.000000 0.000000 0.000000 0.055625
#
#
# Mechanical properties :
#
#
# Convention : Reuss Voigt Hill
#
# Bulk Modulus (GPa) = 80.10587 89.74108 84.92348
# Shear Modulus (GPa) = 30.30215 34.19645 32.24930
#
# Velocity S-wave (km/s) = 3.50906 3.72773 3.62005
# Velocity P-wave (km/s) = 6.99783 7.41586 7.20988
#
# Compressibility (1/GPa) = 0.01248348
#
# Stress axis : x y z
#
# Youngs Moduli (GPa) = 76.32523 76.32523 124.68443
#
# Poissons Ratio (x) = 0.27091 0.45640
# Poissons Ratio (y) = 0.27091 0.45640
# Poissons Ratio (z) = 0.27938 0.27938
#
# Static dielectric constant tensor:
#      x y z
#    x 2.056090 0.000000 0.000000 
#    y 0.000000 2.056090 0.000000 
#    z 0.000000 0.000000 2.089050 
# 
# From -- ./inp_files/3739.got.cif
#   From: 2010.05.17/outbox.cif.g08.bks.cpg/sg122_2_cif.got.tgz:3739.got - 2010.05.20 11:37:33.
