data_PCOD9561107
_publ_section_title
;
Structure prediction by ZEFSAII (Michael W. Deem and Ramdas Pophale) SiO2 
 PCOD9561107
Probable space group: I -4 2 D
;
_chemical_formula_sum "Si O2"
_cell_formula_units_Z 72
_cell_length_a 17.672856
_cell_length_b 17.672856
_cell_length_c 11.052849
_cell_angle_alpha 90.000000
_cell_angle_beta 90.000000
_cell_angle_gamma 90.000000
_cell_volume 3452.134551
_symmetry_space_group_name_H-M "I -4 2 D"
_symmetry_group_IT_number 122
_symmetry_cell_setting 'tetragonal'
loop_
_space_group_symop_operation_xyz
x,y,z
y,-x,-z
-x,-y,z
-y,x,-z
x,1/2-y,1/4-z
-x,1/2+y,1/4-z
-y,1/2-x,1/4+z
y,1/2+x,1/4+z
1/2+x,1/2+y,1/2+z
1/2+y,1/2-x,1/2-z
1/2-x,1/2-y,1/2+z
1/2-y,1/2+x,1/2-z
1/2+x,-y,3/4-z
1/2-x,y,3/4-z
1/2-y,-x,3/4+z
1/2+y,x,3/4+z
loop_
_atom_site_type_symbol
_atom_site_label
_atom_site_fract_x
_atom_site_fract_y
_atom_site_fract_z
Si Si1 0.377091 0.510276 0.031725
Si Si2 0.750000 0.084361 0.375000
Si Si3 0.685397 0.338545 0.646625
Si Si4 0.260722 0.527819 0.230195
Si Si5 0.459611 0.887790 0.739414
O O1 0.338220 0.504204 0.164497
O O2 0.436744 0.578804 0.015658
O O3 0.307262 0.531815 0.947299
O O4 0.705286 0.136854 0.468710
O O5 0.692042 0.250000 0.625000
O O6 0.741843 0.386958 0.561689
O O7 0.601339 0.364980 0.610537
O O8 0.250000 0.522986 0.375000
O O9 0.188214 0.477644 0.185460
O O10 0.540650 0.920121 0.694703
#
# Coordination Sequence:
#
# PCOD9561107 Si02
#       5
#    16   8  16  16  16
#     4  10  24  49  69  98 137 188 236 280 356 434
#     4  10  24  46  68  98 138 180 224 284 354 428
#     4  10  22  40  66  97 136 177 222 283 352 415
#     4  10  22  42  65 102 133 174 236 293 345 411
#     4   9  19  38  61 100 133 169 219 284 346 393
#
# _framework density 20.856660999999999
#
# number of rings (size 3 to 8) (size 9 to 14) (size 15 to 20)
#    0.000    2.222    0.000    0.667    7.778    0.000 
#   36.000    0.000    0.000    0.000    0.000    0.000 
#    0.000    0.000    0.000    0.000    0.000    0.000 
#
# Total GULP energy -200774.174851 kJ/mol
# GULP energy per Si atom -5577.060413 kJ/mol
# Density = 2.080919 g / cm^3
# Si number density = 20.856661 Si / 1000 Ang^3
#
#
#
# Elastic Constant Matrix: (Units=GPa)
#
#
# Indices 1 2 3 4 5 6 
#
# 1 121.3842 45.2026 37.9630 0.0000 0.0000 0.0000
# 2 45.2026 121.3842 37.9630 0.0000 0.0000 0.0000
# 3 37.9630 37.9630 89.8955 0.0000 0.0000 0.0000
# 4 0.0000 0.0000 0.0000 27.5274 0.0000 0.0000
# 5 0.0000 0.0000 0.0000 0.0000 27.5274 0.0000
# 6 0.0000 0.0000 0.0000 0.0000 0.0000 26.8318
#
#
#
# Elastic Compliance Matrix: (Units=1/GPa)
#
#
# Indices 1 2 3 4 5 6 
#
# 1 0.010280 -0.002846 -0.003139 0.000000 0.000000 0.000000
# 2 -0.002846 0.010280 -0.003139 0.000000 0.000000 0.000000
# 3 -0.003139 -0.003139 0.013775 0.000000 0.000000 0.000000
# 4 0.000000 0.000000 0.000000 0.036327 0.000000 0.000000
# 5 0.000000 0.000000 0.000000 0.000000 0.036327 0.000000
# 6 0.000000 0.000000 0.000000 0.000000 0.000000 0.037269
#
#
# Mechanical properties :
#
#
# Convention : Reuss Voigt Hill
#
# Bulk Modulus (GPa) = 62.16666 63.88010 63.02338
# Shear Modulus (GPa) = 29.78467 30.47966 30.13216
#
# Velocity S-wave (km/s) = 3.78307 3.82696 3.80508
# Velocity P-wave (km/s) = 6.99668 7.08676 7.04186
#
# Compressibility (1/GPa) = 0.01608579
#
# Stress axis : x y z
#
# Youngs Moduli (GPa) = 97.27530 97.27530 72.59294
#
# Poissons Ratio (x) = 0.27689 0.22789
# Poissons Ratio (y) = 0.27689 0.22789
# Poissons Ratio (z) = 0.30537 0.30537
#
# Static dielectric constant tensor:
#      x y z
#    x 1.774160 0.000000 0.000000 
#    y 0.000000 1.774160 0.000000 
#    z 0.000000 0.000000 1.799200 
# 
# From -- ./inp_files/4153.got.cif
#   From: 2010.05.17/outbox.cif.g08.bks.cpg/sg122_3_cif.got.tgz:4153.got - 2010.05.20 11:37:33.
