data_PCOD9561016
_publ_section_title
;
Structure prediction by ZEFSAII (Michael W. Deem and Ramdas Pophale) SiO2 
 PCOD9561016
Probable space group: I -4 2 D
;
_chemical_formula_sum "Si O2"
_cell_formula_units_Z 80
_cell_length_a 17.922962
_cell_length_b 17.922962
_cell_length_c 13.381786
_cell_angle_alpha 90.000000
_cell_angle_beta 90.000000
_cell_angle_gamma 90.000000
_cell_volume 4298.665466
_symmetry_space_group_name_H-M "I -4 2 D"
_symmetry_group_IT_number 122
_symmetry_cell_setting 'tetragonal'
loop_
_space_group_symop_operation_xyz
x,y,z
y,-x,-z
-x,-y,z
-y,x,-z
x,1/2-y,1/4-z
-x,1/2+y,1/4-z
-y,1/2-x,1/4+z
y,1/2+x,1/4+z
1/2+x,1/2+y,1/2+z
1/2+y,1/2-x,1/2-z
1/2-x,1/2-y,1/2+z
1/2-y,1/2+x,1/2-z
1/2+x,-y,3/4-z
1/2-x,y,3/4-z
1/2-y,-x,3/4+z
1/2+y,x,3/4+z
loop_
_atom_site_type_symbol
_atom_site_label
_atom_site_fract_x
_atom_site_fract_y
_atom_site_fract_z
Si Si1 0.331473 0.969145 0.353088
Si Si2 0.438445 0.936836 0.008121
Si Si3 0.954805 0.341697 0.857482
Si Si4 0.088412 0.330455 0.176113
Si Si5 0.712726 0.574466 0.483828
O O1 0.250000 0.938540 0.375000
O O2 0.390201 0.902573 0.343147
O O3 0.367046 0.021703 0.438947
O O4 0.322179 0.016121 0.251874
O O5 0.500000 0.000000 0.983590
O O6 0.382636 0.977074 0.085563
O O7 0.391450 0.916201 0.911557
O O8 0.928122 0.274294 0.928217
O O9 0.103169 0.250000 0.125000
O O10 0.153057 0.360599 0.247576
O O11 0.007898 0.324577 0.229415
O O12 0.750000 0.583734 0.375000
#
# Coordination Sequence:
#
# PCOD9561016 Si02
#       5
#    16  16  16  16  16
#     4  11  23  38  67  95 126 165 206 260 318 386
#     4  10  21  39  65  92 122 164 214 260 310 372
#     4  11  21  42  63  94 129 162 209 264 315 374
#     4  11  24  44  63  92 131 167 213 269 313 378
#     4  11  25  42  66  94 129 169 217 261 318 385
#
# _framework density 18.610427999999999
#
# number of rings (size 3 to 8) (size 9 to 14) (size 15 to 20)
#    0.000    1.200    6.000    1.200    2.800    2.400 
#    0.000    3.000    0.000    0.000    0.000    0.000 
#    0.000    0.000    0.000    0.000    0.000    0.000 
#
# Total GULP energy -223404.242454 kJ/mol
# GULP energy per Si atom -5585.106061 kJ/mol
# Density = 1.856807 g / cm^3
# Si number density = 18.610428 Si / 1000 Ang^3
#
#
#
# Elastic Constant Matrix: (Units=GPa)
#
#
# Indices 1 2 3 4 5 6 
#
# 1 62.5024 22.3201 27.3054 0.0000 0.0000 0.0000
# 2 22.3201 62.5024 27.3054 0.0000 0.0000 0.0000
# 3 27.3054 27.3054 82.9659 0.0000 0.0000 0.0000
# 4 0.0000 0.0000 0.0000 19.7317 0.0000 0.0000
# 5 0.0000 0.0000 0.0000 0.0000 19.7317 0.0000
# 6 0.0000 0.0000 0.0000 0.0000 0.0000 19.0378
#
#
#
# Elastic Compliance Matrix: (Units=1/GPa)
#
#
# Indices 1 2 3 4 5 6 
#
# 1 0.019923 -0.004964 -0.004923 0.000000 0.000000 0.000000
# 2 -0.004964 0.019923 -0.004923 0.000000 0.000000 0.000000
# 3 -0.004923 -0.004923 0.015294 0.000000 0.000000 0.000000
# 4 0.000000 0.000000 0.000000 0.050680 0.000000 0.000000
# 5 0.000000 0.000000 0.000000 0.000000 0.050680 0.000000
# 6 0.000000 0.000000 0.000000 0.000000 0.000000 0.052527
#
#
# Mechanical properties :
#
#
# Convention : Reuss Voigt Hill
#
# Bulk Modulus (GPa) = 39.18675 40.20362 39.69519
# Shear Modulus (GPa) = 20.23040 20.43625 20.33332
#
# Velocity S-wave (km/s) = 3.30062 3.31737 3.30900
# Velocity P-wave (km/s) = 5.96887 6.02684 5.99793
#
# Compressibility (1/GPa) = 0.02551883
#
# Stress axis : x y z
#
# Youngs Moduli (GPa) = 50.19369 50.19369 65.38605
#
# Poissons Ratio (x) = 0.24915 0.32191
# Poissons Ratio (y) = 0.24915 0.32191
# Poissons Ratio (z) = 0.24712 0.24712
#
# Static dielectric constant tensor:
#      x y z
#    x 1.626330 0.000000 0.000000 
#    y 0.000000 1.626330 0.000000 
#    z 0.000000 0.000000 1.667550 
# 
# From -- ./inp_files/5309.got.cif
#   From: 2010.05.17/outbox.cif.g08.bks.cpg/sg122_3_cif.got.tgz:5309.got - 2010.05.20 11:37:33.
