data_PCOD9561131
_publ_section_title
;
Structure prediction by ZEFSAII (Michael W. Deem and Ramdas Pophale) SiO2 
 PCOD9561131
Probable space group: I -4 2 D
;
_chemical_formula_sum "Si O2"
_cell_formula_units_Z 92
_cell_length_a 14.776270
_cell_length_b 14.776270
_cell_length_c 21.206977
_cell_angle_alpha 90.000000
_cell_angle_beta 90.000000
_cell_angle_gamma 90.000000
_cell_volume 4630.292234
_symmetry_space_group_name_H-M "I -4 2 D"
_symmetry_group_IT_number 122
_symmetry_cell_setting 'tetragonal'
loop_
_space_group_symop_operation_xyz
x,y,z
y,-x,-z
-x,-y,z
-y,x,-z
x,1/2-y,1/4-z
-x,1/2+y,1/4-z
-y,1/2-x,1/4+z
y,1/2+x,1/4+z
1/2+x,1/2+y,1/2+z
1/2+y,1/2-x,1/2-z
1/2-x,1/2-y,1/2+z
1/2-y,1/2+x,1/2-z
1/2+x,-y,3/4-z
1/2-x,y,3/4-z
1/2-y,-x,3/4+z
1/2+y,x,3/4+z
loop_
_atom_site_type_symbol
_atom_site_label
_atom_site_fract_x
_atom_site_fract_y
_atom_site_fract_z
Si Si1 0.913838 0.308516 0.564914
Si Si2 0.939586 0.769473 0.349490
Si Si3 0.633893 0.750000 0.625000
Si Si4 0.500000 0.500000 0.500000
Si Si5 0.750000 0.834803 0.875000
Si Si6 0.387194 0.772411 0.321068
Si Si7 0.250000 0.585407 0.875000
Si Si8 0.517151 0.300593 0.528433
O O1 0.881810 0.250000 0.625000
O O2 0.864248 0.403766 0.570857
O O3 0.887218 0.258193 0.501231
O O4 0.021086 0.305655 0.576935
O O5 0.847262 0.716506 0.369258
O O6 0.997109 0.720642 0.294263
O O7 0.010281 0.784466 0.405711
O O8 0.694048 0.662845 0.639352
O O9 0.571348 0.731217 0.565484
O O10 0.525088 0.408797 0.537325
O O11 0.748109 0.898637 0.812409
O O12 0.322607 0.857067 0.335956
#
# Coordination Sequence:
#
# PCOD9561131 Si02
#       8
#    16  16   8   4   8  16   8  16
#     4  10  24  43  66  99 135 171 234 292 340 418
#     4  12  24  43  69  98 137 185 225 285 348 419
#     4  10  22  42  64  98 136 174 222 276 342 408
#     4  12  20  36  68  92 136 172 232 268 338 408
#     4  11  25  41  65  98 138 180 227 271 345 415
#     4  11  24  43  73  95 134 184 227 288 353 412
#     4   9  25  45  67 100 132 178 239 293 347 417
#     4  11  23  40  63  98 137 177 222 277 332 418
#
# _framework density 19.869157000000001
#
# number of rings (size 3 to 8) (size 9 to 14) (size 15 to 20)
#    0.522    0.696    4.348    1.043    2.435    2.087 
#    0.000    0.000    0.000    0.000    0.000    0.000 
#    0.000    0.000    0.000    0.000    0.000    0.000 
#
# Total GULP energy -256432.907565 kJ/mol
# GULP energy per Si atom -5574.628425 kJ/mol
# Density = 1.982393 g / cm^3
# Si number density = 19.869157 Si / 1000 Ang^3
#
#
#
# Elastic Constant Matrix: (Units=GPa)
#
#
# Indices 1 2 3 4 5 6 
#
# 1 105.4184 47.6237 40.6390 0.0000 0.0000 0.0000
# 2 47.6237 105.4184 40.6390 0.0000 0.0000 0.0000
# 3 40.6390 40.6390 98.0729 0.0000 0.0000 0.0000
# 4 0.0000 0.0000 0.0000 7.8679 0.0000 0.0000
# 5 0.0000 0.0000 0.0000 0.0000 7.8679 0.0000
# 6 0.0000 0.0000 0.0000 0.0000 0.0000 5.2076
#
#
#
# Elastic Compliance Matrix: (Units=1/GPa)
#
#
# Indices 1 2 3 4 5 6 
#
# 1 0.012840 -0.004462 -0.003472 0.000000 0.000000 0.000000
# 2 -0.004462 0.012840 -0.003472 0.000000 0.000000 0.000000
# 3 -0.003472 -0.003472 0.013074 0.000000 0.000000 0.000000
# 4 0.000000 0.000000 0.000000 0.127099 0.000000 0.000000
# 5 0.000000 0.000000 0.000000 0.000000 0.127099 0.000000
# 6 0.000000 0.000000 0.000000 0.000000 0.000000 0.192028
#
#
# Mechanical properties :
#
#
# Convention : Reuss Voigt Hill
#
# Bulk Modulus (GPa) = 62.72361 62.96812 62.84586
# Shear Modulus (GPa) = 9.74459 16.18921 12.96690
#
# Velocity S-wave (km/s) = 2.21699 2.85755 2.55740
# Velocity P-wave (km/s) = 6.17982 6.53052 6.35759
#
# Compressibility (1/GPa) = 0.01594296
#
# Stress axis : x y z
#
# Youngs Moduli (GPa) = 77.88025 77.88025 76.49029
#
# Poissons Ratio (x) = 0.34753 0.26554
# Poissons Ratio (y) = 0.34753 0.26554
# Poissons Ratio (z) = 0.27037 0.27037
#
# Static dielectric constant tensor:
#      x y z
#    x 1.733380 0.000000 0.000000 
#    y 0.000000 1.733380 0.000000 
#    z 0.000000 0.000000 1.699220 
# 
# From -- ./inp_files/7376.got.cif
#   From: 2010.05.17/outbox.cif.g08.bks.cpg/sg122_4_cif.got.tgz:7376.got - 2010.05.20 11:37:33.
