data_PCOD9561234
_publ_section_title
;
Structure prediction by ZEFSAII (Michael W. Deem and Ramdas Pophale) SiO2 
 PCOD9561234
Probable space group: I -4 2 D
;
_chemical_formula_sum "Si O2"
_cell_formula_units_Z 80
_cell_length_a 10.920329
_cell_length_b 10.920329
_cell_length_c 24.377989
_cell_angle_alpha 90.000000
_cell_angle_beta 90.000000
_cell_angle_gamma 90.000000
_cell_volume 2907.162595
_symmetry_space_group_name_H-M "I -4 2 D"
_symmetry_group_IT_number 122
_symmetry_cell_setting 'tetragonal'
loop_
_space_group_symop_operation_xyz
x,y,z
y,-x,-z
-x,-y,z
-y,x,-z
x,1/2-y,1/4-z
-x,1/2+y,1/4-z
-y,1/2-x,1/4+z
y,1/2+x,1/4+z
1/2+x,1/2+y,1/2+z
1/2+y,1/2-x,1/2-z
1/2-x,1/2-y,1/2+z
1/2-y,1/2+x,1/2-z
1/2+x,-y,3/4-z
1/2-x,y,3/4-z
1/2-y,-x,3/4+z
1/2+y,x,3/4+z
loop_
_atom_site_type_symbol
_atom_site_label
_atom_site_fract_x
_atom_site_fract_y
_atom_site_fract_z
Si Si1 0.666940 0.052884 0.451055
Si Si2 0.322057 0.700261 0.063804
Si Si3 0.445698 0.760978 0.520674
Si Si4 0.913987 0.338307 0.838197
Si Si5 0.605268 0.905184 0.663271
O O1 0.568164 0.108376 0.492019
O O2 0.794713 0.133507 0.449288
O O3 0.611240 0.071436 0.390327
O O4 0.718721 0.922196 0.467751
O O5 0.340856 0.750000 0.125000
O O6 0.186967 0.743124 0.048759
O O7 0.346431 0.552642 0.064674
O O8 0.543895 0.719739 0.564960
O O9 0.456082 0.671537 0.468296
O O10 0.901242 0.206786 0.866740
O O11 0.500000 0.000000 0.647218
#
# Coordination Sequence:
#
# PCOD9561234 Si02
#       5
#    16  16  16  16  16
#     4  10  24  46  71 100 151 193 236 307 374 449
#     4  12  25  42  73 110 139 194 250 302 377 447
#     4  11  24  43  73 103 142 191 248 306 371 441
#     4  10  23  47  71 100 144 194 244 299 376 442
#     4  11  21  47  73  99 143 194 240 311 372 429
#
# _framework density 27.518238
#
# number of rings (size 3 to 8) (size 9 to 14) (size 15 to 20)
#    0.000    1.200    4.000    1.800    5.600    0.000 
#   21.600    0.000    0.000    0.000    0.000    0.000 
#    0.000    0.000    0.000    0.000    0.000    0.000 
#
# Total GULP energy -224202.731072 kJ/mol
# GULP energy per Si atom -5605.068277 kJ/mol
# Density = 2.745561 g / cm^3
# Si number density = 27.518238 Si / 1000 Ang^3
#
#
#
# Elastic Constant Matrix: (Units=GPa)
#
#
# Indices 1 2 3 4 5 6 
#
# 1 147.6482 75.4361 34.3912 0.0000 0.0000 0.0000
# 2 75.4361 147.6482 34.3912 0.0000 0.0000 0.0000
# 3 34.3912 34.3912 61.7974 0.0000 0.0000 0.0000
# 4 0.0000 0.0000 0.0000 -8.3324 0.0000 0.0000
# 5 0.0000 0.0000 0.0000 0.0000 -8.3324 0.0000
# 6 0.0000 0.0000 0.0000 0.0000 0.0000 66.2436
#
#
#
# Elastic Compliance Matrix: (Units=1/GPa)
#
#
# Indices 1 2 3 4 5 6 
#
# 1 0.009630 -0.004219 -0.003011 0.000000 0.000000 0.000000
# 2 -0.004219 0.009630 -0.003011 0.000000 0.000000 0.000000
# 3 -0.003011 -0.003011 0.019534 0.000000 0.000000 0.000000
# 4 0.000000 0.000000 0.000000 -0.120013 0.000000 0.000000
# 5 0.000000 0.000000 0.000000 0.000000 -0.120013 0.000000
# 6 0.000000 0.000000 0.000000 0.000000 0.000000 0.015096
#
#
# Mechanical properties :
#
#
# Convention : Reuss Voigt Hill
#
# Bulk Modulus (GPa) = 54.61377 71.72564 63.16970
# Shear Modulus (GPa) = -31.33777 24.10743 -3.61517
#
# Velocity S-wave (km/s) = -3.37827 2.96303 -1.14743
# Velocity P-wave (km/s) = 2.16160 6.15040 4.60977
#
# Compressibility (1/GPa) = 0.01831040
#
# Stress axis : x y z
#
# Youngs Moduli (GPa) = 103.84651 103.84651 51.19376
#
# Poissons Ratio (x) = 0.43808 0.15416
# Poissons Ratio (y) = 0.43808 0.15416
# Poissons Ratio (z) = 0.31272 0.31272
#
# Static dielectric constant tensor:
#      x y z
#    x 2.230070 0.000000 0.000000 
#    y 0.000000 2.230070 0.000000 
#    z 0.000000 0.000000 2.213010 
# 
# From -- ./inp_files/9400.got.cif
#   From: 2010.05.17/outbox.cif.g08.bks.cpg/sg122_5_cif.got.tgz:9400.got - 2010.05.20 11:37:33.
