data_PCOD9561388
_publ_section_title
;
Structure prediction by ZEFSAII (Michael W. Deem and Ramdas Pophale) SiO2 
 PCOD9561388
Probable space group: I -4 2 D
;
_chemical_formula_sum "Si O2"
_cell_formula_units_Z 84
_cell_length_a 14.326960
_cell_length_b 14.326960
_cell_length_c 19.391244
_cell_angle_alpha 90.000000
_cell_angle_beta 90.000000
_cell_angle_gamma 90.000000
_cell_volume 3980.281315
_symmetry_space_group_name_H-M "I -4 2 D"
_symmetry_group_IT_number 122
_symmetry_cell_setting 'tetragonal'
loop_
_space_group_symop_operation_xyz
x,y,z
y,-x,-z
-x,-y,z
-y,x,-z
x,1/2-y,1/4-z
-x,1/2+y,1/4-z
-y,1/2-x,1/4+z
y,1/2+x,1/4+z
1/2+x,1/2+y,1/2+z
1/2+y,1/2-x,1/2-z
1/2-x,1/2-y,1/2+z
1/2-y,1/2+x,1/2-z
1/2+x,-y,3/4-z
1/2-x,y,3/4-z
1/2-y,-x,3/4+z
1/2+y,x,3/4+z
loop_
_atom_site_type_symbol
_atom_site_label
_atom_site_fract_x
_atom_site_fract_y
_atom_site_fract_z
Si Si1 0.791745 0.137534 0.479041
Si Si2 0.500000 0.000000 0.750000
Si Si3 0.138512 0.936852 0.883214
Si Si4 0.753317 0.936242 0.297457
Si Si5 0.599846 0.035375 0.020263
Si Si6 0.885079 0.216831 0.342853
O O1 0.853613 0.180432 0.538951
O O2 0.854866 0.158351 0.410809
O O3 0.696296 0.192311 0.462464
O O4 0.770002 0.030024 0.494001
O O5 0.588586 0.016251 0.800804
O O6 0.250000 0.944624 0.875000
O O7 0.102947 0.980958 0.811733
O O8 0.115780 0.825978 0.888761
O O9 0.750000 0.971428 0.375000
O O10 0.854113 0.896806 0.279542
O O11 0.500000 0.000000 0.047490
O O12 0.680070 0.980514 0.060359
#
# Coordination Sequence:
#
# PCOD9561388 Si02
#       6
#    16   4  16  16  16  16
#     4  11  23  44  65  96 143 181 231 290 341 423
#     4  12  28  44  72 112 140 184 254 292 348 456
#     4  12  24  46  70 101 140 183 231 294 364 415
#     4  12  25  42  67 105 138 184 236 282 351 422
#     4  12  23  42  71  96 132 179 229 287 345 419
#     4  11  22  46  70  92 140 189 222 292 367 406
#
# _framework density 21.104036000000001
#
# number of rings (size 3 to 8) (size 9 to 14) (size 15 to 20)
#    0.000    0.381    8.571    1.143    2.667    0.381 
#    0.000    2.857    0.000    0.000    0.000    0.000 
#    0.000    0.000    0.000    0.000    0.000    0.000 
#
# Total GULP energy -234738.766537 kJ/mol
# GULP energy per Si atom -5589.018251 kJ/mol
# Density = 2.105600 g / cm^3
# Si number density = 21.104036 Si / 1000 Ang^3
#
#
#
# Elastic Constant Matrix: (Units=GPa)
#
#
# Indices 1 2 3 4 5 6 
#
# 1 83.1838 46.3056 16.4664 0.0000 0.0000 0.0000
# 2 46.3056 83.1838 16.4664 0.0000 0.0000 0.0000
# 3 16.4664 16.4664 48.0814 0.0000 0.0000 0.0000
# 4 0.0000 0.0000 0.0000 15.3319 0.0000 0.0000
# 5 0.0000 0.0000 0.0000 0.0000 15.3319 0.0000
# 6 0.0000 0.0000 0.0000 0.0000 0.0000 75.5693
#
#
#
# Elastic Compliance Matrix: (Units=1/GPa)
#
#
# Indices 1 2 3 4 5 6 
#
# 1 0.017788 -0.009328 -0.002897 0.000000 0.000000 0.000000
# 2 -0.009328 0.017788 -0.002897 0.000000 0.000000 0.000000
# 3 -0.002897 -0.002897 0.022782 0.000000 0.000000 0.000000
# 4 0.000000 0.000000 0.000000 0.065223 0.000000 0.000000
# 5 0.000000 0.000000 0.000000 0.000000 0.065223 0.000000
# 6 0.000000 0.000000 0.000000 0.000000 0.000000 0.013233
#
#
# Mechanical properties :
#
#
# Convention : Reuss Voigt Hill
#
# Bulk Modulus (GPa) = 35.57084 41.43619 38.50352
# Shear Modulus (GPa) = 20.69074 30.26068 25.47571
#
# Velocity S-wave (km/s) = 3.13456 3.79077 3.47817
# Velocity P-wave (km/s) = 5.47651 6.23192 5.86639
#
# Compressibility (1/GPa) = 0.02811291
#
# Stress axis : x y z
#
# Youngs Moduli (GPa) = 56.21808 56.21808 43.89351
#
# Poissons Ratio (x) = 0.52443 0.12716
# Poissons Ratio (y) = 0.52443 0.12716
# Poissons Ratio (z) = 0.16287 0.16287
#
# Static dielectric constant tensor:
#      x y z
#    x 1.793230 0.000000 0.000000 
#    y 0.000000 1.793230 0.000000 
#    z 0.000000 0.000000 1.758860 
# 
# From -- ./inp_files/7154.got.cif
#   From: 2010.05.17/outbox.cif.g08.bks.cpg/sg122_4_cif.got.tgz:7154.got - 2010.05.20 11:37:33.
