data_PCOD9561059
_publ_section_title
;
Structure prediction by ZEFSAII (Michael W. Deem and Ramdas Pophale) SiO2 
 PCOD9561059
Probable space group: I -4 2 D
;
_chemical_formula_sum "Si O2"
_cell_formula_units_Z 76
_cell_length_a 14.870732
_cell_length_b 14.870732
_cell_length_c 13.206911
_cell_angle_alpha 90.000000
_cell_angle_beta 90.000000
_cell_angle_gamma 90.000000
_cell_volume 2920.558736
_symmetry_space_group_name_H-M "I -4 2 D"
_symmetry_group_IT_number 122
_symmetry_cell_setting 'tetragonal'
loop_
_space_group_symop_operation_xyz
x,y,z
y,-x,-z
-x,-y,z
-y,x,-z
x,1/2-y,1/4-z
-x,1/2+y,1/4-z
-y,1/2-x,1/4+z
y,1/2+x,1/4+z
1/2+x,1/2+y,1/2+z
1/2+y,1/2-x,1/2-z
1/2-x,1/2-y,1/2+z
1/2-y,1/2+x,1/2-z
1/2+x,-y,3/4-z
1/2-x,y,3/4-z
1/2-y,-x,3/4+z
1/2+y,x,3/4+z
loop_
_atom_site_type_symbol
_atom_site_label
_atom_site_fract_x
_atom_site_fract_y
_atom_site_fract_z
Si Si1 0.997417 0.606436 0.099691
Si Si2 0.397591 0.702157 0.347787
Si Si3 0.690929 0.403288 0.642932
Si Si4 0.000000 0.000000 0.500000
Si Si5 0.750000 0.662346 0.875000
Si Si6 0.604780 0.108783 0.410142
O O1 0.897368 0.641043 0.120308
O O2 0.000000 0.500000 0.125305
O O3 0.013466 0.611705 0.978526
O O4 0.094413 0.639761 0.140576
O O5 0.497085 0.702204 0.399050
O O6 0.390060 0.726383 0.228141
O O7 0.356792 0.792092 0.393556
O O8 0.771746 0.335698 0.636276
O O9 0.673752 0.430633 0.760049
O O10 0.949761 0.923325 0.565076
#
# Coordination Sequence:
#
# PCOD9561059 Si02
#       6
#    16  16  16   4   8  16
#     4   8  17  41  57  81 121 171 208 257 324 383
#     4  11  22  34  65  91 123 167 216 267 326 392
#     4   9  23  44  58  87 135 168 212 271 323 402
#     4  12  20  36  60 100 140 180 206 260 356 400
#     4  12  26  38  64  96 130 174 220 266 338 398
#     4  10  22  35  63  90 132 168 213 262 328 402
#
# _framework density 26.022417000000001
#
# number of rings (size 3 to 8) (size 9 to 14) (size 15 to 20)
#    1.263    0.842    1.053    1.263    8.842    0.842 
#    0.000    2.105    0.000    0.000    0.000    0.000 
#    0.000    0.000    0.000    0.000    0.000    0.000 
#
# Total GULP energy -211781.002163 kJ/mol
# GULP energy per Si atom -5573.184267 kJ/mol
# Density = 2.596319 g / cm^3
# Si number density = 26.022417 Si / 1000 Ang^3
#
#
#
# Elastic Constant Matrix: (Units=GPa)
#
#
# Indices 1 2 3 4 5 6 
#
# 1 118.7107 52.2142 12.7254 0.0000 0.0000 0.0000
# 2 52.2142 118.7107 12.7254 0.0000 0.0000 0.0000
# 3 12.7254 12.7254 59.1507 0.0000 0.0000 0.0000
# 4 0.0000 0.0000 0.0000 -13.8835 0.0000 0.0000
# 5 0.0000 0.0000 0.0000 0.0000 -13.8835 0.0000
# 6 0.0000 0.0000 0.0000 0.0000 0.0000 16.4983
#
#
#
# Elastic Compliance Matrix: (Units=1/GPa)
#
#
# Indices 1 2 3 4 5 6 
#
# 1 0.010541 -0.004497 -0.001300 0.000000 0.000000 0.000000
# 2 -0.004497 0.010541 -0.001300 0.000000 0.000000 0.000000
# 3 -0.001300 -0.001300 0.017465 0.000000 0.000000 0.000000
# 4 0.000000 0.000000 0.000000 -0.072028 0.000000 0.000000
# 5 0.000000 0.000000 0.000000 0.000000 -0.072028 0.000000
# 6 0.000000 0.000000 0.000000 0.000000 0.000000 0.060612
#
#
# Mechanical properties :
#
#
# Convention : Reuss Voigt Hill
#
# Bulk Modulus (GPa) = 41.06353 50.21134 45.63744
# Shear Modulus (GPa) = -221.41440 12.34005 -104.53718
#
# Velocity S-wave (km/s) = -9.23422 2.18000 -6.34501
# Velocity P-wave (km/s) = 9.89343 5.06693 6.00859
#
# Compressibility (1/GPa) = 0.02435251
#
# Stress axis : x y z
#
# Youngs Moduli (GPa) = 94.86537 94.86537 57.25586
#
# Poissons Ratio (x) = 0.42662 0.07445
# Poissons Ratio (y) = 0.42662 0.07445
# Poissons Ratio (z) = 0.12335 0.12335
#
# Static dielectric constant tensor:
#      x y z
#    x 2.077710 0.000000 0.000000 
#    y 0.000000 2.077710 0.000000 
#    z 0.000000 0.000000 2.105160 
# 
# From -- ./inp_files/7102.got.cif
#   From: 2010.05.17/outbox.cif.g08.bks.cpg/sg122_4_cif.got.tgz:7102.got - 2010.05.20 11:37:33.
