data_PCOD9561369
_publ_section_title
;
Structure prediction by ZEFSAII (Michael W. Deem and Ramdas Pophale) SiO2 
 PCOD9561369
Probable space group: I -4 2 D
;
_chemical_formula_sum "Si O2"
_cell_formula_units_Z 88
_cell_length_a 15.438496
_cell_length_b 15.438496
_cell_length_c 18.579504
_cell_angle_alpha 90.000000
_cell_angle_beta 90.000000
_cell_angle_gamma 90.000000
_cell_volume 4428.371989
_symmetry_space_group_name_H-M "I -4 2 D"
_symmetry_group_IT_number 122
_symmetry_cell_setting 'tetragonal'
loop_
_space_group_symop_operation_xyz
x,y,z
y,-x,-z
-x,-y,z
-y,x,-z
x,1/2-y,1/4-z
-x,1/2+y,1/4-z
-y,1/2-x,1/4+z
y,1/2+x,1/4+z
1/2+x,1/2+y,1/2+z
1/2+y,1/2-x,1/2-z
1/2-x,1/2-y,1/2+z
1/2-y,1/2+x,1/2-z
1/2+x,-y,3/4-z
1/2-x,y,3/4-z
1/2-y,-x,3/4+z
1/2+y,x,3/4+z
loop_
_atom_site_type_symbol
_atom_site_label
_atom_site_fract_x
_atom_site_fract_y
_atom_site_fract_z
Si Si1 0.014725 0.674405 0.930311
Si Si2 0.000000 0.500000 0.492902
Si Si3 0.334303 0.752618 0.338722
Si Si4 0.168217 0.433838 0.275095
Si Si5 0.578966 0.593012 0.614085
Si Si6 0.182029 0.231562 0.310482
O O1 0.077059 0.700250 0.863582
O O2 0.911685 0.690193 0.920516
O O3 0.042393 0.736741 0.996477
O O4 0.030787 0.577625 0.957108
O O5 0.038145 0.569678 0.436367
O O6 0.250000 0.796304 0.375000
O O7 0.342821 0.658134 0.375064
O O8 0.316044 0.729872 0.256115
O O9 0.108688 0.459730 0.206231
O O10 0.140219 0.490719 0.342825
O O11 0.163450 0.331847 0.289817
O O12 0.250000 0.230595 0.375000
#
# Coordination Sequence:
#
# PCOD9561369 Si02
#       6
#    16   8  16  16  16  16
#     4  11  25  44  65  96 135 180 230 282 345 410
#     4  12  26  37  66 101 136 174 234 270 336 420
#     4  11  22  46  67  95 146 180 219 287 352 414
#     4  11  22  37  65 102 138 174 206 266 360 422
#     4  11  22  36  64  99 142 170 207 271 339 420
#     4  12  26  43  67 100 134 181 238 282 343 412
#
# _framework density 19.871863999999999
#
# number of rings (size 3 to 8) (size 9 to 14) (size 15 to 20)
#    0.000    0.727    7.273    1.091    5.091    0.000 
#    0.000    2.727    0.000    0.000    0.000    0.000 
#    0.000    0.000    0.000    0.000    0.000    0.000 
#
# Total GULP energy -245687.351490 kJ/mol
# GULP energy per Si atom -5583.803443 kJ/mol
# Density = 1.982663 g / cm^3
# Si number density = 19.871864 Si / 1000 Ang^3
#
#
#
# Elastic Constant Matrix: (Units=GPa)
#
#
# Indices 1 2 3 4 5 6 
#
# 1 108.0679 37.5959 52.2905 0.0000 0.0000 0.0000
# 2 37.5959 108.0679 52.2905 0.0000 0.0000 0.0000
# 3 52.2905 52.2905 118.2750 0.0000 0.0000 0.0000
# 4 0.0000 0.0000 0.0000 25.6368 0.0000 0.0000
# 5 0.0000 0.0000 0.0000 0.0000 25.6368 0.0000
# 6 0.0000 0.0000 0.0000 0.0000 0.0000 16.2819
#
#
#
# Elastic Compliance Matrix: (Units=1/GPa)
#
#
# Indices 1 2 3 4 5 6 
#
# 1 0.012124 -0.002066 -0.004447 0.000000 0.000000 0.000000
# 2 -0.002066 0.012124 -0.004447 0.000000 0.000000 0.000000
# 3 -0.004447 -0.004447 0.012387 0.000000 0.000000 0.000000
# 4 0.000000 0.000000 0.000000 0.039006 0.000000 0.000000
# 5 0.000000 0.000000 0.000000 0.000000 0.039006 0.000000
# 6 0.000000 0.000000 0.000000 0.000000 0.000000 0.061418
#
#
# Mechanical properties :
#
#
# Convention : Reuss Voigt Hill
#
# Bulk Modulus (GPa) = 67.95533 68.75161 68.35347
# Shear Modulus (GPa) = 24.64407 26.32671 25.48539
#
# Velocity S-wave (km/s) = 3.52540 3.64376 3.58507
# Velocity P-wave (km/s) = 7.13037 7.23707 7.18392
#
# Compressibility (1/GPa) = 0.01471555
#
# Stress axis : x y z
#
# Youngs Moduli (GPa) = 82.48237 82.48236 80.73250
#
# Poissons Ratio (x) = 0.17043 0.35898
# Poissons Ratio (y) = 0.17043 0.35898
# Poissons Ratio (z) = 0.36676 0.36676
#
# Static dielectric constant tensor:
#      x y z
#    x 1.746410 0.000000 0.000000 
#    y 0.000000 1.746410 0.000000 
#    z 0.000000 0.000000 1.713710 
# 
# From -- ./inp_files/7186.got.cif
#   From: 2010.05.17/outbox.cif.g08.bks.cpg/sg122_4_cif.got.tgz:7186.got - 2010.05.20 11:37:33.
