data_PCOD9561459
_publ_section_title
;
Structure prediction by ZEFSAII (Michael W. Deem and Ramdas Pophale) SiO2 
 PCOD9561459
Probable space group: I -4 2 D
;
_chemical_formula_sum "Si O2"
_cell_formula_units_Z 88
_cell_length_a 15.919116
_cell_length_b 15.919116
_cell_length_c 13.581311
_cell_angle_alpha 90.000000
_cell_angle_beta 90.000000
_cell_angle_gamma 90.000000
_cell_volume 3441.752124
_symmetry_space_group_name_H-M "I -4 2 D"
_symmetry_group_IT_number 122
_symmetry_cell_setting 'tetragonal'
loop_
_space_group_symop_operation_xyz
x,y,z
y,-x,-z
-x,-y,z
-y,x,-z
x,1/2-y,1/4-z
-x,1/2+y,1/4-z
-y,1/2-x,1/4+z
y,1/2+x,1/4+z
1/2+x,1/2+y,1/2+z
1/2+y,1/2-x,1/2-z
1/2-x,1/2-y,1/2+z
1/2-y,1/2+x,1/2-z
1/2+x,-y,3/4-z
1/2-x,y,3/4-z
1/2-y,-x,3/4+z
1/2+y,x,3/4+z
loop_
_atom_site_type_symbol
_atom_site_label
_atom_site_fract_x
_atom_site_fract_y
_atom_site_fract_z
Si Si1 0.901949 0.491016 0.025295
Si Si2 0.134361 0.843453 0.902144
Si Si3 0.159831 0.750000 0.625000
Si Si4 0.881077 0.547652 0.797790
Si Si5 0.595282 0.741281 0.781637
Si Si6 0.700722 0.588811 0.270899
O O1 0.854494 0.542083 0.109084
O O2 0.000000 0.500000 0.047663
O O3 0.118925 0.606499 0.029702
O O4 0.889878 0.526638 0.914494
O O5 0.189351 0.864913 0.808988
O O6 0.163799 0.905170 0.989993
O O7 0.148114 0.753525 0.949967
O O8 0.095749 0.708482 0.706544
O O9 0.219079 0.831800 0.641078
O O10 0.895036 0.459284 0.740443
O O11 0.502181 0.703314 0.783393
O O12 0.750000 0.579532 0.375000
#
# Coordination Sequence:
#
# PCOD9561459 Si02
#       6
#    16  16   8  16  16  16
#     4  12  22  47  76 107 149 204 257 314 390 460
#     4  11  26  47  73 107 154 198 247 324 383 456
#     4  12  26  46  78 112 156 212 250 326 408 452
#     4  11  25  46  77 114 151 198 265 322 378 482
#     4  11  25  50  69 111 160 188 255 323 379 465
#     4  12  27  47  76 111 152 205 257 321 392 470
#
# _framework density 25.568372
#
# number of rings (size 3 to 8) (size 9 to 14) (size 15 to 20)
#    0.000    0.545    7.273    0.000    6.364    0.000 
#    3.273    0.000    0.000    0.000    0.000    0.000 
#    0.000    0.000    0.000    0.000    0.000    0.000 
#
# Total GULP energy -245894.909101 kJ/mol
# GULP energy per Si atom -5588.520661 kJ/mol
# Density = 2.551018 g / cm^3
# Si number density = 25.568372 Si / 1000 Ang^3
#
#
#
# Elastic Constant Matrix: (Units=GPa)
#
#
# Indices 1 2 3 4 5 6 
#
# 1 104.2747 8.8288 36.2115 0.0000 0.0000 0.0000
# 2 8.8288 104.2747 36.2115 0.0000 0.0000 0.0000
# 3 36.2115 36.2115 86.9463 0.0000 0.0000 0.0000
# 4 0.0000 0.0000 0.0000 32.6294 0.0000 0.0000
# 5 0.0000 0.0000 0.0000 0.0000 32.6294 0.0000
# 6 0.0000 0.0000 0.0000 0.0000 0.0000 36.4473
#
#
#
# Elastic Compliance Matrix: (Units=1/GPa)
#
#
# Indices 1 2 3 4 5 6 
#
# 1 0.011267 0.000790 -0.005021 0.000000 0.000000 0.000000
# 2 0.000790 0.011267 -0.005021 0.000000 0.000000 0.000000
# 3 -0.005021 -0.005021 0.015684 0.000000 0.000000 0.000000
# 4 0.000000 0.000000 0.000000 0.030647 0.000000 0.000000
# 5 0.000000 0.000000 0.000000 0.000000 0.030647 0.000000
# 6 0.000000 0.000000 0.000000 0.000000 0.000000 0.027437
#
#
# Mechanical properties :
#
#
# Convention : Reuss Voigt Hill
#
# Bulk Modulus (GPa) = 50.73076 50.88879 50.80978
# Shear Modulus (GPa) = 32.88915 34.62417 33.75666
#
# Velocity S-wave (km/s) = 3.59042 3.68391 3.63747
# Velocity P-wave (km/s) = 6.08872 6.16775 6.12836
#
# Compressibility (1/GPa) = 0.01971191
#
# Stress axis : x y z
#
# Youngs Moduli (GPa) = 88.75503 88.75503 63.75923
#
# Poissons Ratio (x) = -0.07010 0.32016
# Poissons Ratio (y) = -0.07010 0.32016
# Poissons Ratio (z) = 0.44568 0.44568
#
# Static dielectric constant tensor:
#      x y z
#    x 2.179110 0.000000 0.000000 
#    y 0.000000 2.179110 0.000000 
#    z 0.000000 0.000000 2.050680 
# 
# From -- ./inp_files/5375.got.cif
#   From: 2010.05.17/outbox.cif.g08.bks.cpg/sg122_3_cif.got.tgz:5375.got - 2010.05.20 11:37:33.
