data_PCOD9561922
_publ_section_title
;
Structure prediction by ZEFSAII (Michael W. Deem and Ramdas Pophale) SiO2 
 PCOD9561922
Probable space group: P 4/M M M
;
_chemical_formula_sum "Si O2"
_cell_formula_units_Z 104
_cell_length_a 27.064775
_cell_length_b 27.064775
_cell_length_c 7.815125
_cell_angle_alpha 90.000000
_cell_angle_beta 90.000000
_cell_angle_gamma 90.000000
_cell_volume 5724.595051
_symmetry_space_group_name_H-M "P 4/M M M"
_symmetry_group_IT_number 123
_symmetry_cell_setting 'tetragonal'
loop_
_space_group_symop_operation_xyz
x,y,z
-y,x,z
-x,-y,z
y,-x,z
x,-y,-z
-x,y,-z
y,x,-z
-y,-x,-z
-x,-y,-z
y,-x,-z
x,y,-z
-y,x,-z
-x,y,z
x,-y,z
-y,-x,z
y,x,z
loop_
_atom_site_type_symbol
_atom_site_label
_atom_site_fract_x
_atom_site_fract_y
_atom_site_fract_z
Si Si1 0.056149 0.500000 0.294535
Si Si2 0.239370 0.445999 0.792140
Si Si3 0.742374 0.336397 0.796055
Si Si4 0.129452 0.415252 0.200335
Si Si5 0.944750 0.134563 0.792731
Si Si6 0.690856 0.852720 0.305837
Si Si7 0.751328 0.944689 0.703211
O O1 0.057379 0.500000 0.500000
O O2 0.085064 0.452168 0.230319
O O3 0.000000 0.500000 0.235826
O O4 0.257606 0.500000 0.731420
O O5 0.260450 0.393140 0.729774
O O6 0.180967 0.441743 0.753341
O O7 0.244114 0.446195 0.000000
O O8 0.701179 0.298822 0.726492
O O9 0.797754 0.314879 0.770648
O O10 0.735367 0.339733 0.000000
O O11 0.125938 0.364586 0.301705
O O12 0.133170 0.402200 0.000000
O O13 0.902798 0.097203 0.732312
O O14 0.938370 0.190161 0.727437
O O15 0.000000 0.117900 0.744152
O O16 0.942839 0.136359 0.000000
O O17 0.708103 0.845042 0.500000
O O18 0.724262 0.895988 0.224669
O O19 0.740133 0.945801 0.500000
O O20 0.738381 0.000000 0.771398
#
# Coordination Sequence:
#
# PCOD9561922 Si02
#       7
#     8  16  16  16  16  16  16
#     4  11  23  35  47  67  97 129 161 205 256 299
#     4   8  13  25  47  69  88 117 156 198 240 281
#     4   9  18  31  47  70 100 130 162 203 248 295
#     4  10  19  33  51  70  92 120 160 207 248 292
#     4   9  18  32  50  72  95 117 143 179 225 278
#     4  10  20  33  50  71  94 126 162 197 247 303
#     4   9  19  35  51  66  88 119 155 194 233 278
#
# _framework density 18.167224000000001
#
# number of rings (size 3 to 8) (size 9 to 14) (size 15 to 20)
#    0.000    2.692    0.769    2.077    0.000    3.846 
#    0.000    5.385    0.000    0.000    0.000    2.154 
#    0.000    0.308    0.000    4.308    0.000    0.000 
#
# Total GULP energy -579344.275761 kJ/mol
# GULP energy per Si atom -5570.618036 kJ/mol
# Density = 1.812587 g / cm^3
# Si number density = 18.167224 Si / 1000 Ang^3
#
#
#
# Elastic Constant Matrix: (Units=GPa)
#
#
# Indices 1 2 3 4 5 6 
#
# 1 111.6345 83.8228 1.5637 0.0000 0.0000 0.0000
# 2 83.8228 111.6345 1.5637 0.0000 0.0000 0.0000
# 3 1.5637 1.5637 23.4806 0.0000 0.0000 0.0000
# 4 0.0000 0.0000 0.0000 571.7770 0.0000 0.0000
# 5 0.0000 0.0000 0.0000 0.0000 571.7770 0.0000
# 6 0.0000 0.0000 0.0000 0.0000 0.0000 19.6117
#
#
#
# Elastic Compliance Matrix: (Units=1/GPa)
#
#
# Indices 1 2 3 4 5 6 
#
# 1 0.020539 -0.015417 -0.000341 0.000000 0.000000 0.000000
# 2 -0.015417 0.020539 -0.000341 0.000000 0.000000 0.000000
# 3 -0.000341 -0.000341 0.042634 0.000000 0.000000 0.000000
# 4 0.000000 0.000000 0.000000 0.001749 0.000000 0.000000
# 5 0.000000 0.000000 0.000000 0.000000 0.001749 0.000000
# 6 0.000000 0.000000 0.000000 0.000000 0.000000 0.050990
#
#
# Mechanical properties :
#
#
# Convention : Reuss Voigt Hill
#
# Bulk Modulus (GPa) = 19.41266 46.73889 33.07578
# Shear Modulus (GPa) = 26.65688 243.28643 134.97166
#
# Velocity S-wave (km/s) = 3.83470 11.58472 8.62875
# Velocity P-wave (km/s) = 5.50593 14.30818 10.84065
#
# Compressibility (1/GPa) = 0.05151278
#
# Stress axis : x y z
#
# Youngs Moduli (GPa) = 48.68829 48.68829 23.45558
#
# Poissons Ratio (x) = 0.75063 0.00800
# Poissons Ratio (y) = 0.75063 0.00800
# Poissons Ratio (z) = 0.01661 0.01661
#
# Static dielectric constant tensor:
#      x y z
#    x 1.627040 0.000000 0.000000 
#    y 0.000000 1.627040 0.000000 
#    z 0.000000 0.000000 1.684610 
# 
# From -- ./inp_files/1916.got.cif
#   From: 2010.05.17/outbox.cif.g08.bks.cpg/sg123_1_cif.got.tgz:1916.got - 2010.05.20 11:43:04.
