data_PCOD9561519
_publ_section_title
;
Structure prediction by ZEFSAII (Michael W. Deem and Ramdas Pophale) SiO2 
 PCOD9561519
Probable space group: I -4 2 D
;
_chemical_formula_sum "Si O2"
_cell_formula_units_Z 96
_cell_length_a 19.405985
_cell_length_b 19.405985
_cell_length_c 10.741312
_cell_angle_alpha 90.000000
_cell_angle_beta 90.000000
_cell_angle_gamma 90.000000
_cell_volume 4045.094895
_symmetry_space_group_name_H-M "I -4 2 D"
_symmetry_group_IT_number 122
_symmetry_cell_setting 'tetragonal'
loop_
_space_group_symop_operation_xyz
x,y,z
y,-x,-z
-x,-y,z
-y,x,-z
x,1/2-y,1/4-z
-x,1/2+y,1/4-z
-y,1/2-x,1/4+z
y,1/2+x,1/4+z
1/2+x,1/2+y,1/2+z
1/2+y,1/2-x,1/2-z
1/2-x,1/2-y,1/2+z
1/2-y,1/2+x,1/2-z
1/2+x,-y,3/4-z
1/2-x,y,3/4-z
1/2-y,-x,3/4+z
1/2+y,x,3/4+z
loop_
_atom_site_type_symbol
_atom_site_label
_atom_site_fract_x
_atom_site_fract_y
_atom_site_fract_z
Si Si1 0.000000 0.500000 0.250000
Si Si2 0.527804 0.799314 0.368544
Si Si3 0.862988 0.040571 0.133787
Si Si4 0.679647 0.916373 0.952615
Si Si5 0.146701 0.750000 0.625000
Si Si6 0.638733 0.538881 0.879417
Si Si7 0.000000 0.500000 0.750000
Si Si8 0.847749 0.682288 0.688095
O O1 0.927619 0.501605 0.173341
O O2 0.530966 0.717488 0.401044
O O3 0.493837 0.832228 0.492494
O O4 0.476800 0.818315 0.254760
O O5 0.597380 0.827068 0.301839
O O6 0.887087 0.118832 0.118090
O O7 0.861210 0.022287 0.280295
O O8 0.750000 0.912823 0.875000
O O9 0.672522 0.869555 0.077368
O O10 0.098663 0.812560 0.675467
O O11 0.192720 0.722094 0.736052
O O12 0.558604 0.538505 0.920595
O O13 0.875292 0.750000 0.625000
#
# Coordination Sequence:
#
# PCOD9561519 Si02
#       8
#     4  16  16  16   8  16   4  16
#     4  12  30  44  68 114 160 208 262 336 418 492
#     4  12  23  48  77 106 152 202 262 324 406 480
#     4  12  24  47  71 106 155 203 258 327 407 489
#     4  12  26  47  76 113 154 209 259 330 416 487
#     4  12  26  44  74 110 150 196 258 324 398 472
#     4  12  21  44  71 108 140 191 252 325 381 469
#     4  12  26  36  72 114 144 180 254 320 396 454
#     4  12  25  45  73 108 148 203 266 326 394 486
#
# _framework density 23.732445999999999
#
# number of rings (size 3 to 8) (size 9 to 14) (size 15 to 20)
#    0.000    0.000    6.667    3.500    1.167    1.333 
#    0.000    2.500    0.000    0.000    0.000    0.000 
#    0.000    0.000    0.000    0.000    0.000    0.000 
#
# Total GULP energy -267323.104600 kJ/mol
# GULP energy per Si atom -5569.231346 kJ/mol
# Density = 2.367843 g / cm^3
# Si number density = 23.732446 Si / 1000 Ang^3
#
#
#
# Elastic Constant Matrix: (Units=GPa)
#
#
# Indices 1 2 3 4 5 6 
#
# 1 81.3876 29.5013 32.8510 0.0000 0.0000 0.0000
# 2 29.5013 81.3876 32.8510 0.0000 0.0000 0.0000
# 3 32.8510 32.8510 43.5062 0.0000 0.0000 0.0000
# 4 0.0000 0.0000 0.0000 30.0652 0.0000 0.0000
# 5 0.0000 0.0000 0.0000 0.0000 30.0652 0.0000
# 6 0.0000 0.0000 0.0000 0.0000 0.0000 32.6205
#
#
#
# Elastic Compliance Matrix: (Units=1/GPa)
#
#
# Indices 1 2 3 4 5 6 
#
# 1 0.017796 -0.001477 -0.012322 0.000000 0.000000 0.000000
# 2 -0.001477 0.017796 -0.012322 0.000000 0.000000 0.000000
# 3 -0.012322 -0.012322 0.041594 0.000000 0.000000 0.000000
# 4 0.000000 0.000000 0.000000 0.033261 0.000000 0.000000
# 5 0.000000 0.000000 0.000000 0.000000 0.033261 0.000000
# 6 0.000000 0.000000 0.000000 0.000000 0.000000 0.030656
#
#
# Mechanical properties :
#
#
# Convention : Reuss Voigt Hill
#
# Bulk Modulus (GPa) = 40.09152 44.07644 42.08398
# Shear Modulus (GPa) = 21.28374 25.95540 23.61957
#
# Velocity S-wave (km/s) = 2.99794 3.31065 3.15817
# Velocity P-wave (km/s) = 5.37711 5.76424 5.57404
#
# Compressibility (1/GPa) = 0.02494293
#
# Stress axis : x y z
#
# Youngs Moduli (GPa) = 56.19250 56.19250 24.04184
#
# Poissons Ratio (x) = 0.08299 0.29625
# Poissons Ratio (y) = 0.08299 0.29625
# Poissons Ratio (z) = 0.69242 0.69242
#
# Static dielectric constant tensor:
#      x y z
#    x 1.956920 0.000000 0.000000 
#    y 0.000000 1.956920 0.000000 
#    z 0.000000 0.000000 1.827220 
# 
# From -- ./inp_files/4526.got.cif
#   From: 2010.05.17/outbox.cif.g08.bks.cpg/sg122_3_cif.got.tgz:4526.got - 2010.05.20 11:37:33.
