data_PCOD9561704
_publ_section_title
;
Structure prediction by ZEFSAII (Michael W. Deem and Ramdas Pophale) SiO2 
 PCOD9561704
Probable space group: P 4/M M M
;
_chemical_formula_sum "Si O2"
_cell_formula_units_Z 104
_cell_length_a 19.235965
_cell_length_b 19.235965
_cell_length_c 17.028003
_cell_angle_alpha 90.000000
_cell_angle_beta 90.000000
_cell_angle_gamma 90.000000
_cell_volume 6300.741677
_symmetry_space_group_name_H-M "P 4/M M M"
_symmetry_group_IT_number 123
_symmetry_cell_setting 'tetragonal'
loop_
_space_group_symop_operation_xyz
x,y,z
-y,x,z
-x,-y,z
y,-x,z
x,-y,-z
-x,y,-z
y,x,-z
-y,-x,-z
-x,-y,-z
y,-x,-z
x,y,-z
-y,x,-z
-x,y,z
x,-y,z
-y,-x,z
y,x,z
loop_
_atom_site_type_symbol
_atom_site_label
_atom_site_fract_x
_atom_site_fract_y
_atom_site_fract_z
Si Si1 0.126005 0.757359 0.087595
Si Si2 0.581723 0.802680 0.589995
Si Si3 0.300467 0.582213 0.266118
Si Si4 0.379542 0.833259 0.168206
Si Si5 0.339632 0.918255 0.676609
Si Si6 0.921130 0.500000 0.907306
Si Si7 0.192489 0.076102 0.250780
O O1 0.178619 0.821382 0.081912
O O2 0.168191 0.690303 0.117240
O O3 0.077913 0.775918 0.162037
O O4 0.095469 0.746108 0.000000
O O5 0.591120 0.780527 0.500000
O O6 0.500000 0.821342 0.601404
O O7 0.596490 0.741327 0.652307
O O8 0.628877 0.869745 0.608986
O O9 0.318660 0.500000 0.264114
O O10 0.365847 0.634154 0.259233
O O11 0.242295 0.597651 0.199199
O O12 0.368796 0.881572 0.244928
O O13 0.435127 0.875558 0.118911
O O14 0.256595 0.913728 0.689492
O O15 0.357735 0.000000 0.670712
O O16 0.000000 0.500000 0.873874
O O17 0.927490 0.500000 0.000000
O O18 0.137091 0.137091 0.257797
O O19 0.161493 0.000000 0.263792
#
# Coordination Sequence:
#
# PCOD9561704 Si02
#       7
#    16  16  16  16  16   8  16
#     4   9  17  29  47  69  92 122 161 203 247 297
#     4   9  19  34  51  76 108 137 165 198 242 299
#     4  10  20  35  55  77 101 132 169 212 257 301
#     4  10  18  33  48  69  98 133 167 207 246 297
#     4   9  18  30  48  71  99 135 169 205 245 292
#     4  11  22  32  46  72 104 136 168 203 246 298
#     4   9  18  32  48  68  94 125 165 211 257 303
#
# _framework density 16.505993
#
# number of rings (size 3 to 8) (size 9 to 14) (size 15 to 20)
#    0.000    2.538    0.769    1.385    1.077    5.846 
#    0.000    0.769    0.000    0.000    0.000    4.308 
#    0.000    0.615    0.000    3.385    0.000    0.000 
#
# Total GULP energy -578967.705000 kJ/mol
# GULP energy per Si atom -5566.997163 kJ/mol
# Density = 1.646842 g / cm^3
# Si number density = 16.505993 Si / 1000 Ang^3
#
#
#
# Elastic Constant Matrix: (Units=GPa)
#
#
# Indices 1 2 3 4 5 6 
#
# 1 93.4552 57.1571 22.1112 0.0000 0.0000 0.0000
# 2 57.1571 93.4552 22.1112 0.0000 0.0000 0.0000
# 3 22.1112 22.1112 44.5927 0.0000 0.0000 0.0000
# 4 0.0000 0.0000 0.0000 11.3176 0.0000 0.0000
# 5 0.0000 0.0000 0.0000 0.0000 11.3176 0.0000
# 6 0.0000 0.0000 0.0000 0.0000 0.0000 28.5214
#
#
#
# Elastic Compliance Matrix: (Units=1/GPa)
#
#
# Indices 1 2 3 4 5 6 
#
# 1 0.017660 -0.009889 -0.003853 0.000000 0.000000 0.000000
# 2 -0.009889 0.017660 -0.003853 0.000000 0.000000 0.000000
# 3 -0.003853 -0.003853 0.026246 0.000000 0.000000 0.000000
# 4 0.000000 0.000000 0.000000 0.088358 0.000000 0.000000
# 5 0.000000 0.000000 0.000000 0.000000 0.088358 0.000000
# 6 0.000000 0.000000 0.000000 0.000000 0.000000 0.035061
#
#
# Mechanical properties :
#
#
# Convention : Reuss Voigt Hill
#
# Bulk Modulus (GPa) = 37.91400 48.25133 43.08267
# Shear Modulus (GPa) = 15.75657 18.90621 17.33139
#
# Velocity S-wave (km/s) = 3.09301 3.38807 3.24390
# Velocity P-wave (km/s) = 5.98125 6.67843 6.33943
#
# Compressibility (1/GPa) = 0.02637548
#
# Stress axis : x y z
#
# Youngs Moduli (GPa) = 56.62417 56.62417 38.10044
#
# Poissons Ratio (x) = 0.55998 0.14681
# Poissons Ratio (y) = 0.55998 0.14681
# Poissons Ratio (z) = 0.21818 0.21818
#
# Static dielectric constant tensor:
#      x y z
#    x 1.554520 0.000000 0.000000 
#    y 0.000000 1.554520 0.000000 
#    z 0.000000 0.000000 1.571810 
# 
# From -- ./inp_files/5593.got.cif
#   From: 2010.05.17/outbox.cif.g08.bks.cpg/sg123_3_cif.got.tgz:5593.got - 2010.05.20 11:43:04.
