data_PCOD9561592
_publ_section_title
;
Structure prediction by ZEFSAII (Michael W. Deem and Ramdas Pophale) SiO2 
 PCOD9561592
Probable space group: I -4 2 D
;
_chemical_formula_sum "Si O2"
_cell_formula_units_Z 44
_cell_length_a 18.000000
_cell_length_b 18.000000
_cell_length_c 15.000000
_cell_angle_alpha 90.000000
_cell_angle_beta 90.000000
_cell_angle_gamma 90.000000
_cell_volume 4860.000000
_symmetry_space_group_name_H-M "I -4 2 D"
_symmetry_group_IT_number 122
_symmetry_cell_setting 'tetragonal'
loop_
_space_group_symop_operation_xyz
x,y,z
y,-x,-z
-x,-y,z
-y,x,-z
x,1/2-y,1/4-z
-x,1/2+y,1/4-z
-y,1/2-x,1/4+z
y,1/2+x,1/4+z
1/2+x,1/2+y,1/2+z
1/2+y,1/2-x,1/2-z
1/2-x,1/2-y,1/2+z
1/2-y,1/2+x,1/2-z
1/2+x,-y,3/4-z
1/2-x,y,3/4-z
1/2-y,-x,3/4+z
1/2+y,x,3/4+z
loop_
_atom_site_type_symbol
_atom_site_label
_atom_site_fract_x
_atom_site_fract_y
_atom_site_fract_z
Si Si1 0.243770 0.090706 0.550529
Si Si2 0.131032 0.128848 0.697104
Si Si3 0.159128 0.462738 0.371974
Si Si4 0.759444 0.255832 0.232306
Si Si5 0.125865 0.630434 0.309994
Si Si6 0.250000 0.986191 0.375000
O O1 0.173100 0.085295 0.617168
O O2 0.248554 0.174496 0.512062
O O3 0.315612 0.085710 0.616995
O O4 0.238545 0.036075 0.465056
O O5 0.125872 0.075156 0.786234
O O6 0.188106 0.192718 0.728947
O O7 0.063248 0.177002 0.653682
O O8 0.250000 0.454163 0.375000
O O9 0.140323 0.549969 0.354589
O O10 0.129401 0.421188 0.282552
O O11 0.764862 0.250000 0.125000
O O12 0.798130 0.328656 0.276074
#
# Coordination Sequence:
#
# PCOD9561592 Si02
#       6
#    16  16  16  16  16   8
#     4  11  23  43  66  96 128 172 239 277 327 388
#     4  11  22  44  68  93 131 173 222 280 325 391
#     4  12  23  43  69 102 137 176 219 276 350 409
#     4  11  18  41  70  95 124 163 229 288 316 381
#     4  11  24  40  68 102 134 173 217 280 348 409
#     4  12  26  42  70  96 128 182 226 276 332 390
#
# _framework density 9.0534979999999994
#
# number of rings (size 3 to 8) (size 9 to 14) (size 15 to 20)
#    0.000    0.727    8.182    2.727    2.545    0.364 
#    6.545    0.000    0.000    0.000    0.000    0.000 
#    0.000    0.000    0.000    0.000    0.000    0.000 
#
# Total GULP energy -245498.530879 kJ/mol
# GULP energy per Si atom -5579.512065 kJ/mol
# Density = 0.903289 g / cm^3
# Si number density = 9.053498 Si / 1000 Ang^3
#
#
#
# Elastic Constant Matrix: (Units=GPa)
#
#
# Indices 1 2 3 4 5 6 
#
# 1 112.9840 28.2500 63.3504 0.0000 0.0000 0.0000
# 2 28.2500 112.9840 63.3504 0.0000 0.0000 0.0000
# 3 63.3504 63.3504 200.0698 0.0000 0.0000 0.0000
# 4 0.0000 0.0000 0.0000 38.6669 0.0000 0.0000
# 5 0.0000 0.0000 0.0000 0.0000 38.6669 0.0000
# 6 0.0000 0.0000 0.0000 0.0000 0.0000 21.6926
#
#
#
# Elastic Compliance Matrix: (Units=1/GPa)
#
#
# Indices 1 2 3 4 5 6 
#
# 1 0.010846 -0.000956 -0.003131 0.000000 0.000000 0.000000
# 2 -0.000956 0.010846 -0.003131 0.000000 0.000000 0.000000
# 3 -0.003131 -0.003131 0.006981 0.000000 0.000000 0.000000
# 4 0.000000 0.000000 0.000000 0.025862 0.000000 0.000000
# 5 0.000000 0.000000 0.000000 0.000000 0.025862 0.000000
# 6 0.000000 0.000000 0.000000 0.000000 0.000000 0.046099
#
#
# Mechanical properties :
#
#
# Convention : Reuss Voigt Hill
#
# Bulk Modulus (GPa) = 70.25024 81.77103 76.01064
# Shear Modulus (GPa) = 34.32226 37.87773 36.10000
#
# Velocity S-wave (km/s) = 4.35849 4.57867 4.46994
# Velocity P-wave (km/s) = 8.01312 8.55630 8.28916
#
# Compressibility (1/GPa) = 0.01423483
#
# Stress axis : x y z
#
# Youngs Moduli (GPa) = 92.20264 92.20264 143.23820
#
# Poissons Ratio (x) = 0.08814 0.44855
# Poissons Ratio (y) = 0.08814 0.44855
# Poissons Ratio (z) = 0.28873 0.28873
#
# Static dielectric constant tensor:
#      x y z
#    x 1.643220 0.000000 0.000000 
#    y 0.000000 1.643220 0.000000 
#    z 0.000000 0.000000 1.633090 
# 
# From -- ./inp_files/5378.got.cif
#   From: 2010.05.17/outbox.ucp.g08.bks.cvg/sg122_3_cif.got.tgz:5378.got - 2010.06.11 11:35:26.
