data_PCOD9561540
_publ_section_title
;
Structure prediction by ZEFSAII (Michael W. Deem and Ramdas Pophale) SiO2 
 PCOD9561540
Probable space group: I -4 2 D
;
_chemical_formula_sum "Si O2"
_cell_formula_units_Z 44
_cell_length_a 18.860556
_cell_length_b 18.860556
_cell_length_c 4.797533
_cell_angle_alpha 90.000000
_cell_angle_beta 90.000000
_cell_angle_gamma 90.000000
_cell_volume 1706.581186
_symmetry_space_group_name_H-M "I -4 2 D"
_symmetry_group_IT_number 122
_symmetry_cell_setting 'tetragonal'
loop_
_space_group_symop_operation_xyz
x,y,z
y,-x,-z
-x,-y,z
-y,x,-z
x,1/2-y,1/4-z
-x,1/2+y,1/4-z
-y,1/2-x,1/4+z
y,1/2+x,1/4+z
1/2+x,1/2+y,1/2+z
1/2+y,1/2-x,1/2-z
1/2-x,1/2-y,1/2+z
1/2-y,1/2+x,1/2-z
1/2+x,-y,3/4-z
1/2-x,y,3/4-z
1/2-y,-x,3/4+z
1/2+y,x,3/4+z
loop_
_atom_site_type_symbol
_atom_site_label
_atom_site_fract_x
_atom_site_fract_y
_atom_site_fract_z
Si Si1 0.000000 0.500000 0.750000
Si Si2 0.636318 0.079391 0.166315
Si Si3 0.643026 0.179538 0.697500
Si Si4 0.250000 0.031952 0.375000
O O1 0.043581 0.439123 0.912571
O O2 0.625954 0.134838 0.420718
O O3 0.670265 0.121768 0.912825
O O4 0.689146 0.018669 0.259843
O O5 0.687584 0.250000 0.625000
O O6 0.579186 0.214589 0.880927
#
# Coordination Sequence:
#
# PCOD9561540 Si02
#       4
#     4  16  16   8
#     4  12  24  46  72 126 148 190 264 326 380 458
#     4  12  28  42  81 110 153 199 256 316 396 444
#     4  12  25  49  73 104 154 201 247 316 379 467
#     4  12  28  48  78 116 158 196 256 328 390 452
#
# _framework density 25.782543
#
# number of rings (size 3 to 8) (size 9 to 14) (size 15 to 20)
#    0.000    0.000    7.273    0.000   10.182    1.455 
#    0.000    3.636    4.000    0.000    0.000    0.000 
#    0.000    0.000    0.000    0.000    0.000    0.000 
#
# Total GULP energy -123197.515974 kJ/mol
# GULP energy per Si atom -5599.887090 kJ/mol
# Density = 2.572386 g / cm^3
# Si number density = 25.782543 Si / 1000 Ang^3
#
#
#
# Elastic Constant Matrix: (Units=GPa)
#
#
# Indices 1 2 3 4 5 6 
#
# 1 122.3567 29.4233 29.0460 0.0000 0.0000 0.0000
# 2 29.4233 122.3567 29.0460 0.0000 0.0000 0.0000
# 3 29.0460 29.0460 149.1060 0.0000 0.0000 0.0000
# 4 0.0000 0.0000 0.0000 26.8004 0.0000 0.0000
# 5 0.0000 0.0000 0.0000 0.0000 26.8004 0.0000
# 6 0.0000 0.0000 0.0000 0.0000 0.0000 14.5163
#
#
#
# Elastic Compliance Matrix: (Units=1/GPa)
#
#
# Indices 1 2 3 4 5 6 
#
# 1 0.008940 -0.001821 -0.001387 0.000000 0.000000 0.000000
# 2 -0.001821 0.008940 -0.001387 0.000000 0.000000 0.000000
# 3 -0.001387 -0.001387 0.007247 0.000000 0.000000 0.000000
# 4 0.000000 0.000000 0.000000 0.037313 0.000000 0.000000
# 5 0.000000 0.000000 0.000000 0.000000 0.037313 0.000000
# 6 0.000000 0.000000 0.000000 0.000000 0.000000 0.068888
#
#
# Mechanical properties :
#
#
# Convention : Reuss Voigt Hill
#
# Bulk Modulus (GPa) = 62.74256 63.20556 62.97406
# Shear Modulus (GPa) = 27.30127 34.04371 30.67249
#
# Velocity S-wave (km/s) = 3.25761 3.63770 3.45289
# Velocity P-wave (km/s) = 6.20786 6.49707 6.35411
#
# Compressibility (1/GPa) = 0.01593814
#
# Stress axis : x y z
#
# Youngs Moduli (GPa) = 111.85890 111.85890 137.98899
#
# Poissons Ratio (x) = 0.20365 0.19137
# Poissons Ratio (y) = 0.20365 0.19137
# Poissons Ratio (z) = 0.15513 0.15513
#
# Static dielectric constant tensor:
#      x y z
#    x 2.066420 0.000000 0.000000 
#    y 0.000000 2.066420 0.000000 
#    z 0.000000 0.000000 2.038440 
# 
# From -- ./inp_files/2101.got.cif
#   From: 2010.05.17/outbox.cif.g08.bks.cpg/sg122_2_cif.got.tgz:2101.got - 2010.05.20 11:37:33.
