data_PCOD9561577
_publ_section_title
;
Structure prediction by ZEFSAII (Michael W. Deem and Ramdas Pophale) SiO2 
 PCOD9561577
Probable space group: I -4 2 D
;
_chemical_formula_sum "Si O2"
_cell_formula_units_Z 40
_cell_length_a 8.041000
_cell_length_b 8.041000
_cell_length_c 24.824941
_cell_angle_alpha 90.000000
_cell_angle_beta 90.000000
_cell_angle_gamma 90.000000
_cell_volume 1605.123116
_symmetry_space_group_name_H-M "I -4 2 D"
_symmetry_group_IT_number 122
_symmetry_cell_setting 'tetragonal'
loop_
_space_group_symop_operation_xyz
x,y,z
y,-x,-z
-x,-y,z
-y,x,-z
x,1/2-y,1/4-z
-x,1/2+y,1/4-z
-y,1/2-x,1/4+z
y,1/2+x,1/4+z
1/2+x,1/2+y,1/2+z
1/2+y,1/2-x,1/2-z
1/2-x,1/2-y,1/2+z
1/2-y,1/2+x,1/2-z
1/2+x,-y,3/4-z
1/2-x,y,3/4-z
1/2-y,-x,3/4+z
1/2+y,x,3/4+z
loop_
_atom_site_type_symbol
_atom_site_label
_atom_site_fract_x
_atom_site_fract_y
_atom_site_fract_z
Si Si1 0.361955 0.221160 0.234826
Si Si2 0.126306 0.854346 0.076451
Si Si3 0.750000 0.549503 0.875000
O O1 0.537283 0.215035 0.266220
O O2 0.245794 0.337225 0.271202
O O3 0.427702 0.244894 0.175187
O O4 0.043034 0.750000 0.125000
O O5 0.310000 0.884995 0.104018
O O6 0.000000 0.000000 0.065809
#
# Coordination Sequence:
#
# PCOD9561577 Si02
#       3
#    16  16   8
#     4   9  17  36  76 115 148 206 288 344 408 521
#     4   9  19  38  75 117 169 213 270 358 435 497
#     4   8  18  36  74 122 160 212 286 346 422 512
#
# _framework density 24.920203999999998
#
# number of rings (size 3 to 8) (size 9 to 14) (size 15 to 20)
#    1.200    2.000    0.000    0.000    0.000    0.000 
#    0.000    0.000   39.600    2.400    0.000   11.200 
#    6.000    0.000    0.000    0.000    0.000    0.000 
#
# Total GULP energy -111381.370290 kJ/mol
# GULP energy per Si atom -5569.068515 kJ/mol
# Density = 2.486348 g / cm^3
# Si number density = 24.920204 Si / 1000 Ang^3
#
#
#
# Elastic Constant Matrix: (Units=GPa)
#
#
# Indices 1 2 3 4 5 6 
#
# 1 136.7024 127.4225 123.1086 0.0000 0.0000 0.0000
# 2 127.4225 136.7024 123.1086 0.0000 0.0000 0.0000
# 3 123.1086 123.1086 243.7312 0.0000 0.0000 0.0000
# 4 0.0000 0.0000 0.0000 73.3747 0.0000 0.0000
# 5 0.0000 0.0000 0.0000 0.0000 73.3747 0.0000
# 6 0.0000 0.0000 0.0000 0.0000 0.0000 58.7509
#
#
#
# Elastic Compliance Matrix: (Units=1/GPa)
#
#
# Indices 1 2 3 4 5 6 
#
# 1 0.057457 -0.050302 -0.003614 0.000000 0.000000 0.000000
# 2 -0.050302 0.057457 -0.003614 0.000000 0.000000 0.000000
# 3 -0.003614 -0.003614 0.007754 0.000000 0.000000 0.000000
# 4 0.000000 0.000000 0.000000 0.013629 0.000000 0.000000
# 5 0.000000 0.000000 0.000000 0.000000 0.013629 0.000000
# 6 0.000000 0.000000 0.000000 0.000000 0.000000 0.017021
#
#
# Mechanical properties :
#
#
# Convention : Reuss Voigt Hill
#
# Bulk Modulus (GPa) = 131.44373 140.49059 135.96716
# Shear Modulus (GPa) = 17.57208 50.66651 34.11929
#
# Velocity S-wave (km/s) = 2.65832 4.51394 3.70421
# Velocity P-wave (km/s) = 7.89193 9.14692 8.54250
#
# Compressibility (1/GPa) = 0.00760782
#
# Stress axis : x y z
#
# Youngs Moduli (GPa) = 17.40430 17.40430 128.96938
#
# Poissons Ratio (x) = 0.87547 0.46610
# Poissons Ratio (y) = 0.87547 0.46610
# Poissons Ratio (z) = 0.06290 0.06290
#
# Static dielectric constant tensor:
#      x y z
#    x 2.055400 0.000000 0.000000 
#    y 0.000000 2.055400 0.000000 
#    z 0.000000 0.000000 2.097520 
# 
# From -- ./inp_files/7636.got.cif
#   From: 2010.05.17/outbox.cif.g08.bks.cpg/sg122_4_cif.got.tgz:7636.got - 2010.05.20 11:37:33.
