data_PCOD9561502
_publ_section_title
;
Structure prediction by ZEFSAII (Michael W. Deem and Ramdas Pophale) SiO2 
 PCOD9561502
Probable space group: I -4 2 D
;
_chemical_formula_sum "Si O2"
_cell_formula_units_Z 40
_cell_length_a 9.552063
_cell_length_b 9.552063
_cell_length_c 14.206833
_cell_angle_alpha 90.000000
_cell_angle_beta 90.000000
_cell_angle_gamma 90.000000
_cell_volume 1296.258543
_symmetry_space_group_name_H-M "I -4 2 D"
_symmetry_group_IT_number 122
_symmetry_cell_setting 'tetragonal'
loop_
_space_group_symop_operation_xyz
x,y,z
y,-x,-z
-x,-y,z
-y,x,-z
x,1/2-y,1/4-z
-x,1/2+y,1/4-z
-y,1/2-x,1/4+z
y,1/2+x,1/4+z
1/2+x,1/2+y,1/2+z
1/2+y,1/2-x,1/2-z
1/2-x,1/2-y,1/2+z
1/2-y,1/2+x,1/2-z
1/2+x,-y,3/4-z
1/2-x,y,3/4-z
1/2-y,-x,3/4+z
1/2+y,x,3/4+z
loop_
_atom_site_type_symbol
_atom_site_label
_atom_site_fract_x
_atom_site_fract_y
_atom_site_fract_z
Si Si1 0.874528 0.753394 0.301673
Si Si2 0.323035 0.879785 0.284540
Si Si3 0.000000 0.000000 0.172399
O O1 0.750000 0.797167 0.375000
O O2 0.755366 0.722023 0.223850
O O3 0.956895 0.625159 0.005089
O O4 0.944206 0.619357 0.350424
O O5 0.487067 0.833919 0.288192
O O6 0.250000 0.943596 0.375000
#
# Coordination Sequence:
#
# PCOD9561502 Si02
#       3
#    16  16   8
#     4  12  31  58  94 138 189 244 310 383 465 554
#     4  11  27  54  91 138 188 245 309 383 466 555
#     4  12  34  62  98 140 186 246 312 386 467 554
#
# _framework density 30.858039999999999
#
# number of rings (size 3 to 8) (size 9 to 14) (size 15 to 20)
#    0.000    0.400    0.000    3.600    0.000   33.600 
#    0.000   10.000    0.000    4.800    0.000    0.000 
#    0.000    0.000    0.000    0.000    0.000    0.000 
#
# Total GULP energy -111414.369237 kJ/mol
# GULP energy per Si atom -5570.718462 kJ/mol
# Density = 3.078781 g / cm^3
# Si number density = 30.858040 Si / 1000 Ang^3
#
#
#
# Elastic Constant Matrix: (Units=GPa)
#
#
# Indices 1 2 3 4 5 6 
#
# 1 304.0842 186.9815 118.8136 0.0000 0.0000 0.0000
# 2 186.9815 304.0842 118.8136 0.0000 0.0000 0.0000
# 3 118.8136 118.8136 198.2506 0.0000 0.0000 0.0000
# 4 0.0000 0.0000 0.0000 74.7175 0.0000 0.0000
# 5 0.0000 0.0000 0.0000 0.0000 74.7175 0.0000
# 6 0.0000 0.0000 0.0000 0.0000 0.0000 72.9787
#
#
#
# Elastic Compliance Matrix: (Units=1/GPa)
#
#
# Indices 1 2 3 4 5 6 
#
# 1 0.005704 -0.002836 -0.001719 0.000000 0.000000 0.000000
# 2 -0.002836 0.005704 -0.001719 0.000000 0.000000 0.000000
# 3 -0.001719 -0.001719 0.007104 0.000000 0.000000 0.000000
# 4 0.000000 0.000000 0.000000 0.013384 0.000000 0.000000
# 5 0.000000 0.000000 0.000000 0.000000 0.013384 0.000000
# 6 0.000000 0.000000 0.000000 0.000000 0.000000 0.013703
#
#
# Mechanical properties :
#
#
# Convention : Reuss Voigt Hill
#
# Bulk Modulus (GPa) = 167.64160 183.95961 175.80060
# Shear Modulus (GPa) = 68.01083 69.93675 68.97379
#
# Velocity S-wave (km/s) = 4.69976 4.76584 4.73292
# Velocity P-wave (km/s) = 9.15942 9.48834 9.32533
#
# Compressibility (1/GPa) = 0.00596511
#
# Stress axis : x y z
#
# Youngs Moduli (GPa) = 175.32033 175.32033 140.75661
#
# Poissons Ratio (x) = 0.49715 0.24195
# Poissons Ratio (y) = 0.49715 0.24195
# Poissons Ratio (z) = 0.30136 0.30136
#
# Static dielectric constant tensor:
#      x y z
#    x 2.277320 0.000000 0.000000 
#    y 0.000000 2.277320 0.000000 
#    z 0.000000 0.000000 1.267540 
# 
# From -- ./inp_files/4915.got.cif
#   From: 2010.05.17/outbox.cif.g08.bks.cpg/sg122_3_cif.got.tgz:4915.got - 2010.05.20 11:37:33.
