data_PCOD9561449
_publ_section_title
;
Structure prediction by ZEFSAII (Michael W. Deem and Ramdas Pophale) SiO2 
 PCOD9561449
Probable space group: I -4 2 D
;
_chemical_formula_sum "Si O2"
_cell_formula_units_Z 96
_cell_length_a 14.892435
_cell_length_b 14.892435
_cell_length_c 17.990084
_cell_angle_alpha 90.000000
_cell_angle_beta 90.000000
_cell_angle_gamma 90.000000
_cell_volume 3989.923948
_symmetry_space_group_name_H-M "I -4 2 D"
_symmetry_group_IT_number 122
_symmetry_cell_setting 'tetragonal'
loop_
_space_group_symop_operation_xyz
x,y,z
y,-x,-z
-x,-y,z
-y,x,-z
x,1/2-y,1/4-z
-x,1/2+y,1/4-z
-y,1/2-x,1/4+z
y,1/2+x,1/4+z
1/2+x,1/2+y,1/2+z
1/2+y,1/2-x,1/2-z
1/2-x,1/2-y,1/2+z
1/2-y,1/2+x,1/2-z
1/2+x,-y,3/4-z
1/2-x,y,3/4-z
1/2-y,-x,3/4+z
1/2+y,x,3/4+z
loop_
_atom_site_type_symbol
_atom_site_label
_atom_site_fract_x
_atom_site_fract_y
_atom_site_fract_z
Si Si1 0.176927 0.383719 0.073752
Si Si2 0.150880 0.576910 0.010504
Si Si3 0.254988 0.056655 0.792067
Si Si4 0.652664 0.141106 0.239636
Si Si5 0.496735 0.605766 0.107708
Si Si6 0.875002 0.697336 0.234984
O O1 0.143348 0.485132 0.058424
O O2 0.280097 0.376448 0.046175
O O3 0.159730 0.349251 0.157762
O O4 0.135542 0.304383 0.023041
O O5 0.075139 0.653488 0.016497
O O6 0.242472 0.630562 0.024779
O O7 0.154843 0.541578 0.926416
O O8 0.250000 0.019282 0.875000
O O9 0.313360 0.147195 0.793924
O O10 0.311200 0.980473 0.749308
O O11 0.601231 0.142103 0.161770
O O12 0.624128 0.051162 0.282632
O O13 0.500000 0.500000 0.124301
#
# Coordination Sequence:
#
# PCOD9561449 Si02
#       6
#    16  16  16  16  16  16
#     4  11  24  49  75 105 153 199 257 320 388 454
#     4  12  28  44  79 113 154 202 261 320 394 470
#     4  12  28  52  78 113 151 203 265 321 391 464
#     4  12  22  45  69 108 153 207 245 310 393 469
#     4  12  24  42  70 110 156 197 256 312 382 477
#     4  11  27  51  76 106 153 200 257 328 383 456
#
# _framework density 24.060607999999998
#
# number of rings (size 3 to 8) (size 9 to 14) (size 15 to 20)
#    0.000    0.333    6.667    1.500    7.000    1.667 
#    0.000    0.000    0.000    0.000    0.000    0.000 
#    0.000    0.000    0.000    0.000    0.000    0.000 
#
# Total GULP energy -268455.225191 kJ/mol
# GULP energy per Si atom -5592.817191 kJ/mol
# Density = 2.400585 g / cm^3
# Si number density = 24.060608 Si / 1000 Ang^3
#
#
#
# Elastic Constant Matrix: (Units=GPa)
#
#
# Indices 1 2 3 4 5 6 
#
# 1 121.8116 52.9674 19.8065 0.0000 0.0000 0.0000
# 2 52.9674 121.8116 19.8065 0.0000 0.0000 0.0000
# 3 19.8065 19.8065 54.5396 0.0000 0.0000 0.0000
# 4 0.0000 0.0000 0.0000 36.0856 0.0000 0.0000
# 5 0.0000 0.0000 0.0000 0.0000 36.0856 0.0000
# 6 0.0000 0.0000 0.0000 0.0000 0.0000 29.9962
#
#
#
# Elastic Compliance Matrix: (Units=1/GPa)
#
#
# Indices 1 2 3 4 5 6 
#
# 1 0.010380 -0.004145 -0.002264 0.000000 0.000000 0.000000
# 2 -0.004145 0.010380 -0.002264 0.000000 0.000000 0.000000
# 3 -0.002264 -0.002264 0.019980 0.000000 0.000000 0.000000
# 4 0.000000 0.000000 0.000000 0.027712 0.000000 0.000000
# 5 0.000000 0.000000 0.000000 0.000000 0.027712 0.000000
# 6 0.000000 0.000000 0.000000 0.000000 0.000000 0.033338
#
#
# Mechanical properties :
#
#
# Convention : Reuss Voigt Hill
#
# Bulk Modulus (GPa) = 42.74882 53.70262 48.22572
# Shear Modulus (GPa) = 32.33184 34.13899 33.23542
#
# Velocity S-wave (km/s) = 3.66972 3.77088 3.72064
# Velocity P-wave (km/s) = 5.98009 6.42865 6.20842
#
# Compressibility (1/GPa) = 0.02339246
#
# Stress axis : x y z
#
# Youngs Moduli (GPa) = 96.33804 96.33804 50.05057
#
# Poissons Ratio (x) = 0.39936 0.11332
# Poissons Ratio (y) = 0.39936 0.11332
# Poissons Ratio (z) = 0.21813 0.21813
#
# Static dielectric constant tensor:
#      x y z
#    x 2.008880 0.000000 0.000000 
#    y 0.000000 2.008880 0.000000 
#    z 0.000000 0.000000 1.889160 
# 
# From -- ./inp_files/7316.got.cif
#   From: 2010.05.17/outbox.cif.g08.bks.cpg/sg122_4_cif.got.tgz:7316.got - 2010.05.20 11:37:33.
