data_PCOD9561762
_publ_section_title
;
Structure prediction by ZEFSAII (Michael W. Deem and Ramdas Pophale) SiO2 
 PCOD9561762
Probable space group: P 4/M M M
;
_chemical_formula_sum "Si O2"
_cell_formula_units_Z 112
_cell_length_a 15.620433
_cell_length_b 15.620433
_cell_length_c 28.634725
_cell_angle_alpha 90.000000
_cell_angle_beta 90.000000
_cell_angle_gamma 90.000000
_cell_volume 6986.813543
_symmetry_space_group_name_H-M "P 4/M M M"
_symmetry_group_IT_number 123
_symmetry_cell_setting 'tetragonal'
loop_
_space_group_symop_operation_xyz
x,y,z
-y,x,z
-x,-y,z
y,-x,z
x,-y,-z
-x,y,-z
y,x,-z
-y,-x,-z
-x,-y,-z
y,-x,-z
x,y,-z
-y,x,-z
-x,y,z
x,-y,z
-y,-x,z
y,x,z
loop_
_atom_site_type_symbol
_atom_site_label
_atom_site_fract_x
_atom_site_fract_y
_atom_site_fract_z
Si Si1 0.396145 0.904429 0.054269
Si Si2 0.730006 0.592641 0.681924
Si Si3 0.183109 0.596819 0.220361
Si Si4 0.742684 0.601090 0.116803
Si Si5 0.344079 0.903763 0.646059
Si Si6 0.240440 0.097502 0.552615
Si Si7 0.096788 0.760349 0.260548
O O1 0.500000 0.905535 0.055749
O O2 0.370274 0.824203 0.085702
O O3 0.367836 0.000000 0.069680
O O4 0.371523 0.893260 0.000000
O O5 0.690687 0.500000 0.672666
O O6 0.670198 0.670198 0.666660
O O7 0.748996 0.600613 0.737236
O O8 0.823467 0.597820 0.658733
O O9 0.145256 0.500000 0.221529
O O10 0.228017 0.608258 0.170697
O O11 0.118515 0.673861 0.231732
O O12 0.725487 0.500000 0.107501
O O13 0.661307 0.661307 0.108159
O O14 0.307740 0.893119 0.594198
O O15 0.268584 0.898435 0.684999
O O16 0.381000 0.000000 0.650850
O O17 0.275969 0.109082 0.500000
O O18 0.164722 0.164722 0.558960
O O19 0.207592 0.000000 0.555519
O O20 0.167885 0.832116 0.251287
O O21 0.000000 0.788791 0.250886
#
# Coordination Sequence:
#
# PCOD9561762 Si02
#       7
#    16  16  16  16  16  16  16
#     4   8  15  29  47  65  86 115 153 195 233 261
#     4  10  19  31  48  67  90 119 149 186 228 271
#     4   9  18  32  48  66  89 118 153 192 233 271
#     4  10  19  30  46  68  96 127 154 183 221 271
#     4   9  17  30  47  65  87 116 148 182 223 265
#     4   9  16  25  39  60  86 116 148 181 217 261
#     4  10  19  30  45  64  90 122 152 186 225 269
#
# _framework density 16.030197999999999
#
# number of rings (size 3 to 8) (size 9 to 14) (size 15 to 20)
#    0.000    2.714    0.000    3.857    0.000    2.000 
#    0.000    5.000    0.000    5.571    0.000    4.000 
#    0.000    0.286    0.000    4.571    0.000    0.143 
#
# Total GULP energy -623486.741165 kJ/mol
# GULP energy per Si atom -5566.845903 kJ/mol
# Density = 1.599371 g / cm^3
# Si number density = 16.030198 Si / 1000 Ang^3
#
#
#
# Elastic Constant Matrix: (Units=GPa)
#
#
# Indices 1 2 3 4 5 6 
#
# 1 81.8719 56.6319 37.2571 0.0000 0.0000 0.0000
# 2 56.6319 81.8719 37.2571 0.0000 0.0000 0.0000
# 3 37.2571 37.2571 61.8066 0.0000 0.0000 0.0000
# 4 0.0000 0.0000 0.0000 13.3517 0.0000 0.0000
# 5 0.0000 0.0000 0.0000 0.0000 13.3517 0.0000
# 6 0.0000 0.0000 0.0000 0.0000 0.0000 4.3509
#
#
#
# Elastic Compliance Matrix: (Units=1/GPa)
#
#
# Indices 1 2 3 4 5 6 
#
# 1 0.025152 -0.014467 -0.006441 0.000000 0.000000 0.000000
# 2 -0.014467 0.025152 -0.006441 0.000000 0.000000 0.000000
# 3 -0.006441 -0.006441 0.023945 0.000000 0.000000 0.000000
# 4 0.000000 0.000000 0.000000 0.074897 0.000000 0.000000
# 5 0.000000 0.000000 0.000000 0.000000 0.074897 0.000000
# 6 0.000000 0.000000 0.000000 0.000000 0.000000 0.229837
#
#
# Mechanical properties :
#
#
# Convention : Reuss Voigt Hill
#
# Bulk Modulus (GPa) = 51.14811 54.20475 52.67643
# Shear Modulus (GPa) = 9.70691 12.50447 11.10569
#
# Velocity S-wave (km/s) = 2.46344 2.79598 2.63496
# Velocity P-wave (km/s) = 6.32993 6.65664 6.49534
#
# Compressibility (1/GPa) = 0.01955106
#
# Stress axis : x y z
#
# Youngs Moduli (GPa) = 39.75757 39.75757 41.76254
#
# Poissons Ratio (x) = 0.57518 0.26900
# Poissons Ratio (y) = 0.57518 0.26900
# Poissons Ratio (z) = 0.25608 0.25608
#
# Static dielectric constant tensor:
#      x y z
#    x 1.534590 0.000000 0.000000 
#    y 0.000000 1.534590 0.000000 
#    z 0.000000 0.000000 1.540610 
# 
# From -- ./inp_files/8170.got.cif
#   From: 2010.05.17/outbox.cif.g08.bks.cpg/sg123_5_cif.got.tgz:8170.got - 2010.05.20 11:43:04.
