data_PCOD9561427
_publ_section_title
;
Structure prediction by ZEFSAII (Michael W. Deem and Ramdas Pophale) SiO2 
 PCOD9561427
Probable space group: I -4 2 D
;
_chemical_formula_sum "Si O2"
_cell_formula_units_Z 112
_cell_length_a 14.648726
_cell_length_b 14.648726
_cell_length_c 22.274897
_cell_angle_alpha 90.000000
_cell_angle_beta 90.000000
_cell_angle_gamma 90.000000
_cell_volume 4779.862636
_symmetry_space_group_name_H-M "I -4 2 D"
_symmetry_group_IT_number 122
_symmetry_cell_setting 'tetragonal'
loop_
_space_group_symop_operation_xyz
x,y,z
y,-x,-z
-x,-y,z
-y,x,-z
x,1/2-y,1/4-z
-x,1/2+y,1/4-z
-y,1/2-x,1/4+z
y,1/2+x,1/4+z
1/2+x,1/2+y,1/2+z
1/2+y,1/2-x,1/2-z
1/2-x,1/2-y,1/2+z
1/2-y,1/2+x,1/2-z
1/2+x,-y,3/4-z
1/2-x,y,3/4-z
1/2-y,-x,3/4+z
1/2+y,x,3/4+z
loop_
_atom_site_type_symbol
_atom_site_label
_atom_site_fract_x
_atom_site_fract_y
_atom_site_fract_z
Si Si1 0.384685 0.078103 0.470199
Si Si2 0.481410 0.096295 0.904982
Si Si3 0.907616 0.889507 0.512757
Si Si4 0.016295 0.760343 0.312298
Si Si5 0.233408 0.289077 0.805312
Si Si6 0.917844 0.227681 0.190582
Si Si7 0.894114 0.645713 0.605582
O O1 0.407826 0.048884 0.537770
O O2 0.451565 0.149856 0.436869
O O3 0.292951 0.135714 0.477971
O O4 0.377442 0.986630 0.430180
O O5 0.493927 0.182306 0.860232
O O6 0.381246 0.097424 0.935150
O O7 0.500000 0.000000 0.871916
O O8 0.865419 0.806633 0.474555
O O9 0.877385 0.903252 0.580978
O O10 0.016360 0.882575 0.519319
O O11 0.017240 0.734170 0.242251
O O12 0.117212 0.804570 0.319226
O O13 0.250000 0.313122 0.875000
O O14 0.266131 0.184955 0.801450
O O15 0.954676 0.250000 0.125000
O O16 0.899173 0.750000 0.625000
#
# Coordination Sequence:
#
# PCOD9561427 Si02
#       7
#    16  16  16  16  16  16  16
#     4  12  24  48  75 111 155 206 254 319 404 474
#     4  12  26  52  78 113 158 204 266 337 398 482
#     4  11  25  36  57 100 145 187 240 297 353 452
#     4  12  26  46  83 107 154 208 254 325 398 468
#     4  11  24  42  70 102 147 198 251 305 387 461
#     4  11  25  51  74 110 152 193 261 323 384 474
#     4  12  25  42  69 108 157 198 249 310 381 477
#
# _framework density 23.431636999999998
#
# number of rings (size 3 to 8) (size 9 to 14) (size 15 to 20)
#    0.000    0.429    2.857    6.000   10.000    0.000 
#    5.143    0.714    0.000    0.000    0.000    0.000 
#    0.000    0.000    0.000    0.000    0.000    0.000 
#
# Total GULP energy -312912.812778 kJ/mol
# GULP energy per Si atom -5587.728800 kJ/mol
# Density = 2.337831 g / cm^3
# Si number density = 23.431637 Si / 1000 Ang^3
#
#
#
# Elastic Constant Matrix: (Units=GPa)
#
#
# Indices 1 2 3 4 5 6 
#
# 1 86.5336 21.1957 30.2942 0.0000 0.0000 0.0000
# 2 21.1957 86.5336 30.2942 0.0000 0.0000 0.0000
# 3 30.2942 30.2942 133.4692 0.0000 0.0000 0.0000
# 4 0.0000 0.0000 0.0000 35.8075 0.0000 0.0000
# 5 0.0000 0.0000 0.0000 0.0000 35.8075 0.0000
# 6 0.0000 0.0000 0.0000 0.0000 0.0000 3.1336
#
#
#
# Elastic Compliance Matrix: (Units=1/GPa)
#
#
# Indices 1 2 3 4 5 6 
#
# 1 0.012973 -0.002332 -0.002415 0.000000 0.000000 0.000000
# 2 -0.002332 0.012973 -0.002415 0.000000 0.000000 0.000000
# 3 -0.002415 -0.002415 0.008589 0.000000 0.000000 0.000000
# 4 0.000000 0.000000 0.000000 0.027927 0.000000 0.000000
# 5 0.000000 0.000000 0.000000 0.000000 0.027927 0.000000
# 6 0.000000 0.000000 0.000000 0.000000 0.000000 0.319125
#
#
# Mechanical properties :
#
#
# Convention : Reuss Voigt Hill
#
# Bulk Modulus (GPa) = 49.48134 52.23384 50.85759
# Shear Modulus (GPa) = 11.61238 29.93322 20.77280
#
# Velocity S-wave (km/s) = 2.22859 3.57805 2.98069
# Velocity P-wave (km/s) = 5.27118 6.27776 5.79636
#
# Compressibility (1/GPa) = 0.02020964
#
# Stress axis : x y z
#
# Youngs Moduli (GPa) = 77.08340 77.08340 116.43143
#
# Poissons Ratio (x) = 0.17977 0.28121
# Poissons Ratio (y) = 0.17977 0.28121
# Poissons Ratio (z) = 0.18617 0.18617
#
# Static dielectric constant tensor:
#      x y z
#    x 2.029530 0.000000 0.000000 
#    y 0.000000 2.029530 0.000000 
#    z 0.000000 0.000000 2.661310 
# 
# From -- ./inp_files/8132.got.cif
#   From: 2010.05.17/outbox.cif.g08.bks.cpg/sg122_5_cif.got.tgz:8132.got - 2010.05.20 11:37:33.
