data_PCOD9561032
_publ_section_title
;
Structure prediction by ZEFSAII (Michael W. Deem and Ramdas Pophale) SiO2 
 PCOD9561032
Probable space group: I -4 2 D
;
_chemical_formula_sum "Si O2"
_cell_formula_units_Z 112
_cell_length_a 14.838821
_cell_length_b 14.838821
_cell_length_c 26.285119
_cell_angle_alpha 90.000000
_cell_angle_beta 90.000000
_cell_angle_gamma 90.000000
_cell_volume 5787.736352
_symmetry_space_group_name_H-M "I -4 2 D"
_symmetry_group_IT_number 122
_symmetry_cell_setting 'tetragonal'
loop_
_space_group_symop_operation_xyz
x,y,z
y,-x,-z
-x,-y,z
-y,x,-z
x,1/2-y,1/4-z
-x,1/2+y,1/4-z
-y,1/2-x,1/4+z
y,1/2+x,1/4+z
1/2+x,1/2+y,1/2+z
1/2+y,1/2-x,1/2-z
1/2-x,1/2-y,1/2+z
1/2-y,1/2+x,1/2-z
1/2+x,-y,3/4-z
1/2-x,y,3/4-z
1/2-y,-x,3/4+z
1/2+y,x,3/4+z
loop_
_atom_site_type_symbol
_atom_site_label
_atom_site_fract_x
_atom_site_fract_y
_atom_site_fract_z
Si Si1 0.585393 0.641659 0.131835
Si Si2 0.081082 0.627685 0.256027
Si Si3 0.080318 0.556001 0.429320
Si Si4 0.789726 0.607362 0.430887
Si Si5 0.212456 0.356038 0.137779
Si Si6 0.157404 0.540292 0.997101
Si Si7 0.365688 0.506009 0.975560
O O1 0.589019 0.750000 0.125000
O O2 0.687510 0.607822 0.128041
O O3 0.560861 0.623488 0.190147
O O4 0.523284 0.614312 0.084377
O O5 0.118404 0.527810 0.244116
O O6 0.107883 0.700574 0.214313
O O7 0.121155 0.670091 0.307608
O O8 0.167966 0.493578 0.428315
O O9 0.097384 0.646546 0.400678
O O10 0.000000 0.500000 0.402849
O O11 0.036599 0.591207 0.481453
O O12 0.750000 0.634941 0.375000
O O13 0.873194 0.654103 0.463382
O O14 0.212578 0.250000 0.125000
O O15 0.260371 0.509164 0.989118
O O16 0.415421 0.587163 0.005211
#
# Coordination Sequence:
#
# PCOD9561032 Si02
#       7
#    16  16  16  16  16  16  16
#     4   9  19  38  65  88 121 163 212 261 311 383
#     4  11  24  37  59  91 124 160 211 264 324 385
#     4  10  22  36  61  83 119 163 203 258 315 379
#     4  11  23  43  60  87 129 166 211 269 324 384
#     4  11  21  38  62  87 117 166 215 256 313 392
#     4  10  21  42  64  94 124 168 220 266 324 396
#     4  10  21  41  65  95 132 170 208 271 333 392
#
# _framework density 19.351261000000001
#
# number of rings (size 3 to 8) (size 9 to 14) (size 15 to 20)
#    0.000    1.714    1.429    3.000    6.000    0.000 
#   10.286    2.143    0.000    0.000    0.000    0.000 
#    0.000    0.000    0.000    0.000    0.000    0.000 
#
# Total GULP energy -311930.074039 kJ/mol
# GULP energy per Si atom -5570.179894 kJ/mol
# Density = 1.930722 g / cm^3
# Si number density = 19.351261 Si / 1000 Ang^3
#
#
#
# Elastic Constant Matrix: (Units=GPa)
#
#
# Indices 1 2 3 4 5 6 
#
# 1 35.0223 -20.7234 6.8199 0.0000 0.0000 0.0000
# 2 -20.7234 35.0223 6.8199 0.0000 0.0000 0.0000
# 3 6.8199 6.8199 105.5902 0.0000 0.0000 0.0000
# 4 0.0000 0.0000 0.0000 23.1863 0.0000 0.0000
# 5 0.0000 0.0000 0.0000 0.0000 23.1863 0.0000
# 6 0.0000 0.0000 0.0000 0.0000 0.0000 22.7395
#
#
#
# Elastic Compliance Matrix: (Units=1/GPa)
#
#
# Indices 1 2 3 4 5 6 
#
# 1 0.046233 0.028294 -0.004814 0.000000 0.000000 0.000000
# 2 0.028294 0.046233 -0.004814 0.000000 0.000000 0.000000
# 3 -0.004814 -0.004814 0.010092 0.000000 0.000000 0.000000
# 4 0.000000 0.000000 0.000000 0.043129 0.000000 0.000000
# 5 0.000000 0.000000 0.000000 0.000000 0.043129 0.000000
# 6 0.000000 0.000000 0.000000 0.000000 0.000000 0.043976
#
#
# Mechanical properties :
#
#
# Convention : Reuss Voigt Hill
#
# Bulk Modulus (GPa) = 7.14835 17.94086 12.54460
# Shear Modulus (GPa) = 20.65358 26.00368 23.32863
#
# Velocity S-wave (km/s) = 3.27050 3.66973 3.47585
# Velocity P-wave (km/s) = 4.23834 5.21988 4.75451
#
# Compressibility (1/GPa) = 0.13989245
#
# Stress axis : x y z
#
# Youngs Moduli (GPa) = 21.62961 21.62961 99.08462
#
# Poissons Ratio (x) = -0.61200 0.47696
# Poissons Ratio (y) = -0.61200 0.47696
# Poissons Ratio (z) = 0.10412 0.10412
#
# Static dielectric constant tensor:
#      x y z
#    x 1.651800 0.000000 0.000000 
#    y 0.000000 1.651800 0.000000 
#    z 0.000000 0.000000 1.805030 
# 
# From -- ./inp_files/8110.got.cif
#   From: 2010.05.17/outbox.cif.g08.bks.cpg/sg122_5_cif.got.tgz:8110.got - 2010.05.20 11:37:33.
