data_PCOD9561049
_publ_section_title
;
Structure prediction by ZEFSAII (Michael W. Deem and Ramdas Pophale) SiO2 
 PCOD9561049
Probable space group: I -4 2 D
;
_chemical_formula_sum "Si O2"
_cell_formula_units_Z 112
_cell_length_a 31.606666
_cell_length_b 31.606666
_cell_length_c 5.254013
_cell_angle_alpha 90.000000
_cell_angle_beta 90.000000
_cell_angle_gamma 90.000000
_cell_volume 5248.660924
_symmetry_space_group_name_H-M "I -4 2 D"
_symmetry_group_IT_number 122
_symmetry_cell_setting 'tetragonal'
loop_
_space_group_symop_operation_xyz
x,y,z
y,-x,-z
-x,-y,z
-y,x,-z
x,1/2-y,1/4-z
-x,1/2+y,1/4-z
-y,1/2-x,1/4+z
y,1/2+x,1/4+z
1/2+x,1/2+y,1/2+z
1/2+y,1/2-x,1/2-z
1/2-x,1/2-y,1/2+z
1/2-y,1/2+x,1/2-z
1/2+x,-y,3/4-z
1/2-x,y,3/4-z
1/2-y,-x,3/4+z
1/2+y,x,3/4+z
loop_
_atom_site_type_symbol
_atom_site_label
_atom_site_fract_x
_atom_site_fract_y
_atom_site_fract_z
Si Si1 0.394702 0.250000 0.625000
Si Si2 0.071608 0.794363 0.543845
Si Si3 0.150700 0.307257 0.508645
Si Si4 0.250000 0.721986 0.875000
Si Si5 0.507362 0.130916 0.222111
Si Si6 0.436288 0.297711 0.999740
Si Si7 0.428232 0.003189 0.770221
Si Si8 0.374853 0.793382 0.707932
O O1 0.364262 0.232136 0.838084
O O2 0.425999 0.212992 0.541699
O O3 0.048041 0.750000 0.625000
O O4 0.087638 0.792810 0.253124
O O5 0.048163 0.838972 0.561800
O O6 0.108731 0.793669 0.754890
O O7 0.191249 0.290569 0.659649
O O8 0.108174 0.317011 0.657089
O O9 0.166632 0.345730 0.340995
O O10 0.254225 0.750000 0.625000
O O11 0.471472 0.167260 0.227198
O O12 0.506745 0.100837 0.473931
O O13 0.502428 0.101868 0.975156
O O14 0.443044 0.250000 0.125000
O O15 0.457462 0.960935 0.761845
O O16 0.351731 0.750000 0.625000
#
# Coordination Sequence:
#
# PCOD9561049 Si02
#       8
#     8  16  16   8  16  16  16  16
#     4  10  21  44  60  92 140 178 216 300 350 382
#     4  10  23  44  63  98 142 174 223 288 339 401
#     4  11  23  40  61  91 132 180 233 284 345 386
#     4  12  25  38  62  90 128 184 244 290 330 410
#     4  12  25  45  78 108 127 185 233 263 347 442
#     4  10  24  42  66  98 141 180 222 298 350 396
#     4  11  27  51  74 104 147 176 217 288 352 419
#     4  10  23  40  62  90 134 185 225 281 339 387
#
# _framework density 21.338777
#
# number of rings (size 3 to 8) (size 9 to 14) (size 15 to 20)
#    0.000    1.286    2.143    3.000    6.000    6.286 
#    3.857    0.000    0.000    0.000    0.000    0.000 
#    0.000    0.000    0.000    0.000    0.000    0.000 
#
# Total GULP energy -312281.634803 kJ/mol
# GULP energy per Si atom -5576.457764 kJ/mol
# Density = 2.129021 g / cm^3
# Si number density = 21.338777 Si / 1000 Ang^3
#
#
#
# Elastic Constant Matrix: (Units=GPa)
#
#
# Indices 1 2 3 4 5 6 
#
# 1 104.6387 47.3211 42.8328 0.0000 0.0000 0.0000
# 2 47.3211 104.6387 42.8328 0.0000 0.0000 0.0000
# 3 42.8328 42.8328 121.4844 0.0000 0.0000 0.0000
# 4 0.0000 0.0000 0.0000 29.2458 0.0000 0.0000
# 5 0.0000 0.0000 0.0000 0.0000 29.2458 0.0000
# 6 0.0000 0.0000 0.0000 0.0000 0.0000 37.3855
#
#
#
# Elastic Compliance Matrix: (Units=1/GPa)
#
#
# Indices 1 2 3 4 5 6 
#
# 1 0.012830 -0.004617 -0.002896 0.000000 0.000000 0.000000
# 2 -0.004617 0.012830 -0.002896 0.000000 0.000000 0.000000
# 3 -0.002896 -0.002896 0.010273 0.000000 0.000000 0.000000
# 4 0.000000 0.000000 0.000000 0.034193 0.000000 0.000000
# 5 0.000000 0.000000 0.000000 0.000000 0.034193 0.000000
# 6 0.000000 0.000000 0.000000 0.000000 0.000000 0.026748
#
#
# Mechanical properties :
#
#
# Convention : Reuss Voigt Hill
#
# Bulk Modulus (GPa) = 66.15215 66.30391 66.22803
# Shear Modulus (GPa) = 31.86276 32.36043 32.11160
#
# Velocity S-wave (km/s) = 3.86837 3.89846 3.88344
# Velocity P-wave (km/s) = 7.14287 7.16962 7.15626
#
# Compressibility (1/GPa) = 0.01511667
#
# Stress axis : x y z
#
# Youngs Moduli (GPa) = 77.94292 77.94292 97.33789
#
# Poissons Ratio (x) = 0.35984 0.28187
# Poissons Ratio (y) = 0.35984 0.28187
# Poissons Ratio (z) = 0.22571 0.22571
#
# Static dielectric constant tensor:
#      x y z
#    x 1.810380 0.000000 0.000000 
#    y 0.000000 1.810380 0.000000 
#    z 0.000000 0.000000 1.803800 
# 
# From -- ./inp_files/1572.got.cif
#   From: 2010.05.17/outbox.cif.g08.bks.cpg/sg122_1_cif.got.tgz:1572.got - 2010.05.20 11:37:33.
