data_PCOD9561846
_publ_section_title
;
Structure prediction by ZEFSAII (Michael W. Deem and Ramdas Pophale) SiO2 
 PCOD9561846
Probable space group: P 4/M M M
;
_chemical_formula_sum "Si O2"
_cell_formula_units_Z 104
_cell_length_a 27.152535
_cell_length_b 27.152535
_cell_length_c 7.871245
_cell_angle_alpha 90.000000
_cell_angle_beta 90.000000
_cell_angle_gamma 90.000000
_cell_volume 5803.155324
_symmetry_space_group_name_H-M "P 4/M M M"
_symmetry_group_IT_number 123
_symmetry_cell_setting 'tetragonal'
loop_
_space_group_symop_operation_xyz
x,y,z
-y,x,z
-x,-y,z
y,-x,z
x,-y,-z
-x,y,-z
y,x,-z
-y,-x,-z
-x,-y,-z
y,-x,-z
x,y,-z
-y,x,-z
-x,y,z
x,-y,z
-y,-x,z
y,x,z
loop_
_atom_site_type_symbol
_atom_site_label
_atom_site_fract_x
_atom_site_fract_y
_atom_site_fract_z
Si Si1 0.055276 0.500000 0.203199
Si Si2 0.241923 0.446200 0.802217
Si Si3 0.743373 0.335544 0.795994
Si Si4 0.134686 0.422798 0.299851
Si Si5 0.945068 0.133741 0.794276
Si Si6 0.688977 0.853517 0.295858
Si Si7 0.752678 0.944827 0.702297
O O1 0.086285 0.453234 0.262318
O O2 0.000000 0.500000 0.269700
O O3 0.054091 0.500000 0.000000
O O4 0.256896 0.500000 0.728600
O O5 0.257389 0.392355 0.729580
O O6 0.182552 0.443775 0.793271
O O7 0.256911 0.446569 0.000000
O O8 0.699485 0.300516 0.732164
O O9 0.796593 0.310359 0.762174
O O10 0.739029 0.338968 0.000000
O O11 0.145858 0.425905 0.500000
O O12 0.128909 0.366061 0.252918
O O13 0.903179 0.096822 0.733194
O O14 0.938647 0.189190 0.730551
O O15 0.000000 0.117066 0.745124
O O16 0.943274 0.135123 0.000000
O O17 0.694315 0.851613 0.500000
O O18 0.725471 0.895970 0.229545
O O19 0.742908 0.946235 0.500000
O O20 0.739235 0.000000 0.769353
#
# Coordination Sequence:
#
# PCOD9561846 Si02
#       7
#     8  16  16  16  16  16  16
#     4  11  23  35  45  61  89 121 151 189 238 285
#     4   9  16  28  48  68  89 121 156 190 231 278
#     4   9  18  31  46  68  98 127 156 193 235 280
#     4  10  19  31  48  68  88 112 150 196 234 274
#     4   9  18  32  49  69  91 113 139 174 217 266
#     4   9  19  33  49  69  91 120 155 190 233 280
#     4   9  18  33  50  66  87 116 149 185 224 268
#
# _framework density 17.921284
#
# number of rings (size 3 to 8) (size 9 to 14) (size 15 to 20)
#    0.000    2.692    0.769    0.692    0.000    3.846 
#    0.000    5.385    0.000    1.846    0.000    2.154 
#    0.000    0.308    0.000    4.308    0.000    0.000 
#
# Total GULP energy -579232.833952 kJ/mol
# GULP energy per Si atom -5569.546480 kJ/mol
# Density = 1.788049 g / cm^3
# Si number density = 17.921284 Si / 1000 Ang^3
#
#
#
# Elastic Constant Matrix: (Units=GPa)
#
#
# Indices 1 2 3 4 5 6 
#
# 1 113.2001 82.3778 7.0213 0.0000 0.0000 0.0000
# 2 82.3778 113.2001 7.0213 0.0000 0.0000 0.0000
# 3 7.0213 7.0213 16.5200 0.0000 0.0000 0.0000
# 4 0.0000 0.0000 0.0000 11.7533 0.0000 0.0000
# 5 0.0000 0.0000 0.0000 0.0000 11.7533 0.0000
# 6 0.0000 0.0000 0.0000 0.0000 0.0000 -993.1190
#
#
#
# Elastic Compliance Matrix: (Units=1/GPa)
#
#
# Indices 1 2 3 4 5 6 
#
# 1 0.018859 -0.013585 -0.002242 0.000000 0.000000 0.000000
# 2 -0.013585 0.018859 -0.002242 0.000000 0.000000 0.000000
# 3 -0.002242 -0.002242 0.062438 0.000000 0.000000 0.000000
# 4 0.000000 0.000000 0.000000 0.085083 0.000000 0.000000
# 5 0.000000 0.000000 0.000000 0.000000 0.085083 0.000000
# 6 0.000000 0.000000 0.000000 0.000000 0.000000 -0.001007
#
#
# Mechanical properties :
#
#
# Convention : Reuss Voigt Hill
#
# Bulk Modulus (GPa) = 15.62012 48.41789 32.01901
# Shear Modulus (GPa) = 15.30030 -184.15584 -84.42777
#
# Velocity S-wave (km/s) = 2.92507 -10.14797 -6.87114
# Velocity P-wave (km/s) = 4.48809 10.49918 6.71155
#
# Compressibility (1/GPa) = 0.06402000
#
# Stress axis : x y z
#
# Youngs Moduli (GPa) = 53.02506 53.02506 16.01583
#
# Poissons Ratio (x) = 0.72035 0.03590
# Poissons Ratio (y) = 0.72035 0.03590
# Poissons Ratio (z) = 0.11886 0.11886
#
# Static dielectric constant tensor:
#      x y z
#    x 1.620710 0.000000 0.000000 
#    y 0.000000 1.620710 0.000000 
#    z 0.000000 0.000000 1.664870 
# 
# From -- ./inp_files/1912.got.cif
#   From: 2010.05.17/outbox.cif.g08.bks.cpg/sg123_1_cif.got.tgz:1912.got - 2010.05.20 11:43:04.
