data_PCOD9561127
_publ_section_title
;
Structure prediction by ZEFSAII (Michael W. Deem and Ramdas Pophale) SiO2 
 PCOD9561127
Probable space group: I -4 2 D
;
_chemical_formula_sum "Si O2"
_cell_formula_units_Z 56
_cell_length_a 14.481901
_cell_length_b 14.481901
_cell_length_c 11.249314
_cell_angle_alpha 90.000000
_cell_angle_beta 90.000000
_cell_angle_gamma 90.000000
_cell_volume 2359.267515
_symmetry_space_group_name_H-M "I -4 2 D"
_symmetry_group_IT_number 122
_symmetry_cell_setting 'tetragonal'
loop_
_space_group_symop_operation_xyz
x,y,z
y,-x,-z
-x,-y,z
-y,x,-z
x,1/2-y,1/4-z
-x,1/2+y,1/4-z
-y,1/2-x,1/4+z
y,1/2+x,1/4+z
1/2+x,1/2+y,1/2+z
1/2+y,1/2-x,1/2-z
1/2-x,1/2-y,1/2+z
1/2-y,1/2+x,1/2-z
1/2+x,-y,3/4-z
1/2-x,y,3/4-z
1/2-y,-x,3/4+z
1/2+y,x,3/4+z
loop_
_atom_site_type_symbol
_atom_site_label
_atom_site_fract_x
_atom_site_fract_y
_atom_site_fract_z
Si Si1 0.637136 0.179743 0.239093
Si Si2 0.165247 0.250000 0.125000
Si Si3 0.605412 0.474769 0.822476
Si Si4 0.828462 0.359538 0.136729
O O1 0.675563 0.273815 0.299816
O O2 0.618299 0.117169 0.351634
O O3 0.553932 0.161577 0.145139
O O4 0.728032 0.143399 0.174132
O O5 0.115932 0.310344 0.225835
O O6 0.500000 0.500000 0.831840
O O7 0.624419 0.441118 0.688173
O O8 0.862126 0.250000 0.125000
#
# Coordination Sequence:
#
# PCOD9561127 Si02
#       4
#    16   8  16  16
#     4  11  20  37  71 114 154 193 260 319 395 471
#     4  10  22  44  70 112 146 216 254 328 396 480
#     4  12  22  40  72 121 155 198 260 338 398 474
#     4  10  22  41  71 112 151 207 260 319 401 481
#
# _framework density 23.736180000000001
#
# number of rings (size 3 to 8) (size 9 to 14) (size 15 to 20)
#    0.000    1.143    8.571    0.000    0.000    6.857 
#    0.000    0.000   15.714    1.714   14.857    0.000 
#    0.000    0.000    0.000    0.000    0.000    0.000 
#
# Total GULP energy -156056.434690 kJ/mol
# GULP energy per Si atom -5573.444096 kJ/mol
# Density = 2.368216 g / cm^3
# Si number density = 23.736180 Si / 1000 Ang^3
#
#
#
# Elastic Constant Matrix: (Units=GPa)
#
#
# Indices 1 2 3 4 5 6 
#
# 1 49.3428 2.4920 23.1010 0.0000 0.0000 0.0000
# 2 2.4920 49.3428 23.1010 0.0000 0.0000 0.0000
# 3 23.1010 23.1010 111.6211 0.0000 0.0000 0.0000
# 4 0.0000 0.0000 0.0000 37.7734 0.0000 0.0000
# 5 0.0000 0.0000 0.0000 0.0000 37.7734 0.0000
# 6 0.0000 0.0000 0.0000 0.0000 0.0000 15.7673
#
#
#
# Elastic Compliance Matrix: (Units=1/GPa)
#
#
# Indices 1 2 3 4 5 6 
#
# 1 0.022500 0.001156 -0.004896 0.000000 0.000000 0.000000
# 2 0.001156 0.022500 -0.004896 0.000000 0.000000 0.000000
# 3 -0.004896 -0.004896 0.010985 0.000000 0.000000 0.000000
# 4 0.000000 0.000000 0.000000 0.026474 0.000000 0.000000
# 5 0.000000 0.000000 0.000000 0.000000 0.026474 0.000000
# 6 0.000000 0.000000 0.000000 0.000000 0.000000 0.063422
#
#
# Mechanical properties :
#
#
# Convention : Reuss Voigt Hill
#
# Bulk Modulus (GPa) = 25.83059 34.18831 30.00945
# Shear Modulus (GPa) = 24.68754 29.03700 26.86227
#
# Velocity S-wave (km/s) = 3.22853 3.50140 3.36773
# Velocity P-wave (km/s) = 4.98035 5.54807 5.27186
#
# Compressibility (1/GPa) = 0.03871379
#
# Stress axis : x y z
#
# Youngs Moduli (GPa) = 44.44433 44.44433 91.03056
#
# Poissons Ratio (x) = -0.05136 0.44566
# Poissons Ratio (y) = -0.05136 0.44566
# Poissons Ratio (z) = 0.21759 0.21759
#
# Static dielectric constant tensor:
#      x y z
#    x 1.931490 0.000000 0.000000 
#    y 0.000000 1.931490 0.000000 
#    z 0.000000 0.000000 2.012090 
# 
# From -- ./inp_files/3922.got.cif
#   From: 2010.05.17/outbox.cif.g08.bks.cpg/sg122_2_cif.got.tgz:3922.got - 2010.05.20 11:37:33.
