data_PCOD9561259
_publ_section_title
;
Structure prediction by ZEFSAII (Michael W. Deem and Ramdas Pophale) SiO2 
 PCOD9561259
Probable space group: I -4 2 D
;
_chemical_formula_sum "Si O2"
_cell_formula_units_Z 44
_cell_length_a 12.399151
_cell_length_b 12.399151
_cell_length_c 15.176784
_cell_angle_alpha 90.000000
_cell_angle_beta 90.000000
_cell_angle_gamma 90.000000
_cell_volume 2333.262769
_symmetry_space_group_name_H-M "I -4 2 D"
_symmetry_group_IT_number 122
_symmetry_cell_setting 'tetragonal'
loop_
_space_group_symop_operation_xyz
x,y,z
y,-x,-z
-x,-y,z
-y,x,-z
x,1/2-y,1/4-z
-x,1/2+y,1/4-z
-y,1/2-x,1/4+z
y,1/2+x,1/4+z
1/2+x,1/2+y,1/2+z
1/2+y,1/2-x,1/2-z
1/2-x,1/2-y,1/2+z
1/2-y,1/2+x,1/2-z
1/2+x,-y,3/4-z
1/2-x,y,3/4-z
1/2-y,-x,3/4+z
1/2+y,x,3/4+z
loop_
_atom_site_type_symbol
_atom_site_label
_atom_site_fract_x
_atom_site_fract_y
_atom_site_fract_z
Si Si1 0.629757 0.073767 0.197270
Si Si2 0.627999 0.126480 0.603081
Si Si3 0.000000 0.500000 0.540809
Si Si4 0.000000 0.500000 0.250000
O O1 0.551550 0.131573 0.268695
O O2 0.748265 0.114330 0.177238
O O3 0.564122 0.078589 0.106099
O O4 0.605236 0.250000 0.625000
O O5 0.558638 0.084827 0.521102
O O6 0.590274 0.053617 0.686363
#
# Coordination Sequence:
#
# PCOD9561259 Si02
#       4
#    16  16   8   4
#     4   9  21  38  60  90 120 151 200 250 297 362
#     4  11  22  37  64  85 119 167 195 251 310 357
#     4   9  21  39  55  84 124 148 199 253 283 363
#     4  10  24  44  54  92 126 152 218 248 292 390
#
# _framework density 18.857711999999999
#
# number of rings (size 3 to 8) (size 9 to 14) (size 15 to 20)
#    0.000    2.545    0.000    2.182    5.091    4.364 
#    0.000    0.000    0.000    0.000    0.000    0.000 
#    0.000    0.000    0.000    0.000    0.000    0.000 
#
# Total GULP energy -122632.365393 kJ/mol
# GULP energy per Si atom -5574.198427 kJ/mol
# Density = 1.881479 g / cm^3
# Si number density = 18.857712 Si / 1000 Ang^3
#
#
#
# Elastic Constant Matrix: (Units=GPa)
#
#
# Indices 1 2 3 4 5 6 
#
# 1 79.2147 36.1170 38.9132 0.0000 0.0000 0.0000
# 2 36.1170 79.2147 38.9132 0.0000 0.0000 0.0000
# 3 38.9132 38.9132 119.2007 0.0000 0.0000 0.0000
# 4 0.0000 0.0000 0.0000 297.4371 0.0001 0.0000
# 5 0.0000 0.0000 0.0000 0.0001 297.4369 0.0000
# 6 0.0000 0.0000 0.0000 0.0000 0.0000 25.2275
#
#
#
# Elastic Compliance Matrix: (Units=1/GPa)
#
#
# Indices 1 2 3 4 5 6 
#
# 1 0.017162 -0.006041 -0.003630 0.000000 0.000000 0.000000
# 2 -0.006041 0.017162 -0.003630 0.000000 0.000000 0.000000
# 3 -0.003630 -0.003630 0.010759 0.000000 0.000000 0.000000
# 4 0.000000 0.000000 0.000000 0.003362 0.000000 0.000000
# 5 0.000000 0.000000 0.000000 0.000000 0.003362 0.000000
# 6 0.000000 0.000000 0.000000 0.000000 0.000000 0.039639
#
#
# Mechanical properties :
#
#
# Convention : Reuss Voigt Hill
#
# Bulk Modulus (GPa) = 54.11514 56.16855 55.14184
# Shear Modulus (GPa) = 40.25447 134.93273 87.59360
#
# Velocity S-wave (km/s) = 4.62523 8.46808 6.82280
# Velocity P-wave (km/s) = 7.56852 11.20095 9.55887
#
# Compressibility (1/GPa) = 0.01847912
#
# Stress axis : x y z
#
# Youngs Moduli (GPa) = 58.26920 58.26920 92.94177
#
# Poissons Ratio (x) = 0.35202 0.33740
# Poissons Ratio (y) = 0.35202 0.33740
# Poissons Ratio (z) = 0.21153 0.21153
#
# Static dielectric constant tensor:
#      x y z
#    x 1.476680 0.000000 0.000000 
#    y 0.000000 1.476680 0.000000 
#    z 0.000000 0.000000 1.641510 
# 
# From -- ./inp_files/5812.got.cif
#   From: 2010.05.17/outbox.cif.g08.bks.cpg/sg122_3_cif.got.tgz:5812.got - 2010.05.20 11:37:33.
