data_PCOD9561578
_publ_section_title
;
Structure prediction by ZEFSAII (Michael W. Deem and Ramdas Pophale) SiO2 
 PCOD9561578
Probable space group: I -4 2 D
;
_chemical_formula_sum "Si O2"
_cell_formula_units_Z 32
_cell_length_a 13.854780
_cell_length_b 13.854780
_cell_length_c 7.227427
_cell_angle_alpha 90.000000
_cell_angle_beta 90.000000
_cell_angle_gamma 90.000000
_cell_volume 1387.340236
_symmetry_space_group_name_H-M "I -4 2 D"
_symmetry_group_IT_number 122
_symmetry_cell_setting 'tetragonal'
loop_
_space_group_symop_operation_xyz
x,y,z
y,-x,-z
-x,-y,z
-y,x,-z
x,1/2-y,1/4-z
-x,1/2+y,1/4-z
-y,1/2-x,1/4+z
y,1/2+x,1/4+z
1/2+x,1/2+y,1/2+z
1/2+y,1/2-x,1/2-z
1/2-x,1/2-y,1/2+z
1/2-y,1/2+x,1/2-z
1/2+x,-y,3/4-z
1/2-x,y,3/4-z
1/2-y,-x,3/4+z
1/2+y,x,3/4+z
loop_
_atom_site_type_symbol
_atom_site_label
_atom_site_fract_x
_atom_site_fract_y
_atom_site_fract_z
Si Si1 0.559820 0.254149 0.907017
Si Si2 0.680682 0.146690 0.630306
O O1 0.611125 0.162912 0.805750
O O2 0.446864 0.244203 0.860408
O O3 0.656668 0.887138 0.052791
O O4 0.565070 0.250000 0.125000
O O5 0.735919 0.250000 0.625000
#
# Coordination Sequence:
#
# PCOD9561578 Si02
#       2
#    16  16
#     4   9  19  39  59  86 122 159 200 257 311 362
#     4   8  21  37  57  87 119 154 207 250 303 379
#
# _framework density 23.065719999999999
#
# number of rings (size 3 to 8) (size 9 to 14) (size 15 to 20)
#    3.000    0.000    0.000    0.000    0.000    9.000 
#    9.000    0.000    0.000    0.000    0.000    0.000 
#    0.000    0.000    0.000    0.000    0.000    0.000 
#
# Total GULP energy -89137.345318 kJ/mol
# GULP energy per Si atom -5571.084082 kJ/mol
# Density = 2.301322 g / cm^3
# Si number density = 23.065720 Si / 1000 Ang^3
#
#
#
# Elastic Constant Matrix: (Units=GPa)
#
#
# Indices 1 2 3 4 5 6 
#
# 1 82.6772 26.7893 4.4189 0.0000 0.0000 0.0000
# 2 26.7893 82.6772 4.4189 0.0000 0.0000 0.0000
# 3 4.4189 4.4189 185.2882 0.0000 0.0000 0.0000
# 4 0.0000 0.0000 0.0000 25.7939 0.0000 0.0000
# 5 0.0000 0.0000 0.0000 0.0000 25.7939 0.0000
# 6 0.0000 0.0000 0.0000 0.0000 0.0000 -83.4963
#
#
#
# Elastic Compliance Matrix: (Units=1/GPa)
#
#
# Indices 1 2 3 4 5 6 
#
# 1 0.013523 -0.004370 -0.000218 0.000000 0.000000 0.000000
# 2 -0.004370 0.013523 -0.000218 0.000000 0.000000 0.000000
# 3 -0.000218 -0.000218 0.005407 0.000000 0.000000 0.000000
# 4 0.000000 0.000000 0.000000 0.038769 0.000000 0.000000
# 5 0.000000 0.000000 0.000000 0.000000 0.038769 0.000000
# 6 0.000000 0.000000 0.000000 0.000000 0.000000 -0.011977
#
#
# Mechanical properties :
#
#
# Convention : Reuss Voigt Hill
#
# Bulk Modulus (GPa) = 43.78294 46.87743 45.33019
# Shear Modulus (GPa) = 43.38732 14.61931 29.00332
#
# Velocity S-wave (km/s) = 4.34179 2.52029 3.54986
# Velocity P-wave (km/s) = 6.64514 5.36998 6.04130
#
# Compressibility (1/GPa) = 0.02283995
#
# Stress axis : x y z
#
# Youngs Moduli (GPa) = 73.94860 73.94860 184.93141
#
# Poissons Ratio (x) = 0.32316 0.04037
# Poissons Ratio (y) = 0.32316 0.04037
# Poissons Ratio (z) = 0.01614 0.01614
#
# Static dielectric constant tensor:
#      x y z
#    x 1.899870 0.000000 0.000000 
#    y 0.000000 1.899870 0.000000 
#    z 0.000000 0.000000 1.970060 
# 
# From -- ./inp_files/1713.got.cif
#   From: 2010.05.17/outbox.cif.g08.bks.cpg/sg122_1_cif.got.tgz:1713.got - 2010.05.20 11:37:33.
