data_PCOD9561567
_publ_section_title
;
Structure prediction by ZEFSAII (Michael W. Deem and Ramdas Pophale) SiO2 
 PCOD9561567
Probable space group: I -4 2 D
;
_chemical_formula_sum "Si O2"
_cell_formula_units_Z 48
_cell_length_a 8.901797
_cell_length_b 8.901797
_cell_length_c 24.085505
_cell_angle_alpha 90.000000
_cell_angle_beta 90.000000
_cell_angle_gamma 90.000000
_cell_volume 1908.583342
_symmetry_space_group_name_H-M "I -4 2 D"
_symmetry_group_IT_number 122
_symmetry_cell_setting 'tetragonal'
loop_
_space_group_symop_operation_xyz
x,y,z
y,-x,-z
-x,-y,z
-y,x,-z
x,1/2-y,1/4-z
-x,1/2+y,1/4-z
-y,1/2-x,1/4+z
y,1/2+x,1/4+z
1/2+x,1/2+y,1/2+z
1/2+y,1/2-x,1/2-z
1/2-x,1/2-y,1/2+z
1/2-y,1/2+x,1/2-z
1/2+x,-y,3/4-z
1/2-x,y,3/4-z
1/2-y,-x,3/4+z
1/2+y,x,3/4+z
loop_
_atom_site_type_symbol
_atom_site_label
_atom_site_fract_x
_atom_site_fract_y
_atom_site_fract_z
Si Si1 0.750000 0.283478 0.875000
Si Si2 0.663725 0.457804 0.286214
Si Si3 0.000000 0.500000 0.670271
Si Si4 0.252980 0.214232 0.441507
O O1 0.742720 0.170731 0.927194
O O2 0.609097 0.393594 0.883943
O O3 0.500000 0.500000 0.310457
O O4 0.749301 0.614201 0.288608
O O5 0.643646 0.390556 0.224934
O O6 0.114824 0.606108 0.703952
O O7 0.250000 0.216821 0.375000
#
# Coordination Sequence:
#
# PCOD9561567 Si02
#       4
#     8  16   8  16
#     4  12  28  52  86 130 184 230 304 374 450 538
#     4  12  30  52  85 126 178 231 301 376 446 538
#     4  12  28  51  88 126 176 230 300 365 446 540
#     4  12  30  51  85 126 174 235 298 365 455 531
#
# _framework density 25.149543000000001
#
# number of rings (size 3 to 8) (size 9 to 14) (size 15 to 20)
#    0.000    0.000    6.667    0.000   11.667    2.000 
#    0.000    0.000    0.000    0.000    0.000    0.000 
#    0.000    0.000    0.000    0.000    0.000    0.000 
#
# Total GULP energy -134461.789061 kJ/mol
# GULP energy per Si atom -5602.574544 kJ/mol
# Density = 2.509230 g / cm^3
# Si number density = 25.149543 Si / 1000 Ang^3
#
#
#
# Elastic Constant Matrix: (Units=GPa)
#
#
# Indices 1 2 3 4 5 6 
#
# 1 167.7487 67.5588 56.3081 0.0000 0.0000 0.0000
# 2 67.5588 167.7487 56.3081 0.0000 0.0000 0.0000
# 3 56.3081 56.3081 154.8338 0.0000 0.0000 0.0000
# 4 0.0000 0.0000 0.0000 31.4724 0.0000 0.0000
# 5 0.0000 0.0000 0.0000 0.0000 31.4724 0.0000
# 6 0.0000 0.0000 0.0000 0.0000 0.0000 56.0092
#
#
#
# Elastic Compliance Matrix: (Units=1/GPa)
#
#
# Indices 1 2 3 4 5 6 
#
# 1 0.007563 -0.002418 -0.001871 0.000000 0.000000 0.000000
# 2 -0.002418 0.007563 -0.001871 0.000000 0.000000 0.000000
# 3 -0.001871 -0.001871 0.007820 0.000000 0.000000 0.000000
# 4 0.000000 0.000000 0.000000 0.031774 0.000000 0.000000
# 5 0.000000 0.000000 0.000000 0.000000 0.031774 0.000000
# 6 0.000000 0.000000 0.000000 0.000000 0.000000 0.017854
#
#
# Mechanical properties :
#
#
# Convention : Reuss Voigt Hill
#
# Bulk Modulus (GPa) = 94.11426 94.52013 94.31720
# Shear Modulus (GPa) = 41.59386 44.46789 43.03088
#
# Velocity S-wave (km/s) = 4.07118 4.20949 4.14091
# Velocity P-wave (km/s) = 7.72026 7.82887 7.77476
#
# Compressibility (1/GPa) = 0.01062538
#
# Stress axis : x y z
#
# Youngs Moduli (GPa) = 132.21983 132.21983 127.88525
#
# Poissons Ratio (x) = 0.31969 0.23930
# Poissons Ratio (y) = 0.31969 0.23930
# Poissons Ratio (z) = 0.24741 0.24741
#
# Static dielectric constant tensor:
#      x y z
#    x 2.022190 0.000000 0.000000 
#    y 0.000000 2.022190 0.000000 
#    z 0.000000 0.000000 2.049630 
# 
# From -- ./inp_files/9132.got.cif
#   From: 2010.05.17/outbox.cif.g08.bks.cpg/sg122_5_cif.got.tgz:9132.got - 2010.05.20 11:37:33.
