data_PCOD9561384
_publ_section_title
;
Structure prediction by ZEFSAII (Michael W. Deem and Ramdas Pophale) SiO2 
 PCOD9561384
Probable space group: I -4 2 D
;
_chemical_formula_sum "Si O2"
_cell_formula_units_Z 88
_cell_length_a 14.135941
_cell_length_b 14.135941
_cell_length_c 20.031622
_cell_angle_alpha 90.000000
_cell_angle_beta 90.000000
_cell_angle_gamma 90.000000
_cell_volume 4002.815420
_symmetry_space_group_name_H-M "I -4 2 D"
_symmetry_group_IT_number 122
_symmetry_cell_setting 'tetragonal'
loop_
_space_group_symop_operation_xyz
x,y,z
y,-x,-z
-x,-y,z
-y,x,-z
x,1/2-y,1/4-z
-x,1/2+y,1/4-z
-y,1/2-x,1/4+z
y,1/2+x,1/4+z
1/2+x,1/2+y,1/2+z
1/2+y,1/2-x,1/2-z
1/2-x,1/2-y,1/2+z
1/2-y,1/2+x,1/2-z
1/2+x,-y,3/4-z
1/2-x,y,3/4-z
1/2-y,-x,3/4+z
1/2+y,x,3/4+z
loop_
_atom_site_type_symbol
_atom_site_label
_atom_site_fract_x
_atom_site_fract_y
_atom_site_fract_z
Si Si1 0.765676 0.879738 0.044090
Si Si2 0.500000 0.000000 0.369424
Si Si3 0.302067 0.242818 0.933051
Si Si4 0.986547 0.203291 0.425079
Si Si5 0.090476 0.655511 0.530525
Si Si6 0.747510 0.052326 0.951155
O O1 0.734687 0.914884 0.116588
O O2 0.856841 0.814658 0.047546
O O3 0.691861 0.817467 0.000982
O O4 0.784061 0.973000 0.001100
O O5 0.525837 0.090339 0.324095
O O6 0.411637 0.034401 0.416949
O O7 0.250000 0.184281 0.875000
O O8 0.403981 0.276528 0.908944
O O9 0.227652 0.328392 0.943338
O O10 0.970133 0.269063 0.488787
O O11 0.145254 0.584537 0.479758
O O12 0.750000 0.021142 0.875000
#
# Coordination Sequence:
#
# PCOD9561384 Si02
#       6
#    16   8  16  16  16  16
#     4  11  23  42  69 102 141 191 234 293 359 429
#     4  12  24  48  75 102 149 190 246 298 370 448
#     4  11  23  46  68  98 147 184 230 305 360 421
#     4  12  24  43  73 104 138 183 245 295 360 433
#     4  11  25  45  72 104 140 190 244 295 369 432
#     4  11  22  43  67 101 146 185 240 294 353 430
#
# _framework density 21.984525999999999
#
# number of rings (size 3 to 8) (size 9 to 14) (size 15 to 20)
#    0.000    0.727    5.455    2.727    0.000    1.818 
#    0.000    1.818    0.000    0.000    0.000    0.000 
#    0.000    0.000    0.000    0.000    0.000    0.000 
#
# Total GULP energy -245682.567795 kJ/mol
# GULP energy per Si atom -5583.694723 kJ/mol
# Density = 2.193449 g / cm^3
# Si number density = 21.984526 Si / 1000 Ang^3
#
#
#
# Elastic Constant Matrix: (Units=GPa)
#
#
# Indices 1 2 3 4 5 6 
#
# 1 107.2184 37.8236 19.0491 0.0000 0.0000 0.0000
# 2 37.8236 107.2184 19.0491 0.0000 0.0000 0.0000
# 3 19.0491 19.0491 44.8424 0.0000 0.0000 0.0000
# 4 0.0000 0.0000 0.0000 -101.1362 0.0000 0.0000
# 5 0.0000 0.0000 0.0000 0.0000 -101.1362 0.0000
# 6 0.0000 0.0000 0.0000 0.0000 0.0000 -35.0550
#
#
#
# Elastic Compliance Matrix: (Units=1/GPa)
#
#
# Indices 1 2 3 4 5 6 
#
# 1 0.011085 -0.003325 -0.003297 0.000000 0.000000 0.000000
# 2 -0.003325 0.011085 -0.003297 0.000000 0.000000 0.000000
# 3 -0.003297 -0.003297 0.025101 0.000000 0.000000 0.000000
# 4 0.000000 0.000000 0.000000 -0.009888 0.000000 0.000000
# 5 0.000000 0.000000 0.000000 0.000000 -0.009888 0.000000
# 6 0.000000 0.000000 0.000000 0.000000 0.000000 -0.028527
#
#
# Mechanical properties :
#
#
# Convention : Reuss Voigt Hill
#
# Bulk Modulus (GPa) = 36.44913 45.68031 41.06472
# Shear Modulus (GPa) = 178.87974 -35.24165 71.81904
#
# Velocity S-wave (km/s) = 9.03011 -4.00812 5.72179
# Velocity P-wave (km/s) = 11.19550 0.77234 7.89755
#
# Compressibility (1/GPa) = 0.02743550
#
# Stress axis : x y z
#
# Youngs Moduli (GPa) = 90.20873 90.20873 39.83875
#
# Poissons Ratio (x) = 0.29994 0.13134
# Poissons Ratio (y) = 0.29994 0.13134
# Poissons Ratio (z) = 0.29739 0.29739
#
# Static dielectric constant tensor:
#      x y z
#    x 1.811980 0.000000 0.000000 
#    y 0.000000 1.811980 0.000000 
#    z 0.000000 0.000000 1.946280 
# 
# From -- ./inp_files/7201.got.cif
#   From: 2010.05.17/outbox.cif.g08.bks.cpg/sg122_4_cif.got.tgz:7201.got - 2010.05.20 11:37:33.
