data_PCOD9561250
_publ_section_title
;
Structure prediction by ZEFSAII (Michael W. Deem and Ramdas Pophale) SiO2 
 PCOD9561250
Probable space group: I -4 2 D
;
_chemical_formula_sum "Si O2"
_cell_formula_units_Z 112
_cell_length_a 14.151736
_cell_length_b 14.151736
_cell_length_c 25.239725
_cell_angle_alpha 90.000000
_cell_angle_beta 90.000000
_cell_angle_gamma 90.000000
_cell_volume 5054.800912
_symmetry_space_group_name_H-M "I -4 2 D"
_symmetry_group_IT_number 122
_symmetry_cell_setting 'tetragonal'
loop_
_space_group_symop_operation_xyz
x,y,z
y,-x,-z
-x,-y,z
-y,x,-z
x,1/2-y,1/4-z
-x,1/2+y,1/4-z
-y,1/2-x,1/4+z
y,1/2+x,1/4+z
1/2+x,1/2+y,1/2+z
1/2+y,1/2-x,1/2-z
1/2-x,1/2-y,1/2+z
1/2-y,1/2+x,1/2-z
1/2+x,-y,3/4-z
1/2-x,y,3/4-z
1/2-y,-x,3/4+z
1/2+y,x,3/4+z
loop_
_atom_site_type_symbol
_atom_site_label
_atom_site_fract_x
_atom_site_fract_y
_atom_site_fract_z
Si Si1 0.112083 0.308316 0.178677
Si Si2 0.418790 0.650566 0.599055
Si Si3 0.760634 0.929135 0.639841
Si Si4 0.767994 0.384463 0.539968
Si Si5 0.463494 0.791066 0.047107
Si Si6 0.612923 0.492060 0.689087
Si Si7 0.464617 0.393649 0.097600
O O1 0.123664 0.250000 0.125000
O O2 0.211775 0.362330 0.183756
O O3 0.088800 0.241160 0.228298
O O4 0.021473 0.378728 0.173359
O O5 0.437194 0.750000 0.625000
O O6 0.336004 0.650235 0.556550
O O7 0.381119 0.594654 0.649363
O O8 0.852327 0.894322 0.608401
O O9 0.786619 0.026086 0.671132
O O10 0.676265 0.937052 0.596513
O O11 0.850382 0.306897 0.544589
O O12 0.498719 0.684034 0.055615
O O13 0.494047 0.853672 0.097331
O O14 0.509729 0.836900 0.995325
O O15 0.500000 0.500000 0.697162
O O16 0.500000 0.500000 0.086702
#
# Coordination Sequence:
#
# PCOD9561250 Si02
#       7
#    16  16  16  16  16  16  16
#     4  11  23  41  67 109 149 182 246 302 386 463
#     4  10  24  42  68 103 143 187 236 313 369 457
#     4  11  24  45  70 105 148 196 237 314 382 453
#     4  11  24  42  73 103 145 195 249 304 375 458
#     4  11  26  45  76 104 138 207 257 311 383 450
#     4  11  23  46  74 103 143 188 243 300 380 455
#     4  11  25  50  72 101 149 197 263 323 377 449
#
# _framework density 22.157153000000001
#
# number of rings (size 3 to 8) (size 9 to 14) (size 15 to 20)
#    0.000    1.143    2.857    2.143    6.000    1.143 
#    5.143    1.429    0.000    0.000    0.000    0.000 
#    0.000    0.000    0.000    0.000    0.000    0.000 
#
# Total GULP energy -312429.876678 kJ/mol
# GULP energy per Si atom -5579.104941 kJ/mol
# Density = 2.210672 g / cm^3
# Si number density = 22.157153 Si / 1000 Ang^3
#
#
#
# Elastic Constant Matrix: (Units=GPa)
#
#
# Indices 1 2 3 4 5 6 
#
# 1 130.1745 51.0549 32.9147 0.0000 0.0000 0.0000
# 2 51.0549 130.1745 32.9147 0.0000 0.0000 0.0000
# 3 32.9147 32.9147 114.1014 0.0000 0.0000 0.0000
# 4 0.0000 0.0000 0.0000 1.8948 0.0000 0.0000
# 5 0.0000 0.0000 0.0000 0.0000 1.8949 0.0000
# 6 0.0000 0.0000 0.0000 0.0000 0.0000 34.3287
#
#
#
# Elastic Compliance Matrix: (Units=1/GPa)
#
#
# Indices 1 2 3 4 5 6 
#
# 1 0.009401 -0.003238 -0.001778 0.000000 0.000000 0.000000
# 2 -0.003238 0.009401 -0.001778 0.000000 0.000000 0.000000
# 3 -0.001778 -0.001778 0.009790 0.000000 0.000000 0.000000
# 4 0.000000 0.000000 0.000000 0.527746 0.000000 0.000000
# 5 0.000000 0.000000 0.000000 0.000000 0.527746 0.000000
# 6 0.000000 0.000000 0.000000 0.000000 0.000000 0.029130
#
#
# Mechanical properties :
#
#
# Convention : Reuss Voigt Hill
#
# Bulk Modulus (GPa) = 66.64341 67.57987 67.11164
# Shear Modulus (GPa) = 4.41772 24.79476 14.60624
#
# Velocity S-wave (km/s) = 1.41356 3.34884 2.57030
# Velocity P-wave (km/s) = 5.72775 6.74681 6.25805
#
# Compressibility (1/GPa) = 0.01500524
#
# Stress axis : x y z
#
# Youngs Moduli (GPa) = 106.36712 106.36712 102.14552
#
# Poissons Ratio (x) = 0.34438 0.18162
# Poissons Ratio (y) = 0.34438 0.18162
# Poissons Ratio (z) = 0.18912 0.18912
#
# Static dielectric constant tensor:
#      x y z
#    x 1.915650 0.000000 0.000000 
#    y 0.000000 1.915650 0.000000 
#    z 0.000000 0.000000 1.817150 
# 
# From -- ./inp_files/8150.got.cif
#   From: 2010.05.17/outbox.cif.g08.bks.cpg/sg122_5_cif.got.tgz:8150.got - 2010.05.20 11:37:33.
