data_PCOD9561217
_publ_section_title
;
Structure prediction by ZEFSAII (Michael W. Deem and Ramdas Pophale) SiO2 
 PCOD9561217
Probable space group: I -4 2 D
;
_chemical_formula_sum "Si O2"
_cell_formula_units_Z 64
_cell_length_a 22.224441
_cell_length_b 22.224441
_cell_length_c 5.560058
_cell_angle_alpha 90.000000
_cell_angle_beta 90.000000
_cell_angle_gamma 90.000000
_cell_volume 2746.255972
_symmetry_space_group_name_H-M "I -4 2 D"
_symmetry_group_IT_number 122
_symmetry_cell_setting 'tetragonal'
loop_
_space_group_symop_operation_xyz
x,y,z
y,-x,-z
-x,-y,z
-y,x,-z
x,1/2-y,1/4-z
-x,1/2+y,1/4-z
-y,1/2-x,1/4+z
y,1/2+x,1/4+z
1/2+x,1/2+y,1/2+z
1/2+y,1/2-x,1/2-z
1/2-x,1/2-y,1/2+z
1/2-y,1/2+x,1/2-z
1/2+x,-y,3/4-z
1/2-x,y,3/4-z
1/2-y,-x,3/4+z
1/2+y,x,3/4+z
loop_
_atom_site_type_symbol
_atom_site_label
_atom_site_fract_x
_atom_site_fract_y
_atom_site_fract_z
Si Si1 0.611352 0.393487 0.958401
Si Si2 0.910913 0.510539 0.308099
Si Si3 0.178627 0.493497 0.919008
Si Si4 0.721286 0.678481 0.127679
O O1 0.561020 0.406163 0.758264
O O2 0.645459 0.456664 0.001057
O O3 0.662930 0.348829 0.864517
O O4 0.572618 0.349390 0.128874
O O5 0.952360 0.454042 0.381473
O O6 0.848052 0.492333 0.185418
O O7 0.250000 0.495007 0.875000
O O8 0.730036 0.750000 0.125000
O O9 0.750000 0.653360 0.375000
O O10 0.750000 0.657507 0.875000
#
# Coordination Sequence:
#
# PCOD9561217 Si02
#       4
#    16  16  16  16
#     4  11  23  39  64  91 133 172 223 287 348 413
#     4   9  20  39  61  90 128 171 215 272 344 414
#     4  11  24  40  63  95 127 169 230 281 351 418
#     4  10  23  43  68  96 132 183 234 288 354 418
#
# _framework density 23.304455000000001
#
# number of rings (size 3 to 8) (size 9 to 14) (size 15 to 20)
#    0.000    1.750    0.000    3.000    7.000    2.500 
#    0.000    0.000    0.000    0.000    0.000    0.000 
#    0.000    0.000    0.000    0.000    0.000    0.000 
#
# Total GULP energy -178214.106871 kJ/mol
# GULP energy per Si atom -5569.190840 kJ/mol
# Density = 2.325141 g / cm^3
# Si number density = 23.304455 Si / 1000 Ang^3
#
#
#
# Elastic Constant Matrix: (Units=GPa)
#
#
# Indices 1 2 3 4 5 6 
#
# 1 121.2490 47.4459 35.0101 0.0000 0.0000 0.0000
# 2 47.4459 121.2490 35.0101 0.0000 0.0000 0.0000
# 3 35.0101 35.0101 57.3804 0.0000 0.0000 0.0000
# 4 0.0000 0.0000 0.0000 14.6133 0.0000 0.0000
# 5 0.0000 0.0000 0.0000 0.0000 14.6133 0.0000
# 6 0.0000 0.0000 0.0000 0.0000 0.0000 40.7337
#
#
#
# Elastic Compliance Matrix: (Units=1/GPa)
#
#
# Indices 1 2 3 4 5 6 
#
# 1 0.010744 -0.002806 -0.004843 0.000000 0.000000 0.000000
# 2 -0.002806 0.010744 -0.004843 0.000000 0.000000 0.000000
# 3 -0.004843 -0.004843 0.023338 0.000000 0.000000 0.000000
# 4 0.000000 0.000000 0.000000 0.068431 0.000000 0.000000
# 5 0.000000 0.000000 0.000000 0.000000 0.068431 0.000000
# 6 0.000000 0.000000 0.000000 0.000000 0.000000 0.024550
#
#
# Mechanical properties :
#
#
# Convention : Reuss Voigt Hill
#
# Bulk Modulus (GPa) = 50.40164 59.42339 54.91252
# Shear Modulus (GPa) = 21.02289 26.15287 23.58788
#
# Velocity S-wave (km/s) = 3.00675 3.35360 3.18490
# Velocity P-wave (km/s) = 5.80762 6.36786 6.09418
#
# Compressibility (1/GPa) = 0.01984062
#
# Stress axis : x y z
#
# Youngs Moduli (GPa) = 93.07611 93.07611 42.84878
#
# Poissons Ratio (x) = 0.26114 0.20753
# Poissons Ratio (y) = 0.26114 0.20753
# Poissons Ratio (z) = 0.45081 0.45081
#
# Static dielectric constant tensor:
#      x y z
#    x 1.901940 0.000000 0.000000 
#    y 0.000000 1.901940 0.000000 
#    z 0.000000 0.000000 2.022230 
# 
# From -- ./inp_files/1065.got.cif
#   From: 2010.05.17/outbox.cif.g08.bks.cpg/sg122_1_cif.got.tgz:1065.got - 2010.05.20 11:37:33.
