data_PCOD9561483
_publ_section_title
;
Structure prediction by ZEFSAII (Michael W. Deem and Ramdas Pophale) SiO2 
 PCOD9561483
Probable space group: I -4 2 D
;
_chemical_formula_sum "Si O2"
_cell_formula_units_Z 36
_cell_length_a 10.941935
_cell_length_b 10.941935
_cell_length_c 13.269347
_cell_angle_alpha 90.000000
_cell_angle_beta 90.000000
_cell_angle_gamma 90.000000
_cell_volume 1588.685063
_symmetry_space_group_name_H-M "I -4 2 D"
_symmetry_group_IT_number 122
_symmetry_cell_setting 'tetragonal'
loop_
_space_group_symop_operation_xyz
x,y,z
y,-x,-z
-x,-y,z
-y,x,-z
x,1/2-y,1/4-z
-x,1/2+y,1/4-z
-y,1/2-x,1/4+z
y,1/2+x,1/4+z
1/2+x,1/2+y,1/2+z
1/2+y,1/2-x,1/2-z
1/2-x,1/2-y,1/2+z
1/2-y,1/2+x,1/2-z
1/2+x,-y,3/4-z
1/2-x,y,3/4-z
1/2-y,-x,3/4+z
1/2+y,x,3/4+z
loop_
_atom_site_type_symbol
_atom_site_label
_atom_site_fract_x
_atom_site_fract_y
_atom_site_fract_z
Si Si1 0.721059 0.812688 0.524347
Si Si2 0.500000 0.000000 0.750000
Si Si3 0.230937 0.932269 0.140559
O O1 0.672122 0.750000 0.625000
O O2 0.824704 0.727915 0.473593
O O3 0.616034 0.826853 0.441789
O O4 0.769269 0.943953 0.555878
O O5 0.608118 0.045924 0.675319
#
# Coordination Sequence:
#
# PCOD9561483 Si02
#       3
#    16   4  16
#     4  11  26  48  72 110 144 195 248 306 364 444
#     4  12  24  48  80 100 154 196 244 300 356 472
#     4  11  27  46  72 109 147 193 246 303 375 429
#
# _framework density 22.660249
#
# number of rings (size 3 to 8) (size 9 to 14) (size 15 to 20)
#    0.000    0.889    4.444    0.000   12.444    0.889 
#    0.000    0.000    0.000    0.000    0.000    0.000 
#    0.000    0.000    0.000    0.000    0.000    0.000 
#
# Total GULP energy -100601.127523 kJ/mol
# GULP energy per Si atom -5588.951529 kJ/mol
# Density = 2.260867 g / cm^3
# Si number density = 22.660249 Si / 1000 Ang^3
#
#
#
# Elastic Constant Matrix: (Units=GPa)
#
#
# Indices 1 2 3 4 5 6 
#
# 1 96.4383 15.6736 41.5987 0.0000 0.0000 0.0000
# 2 15.6736 96.4383 41.5987 0.0000 0.0000 0.0000
# 3 41.5987 41.5987 129.4499 0.0000 0.0000 0.0000
# 4 0.0000 0.0000 0.0000 30.5197 0.0000 0.0000
# 5 0.0000 0.0000 0.0000 0.0000 30.5197 0.0000
# 6 0.0000 0.0000 0.0000 0.0000 0.0000 20.7368
#
#
#
# Elastic Compliance Matrix: (Units=1/GPa)
#
#
# Indices 1 2 3 4 5 6 
#
# 1 0.012047 -0.000334 -0.003764 0.000000 0.000000 0.000000
# 2 -0.000334 0.012047 -0.003764 0.000000 0.000000 0.000000
# 3 -0.003764 -0.003764 0.010144 0.000000 0.000000 0.000000
# 4 0.000000 0.000000 0.000000 0.032766 0.000000 0.000000
# 5 0.000000 0.000000 0.000000 0.000000 0.032766 0.000000
# 6 0.000000 0.000000 0.000000 0.000000 0.000000 0.048223
#
#
# Mechanical properties :
#
#
# Convention : Reuss Voigt Hill
#
# Bulk Modulus (GPa) = 54.01299 57.78539 55.89919
# Shear Modulus (GPa) = 29.43094 31.25228 30.34161
#
# Velocity S-wave (km/s) = 3.60778 3.71774 3.66318
# Velocity P-wave (km/s) = 6.42204 6.63212 6.52792
#
# Compressibility (1/GPa) = 0.01851407
#
# Stress axis : x y z
#
# Youngs Moduli (GPa) = 83.00654 83.00654 98.57983
#
# Poissons Ratio (x) = 0.02776 0.37105
# Poissons Ratio (y) = 0.02776 0.37105
# Poissons Ratio (z) = 0.31243 0.31243
#
# Static dielectric constant tensor:
#      x y z
#    x 1.865020 0.000000 0.000000 
#    y 0.000000 1.865020 0.000000 
#    z 0.000000 0.000000 1.867980 
# 
# From -- ./inp_files/3334.got.cif
#   From: 2010.05.17/outbox.cif.g08.bks.cpg/sg122_2_cif.got.tgz:3334.got - 2010.05.20 11:37:33.
