data_PCOD9561139
_publ_section_title
;
Structure prediction by ZEFSAII (Michael W. Deem and Ramdas Pophale) SiO2 
 PCOD9561139
Probable space group: I -4 2 D
;
_chemical_formula_sum "Si O2"
_cell_formula_units_Z 72
_cell_length_a 18.892905
_cell_length_b 18.892905
_cell_length_c 9.490973
_cell_angle_alpha 90.000000
_cell_angle_beta 90.000000
_cell_angle_gamma 90.000000
_cell_volume 3387.725550
_symmetry_space_group_name_H-M "I -4 2 D"
_symmetry_group_IT_number 122
_symmetry_cell_setting 'tetragonal'
loop_
_space_group_symop_operation_xyz
x,y,z
y,-x,-z
-x,-y,z
-y,x,-z
x,1/2-y,1/4-z
-x,1/2+y,1/4-z
-y,1/2-x,1/4+z
y,1/2+x,1/4+z
1/2+x,1/2+y,1/2+z
1/2+y,1/2-x,1/2-z
1/2-x,1/2-y,1/2+z
1/2-y,1/2+x,1/2-z
1/2+x,-y,3/4-z
1/2-x,y,3/4-z
1/2-y,-x,3/4+z
1/2+y,x,3/4+z
loop_
_atom_site_type_symbol
_atom_site_label
_atom_site_fract_x
_atom_site_fract_y
_atom_site_fract_z
Si Si1 0.250000 0.111377 0.375000
Si Si2 0.586642 0.039752 0.169660
Si Si3 0.215766 0.630695 0.723196
Si Si4 0.080999 0.187999 0.011182
Si Si5 0.947208 0.363223 0.418670
O O1 0.303243 0.163049 0.291803
O O2 0.296662 0.064211 0.478660
O O3 0.542276 0.076736 0.296508
O O4 0.666762 0.063589 0.183700
O O5 0.552890 0.069313 0.025478
O O6 0.275731 0.630601 0.605183
O O7 0.250000 0.625246 0.875000
O O8 0.013134 0.153168 0.932437
O O9 0.062407 0.250000 0.125000
O O10 0.123602 0.124866 0.084019
#
# Coordination Sequence:
#
# PCOD9561139 Si02
#       5
#     8  16  16  16  16
#     4  10  24  44  68 100 142 190 230 292 364 436
#     4  10  22  42  67  97 136 181 236 287 355 430
#     4  11  25  41  71  99 139 182 240 286 362 436
#     4  12  26  49  70 109 146 189 246 306 370 432
#     4  11  27  44  74 103 151 187 244 306 367 442
#
# _framework density 21.253197
#
# number of rings (size 3 to 8) (size 9 to 14) (size 15 to 20)
#    0.000    1.111    4.444    1.333   10.889    7.556 
#    0.000    0.000    0.000    0.000    0.000    0.000 
#    0.000    0.000    0.000    0.000    0.000    0.000 
#
# Total GULP energy -201176.539624 kJ/mol
# GULP energy per Si atom -5588.237212 kJ/mol
# Density = 2.120482 g / cm^3
# Si number density = 21.253197 Si / 1000 Ang^3
#
#
#
# Elastic Constant Matrix: (Units=GPa)
#
#
# Indices 1 2 3 4 5 6 
#
# 1 43.5823 -3.2653 15.3575 0.0000 0.0000 0.0000
# 2 -3.2653 43.5823 15.3575 0.0000 0.0000 0.0000
# 3 15.3575 15.3575 113.9884 0.0000 0.0000 0.0000
# 4 0.0000 0.0000 0.0000 31.5890 0.0000 0.0000
# 5 0.0000 0.0000 0.0000 0.0000 31.5890 0.0000
# 6 0.0000 0.0000 0.0000 0.0000 0.0000 28.9279
#
#
#
# Elastic Compliance Matrix: (Units=1/GPa)
#
#
# Indices 1 2 3 4 5 6 
#
# 1 0.024493 0.003147 -0.003724 0.000000 0.000000 0.000000
# 2 0.003147 0.024493 -0.003724 0.000000 0.000000 0.000000
# 3 -0.003724 -0.003724 0.009776 0.000000 0.000000 0.000000
# 4 0.000000 0.000000 0.000000 0.031657 0.000000 0.000000
# 5 0.000000 0.000000 0.000000 0.000000 0.031657 0.000000
# 6 0.000000 0.000000 0.000000 0.000000 0.000000 0.034569
#
#
# Mechanical properties :
#
#
# Convention : Reuss Voigt Hill
#
# Bulk Modulus (GPa) = 19.93563 28.45027 24.19295
# Shear Modulus (GPa) = 27.47764 30.00140 28.73952
#
# Velocity S-wave (km/s) = 3.59955 3.76123 3.68128
# Velocity P-wave (km/s) = 5.16489 5.68136 5.42927
#
# Compressibility (1/GPa) = 0.05016145
#
# Stress axis : x y z
#
# Youngs Moduli (GPa) = 40.82772 40.82772 102.28844
#
# Poissons Ratio (x) = -0.12850 0.38092
# Poissons Ratio (y) = -0.12850 0.38092
# Poissons Ratio (z) = 0.15204 0.15204
#
# Static dielectric constant tensor:
#      x y z
#    x 1.772230 0.000000 0.000000 
#    y 0.000000 1.772230 0.000000 
#    z 0.000000 0.000000 1.774120 
# 
# From -- ./inp_files/2665.got.cif
#   From: 2010.05.17/outbox.cif.g08.bks.cpg/sg122_2_cif.got.tgz:2665.got - 2010.05.20 11:37:33.
