data_PCOD9561797
_publ_section_title
;
Structure prediction by ZEFSAII (Michael W. Deem and Ramdas Pophale) SiO2 
 PCOD9561797
Probable space group: P 4/M M M
;
_chemical_formula_sum "Si O2"
_cell_formula_units_Z 80
_cell_length_a 17.907968
_cell_length_b 17.907968
_cell_length_c 16.418796
_cell_angle_alpha 90.000000
_cell_angle_beta 90.000000
_cell_angle_gamma 90.000000
_cell_volume 5265.431003
_symmetry_space_group_name_H-M "P 4/M M M"
_symmetry_group_IT_number 123
_symmetry_cell_setting 'tetragonal'
loop_
_space_group_symop_operation_xyz
x,y,z
-y,x,z
-x,-y,z
y,-x,z
x,-y,-z
-x,y,-z
y,x,-z
-y,-x,-z
-x,-y,-z
y,-x,-z
x,y,-z
-y,x,-z
-x,y,z
x,-y,z
-y,-x,z
y,x,z
loop_
_atom_site_type_symbol
_atom_site_label
_atom_site_fract_x
_atom_site_fract_y
_atom_site_fract_z
Si Si1 0.297093 0.826986 0.648331
Si Si2 0.083101 0.201907 0.097838
Si Si3 0.090114 0.216388 0.500000
Si Si4 0.353777 0.087637 0.193190
Si Si5 0.415315 0.296898 0.597653
Si Si6 0.500000 0.091143 0.094807
O O1 0.229619 0.770382 0.670979
O O2 0.263396 0.881534 0.578927
O O3 0.329990 0.870174 0.725362
O O4 0.363746 0.774738 0.614978
O O5 0.145458 0.145458 0.128607
O O6 0.093621 0.284085 0.132214
O O7 0.000000 0.176001 0.121415
O O8 0.086234 0.203932 0.000000
O O9 0.139040 0.139040 0.500000
O O10 0.000000 0.206339 0.500000
O O11 0.427093 0.114784 0.145521
O O12 0.365064 0.000000 0.212290
O O13 0.419695 0.303536 0.500000
O O14 0.500000 0.291326 0.629251
O O15 0.369166 0.369166 0.628215
O O16 0.500000 0.000000 0.092486
O O17 0.500000 0.115445 0.000000
#
# Coordination Sequence:
#
# PCOD9561797 Si02
#       6
#    16  16   8  16  16   8
#     4  10  19  32  49  69  95 129 163 199 245 294
#     4   9  17  29  45  65  89 116 146 184 233 289
#     4  10  20  35  53  71  96 132 174 218 260 298
#     4  10  19  30  46  67  90 119 158 198 237 284
#     4   9  17  30  48  69  94 125 157 190 232 281
#     4   9  18  32  48  67  93 123 154 192 241 295
#
# _framework density 15.193438
#
# number of rings (size 3 to 8) (size 9 to 14) (size 15 to 20)
#    0.000    2.500    1.000    1.800    1.400    2.900 
#    0.000    2.000    0.000    0.600    0.000    2.800 
#    0.000    0.000    0.000    0.000    0.000    8.800 
#
# Total GULP energy -445474.600573 kJ/mol
# GULP energy per Si atom -5568.432507 kJ/mol
# Density = 1.515886 g / cm^3
# Si number density = 15.193438 Si / 1000 Ang^3
#
#
#
# Elastic Constant Matrix: (Units=GPa)
#
#
# Indices 1 2 3 4 5 6 
#
# 1 104.0434 67.5346 44.5011 0.0000 0.0000 0.0000
# 2 67.5346 104.0434 44.5011 0.0000 0.0000 0.0000
# 3 44.5011 44.5011 72.0253 0.0000 0.0000 0.0000
# 4 0.0000 0.0000 0.0000 20.7493 0.0000 0.0000
# 5 0.0000 0.0000 0.0000 0.0000 20.7493 0.0000
# 6 0.0000 0.0000 0.0000 0.0000 0.0000 5.8796
#
#
#
# Elastic Compliance Matrix: (Units=1/GPa)
#
#
# Indices 1 2 3 4 5 6 
#
# 1 0.017984 -0.009407 -0.005299 0.000000 0.000000 0.000000
# 2 -0.009407 0.017984 -0.005299 0.000000 0.000000 0.000000
# 3 -0.005299 -0.005299 0.020433 0.000000 0.000000 0.000000
# 4 0.000000 0.000000 0.000000 0.048194 0.000000 0.000000
# 5 0.000000 0.000000 0.000000 0.000000 0.048194 0.000000
# 6 0.000000 0.000000 0.000000 0.000000 0.000000 0.170080
#
#
# Mechanical properties :
#
#
# Convention : Reuss Voigt Hill
#
# Bulk Modulus (GPa) = 61.01589 65.90954 63.46272
# Shear Modulus (GPa) = 13.57427 17.71398 15.64413
#
# Velocity S-wave (km/s) = 2.99227 3.41823 3.21232
# Velocity P-wave (km/s) = 7.22391 7.68463 7.45782
#
# Compressibility (1/GPa) = 0.01638917
#
# Stress axis : x y z
#
# Youngs Moduli (GPa) = 55.60509 55.60509 48.94134
#
# Poissons Ratio (x) = 0.52306 0.25936
# Poissons Ratio (y) = 0.52306 0.25936
# Poissons Ratio (z) = 0.29468 0.29468
#
# Static dielectric constant tensor:
#      x y z
#    x 1.505430 0.000000 0.000000 
#    y 0.000000 1.505430 0.000000 
#    z 0.000000 0.000000 1.492040 
# 
# From -- ./inp_files/3961.got.cif
#   From: 2010.05.17/outbox.cif.g08.bks.cpg/sg123_2_cif.got.tgz:3961.got - 2010.05.20 11:43:04.
