data_PCOD9561880
_publ_section_title
;
Structure prediction by ZEFSAII (Michael W. Deem and Ramdas Pophale) SiO2 
 PCOD9561880
Probable space group: P 4/M M M
;
_chemical_formula_sum "Si O2"
_cell_formula_units_Z 72
_cell_length_a 21.301468
_cell_length_b 21.301468
_cell_length_c 7.609724
_cell_angle_alpha 90.000000
_cell_angle_beta 90.000000
_cell_angle_gamma 90.000000
_cell_volume 3452.931586
_symmetry_space_group_name_H-M "P 4/M M M"
_symmetry_group_IT_number 123
_symmetry_cell_setting 'tetragonal'
loop_
_space_group_symop_operation_xyz
x,y,z
-y,x,z
-x,-y,z
y,-x,z
x,-y,-z
-x,y,-z
y,x,-z
-y,-x,-z
-x,-y,-z
y,-x,-z
x,y,-z
-y,x,-z
-x,y,z
x,-y,z
-y,-x,z
y,x,z
loop_
_atom_site_type_symbol
_atom_site_label
_atom_site_fract_x
_atom_site_fract_y
_atom_site_fract_z
Si Si1 0.302500 0.861984 0.297446
Si Si2 0.260765 0.634353 0.698323
Si Si3 0.324007 0.569109 0.000000
Si Si4 0.927699 0.824681 0.284965
Si Si5 0.568476 0.074770 0.209345
O O1 0.285328 0.848757 0.500000
O O2 0.323216 0.795064 0.222768
O O3 0.242271 0.898614 0.224758
O O4 0.367314 0.900412 0.290368
O O5 0.243736 0.613421 0.500000
O O6 0.320302 0.679699 0.684170
O O7 0.280345 0.580198 0.830428
O O8 0.351384 0.500000 0.000000
O O9 0.378398 0.621603 0.000000
O O10 0.929047 0.824067 0.500000
O O11 0.881261 0.881261 0.232704
O O12 0.000000 0.831678 0.227429
O O13 0.500000 0.099082 0.272034
O O14 0.567636 0.000000 0.233734
O O15 0.571766 0.087211 0.000000
#
# Coordination Sequence:
#
# PCOD9561880 Si02
#       5
#    16  16   8  16  16
#     4  10  19  31  51  77 103 137 180 224 274 335
#     4   9  19  36  56  80 113 148 181 226 284 338
#     4  10  22  39  60  86 115 151 192 234 282 336
#     4   9  17  29  47  73 105 141 182 230 284 341
#     4   9  19  34  48  65  96 136 172 212 265 320
#
# _framework density 20.851845000000001
#
# number of rings (size 3 to 8) (size 9 to 14) (size 15 to 20)
#    0.000    2.667    0.000    2.000    1.556    6.111 
#    0.000    4.444    0.000    0.000    0.000    3.111 
#    0.000    0.000    0.000    4.667    0.000    4.444 
#
# Total GULP energy -401358.788218 kJ/mol
# GULP energy per Si atom -5574.427614 kJ/mol
# Density = 2.080439 g / cm^3
# Si number density = 20.851845 Si / 1000 Ang^3
#
#
#
# Elastic Constant Matrix: (Units=GPa)
#
#
# Indices 1 2 3 4 5 6 
#
# 1 112.8406 43.8883 23.6997 0.0000 0.0000 0.0000
# 2 43.8883 112.8365 23.6994 0.0000 0.0000 0.0000
# 3 23.6997 23.6994 56.0189 0.0000 0.0000 0.0000
# 4 0.0000 0.0000 0.0000 13.7602 0.0000 0.0000
# 5 0.0000 0.0000 0.0000 0.0000 13.7573 0.0000
# 6 0.0000 0.0000 0.0000 0.0000 0.0000 11.0587
#
#
#
# Elastic Compliance Matrix: (Units=1/GPa)
#
#
# Indices 1 2 3 4 5 6 
#
# 1 0.010910 -0.003593 -0.003095 0.000000 0.000000 0.000000
# 2 -0.003593 0.010910 -0.003095 0.000000 0.000000 0.000000
# 3 -0.003095 -0.003095 0.020470 0.000000 0.000000 0.000000
# 4 0.000000 0.000000 0.000000 0.072673 0.000000 0.000000
# 5 0.000000 0.000000 0.000000 0.000000 0.072689 0.000000
# 6 0.000000 0.000000 0.000000 0.000000 0.000000 0.090427
#
#
# Mechanical properties :
#
#
# Convention : Reuss Voigt Hill
#
# Bulk Modulus (GPa) = 44.01039 51.58565 47.79802
# Shear Modulus (GPa) = 16.38155 20.40913 18.39534
#
# Velocity S-wave (km/s) = 2.80593 3.13192 2.97339
# Velocity P-wave (km/s) = 5.62580 6.15398 5.89581
#
# Compressibility (1/GPa) = 0.02272191
#
# Stress axis : x y z
#
# Youngs Moduli (GPa) = 91.66116 91.65773 48.85143
#
# Poissons Ratio (x) = 0.32935 0.15121
# Poissons Ratio (y) = 0.32936 0.15122
# Poissons Ratio (z) = 0.28373 0.28372
#
# Static dielectric constant tensor:
#      x y z
#    x 1.747070 0.000000 0.000000 
#    y 0.000000 1.747070 0.000000 
#    z 0.000000 0.000000 1.852330 
# 
# From -- ./inp_files/1113.got.cif
#   From: 2010.05.17/outbox.cif.g08.bks.cpg/sg123_1_cif.got.tgz:1113.got - 2010.05.20 11:43:04.
