data_PCOD9561658
_publ_section_title
;
Structure prediction by ZEFSAII (Michael W. Deem and Ramdas Pophale) SiO2 
 PCOD9561658
Probable space group: P 4/M M M
;
_chemical_formula_sum "Si O2"
_cell_formula_units_Z 128
_cell_length_a 19.098037
_cell_length_b 19.098037
_cell_length_c 24.071886
_cell_angle_alpha 90.000000
_cell_angle_beta 90.000000
_cell_angle_gamma 90.000000
_cell_volume 8779.859756
_symmetry_space_group_name_H-M "P 4/M M M"
_symmetry_group_IT_number 123
_symmetry_cell_setting 'tetragonal'
loop_
_space_group_symop_operation_xyz
x,y,z
-y,x,z
-x,-y,z
y,-x,z
x,-y,-z
-x,y,-z
y,x,-z
-y,-x,-z
-x,-y,-z
y,-x,-z
x,y,-z
-y,x,-z
-x,y,z
x,-y,z
-y,-x,z
y,x,z
loop_
_atom_site_type_symbol
_atom_site_label
_atom_site_fract_x
_atom_site_fract_y
_atom_site_fract_z
Si Si1 0.703063 0.917235 0.335232
Si Si2 0.916942 0.200130 0.227465
Si Si3 0.420208 0.694074 0.094292
Si Si4 0.197823 0.918106 0.565034
Si Si5 0.582053 0.853177 0.063054
Si Si6 0.151186 0.418264 0.271005
Si Si7 0.658715 0.916549 0.833403
Si Si8 0.420751 0.306846 0.227736
O O1 0.761138 0.906353 0.286859
O O2 0.739095 0.899788 0.393600
O O3 0.634208 0.874439 0.318795
O O4 0.685764 0.000000 0.334244
O O5 0.866436 0.133565 0.222679
O O6 0.898505 0.261194 0.183009
O O7 0.000000 0.183425 0.222611
O O8 0.500000 0.671263 0.082634
O O9 0.363756 0.636245 0.077776
O O10 0.409074 0.769357 0.066865
O O11 0.414512 0.705128 0.161134
O O12 0.216428 0.910799 0.500000
O O13 0.131865 0.868136 0.576145
O O14 0.180267 0.000000 0.574995
O O15 0.500000 0.867446 0.076695
O O16 0.632023 0.887672 0.108242
O O17 0.594936 0.876590 0.000000
O O18 0.135608 0.500000 0.280999
O O19 0.113432 0.391049 0.215027
O O20 0.233625 0.410972 0.258784
O O21 0.653918 0.000000 0.832320
O O22 0.500000 0.331888 0.237591
O O23 0.363698 0.363698 0.244025
#
# Coordination Sequence:
#
# PCOD9561658 Si02
#       8
#    16  16  16  16  16  16  16  16
#     4   9  18  30  43  64  93 121 151 186 222 259
#     4   9  18  31  47  68  92 117 144 176 215 259
#     4   9  17  30  45  62  85 110 139 173 207 247
#     4   9  17  29  45  65  91 123 157 192 227 263
#     4  10  20  33  47  63  85 112 141 174 214 261
#     4  10  18  29  46  67  89 115 148 183 218 259
#     4  10  20  32  46  66  89 111 139 176 217 261
#     4   9  17  28  43  63  86 112 141 173 211 253
#
# _framework density 14.578821
#
# number of rings (size 3 to 8) (size 9 to 14) (size 15 to 20)
#    0.000    2.625    1.250    1.875    0.000    5.750 
#    0.000    2.500    0.000    2.625    0.000    3.500 
#    0.000    0.000    0.000    2.750    0.000    0.000 
#
# Total GULP energy -713377.323846 kJ/mol
# GULP energy per Si atom -5573.260343 kJ/mol
# Density = 1.454564 g / cm^3
# Si number density = 14.578821 Si / 1000 Ang^3
#
#
#
# Elastic Constant Matrix: (Units=GPa)
#
#
# Indices 1 2 3 4 5 6 
#
# 1 81.5391 67.2376 42.5313 0.0000 0.0000 0.0000
# 2 67.2376 81.5391 42.5313 0.0000 0.0000 0.0000
# 3 42.5313 42.5313 63.0106 0.0000 0.0000 0.0000
# 4 0.0000 0.0000 0.0000 11.2863 0.0000 0.0000
# 5 0.0000 0.0000 0.0000 0.0000 11.2863 0.0000
# 6 0.0000 0.0000 0.0000 0.0000 0.0000 35.3807
#
#
#
# Elastic Compliance Matrix: (Units=1/GPa)
#
#
# Indices 1 2 3 4 5 6 
#
# 1 0.040434 -0.029488 -0.007388 0.000000 0.000000 0.000000
# 2 -0.029488 0.040434 -0.007388 0.000000 0.000000 0.000000
# 3 -0.007388 -0.007388 0.025844 0.000000 0.000000 0.000000
# 4 0.000000 0.000000 0.000000 0.088603 0.000000 0.000000
# 5 0.000000 0.000000 0.000000 0.000000 0.088603 0.000000
# 6 0.000000 0.000000 0.000000 0.000000 0.000000 0.028264
#
#
# Mechanical properties :
#
#
# Convention : Reuss Voigt Hill
#
# Bulk Modulus (GPa) = 54.99698 58.96544 56.98121
# Shear Modulus (GPa) = 12.29186 16.50990 14.40088
#
# Velocity S-wave (km/s) = 2.90682 3.36885 3.14633
# Velocity P-wave (km/s) = 7.00514 7.46096 7.23664
#
# Compressibility (1/GPa) = 0.01818282
#
# Stress axis : x y z
#
# Youngs Moduli (GPa) = 24.73160 24.73160 38.69345
#
# Poissons Ratio (x) = 0.72930 0.28587
# Poissons Ratio (y) = 0.72930 0.28587
# Poissons Ratio (z) = 0.18272 0.18272
#
# Static dielectric constant tensor:
#      x y z
#    x 1.473760 0.000000 0.000000 
#    y 0.000000 1.473760 0.000000 
#    z 0.000000 0.000000 1.486240 
# 
# From -- ./inp_files/7651.got.cif
#   From: 2010.05.17/outbox.cif.g08.bks.cpg/sg123_4_cif.got.tgz:7651.got - 2010.05.20 11:43:04.
