data_PCOD9561976
_publ_section_title
;
Structure prediction by ZEFSAII (Michael W. Deem and Ramdas Pophale) SiO2 
 PCOD9561976
Probable space group: P 4/M M M
;
_chemical_formula_sum "Si O2"
_cell_formula_units_Z 96
_cell_length_a 25.754635
_cell_length_b 25.754635
_cell_length_c 9.178983
_cell_angle_alpha 90.000000
_cell_angle_beta 90.000000
_cell_angle_gamma 90.000000
_cell_volume 6088.430659
_symmetry_space_group_name_H-M "P 4/M M M"
_symmetry_group_IT_number 123
_symmetry_cell_setting 'tetragonal'
loop_
_space_group_symop_operation_xyz
x,y,z
-y,x,z
-x,-y,z
y,-x,z
x,-y,-z
-x,y,-z
y,x,-z
-y,-x,-z
-x,-y,-z
y,-x,-z
x,y,-z
-y,x,-z
-x,y,z
x,-y,z
-y,-x,z
y,x,z
loop_
_atom_site_type_symbol
_atom_site_label
_atom_site_fract_x
_atom_site_fract_y
_atom_site_fract_z
Si Si1 0.645648 0.560572 0.674704
Si Si2 0.438021 0.857696 0.672701
Si Si3 0.635903 0.938394 0.826960
Si Si4 0.741025 0.062993 0.667278
Si Si5 0.436935 0.751774 0.832542
Si Si6 0.143617 0.059721 0.322194
O O1 0.653506 0.563056 0.500000
O O2 0.635612 0.500000 0.711480
O O3 0.597593 0.597593 0.712499
O O4 0.698255 0.578117 0.754356
O O5 0.428738 0.856495 0.500000
O O6 0.500000 0.863523 0.696021
O O7 0.407196 0.904475 0.746647
O O8 0.421208 0.803237 0.745243
O O9 0.692489 0.922395 0.766245
O O10 0.629290 0.000000 0.796753
O O11 0.633084 0.930916 0.000000
O O12 0.733134 0.080495 0.500000
O O13 0.798524 0.078286 0.719756
O O14 0.742697 0.000000 0.663868
O O15 0.500000 0.751866 0.832184
O O16 0.419560 0.753676 0.000000
O O17 0.143742 0.059075 0.500000
O O18 0.098577 0.098577 0.274055
O O19 0.135517 0.000000 0.275084
#
# Coordination Sequence:
#
# PCOD9561976 Si02
#       6
#    16  16  16  16  16  16
#     4   9  17  29  46  69  97 128 161 196 233 274
#     4  10  20  33  50  71  94 120 149 182 223 273
#     4  10  20  32  47  68  93 120 150 186 227 269
#     4   8  14  26  43  61  84 117 155 190 223 264
#     4   9  17  30  48  68  91 121 157 194 230 270
#     4   8  13  21  36  61  91 121 152 186 225 268
#
# _framework density 15.767609999999999
#
# number of rings (size 3 to 8) (size 9 to 14) (size 15 to 20)
#    0.000    3.000    0.000    2.500    0.000    5.000 
#    0.000    3.333    0.000    1.500    0.000    4.667 
#    0.000    0.000    0.000    6.500    0.000    6.667 
#
# Total GULP energy -534612.014679 kJ/mol
# GULP energy per Si atom -5568.875153 kJ/mol
# Density = 1.573172 g / cm^3
# Si number density = 15.767610 Si / 1000 Ang^3
#
#
#
# Elastic Constant Matrix: (Units=GPa)
#
#
# Indices 1 2 3 4 5 6 
#
# 1 93.4114 68.2140 59.5654 0.0000 0.0000 0.0000
# 2 68.2140 93.4114 59.5654 0.0000 0.0000 0.0000
# 3 59.5654 59.5654 66.8509 0.0000 0.0000 0.0000
# 4 0.0000 0.0000 0.0000 15.9759 0.0000 0.0000
# 5 0.0000 0.0000 0.0000 0.0000 15.9759 0.0000
# 6 0.0000 0.0000 0.0000 0.0000 0.0000 -2.8912
#
#
#
# Elastic Compliance Matrix: (Units=1/GPa)
#
#
# Indices 1 2 3 4 5 6 
#
# 1 0.028856 -0.010831 -0.016061 0.000000 0.000000 0.000000
# 2 -0.010831 0.028856 -0.016061 0.000000 0.000000 0.000000
# 3 -0.016061 -0.016061 0.043580 0.000000 0.000000 0.000000
# 4 0.000000 0.000000 0.000000 0.062594 0.000000 0.000000
# 5 0.000000 0.000000 0.000000 0.000000 0.062594 0.000000
# 6 0.000000 0.000000 0.000000 0.000000 0.000000 -0.345880
#
#
# Mechanical properties :
#
#
# Convention : Reuss Voigt Hill
#
# Bulk Modulus (GPa) = 64.99063 69.81815 67.40439
# Shear Modulus (GPa) = -176.26537 10.23406 -83.01566
#
# Velocity S-wave (km/s) = -10.58453 2.55042 -7.26387
# Velocity P-wave (km/s) = 10.39562 7.28344 5.24502
#
# Compressibility (1/GPa) = 0.01538683
#
# Stress axis : x y z
#
# Youngs Moduli (GPa) = 34.65494 34.65494 22.94651
#
# Poissons Ratio (x) = 0.37534 0.36854
# Poissons Ratio (y) = 0.37534 0.36854
# Poissons Ratio (z) = 0.55659 0.55659
#
# Static dielectric constant tensor:
#      x y z
#    x 1.518280 0.000000 0.000000 
#    y 0.000000 1.518280 0.000000 
#    z 0.000000 0.000000 1.524590 
# 
# From -- ./inp_files/1636.got.cif
#   From: 2010.05.17/outbox.cif.g08.bks.cpg/sg123_1_cif.got.tgz:1636.got - 2010.05.20 11:43:04.
