data_PCOD9561760
_publ_section_title
;
Structure prediction by ZEFSAII (Michael W. Deem and Ramdas Pophale) SiO2 
 PCOD9561760
Probable space group: P 4/M M M
;
_chemical_formula_sum "Si O2"
_cell_formula_units_Z 112
_cell_length_a 14.419787
_cell_length_b 14.419787
_cell_length_c 35.731827
_cell_angle_alpha 90.000000
_cell_angle_beta 90.000000
_cell_angle_gamma 90.000000
_cell_volume 7429.727976
_symmetry_space_group_name_H-M "P 4/M M M"
_symmetry_group_IT_number 123
_symmetry_cell_setting 'tetragonal'
loop_
_space_group_symop_operation_xyz
x,y,z
-y,x,z
-x,-y,z
y,-x,z
x,-y,-z
-x,y,-z
y,x,-z
-y,-x,-z
-x,-y,-z
y,-x,-z
x,y,-z
-y,x,-z
-x,y,z
x,-y,z
-y,-x,z
y,x,z
loop_
_atom_site_type_symbol
_atom_site_label
_atom_site_fract_x
_atom_site_fract_y
_atom_site_fract_z
Si Si1 0.612322 0.105419 0.889284
Si Si2 0.736650 0.109321 0.592239
Si Si3 0.764302 0.611402 0.180639
Si Si4 0.607948 0.239920 0.544751
Si Si5 0.106931 0.389905 0.748594
Si Si6 0.237617 0.609103 0.956437
Si Si7 0.260414 0.107568 0.678871
O O1 0.500000 0.100302 0.888493
O O2 0.638011 0.170560 0.854473
O O3 0.637159 0.156791 0.927848
O O4 0.647319 0.000000 0.886531
O O5 0.831641 0.168360 0.587284
O O6 0.660011 0.157156 0.566159
O O7 0.708199 0.120609 0.635875
O O8 0.748417 0.000000 0.584738
O O9 0.748291 0.500000 0.179223
O O10 0.670576 0.670576 0.179581
O O11 0.822251 0.632928 0.218255
O O12 0.613181 0.224888 0.500000
O O13 0.500000 0.247630 0.555084
O O14 0.666878 0.333123 0.553070
O O15 0.111742 0.500000 0.742466
O O16 0.127465 0.337116 0.710132
O O17 0.000000 0.368396 0.759680
O O18 0.258455 0.500000 0.950249
O O19 0.327376 0.672625 0.949777
O O20 0.210425 0.619683 0.000000
O O21 0.173739 0.173739 0.685239
O O22 0.233663 0.000000 0.682482
#
# Coordination Sequence:
#
# PCOD9561760 Si02
#       7
#    16  16  16  16  16  16  16
#     4   9  17  29  44  61  82 109 141 177 216 253
#     4   9  18  31  46  66  92 121 153 188 225 266
#     4  10  19  30  45  64  87 115 144 174 209 251
#     4   9  18  32  49  69  92 117 146 182 224 269
#     4   9  17  29  45  65  88 114 145 180 217 255
#     4   9  17  28  42  62  89 119 148 177 209 248
#     4   9  17  29  45  65  89 116 146 181 220 261
#
# _framework density 15.074574999999999
#
# number of rings (size 3 to 8) (size 9 to 14) (size 15 to 20)
#    0.000    2.857    0.000    1.286    0.000    3.857 
#    0.000    6.429    0.000    2.571    0.000    2.000 
#    0.000   16.000    0.000    6.286    0.000    0.571 
#
# Total GULP energy -623666.383976 kJ/mol
# GULP energy per Si atom -5568.449857 kJ/mol
# Density = 1.504026 g / cm^3
# Si number density = 15.074575 Si / 1000 Ang^3
#
#
#
# Elastic Constant Matrix: (Units=GPa)
#
#
# Indices 1 2 3 4 5 6 
#
# 1 88.0824 54.9183 56.5763 0.0000 0.0000 0.0000
# 2 54.9183 88.0824 56.5763 0.0000 0.0000 0.0000
# 3 56.5763 56.5763 70.2046 0.0000 0.0000 0.0000
# 4 0.0000 0.0000 0.0000 23.6732 0.0000 0.0000
# 5 0.0000 0.0000 0.0000 0.0000 23.6732 0.0000
# 6 0.0000 0.0000 0.0000 0.0000 0.0000 15.0315
#
#
#
# Elastic Compliance Matrix: (Units=1/GPa)
#
#
# Indices 1 2 3 4 5 6 
#
# 1 0.024726 -0.005427 -0.015553 0.000000 0.000000 0.000000
# 2 -0.005427 0.024726 -0.015553 0.000000 0.000000 0.000000
# 3 -0.015553 -0.015553 0.039312 0.000000 0.000000 0.000000
# 4 0.000000 0.000000 0.000000 0.042242 0.000000 0.000000
# 5 0.000000 0.000000 0.000000 0.000000 0.042242 0.000000
# 6 0.000000 0.000000 0.000000 0.000000 0.000000 0.066527
#
#
# Mechanical properties :
#
#
# Convention : Reuss Voigt Hill
#
# Bulk Modulus (GPa) = 63.69968 64.72347 64.21157
# Shear Modulus (GPa) = 15.71955 17.69550 16.70752
#
# Velocity S-wave (km/s) = 3.23272 3.42989 3.33276
# Velocity P-wave (km/s) = 7.50214 7.66252 7.58275
#
# Compressibility (1/GPa) = 0.01569867
#
# Stress axis : x y z
#
# Youngs Moduli (GPa) = 40.44245 40.44245 25.43736
#
# Poissons Ratio (x) = 0.21946 0.39564
# Poissons Ratio (y) = 0.21946 0.39564
# Poissons Ratio (z) = 0.62902 0.62902
#
# Static dielectric constant tensor:
#      x y z
#    x 1.483080 0.000000 0.000000 
#    y 0.000000 1.483080 0.000000 
#    z 0.000000 0.000000 1.507480 
# 
# From -- ./inp_files/8781.got.cif
#   From: 2010.05.17/outbox.cif.g08.bks.cpg/sg123_5_cif.got.tgz:8781.got - 2010.05.20 11:43:04.
