data_PCOD9561725
_publ_section_title
;
Structure prediction by ZEFSAII (Michael W. Deem and Ramdas Pophale) SiO2 
 PCOD9561725
Probable space group: P 4/M M M
;
_chemical_formula_sum "Si O2"
_cell_formula_units_Z 80
_cell_length_a 13.938058
_cell_length_b 13.938058
_cell_length_c 26.166865
_cell_angle_alpha 90.000000
_cell_angle_beta 90.000000
_cell_angle_gamma 90.000000
_cell_volume 5083.422755
_symmetry_space_group_name_H-M "P 4/M M M"
_symmetry_group_IT_number 123
_symmetry_cell_setting 'tetragonal'
loop_
_space_group_symop_operation_xyz
x,y,z
-y,x,z
-x,-y,z
y,-x,z
x,-y,-z
-x,y,-z
y,x,-z
-y,-x,-z
-x,-y,-z
y,-x,-z
x,y,-z
-y,x,-z
-x,y,z
x,-y,z
-y,-x,z
y,x,z
loop_
_atom_site_type_symbol
_atom_site_label
_atom_site_fract_x
_atom_site_fract_y
_atom_site_fract_z
Si Si1 0.883721 0.390538 0.243473
Si Si2 0.116571 0.610741 0.557124
Si Si3 0.115394 0.269972 0.343535
Si Si4 0.272123 0.114307 0.142070
Si Si5 0.387804 0.770042 0.939655
O O1 0.848137 0.500000 0.241151
O O2 0.856738 0.336978 0.295654
O O3 0.857599 0.328882 0.193807
O O4 0.000000 0.394994 0.243593
O O5 0.147495 0.640510 0.500000
O O6 0.146023 0.500000 0.565444
O O7 0.144917 0.678091 0.603764
O O8 0.000000 0.610585 0.556994
O O9 0.169741 0.169741 0.338982
O O10 0.000000 0.258891 0.343152
O O11 0.173139 0.173139 0.140201
O O12 0.337213 0.149745 0.094885
O O13 0.258431 0.000000 0.141419
O O14 0.500000 0.760311 0.927163
O O15 0.327836 0.672165 0.930820
O O16 0.379809 0.792683 0.000000
#
# Coordination Sequence:
#
# PCOD9561725 Si02
#       5
#    16  16  16  16  16
#     4   9  17  30  48  67  86 111 146 189 235 275
#     4   8  14  26  44  63  82 107 142 186 233 271
#     4  10  19  29  42  62  90 123 155 184 216 260
#     4  10  20  33  49  70  97 128 161 195 231 275
#     4   9  18  32  50  73  99 126 158 197 242 291
#
# _framework density 15.737428
#
# number of rings (size 3 to 8) (size 9 to 14) (size 15 to 20)
#    0.000    2.800    0.000    2.400    0.000    5.000 
#    0.000    2.000    0.000    3.600    0.000    5.600 
#    0.000   17.600    0.000    8.800    0.000    0.800 
#
# Total GULP energy -445569.258041 kJ/mol
# GULP energy per Si atom -5569.615726 kJ/mol
# Density = 1.570161 g / cm^3
# Si number density = 15.737428 Si / 1000 Ang^3
#
#
#
# Elastic Constant Matrix: (Units=GPa)
#
#
# Indices 1 2 3 4 5 6 
#
# 1 83.1432 46.9078 52.8145 0.0000 0.0000 0.0000
# 2 46.9078 83.1432 52.8145 0.0000 0.0000 0.0000
# 3 52.8145 52.8145 94.6675 0.0000 0.0000 0.0000
# 4 0.0000 0.0000 0.0000 18.9875 0.0000 0.0000
# 5 0.0000 0.0000 0.0000 0.0000 18.9875 0.0000
# 6 0.0000 0.0000 0.0000 0.0000 0.0000 4.7124
#
#
#
# Elastic Compliance Matrix: (Units=1/GPa)
#
#
# Indices 1 2 3 4 5 6 
#
# 1 0.020829 -0.006768 -0.007844 0.000000 0.000000 0.000000
# 2 -0.006768 0.020829 -0.007844 0.000000 0.000000 0.000000
# 3 -0.007844 -0.007844 0.019316 0.000000 0.000000 0.000000
# 4 0.000000 0.000000 0.000000 0.052666 0.000000 0.000000
# 5 0.000000 0.000000 0.000000 0.000000 0.052666 0.000000
# 6 0.000000 0.000000 0.000000 0.000000 0.000000 0.212205
#
#
# Mechanical properties :
#
#
# Convention : Reuss Voigt Hill
#
# Bulk Modulus (GPa) = 62.26748 62.89193 62.57971
# Shear Modulus (GPa) = 11.66104 15.76527 13.71316
#
# Velocity S-wave (km/s) = 2.72504 3.16851 2.95510
# Velocity P-wave (km/s) = 7.03942 7.30999 7.17598
#
# Compressibility (1/GPa) = 0.01605975
#
# Stress axis : x y z
#
# Youngs Moduli (GPa) = 48.01017 48.01017 51.77086
#
# Poissons Ratio (x) = 0.32495 0.40611
# Poissons Ratio (y) = 0.32495 0.40611
# Poissons Ratio (z) = 0.37661 0.37661
#
# Static dielectric constant tensor:
#      x y z
#    x 1.506650 0.000000 0.000000 
#    y 0.000000 1.506650 0.000000 
#    z 0.000000 0.000000 1.539120 
# 
# From -- ./inp_files/6274.got.cif
#   From: 2010.05.17/outbox.cif.g08.bks.cpg/sg123_4_cif.got.tgz:6274.got - 2010.05.20 11:43:04.
