data_PCOD9561086
_publ_section_title
;
Structure prediction by ZEFSAII (Michael W. Deem and Ramdas Pophale) SiO2 
 PCOD9561086
Probable space group: I -4 2 D
;
_chemical_formula_sum "Si O2"
_cell_formula_units_Z 76
_cell_length_a 12.916906
_cell_length_b 12.916906
_cell_length_c 25.025194
_cell_angle_alpha 90.000000
_cell_angle_beta 90.000000
_cell_angle_gamma 90.000000
_cell_volume 4175.365045
_symmetry_space_group_name_H-M "I -4 2 D"
_symmetry_group_IT_number 122
_symmetry_cell_setting 'tetragonal'
loop_
_space_group_symop_operation_xyz
x,y,z
y,-x,-z
-x,-y,z
-y,x,-z
x,1/2-y,1/4-z
-x,1/2+y,1/4-z
-y,1/2-x,1/4+z
y,1/2+x,1/4+z
1/2+x,1/2+y,1/2+z
1/2+y,1/2-x,1/2-z
1/2-x,1/2-y,1/2+z
1/2-y,1/2+x,1/2-z
1/2+x,-y,3/4-z
1/2-x,y,3/4-z
1/2-y,-x,3/4+z
1/2+y,x,3/4+z
loop_
_atom_site_type_symbol
_atom_site_label
_atom_site_fract_x
_atom_site_fract_y
_atom_site_fract_z
Si Si1 0.422126 0.305500 0.436247
Si Si2 0.750000 0.933456 0.875000
Si Si3 0.045709 0.608349 0.911654
Si Si4 0.000000 0.500000 0.015371
Si Si5 0.885689 0.687761 0.045118
Si Si6 0.250000 0.706623 0.875000
Si Si7 0.000000 0.500000 0.250000
O O1 0.342057 0.361557 0.396835
O O2 0.481457 0.213991 0.405377
O O3 0.376141 0.243563 0.487638
O O4 0.491155 0.397735 0.462702
O O5 0.727853 0.012117 0.923824
O O6 0.156939 0.633389 0.890609
O O7 0.000000 0.500000 0.889572
O O8 0.049121 0.584512 0.975272
O O9 0.089665 0.435474 0.043857
O O10 0.784309 0.715802 0.078069
#
# Coordination Sequence:
#
# PCOD9561086 Si02
#       7
#    16   8  16   8  16   8   4
#     4  11  22  39  60  95 132 170 211 271 340 407
#     4  11  24  33  64 100 132 171 219 254 348 418
#     4   9  22  41  60  82 120 169 209 264 313 380
#     4   8  20  41  58  78 129 161 198 255 320 368
#     4  10  22  39  59  96 131 166 204 273 328 399
#     4  11  22  37  66  90 114 169 215 258 328 384
#     4  12  20  34  64  92 144 160 204 286 344 408
#
# _framework density 18.202003000000001
#
# number of rings (size 3 to 8) (size 9 to 14) (size 15 to 20)
#    0.632    1.263    2.105    1.263    8.842    0.842 
#    0.000    0.000    0.000    0.000    0.000    0.000 
#    0.000    0.000    0.000    0.000    0.000    0.000 
#
# Total GULP energy -211571.829116 kJ/mol
# GULP energy per Si atom -5567.679714 kJ/mol
# Density = 1.816057 g / cm^3
# Si number density = 18.202003 Si / 1000 Ang^3
#
#
#
# Elastic Constant Matrix: (Units=GPa)
#
#
# Indices 1 2 3 4 5 6 
#
# 1 125.3876 74.3284 23.9403 0.0000 0.0000 0.0000
# 2 74.3284 125.3876 23.9403 0.0000 0.0000 0.0000
# 3 23.9403 23.9403 34.1814 0.0000 0.0000 0.0000
# 4 0.0000 0.0000 0.0000 13.3045 0.0000 0.0000
# 5 0.0000 0.0000 0.0000 0.0000 13.3045 0.0000
# 6 0.0000 0.0000 0.0000 0.0000 0.0000 36.9174
#
#
#
# Elastic Compliance Matrix: (Units=1/GPa)
#
#
# Indices 1 2 3 4 5 6 
#
# 1 0.012801 -0.006784 -0.004215 0.000000 0.000000 0.000000
# 2 -0.006784 0.012801 -0.004215 0.000000 0.000000 0.000000
# 3 -0.004215 -0.004215 0.035160 0.000000 0.000000 0.000000
# 4 0.000000 0.000000 0.000000 0.075162 0.000000 0.000000
# 5 0.000000 0.000000 0.000000 0.000000 0.075162 0.000000
# 6 0.000000 0.000000 0.000000 0.000000 0.000000 0.027087
#
#
# Mechanical properties :
#
#
# Convention : Reuss Voigt Hill
#
# Bulk Modulus (GPa) = 32.96409 58.81942 45.89175
# Shear Modulus (GPa) = 17.93964 23.55513 20.74739
#
# Velocity S-wave (km/s) = 3.14281 3.60126 3.37982
# Velocity P-wave (km/s) = 5.59635 7.04819 6.36381
#
# Compressibility (1/GPa) = 0.03033604
#
# Stress axis : x y z
#
# Youngs Moduli (GPa) = 78.11685 78.11685 28.44181
#
# Poissons Ratio (x) = 0.52993 0.11987
# Poissons Ratio (y) = 0.52993 0.11987
# Poissons Ratio (z) = 0.32923 0.32923
#
# Static dielectric constant tensor:
#      x y z
#    x 1.666330 0.000000 0.000000 
#    y 0.000000 1.666330 0.000000 
#    z 0.000000 0.000000 1.651230 
# 
# From -- ./inp_files/9468.got.cif
#   From: 2010.05.17/outbox.cif.g08.bks.cpg/sg122_5_cif.got.tgz:9468.got - 2010.05.20 11:37:33.
