data_PCOD9561864
_publ_section_title
;
Structure prediction by ZEFSAII (Michael W. Deem and Ramdas Pophale) SiO2 
 PCOD9561864
Probable space group: P 4/M M M
;
_chemical_formula_sum "Si O2"
_cell_formula_units_Z 64
_cell_length_a 22.557361
_cell_length_b 22.557361
_cell_length_c 7.535591
_cell_angle_alpha 90.000000
_cell_angle_beta 90.000000
_cell_angle_gamma 90.000000
_cell_volume 3834.368945
_symmetry_space_group_name_H-M "P 4/M M M"
_symmetry_group_IT_number 123
_symmetry_cell_setting 'tetragonal'
loop_
_space_group_symop_operation_xyz
x,y,z
-y,x,z
-x,-y,z
y,-x,z
x,-y,-z
-x,y,-z
y,x,-z
-y,-x,-z
-x,-y,-z
y,-x,-z
x,y,-z
-y,x,-z
-x,y,z
x,-y,z
-y,-x,z
y,x,z
loop_
_atom_site_type_symbol
_atom_site_label
_atom_site_fract_x
_atom_site_fract_y
_atom_site_fract_z
Si Si1 0.197645 0.570449 0.000000
Si Si2 0.249129 0.347123 0.295773
Si Si3 0.879055 0.284552 0.294913
Si Si4 0.366087 0.931261 0.000000
Si Si5 0.160625 0.839376 0.299490
Si Si6 0.932487 0.932487 0.213565
O O1 0.232799 0.598905 0.833144
O O2 0.127469 0.590767 0.000000
O O3 0.199689 0.500000 0.000000
O O4 0.260021 0.365183 0.500000
O O5 0.303030 0.303030 0.241251
O O6 0.187760 0.310268 0.293092
O O7 0.899818 0.283098 0.500000
O O8 0.869291 0.218732 0.219539
O O9 0.920199 0.324827 0.172249
O O10 0.388700 0.000000 0.000000
O O11 0.179049 0.820952 0.500000
O O12 0.111422 0.888579 0.304449
O O13 0.000000 0.919506 0.260639
O O14 0.927043 0.927043 0.000000
#
# Coordination Sequence:
#
# PCOD9561864 Si02
#       6
#     8  16  16   8   8   8
#     4  10  21  34  50  76 108 140 179 219 249 289
#     4   9  16  31  55  78 103 134 165 202 256 311
#     4   9  18  32  50  74  99 119 152 207 262 313
#     4  10  22  35  49  69  95 139 182 211 254 298
#     4  10  19  31  49  70  90 112 142 193 259 312
#     4   9  20  36  46  54  76 112 150 186 230 295
#
# _framework density 16.691143
#
# number of rings (size 3 to 8) (size 9 to 14) (size 15 to 20)
#    0.000    2.625    1.250    0.750    1.750    2.750 
#    0.000    3.125    0.000    0.000    0.000    7.000 
#    0.000    4.000    0.000   11.000    0.000    0.000 
#
# Total GULP energy -356314.750749 kJ/mol
# GULP energy per Si atom -5567.417980 kJ/mol
# Density = 1.665315 g / cm^3
# Si number density = 16.691143 Si / 1000 Ang^3
#
#
#
# Elastic Constant Matrix: (Units=GPa)
#
#
# Indices 1 2 3 4 5 6 
#
# 1 117.4999 15.2602 42.7720 0.0000 0.0000 0.0000
# 2 15.2602 117.4999 42.7715 0.0000 0.0000 0.0000
# 3 42.7720 42.7715 82.5332 0.0000 0.0000 0.0000
# 4 0.0000 0.0000 0.0000 -18.1407 0.0000 0.0000
# 5 0.0000 0.0000 0.0000 0.0000 -18.1701 0.0000
# 6 0.0000 0.0000 0.0000 0.0000 0.0000 13.1158
#
#
#
# Elastic Compliance Matrix: (Units=1/GPa)
#
#
# Indices 1 2 3 4 5 6 
#
# 1 0.010545 0.000764 -0.005861 0.000000 0.000000 0.000000
# 2 0.000764 0.010545 -0.005860 0.000000 0.000000 0.000000
# 3 -0.005861 -0.005860 0.018191 0.000000 0.000000 0.000000
# 4 0.000000 0.000000 0.000000 -0.055125 0.000000 0.000000
# 5 0.000000 0.000000 0.000000 0.000000 -0.055035 0.000000
# 6 0.000000 0.000000 0.000000 0.000000 0.000000 0.076244
#
#
# Mechanical properties :
#
#
# Convention : Reuss Voigt Hill
#
# Bulk Modulus (GPa) = 57.58479 57.68225 57.63352
# Shear Modulus (GPa) = 151.20687 9.80960 80.50824
#
# Velocity S-wave (km/s) = 9.52826 2.42691 6.95261
# Velocity P-wave (km/s) = 12.47499 6.51819 9.95269
#
# Compressibility (1/GPa) = 0.01736570
#
# Stress axis : x y z
#
# Youngs Moduli (GPa) = 94.83351 94.83401 54.97337
#
# Poissons Ratio (x) = -0.07244 0.32218
# Poissons Ratio (y) = -0.07244 0.32217
# Poissons Ratio (z) = 0.55578 0.55577
#
# Static dielectric constant tensor:
#      x y z
#    x 1.546970 0.000000 0.000000 
#    y 0.000000 1.546970 0.000000 
#    z 0.000000 0.000000 1.643200 
# 
# From -- ./inp_files/1032.got.cif
#   From: 2010.05.17/outbox.cif.g08.bks.cpg/sg123_1_cif.got.tgz:1032.got - 2010.05.20 11:43:04.
