data_PCOD9561360
_publ_section_title
;
Structure prediction by ZEFSAII (Michael W. Deem and Ramdas Pophale) SiO2 
 PCOD9561360
Probable space group: I -4 2 D
;
_chemical_formula_sum "Si O2"
_cell_formula_units_Z 88
_cell_length_a 11.522092
_cell_length_b 11.522092
_cell_length_c 29.056726
_cell_angle_alpha 90.000000
_cell_angle_beta 90.000000
_cell_angle_gamma 90.000000
_cell_volume 3857.530382
_symmetry_space_group_name_H-M "I -4 2 D"
_symmetry_group_IT_number 122
_symmetry_cell_setting 'tetragonal'
loop_
_space_group_symop_operation_xyz
x,y,z
y,-x,-z
-x,-y,z
-y,x,-z
x,1/2-y,1/4-z
-x,1/2+y,1/4-z
-y,1/2-x,1/4+z
y,1/2+x,1/4+z
1/2+x,1/2+y,1/2+z
1/2+y,1/2-x,1/2-z
1/2-x,1/2-y,1/2+z
1/2-y,1/2+x,1/2-z
1/2+x,-y,3/4-z
1/2-x,y,3/4-z
1/2-y,-x,3/4+z
1/2+y,x,3/4+z
loop_
_atom_site_type_symbol
_atom_site_label
_atom_site_fract_x
_atom_site_fract_y
_atom_site_fract_z
Si Si1 0.276387 0.492544 0.160092
Si Si2 0.188829 0.130119 0.565917
Si Si3 0.431894 0.239448 0.993142
Si Si4 0.500000 0.500000 0.225050
Si Si5 0.165658 0.697309 0.197295
Si Si6 0.802028 0.106560 0.950765
O O1 0.324243 0.429268 0.114859
O O2 0.383553 0.501382 0.195031
O O3 0.224533 0.622374 0.157041
O O4 0.170280 0.412665 0.178101
O O5 0.102005 0.225686 0.545186
O O6 0.313620 0.194115 0.564673
O O7 0.179621 0.027372 0.528964
O O8 0.316790 0.227705 0.962088
O O9 0.489668 0.113788 0.994683
O O10 0.180895 0.621367 0.244294
O O11 0.028388 0.712628 0.189305
#
# Coordination Sequence:
#
# PCOD9561360 Si02
#       6
#    16  16  16   8  16  16
#     4  12  25  42  71 109 140 187 245 305 366 441
#     4  11  26  46  67 106 140 191 250 301 370 436
#     4  11  24  46  73  97 148 196 243 296 375 445
#     4  12  22  44  72  97 134 196 235 290 354 442
#     4  11  21  42  72 105 140 189 235 289 372 461
#     4  11  21  42  71 102 148 187 235 298 377 448
#
# _framework density 22.812522000000001
#
# number of rings (size 3 to 8) (size 9 to 14) (size 15 to 20)
#    0.000    0.727    5.455    4.364    0.000    2.545 
#   13.091    1.818    0.000    0.000    0.000    0.000 
#    0.000    0.000    0.000    0.000    0.000    0.000 
#
# Total GULP energy -246071.409988 kJ/mol
# GULP energy per Si atom -5592.532045 kJ/mol
# Density = 2.276060 g / cm^3
# Si number density = 22.812522 Si / 1000 Ang^3
#
#
#
# Elastic Constant Matrix: (Units=GPa)
#
#
# Indices 1 2 3 4 5 6 
#
# 1 14.9722 50.2829 1.2256 0.0000 0.0000 0.0000
# 2 50.2829 14.9722 1.2256 0.0000 0.0000 0.0000
# 3 1.2256 1.2256 51.4737 0.0000 0.0000 0.0000
# 4 0.0000 0.0000 0.0000 16.8472 0.0000 0.0000
# 5 0.0000 0.0000 0.0000 0.0000 16.8472 0.0000
# 6 0.0000 0.0000 0.0000 0.0000 0.0000 22.4173
#
#
#
# Elastic Compliance Matrix: (Units=1/GPa)
#
#
# Indices 1 2 3 4 5 6 
#
# 1 -0.006491 0.021829 -0.000365 0.000000 0.000000 0.000000
# 2 0.021829 -0.006491 -0.000365 0.000000 0.000000 0.000000
# 3 -0.000365 -0.000365 0.019445 0.000000 0.000000 0.000000
# 4 0.000000 0.000000 0.000000 0.059357 0.000000 0.000000
# 5 0.000000 0.000000 0.000000 0.000000 0.059357 0.000000
# 6 0.000000 0.000000 0.000000 0.000000 0.000000 0.044608
#
#
# Mechanical properties :
#
#
# Convention : Reuss Voigt Hill
#
# Bulk Modulus (GPa) = 20.55064 20.76517 20.65791
# Shear Modulus (GPa) = 34.76850 13.13459 23.95154
#
# Velocity S-wave (km/s) = 3.90820 2.40211 3.24378
# Velocity P-wave (km/s) = 5.42157 4.10071 4.80673
#
# Compressibility (1/GPa) = 0.04866028
#
# Stress axis : x y z
#
# Youngs Moduli (GPa) = -154.06127 -154.06131 51.42770
#
# Poissons Ratio (x) = 3.36302 0.01878
# Poissons Ratio (y) = 3.36302 0.01878
# Poissons Ratio (z) = -0.05627 -0.05627
#
# Static dielectric constant tensor:
#      x y z
#    x 1.879550 0.000000 0.000000 
#    y 0.000000 1.879550 0.000000 
#    z 0.000000 0.000000 1.904120 
# 
# From -- ./inp_files/9519.got.cif
#   From: 2010.05.17/outbox.cif.g08.bks.cpg/sg122_5_cif.got.tgz:9519.got - 2010.05.20 11:37:33.
