data_PCOD9561915
_publ_section_title
;
Structure prediction by ZEFSAII (Michael W. Deem and Ramdas Pophale) SiO2 
 PCOD9561915
Probable space group: P 4/M M M
;
_chemical_formula_sum "Si O2"
_cell_formula_units_Z 72
_cell_length_a 13.158704
_cell_length_b 13.158704
_cell_length_c 25.298430
_cell_angle_alpha 90.000000
_cell_angle_beta 90.000000
_cell_angle_gamma 90.000000
_cell_volume 4380.460873
_symmetry_space_group_name_H-M "P 4/M M M"
_symmetry_group_IT_number 123
_symmetry_cell_setting 'tetragonal'
loop_
_space_group_symop_operation_xyz
x,y,z
-y,x,z
-x,-y,z
y,-x,z
x,-y,-z
-x,y,-z
y,x,-z
-y,-x,-z
-x,-y,-z
y,-x,-z
x,y,-z
-y,x,-z
-x,y,z
x,-y,z
-y,-x,z
y,x,z
loop_
_atom_site_type_symbol
_atom_site_label
_atom_site_fract_x
_atom_site_fract_y
_atom_site_fract_z
Si Si1 0.288048 0.118054 0.059249
Si Si2 0.210939 0.377335 0.380043
Si Si3 0.618491 0.784506 0.841044
Si Si4 0.885418 0.622699 0.268215
Si Si5 0.377002 0.000000 0.439387
O O1 0.189061 0.189061 0.064183
O O2 0.361558 0.149181 0.106755
O O3 0.261677 0.000000 0.063508
O O4 0.330799 0.135428 0.000000
O O5 0.228810 0.500000 0.386670
O O6 0.306355 0.306355 0.395724
O O7 0.185021 0.356751 0.318461
O O8 0.106154 0.349621 0.410790
O O9 0.500000 0.763772 0.834978
O O10 0.682217 0.682217 0.846860
O O11 0.655809 0.841913 0.788191
O O12 0.892018 0.500000 0.265852
O O13 0.000000 0.661380 0.276824
O O14 0.500000 0.000000 0.438939
O O15 0.341893 0.000000 0.500000
#
# Coordination Sequence:
#
# PCOD9561915 Si02
#       5
#    16  16  16  16   8
#     4   9  18  32  49  70  95 122 155 197 246 299
#     4  10  19  32  52  79 109 140 174 213 258 307
#     4  10  20  32  47  69  96 128 165 204 247 294
#     4   9  16  29  49  72  98 128 166 207 245 290
#     4   9  18  34  54  75 101 137 180 217 250 297
#
# _framework density 16.436627000000001
#
# number of rings (size 3 to 8) (size 9 to 14) (size 15 to 20)
#    0.000    2.556    1.111    1.333    0.000    2.889 
#    0.000    2.222    0.000    4.333    0.000    7.000 
#    0.000    0.000    0.000    0.000    0.000    0.000 
#
# Total GULP energy -400860.465180 kJ/mol
# GULP energy per Si atom -5567.506461 kJ/mol
# Density = 1.639922 g / cm^3
# Si number density = 16.436627 Si / 1000 Ang^3
#
#
#
# Elastic Constant Matrix: (Units=GPa)
#
#
# Indices 1 2 3 4 5 6 
#
# 1 73.7693 38.8837 32.1846 0.0000 0.0000 0.0000
# 2 38.8837 73.7693 32.1846 0.0000 0.0000 0.0000
# 3 32.1846 32.1846 102.5076 0.0000 0.0000 0.0000
# 4 0.0000 0.0000 0.0000 16.1911 0.0000 0.0000
# 5 0.0000 0.0000 0.0000 0.0000 16.1911 0.0000
# 6 0.0000 0.0000 0.0000 0.0000 0.0000 9.5413
#
#
#
# Elastic Compliance Matrix: (Units=1/GPa)
#
#
# Indices 1 2 3 4 5 6 
#
# 1 0.019741 -0.008924 -0.003396 0.000000 0.000000 0.000000
# 2 -0.008924 0.019741 -0.003396 0.000000 0.000000 0.000000
# 3 -0.003396 -0.003396 0.011888 0.000000 0.000000 0.000000
# 4 0.000000 0.000000 0.000000 0.061762 0.000000 0.000000
# 5 0.000000 0.000000 0.000000 0.000000 0.061762 0.000000
# 6 0.000000 0.000000 0.000000 0.000000 0.000000 0.104808
#
#
# Mechanical properties :
#
#
# Convention : Reuss Voigt Hill
#
# Bulk Modulus (GPa) = 50.15665 50.72797 50.44231
# Shear Modulus (GPa) = 15.73407 18.17094 16.95251
#
# Velocity S-wave (km/s) = 3.09731 3.32854 3.21500
# Velocity P-wave (km/s) = 6.58578 6.76032 6.67362
#
# Compressibility (1/GPa) = 0.01993754
#
# Stress axis : x y z
#
# Youngs Moduli (GPa) = 50.65520 50.65520 84.11758
#
# Poissons Ratio (x) = 0.45204 0.28570
# Poissons Ratio (y) = 0.45204 0.28570
# Poissons Ratio (z) = 0.17205 0.17205
#
# Static dielectric constant tensor:
#      x y z
#    x 1.538900 0.000000 0.000000 
#    y 0.000000 1.538900 0.000000 
#    z 0.000000 0.000000 1.585820 
# 
# From -- ./inp_files/7790.got.cif
#   From: 2010.05.17/outbox.cif.g08.bks.cpg/sg123_4_cif.got.tgz:7790.got - 2010.05.20 11:43:04.
