data_PCOD9561269
_publ_section_title
;
Structure prediction by ZEFSAII (Michael W. Deem and Ramdas Pophale) SiO2 
 PCOD9561269
Probable space group: I -4 2 D
;
_chemical_formula_sum "Si O2"
_cell_formula_units_Z 40
_cell_length_a 10.539612
_cell_length_b 10.539612
_cell_length_c 14.181340
_cell_angle_alpha 90.000000
_cell_angle_beta 90.000000
_cell_angle_gamma 90.000000
_cell_volume 1575.311763
_symmetry_space_group_name_H-M "I -4 2 D"
_symmetry_group_IT_number 122
_symmetry_cell_setting 'tetragonal'
loop_
_space_group_symop_operation_xyz
x,y,z
y,-x,-z
-x,-y,z
-y,x,-z
x,1/2-y,1/4-z
-x,1/2+y,1/4-z
-y,1/2-x,1/4+z
y,1/2+x,1/4+z
1/2+x,1/2+y,1/2+z
1/2+y,1/2-x,1/2-z
1/2-x,1/2-y,1/2+z
1/2-y,1/2+x,1/2-z
1/2+x,-y,3/4-z
1/2-x,y,3/4-z
1/2-y,-x,3/4+z
1/2+y,x,3/4+z
loop_
_atom_site_type_symbol
_atom_site_label
_atom_site_fract_x
_atom_site_fract_y
_atom_site_fract_z
Si Si1 0.395360 0.309339 0.221685
Si Si2 0.250000 0.354272 0.875000
Si Si3 0.205287 0.998173 0.977882
O O1 0.342896 0.250000 0.125000
O O2 0.545787 0.305534 0.202482
O O3 0.347988 0.228190 0.311911
O O4 0.331772 0.446330 0.226463
O O5 0.250000 0.958309 0.875000
O O6 0.110923 0.120476 0.976099
#
# Coordination Sequence:
#
# PCOD9561269 Si02
#       3
#    16   8  16
#     4  10  24  44  73 109 164 203 266 325 402 482
#     4  10  24  46  70 120 156 202 264 334 400 466
#     4  11  25  47  73 108 155 206 257 319 396 476
#
# _framework density 25.391798000000001
#
# number of rings (size 3 to 8) (size 9 to 14) (size 15 to 20)
#    1.200    0.400    2.000    1.200    5.600    0.800 
#    7.200    0.000    0.000    0.000    0.000    0.000 
#    0.000    0.000    0.000    0.000    0.000    0.000 
#
# Total GULP energy -111679.077004 kJ/mol
# GULP energy per Si atom -5583.953850 kJ/mol
# Density = 2.533401 g / cm^3
# Si number density = 25.391798 Si / 1000 Ang^3
#
#
#
# Elastic Constant Matrix: (Units=GPa)
#
#
# Indices 1 2 3 4 5 6 
#
# 1 136.2468 71.1133 61.8473 0.0000 0.0000 0.0000
# 2 71.1133 136.2468 61.8473 0.0000 0.0000 0.0000
# 3 61.8473 61.8473 145.8569 0.0000 0.0000 0.0000
# 4 0.0000 0.0000 0.0000 40.5568 0.0000 0.0000
# 5 0.0000 0.0000 0.0000 0.0000 40.5568 0.0000
# 6 0.0000 0.0000 0.0000 0.0000 0.0000 -43.9174
#
#
#
# Elastic Compliance Matrix: (Units=1/GPa)
#
#
# Indices 1 2 3 4 5 6 
#
# 1 0.010904 -0.004449 -0.002737 0.000000 0.000000 0.000000
# 2 -0.004449 0.010904 -0.002737 0.000000 0.000000 0.000000
# 3 -0.002737 -0.002737 0.009177 0.000000 0.000000 0.000000
# 4 0.000000 0.000000 0.000000 0.024657 0.000000 0.000000
# 5 0.000000 0.000000 0.000000 0.000000 0.024657 0.000000
# 6 0.000000 0.000000 0.000000 0.000000 0.000000 -0.022770
#
#
# Mechanical properties :
#
#
# Convention : Reuss Voigt Hill
#
# Bulk Modulus (GPa) = 89.77392 89.77403 89.77398
# Shear Modulus (GPa) = 61.66064 22.34210 42.00137
#
# Velocity S-wave (km/s) = 4.93319 2.96952 4.07151
# Velocity P-wave (km/s) = 8.23898 6.86947 7.58520
#
# Compressibility (1/GPa) = 0.01113909
#
# Stress axis : x y z
#
# Youngs Moduli (GPa) = 91.70769 91.70769 108.96378
#
# Poissons Ratio (x) = 0.40800 0.29826
# Poissons Ratio (y) = 0.40800 0.29826
# Poissons Ratio (z) = 0.25103 0.25103
#
# Static dielectric constant tensor:
#      x y z
#    x 2.018260 0.000000 0.000000 
#    y 0.000000 2.018260 0.000000 
#    z 0.000000 0.000000 2.107630 
# 
# From -- ./inp_files/4907.got.cif
#   From: 2010.05.17/outbox.cif.g08.bks.cpg/sg122_3_cif.got.tgz:4907.got - 2010.05.20 11:37:33.
