data_PCOD9561636
_publ_section_title
;
Structure prediction by ZEFSAII (Michael W. Deem and Ramdas Pophale) SiO2 
 PCOD9561636
Probable space group: P 4/M M M
;
_chemical_formula_sum "Si O2"
_cell_formula_units_Z 112
_cell_length_a 18.159469
_cell_length_b 18.159469
_cell_length_c 22.561675
_cell_angle_alpha 90.000000
_cell_angle_beta 90.000000
_cell_angle_gamma 90.000000
_cell_volume 7440.080411
_symmetry_space_group_name_H-M "P 4/M M M"
_symmetry_group_IT_number 123
_symmetry_cell_setting 'tetragonal'
loop_
_space_group_symop_operation_xyz
x,y,z
-y,x,z
-x,-y,z
y,-x,z
x,-y,-z
-x,y,-z
y,x,-z
-y,-x,-z
-x,-y,-z
y,-x,-z
x,y,-z
-y,x,-z
-x,y,z
x,-y,z
-y,-x,z
y,x,z
loop_
_atom_site_type_symbol
_atom_site_label
_atom_site_fract_x
_atom_site_fract_y
_atom_site_fract_z
Si Si1 0.291345 0.086103 0.245192
Si Si2 0.414297 0.295018 0.280065
Si Si3 0.584608 0.913853 0.428659
Si Si4 0.825663 0.584775 0.819887
Si Si5 0.682976 0.805068 0.931800
Si Si6 0.202890 0.085798 0.125525
Si Si7 0.309035 0.190364 0.644628
O O1 0.366793 0.113261 0.214040
O O2 0.231103 0.096302 0.193310
O O3 0.280397 0.138347 0.301734
O O4 0.294469 0.000000 0.261083
O O5 0.500000 0.302455 0.295351
O O6 0.371894 0.371894 0.274605
O O7 0.408605 0.248425 0.219288
O O8 0.369361 0.245866 0.327235
O O9 0.587298 0.908994 0.500000
O O10 0.500000 0.894684 0.410327
O O11 0.646125 0.861652 0.400233
O O12 0.596388 0.000000 0.412547
O O13 0.847294 0.500000 0.822342
O O14 0.811310 0.618420 0.884293
O O15 0.730529 0.730529 0.922972
O O16 0.739582 0.870679 0.915688
O O17 0.659804 0.809265 0.000000
O O18 0.124805 0.124805 0.118595
O O19 0.202335 0.000000 0.112438
O O20 0.241632 0.241632 0.622255
#
# Coordination Sequence:
#
# PCOD9561636 Si02
#       7
#    16  16  16  16  16  16  16
#     4   9  17  29  44  62  86 115 141 166 204 255
#     4   9  17  28  42  61  85 112 141 174 212 253
#     4   9  18  32  48  66  91 123 155 185 218 258
#     4   9  17  28  42  62  85 106 134 175 215 249
#     4   9  17  29  44  59  77 106 139 167 204 257
#     4   9  17  29  44  61  81 104 132 166 202 242
#     4  10  18  28  45  68  92 116 145 181 219 256
#
# _framework density 15.053601
#
# number of rings (size 3 to 8) (size 9 to 14) (size 15 to 20)
#    0.000    2.857    0.000    2.143    0.000    5.429 
#    0.000    0.000    0.000    0.000    0.000    6.000 
#    0.000    2.571    0.000   32.857    0.000    0.000 
#
# Total GULP energy -623818.441666 kJ/mol
# GULP energy per Si atom -5569.807515 kJ/mol
# Density = 1.501934 g / cm^3
# Si number density = 15.053601 Si / 1000 Ang^3
#
#
#
# Elastic Constant Matrix: (Units=GPa)
#
#
# Indices 1 2 3 4 5 6 
#
# 1 57.1394 42.3650 17.1884 0.0000 0.0000 0.0000
# 2 42.3650 57.1394 17.1884 0.0000 0.0000 0.0000
# 3 17.1884 17.1884 39.2921 0.0000 0.0000 0.0000
# 4 0.0000 0.0000 0.0000 13.7463 0.0000 0.0000
# 5 0.0000 0.0000 0.0000 0.0000 13.7463 0.0000
# 6 0.0000 0.0000 0.0000 0.0000 0.0000 19.1725
#
#
#
# Elastic Compliance Matrix: (Units=1/GPa)
#
#
# Indices 1 2 3 4 5 6 
#
# 1 0.039762 -0.027923 -0.005179 0.000000 0.000000 0.000000
# 2 -0.027923 0.039762 -0.005179 0.000000 0.000000 0.000000
# 3 -0.005179 -0.005179 0.029982 0.000000 0.000000 0.000000
# 4 0.000000 0.000000 0.000000 0.072747 0.000000 0.000000
# 5 0.000000 0.000000 0.000000 0.000000 0.072747 0.000000
# 6 0.000000 0.000000 0.000000 0.000000 0.000000 0.052158
#
#
# Mechanical properties :
#
#
# Convention : Reuss Voigt Hill
#
# Bulk Modulus (GPa) = 30.35491 34.11716 32.23603
# Shear Modulus (GPa) = 12.66785 14.45495 13.56140
#
# Velocity S-wave (km/s) = 2.90404 3.10212 3.00471
# Velocity P-wave (km/s) = 5.60829 5.96187 5.78778
#
# Compressibility (1/GPa) = 0.03294360
#
# Stress axis : x y z
#
# Youngs Moduli (GPa) = 25.14970 25.14970 33.35381
#
# Poissons Ratio (x) = 0.70225 0.17274
# Poissons Ratio (y) = 0.70225 0.17274
# Poissons Ratio (z) = 0.13025 0.13025
#
# Static dielectric constant tensor:
#      x y z
#    x 1.488140 0.000000 0.000000 
#    y 0.000000 1.488140 0.000000 
#    z 0.000000 0.000000 1.493220 
# 
# From -- ./inp_files/6648.got.cif
#   From: 2010.05.17/outbox.cif.g08.bks.cpg/sg123_4_cif.got.tgz:6648.got - 2010.05.20 11:43:04.
