data_PCOD9561175
_publ_section_title
;
Structure prediction by ZEFSAII (Michael W. Deem and Ramdas Pophale) SiO2 
 PCOD9561175
Probable space group: I -4 2 D
;
_chemical_formula_sum "Si O2"
_cell_formula_units_Z 60
_cell_length_a 20.594652
_cell_length_b 20.594652
_cell_length_c 5.434097
_cell_angle_alpha 90.000000
_cell_angle_beta 90.000000
_cell_angle_gamma 90.000000
_cell_volume 2304.816222
_symmetry_space_group_name_H-M "I -4 2 D"
_symmetry_group_IT_number 122
_symmetry_cell_setting 'tetragonal'
loop_
_space_group_symop_operation_xyz
x,y,z
y,-x,-z
-x,-y,z
-y,x,-z
x,1/2-y,1/4-z
-x,1/2+y,1/4-z
-y,1/2-x,1/4+z
y,1/2+x,1/4+z
1/2+x,1/2+y,1/2+z
1/2+y,1/2-x,1/2-z
1/2-x,1/2-y,1/2+z
1/2-y,1/2+x,1/2-z
1/2+x,-y,3/4-z
1/2-x,y,3/4-z
1/2-y,-x,3/4+z
1/2+y,x,3/4+z
loop_
_atom_site_type_symbol
_atom_site_label
_atom_site_fract_x
_atom_site_fract_y
_atom_site_fract_z
Si Si1 0.865573 0.117766 0.112581
Si Si2 0.000000 0.500000 0.750000
Si Si3 0.250000 0.208181 0.875000
Si Si4 0.053410 0.250000 0.125000
Si Si5 0.529891 0.250000 0.125000
Si Si6 0.972665 0.378037 0.485081
O O1 0.835577 0.186525 0.186284
O O2 0.866158 0.049958 0.262999
O O3 0.815378 0.096004 0.894626
O O4 0.940278 0.125071 0.032000
O O5 0.962059 0.449509 0.582173
O O6 0.261145 0.250000 0.625000
O O7 0.010831 0.247829 0.372010
O O8 0.564581 0.319258 0.131544
#
# Coordination Sequence:
#
# PCOD9561175 Si02
#       6
#    16   4   8   8   8  16
#     4  11  25  47  75 107 155 200 260 313 391 459
#     4  12  24  42  72 116 168 198 260 318 400 458
#     4  12  30  52  82 112 154 208 262 334 396 462
#     4  10  22  45  71 100 146 196 240 320 364 455
#     4  10  24  43  71 104 146 194 258 298 376 441
#     4  11  25  43  73 111 149 205 245 320 369 470
#
# _framework density 26.032447000000001
#
# number of rings (size 3 to 8) (size 9 to 14) (size 15 to 20)
#    0.000    1.067    1.333    3.200    7.467   11.733 
#    0.000    0.000    0.000    0.000    0.000    0.000 
#    0.000    0.000    0.000    0.000    0.000    0.000 
#
# Total GULP energy -167408.753144 kJ/mol
# GULP energy per Si atom -5580.291771 kJ/mol
# Density = 2.597320 g / cm^3
# Si number density = 26.032447 Si / 1000 Ang^3
#
#
#
# Elastic Constant Matrix: (Units=GPa)
#
#
# Indices 1 2 3 4 5 6 
#
# 1 139.9016 11.4982 36.7319 0.0000 0.0000 0.0000
# 2 11.4982 139.9016 36.7319 0.0000 0.0000 0.0000
# 3 36.7319 36.7319 103.4043 0.0000 0.0000 0.0000
# 4 0.0000 0.0000 0.0000 39.4814 0.0000 0.0000
# 5 0.0000 0.0000 0.0000 0.0000 39.4814 0.0000
# 6 0.0000 0.0000 0.0000 0.0000 0.0000 29.0111
#
#
#
# Elastic Compliance Matrix: (Units=1/GPa)
#
#
# Indices 1 2 3 4 5 6 
#
# 1 0.007884 0.000096 -0.002835 0.000000 0.000000 0.000000
# 2 0.000096 0.007884 -0.002835 0.000000 0.000000 0.000000
# 3 -0.002835 -0.002835 0.011685 0.000000 0.000000 0.000000
# 4 0.000000 0.000000 0.000000 0.025328 0.000000 0.000000
# 5 0.000000 0.000000 0.000000 0.000000 0.025328 0.000000
# 6 0.000000 0.000000 0.000000 0.000000 0.000000 0.034470
#
#
# Mechanical properties :
#
#
# Convention : Reuss Voigt Hill
#
# Bulk Modulus (GPa) = 61.32563 61.45907 61.39235
# Shear Modulus (GPa) = 38.71099 41.47780 40.09440
#
# Velocity S-wave (km/s) = 3.86038 3.99596 3.92876
# Velocity P-wave (km/s) = 6.59383 6.70449 6.64939
#
# Compressibility (1/GPa) = 0.01630639
#
# Stress axis : x y z
#
# Youngs Moduli (GPa) = 126.83450 126.83450 85.58085
#
# Poissons Ratio (x) = -0.01222 0.24262
# Poissons Ratio (y) = -0.01222 0.24262
# Poissons Ratio (z) = 0.35957 0.35957
#
# Static dielectric constant tensor:
#      x y z
#    x 2.148700 0.000000 0.000000 
#    y 0.000000 2.148700 0.000000 
#    z 0.000000 0.000000 2.037760 
# 
# From -- ./inp_files/1049.got.cif
#   From: 2010.05.17/outbox.cif.g08.bks.cpg/sg122_1_cif.got.tgz:1049.got - 2010.05.20 11:37:33.
