data_PCOD9561497
_publ_section_title
;
Structure prediction by ZEFSAII (Michael W. Deem and Ramdas Pophale) SiO2 
 PCOD9561497
Probable space group: I -4 2 D
;
_chemical_formula_sum "Si O2"
_cell_formula_units_Z 32
_cell_length_a 8.906088
_cell_length_b 8.906088
_cell_length_c 15.700565
_cell_angle_alpha 90.000000
_cell_angle_beta 90.000000
_cell_angle_gamma 90.000000
_cell_volume 1245.343749
_symmetry_space_group_name_H-M "I -4 2 D"
_symmetry_group_IT_number 122
_symmetry_cell_setting 'tetragonal'
loop_
_space_group_symop_operation_xyz
x,y,z
y,-x,-z
-x,-y,z
-y,x,-z
x,1/2-y,1/4-z
-x,1/2+y,1/4-z
-y,1/2-x,1/4+z
y,1/2+x,1/4+z
1/2+x,1/2+y,1/2+z
1/2+y,1/2-x,1/2-z
1/2-x,1/2-y,1/2+z
1/2-y,1/2+x,1/2-z
1/2+x,-y,3/4-z
1/2-x,y,3/4-z
1/2-y,-x,3/4+z
1/2+y,x,3/4+z
loop_
_atom_site_type_symbol
_atom_site_label
_atom_site_fract_x
_atom_site_fract_y
_atom_site_fract_z
Si Si1 0.263282 0.550985 0.518333
Si Si2 0.791675 0.946958 0.544562
O O1 0.401975 0.667828 0.523229
O O2 0.133392 0.633014 0.466443
O O3 0.202259 0.513068 0.611550
O O4 0.921408 0.826135 0.523063
#
# Coordination Sequence:
#
# PCOD9561497 Si02
#       2
#    16  16
#     4  11  27  51  78 112 153 202 256 317 386 463
#     4  11  27  51  78 112 153 202 256 317 386 463
#
# _framework density 25.695716000000001
#
# number of rings (size 3 to 8) (size 9 to 14) (size 15 to 20)
#    0.000    1.000    0.000    3.000    0.000   34.000 
#    0.000    0.000    0.000    0.000    0.000    0.000 
#    0.000    0.000    0.000    0.000    0.000    0.000 
#
# Total GULP energy -89871.376650 kJ/mol
# GULP energy per Si atom -5616.961041 kJ/mol
# Density = 2.563723 g / cm^3
# Si number density = 25.695716 Si / 1000 Ang^3
#
#
#
# Elastic Constant Matrix: (Units=GPa)
#
#
# Indices 1 2 3 4 5 6 
#
# 1 80.4036 40.9152 7.7321 0.0000 0.0000 0.0000
# 2 40.9152 80.4036 7.7321 0.0000 0.0000 0.0000
# 3 7.7321 7.7321 76.2749 0.0000 0.0000 0.0000
# 4 0.0000 0.0000 0.0000 47.3333 0.0000 0.0000
# 5 0.0000 0.0000 0.0000 0.0000 47.3333 0.0000
# 6 0.0000 0.0000 0.0000 0.0000 0.0000 62.9970
#
#
#
# Elastic Compliance Matrix: (Units=1/GPa)
#
#
# Indices 1 2 3 4 5 6 
#
# 1 0.016837 -0.008487 -0.000847 0.000000 0.000000 0.000000
# 2 -0.008487 0.016837 -0.000847 0.000000 0.000000 0.000000
# 3 -0.000847 -0.000847 0.013282 0.000000 0.000000 0.000000
# 4 0.000000 0.000000 0.000000 0.021127 0.000000 0.000000
# 5 0.000000 0.000000 0.000000 0.000000 0.021127 0.000000
# 6 0.000000 0.000000 0.000000 0.000000 0.000000 0.015874
#
#
# Mechanical properties :
#
#
# Convention : Reuss Voigt Hill
#
# Bulk Modulus (GPa) = 37.59775 38.87120 38.23448
# Shear Modulus (GPa) = 37.22757 43.57954 40.40355
#
# Velocity S-wave (km/s) = 3.81042 4.12270 3.96963
# Velocity P-wave (km/s) = 5.83290 6.15001 5.99355
#
# Compressibility (1/GPa) = 0.02659733
#
# Stress axis : x y z
#
# Youngs Moduli (GPa) = 59.39207 59.39207 75.28927
#
# Poissons Ratio (x) = 0.50404 0.06373
# Poissons Ratio (y) = 0.50404 0.06373
# Poissons Ratio (z) = 0.05028 0.05028
#
# Static dielectric constant tensor:
#      x y z
#    x 2.037700 0.000000 0.000000 
#    y 0.000000 2.037700 0.000000 
#    z 0.000000 0.000000 1.909290 
# 
# From -- ./inp_files/6551.got.cif
#   From: 2010.05.17/outbox.cif.g08.bks.cpg/sg122_4_cif.got.tgz:6551.got - 2010.05.20 11:37:33.
