data_PCOD9561729
_publ_section_title
;
Structure prediction by ZEFSAII (Michael W. Deem and Ramdas Pophale) SiO2 
 PCOD9561729
Probable space group: P 4/M M M
;
_chemical_formula_sum "Si O2"
_cell_formula_units_Z 120
_cell_length_a 18.596654
_cell_length_b 18.596654
_cell_length_c 23.205338
_cell_angle_alpha 90.000000
_cell_angle_beta 90.000000
_cell_angle_gamma 90.000000
_cell_volume 8025.230598
_symmetry_space_group_name_H-M "P 4/M M M"
_symmetry_group_IT_number 123
_symmetry_cell_setting 'tetragonal'
loop_
_space_group_symop_operation_xyz
x,y,z
-y,x,z
-x,-y,z
y,-x,z
x,-y,-z
-x,y,-z
y,x,-z
-y,-x,-z
-x,-y,-z
y,-x,-z
x,y,-z
-y,x,-z
-x,y,z
x,-y,z
-y,-x,z
y,x,z
loop_
_atom_site_type_symbol
_atom_site_label
_atom_site_fract_x
_atom_site_fract_y
_atom_site_fract_z
Si Si1 0.800964 0.915983 0.821893
Si Si2 0.354304 0.087317 0.630185
Si Si3 0.280607 0.086052 0.063655
Si Si4 0.084613 0.795888 0.569328
Si Si5 0.087615 0.500000 0.433468
Si Si6 0.582369 0.298602 0.067151
Si Si7 0.852988 0.417318 0.875644
Si Si8 0.084933 0.351914 0.237301
O O1 0.865908 0.865908 0.803386
O O2 0.772885 0.892251 0.885194
O O3 0.731464 0.909170 0.781185
O O4 0.821045 0.000000 0.824135
O O5 0.278380 0.107229 0.600697
O O6 0.426046 0.111413 0.596857
O O7 0.359805 0.108817 0.696983
O O8 0.354519 0.000000 0.629185
O O9 0.360442 0.105490 0.084616
O O10 0.275673 0.000000 0.061313
O O11 0.265639 0.115638 0.000000
O O12 0.088046 0.785142 0.500000
O O13 0.138040 0.861961 0.583831
O O14 0.000000 0.810577 0.583356
O O15 0.109024 0.500000 0.500000
O O16 0.000000 0.500000 0.431450
O O17 0.500000 0.323891 0.072862
O O18 0.638935 0.361066 0.078764
O O19 0.592558 0.230503 0.108319
O O20 0.591564 0.275436 0.000000
O O21 0.872079 0.500000 0.887545
O O22 0.872058 0.397443 0.809970
O O23 0.000000 0.371257 0.232742
#
# Coordination Sequence:
#
# PCOD9561729 Si02
#       8
#    16  16  16  16   8  16  16  16
#     4   9  18  32  47  63  83 108 143 189 234 274
#     4   9  17  29  45  65  89 118 150 186 226 265
#     4   9  18  31  44  60  83 112 144 176 220 277
#     4   9  17  29  45  65  91 123 157 193 231 267
#     4   9  16  26  44  70  94 114 143 184 224 265
#     4   9  18  32  48  66  87 109 136 173 216 260
#     4  10  19  29  43  64  89 113 140 177 213 250
#     4   9  19  32  44  61  86 117 149 177 211 259
#
# _framework density 14.952840999999999
#
# number of rings (size 3 to 8) (size 9 to 14) (size 15 to 20)
#    0.000    2.867    0.000    2.000    0.933    6.800 
#    0.000    2.000    0.000    0.000    0.000    5.600 
#    0.000    0.000    0.000    0.000    0.000    0.333 
#
# Total GULP energy -668287.126708 kJ/mol
# GULP energy per Si atom -5569.059389 kJ/mol
# Density = 1.491881 g / cm^3
# Si number density = 14.952841 Si / 1000 Ang^3
#
#
#
# Elastic Constant Matrix: (Units=GPa)
#
#
# Indices 1 2 3 4 5 6 
#
# 1 54.8108 40.0446 32.0980 0.0000 0.0000 0.0000
# 2 40.0446 54.8108 32.0980 0.0000 0.0000 0.0000
# 3 32.0980 32.0980 90.7436 0.0000 0.0000 0.0000
# 4 0.0000 0.0000 0.0000 7.1103 0.0000 0.0000
# 5 0.0000 0.0000 0.0000 0.0000 7.1103 0.0000
# 6 0.0000 0.0000 0.0000 0.0000 0.0000 19.9694
#
#
#
# Elastic Compliance Matrix: (Units=1/GPa)
#
#
# Indices 1 2 3 4 5 6 
#
# 1 0.040791 -0.026931 -0.004903 0.000000 0.000000 0.000000
# 2 -0.026931 0.040791 -0.004903 0.000000 0.000000 0.000000
# 3 -0.004903 -0.004903 0.014488 0.000000 0.000000 0.000000
# 4 0.000000 0.000000 0.000000 0.140640 0.000000 0.000000
# 5 0.000000 0.000000 0.000000 0.000000 0.140640 0.000000
# 6 0.000000 0.000000 0.000000 0.000000 0.000000 0.050077
#
#
# Mechanical properties :
#
#
# Convention : Reuss Voigt Hill
#
# Bulk Modulus (GPa) = 44.25096 45.42737 44.83916
# Shear Modulus (GPa) = 9.83410 13.24630 11.54020
#
# Velocity S-wave (km/s) = 2.56730 2.97959 2.78109
# Velocity P-wave (km/s) = 6.20048 6.50259 6.35333
#
# Compressibility (1/GPa) = 0.02259838
#
# Stress axis : x y z
#
# Youngs Moduli (GPa) = 24.51492 24.51492 69.02037
#
# Poissons Ratio (x) = 0.66021 0.33839
# Poissons Ratio (y) = 0.66021 0.33839
# Poissons Ratio (z) = 0.12019 0.12019
#
# Static dielectric constant tensor:
#      x y z
#    x 1.482180 0.000000 0.000000 
#    y 0.000000 1.482180 0.000000 
#    z 0.000000 0.000000 1.510950 
# 
# From -- ./inp_files/7685.got.cif
#   From: 2010.05.17/outbox.cif.g08.bks.cpg/sg123_4_cif.got.tgz:7685.got - 2010.05.20 11:43:04.
