data_PCOD9561984
_publ_section_title
;
Structure prediction by ZEFSAII (Michael W. Deem and Ramdas Pophale) SiO2 
 PCOD9561984
Probable space group: P 4/M M M
;
_chemical_formula_sum "Si O2"
_cell_formula_units_Z 80
_cell_length_a 13.554317
_cell_length_b 13.554317
_cell_length_c 26.072550
_cell_angle_alpha 90.000000
_cell_angle_beta 90.000000
_cell_angle_gamma 90.000000
_cell_volume 4790.036093
_symmetry_space_group_name_H-M "P 4/M M M"
_symmetry_group_IT_number 123
_symmetry_cell_setting 'tetragonal'
loop_
_space_group_symop_operation_xyz
x,y,z
-y,x,z
-x,-y,z
y,-x,z
x,-y,-z
-x,y,-z
y,x,-z
-y,-x,-z
-x,-y,-z
y,-x,-z
x,y,-z
-y,x,-z
-x,y,z
x,-y,z
-y,-x,z
y,x,z
loop_
_atom_site_type_symbol
_atom_site_label
_atom_site_fract_x
_atom_site_fract_y
_atom_site_fract_z
Si Si1 0.115910 0.720533 0.349736
Si Si2 0.386063 0.119715 0.056941
Si Si3 0.117946 0.276851 0.160809
Si Si4 0.222288 0.384466 0.439900
Si Si5 0.219657 0.616525 0.254420
O O1 0.178008 0.821993 0.348442
O O2 0.143072 0.665169 0.402569
O O3 0.158466 0.653669 0.303717
O O4 0.000000 0.735683 0.344288
O O5 0.500000 0.150930 0.064265
O O6 0.319789 0.147299 0.105134
O O7 0.386676 0.000000 0.056301
O O8 0.353389 0.152257 0.000000
O O9 0.173355 0.173355 0.168916
O O10 0.158410 0.350361 0.204302
O O11 0.000000 0.268567 0.163728
O O12 0.196169 0.374343 0.500000
O O13 0.234000 0.500000 0.428463
O O14 0.323585 0.323585 0.431594
O O15 0.234879 0.500000 0.255762
O O16 0.321218 0.678783 0.254013
#
# Coordination Sequence:
#
# PCOD9561984 Si02
#       5
#    16  16  16  16  16
#     4  10  21  36  53  74 100 130 166 206 245 287
#     4   8  14  26  45  67  89 116 154 200 247 291
#     4  10  20  32  47  69  97 130 168 207 245 287
#     4   9  18  32  50  74 103 133 166 204 246 294
#     4  10  21  36  54  77 102 127 158 196 240 292
#
# _framework density 16.701335
#
# number of rings (size 3 to 8) (size 9 to 14) (size 15 to 20)
#    0.000    2.600    0.000    2.400    0.000    5.200 
#    0.000    2.000    0.000    7.200    0.000    5.600 
#    0.000    0.000    0.000   18.600    0.000    1.000 
#
# Total GULP energy -445989.775216 kJ/mol
# GULP energy per Si atom -5574.872190 kJ/mol
# Density = 1.666332 g / cm^3
# Si number density = 16.701335 Si / 1000 Ang^3
#
#
#
# Elastic Constant Matrix: (Units=GPa)
#
#
# Indices 1 2 3 4 5 6 
#
# 1 212.3214 -28.4863 55.6432 0.0000 0.0000 0.0000
# 2 -28.4863 212.3214 55.6432 0.0000 0.0000 0.0000
# 3 55.6432 55.6432 87.5031 0.0000 0.0000 0.0000
# 4 0.0000 0.0000 0.0000 22.6083 0.0000 0.0000
# 5 0.0000 0.0000 0.0000 0.0000 22.6083 0.0000
# 6 0.0000 0.0000 0.0000 0.0000 0.0000 4.5249
#
#
#
# Elastic Compliance Matrix: (Units=1/GPa)
#
#
# Indices 1 2 3 4 5 6 
#
# 1 0.006498 0.002346 -0.005624 0.000000 0.000000 0.000000
# 2 0.002346 0.006498 -0.005624 0.000000 0.000000 0.000000
# 3 -0.005624 -0.005624 0.018581 0.000000 0.000000 0.000000
# 4 0.000000 0.000000 0.000000 0.044232 0.000000 0.000000
# 5 0.000000 0.000000 0.000000 0.000000 0.044232 0.000000
# 6 0.000000 0.000000 0.000000 0.000000 0.000000 0.220997
#
#
# Mechanical properties :
#
#
# Convention : Reuss Voigt Hill
#
# Bulk Modulus (GPa) = 72.60525 75.30510 73.95518
# Shear Modulus (GPa) = 13.75768 38.57138 26.16453
#
# Velocity S-wave (km/s) = 2.87321 4.81092 3.96234
# Velocity P-wave (km/s) = 7.38744 8.72050 8.08150
#
# Compressibility (1/GPa) = 0.01377311
#
# Stress axis : x y z
#
# Youngs Moduli (GPa) = 153.88276 153.88276 53.81904
#
# Poissons Ratio (x) = -0.36097 0.30268
# Poissons Ratio (y) = -0.36097 0.30268
# Poissons Ratio (z) = 0.86544 0.86544
#
# Static dielectric constant tensor:
#      x y z
#    x 1.538010 0.000000 0.000000 
#    y 0.000000 1.538010 0.000000 
#    z 0.000000 0.000000 1.584260 
# 
# From -- ./inp_files/8313.got.cif
#   From: 2010.05.17/outbox.cif.g08.bks.cpg/sg123_5_cif.got.tgz:8313.got - 2010.05.20 11:43:04.
