data_PCOD9561808
_publ_section_title
;
Structure prediction by ZEFSAII (Michael W. Deem and Ramdas Pophale) SiO2 
 PCOD9561808
Probable space group: P 4/M M M
;
_chemical_formula_sum "Si O2"
_cell_formula_units_Z 72
_cell_length_a 12.676065
_cell_length_b 12.676065
_cell_length_c 28.678303
_cell_angle_alpha 90.000000
_cell_angle_beta 90.000000
_cell_angle_gamma 90.000000
_cell_volume 4608.104975
_symmetry_space_group_name_H-M "P 4/M M M"
_symmetry_group_IT_number 123
_symmetry_cell_setting 'tetragonal'
loop_
_space_group_symop_operation_xyz
x,y,z
-y,x,z
-x,-y,z
y,-x,z
x,-y,-z
-x,y,-z
y,x,-z
-y,-x,-z
-x,-y,-z
y,-x,-z
x,y,-z
-y,x,-z
-x,y,z
x,-y,z
-y,-x,z
y,x,z
loop_
_atom_site_type_symbol
_atom_site_label
_atom_site_fract_x
_atom_site_fract_y
_atom_site_fract_z
Si Si1 0.877389 0.298718 0.312788
Si Si2 0.500000 0.877502 0.379717
Si Si3 0.628290 0.000000 0.946476
Si Si4 0.205245 0.378523 0.111189
Si Si5 0.500000 0.674331 0.555952
Si Si6 0.296126 0.124104 0.793985
O O1 0.795615 0.204386 0.322487
O O2 0.863911 0.396410 0.347544
O O3 0.860071 0.334662 0.259060
O O4 0.000000 0.263157 0.315684
O O5 0.500000 0.786219 0.418376
O O6 0.500000 0.000000 0.396745
O O7 0.659889 0.105038 0.918857
O O8 0.500000 0.000000 0.946166
O O9 0.663496 0.000000 0.000000
O O10 0.226329 0.500000 0.099890
O O11 0.304595 0.304595 0.102449
O O12 0.172829 0.367586 0.165507
O O13 0.397759 0.602242 0.568007
O O14 0.500000 0.687667 0.500000
O O15 0.184610 0.184610 0.797175
O O16 0.285885 0.000000 0.802021
#
# Coordination Sequence:
#
# PCOD9561808 Si02
#       6
#    16   8   8  16   8  16
#     4   9  18  30  45  67  94 127 162 199 240 285
#     4  10  19  30  46  72 101 130 157 198 248 294
#     4   9  18  34  54  75  95 119 155 196 235 283
#     4  10  20  33  51  74  97 128 161 195 239 285
#     4   9  18  33  53  73  93 126 171 211 245 283
#     4   9  17  29  46  69  96 126 163 199 237 285
#
# _framework density 15.624643000000001
#
# number of rings (size 3 to 8) (size 9 to 14) (size 15 to 20)
#    0.000    2.667    1.111    1.000    1.556    1.333 
#    0.000    2.222    0.000    0.333    0.000    3.889 
#    0.000    0.000    0.000   20.667    0.000    0.222 
#
# Total GULP energy -401062.480766 kJ/mol
# GULP energy per Si atom -5570.312233 kJ/mol
# Density = 1.558908 g / cm^3
# Si number density = 15.624643 Si / 1000 Ang^3
#
#
#
# Elastic Constant Matrix: (Units=GPa)
#
#
# Indices 1 2 3 4 5 6 
#
# 1 97.6910 60.0712 47.0535 0.0000 0.0000 0.0000
# 2 60.0712 97.6910 47.0535 0.0000 0.0000 0.0000
# 3 47.0535 47.0535 66.9327 0.0000 0.0000 0.0000
# 4 0.0000 0.0000 0.0000 19.5989 0.0000 0.0000
# 5 0.0000 0.0000 0.0000 0.0000 19.5989 0.0000
# 6 0.0000 0.0000 0.0000 0.0000 0.0000 11.7732
#
#
#
# Elastic Compliance Matrix: (Units=1/GPa)
#
#
# Indices 1 2 3 4 5 6 
#
# 1 0.018749 -0.007833 -0.007674 0.000000 0.000000 0.000000
# 2 -0.007833 0.018749 -0.007674 0.000000 0.000000 0.000000
# 3 -0.007674 -0.007674 0.025730 0.000000 0.000000 0.000000
# 4 0.000000 0.000000 0.000000 0.051023 0.000000 0.000000
# 5 0.000000 0.000000 0.000000 0.000000 0.051023 0.000000
# 6 0.000000 0.000000 0.000000 0.000000 0.000000 0.084939
#
#
# Mechanical properties :
#
#
# Convention : Reuss Voigt Hill
#
# Bulk Modulus (GPa) = 59.28992 63.40787 61.34890
# Shear Modulus (GPa) = 16.54545 17.40330 16.97437
#
# Velocity S-wave (km/s) = 3.25766 3.34104 3.29961
# Velocity P-wave (km/s) = 7.22347 7.45342 7.33935
#
# Compressibility (1/GPa) = 0.01686627
#
# Stress axis : x y z
#
# Youngs Moduli (GPa) = 53.33597 53.33597 38.86479
#
# Poissons Ratio (x) = 0.41776 0.29826
# Poissons Ratio (y) = 0.41776 0.29826
# Poissons Ratio (z) = 0.40931 0.40931
#
# Static dielectric constant tensor:
#      x y z
#    x 1.505800 0.000000 0.000000 
#    y 0.000000 1.505800 0.000000 
#    z 0.000000 0.000000 1.522470 
# 
# From -- ./inp_files/8300.got.cif
#   From: 2010.05.17/outbox.cif.g08.bks.cpg/sg123_5_cif.got.tgz:8300.got - 2010.05.20 11:43:04.
