data_PCOD9561807
_publ_section_title
;
Structure prediction by ZEFSAII (Michael W. Deem and Ramdas Pophale) SiO2 
 PCOD9561807
Probable space group: P 4/M M M
;
_chemical_formula_sum "Si O2"
_cell_formula_units_Z 120
_cell_length_a 18.326991
_cell_length_b 18.326991
_cell_length_c 21.393674
_cell_angle_alpha 90.000000
_cell_angle_beta 90.000000
_cell_angle_gamma 90.000000
_cell_volume 7185.677253
_symmetry_space_group_name_H-M "P 4/M M M"
_symmetry_group_IT_number 123
_symmetry_cell_setting 'tetragonal'
loop_
_space_group_symop_operation_xyz
x,y,z
-y,x,z
-x,-y,z
y,-x,z
x,-y,-z
-x,y,-z
y,x,-z
-y,-x,-z
-x,-y,-z
y,-x,-z
x,y,-z
-y,x,-z
-x,y,z
x,-y,z
-y,-x,z
y,x,z
loop_
_atom_site_type_symbol
_atom_site_label
_atom_site_fract_x
_atom_site_fract_y
_atom_site_fract_z
Si Si1 0.200959 0.675876 0.604037
Si Si2 0.585750 0.296710 0.154673
Si Si3 0.588334 0.287460 0.500000
Si Si4 0.792972 0.914133 0.601708
Si Si5 0.587074 0.153981 0.927584
Si Si6 0.084240 0.797443 0.753073
Si Si7 0.084068 0.643280 0.810411
Si Si8 0.797854 0.417434 0.272662
O O1 0.259298 0.740703 0.611914
O O2 0.238809 0.617574 0.558057
O O3 0.128345 0.718982 0.581076
O O4 0.190748 0.636167 0.669886
O O5 0.500000 0.312488 0.153582
O O6 0.634221 0.365780 0.140486
O O7 0.599736 0.232485 0.104773
O O8 0.603496 0.265967 0.224063
O O9 0.500000 0.297736 0.500000
O O10 0.636740 0.363261 0.500000
O O11 0.863517 0.863517 0.583920
O O12 0.788933 0.912417 0.677705
O O13 0.797905 0.000000 0.583232
O O14 0.500000 0.139472 0.923466
O O15 0.629569 0.098288 0.883177
O O16 0.607869 0.152628 0.000000
O O17 0.136812 0.863189 0.770507
O O18 0.107907 0.723267 0.787141
O O19 0.000000 0.811834 0.769248
O O20 0.131462 0.586194 0.771506
O O21 0.000000 0.635755 0.794769
O O22 0.785104 0.500000 0.294589
#
# Coordination Sequence:
#
# PCOD9561807 Si02
#       8
#    16  16   8  16  16  16  16  16
#     4  10  19  33  54  76 102 137 175 215 257 305
#     4   9  18  31  47  68  92 118 152 193 239 294
#     4  10  22  39  59  83 108 138 178 222 266 312
#     4   9  17  30  50  76 105 138 173 210 254 299
#     4   9  19  34  48  64  90 124 160 199 244 292
#     4   9  17  29  46  70  99 128 159 198 241 287
#     4  10  19  30  46  71  99 125 159 200 242 290
#     4  10  19  30  47  70  96 128 162 200 246 298
#
# _framework density 16.699887
#
# number of rings (size 3 to 8) (size 9 to 14) (size 15 to 20)
#    0.000    2.533    1.333    2.000    0.000    4.200 
#    0.000    2.333    0.000    1.600    0.000    3.733 
#    0.000    2.667    0.000    2.933    0.000    0.133 
#
# Total GULP energy -668483.959569 kJ/mol
# GULP energy per Si atom -5570.699663 kJ/mol
# Density = 1.666188 g / cm^3
# Si number density = 16.699887 Si / 1000 Ang^3
#
#
#
# Elastic Constant Matrix: (Units=GPa)
#
#
# Indices 1 2 3 4 5 6 
#
# 1 61.8021 32.9673 15.2854 0.0000 0.0000 0.0000
# 2 32.9673 61.8023 15.2854 0.0000 0.0000 0.0000
# 3 15.2854 15.2854 65.1463 0.0000 0.0000 0.0000
# 4 0.0000 0.0000 0.0000 11.3982 0.0000 0.0000
# 5 0.0000 0.0000 0.0000 0.0000 11.3986 0.0000
# 6 0.0000 0.0000 0.0000 0.0000 0.0000 47.4075
#
#
#
# Elastic Compliance Matrix: (Units=1/GPa)
#
#
# Indices 1 2 3 4 5 6 
#
# 1 0.023048 -0.011632 -0.002679 0.000000 0.000000 0.000000
# 2 -0.011632 0.023048 -0.002679 0.000000 0.000000 0.000000
# 3 -0.002679 -0.002679 0.016607 0.000000 0.000000 0.000000
# 4 0.000000 0.000000 0.000000 0.087733 0.000000 0.000000
# 5 0.000000 0.000000 0.000000 0.000000 0.087730 0.000000
# 6 0.000000 0.000000 0.000000 0.000000 0.000000 0.021094
#
#
# Mechanical properties :
#
#
# Convention : Reuss Voigt Hill
#
# Bulk Modulus (GPa) = 34.81318 35.09187 34.95253
# Shear Modulus (GPa) = 16.51183 22.38839 19.45011
#
# Velocity S-wave (km/s) = 3.14783 3.66544 3.41645
# Velocity P-wave (km/s) = 5.83981 6.24282 6.04467
#
# Compressibility (1/GPa) = 0.02872475
#
# Stress axis : x y z
#
# Youngs Moduli (GPa) = 43.38757 43.38769 60.21559
#
# Poissons Ratio (x) = 0.50469 0.16129
# Poissons Ratio (y) = 0.50469 0.16129
# Poissons Ratio (z) = 0.11622 0.11622
#
# Static dielectric constant tensor:
#      x y z
#    x 1.564250 0.000000 0.000000 
#    y 0.000000 1.564250 0.000000 
#    z 0.000000 0.000000 1.578860 
# 
# From -- ./inp_files/6787.got.cif
#   From: 2010.05.17/outbox.cif.g08.bks.cpg/sg123_4_cif.got.tgz:6787.got - 2010.05.20 11:43:04.
