data_PCOD9561120
_publ_section_title
;
Structure prediction by ZEFSAII (Michael W. Deem and Ramdas Pophale) SiO2 
 PCOD9561120
Probable space group: I -4 2 D
;
_chemical_formula_sum "Si O2"
_cell_formula_units_Z 72
_cell_length_a 17.413431
_cell_length_b 17.413431
_cell_length_c 12.119525
_cell_angle_alpha 90.000000
_cell_angle_beta 90.000000
_cell_angle_gamma 90.000000
_cell_volume 3674.974227
_symmetry_space_group_name_H-M "I -4 2 D"
_symmetry_group_IT_number 122
_symmetry_cell_setting 'tetragonal'
loop_
_space_group_symop_operation_xyz
x,y,z
y,-x,-z
-x,-y,z
-y,x,-z
x,1/2-y,1/4-z
-x,1/2+y,1/4-z
-y,1/2-x,1/4+z
y,1/2+x,1/4+z
1/2+x,1/2+y,1/2+z
1/2+y,1/2-x,1/2-z
1/2-x,1/2-y,1/2+z
1/2-y,1/2+x,1/2-z
1/2+x,-y,3/4-z
1/2-x,y,3/4-z
1/2-y,-x,3/4+z
1/2+y,x,3/4+z
loop_
_atom_site_type_symbol
_atom_site_label
_atom_site_fract_x
_atom_site_fract_y
_atom_site_fract_z
Si Si1 0.691670 0.622553 0.977999
Si Si2 0.604355 0.664325 0.468385
Si Si3 0.685755 0.466940 0.114177
Si Si4 0.658465 0.514002 0.354104
Si Si5 0.273362 0.250000 0.625000
O O1 0.750000 0.622944 0.875000
O O2 0.606965 0.645583 0.938087
O O3 0.689966 0.539542 0.034533
O O4 0.722878 0.685973 0.064088
O O5 0.558949 0.728804 0.400372
O O6 0.633032 0.598355 0.387864
O O7 0.549554 0.627008 0.561402
O O8 0.672265 0.707631 0.535085
O O9 0.644421 0.491905 0.228061
O O10 0.750000 0.509972 0.375000
#
# Coordination Sequence:
#
# PCOD9561120 Si02
#       5
#    16  16  16  16   8
#     4  12  27  45  70 100 139 185 236 289 350 431
#     4  11  21  42  70 103 135 174 227 291 355 418
#     4  11  26  44  65 103 139 182 235 286 347 426
#     4  10  22  41  67 102 135 172 228 292 349 419
#     4  12  22  42  76 102 130 180 236 290 352 422
#
# _framework density 19.591972999999999
#
# number of rings (size 3 to 8) (size 9 to 14) (size 15 to 20)
#    0.000    0.889    5.556    2.667    7.778    0.889 
#    0.000    2.222    0.000    0.000    0.000    0.000 
#    0.000    0.000    0.000    0.000    0.000    0.000 
#
# Total GULP energy -201330.405425 kJ/mol
# GULP energy per Si atom -5592.511262 kJ/mol
# Density = 1.954738 g / cm^3
# Si number density = 19.591973 Si / 1000 Ang^3
#
#
#
# Elastic Constant Matrix: (Units=GPa)
#
#
# Indices 1 2 3 4 5 6 
#
# 1 126.6369 60.0703 76.4891 0.0000 0.0000 0.0000
# 2 60.0703 126.6369 76.4891 0.0000 0.0000 0.0000
# 3 76.4891 76.4891 110.7549 0.0000 0.0000 0.0000
# 4 0.0000 0.0000 0.0000 37.1637 0.0000 0.0000
# 5 0.0000 0.0000 0.0000 0.0000 37.1637 0.0000
# 6 0.0000 0.0000 0.0000 0.0000 0.0000 12.2125
#
#
#
# Elastic Compliance Matrix: (Units=1/GPa)
#
#
# Indices 1 2 3 4 5 6 
#
# 1 0.013680 -0.001343 -0.008520 0.000000 0.000000 0.000000
# 2 -0.001343 0.013680 -0.008520 0.000000 0.000000 0.000000
# 3 -0.008520 -0.008520 0.020797 0.000000 0.000000 0.000000
# 4 0.000000 0.000000 0.000000 0.026908 0.000000 0.000000
# 5 0.000000 0.000000 0.000000 0.000000 0.026908 0.000000
# 6 0.000000 0.000000 0.000000 0.000000 0.000000 0.081883
#
#
# Mechanical properties :
#
#
# Convention : Reuss Voigt Hill
#
# Bulk Modulus (GPa) = 87.79112 87.79175 87.79143
# Shear Modulus (GPa) = 22.27983 27.37332 24.82657
#
# Velocity S-wave (km/s) = 3.37589 3.74193 3.56361
# Velocity P-wave (km/s) = 7.75258 7.97350 7.86382
#
# Compressibility (1/GPa) = 0.01139067
#
# Stress axis : x y z
#
# Youngs Moduli (GPa) = 73.10110 73.10110 48.08374
#
# Poissons Ratio (x) = 0.09816 0.40967
# Poissons Ratio (y) = 0.09816 0.40967
# Poissons Ratio (z) = 0.62282 0.62282
#
# Static dielectric constant tensor:
#      x y z
#    x 1.674850 0.000000 0.000000 
#    y 0.000000 1.674850 0.000000 
#    z 0.000000 0.000000 1.697500 
# 
# From -- ./inp_files/4204.got.cif
#   From: 2010.05.17/outbox.cif.g08.bks.cpg/sg122_3_cif.got.tgz:4204.got - 2010.05.20 11:37:33.
