data_PCOD9561026
_publ_section_title
;
Structure prediction by ZEFSAII (Michael W. Deem and Ramdas Pophale) SiO2 
 PCOD9561026
Probable space group: I -4 2 D
;
_chemical_formula_sum "Si O2"
_cell_formula_units_Z 80
_cell_length_a 11.288333
_cell_length_b 11.288333
_cell_length_c 26.437068
_cell_angle_alpha 90.000000
_cell_angle_beta 90.000000
_cell_angle_gamma 90.000000
_cell_volume 3368.782039
_symmetry_space_group_name_H-M "I -4 2 D"
_symmetry_group_IT_number 122
_symmetry_cell_setting 'tetragonal'
loop_
_space_group_symop_operation_xyz
x,y,z
y,-x,-z
-x,-y,z
-y,x,-z
x,1/2-y,1/4-z
-x,1/2+y,1/4-z
-y,1/2-x,1/4+z
y,1/2+x,1/4+z
1/2+x,1/2+y,1/2+z
1/2+y,1/2-x,1/2-z
1/2-x,1/2-y,1/2+z
1/2-y,1/2+x,1/2-z
1/2+x,-y,3/4-z
1/2-x,y,3/4-z
1/2-y,-x,3/4+z
1/2+y,x,3/4+z
loop_
_atom_site_type_symbol
_atom_site_label
_atom_site_fract_x
_atom_site_fract_y
_atom_site_fract_z
Si Si1 0.208248 0.108099 0.630151
Si Si2 0.731586 0.648547 0.723248
Si Si3 0.535773 0.321715 0.695535
Si Si4 0.923542 0.895153 0.915448
Si Si5 0.165196 0.941717 0.284268
O O1 0.243813 0.250000 0.625000
O O2 0.225371 0.063823 0.573103
O O3 0.084677 0.116756 0.659758
O O4 0.287144 0.015220 0.661688
O O5 0.603716 0.700077 0.705941
O O6 0.840586 0.736876 0.725323
O O7 0.712337 0.571712 0.773272
O O8 0.560183 0.382339 0.640975
O O9 0.611036 0.199949 0.695020
O O10 0.575055 0.406267 0.740401
O O11 0.000000 0.000000 0.938512
#
# Coordination Sequence:
#
# PCOD9561026 Si02
#       5
#    16  16  16  16  16
#     4  10  21  40  67  98 135 181 234 289 355 438
#     4  11  23  46  69  97 139 185 241 294 363 435
#     4  11  23  39  67 100 137 180 223 295 366 416
#     4  11  19  36  64  96 133 180 218 279 359 424
#     4  11  24  41  72  95 136 186 234 299 362 440
#
# _framework density 23.747454000000001
#
# number of rings (size 3 to 8) (size 9 to 14) (size 15 to 20)
#    0.000    1.200    4.000    3.000    5.600    0.400 
#    0.000    0.000   39.600    0.000    0.000    0.000 
#    0.000    0.000    0.000    0.000    0.000    0.000 
#
# Total GULP energy -223125.927119 kJ/mol
# GULP energy per Si atom -5578.148178 kJ/mol
# Density = 2.369340 g / cm^3
# Si number density = 23.747454 Si / 1000 Ang^3
#
#
#
# Elastic Constant Matrix: (Units=GPa)
#
#
# Indices 1 2 3 4 5 6 
#
# 1 95.9678 23.8754 7.2718 0.0000 0.0000 0.0000
# 2 23.8754 95.9677 7.2717 0.0000 0.0000 0.0000
# 3 7.2718 7.2717 37.4618 0.0000 0.0000 0.0000
# 4 0.0000 0.0000 0.0000 28.2782 0.0000 0.0000
# 5 0.0000 0.0000 0.0000 0.0000 28.2782 0.0000
# 6 0.0000 0.0000 0.0000 0.0000 0.0000 41.5592
#
#
#
# Elastic Compliance Matrix: (Units=1/GPa)
#
#
# Indices 1 2 3 4 5 6 
#
# 1 0.011208 -0.002663 -0.001659 0.000000 0.000000 0.000000
# 2 -0.002663 0.011208 -0.001659 0.000000 0.000000 0.000000
# 3 -0.001659 -0.001659 0.027338 0.000000 0.000000 0.000000
# 4 0.000000 0.000000 0.000000 0.035363 0.000000 0.000000
# 5 0.000000 0.000000 0.000000 0.000000 0.035363 0.000000
# 6 0.000000 0.000000 0.000000 0.000000 0.000000 0.024062
#
#
# Mechanical properties :
#
#
# Convention : Reuss Voigt Hill
#
# Bulk Modulus (GPa) = 26.45940 34.02614 30.24277
# Shear Modulus (GPa) = 29.56815 32.35504 30.96159
#
# Velocity S-wave (km/s) = 3.53244 3.69516 3.61471
# Velocity P-wave (km/s) = 5.27292 5.70658 5.49403
#
# Compressibility (1/GPa) = 0.03779376
#
# Stress axis : x y z
#
# Youngs Moduli (GPa) = 89.21942 89.21942 36.57937
#
# Poissons Ratio (x) = 0.23757 0.06068
# Poissons Ratio (y) = 0.23757 0.06068
# Poissons Ratio (z) = 0.14800 0.14800
#
# Static dielectric constant tensor:
#      x y z
#    x 1.966600 0.000000 0.000000 
#    y 0.000000 1.966600 0.000000 
#    z 0.000000 0.000000 1.984450 
# 
# From -- ./inp_files/9349.got.cif
#   From: 2010.05.17/outbox.cif.g08.bks.cpg/sg122_5_cif.got.tgz:9349.got - 2010.05.20 11:37:33.
