data_PCOD9561084
_publ_section_title
;
Structure prediction by ZEFSAII (Michael W. Deem and Ramdas Pophale) SiO2 
 PCOD9561084
Probable space group: I -4 2 D
;
_chemical_formula_sum "Si O2"
_cell_formula_units_Z 96
_cell_length_a 15.557127
_cell_length_b 15.557127
_cell_length_c 17.617968
_cell_angle_alpha 90.000000
_cell_angle_beta 90.000000
_cell_angle_gamma 90.000000
_cell_volume 4263.974620
_symmetry_space_group_name_H-M "I -4 2 D"
_symmetry_group_IT_number 122
_symmetry_cell_setting 'tetragonal'
loop_
_space_group_symop_operation_xyz
x,y,z
y,-x,-z
-x,-y,z
-y,x,-z
x,1/2-y,1/4-z
-x,1/2+y,1/4-z
-y,1/2-x,1/4+z
y,1/2+x,1/4+z
1/2+x,1/2+y,1/2+z
1/2+y,1/2-x,1/2-z
1/2-x,1/2-y,1/2+z
1/2-y,1/2+x,1/2-z
1/2+x,-y,3/4-z
1/2-x,y,3/4-z
1/2-y,-x,3/4+z
1/2+y,x,3/4+z
loop_
_atom_site_type_symbol
_atom_site_label
_atom_site_fract_x
_atom_site_fract_y
_atom_site_fract_z
Si Si1 0.016184 0.232132 0.040983
Si Si2 0.848074 0.738926 0.788530
Si Si3 0.181216 0.514691 0.931784
Si Si4 0.398718 0.668442 0.914450
Si Si5 0.430635 0.353342 0.836730
Si Si6 0.800367 0.645978 0.211488
O O1 0.984662 0.250000 0.125000
O O2 0.112368 0.197518 0.046705
O O3 0.021731 0.314100 0.985786
O O4 0.944103 0.175663 0.000547
O O5 0.937555 0.780568 0.755519
O O6 0.830715 0.648223 0.745018
O O7 0.862731 0.713931 0.876245
O O8 0.771830 0.802767 0.761138
O O9 0.250000 0.472808 0.875000
O O10 0.148148 0.593998 0.882268
O O11 0.109892 0.442278 0.939923
O O12 0.497732 0.641823 0.903471
O O13 0.375726 0.755932 0.869515
#
# Coordination Sequence:
#
# PCOD9561084 Si02
#       6
#    16  16  16  16  16  16
#     4  11  26  44  69  92 129 172 230 290 335 401
#     4  10  22  38  68  97 139 172 218 278 341 422
#     4   9  20  38  57  93 140 176 212 262 324 400
#     4   9  20  41  61  95 136 176 210 265 337 413
#     4  11  24  36  65 102 128 181 222 265 343 414
#     4  10  23  45  68  91 126 176 226 281 351 395
#
# _framework density 22.514203999999999
#
# number of rings (size 3 to 8) (size 9 to 14) (size 15 to 20)
#    0.000    2.000    0.000    3.000    9.333    3.000 
#    0.000    0.000   11.000    0.000    0.000    0.000 
#    0.000    0.000    0.000    0.000    0.000    0.000 
#
# Total GULP energy -268026.917857 kJ/mol
# GULP energy per Si atom -5583.894122 kJ/mol
# Density = 2.246296 g / cm^3
# Si number density = 22.514204 Si / 1000 Ang^3
#
#
#
# Elastic Constant Matrix: (Units=GPa)
#
#
# Indices 1 2 3 4 5 6 
#
# 1 72.5275 17.1585 8.9319 0.0000 0.0000 0.0000
# 2 17.1585 72.5275 8.9319 0.0000 0.0000 0.0000
# 3 8.9319 8.9319 78.4094 0.0000 0.0000 0.0000
# 4 0.0000 0.0000 0.0000 20.1176 0.0000 0.0000
# 5 0.0000 0.0000 0.0000 0.0000 20.1176 0.0000
# 6 0.0000 0.0000 0.0000 0.0000 0.0000 -61.6919
#
#
#
# Elastic Compliance Matrix: (Units=1/GPa)
#
#
# Indices 1 2 3 4 5 6 
#
# 1 0.014735 -0.003326 -0.001300 0.000000 0.000000 0.000000
# 2 -0.003326 0.014735 -0.001300 0.000000 0.000000 0.000000
# 3 -0.001300 -0.001300 0.013050 0.000000 0.000000 0.000000
# 4 0.000000 0.000000 0.000000 0.049708 0.000000 0.000000
# 5 0.000000 0.000000 0.000000 0.000000 0.049708 0.000000
# 6 0.000000 0.000000 0.000000 0.000000 0.000000 -0.016210
#
#
# Mechanical properties :
#
#
# Convention : Reuss Voigt Hill
#
# Bulk Modulus (GPa) = 32.60630 32.61209 32.60919
# Shear Modulus (GPa) = 33.82992 8.27149 21.05071
#
# Velocity S-wave (km/s) = 3.88055 1.91882 3.06109
# Velocity P-wave (km/s) = 5.88151 4.40746 5.19701
#
# Compressibility (1/GPa) = 0.03066892
#
# Stress axis : x y z
#
# Youngs Moduli (GPa) = 67.86680 67.86680 76.63030
#
# Poissons Ratio (x) = 0.22572 0.09959
# Poissons Ratio (y) = 0.22572 0.09959
# Poissons Ratio (z) = 0.08820 0.08820
#
# Static dielectric constant tensor:
#      x y z
#    x 1.905040 0.000000 0.000000 
#    y 0.000000 1.905040 0.000000 
#    z 0.000000 0.000000 1.895800 
# 
# From -- ./inp_files/7310.got.cif
#   From: 2010.05.17/outbox.cif.g08.bks.cpg/sg122_4_cif.got.tgz:7310.got - 2010.05.20 11:37:33.
