data_PCOD9561945
_publ_section_title
;
Structure prediction by ZEFSAII (Michael W. Deem and Ramdas Pophale) SiO2 
 PCOD9561945
Probable space group: P 4/M M M
;
_chemical_formula_sum "Si O2"
_cell_formula_units_Z 76
_cell_length_a 13.039517
_cell_length_b 13.039517
_cell_length_c 26.308728
_cell_angle_alpha 90.000000
_cell_angle_beta 90.000000
_cell_angle_gamma 90.000000
_cell_volume 4473.246808
_symmetry_space_group_name_H-M "P 4/M M M"
_symmetry_group_IT_number 123
_symmetry_cell_setting 'tetragonal'
loop_
_space_group_symop_operation_xyz
x,y,z
-y,x,z
-x,-y,z
y,-x,z
x,-y,-z
-x,y,-z
y,x,-z
-y,-x,-z
-x,-y,-z
y,-x,-z
x,y,-z
-y,x,-z
-x,y,z
x,-y,z
-y,-x,z
y,x,z
loop_
_atom_site_type_symbol
_atom_site_label
_atom_site_fract_x
_atom_site_fract_y
_atom_site_fract_z
Si Si1 0.875687 0.500000 0.441645
Si Si2 0.120823 0.708214 0.382262
Si Si3 0.121818 0.878183 0.000000
Si Si4 0.614324 0.614324 0.939022
Si Si5 0.214902 0.620506 0.715993
Si Si6 0.616897 0.879089 0.172719
Si Si7 0.776364 0.223637 0.099048
O O1 0.840842 0.500000 0.500000
O O2 0.846757 0.393865 0.413736
O O3 0.000000 0.500000 0.441124
O O4 0.195650 0.804351 0.393504
O O5 0.138962 0.676016 0.323529
O O6 0.000000 0.729158 0.391448
O O7 0.169296 0.830705 0.051502
O O8 0.000000 0.859656 0.000000
O O9 0.500000 0.639569 0.920791
O O10 0.695570 0.695570 0.922586
O O11 0.611513 0.611513 0.000000
O O12 0.217956 0.500000 0.704701
O O13 0.323809 0.676192 0.709620
O O14 0.178501 0.632860 0.773962
O O15 0.500000 0.854588 0.154479
O O16 0.706844 0.850384 0.133817
O O17 0.619435 0.000000 0.182536
#
# Coordination Sequence:
#
# PCOD9561945 Si02
#       7
#     8  16   4   8  16  16   8
#     4   9  18  34  56  83 113 149 199 245 280 333
#     4  10  20  34  56  84 114 154 195 239 294 347
#     4  11  26  44  60  77 100 140 190 233 272 318
#     4   9  18  33  54  79 106 134 162 198 250 315
#     4  10  19  34  55  81 113 149 187 227 279 341
#     4  10  21  35  54  81 110 138 172 220 271 324
#     4  12  20  38  58  80 105 138 178 220 266 318
#
# _framework density 16.989895000000001
#
# number of rings (size 3 to 8) (size 9 to 14) (size 15 to 20)
#    0.000    1.947    2.632    2.211    0.000    1.684 
#    0.000    0.000    0.000    2.842    0.000    3.684 
#    0.000    0.000    0.000    0.000    0.000    0.000 
#
# Total GULP energy -423621.061952 kJ/mol
# GULP energy per Si atom -5573.961341 kJ/mol
# Density = 1.695123 g / cm^3
# Si number density = 16.989895 Si / 1000 Ang^3
#
#
#
# Elastic Constant Matrix: (Units=GPa)
#
#
# Indices 1 2 3 4 5 6 
#
# 1 92.8024 62.2217 29.9271 0.0000 0.0000 0.0000
# 2 62.2217 92.8029 29.9272 0.0000 0.0000 0.0000
# 3 29.9271 29.9272 68.9724 0.0000 0.0000 0.0000
# 4 0.0000 0.0000 0.0000 25.3544 0.0000 0.0000
# 5 0.0000 0.0000 0.0000 0.0000 25.3543 0.0000
# 6 0.0000 0.0000 0.0000 0.0000 0.0000 24.1191
#
#
#
# Elastic Compliance Matrix: (Units=1/GPa)
#
#
# Indices 1 2 3 4 5 6 
#
# 1 0.020224 -0.012476 -0.003362 0.000000 0.000000 0.000000
# 2 -0.012476 0.020224 -0.003362 0.000000 0.000000 0.000000
# 3 -0.003362 -0.003362 0.017416 0.000000 0.000000 0.000000
# 4 0.000000 0.000000 0.000000 0.039441 0.000000 0.000000
# 5 0.000000 0.000000 0.000000 0.000000 0.039441 0.000000
# 6 0.000000 0.000000 0.000000 0.000000 0.000000 0.041461
#
#
# Mechanical properties :
#
#
# Convention : Reuss Voigt Hill
#
# Bulk Modulus (GPa) = 51.37426 55.41441 53.39433
# Shear Modulus (GPa) = 22.41183 23.79900 23.10542
#
# Velocity S-wave (km/s) = 3.63592 3.74675 3.69175
# Velocity P-wave (km/s) = 6.92317 7.16969 7.04751
#
# Compressibility (1/GPa) = 0.01946500
#
# Stress axis : x y z
#
# Youngs Moduli (GPa) = 49.44503 49.44527 57.41771
#
# Poissons Ratio (x) = 0.61687 0.19305
# Poissons Ratio (y) = 0.61686 0.19305
# Poissons Ratio (z) = 0.16624 0.16624
#
# Static dielectric constant tensor:
#      x y z
#    x 1.566410 0.000000 0.000000 
#    y 0.000000 1.566410 0.000000 
#    z 0.000000 0.000000 1.597350 
# 
# From -- ./inp_files/8429.got.cif
#   From: 2010.05.17/outbox.cif.g08.bks.cpg/sg123_5_cif.got.tgz:8429.got - 2010.05.20 11:43:04.
