data_PCOD9561991
_publ_section_title
;
Structure prediction by ZEFSAII (Michael W. Deem and Ramdas Pophale) SiO2 
 PCOD9561991
Probable space group: P 4/M M M
;
_chemical_formula_sum "Si O2"
_cell_formula_units_Z 120
_cell_length_a 21.878657
_cell_length_b 21.878657
_cell_length_c 13.999926
_cell_angle_alpha 90.000000
_cell_angle_beta 90.000000
_cell_angle_gamma 90.000000
_cell_volume 6701.423428
_symmetry_space_group_name_H-M "P 4/M M M"
_symmetry_group_IT_number 123
_symmetry_cell_setting 'tetragonal'
loop_
_space_group_symop_operation_xyz
x,y,z
-y,x,z
-x,-y,z
y,-x,z
x,-y,-z
-x,y,-z
y,x,-z
-y,-x,-z
-x,-y,-z
y,-x,-z
x,y,-z
-y,x,-z
-x,y,z
x,-y,z
-y,-x,z
y,x,z
loop_
_atom_site_type_symbol
_atom_site_label
_atom_site_fract_x
_atom_site_fract_y
_atom_site_fract_z
Si Si1 0.892742 0.366016 0.387316
Si Si2 0.330363 0.430864 0.736732
Si Si3 0.190766 0.294331 0.115362
Si Si4 0.500000 0.930195 0.615062
Si Si5 0.172024 0.070919 0.395314
Si Si6 0.727482 0.930907 0.764003
Si Si7 0.751694 0.654013 0.611597
Si Si8 0.233140 0.431564 0.885829
O O1 0.911045 0.359606 0.500000
O O2 0.896487 0.437407 0.360826
O O3 0.931006 0.329004 0.310303
O O4 0.823760 0.342274 0.376673
O O5 0.341851 0.500000 0.708167
O O6 0.389581 0.389581 0.730026
O O7 0.278603 0.400098 0.671003
O O8 0.300847 0.429427 0.841820
O O9 0.246514 0.246514 0.140966
O O10 0.125800 0.277557 0.163392
O O11 0.204002 0.365764 0.142715
O O12 0.186045 0.292016 0.000000
O O13 0.500000 0.933908 0.500000
O O14 0.500000 0.000000 0.651718
O O15 0.202188 0.082640 0.500000
O O16 0.114149 0.114149 0.389364
O O17 0.216067 0.081635 0.306907
O O18 0.154538 0.000000 0.393726
O O19 0.733045 0.000000 0.805235
O O20 0.740360 0.642149 0.500000
O O21 0.716139 0.716139 0.637745
O O22 0.208357 0.500000 0.855559
O O23 0.233105 0.431619 0.000000
#
# Coordination Sequence:
#
# PCOD9561991 Si02
#       8
#    16  16  16   8  16  16  16  16
#     4  10  20  33  52  75 101 139 178 215 260 313
#     4  10  20  32  48  70  98 132 167 207 255 312
#     4  10  21  38  60  82 104 136 180 226 270 320
#     4   9  18  32  48  68  97 133 176 218 249 292
#     4   9  18  32  51  77 109 144 180 217 260 313
#     4  11  22  35  52  77 109 144 179 219 266 314
#     4   9  19  34  50  72 100 129 169 222 271 309
#     4   9  18  34  57  82 105 128 158 204 263 322
#
# _framework density 17.906642999999999
#
# number of rings (size 3 to 8) (size 9 to 14) (size 15 to 20)
#    0.000    2.333    0.000    2.400    0.933    5.067 
#    1.200    2.000    0.000    0.000    0.000    5.600 
#    0.000    0.000    0.000   12.400    0.000    0.133 
#
# Total GULP energy -668593.556286 kJ/mol
# GULP energy per Si atom -5571.612969 kJ/mol
# Density = 1.786589 g / cm^3
# Si number density = 17.906643 Si / 1000 Ang^3
#
#
#
# Elastic Constant Matrix: (Units=GPa)
#
#
# Indices 1 2 3 4 5 6 
#
# 1 89.9554 47.4693 34.5836 0.0000 0.0000 0.0000
# 2 47.4693 89.9554 34.5836 0.0000 0.0000 0.0000
# 3 34.5836 34.5836 47.3694 0.0000 0.0000 0.0000
# 4 0.0000 0.0000 0.0000 13.3657 0.0000 0.0000
# 5 0.0000 0.0000 0.0000 0.0000 13.3657 0.0000
# 6 0.0000 0.0000 0.0000 0.0000 0.0000 -3.3925
#
#
#
# Elastic Compliance Matrix: (Units=1/GPa)
#
#
# Indices 1 2 3 4 5 6 
#
# 1 0.017521 -0.006017 -0.008399 0.000000 0.000000 0.000000
# 2 -0.006017 0.017521 -0.008399 0.000000 0.000000 0.000000
# 3 -0.008399 -0.008399 0.033374 0.000000 0.000000 0.000000
# 4 0.000000 0.000000 0.000000 0.074818 0.000000 0.000000
# 5 0.000000 0.000000 0.000000 0.000000 0.074818 0.000000
# 6 0.000000 0.000000 0.000000 0.000000 0.000000 -0.294769
#
#
# Mechanical properties :
#
#
# Convention : Reuss Voigt Hill
#
# Bulk Modulus (GPa) = 43.88485 51.17257 47.52871
# Shear Modulus (GPa) = -212.82630 12.04404 -100.39113
#
# Velocity S-wave (km/s) = -10.91381 2.59627 -7.49569
# Velocity P-wave (km/s) = 11.58681 6.13408 6.95080
#
# Compressibility (1/GPa) = 0.02278691
#
# Stress axis : x y z
#
# Youngs Moduli (GPa) = 57.07596 57.07596 29.96317
#
# Poissons Ratio (x) = 0.34340 0.25165
# Poissons Ratio (y) = 0.34340 0.25165
# Poissons Ratio (z) = 0.47937 0.47937
#
# Static dielectric constant tensor:
#      x y z
#    x 1.616930 0.000000 0.000000 
#    y 0.000000 1.616930 0.000000 
#    z 0.000000 0.000000 1.627850 
# 
# From -- ./inp_files/4618.got.cif
#   From: 2010.05.17/outbox.cif.g08.bks.cpg/sg123_3_cif.got.tgz:4618.got - 2010.05.20 11:43:04.
