data_PCOD9561177
_publ_section_title
;
Structure prediction by ZEFSAII (Michael W. Deem and Ramdas Pophale) SiO2 
 PCOD9561177
Probable space group: I -4 2 D
;
_chemical_formula_sum "Si O2"
_cell_formula_units_Z 112
_cell_length_a 30.869447
_cell_length_b 30.869447
_cell_length_c 5.220633
_cell_angle_alpha 90.000000
_cell_angle_beta 90.000000
_cell_angle_gamma 90.000000
_cell_volume 4974.859997
_symmetry_space_group_name_H-M "I -4 2 D"
_symmetry_group_IT_number 122
_symmetry_cell_setting 'tetragonal'
loop_
_space_group_symop_operation_xyz
x,y,z
y,-x,-z
-x,-y,z
-y,x,-z
x,1/2-y,1/4-z
-x,1/2+y,1/4-z
-y,1/2-x,1/4+z
y,1/2+x,1/4+z
1/2+x,1/2+y,1/2+z
1/2+y,1/2-x,1/2-z
1/2-x,1/2-y,1/2+z
1/2-y,1/2+x,1/2-z
1/2+x,-y,3/4-z
1/2-x,y,3/4-z
1/2-y,-x,3/4+z
1/2+y,x,3/4+z
loop_
_atom_site_type_symbol
_atom_site_label
_atom_site_fract_x
_atom_site_fract_y
_atom_site_fract_z
Si Si1 0.404156 0.662421 0.526605
Si Si2 0.136769 0.799447 0.547532
Si Si3 0.367143 0.922595 0.554289
Si Si4 0.370963 0.295090 0.985135
Si Si5 0.276415 0.539506 0.138492
Si Si6 0.972701 0.562866 0.779056
Si Si7 0.143784 0.501803 0.418001
O O1 0.398365 0.684909 0.254710
O O2 0.384878 0.613932 0.503280
O O3 0.453583 0.655037 0.596685
O O4 0.380320 0.688909 0.759716
O O5 0.145267 0.750000 0.625000
O O6 0.179692 0.828294 0.599953
O O7 0.329766 0.896376 0.410882
O O8 0.407316 0.939411 0.381007
O O9 0.348326 0.964058 0.694020
O O10 0.360187 0.250000 0.125000
O O11 0.410032 0.285226 0.791676
O O12 0.250000 0.519382 0.375000
O O13 0.322414 0.516035 0.113768
O O14 0.250000 0.538181 0.875000
O O15 0.950747 0.517637 0.863054
O O16 0.989886 0.594444 0.000488
#
# Coordination Sequence:
#
# PCOD9561177 Si02
#       7
#    16  16  16  16  16  16  16
#     4  11  27  45  73 102 143 193 242 288 360 427
#     4  11  26  50  74 104 143 188 235 295 359 439
#     4  11  24  42  67  99 142 186 237 294 360 419
#     4  10  22  45  72 104 139 181 233 294 358 431
#     4  11  24  41  64 101 140 178 235 300 354 416
#     4  11  25  43  66 101 143 190 247 298 349 419
#     4  12  25  40  69  98 140 195 240 297 357 428
#
# _framework density 22.513197000000002
#
# number of rings (size 3 to 8) (size 9 to 14) (size 15 to 20)
#    0.000    1.000    2.857    3.000    6.000    4.000 
#    0.000    5.714    0.000    0.000    0.000    0.000 
#    0.000    0.000    0.000    0.000    0.000    0.000 
#
# Total GULP energy -312932.177049 kJ/mol
# GULP energy per Si atom -5588.074590 kJ/mol
# Density = 2.246196 g / cm^3
# Si number density = 22.513197 Si / 1000 Ang^3
#
#
#
# Elastic Constant Matrix: (Units=GPa)
#
#
# Indices 1 2 3 4 5 6 
#
# 1 117.6151 39.2112 14.0836 0.0000 0.0000 0.0000
# 2 39.2112 117.6151 14.0836 0.0000 0.0000 0.0000
# 3 14.0836 14.0836 56.1176 0.0000 0.0000 0.0000
# 4 0.0000 0.0000 0.0000 26.6277 0.0000 0.0000
# 5 0.0000 0.0000 0.0000 0.0000 26.6277 0.0000
# 6 0.0000 0.0000 0.0000 0.0000 0.0000 16.0606
#
#
#
# Elastic Compliance Matrix: (Units=1/GPa)
#
#
# Indices 1 2 3 4 5 6 
#
# 1 0.009716 -0.003038 -0.001676 0.000000 0.000000 0.000000
# 2 -0.003038 0.009716 -0.001676 0.000000 0.000000 0.000000
# 3 -0.001676 -0.001676 0.018661 0.000000 0.000000 0.000000
# 4 0.000000 0.000000 0.000000 0.037555 0.000000 0.000000
# 5 0.000000 0.000000 0.000000 0.000000 0.037555 0.000000
# 6 0.000000 0.000000 0.000000 0.000000 0.000000 0.062264
#
#
# Mechanical properties :
#
#
# Convention : Reuss Voigt Hill
#
# Bulk Modulus (GPa) = 39.50614 47.34498 43.42556
# Shear Modulus (GPa) = 25.42141 28.79448 27.10795
#
# Velocity S-wave (km/s) = 3.36397 3.58020 3.47377
# Velocity P-wave (km/s) = 5.71616 6.17786 5.95149
#
# Compressibility (1/GPa) = 0.02531252
#
# Stress axis : x y z
#
# Youngs Moduli (GPa) = 102.92337 102.92337 53.58811
#
# Poissons Ratio (x) = 0.31273 0.08980
# Poissons Ratio (y) = 0.31273 0.08980
# Poissons Ratio (z) = 0.17248 0.17248
#
# Static dielectric constant tensor:
#      x y z
#    x 1.864130 0.000000 0.000000 
#    y 0.000000 1.864130 0.000000 
#    z 0.000000 0.000000 1.891190 
# 
# From -- ./inp_files/1544.got.cif
#   From: 2010.05.17/outbox.cif.g08.bks.cpg/sg122_1_cif.got.tgz:1544.got - 2010.05.20 11:37:33.
