data_PCOD9561673
_publ_section_title
;
Structure prediction by ZEFSAII (Michael W. Deem and Ramdas Pophale) SiO2 
 PCOD9561673
Probable space group: P 4/M M M
;
_chemical_formula_sum "Si O2"
_cell_formula_units_Z 96
_cell_length_a 24.966102
_cell_length_b 24.966102
_cell_length_c 7.323208
_cell_angle_alpha 90.000000
_cell_angle_beta 90.000000
_cell_angle_gamma 90.000000
_cell_volume 4564.601310
_symmetry_space_group_name_H-M "P 4/M M M"
_symmetry_group_IT_number 123
_symmetry_cell_setting 'tetragonal'
loop_
_space_group_symop_operation_xyz
x,y,z
-y,x,z
-x,-y,z
y,-x,z
x,-y,-z
-x,y,-z
y,x,-z
-y,-x,-z
-x,-y,-z
y,-x,-z
x,y,-z
-y,x,-z
-x,y,z
x,-y,z
-y,-x,z
y,x,z
loop_
_atom_site_type_symbol
_atom_site_label
_atom_site_fract_x
_atom_site_fract_y
_atom_site_fract_z
Si Si1 0.556686 0.918925 0.215471
Si Si2 0.141956 0.754055 0.705749
Si Si3 0.762362 0.320597 0.722123
Si Si4 0.850036 0.936780 0.278190
Si Si5 0.791827 0.440324 0.719065
Si Si6 0.328412 0.944087 0.220388
O O1 0.500000 0.936279 0.293504
O O2 0.560576 0.854992 0.237119
O O3 0.611084 0.942751 0.286848
O O4 0.555726 0.931334 0.000000
O O5 0.155049 0.770387 0.500000
O O6 0.194032 0.724009 0.787681
O O7 0.104784 0.802406 0.784147
O O8 0.102889 0.704188 0.698016
O O9 0.768287 0.321420 0.500000
O O10 0.704713 0.295288 0.765080
O O11 0.770167 0.382217 0.784047
O O12 0.846283 0.938140 0.500000
O O13 0.905798 0.905798 0.232345
O O14 0.846503 0.000000 0.219478
O O15 0.785382 0.440510 0.500000
O O16 0.772311 0.500000 0.782695
O O17 0.301657 0.000000 0.266210
O O18 0.328622 0.938441 0.000000
#
# Coordination Sequence:
#
# PCOD9561673 Si02
#       6
#    16  16  16  16  16  16
#     4   9  17  29  44  60  81 112 148 183 218 255
#     4  10  18  30  47  66  86 112 143 176 215 260
#     4   9  16  26  43  67  91 115 143 176 215 257
#     4   9  17  28  43  64  87 110 139 176 218 266
#     4   9  16  27  44  65  88 114 145 181 217 252
#     4  10  20  31  43  61  86 115 147 183 219 257
#
# _framework density 21.031410999999999
#
# number of rings (size 3 to 8) (size 9 to 14) (size 15 to 20)
#    0.000    2.667    1.667    1.000    0.000    3.500 
#    0.000    2.500    0.000    3.500    0.000    3.500 
#    0.000    0.333    0.000    8.167    0.000    3.333 
#
# Total GULP energy -534726.457259 kJ/mol
# GULP energy per Si atom -5570.067263 kJ/mol
# Density = 2.098354 g / cm^3
# Si number density = 21.031411 Si / 1000 Ang^3
#
#
#
# Elastic Constant Matrix: (Units=GPa)
#
#
# Indices 1 2 3 4 5 6 
#
# 1 132.6512 106.0059 7.7880 0.0000 0.0000 0.0000
# 2 106.0059 132.6512 7.7880 0.0000 0.0000 0.0000
# 3 7.7880 7.7880 81.8665 0.0000 0.0000 0.0000
# 4 0.0000 0.0000 0.0000 -5.9411 0.0000 0.0000
# 5 0.0000 0.0000 0.0000 0.0000 -5.9411 0.0000
# 6 0.0000 0.0000 0.0000 0.0000 0.0000 9.5858
#
#
#
# Elastic Compliance Matrix: (Units=1/GPa)
#
#
# Indices 1 2 3 4 5 6 
#
# 1 0.020873 -0.016657 -0.000401 0.000000 0.000000 0.000000
# 2 -0.016657 0.020873 -0.000401 0.000000 0.000000 0.000000
# 3 -0.000401 -0.000401 0.012291 0.000000 0.000000 0.000000
# 4 0.000000 0.000000 0.000000 -0.168319 0.000000 0.000000
# 5 0.000000 0.000000 0.000000 0.000000 -0.168319 0.000000
# 6 0.000000 0.000000 0.000000 0.000000 0.000000 0.104321
#
#
# Mechanical properties :
#
#
# Convention : Reuss Voigt Hill
#
# Bulk Modulus (GPa) = 52.30261 65.59253 58.94757
# Shear Modulus (GPa) = -36.49982 14.57984 -10.95999
#
# Velocity S-wave (km/s) = -4.17044 2.63580 -2.28529
# Velocity P-wave (km/s) = 1.31632 6.36544 4.59628
#
# Compressibility (1/GPa) = 0.01911950
#
# Stress axis : x y z
#
# Youngs Moduli (GPa) = 47.90845 47.90845 81.35821
#
# Poissons Ratio (x) = 0.79800 0.03263
# Poissons Ratio (y) = 0.79800 0.03263
# Poissons Ratio (z) = 0.01922 0.01922
#
# Static dielectric constant tensor:
#      x y z
#    x 1.765700 0.000000 0.000000 
#    y 0.000000 1.765700 0.000000 
#    z 0.000000 0.000000 1.805230 
# 
# From -- ./inp_files/1659.got.cif
#   From: 2010.05.17/outbox.cif.g08.bks.cpg/sg123_1_cif.got.tgz:1659.got - 2010.05.20 11:43:04.
