data_PCOD9561192
_publ_section_title
;
Structure prediction by ZEFSAII (Michael W. Deem and Ramdas Pophale) SiO2 
 PCOD9561192
Probable space group: I -4 2 D
;
_chemical_formula_sum "Si O2"
_cell_formula_units_Z 84
_cell_length_a 16.277370
_cell_length_b 16.277370
_cell_length_c 16.245862
_cell_angle_alpha 90.000000
_cell_angle_beta 90.000000
_cell_angle_gamma 90.000000
_cell_volume 4304.386205
_symmetry_space_group_name_H-M "I -4 2 D"
_symmetry_group_IT_number 122
_symmetry_cell_setting 'tetragonal'
loop_
_space_group_symop_operation_xyz
x,y,z
y,-x,-z
-x,-y,z
-y,x,-z
x,1/2-y,1/4-z
-x,1/2+y,1/4-z
-y,1/2-x,1/4+z
y,1/2+x,1/4+z
1/2+x,1/2+y,1/2+z
1/2+y,1/2-x,1/2-z
1/2-x,1/2-y,1/2+z
1/2-y,1/2+x,1/2-z
1/2+x,-y,3/4-z
1/2-x,y,3/4-z
1/2-y,-x,3/4+z
1/2+y,x,3/4+z
loop_
_atom_site_type_symbol
_atom_site_label
_atom_site_fract_x
_atom_site_fract_y
_atom_site_fract_z
Si Si1 0.614864 0.692791 0.200428
Si Si2 0.535900 0.615863 0.867823
Si Si3 0.307519 0.161223 0.300587
Si Si4 0.080941 0.746980 0.387274
Si Si5 0.000000 0.000000 0.500000
Si Si6 0.085588 0.024736 0.203436
O O1 0.580905 0.750000 0.125000
O O2 0.650115 0.759291 0.262958
O O3 0.695093 0.642315 0.166730
O O4 0.548278 0.634802 0.246551
O O5 0.621945 0.604367 0.912577
O O6 0.505224 0.708658 0.868793
O O7 0.550399 0.582386 0.777131
O O8 0.475048 0.568655 0.931751
O O9 0.250000 0.185489 0.375000
O O10 0.260803 0.112592 0.230020
O O11 0.066671 0.649238 0.389791
O O12 0.000000 0.000000 0.160706
#
# Coordination Sequence:
#
# PCOD9561192 Si02
#       6
#    16  16  16  16   4  16
#     4  10  23  38  55  86 124 161 199 251 300 361
#     4  12  21  30  52  86 124 159 191 238 297 367
#     4  11  22  35  57  84 117 164 205 235 299 362
#     4  11  22  37  54  83 126 157 194 251 297 360
#     4  12  20  28  48  84 132 160 184 230 304 364
#     4  12  23  35  57  88 124 160 204 238 300 369
#
# _framework density 19.514976000000001
#
# number of rings (size 3 to 8) (size 9 to 14) (size 15 to 20)
#    0.000    0.762    8.571    0.000    5.333    0.000 
#    0.000    0.000    0.000    5.714    0.000    0.000 
#    0.000    0.000    0.000    0.000    0.000    0.000 
#
# Total GULP energy -233864.250045 kJ/mol
# GULP energy per Si atom -5568.196430 kJ/mol
# Density = 1.947056 g / cm^3
# Si number density = 19.514976 Si / 1000 Ang^3
#
#
#
# Elastic Constant Matrix: (Units=GPa)
#
#
# Indices 1 2 3 4 5 6 
#
# 1 82.9768 6.3008 2.3095 0.0000 0.0000 0.0000
# 2 6.3008 82.9768 2.3095 0.0000 0.0000 0.0000
# 3 2.3095 2.3095 30.1585 0.0000 0.0000 0.0000
# 4 0.0000 0.0000 0.0000 15.1671 0.0000 0.0000
# 5 0.0000 0.0000 0.0000 0.0000 15.1671 0.0000
# 6 0.0000 0.0000 0.0000 0.0000 0.0000 19.6841
#
#
#
# Elastic Compliance Matrix: (Units=1/GPa)
#
#
# Indices 1 2 3 4 5 6 
#
# 1 0.012144 -0.000898 -0.000861 0.000000 0.000000 0.000000
# 2 -0.000898 0.012144 -0.000861 0.000000 0.000000 0.000000
# 3 -0.000861 -0.000861 0.033290 0.000000 0.000000 0.000000
# 4 0.000000 0.000000 0.000000 0.065932 0.000000 0.000000
# 5 0.000000 0.000000 0.000000 0.000000 0.065932 0.000000
# 6 0.000000 0.000000 0.000000 0.000000 0.000000 0.050802
#
#
# Mechanical properties :
#
#
# Convention : Reuss Voigt Hill
#
# Bulk Modulus (GPa) = 19.10714 24.21686 21.66200
# Shear Modulus (GPa) = 19.01642 22.34982 20.68312
#
# Velocity S-wave (km/s) = 3.12501 3.38785 3.25908
# Velocity P-wave (km/s) = 4.77841 5.26685 5.02856
#
# Compressibility (1/GPa) = 0.05233647
#
# Stress axis : x y z
#
# Youngs Moduli (GPa) = 82.34703 82.34703 30.03904
#
# Poissons Ratio (x) = 0.07396 0.02587
# Poissons Ratio (y) = 0.07396 0.02587
# Poissons Ratio (z) = 0.07092 0.07092
#
# Static dielectric constant tensor:
#      x y z
#    x 1.774980 0.000000 0.000000 
#    y 0.000000 1.774980 0.000000 
#    z 0.000000 0.000000 1.677270 
# 
# From -- ./inp_files/6256.got.cif
#   From: 2010.05.17/outbox.cif.g08.bks.cpg/sg122_4_cif.got.tgz:6256.got - 2010.05.20 11:37:33.
