data_PCOD9561111
_publ_section_title
;
Structure prediction by ZEFSAII (Michael W. Deem and Ramdas Pophale) SiO2 
 PCOD9561111
Probable space group: I -4 2 D
;
_chemical_formula_sum "Si O2"
_cell_formula_units_Z 44
_cell_length_a 12.606714
_cell_length_b 12.606714
_cell_length_c 12.770760
_cell_angle_alpha 90.000000
_cell_angle_beta 90.000000
_cell_angle_gamma 90.000000
_cell_volume 2029.647154
_symmetry_space_group_name_H-M "I -4 2 D"
_symmetry_group_IT_number 122
_symmetry_cell_setting 'tetragonal'
loop_
_space_group_symop_operation_xyz
x,y,z
y,-x,-z
-x,-y,z
-y,x,-z
x,1/2-y,1/4-z
-x,1/2+y,1/4-z
-y,1/2-x,1/4+z
y,1/2+x,1/4+z
1/2+x,1/2+y,1/2+z
1/2+y,1/2-x,1/2-z
1/2-x,1/2-y,1/2+z
1/2-y,1/2+x,1/2-z
1/2+x,-y,3/4-z
1/2-x,y,3/4-z
1/2-y,-x,3/4+z
1/2+y,x,3/4+z
loop_
_atom_site_type_symbol
_atom_site_label
_atom_site_fract_x
_atom_site_fract_y
_atom_site_fract_z
Si Si1 0.250000 0.269952 0.375000
Si Si2 0.862899 0.321875 0.339275
Si Si3 0.000000 0.000000 0.000000
Si Si4 0.896502 0.132738 0.503988
O O1 0.273877 0.340188 0.475139
O O2 0.155648 0.188981 0.405779
O O3 0.750000 0.371213 0.375000
O O4 0.953656 0.407734 0.323641
O O5 0.886049 0.227477 0.420554
O O6 0.017333 0.128269 0.543811
#
# Coordination Sequence:
#
# PCOD9561111 Si02
#       4
#     8  16   4  16
#     4  10  22  40  68  94 138 170 218 294 324 414
#     4  10  24  44  66  99 136 176 232 281 340 417
#     4  12  24  44  64  92 136 190 220 280 360 388
#     4  10  22  43  69  99 131 179 224 279 345 407
#
# _framework density 21.678644999999999
#
# number of rings (size 3 to 8) (size 9 to 14) (size 15 to 20)
#    0.000    1.818    0.000    2.182   10.182    0.000 
#    0.000    0.000    0.000    0.000    0.000    0.000 
#    0.000    0.000    0.000    0.000    0.000    0.000 
#
# Total GULP energy -122949.877873 kJ/mol
# GULP energy per Si atom -5588.630812 kJ/mol
# Density = 2.162930 g / cm^3
# Si number density = 21.678645 Si / 1000 Ang^3
#
#
#
# Elastic Constant Matrix: (Units=GPa)
#
#
# Indices 1 2 3 4 5 6 
#
# 1 94.4059 53.5919 22.2506 0.0000 0.0000 0.0000
# 2 53.5919 94.4059 22.2506 0.0000 0.0000 0.0000
# 3 22.2506 22.2506 78.3206 0.0000 0.0000 0.0000
# 4 0.0000 0.0000 0.0000 26.2558 0.0000 0.0000
# 5 0.0000 0.0000 0.0000 0.0000 26.2558 0.0000
# 6 0.0000 0.0000 0.0000 0.0000 0.0000 46.1851
#
#
#
# Elastic Compliance Matrix: (Units=1/GPa)
#
#
# Indices 1 2 3 4 5 6 
#
# 1 0.015945 -0.008557 -0.002099 0.000000 0.000000 0.000000
# 2 -0.008557 0.015945 -0.002099 0.000000 0.000000 0.000000
# 3 -0.002099 -0.002099 0.013961 0.000000 0.000000 0.000000
# 4 0.000000 0.000000 0.000000 0.038087 0.000000 0.000000
# 5 0.000000 0.000000 0.000000 0.000000 0.038087 0.000000
# 6 0.000000 0.000000 0.000000 0.000000 0.000000 0.021652
#
#
# Mechanical properties :
#
#
# Convention : Reuss Voigt Hill
#
# Bulk Modulus (GPa) = 49.16190 51.47987 50.32088
# Shear Modulus (GPa) = 28.41473 31.00861 29.71167
#
# Velocity S-wave (km/s) = 3.62432 3.78613 3.70611
# Velocity P-wave (km/s) = 6.34358 6.55068 6.44797
#
# Compressibility (1/GPa) = 0.02034096
#
# Stress axis : x y z
#
# Youngs Moduli (GPa) = 62.71677 62.71677 71.63007
#
# Poissons Ratio (x) = 0.53665 0.15034
# Poissons Ratio (y) = 0.53665 0.15034
# Poissons Ratio (z) = 0.13164 0.13164
#
# Static dielectric constant tensor:
#      x y z
#    x 1.820790 0.000000 0.000000 
#    y 0.000000 1.820790 0.000000 
#    z 0.000000 0.000000 1.765310 
# 
# From -- ./inp_files/3751.got.cif
#   From: 2010.05.17/outbox.cif.g08.bks.cpg/sg122_2_cif.got.tgz:3751.got - 2010.05.20 11:37:33.
