data_PCOD9561684
_publ_section_title
;
Structure prediction by ZEFSAII (Michael W. Deem and Ramdas Pophale) SiO2 
 PCOD9561684
Probable space group: P 4/M M M
;
_chemical_formula_sum "Si O2"
_cell_formula_units_Z 120
_cell_length_a 18.972757
_cell_length_b 18.972757
_cell_length_c 21.532614
_cell_angle_alpha 90.000000
_cell_angle_beta 90.000000
_cell_angle_gamma 90.000000
_cell_volume 7750.998341
_symmetry_space_group_name_H-M "P 4/M M M"
_symmetry_group_IT_number 123
_symmetry_cell_setting 'tetragonal'
loop_
_space_group_symop_operation_xyz
x,y,z
-y,x,z
-x,-y,z
y,-x,z
x,-y,-z
-x,y,-z
y,x,-z
-y,-x,-z
-x,-y,-z
y,-x,-z
x,y,-z
-y,x,-z
-x,y,z
x,-y,z
-y,-x,z
y,x,z
loop_
_atom_site_type_symbol
_atom_site_label
_atom_site_fract_x
_atom_site_fract_y
_atom_site_fract_z
Si Si1 0.289514 0.916693 0.375541
Si Si2 0.916111 0.345632 0.810133
Si Si3 0.854072 0.416521 0.069747
Si Si4 0.303764 0.419228 0.889793
Si Si5 0.799546 0.916421 0.749405
Si Si6 0.915525 0.797448 0.500000
Si Si7 0.150489 0.581948 0.309723
Si Si8 0.579691 0.305313 0.741507
O O1 0.235209 0.905275 0.318606
O O2 0.249693 0.899931 0.439253
O O3 0.361216 0.875189 0.360177
O O4 0.306799 0.000000 0.375565
O O5 0.890184 0.372509 0.876222
O O6 0.896512 0.264472 0.795714
O O7 0.885337 0.394091 0.755106
O O8 0.000000 0.349573 0.806061
O O9 0.867665 0.500000 0.079827
O O10 0.769984 0.406782 0.076310
O O11 0.876863 0.398299 0.000000
O O12 0.325990 0.500000 0.901450
O O13 0.363700 0.363700 0.906784
O O14 0.289848 0.412726 0.815430
O O15 0.866882 0.866882 0.757338
O O16 0.815174 0.000000 0.755801
O O17 0.867078 0.867078 0.500000
O O18 0.000000 0.813649 0.500000
O O19 0.133995 0.500000 0.323425
O O20 0.233670 0.588118 0.296593
O O21 0.500000 0.331834 0.732824
O O22 0.637072 0.362929 0.724487
#
# Coordination Sequence:
#
# PCOD9561684 Si02
#       8
#    16  16  16  16  16   8  16  16
#     4   9  19  33  48  71 101 131 162 196 234 274
#     4  10  20  32  47  69  94 119 151 191 233 279
#     4  10  20  33  47  64  89 120 153 190 233 280
#     4   9  17  30  45  63  88 116 149 188 228 270
#     4   9  18  32  50  73  98 123 153 189 231 279
#     4  10  20  35  53  73 101 133 166 202 238 280
#     4  10  18  30  49  72  96 125 162 197 232 279
#     4   9  17  28  44  66  91 119 152 191 232 274
#
# _framework density 15.481876
#
# number of rings (size 3 to 8) (size 9 to 14) (size 15 to 20)
#    0.000    2.533    1.333    2.000    0.000    6.067 
#    0.000    2.333    0.000    3.600    0.000    1.867 
#    0.000    0.000    0.000    2.933    0.000   10.667 
#
# Total GULP energy -668950.186980 kJ/mol
# GULP energy per Si atom -5574.584892 kJ/mol
# Density = 1.544664 g / cm^3
# Si number density = 15.481876 Si / 1000 Ang^3
#
#
#
# Elastic Constant Matrix: (Units=GPa)
#
#
# Indices 1 2 3 4 5 6 
#
# 1 79.8268 65.3443 43.4856 0.0000 0.0000 0.0000
# 2 65.3443 79.8268 43.4856 0.0000 0.0000 0.0000
# 3 43.4856 43.4856 84.4765 0.0000 0.0000 0.0000
# 4 0.0000 0.0000 0.0000 9.6211 0.0000 0.0000
# 5 0.0000 0.0000 0.0000 0.0000 9.6211 0.0000
# 6 0.0000 0.0000 0.0000 0.0000 0.0000 37.4678
#
#
#
# Elastic Compliance Matrix: (Units=1/GPa)
#
#
# Indices 1 2 3 4 5 6 
#
# 1 0.039504 -0.029544 -0.005127 0.000000 0.000000 0.000000
# 2 -0.029544 0.039504 -0.005127 0.000000 0.000000 0.000000
# 3 -0.005127 -0.005127 0.017116 0.000000 0.000000 0.000000
# 4 0.000000 0.000000 0.000000 0.103938 0.000000 0.000000
# 5 0.000000 0.000000 0.000000 0.000000 0.103938 0.000000
# 6 0.000000 0.000000 0.000000 0.000000 0.000000 0.026690
#
#
# Mechanical properties :
#
#
# Convention : Reuss Voigt Hill
#
# Bulk Modulus (GPa) = 60.50399 60.97347 60.73873
# Shear Modulus (GPa) = 12.02509 17.46299 14.74404
#
# Velocity S-wave (km/s) = 2.78999 3.36216 3.08935
# Velocity P-wave (km/s) = 7.03876 7.38522 7.21407
#
# Compressibility (1/GPa) = 0.01652783
#
# Stress axis : x y z
#
# Youngs Moduli (GPa) = 25.31361 25.31361 58.42452
#
# Poissons Ratio (x) = 0.74788 0.29955
# Poissons Ratio (y) = 0.74788 0.29955
# Poissons Ratio (z) = 0.12978 0.12978
#
# Static dielectric constant tensor:
#      x y z
#    x 1.507890 0.000000 0.000000 
#    y 0.000000 1.507890 0.000000 
#    z 0.000000 0.000000 1.520500 
# 
# From -- ./inp_files/6788.got.cif
#   From: 2010.05.17/outbox.cif.g08.bks.cpg/sg123_4_cif.got.tgz:6788.got - 2010.05.20 11:43:04.
