data_PCOD9561140
_publ_section_title
;
Structure prediction by ZEFSAII (Michael W. Deem and Ramdas Pophale) SiO2 
 PCOD9561140
Probable space group: I -4 2 D
;
_chemical_formula_sum "Si O2"
_cell_formula_units_Z 96
_cell_length_a 15.195355
_cell_length_b 15.195355
_cell_length_c 18.424848
_cell_angle_alpha 90.000000
_cell_angle_beta 90.000000
_cell_angle_gamma 90.000000
_cell_volume 4254.275544
_symmetry_space_group_name_H-M "I -4 2 D"
_symmetry_group_IT_number 122
_symmetry_cell_setting 'tetragonal'
loop_
_space_group_symop_operation_xyz
x,y,z
y,-x,-z
-x,-y,z
-y,x,-z
x,1/2-y,1/4-z
-x,1/2+y,1/4-z
-y,1/2-x,1/4+z
y,1/2+x,1/4+z
1/2+x,1/2+y,1/2+z
1/2+y,1/2-x,1/2-z
1/2-x,1/2-y,1/2+z
1/2-y,1/2+x,1/2-z
1/2+x,-y,3/4-z
1/2-x,y,3/4-z
1/2-y,-x,3/4+z
1/2+y,x,3/4+z
loop_
_atom_site_type_symbol
_atom_site_label
_atom_site_fract_x
_atom_site_fract_y
_atom_site_fract_z
Si Si1 0.398000 0.117988 0.973966
Si Si2 0.021590 0.855982 0.493716
Si Si3 0.922949 0.181004 0.722708
Si Si4 0.473673 0.171219 0.414483
Si Si5 0.677430 0.336644 0.582149
Si Si6 0.240902 0.240785 0.711218
O O1 0.502339 0.132469 0.979268
O O2 0.364433 0.105384 0.891485
O O3 0.352755 0.207882 0.006455
O O4 0.362779 0.039640 0.024218
O O5 0.035336 0.774540 0.546328
O O6 0.929364 0.903943 0.502865
O O7 0.023290 0.822511 0.411064
O O8 0.897736 0.107571 0.664054
O O9 0.831290 0.214394 0.759655
O O10 0.422040 0.261800 0.424730
O O11 0.718753 0.250000 0.625000
O O12 0.665607 0.302120 0.500323
O O13 0.237894 0.250000 0.625000
#
# Coordination Sequence:
#
# PCOD9561140 Si02
#       6
#    16  16  16  16  16  16
#     4  11  22  41  66  96 138 179 233 297 338 434
#     4  11  25  40  57  95 143 172 229 283 339 434
#     4  11  23  40  66  92 130 182 226 280 355 421
#     4  11  24  42  64  98 132 182 233 287 359 430
#     4   9  21  43  68  98 136 182 234 291 358 425
#     4  10  22  42  67  98 132 180 234 281 361 434
#
# _framework density 22.565534
#
# number of rings (size 3 to 8) (size 9 to 14) (size 15 to 20)
#    0.000    1.500    1.667    2.500    9.333    0.000 
#    0.000   10.000    0.000    0.000    0.000    0.000 
#    0.000    0.000    0.000    0.000    0.000    0.000 
#
# Total GULP energy -267424.984944 kJ/mol
# GULP energy per Si atom -5571.353853 kJ/mol
# Density = 2.251417 g / cm^3
# Si number density = 22.565534 Si / 1000 Ang^3
#
#
#
# Elastic Constant Matrix: (Units=GPa)
#
#
# Indices 1 2 3 4 5 6 
#
# 1 79.9813 23.3011 9.7916 0.0000 0.0000 0.0000
# 2 23.3011 79.9813 9.7916 0.0000 0.0000 0.0000
# 3 9.7916 9.7916 78.2627 0.0000 0.0000 0.0000
# 4 0.0000 0.0000 0.0000 25.9949 0.0000 0.0000
# 5 0.0000 0.0000 0.0000 0.0000 25.9949 0.0000
# 6 0.0000 0.0000 0.0000 0.0000 0.0000 13.9149
#
#
#
# Elastic Compliance Matrix: (Units=1/GPa)
#
#
# Indices 1 2 3 4 5 6 
#
# 1 0.013780 -0.003863 -0.001241 0.000000 0.000000 0.000000
# 2 -0.003863 0.013780 -0.001241 0.000000 0.000000 0.000000
# 3 -0.001241 -0.001241 0.013088 0.000000 0.000000 0.000000
# 4 0.000000 0.000000 0.000000 0.038469 0.000000 0.000000
# 5 0.000000 0.000000 0.000000 0.000000 0.038469 0.000000
# 6 0.000000 0.000000 0.000000 0.000000 0.000000 0.071866
#
#
# Mechanical properties :
#
#
# Convention : Reuss Voigt Hill
#
# Bulk Modulus (GPa) = 35.76575 35.99931 35.88253
# Shear Modulus (GPa) = 23.64508 26.20366 24.92437
#
# Velocity S-wave (km/s) = 3.24055 3.41137 3.32706
# Velocity P-wave (km/s) = 5.46678 5.61288 5.54031
#
# Compressibility (1/GPa) = 0.02795971
#
# Stress axis : x y z
#
# Youngs Moduli (GPa) = 72.56816 72.56816 76.40610
#
# Poissons Ratio (x) = 0.28031 0.09480
# Poissons Ratio (y) = 0.28031 0.09480
# Poissons Ratio (z) = 0.09004 0.09004
#
# Static dielectric constant tensor:
#      x y z
#    x 1.878050 0.000000 0.000000 
#    y 0.000000 1.878050 0.000000 
#    z 0.000000 0.000000 1.853540 
# 
# From -- ./inp_files/7300.got.cif
#   From: 2010.05.17/outbox.cif.g08.bks.cpg/sg122_4_cif.got.tgz:7300.got - 2010.05.20 11:37:33.
