data_PCOD9561692
_publ_section_title
;
Structure prediction by ZEFSAII (Michael W. Deem and Ramdas Pophale) SiO2 
 PCOD9561692
Probable space group: P 4/M M M
;
_chemical_formula_sum "Si O2"
_cell_formula_units_Z 104
_cell_length_a 27.307204
_cell_length_b 27.307204
_cell_length_c 8.671527
_cell_angle_alpha 90.000000
_cell_angle_beta 90.000000
_cell_angle_gamma 90.000000
_cell_volume 6466.213652
_symmetry_space_group_name_H-M "P 4/M M M"
_symmetry_group_IT_number 123
_symmetry_cell_setting 'tetragonal'
loop_
_space_group_symop_operation_xyz
x,y,z
-y,x,z
-x,-y,z
y,-x,z
x,-y,-z
-x,y,-z
y,x,-z
-y,-x,-z
-x,-y,-z
y,-x,-z
x,y,-z
-y,x,-z
-x,y,z
x,-y,z
-y,-x,z
y,x,z
loop_
_atom_site_type_symbol
_atom_site_label
_atom_site_fract_x
_atom_site_fract_y
_atom_site_fract_z
Si Si1 0.444172 0.000000 0.312227
Si Si2 0.368755 0.287550 0.684122
Si Si3 0.945231 0.262303 0.815145
Si Si4 0.368378 0.917230 0.685531
Si Si5 0.183607 0.658898 0.816400
Si Si6 0.235349 0.155359 0.684977
Si Si7 0.556438 0.363728 0.813859
O O1 0.412948 0.952241 0.266715
O O2 0.500000 0.000000 0.256915
O O3 0.445377 0.000000 0.500000
O O4 0.370186 0.281795 0.500000
O O5 0.322215 0.322215 0.722863
O O6 0.362259 0.235292 0.762677
O O7 0.416000 0.317304 0.741604
O O8 0.938532 0.317468 0.751286
O O9 0.900089 0.232009 0.745961
O O10 0.000000 0.245095 0.774972
O O11 0.940705 0.263657 0.000000
O O12 0.365318 0.916844 0.500000
O O13 0.371166 0.862046 0.747208
O O14 0.177272 0.714258 0.752979
O O15 0.180060 0.659847 0.000000
O O16 0.239701 0.154760 0.500000
O O17 0.190043 0.190043 0.727942
O O18 0.500000 0.367546 0.766572
O O19 0.588565 0.411436 0.771170
O O20 0.558112 0.359437 0.000000
#
# Coordination Sequence:
#
# PCOD9561692 Si02
#       7
#     8  16  16  16  16  16  16
#     4   9  18  32  51  73  93 117 155 203 250 291
#     4  10  20  34  52  73  98 129 165 201 238 286
#     4  10  19  30  47  70  97 128 163 201 240 288
#     4  10  18  31  51  71  93 123 160 202 246 292
#     4  11  21  32  49  72  98 129 162 200 245 294
#     4  10  20  32  47  70 100 131 164 202 243 289
#     4   9  18  33  53  77 103 129 157 191 234 285
#
# _framework density 16.083601000000002
#
# number of rings (size 3 to 8) (size 9 to 14) (size 15 to 20)
#    0.000    2.077    0.769    5.538    0.000    5.385 
#    0.000    1.538    0.000    6.462    0.000    2.154 
#    0.000    0.308    0.000    3.385    0.000    2.462 
#
# Total GULP energy -580338.248714 kJ/mol
# GULP energy per Si atom -5580.175468 kJ/mol
# Density = 1.604699 g / cm^3
# Si number density = 16.083601 Si / 1000 Ang^3
#
#
#
# Elastic Constant Matrix: (Units=GPa)
#
#
# Indices 1 2 3 4 5 6 
#
# 1 136.7503 74.8606 40.6626 0.0000 0.0000 0.0000
# 2 74.8606 136.7503 40.6626 0.0000 0.0000 0.0000
# 3 40.6626 40.6626 55.1310 0.0000 0.0000 0.0000
# 4 0.0000 0.0000 0.0000 17.0197 0.0000 0.0000
# 5 0.0000 0.0000 0.0000 0.0000 17.0197 0.0000
# 6 0.0000 0.0000 0.0000 0.0000 0.0000 19.8944
#
#
#
# Elastic Compliance Matrix: (Units=1/GPa)
#
#
# Indices 1 2 3 4 5 6 
#
# 1 0.011376 -0.004781 -0.004864 0.000000 0.000000 0.000000
# 2 -0.004781 0.011376 -0.004864 0.000000 0.000000 0.000000
# 3 -0.004864 -0.004864 0.025314 0.000000 0.000000 0.000000
# 4 0.000000 0.000000 0.000000 0.058755 0.000000 0.000000
# 5 0.000000 0.000000 0.000000 0.000000 0.058755 0.000000
# 6 0.000000 0.000000 0.000000 0.000000 0.000000 0.050266
#
#
# Mechanical properties :
#
#
# Convention : Reuss Voigt Hill
#
# Bulk Modulus (GPa) = 52.50157 71.22257 61.86207
# Shear Modulus (GPa) = 19.90351 22.28315 21.09333
#
# Velocity S-wave (km/s) = 3.52163 3.72621 3.62537
# Velocity P-wave (km/s) = 7.01781 7.93043 7.48804
#
# Compressibility (1/GPa) = 0.01904705
#
# Stress axis : x y z
#
# Youngs Moduli (GPa) = 87.90111 87.90111 39.50380
#
# Poissons Ratio (x) = 0.42029 0.19216
# Poissons Ratio (y) = 0.42029 0.19216
# Poissons Ratio (z) = 0.42758 0.42758
#
# Static dielectric constant tensor:
#      x y z
#    x 1.530190 0.000000 0.000000 
#    y 0.000000 1.530190 0.000000 
#    z 0.000000 0.000000 1.539850 
# 
# From -- ./inp_files/1946.got.cif
#   From: 2010.05.17/outbox.cif.g08.bks.cpg/sg123_1_cif.got.tgz:1946.got - 2010.05.20 11:43:04.
