data_PCOD9561812
_publ_section_title
;
Structure prediction by ZEFSAII (Michael W. Deem and Ramdas Pophale) SiO2 
 PCOD9561812
Probable space group: P 4/M M M
;
_chemical_formula_sum "Si O2"
_cell_formula_units_Z 96
_cell_length_a 15.669801
_cell_length_b 15.669801
_cell_length_c 22.470825
_cell_angle_alpha 90.000000
_cell_angle_beta 90.000000
_cell_angle_gamma 90.000000
_cell_volume 5517.546219
_symmetry_space_group_name_H-M "P 4/M M M"
_symmetry_group_IT_number 123
_symmetry_cell_setting 'tetragonal'
loop_
_space_group_symop_operation_xyz
x,y,z
-y,x,z
-x,-y,z
y,-x,z
x,-y,-z
-x,y,-z
y,x,-z
-y,-x,-z
-x,-y,-z
y,-x,-z
x,y,-z
-y,x,-z
-x,y,z
x,-y,z
-y,-x,z
y,x,z
loop_
_atom_site_type_symbol
_atom_site_label
_atom_site_fract_x
_atom_site_fract_y
_atom_site_fract_z
Si Si1 0.190882 0.404278 0.773366
Si Si2 0.261243 0.400154 0.641919
Si Si3 0.403716 0.264509 0.903050
Si Si4 0.097375 0.236089 0.806490
Si Si5 0.688985 0.904046 0.934473
Si Si6 0.094697 0.396464 0.569321
O O1 0.152208 0.500000 0.773797
O O2 0.242225 0.395102 0.712347
O O3 0.250885 0.398756 0.831506
O O4 0.123913 0.327802 0.779832
O O5 0.276176 0.500000 0.627158
O O6 0.340388 0.340388 0.626372
O O7 0.175094 0.370067 0.608567
O O8 0.500000 0.288004 0.919143
O O9 0.334063 0.334063 0.921346
O O10 0.378639 0.171918 0.928456
O O11 0.165039 0.165039 0.787459
O O12 0.104806 0.248970 0.878125
O O13 0.000000 0.214779 0.792154
O O14 0.651559 0.000000 0.929693
O O15 0.729322 0.897314 0.000000
O O16 0.105542 0.372807 0.500000
O O17 0.093525 0.500000 0.571679
O O18 0.000000 0.367603 0.589178
#
# Coordination Sequence:
#
# PCOD9561812 Si02
#       6
#    16  16  16  16  16  16
#     4   9  18  33  51  70  93 122 160 205 248 283
#     4  10  19  30  47  71 100 133 164 196 237 288
#     4  10  20  33  49  68  93 125 157 192 233 278
#     4  10  20  33  50  72  99 128 155 189 233 284
#     4   9  18  33  53  73  90 114 151 193 239 286
#     4   8  15  29  47  66  90 122 162 206 245 276
#
# _framework density 17.399038999999998
#
# number of rings (size 3 to 8) (size 9 to 14) (size 15 to 20)
#    0.000    2.667    0.000    3.500    0.000    3.833 
#    0.000    5.833    0.000    3.000    0.000    5.833 
#    0.000    0.333    0.000    1.833    0.000    0.167 
#
# Total GULP energy -534855.395483 kJ/mol
# GULP energy per Si atom -5571.410370 kJ/mol
# Density = 1.735944 g / cm^3
# Si number density = 17.399039 Si / 1000 Ang^3
#
#
#
# Elastic Constant Matrix: (Units=GPa)
#
#
# Indices 1 2 3 4 5 6 
#
# 1 104.8796 85.5305 23.0300 0.0000 0.0000 0.0000
# 2 85.5305 104.8796 23.0300 0.0000 0.0000 0.0000
# 3 23.0300 23.0300 35.1246 0.0000 0.0000 0.0000
# 4 0.0000 0.0000 0.0000 10.4613 0.0000 0.0000
# 5 0.0000 0.0000 0.0000 0.0000 10.4613 0.0000
# 6 0.0000 0.0000 0.0000 0.0000 0.0000 7.1160
#
#
#
# Elastic Compliance Matrix: (Units=1/GPa)
#
#
# Indices 1 2 3 4 5 6 
#
# 1 0.028962 -0.022720 -0.004093 0.000000 0.000000 0.000000
# 2 -0.022720 0.028962 -0.004093 0.000000 0.000000 0.000000
# 3 -0.004093 -0.004093 0.033837 0.000000 0.000000 0.000000
# 4 0.000000 0.000000 0.000000 0.095591 0.000000 0.000000
# 5 0.000000 0.000000 0.000000 0.000000 0.095591 0.000000
# 6 0.000000 0.000000 0.000000 0.000000 0.000000 0.140528
#
#
# Mechanical properties :
#
#
# Convention : Reuss Voigt Hill
#
# Bulk Modulus (GPa) = 33.38876 56.45166 44.92021
# Shear Modulus (GPa) = 10.09564 13.16060 11.62812
#
# Velocity S-wave (km/s) = 2.41143 2.75325 2.58799
# Velocity P-wave (km/s) = 5.19471 6.52862 5.89949
#
# Compressibility (1/GPa) = 0.02995020
#
# Stress axis : x y z
#
# Youngs Moduli (GPa) = 34.52823 34.52823 29.55365
#
# Poissons Ratio (x) = 0.78448 0.12095
# Poissons Ratio (y) = 0.78448 0.12095
# Poissons Ratio (z) = 0.14131 0.14131
#
# Static dielectric constant tensor:
#      x y z
#    x 1.586860 0.000000 0.000000 
#    y 0.000000 1.586860 0.000000 
#    z 0.000000 0.000000 1.612250 
# 
# From -- ./inp_files/6457.got.cif
#   From: 2010.05.17/outbox.cif.g08.bks.cpg/sg123_4_cif.got.tgz:6457.got - 2010.05.20 11:43:04.
