data_PCOD9561435
_publ_section_title
;
Structure prediction by ZEFSAII (Michael W. Deem and Ramdas Pophale) SiO2 
 PCOD9561435
Probable space group: I -4 2 D
;
_chemical_formula_sum "Si O2"
_cell_formula_units_Z 28
_cell_length_a 11.170460
_cell_length_b 11.170460
_cell_length_c 8.179664
_cell_angle_alpha 90.000000
_cell_angle_beta 90.000000
_cell_angle_gamma 90.000000
_cell_volume 1020.651739
_symmetry_space_group_name_H-M "I -4 2 D"
_symmetry_group_IT_number 122
_symmetry_cell_setting 'tetragonal'
loop_
_space_group_symop_operation_xyz
x,y,z
y,-x,-z
-x,-y,z
-y,x,-z
x,1/2-y,1/4-z
-x,1/2+y,1/4-z
-y,1/2-x,1/4+z
y,1/2+x,1/4+z
1/2+x,1/2+y,1/2+z
1/2+y,1/2-x,1/2-z
1/2-x,1/2-y,1/2+z
1/2-y,1/2+x,1/2-z
1/2+x,-y,3/4-z
1/2-x,y,3/4-z
1/2-y,-x,3/4+z
1/2+y,x,3/4+z
loop_
_atom_site_type_symbol
_atom_site_label
_atom_site_fract_x
_atom_site_fract_y
_atom_site_fract_z
Si Si1 0.250000 0.569781 0.375000
Si Si2 0.833251 0.388654 0.727225
Si Si3 0.000000 0.500000 0.250000
O O1 0.218736 0.633727 0.546587
O O2 0.125580 0.498419 0.345791
O O3 0.841892 0.533333 0.743783
O O4 0.750000 0.349867 0.875000
#
# Coordination Sequence:
#
# PCOD9561435 Si02
#       3
#     8  16   4
#     4  12  24  52  80 118 164 224 272 354 422 520
#     4  11  24  45  71 106 151 202 264 329 404 486
#     4  12  28  52  86 116 164 218 284 340 430 488
#
# _framework density 27.433454000000001
#
# number of rings (size 3 to 8) (size 9 to 14) (size 15 to 20)
#    0.000    0.571    0.000   10.286    0.000    0.000 
#   41.143    0.000    0.000    0.000    0.000    0.000 
#    0.000    0.000    0.000    0.000    0.000    0.000 
#
# Total GULP energy -78566.568141 kJ/mol
# GULP energy per Si atom -5611.897724 kJ/mol
# Density = 2.737101 g / cm^3
# Si number density = 27.433454 Si / 1000 Ang^3
#
#
#
# Elastic Constant Matrix: (Units=GPa)
#
#
# Indices 1 2 3 4 5 6 
#
# 1 193.5521 45.3814 102.9677 0.0000 0.0000 0.0000
# 2 45.3814 193.5521 102.9677 0.0000 0.0000 0.0000
# 3 102.9677 102.9677 285.9477 0.0000 0.0000 0.0000
# 4 0.0000 0.0000 0.0000 56.6134 0.0000 0.0000
# 5 0.0000 0.0000 0.0000 0.0000 56.6134 0.0000
# 6 0.0000 0.0000 0.0000 0.0000 0.0000 30.2916
#
#
#
# Elastic Compliance Matrix: (Units=1/GPa)
#
#
# Indices 1 2 3 4 5 6 
#
# 1 0.006409 -0.000340 -0.002185 0.000000 0.000000 0.000000
# 2 -0.000340 0.006409 -0.002185 0.000000 0.000000 0.000000
# 3 -0.002185 -0.002185 0.005071 0.000000 0.000000 0.000000
# 4 0.000000 0.000000 0.000000 0.017664 0.000000 0.000000
# 5 0.000000 0.000000 0.000000 0.000000 0.017664 0.000000
# 6 0.000000 0.000000 0.000000 0.000000 0.000000 0.033012
#
#
# Mechanical properties :
#
#
# Convention : Reuss Voigt Hill
#
# Bulk Modulus (GPa) = 118.10209 130.63171 124.36690
# Shear Modulus (GPa) = 50.77563 56.81935 53.79749
#
# Velocity S-wave (km/s) = 4.30684 4.55595 4.43314
# Velocity P-wave (km/s) = 8.23867 8.68312 8.46381
#
# Compressibility (1/GPa) = 0.00846725
#
# Stress axis : x y z
#
# Youngs Moduli (GPa) = 156.03356 156.03356 197.20042
#
# Poissons Ratio (x) = 0.05307 0.43095
# Poissons Ratio (y) = 0.05307 0.43095
# Poissons Ratio (z) = 0.34098 0.34098
#
# Static dielectric constant tensor:
#      x y z
#    x 2.132350 0.000000 0.000000 
#    y 0.000000 2.132350 0.000000 
#    z 0.000000 0.000000 2.067250 
# 
# From -- ./inp_files/1631.got.cif
#   From: 2010.05.17/outbox.cif.g08.bks.cpg/sg122_1_cif.got.tgz:1631.got - 2010.05.20 11:37:33.
