data_PCOD9561594
_publ_section_title
;
Structure prediction by ZEFSAII (Michael W. Deem and Ramdas Pophale) SiO2 
 PCOD9561594
Probable space group: P 4/M M M
;
_chemical_formula_sum "Si O2"
_cell_formula_units_Z 72
_cell_length_a 24.819098
_cell_length_b 24.819098
_cell_length_c 10.505790
_cell_angle_alpha 90.000000
_cell_angle_beta 90.000000
_cell_angle_gamma 90.000000
_cell_volume 6471.436636
_symmetry_space_group_name_H-M "P 4/M M M"
_symmetry_group_IT_number 123
_symmetry_cell_setting 'tetragonal'
loop_
_space_group_symop_operation_xyz
x,y,z
-y,x,z
-x,-y,z
y,-x,z
x,-y,-z
-x,y,-z
y,x,-z
-y,-x,-z
-x,-y,-z
y,-x,-z
x,y,-z
-y,x,-z
-x,y,z
x,-y,z
-y,-x,z
y,x,z
loop_
_atom_site_type_symbol
_atom_site_label
_atom_site_fract_x
_atom_site_fract_y
_atom_site_fract_z
Si Si1 0.000000 0.565719 0.649636
Si Si2 0.822110 0.434322 0.000000
Si Si3 0.884220 0.564846 0.259481
Si Si4 0.707618 0.621710 0.000000
Si Si5 0.396715 0.309853 0.500000
Si Si6 0.562675 0.352502 0.769824
Si Si7 0.565487 0.810019 0.500000
O O1 0.055147 0.584885 0.715413
O O2 0.000000 0.500000 0.654240
O O3 0.000000 0.579851 0.500000
O O4 0.857213 0.422365 0.125226
O O5 0.769871 0.395892 0.000000
O O6 0.808726 0.500000 0.000000
O O7 0.887864 0.500000 0.263594
O O8 0.845013 0.579285 0.375847
O O9 0.682899 0.593744 0.874240
O O10 0.682787 0.682787 0.000000
O O11 0.337533 0.337533 0.500000
O O12 0.425416 0.330767 0.371754
O O13 0.402751 0.245858 0.500000
O O14 0.500000 0.351190 0.796616
O O15 0.588242 0.411759 0.777913
O O16 0.500000 0.799878 0.500000
#
# Coordination Sequence:
#
# PCOD9561594 Si02
#       7
#     8   8  16   8   8  16   8
#     4   9  14  25  39  53  77  97 113 131 153 193
#     4  10  18  27  38  56  75  88 114 146 172 206
#     4   9  17  25  38  56  72  93 112 134 163 194
#     4  10  20  32  44  54  69  92 113 141 180 213
#     4  10  20  30  40  54  71  88 109 141 178 215
#     4  10  19  30  42  54  66  83 105 133 176 221
#     4  10  16  25  40  54  65  86 118 140 164 204
#
# _framework density 11.125814
#
# number of rings (size 3 to 8) (size 9 to 14) (size 15 to 20)
#    0.000    2.333    1.111    3.333    0.000    2.444 
#    0.000    2.222    0.000    4.000    0.000    0.000 
#    0.000    0.000    0.000    0.000    0.000    0.000 
#
# Total GULP energy -400910.477537 kJ/mol
# GULP energy per Si atom -5568.201077 kJ/mol
# Density = 1.110049 g / cm^3
# Si number density = 11.125814 Si / 1000 Ang^3
#
#
#
# Elastic Constant Matrix: (Units=GPa)
#
#
# Indices 1 2 3 4 5 6 
#
# 1 67.2607 24.9989 19.7147 0.0000 0.0000 0.0000
# 2 24.9989 67.2607 19.7147 0.0000 0.0000 0.0000
# 3 19.7147 19.7147 70.6244 0.0000 0.0000 0.0000
# 4 0.0000 0.0000 0.0000 6.7868 0.0000 0.0000
# 5 0.0000 0.0000 0.0000 0.0000 6.7868 0.0000
# 6 0.0000 0.0000 0.0000 0.0000 0.0000 4.5124
#
#
#
# Elastic Compliance Matrix: (Units=1/GPa)
#
#
# Indices 1 2 3 4 5 6 
#
# 1 0.017985 -0.005677 -0.003436 0.000000 0.000000 0.000000
# 2 -0.005677 0.017985 -0.003436 0.000000 0.000000 0.000000
# 3 -0.003436 -0.003436 0.016077 0.000000 0.000000 0.000000
# 4 0.000000 0.000000 0.000000 0.147345 0.000000 0.000000
# 5 0.000000 0.000000 0.000000 0.000000 0.147345 0.000000
# 6 0.000000 0.000000 0.000000 0.000000 0.000000 0.221613
#
#
# Mechanical properties :
#
#
# Convention : Reuss Voigt Hill
#
# Bulk Modulus (GPa) = 37.10605 37.11135 37.10870
# Shear Modulus (GPa) = 8.29973 12.99836 10.64904
#
# Velocity S-wave (km/s) = 2.73424 3.42176 3.09714
# Velocity P-wave (km/s) = 6.58725 7.00284 6.79822
#
# Compressibility (1/GPa) = 0.02694978
#
# Stress axis : x y z
#
# Youngs Moduli (GPa) = 55.60299 55.60299 62.19884
#
# Poissons Ratio (x) = 0.31568 0.21369
# Poissons Ratio (y) = 0.31568 0.21369
# Poissons Ratio (z) = 0.19103 0.19103
#
# Static dielectric constant tensor:
#      x y z
#    x 1.349150 0.000000 0.000000 
#    y 0.000000 1.349150 0.000000 
#    z 0.000000 0.000000 1.379410 
# 
# From -- ./inp_files/1424.got.cif
#   From: 2010.05.17/outbox.cif.g08.bks.cpg/sg123_1_cif.got.tgz:1424.got - 2010.05.20 11:43:04.
