data_PCOD9561401
_publ_section_title
;
Structure prediction by ZEFSAII (Michael W. Deem and Ramdas Pophale) SiO2 
 PCOD9561401
Probable space group: I -4 2 D
;
_chemical_formula_sum "Si O2"
_cell_formula_units_Z 72
_cell_length_a 11.642496
_cell_length_b 11.642496
_cell_length_c 23.754590
_cell_angle_alpha 90.000000
_cell_angle_beta 90.000000
_cell_angle_gamma 90.000000
_cell_volume 3219.880350
_symmetry_space_group_name_H-M "I -4 2 D"
_symmetry_group_IT_number 122
_symmetry_cell_setting 'tetragonal'
loop_
_space_group_symop_operation_xyz
x,y,z
y,-x,-z
-x,-y,z
-y,x,-z
x,1/2-y,1/4-z
-x,1/2+y,1/4-z
-y,1/2-x,1/4+z
y,1/2+x,1/4+z
1/2+x,1/2+y,1/2+z
1/2+y,1/2-x,1/2-z
1/2-x,1/2-y,1/2+z
1/2-y,1/2+x,1/2-z
1/2+x,-y,3/4-z
1/2-x,y,3/4-z
1/2-y,-x,3/4+z
1/2+y,x,3/4+z
loop_
_atom_site_type_symbol
_atom_site_label
_atom_site_fract_x
_atom_site_fract_y
_atom_site_fract_z
Si Si1 0.896777 0.440220 0.041024
Si Si2 0.750000 0.619352 0.375000
Si Si3 0.577327 0.842842 0.232032
Si Si4 0.699169 0.668703 0.675393
Si Si5 0.894306 0.842717 0.983464
O O1 0.936407 0.335899 0.079845
O O2 0.785176 0.409963 0.005522
O O3 0.853486 0.543583 0.080182
O O4 0.000000 0.500000 0.007274
O O5 0.841698 0.672330 0.329611
O O6 0.442997 0.873600 0.226328
O O7 0.663339 0.849786 0.180018
O O8 0.668994 0.750000 0.625000
O O9 0.655703 0.736414 0.730751
O O10 0.033543 0.850761 0.990494
#
# Coordination Sequence:
#
# PCOD9561401 Si02
#       5
#    16   8  16  16  16
#     4  11  24  40  68  97 135 179 221 289 358 432
#     4  12  24  44  66 104 142 182 242 302 362 446
#     4   9  20  44  67  89 126 173 227 282 345 417
#     4  11  23  42  66  96 133 179 231 287 360 433
#     4  11  25  41  65 100 140 190 238 299 377 447
#
# _framework density 22.361077000000002
#
# number of rings (size 3 to 8) (size 9 to 14) (size 15 to 20)
#    0.000    1.333    2.222    2.667    9.333    0.000 
#    2.000    0.000    4.889    0.000    0.000    0.000 
#    0.000    0.000    0.000    0.000    0.000    0.000 
#
# Total GULP energy -200508.046548 kJ/mol
# GULP energy per Si atom -5569.667960 kJ/mol
# Density = 2.231018 g / cm^3
# Si number density = 22.361077 Si / 1000 Ang^3
#
#
#
# Elastic Constant Matrix: (Units=GPa)
#
#
# Indices 1 2 3 4 5 6 
#
# 1 132.4640 22.5269 13.1614 0.0000 0.0000 0.0000
# 2 22.5269 132.4640 13.1614 0.0000 0.0000 0.0000
# 3 13.1614 13.1614 57.5347 0.0000 0.0000 0.0000
# 4 0.0000 0.0000 0.0000 22.4851 0.0000 0.0000
# 5 0.0000 0.0000 0.0000 0.0000 22.4851 0.0000
# 6 0.0000 0.0000 0.0000 0.0000 0.0000 25.0302
#
#
#
# Elastic Compliance Matrix: (Units=1/GPa)
#
#
# Indices 1 2 3 4 5 6 
#
# 1 0.007904 -0.001192 -0.001536 0.000000 0.000000 0.000000
# 2 -0.001192 0.007904 -0.001536 0.000000 0.000000 0.000000
# 3 -0.001536 -0.001536 0.018083 0.000000 0.000000 0.000000
# 4 0.000000 0.000000 0.000000 0.044474 0.000000 0.000000
# 5 0.000000 0.000000 0.000000 0.000000 0.044474 0.000000
# 6 0.000000 0.000000 0.000000 0.000000 0.000000 0.039952
#
#
# Mechanical properties :
#
#
# Convention : Reuss Voigt Hill
#
# Bulk Modulus (GPa) = 39.42194 46.68467 43.05331
# Shear Modulus (GPa) = 27.81286 32.24096 30.02691
#
# Velocity S-wave (km/s) = 3.53059 3.80127 3.66843
# Velocity P-wave (km/s) = 5.85560 6.33949 6.10235
#
# Compressibility (1/GPa) = 0.02536659
#
# Stress axis : x y z
#
# Youngs Moduli (GPa) = 126.51106 126.51106 55.29947
#
# Poissons Ratio (x) = 0.15076 0.08492
# Poissons Ratio (y) = 0.15076 0.08492
# Poissons Ratio (z) = 0.19427 0.19427
#
# Static dielectric constant tensor:
#      x y z
#    x 1.903560 0.000000 0.000000 
#    y 0.000000 1.903560 0.000000 
#    z 0.000000 0.000000 1.783250 
# 
# From -- ./inp_files/8625.got.cif
#   From: 2010.05.17/outbox.cif.g08.bks.cpg/sg122_5_cif.got.tgz:8625.got - 2010.05.20 11:37:33.
