data_PCOD9561542
_publ_section_title
;
Structure prediction by ZEFSAII (Michael W. Deem and Ramdas Pophale) SiO2 
 PCOD9561542
Probable space group: I -4 2 D
;
_chemical_formula_sum "Si O2"
_cell_formula_units_Z 44
_cell_length_a 12.943051
_cell_length_b 12.943051
_cell_length_c 11.376771
_cell_angle_alpha 90.000000
_cell_angle_beta 90.000000
_cell_angle_gamma 90.000000
_cell_volume 1905.865907
_symmetry_space_group_name_H-M "I -4 2 D"
_symmetry_group_IT_number 122
_symmetry_cell_setting 'tetragonal'
loop_
_space_group_symop_operation_xyz
x,y,z
y,-x,-z
-x,-y,z
-y,x,-z
x,1/2-y,1/4-z
-x,1/2+y,1/4-z
-y,1/2-x,1/4+z
y,1/2+x,1/4+z
1/2+x,1/2+y,1/2+z
1/2+y,1/2-x,1/2-z
1/2-x,1/2-y,1/2+z
1/2-y,1/2+x,1/2-z
1/2+x,-y,3/4-z
1/2-x,y,3/4-z
1/2-y,-x,3/4+z
1/2+y,x,3/4+z
loop_
_atom_site_type_symbol
_atom_site_label
_atom_site_fract_x
_atom_site_fract_y
_atom_site_fract_z
Si Si1 0.500000 0.000000 0.250000
Si Si2 0.955106 0.701402 0.357455
Si Si3 0.929069 0.250000 0.125000
Si Si4 0.639783 0.919421 0.421629
O O1 0.595935 0.009672 0.338862
O O2 0.848438 0.646252 0.397265
O O3 0.935062 0.824468 0.355781
O O4 0.998626 0.696766 0.224665
O O5 0.040705 0.656311 0.446628
O O6 0.750000 0.887004 0.375000
#
# Coordination Sequence:
#
# PCOD9561542 Si02
#       4
#     4  16   8  16
#     4  12  24  48  76 114 156 200 264 316 394 460
#     4  12  27  48  77 111 152 200 256 318 395 464
#     4  12  28  50  76 110 156 200 252 322 394 476
#     4  12  25  46  75 109 145 198 253 318 375 463
#
# _framework density 23.086617
#
# number of rings (size 3 to 8) (size 9 to 14) (size 15 to 20)
#    0.000    0.000    5.455    4.364    0.000    3.636 
#    3.273    0.000    0.000    0.000    0.000    0.000 
#    0.000    0.000    0.000    0.000    0.000    0.000 
#
# Total GULP energy -122526.854618 kJ/mol
# GULP energy per Si atom -5569.402483 kJ/mol
# Density = 2.303407 g / cm^3
# Si number density = 23.086617 Si / 1000 Ang^3
#
#
#
# Elastic Constant Matrix: (Units=GPa)
#
#
# Indices 1 2 3 4 5 6 
#
# 1 77.6300 18.0058 29.1793 0.0000 0.0000 0.0000
# 2 18.0058 77.6300 29.1793 0.0000 0.0000 0.0000
# 3 29.1793 29.1793 149.9358 0.0000 0.0000 0.0000
# 4 0.0000 0.0000 0.0000 36.4763 0.0000 0.0000
# 5 0.0000 0.0000 0.0000 0.0000 36.4763 0.0000
# 6 0.0000 0.0000 0.0000 0.0000 0.0000 28.1848
#
#
#
# Elastic Compliance Matrix: (Units=1/GPa)
#
#
# Indices 1 2 3 4 5 6 
#
# 1 0.014319 -0.002453 -0.002309 0.000000 0.000000 0.000000
# 2 -0.002453 0.014319 -0.002309 0.000000 0.000000 0.000000
# 3 -0.002309 -0.002309 0.007568 0.000000 0.000000 0.000000
# 4 0.000000 0.000000 0.000000 0.027415 0.000000 0.000000
# 5 0.000000 0.000000 0.000000 0.000000 0.027415 0.000000
# 6 0.000000 0.000000 0.000000 0.000000 0.000000 0.035480
#
#
# Mechanical properties :
#
#
# Convention : Reuss Voigt Hill
#
# Bulk Modulus (GPa) = 45.32571 50.88050 48.10311
# Shear Modulus (GPa) = 33.78088 35.48291 34.63189
#
# Velocity S-wave (km/s) = 3.82936 3.92464 3.87730
# Velocity P-wave (km/s) = 6.26319 6.52870 6.39732
#
# Compressibility (1/GPa) = 0.02206253
#
# Stress axis : x y z
#
# Youngs Moduli (GPa) = 69.83942 69.83942 132.13013
#
# Poissons Ratio (x) = 0.17133 0.30511
# Poissons Ratio (y) = 0.17133 0.30511
# Poissons Ratio (z) = 0.16127 0.16127
#
# Static dielectric constant tensor:
#      x y z
#    x 2.079080 0.000000 0.000000 
#    y 0.000000 2.079080 0.000000 
#    z 0.000000 0.000000 1.983040 
# 
# From -- ./inp_files/3752.got.cif
#   From: 2010.05.17/outbox.cif.g08.bks.cpg/sg122_2_cif.got.tgz:3752.got - 2010.05.20 11:37:33.
