data_PCOD9561419
_publ_section_title
;
Structure prediction by ZEFSAII (Michael W. Deem and Ramdas Pophale) SiO2 
 PCOD9561419
Probable space group: I -4 2 D
;
_chemical_formula_sum "Si O2"
_cell_formula_units_Z 48
_cell_length_a 7.838710
_cell_length_b 7.838710
_cell_length_c 34.277485
_cell_angle_alpha 90.000000
_cell_angle_beta 90.000000
_cell_angle_gamma 90.000000
_cell_volume 2106.192902
_symmetry_space_group_name_H-M "I -4 2 D"
_symmetry_group_IT_number 122
_symmetry_cell_setting 'tetragonal'
loop_
_space_group_symop_operation_xyz
x,y,z
y,-x,-z
-x,-y,z
-y,x,-z
x,1/2-y,1/4-z
-x,1/2+y,1/4-z
-y,1/2-x,1/4+z
y,1/2+x,1/4+z
1/2+x,1/2+y,1/2+z
1/2+y,1/2-x,1/2-z
1/2-x,1/2-y,1/2+z
1/2-y,1/2+x,1/2-z
1/2+x,-y,3/4-z
1/2-x,y,3/4-z
1/2-y,-x,3/4+z
1/2+y,x,3/4+z
loop_
_atom_site_type_symbol
_atom_site_label
_atom_site_fract_x
_atom_site_fract_y
_atom_site_fract_z
Si Si1 0.075033 0.180920 0.710886
Si Si2 0.727687 0.391583 0.329291
Si Si3 0.757109 0.139115 0.201243
O O1 0.242464 0.150328 0.685436
O O2 0.128273 0.262450 0.752035
O O3 0.925935 0.286012 0.688965
O O4 0.000000 0.000000 0.722490
O O5 0.750000 0.417895 0.375000
O O6 0.747984 0.573981 0.308558
O O7 0.542936 0.308968 0.317591
#
# Coordination Sequence:
#
# PCOD9561419 Si02
#       3
#    16  16  16
#     4  12  23  42  76 105 136 196 248 290 364 435
#     4  11  26  44  68 107 149 185 234 303 373 426
#     4  11  23  46  72 100 146 189 243 305 352 440
#
# _framework density 22.789933000000001
#
# number of rings (size 3 to 8) (size 9 to 14) (size 15 to 20)
#    0.000    0.667    6.667    1.000    0.000   10.667 
#    0.000    3.333    0.000    0.000    0.000    0.000 
#    0.000    0.000    0.000    0.000    0.000    0.000 
#
# Total GULP energy -134120.277725 kJ/mol
# GULP energy per Si atom -5588.344905 kJ/mol
# Density = 2.273806 g / cm^3
# Si number density = 22.789933 Si / 1000 Ang^3
#
#
#
# Elastic Constant Matrix: (Units=GPa)
#
#
# Indices 1 2 3 4 5 6 
#
# 1 69.2503 40.1727 26.4985 0.0000 0.0000 0.0000
# 2 40.1727 69.2503 26.4985 0.0000 0.0000 0.0000
# 3 26.4985 26.4985 85.6029 0.0000 0.0000 0.0000
# 4 0.0000 0.0000 0.0000 5.1659 0.0000 0.0000
# 5 0.0000 0.0000 0.0000 0.0000 5.1659 0.0000
# 6 0.0000 0.0000 0.0000 0.0000 0.0000 27.6205
#
#
#
# Elastic Compliance Matrix: (Units=1/GPa)
#
#
# Indices 1 2 3 4 5 6 
#
# 1 0.022571 -0.011820 -0.003328 0.000000 0.000000 0.000000
# 2 -0.011820 0.022571 -0.003328 0.000000 0.000000 0.000000
# 3 -0.003328 -0.003328 0.013742 0.000000 0.000000 0.000000
# 4 0.000000 0.000000 0.000000 0.193576 0.000001 0.000000
# 5 0.000000 0.000000 0.000000 0.000001 0.193577 0.000000
# 6 0.000000 0.000000 0.000000 0.000000 0.000000 0.036205
#
#
# Mechanical properties :
#
#
# Convention : Reuss Voigt Hill
#
# Bulk Modulus (GPa) = 45.59565 45.60478 45.60022
# Shear Modulus (GPa) = 9.49663 16.31940 12.90801
#
# Velocity S-wave (km/s) = 2.04354 2.67887 2.38248
# Velocity P-wave (km/s) = 5.06147 5.44269 5.25553
#
# Compressibility (1/GPa) = 0.02193192
#
# Stress axis : x y z
#
# Youngs Moduli (GPa) = 44.30530 44.30530 72.76884
#
# Poissons Ratio (x) = 0.52369 0.24217
# Poissons Ratio (y) = 0.52369 0.24217
# Poissons Ratio (z) = 0.14744 0.14744
#
# Static dielectric constant tensor:
#      x y z
#    x 2.072970 0.000000 0.000000 
#    y 0.000000 2.072970 0.000000 
#    z 0.000000 0.000000 1.771960 
# 
# From -- ./inp_files/9011.got.cif
#   From: 2010.05.17/outbox.cif.g08.bks.cpg/sg122_5_cif.got.tgz:9011.got - 2010.05.20 11:37:33.
