data_PCOD9561568
_publ_section_title
;
Structure prediction by ZEFSAII (Michael W. Deem and Ramdas Pophale) SiO2 
 PCOD9561568
Probable space group: I -4 2 D
;
_chemical_formula_sum "Si O2"
_cell_formula_units_Z 28
_cell_length_a 12.419170
_cell_length_b 12.419170
_cell_length_c 7.613946
_cell_angle_alpha 90.000000
_cell_angle_beta 90.000000
_cell_angle_gamma 90.000000
_cell_volume 1174.342927
_symmetry_space_group_name_H-M "I -4 2 D"
_symmetry_group_IT_number 122
_symmetry_cell_setting 'tetragonal'
loop_
_space_group_symop_operation_xyz
x,y,z
y,-x,-z
-x,-y,z
-y,x,-z
x,1/2-y,1/4-z
-x,1/2+y,1/4-z
-y,1/2-x,1/4+z
y,1/2+x,1/4+z
1/2+x,1/2+y,1/2+z
1/2+y,1/2-x,1/2-z
1/2-x,1/2-y,1/2+z
1/2-y,1/2+x,1/2-z
1/2+x,-y,3/4-z
1/2-x,y,3/4-z
1/2-y,-x,3/4+z
1/2+y,x,3/4+z
loop_
_atom_site_type_symbol
_atom_site_label
_atom_site_fract_x
_atom_site_fract_y
_atom_site_fract_z
Si Si1 0.233568 0.526465 0.171311
Si Si2 0.000000 0.500000 0.250000
Si Si3 0.250000 0.357670 0.875000
O O1 0.250000 0.497284 0.375000
O O2 0.285825 0.643676 0.150210
O O3 0.105342 0.527227 0.138892
O O4 0.274329 0.435504 0.039698
#
# Coordination Sequence:
#
# PCOD9561568 Si02
#       3
#    16   4   8
#     4  12  30  52  79 120 162 218 277 351 408 506
#     4  12  28  52  78 108 172 202 268 360 418 468
#     4  12  32  46  86 114 164 216 286 326 442 478
#
# _framework density 23.843119999999999
#
# number of rings (size 3 to 8) (size 9 to 14) (size 15 to 20)
#    0.000    0.000    5.714    0.000   16.000    1.143 
#    0.000    0.000    0.000    0.000    0.000    0.000 
#    0.000    0.000    0.000    0.000    0.000    0.000 
#
# Total GULP energy -78473.301424 kJ/mol
# GULP energy per Si atom -5605.235816 kJ/mol
# Density = 2.378885 g / cm^3
# Si number density = 23.843120 Si / 1000 Ang^3
#
#
#
# Elastic Constant Matrix: (Units=GPa)
#
#
# Indices 1 2 3 4 5 6 
#
# 1 118.2532 19.0998 52.7666 0.0000 0.0000 0.0000
# 2 19.0998 118.2532 52.7666 0.0000 0.0000 0.0000
# 3 52.7666 52.7666 164.3883 0.0000 0.0000 0.0000
# 4 0.0000 0.0000 0.0000 17.3645 0.0000 0.0000
# 5 0.0000 0.0000 0.0000 0.0000 17.3645 0.0000
# 6 0.0000 0.0000 0.0000 0.0000 0.0000 40.4273
#
#
#
# Elastic Compliance Matrix: (Units=1/GPa)
#
#
# Indices 1 2 3 4 5 6 
#
# 1 0.009875 -0.000211 -0.003102 0.000000 0.000000 0.000000
# 2 -0.000211 0.009875 -0.003102 0.000000 0.000000 0.000000
# 3 -0.003102 -0.003102 0.008075 0.000000 0.000000 0.000000
# 4 0.000000 0.000000 0.000000 0.057589 0.000000 0.000000
# 5 0.000000 0.000000 0.000000 0.000000 0.057589 0.000000
# 6 0.000000 0.000000 0.000000 0.000000 0.000000 0.024736
#
#
# Mechanical properties :
#
#
# Convention : Reuss Voigt Hill
#
# Bulk Modulus (GPa) = 66.69169 72.24008 69.46588
# Shear Modulus (GPa) = 26.94477 33.44871 30.19674
#
# Velocity S-wave (km/s) = 3.36532 3.74955 3.56262
# Velocity P-wave (km/s) = 6.56752 7.00781 6.79123
#
# Compressibility (1/GPa) = 0.01499437
#
# Stress axis : x y z
#
# Youngs Moduli (GPa) = 101.26964 101.26964 123.84587
#
# Poissons Ratio (x) = 0.02134 0.38417
# Poissons Ratio (y) = 0.02134 0.38417
# Poissons Ratio (z) = 0.31414 0.31414
#
# Static dielectric constant tensor:
#      x y z
#    x 1.939500 0.000000 0.000000 
#    y 0.000000 1.939500 0.000000 
#    z 0.000000 0.000000 1.910490 
# 
# From -- ./inp_files/1639.got.cif
#   From: 2010.05.17/outbox.cif.g08.bks.cpg/sg122_1_cif.got.tgz:1639.got - 2010.05.20 11:37:33.
