data_PCOD9561304
_publ_section_title
;
Structure prediction by ZEFSAII (Michael W. Deem and Ramdas Pophale) SiO2 
 PCOD9561304
Probable space group: I -4 2 D
;
_chemical_formula_sum "Si O2"
_cell_formula_units_Z 120
_cell_length_a 25.554158
_cell_length_b 25.554158
_cell_length_c 10.018888
_cell_angle_alpha 90.000000
_cell_angle_beta 90.000000
_cell_angle_gamma 90.000000
_cell_volume 6542.484058
_symmetry_space_group_name_H-M "I -4 2 D"
_symmetry_group_IT_number 122
_symmetry_cell_setting 'tetragonal'
loop_
_space_group_symop_operation_xyz
x,y,z
y,-x,-z
-x,-y,z
-y,x,-z
x,1/2-y,1/4-z
-x,1/2+y,1/4-z
-y,1/2-x,1/4+z
y,1/2+x,1/4+z
1/2+x,1/2+y,1/2+z
1/2+y,1/2-x,1/2-z
1/2-x,1/2-y,1/2+z
1/2-y,1/2+x,1/2-z
1/2+x,-y,3/4-z
1/2-x,y,3/4-z
1/2-y,-x,3/4+z
1/2+y,x,3/4+z
loop_
_atom_site_type_symbol
_atom_site_label
_atom_site_fract_x
_atom_site_fract_y
_atom_site_fract_z
Si Si1 0.828660 0.250000 0.125000
Si Si2 0.239978 0.660616 0.220994
Si Si3 0.544133 0.809486 0.140175
Si Si4 0.806802 0.576984 0.808692
Si Si5 0.157948 0.885498 0.627835
Si Si6 0.077481 0.153547 0.881434
Si Si7 0.687315 0.471227 0.350381
Si Si8 0.589706 0.168826 0.502678
O O1 0.790078 0.284598 0.214696
O O2 0.867692 0.289808 0.054193
O O3 0.250000 0.648699 0.375000
O O4 0.294336 0.655779 0.142138
O O5 0.201365 0.617568 0.158614
O O6 0.563232 0.750000 0.125000
O O7 0.485692 0.808713 0.195241
O O8 0.583853 0.838893 0.237717
O O9 0.541297 0.832645 0.992920
O O10 0.750000 0.590695 0.875000
O O11 0.852518 0.605042 0.893407
O O12 0.821327 0.592763 0.656767
O O13 0.169289 0.929593 0.738742
O O14 0.114229 0.107202 0.823585
O O15 0.043662 0.154023 0.016924
O O16 0.750000 0.466358 0.375000
O O17 0.679110 0.530497 0.300770
#
# Coordination Sequence:
#
# PCOD9561304 Si02
#       8
#     8  16  16  16  16  16  16  16
#     4  10  26  36  58  88 136 170 206 258 330 374
#     4  11  22  39  58  88 128 174 212 251 313 392
#     4  11  21  40  63  91 126 165 219 261 314 382
#     4  11  27  39  65  99 132 169 214 270 329 389
#     4  12  22  40  65  89 130 172 217 261 321 393
#     4  11  22  40  65  94 121 169 215 268 323 382
#     4  12  22  42  68  92 128 172 217 271 325 386
#     4  11  24  42  61  96 132 166 217 274 322 381
#
# _framework density 18.341656
#
# number of rings (size 3 to 8) (size 9 to 14) (size 15 to 20)
#    0.000    0.800    7.333    0.000    4.667    1.067 
#    0.000    0.000    0.000    4.800    0.000    0.000 
#    0.000    0.000    0.000    0.000    0.000    0.000 
#
# Total GULP energy -334367.728312 kJ/mol
# GULP energy per Si atom -5572.795472 kJ/mol
# Density = 1.829991 g / cm^3
# Si number density = 18.341656 Si / 1000 Ang^3
#
#
#
# Elastic Constant Matrix: (Units=GPa)
#
#
# Indices 1 2 3 4 5 6 
#
# 1 61.5155 28.7684 31.0041 0.0000 0.0000 0.0000
# 2 28.7684 61.5155 31.0041 0.0000 0.0000 0.0000
# 3 31.0041 31.0041 109.7109 0.0000 0.0000 0.0000
# 4 0.0000 0.0000 0.0000 21.8373 0.0000 0.0000
# 5 0.0000 0.0000 0.0000 0.0000 21.8373 0.0000
# 6 0.0000 0.0000 0.0000 0.0000 0.0000 20.5600
#
#
#
# Elastic Compliance Matrix: (Units=1/GPa)
#
#
# Indices 1 2 3 4 5 6 
#
# 1 0.022140 -0.008397 -0.003884 0.000000 0.000000 0.000000
# 2 -0.008397 0.022140 -0.003884 0.000000 0.000000 0.000000
# 3 -0.003884 -0.003884 0.011310 0.000000 0.000000 0.000000
# 4 0.000000 0.000000 0.000000 0.045793 0.000000 0.000000
# 5 0.000000 0.000000 0.000000 0.000000 0.045793 0.000000
# 6 0.000000 0.000000 0.000000 0.000000 0.000000 0.048638
#
#
# Mechanical properties :
#
#
# Convention : Reuss Voigt Hill
#
# Bulk Modulus (GPa) = 42.98913 46.03280 44.51097
# Shear Modulus (GPa) = 21.19557 22.31128 21.75343
#
# Velocity S-wave (km/s) = 3.40310 3.49151 3.44759
# Velocity P-wave (km/s) = 6.23941 6.43476 6.33784
#
# Compressibility (1/GPa) = 0.02326169
#
# Stress axis : x y z
#
# Youngs Moduli (GPa) = 45.16635 45.16635 88.41685
#
# Poissons Ratio (x) = 0.37925 0.34341
# Poissons Ratio (y) = 0.37925 0.34341
# Poissons Ratio (z) = 0.17542 0.17542
#
# Static dielectric constant tensor:
#      x y z
#    x 1.637670 0.000000 0.000000 
#    y 0.000000 1.637670 0.000000 
#    z 0.000000 0.000000 1.632230 
# 
# From -- ./inp_files/3124.got.cif
#   From: 2010.05.17/outbox.cif.g08.bks.cpg/sg122_2_cif.got.tgz:3124.got - 2010.05.20 11:37:33.
