data_PCOD9561698
_publ_section_title
;
Structure prediction by ZEFSAII (Michael W. Deem and Ramdas Pophale) SiO2 
 PCOD9561698
Probable space group: P 4/M M M
;
_chemical_formula_sum "Si O2"
_cell_formula_units_Z 120
_cell_length_a 27.128408
_cell_length_b 27.128408
_cell_length_c 10.288342
_cell_angle_alpha 90.000000
_cell_angle_beta 90.000000
_cell_angle_gamma 90.000000
_cell_volume 7571.710651
_symmetry_space_group_name_H-M "P 4/M M M"
_symmetry_group_IT_number 123
_symmetry_cell_setting 'tetragonal'
loop_
_space_group_symop_operation_xyz
x,y,z
-y,x,z
-x,-y,z
y,-x,z
x,-y,-z
-x,y,-z
y,x,-z
-y,-x,-z
-x,-y,-z
y,-x,-z
x,y,-z
-y,x,-z
-x,y,z
x,-y,z
-y,-x,z
y,x,z
loop_
_atom_site_type_symbol
_atom_site_label
_atom_site_fract_x
_atom_site_fract_y
_atom_site_fract_z
Si Si1 0.191037 0.697700 0.645066
Si Si2 0.902374 0.242258 0.346572
Si Si3 0.782004 0.555254 0.155886
Si Si4 0.559190 0.057484 0.500000
Si Si5 0.656097 0.732885 0.153262
Si Si6 0.605963 0.124863 0.720521
Si Si7 0.943284 0.320741 0.854038
Si Si8 0.864916 0.943564 0.657829
O O1 0.212449 0.700993 0.500000
O O2 0.155325 0.744224 0.668242
O O3 0.230412 0.687676 0.756779
O O4 0.154670 0.650227 0.650250
O O5 0.914163 0.250352 0.500000
O O6 0.931285 0.279914 0.254156
O O7 0.917177 0.186823 0.312068
O O8 0.767141 0.500000 0.194948
O O9 0.743292 0.599001 0.186518
O O10 0.833652 0.570140 0.221837
O O11 0.788484 0.555678 0.000000
O O12 0.500000 0.058873 0.500000
O O13 0.579827 0.087137 0.623677
O O14 0.574820 0.000000 0.500000
O O15 0.678474 0.678474 0.172010
O O16 0.662228 0.745177 0.000000
O O17 0.633736 0.093195 0.830038
O O18 0.000000 0.336319 0.840976
O O19 0.935919 0.301108 0.000000
O O20 0.867444 0.944990 0.500000
O O21 0.910548 0.910548 0.703935
O O22 0.865571 0.000000 0.703901
#
# Coordination Sequence:
#
# PCOD9561698 Si02
#       8
#    16  16  16   8  16  16  16  16
#     4   9  17  29  46  68  90 118 157 187 223 277
#     4   9  18  31  48  69  93 119 151 187 230 280
#     4   9  17  30  50  70  88 119 162 199 233 278
#     4  11  22  32  44  64  89 122 164 208 247 284
#     4   9  18  31  47  69  99 128 153 188 233 275
#     4  10  18  32  46  63  91 121 156 200 241 275
#     4  10  20  31  46  68  93 122 154 191 236 283
#     4   9  17  29  45  66  91 118 149 186 230 281
#
# _framework density 15.848464999999999
#
# number of rings (size 3 to 8) (size 9 to 14) (size 15 to 20)
#    0.000    2.600    0.667    1.600    0.933    4.933 
#    0.000    2.000    0.000    0.400    0.000    5.600 
#    0.000    0.267    0.000    6.533    0.000    2.667 
#
# Total GULP energy -668430.901127 kJ/mol
# GULP energy per Si atom -5570.257509 kJ/mol
# Density = 1.581239 g / cm^3
# Si number density = 15.848465 Si / 1000 Ang^3
#
#
#
# Elastic Constant Matrix: (Units=GPa)
#
#
# Indices 1 2 3 4 5 6 
#
# 1 91.3678 70.4795 29.4151 0.0000 0.0000 0.0000
# 2 70.4795 91.3678 29.4151 0.0000 0.0000 0.0000
# 3 29.4151 29.4151 46.7330 0.0000 0.0000 0.0000
# 4 0.0000 0.0000 0.0000 15.2497 0.0000 0.0000
# 5 0.0000 0.0000 0.0000 0.0000 15.2497 0.0000
# 6 0.0000 0.0000 0.0000 0.0000 0.0000 24.7961
#
#
#
# Elastic Compliance Matrix: (Units=1/GPa)
#
#
# Indices 1 2 3 4 5 6 
#
# 1 0.027943 -0.019931 -0.005043 0.000000 0.000000 0.000000
# 2 -0.019931 0.027943 -0.005043 0.000000 0.000000 0.000000
# 3 -0.005043 -0.005043 0.027746 0.000000 0.000000 0.000000
# 4 0.000000 0.000000 0.000000 0.065575 0.000000 0.000000
# 5 0.000000 0.000000 0.000000 0.000000 0.065575 0.000000
# 6 0.000000 0.000000 0.000000 0.000000 0.000000 0.040329
#
#
# Mechanical properties :
#
#
# Convention : Reuss Voigt Hill
#
# Bulk Modulus (GPa) = 42.37553 54.23199 48.30376
# Shear Modulus (GPa) = 15.47939 17.73636 16.60788
#
# Velocity S-wave (km/s) = 3.12863 3.34896 3.24067
# Velocity P-wave (km/s) = 6.31246 7.01765 6.67437
#
# Compressibility (1/GPa) = 0.02359852
#
# Stress axis : x y z
#
# Youngs Moduli (GPa) = 35.78759 35.78759 36.04092
#
# Poissons Ratio (x) = 0.71328 0.18175
# Poissons Ratio (y) = 0.71328 0.18175
# Poissons Ratio (z) = 0.18047 0.18047
#
# Static dielectric constant tensor:
#      x y z
#    x 1.533310 0.000000 0.000000 
#    y 0.000000 1.533310 0.000000 
#    z 0.000000 0.000000 1.532570 
# 
# From -- ./inp_files/2071.got.cif
#   From: 2010.05.17/outbox.cif.g08.bks.cpg/sg123_2_cif.got.tgz:2071.got - 2010.05.20 11:43:04.
