data_PCOD9561838
_publ_section_title
;
Structure prediction by ZEFSAII (Michael W. Deem and Ramdas Pophale) SiO2 
 PCOD9561838
Probable space group: P 4/M M M
;
_chemical_formula_sum "Si O2"
_cell_formula_units_Z 120
_cell_length_a 23.756220
_cell_length_b 23.756220
_cell_length_c 13.180713
_cell_angle_alpha 90.000000
_cell_angle_beta 90.000000
_cell_angle_gamma 90.000000
_cell_volume 7438.640678
_symmetry_space_group_name_H-M "P 4/M M M"
_symmetry_group_IT_number 123
_symmetry_cell_setting 'tetragonal'
loop_
_space_group_symop_operation_xyz
x,y,z
-y,x,z
-x,-y,z
y,-x,z
x,-y,-z
-x,y,-z
y,x,-z
-y,-x,-z
-x,-y,-z
y,-x,-z
x,y,-z
-y,x,-z
-x,y,z
x,-y,z
-y,-x,z
y,x,z
loop_
_atom_site_type_symbol
_atom_site_label
_atom_site_fract_x
_atom_site_fract_y
_atom_site_fract_z
Si Si1 0.880217 0.350894 0.614959
Si Si2 0.825107 0.432743 0.109312
Si Si3 0.653175 0.436551 0.621499
Si Si4 0.777023 0.129987 0.319845
Si Si5 0.432536 0.781318 0.675118
Si Si6 0.933180 0.839832 0.500000
Si Si7 0.374392 0.062691 0.178034
Si Si8 0.065547 0.755880 0.884161
O O1 0.902106 0.349642 0.500000
O O2 0.861772 0.287853 0.647431
O O3 0.828134 0.394420 0.621154
O O4 0.924392 0.369122 0.701659
O O5 0.826234 0.500000 0.106556
O O6 0.787885 0.417612 0.206101
O O7 0.887773 0.410871 0.130666
O O8 0.805425 0.411287 0.000000
O O9 0.646474 0.438811 0.500000
O O10 0.643512 0.500000 0.661232
O O11 0.608969 0.391032 0.661649
O O12 0.717947 0.421225 0.641239
O O13 0.812884 0.187117 0.324257
O O14 0.805113 0.087640 0.401316
O O15 0.779441 0.103279 0.207240
O O16 0.500000 0.792007 0.660829
O O17 0.898201 0.898201 0.500000
O O18 0.000000 0.847066 0.500000
O O19 0.311755 0.066529 0.131448
O O20 0.396264 0.000000 0.160227
O O21 0.000000 0.773138 0.871645
O O22 0.082923 0.769177 0.000000
#
# Coordination Sequence:
#
# PCOD9561838 Si02
#       8
#    16  16  16  16  16   8  16  16
#     4  10  19  31  46  67  93 125 163 198 238 285
#     4   9  17  29  46  66  87 115 151 193 240 284
#     4   9  17  29  46  70  97 125 157 191 233 284
#     4  10  20  33  48  71 100 127 157 196 245 294
#     4   9  18  32  49  68  93 124 162 203 241 286
#     4  10  20  35  54  74  99 127 157 197 240 286
#     4   9  18  30  43  63  89 117 152 195 237 278
#     4   9  17  30  48  68  90 120 158 193 228 279
#
# _framework density 16.131979000000001
#
# number of rings (size 3 to 8) (size 9 to 14) (size 15 to 20)
#    0.000    2.667    0.667    1.200    0.000    3.667 
#    0.000    1.333    0.000    0.400    0.000    3.733 
#    0.000    0.000    0.000   17.600    0.000    0.133 
#
# Total GULP energy -668372.010321 kJ/mol
# GULP energy per Si atom -5569.766753 kJ/mol
# Density = 1.609526 g / cm^3
# Si number density = 16.131979 Si / 1000 Ang^3
#
#
#
# Elastic Constant Matrix: (Units=GPa)
#
#
# Indices 1 2 3 4 5 6 
#
# 1 39.0272 32.6362 6.8509 0.0000 0.0000 0.0000
# 2 32.6362 39.0272 6.8509 0.0000 0.0000 0.0000
# 3 6.8509 6.8509 93.9788 0.0000 0.0000 0.0000
# 4 0.0000 0.0000 0.0000 15.2968 0.0000 0.0000
# 5 0.0000 0.0000 0.0000 0.0000 15.2968 0.0000
# 6 0.0000 0.0000 0.0000 0.0000 0.0000 12.5278
#
#
#
# Elastic Compliance Matrix: (Units=1/GPa)
#
#
# Indices 1 2 3 4 5 6 
#
# 1 0.085311 -0.071160 -0.001032 0.000000 0.000000 0.000000
# 2 -0.071160 0.085311 -0.001032 0.000000 0.000000 0.000000
# 3 -0.001032 -0.001032 0.010791 0.000000 0.000000 0.000000
# 4 0.000000 0.000000 0.000000 0.065373 0.000000 0.000000
# 5 0.000000 0.000000 0.000000 0.000000 0.065373 0.000000
# 6 0.000000 0.000000 0.000000 0.000000 0.000000 0.079823
#
#
# Mechanical properties :
#
#
# Convention : Reuss Voigt Hill
#
# Bulk Modulus (GPa) = 28.59808 29.41214 29.00511
# Shear Modulus (GPa) = 9.08953 17.00394 13.04673
#
# Velocity S-wave (km/s) = 2.37628 3.25014 2.84694
# Velocity P-wave (km/s) = 5.02941 5.68826 5.36895
#
# Compressibility (1/GPa) = 0.03496739
#
# Stress axis : x y z
#
# Youngs Moduli (GPa) = 11.72183 11.72183 92.66887
#
# Poissons Ratio (x) = 0.83412 0.09560
# Poissons Ratio (y) = 0.83412 0.09560
# Poissons Ratio (z) = 0.01209 0.01209
#
# Static dielectric constant tensor:
#      x y z
#    x 1.521170 0.000000 0.000000 
#    y 0.000000 1.521170 0.000000 
#    z 0.000000 0.000000 1.582570 
# 
# From -- ./inp_files/3505.got.cif
#   From: 2010.05.17/outbox.cif.g08.bks.cpg/sg123_2_cif.got.tgz:3505.got - 2010.05.20 11:43:04.
