data_PCOD9561856
_publ_section_title
;
Structure prediction by ZEFSAII (Michael W. Deem and Ramdas Pophale) SiO2 
 PCOD9561856
Probable space group: P 4/M M M
;
_chemical_formula_sum "Si O2"
_cell_formula_units_Z 68
_cell_length_a 12.271553
_cell_length_b 12.271553
_cell_length_c 28.799836
_cell_angle_alpha 90.000000
_cell_angle_beta 90.000000
_cell_angle_gamma 90.000000
_cell_volume 4336.996478
_symmetry_space_group_name_H-M "P 4/M M M"
_symmetry_group_IT_number 123
_symmetry_cell_setting 'tetragonal'
loop_
_space_group_symop_operation_xyz
x,y,z
-y,x,z
-x,-y,z
y,-x,z
x,-y,-z
-x,y,-z
y,x,-z
-y,-x,-z
-x,-y,-z
y,-x,-z
x,y,-z
-y,x,-z
-x,y,z
x,-y,z
-y,-x,z
y,x,z
loop_
_atom_site_type_symbol
_atom_site_label
_atom_site_fract_x
_atom_site_fract_y
_atom_site_fract_z
Si Si1 0.693790 0.873008 0.253815
Si Si2 0.374003 0.000000 0.078677
Si Si3 0.867257 0.500000 0.321203
Si Si4 0.131671 0.500000 0.426921
Si Si5 0.187475 0.000000 0.000000
Si Si6 0.686454 0.868085 0.500000
Si Si7 0.623220 0.804603 0.848295
O O1 0.801228 0.801228 0.257050
O O2 0.605949 0.835104 0.291836
O O3 0.644520 0.856675 0.202354
O O4 0.716113 0.000000 0.261020
O O5 0.364922 0.895482 0.112161
O O6 0.500000 0.000000 0.059497
O O7 0.272975 0.000000 0.043046
O O8 0.828067 0.500000 0.374154
O O9 0.000000 0.500000 0.321825
O O10 0.159769 0.608572 0.456005
O O11 0.000000 0.500000 0.425550
O O12 0.105749 0.105749 0.000000
O O13 0.795123 0.795123 0.500000
O O14 0.706247 0.000000 0.500000
O O15 0.500000 0.762801 0.849438
O O16 0.709736 0.709736 0.855152
#
# Coordination Sequence:
#
# PCOD9561856 Si02
#       7
#    16   8   8   8   4   8  16
#     4  10  19  31  48  71 100 131 166 207 249 299
#     4  10  20  35  58  77 101 135 175 212 255 301
#     4   9  17  30  51  69  94 128 176 211 246 292
#     4   8  16  31  48  70  94 132 172 210 242 293
#     4  11  23  38  54  78 113 141 168 212 260 311
#     4   9  17  30  50  74 103 131 166 208 256 305
#     4  10  19  32  51  74 100 132 169 210 254 302
#
# _framework density 15.679053
#
# number of rings (size 3 to 8) (size 9 to 14) (size 15 to 20)
#    0.000    2.412    2.353    1.588    0.000    1.529 
#    0.000    0.000    0.000    3.176    0.000    9.882 
#    0.000    8.471    0.000    0.000    0.000    0.000 
#
# Total GULP energy -378756.110254 kJ/mol
# GULP energy per Si atom -5569.942798 kJ/mol
# Density = 1.564337 g / cm^3
# Si number density = 15.679053 Si / 1000 Ang^3
#
#
#
# Elastic Constant Matrix: (Units=GPa)
#
#
# Indices 1 2 3 4 5 6 
#
# 1 97.7419 59.0507 50.1155 0.0000 0.0000 0.0000
# 2 59.0507 97.7419 50.1155 0.0000 0.0000 0.0000
# 3 50.1155 50.1155 116.5306 0.0000 0.0000 0.0000
# 4 0.0000 0.0000 0.0000 9.2718 0.0000 0.0000
# 5 0.0000 0.0000 0.0000 0.0000 9.2718 0.0000
# 6 0.0000 0.0000 0.0000 0.0000 0.0000 7.7477
#
#
#
# Elastic Compliance Matrix: (Units=1/GPa)
#
#
# Indices 1 2 3 4 5 6 
#
# 1 0.017321 -0.008525 -0.003783 0.000000 0.000000 0.000000
# 2 -0.008525 0.017321 -0.003783 0.000000 0.000000 0.000000
# 3 -0.003783 -0.003783 0.011835 0.000000 0.000000 0.000000
# 4 0.000000 0.000000 0.000000 0.107854 0.000000 0.000000
# 5 0.000000 0.000000 0.000000 0.000000 0.107854 0.000000
# 6 0.000000 0.000000 0.000000 0.000000 0.000000 0.129070
#
#
# Mechanical properties :
#
#
# Convention : Reuss Voigt Hill
#
# Bulk Modulus (GPa) = 69.95027 70.06419 70.00723
# Shear Modulus (GPa) = 11.67674 15.44043 13.55858
#
# Velocity S-wave (km/s) = 2.73194 3.14153 2.94387
# Velocity P-wave (km/s) = 7.39338 7.61199 7.50348
#
# Compressibility (1/GPa) = 0.01429587
#
# Stress axis : x y z
#
# Youngs Moduli (GPa) = 57.73375 57.73375 84.49379
#
# Poissons Ratio (x) = 0.49217 0.31963
# Poissons Ratio (y) = 0.49217 0.31963
# Poissons Ratio (z) = 0.21840 0.21840
#
# Static dielectric constant tensor:
#      x y z
#    x 1.502740 0.000000 0.000000 
#    y 0.000000 1.502740 0.000000 
#    z 0.000000 0.000000 1.534800 
# 
# From -- ./inp_files/7940.got.cif
#   From: 2010.05.17/outbox.cif.g08.bks.cpg/sg123_4_cif.got.tgz:7940.got - 2010.05.20 11:43:04.
