data_PCOD9561923
_publ_section_title
;
Structure prediction by ZEFSAII (Michael W. Deem and Ramdas Pophale) SiO2 
 PCOD9561923
Probable space group: P 4/M M M
;
_chemical_formula_sum "Si O2"
_cell_formula_units_Z 72
_cell_length_a 18.343249
_cell_length_b 18.343249
_cell_length_c 12.864308
_cell_angle_alpha 90.000000
_cell_angle_beta 90.000000
_cell_angle_gamma 90.000000
_cell_volume 4328.515254
_symmetry_space_group_name_H-M "P 4/M M M"
_symmetry_group_IT_number 123
_symmetry_cell_setting 'tetragonal'
loop_
_space_group_symop_operation_xyz
x,y,z
-y,x,z
-x,-y,z
y,-x,z
x,-y,-z
-x,y,-z
y,x,-z
-y,-x,-z
-x,-y,-z
y,-x,-z
x,y,-z
-y,x,-z
-x,y,z
x,-y,z
-y,-x,z
y,x,z
loop_
_atom_site_type_symbol
_atom_site_label
_atom_site_fract_x
_atom_site_fract_y
_atom_site_fract_z
Si Si1 0.627869 0.000000 0.874676
Si Si2 0.581339 0.698157 0.124890
Si Si3 0.153542 0.274818 0.376562
Si Si4 0.000000 0.121501 0.889869
Si Si5 0.147799 0.582135 0.234706
Si Si6 0.000000 0.236141 0.282670
O O1 0.590126 0.925679 0.833823
O O2 0.702619 0.000000 0.808412
O O3 0.634338 0.000000 0.000000
O O4 0.500000 0.672786 0.155502
O O5 0.644038 0.644038 0.164011
O O6 0.589822 0.780355 0.164102
O O7 0.584382 0.698399 0.000000
O O8 0.159938 0.284973 0.500000
O O9 0.217849 0.217849 0.343969
O O10 0.154317 0.352512 0.317625
O O11 0.073720 0.243184 0.348588
O O12 0.069968 0.069968 0.891874
O O13 0.000000 0.163733 0.783833
O O14 0.000000 0.164639 0.000000
O O15 0.147862 0.500000 0.280080
#
# Coordination Sequence:
#
# PCOD9561923 Si02
#       6
#     8  16  16   8  16   8
#     4  10  20  32  48  72 100 130 163 195 230 277
#     4   9  17  29  46  69  97 127 157 190 230 279
#     4  10  21  36  53  72  95 124 159 201 245 286
#     4   9  17  29  47  72 100 129 160 193 231 278
#     4  10  20  33  50  71  95 125 160 198 239 282
#     4  10  19  33  51  72  98 128 161 196 237 282
#
# _framework density 16.633879
#
# number of rings (size 3 to 8) (size 9 to 14) (size 15 to 20)
#    0.000    2.333    0.000    3.333    0.000    2.444 
#    0.000    1.111    0.000   14.667    0.000    4.667 
#    0.000    0.000    0.000   20.667    0.000    0.222 
#
# Total GULP energy -400925.649778 kJ/mol
# GULP energy per Si atom -5568.411802 kJ/mol
# Density = 1.659602 g / cm^3
# Si number density = 16.633879 Si / 1000 Ang^3
#
#
#
# Elastic Constant Matrix: (Units=GPa)
#
#
# Indices 1 2 3 4 5 6 
#
# 1 113.5779 64.8435 38.8015 0.0000 0.0000 0.0000
# 2 64.8435 113.5779 38.8015 0.0000 0.0000 0.0000
# 3 38.8015 38.8015 65.4636 0.0000 0.0000 0.0000
# 4 0.0000 0.0000 0.0000 18.0496 0.0000 0.0000
# 5 0.0000 0.0000 0.0000 0.0000 18.0496 0.0000
# 6 0.0000 0.0000 0.0000 0.0000 0.0000 21.3807
#
#
#
# Elastic Compliance Matrix: (Units=1/GPa)
#
#
# Indices 1 2 3 4 5 6 
#
# 1 0.014035 -0.006484 -0.004476 0.000000 0.000000 0.000000
# 2 -0.006484 0.014035 -0.004476 0.000000 0.000000 0.000000
# 3 -0.004476 -0.004476 0.020582 0.000000 0.000000 0.000000
# 4 0.000000 0.000000 0.000000 0.055403 0.000000 0.000000
# 5 0.000000 0.000000 0.000000 0.000000 0.055403 0.000000
# 6 0.000000 0.000000 0.000000 0.000000 0.000000 0.046771
#
#
# Mechanical properties :
#
#
# Convention : Reuss Voigt Hill
#
# Bulk Modulus (GPa) = 56.24012 64.16805 60.20409
# Shear Modulus (GPa) = 20.57379 21.50752 21.04066
#
# Velocity S-wave (km/s) = 3.52072 3.59972 3.56044
# Velocity P-wave (km/s) = 7.10009 7.47916 7.29209
#
# Compressibility (1/GPa) = 0.01778090
#
# Stress axis : x y z
#
# Youngs Moduli (GPa) = 71.24833 71.24833 48.58720
#
# Poissons Ratio (x) = 0.46197 0.21747
# Poissons Ratio (y) = 0.46197 0.21747
# Poissons Ratio (z) = 0.31890 0.31890
#
# Static dielectric constant tensor:
#      x y z
#    x 1.573580 0.000000 0.000000 
#    y 0.000000 1.573580 0.000000 
#    z 0.000000 0.000000 1.533520 
# 
# From -- ./inp_files/2786.got.cif
#   From: 2010.05.17/outbox.cif.g08.bks.cpg/sg123_2_cif.got.tgz:2786.got - 2010.05.20 11:43:04.
