data_PCOD9561544
_publ_section_title
;
Structure prediction by ZEFSAII (Michael W. Deem and Ramdas Pophale) SiO2 
 PCOD9561544
Probable space group: I -4 2 D
;
_chemical_formula_sum "Si O2"
_cell_formula_units_Z 36
_cell_length_a 10.078415
_cell_length_b 10.078415
_cell_length_c 15.269225
_cell_angle_alpha 90.000000
_cell_angle_beta 90.000000
_cell_angle_gamma 90.000000
_cell_volume 1550.963115
_symmetry_space_group_name_H-M "I -4 2 D"
_symmetry_group_IT_number 122
_symmetry_cell_setting 'tetragonal'
loop_
_space_group_symop_operation_xyz
x,y,z
y,-x,-z
-x,-y,z
-y,x,-z
x,1/2-y,1/4-z
-x,1/2+y,1/4-z
-y,1/2-x,1/4+z
y,1/2+x,1/4+z
1/2+x,1/2+y,1/2+z
1/2+y,1/2-x,1/2-z
1/2-x,1/2-y,1/2+z
1/2-y,1/2+x,1/2-z
1/2+x,-y,3/4-z
1/2-x,y,3/4-z
1/2-y,-x,3/4+z
1/2+y,x,3/4+z
loop_
_atom_site_type_symbol
_atom_site_label
_atom_site_fract_x
_atom_site_fract_y
_atom_site_fract_z
Si Si1 0.598371 0.616606 0.342994
Si Si2 0.611447 0.331118 0.858339
Si Si3 0.500000 0.500000 0.000000
O O1 0.500000 0.500000 0.373834
O O2 0.750000 0.609518 0.375000
O O3 0.609675 0.610046 0.238086
O O4 0.521138 0.746967 0.375388
O O5 0.750000 0.253446 0.875000
O O6 0.608679 0.441950 0.934096
#
# Coordination Sequence:
#
# PCOD9561544 Si02
#       3
#    16  16   4
#     4  12  30  48  80 114 163 211 269 338 416 496
#     4  12  27  49  79 114 158 209 274 338 408 494
#     4  12  24  48  80 112 150 212 272 340 408 488
#
# _framework density 23.211382
#
# number of rings (size 3 to 8) (size 9 to 14) (size 15 to 20)
#    0.000    0.000    6.667    1.333   12.444    1.778 
#    0.000    0.000    0.000    0.000    0.000    0.000 
#    0.000    0.000    0.000    0.000    0.000    0.000 
#
# Total GULP energy -100666.786080 kJ/mol
# GULP energy per Si atom -5592.599227 kJ/mol
# Density = 2.315855 g / cm^3
# Si number density = 23.211382 Si / 1000 Ang^3
#
#
#
# Elastic Constant Matrix: (Units=GPa)
#
#
# Indices 1 2 3 4 5 6 
#
# 1 136.9690 49.9426 33.1840 0.0000 0.0000 0.0000
# 2 49.9426 136.9690 33.1840 0.0000 0.0000 0.0000
# 3 33.1840 33.1840 110.9941 0.0000 0.0000 0.0000
# 4 0.0000 0.0000 0.0000 27.5734 0.0000 0.0000
# 5 0.0000 0.0000 0.0000 0.0000 27.5734 0.0000
# 6 0.0000 0.0000 0.0000 0.0000 0.0000 51.3405
#
#
#
# Elastic Compliance Matrix: (Units=1/GPa)
#
#
# Indices 1 2 3 4 5 6 
#
# 1 0.008738 -0.002753 -0.001789 0.000000 0.000000 0.000000
# 2 -0.002753 0.008738 -0.001789 0.000000 0.000000 0.000000
# 3 -0.001789 -0.001789 0.010080 0.000000 0.000000 0.000000
# 4 0.000000 0.000000 0.000000 0.036267 0.000000 0.000000
# 5 0.000000 0.000000 0.000000 0.000000 0.036267 0.000000
# 6 0.000000 0.000000 0.000000 0.000000 0.000000 0.019478
#
#
# Mechanical properties :
#
#
# Convention : Reuss Voigt Hill
#
# Bulk Modulus (GPa) = 67.14757 68.61703 67.88230
# Shear Modulus (GPa) = 36.44454 39.20555 37.82504
#
# Velocity S-wave (km/s) = 3.96677 4.11428 4.04120
# Velocity P-wave (km/s) = 7.06908 7.22466 7.14729
#
# Compressibility (1/GPa) = 0.01489257
#
# Stress axis : x y z
#
# Youngs Moduli (GPa) = 114.44068 114.44068 99.21124
#
# Poissons Ratio (x) = 0.31501 0.17754
# Poissons Ratio (y) = 0.31501 0.17754
# Poissons Ratio (z) = 0.20479 0.20479
#
# Static dielectric constant tensor:
#      x y z
#    x 1.956370 0.000000 0.000000 
#    y 0.000000 1.956370 0.000000 
#    z 0.000000 0.000000 1.806680 
# 
# From -- ./inp_files/3351.got.cif
#   From: 2010.05.17/outbox.cif.g08.bks.cpg/sg122_2_cif.got.tgz:3351.got - 2010.05.20 11:37:33.
