data_PCOD9561801
_publ_section_title
;
Structure prediction by ZEFSAII (Michael W. Deem and Ramdas Pophale) SiO2 
 PCOD9561801
Probable space group: P 4/M M M
;
_chemical_formula_sum "Si O2"
_cell_formula_units_Z 72
_cell_length_a 12.825443
_cell_length_b 12.825443
_cell_length_c 27.925379
_cell_angle_alpha 90.000000
_cell_angle_beta 90.000000
_cell_angle_gamma 90.000000
_cell_volume 4593.501111
_symmetry_space_group_name_H-M "P 4/M M M"
_symmetry_group_IT_number 123
_symmetry_cell_setting 'tetragonal'
loop_
_space_group_symop_operation_xyz
x,y,z
-y,x,z
-x,-y,z
y,-x,z
x,-y,-z
-x,y,-z
y,x,-z
-y,-x,-z
-x,-y,-z
y,-x,-z
x,y,-z
-y,x,-z
-x,y,z
x,-y,z
-y,-x,z
y,x,z
loop_
_atom_site_type_symbol
_atom_site_label
_atom_site_fract_x
_atom_site_fract_y
_atom_site_fract_z
Si Si1 0.328173 0.500000 0.557596
Si Si2 0.378602 0.877757 0.215571
Si Si3 0.711363 0.120876 0.680950
Si Si4 0.120398 0.500000 0.380548
Si Si5 0.373414 0.000000 0.054995
Si Si6 0.208990 0.375792 0.888617
O O1 0.398812 0.398812 0.570814
O O2 0.318426 0.500000 0.500000
O O3 0.215055 0.500000 0.581805
O O4 0.500000 0.861603 0.228254
O O5 0.313245 0.857712 0.263133
O O6 0.357366 0.813864 0.167679
O O7 0.366777 0.000000 0.203140
O O8 0.798836 0.201165 0.663993
O O9 0.603492 0.131434 0.651924
O O10 0.744581 0.000000 0.676802
O O11 0.000000 0.500000 0.399403
O O12 0.342933 0.894645 0.082491
O O13 0.500000 0.000000 0.055295
O O14 0.338388 0.000000 0.000000
O O15 0.224259 0.500000 0.895318
O O16 0.307725 0.307725 0.903521
#
# Coordination Sequence:
#
# PCOD9561801 Si02
#       6
#     8  16  16   8   8  16
#     4   9  18  33  53  75  99 130 167 207 251 293
#     4   9  15  28  48  69  93 121 163 203 234 277
#     4  10  19  30  46  68  95 128 162 202 244 287
#     4  10  19  32  48  72  99 130 167 204 242 288
#     4   9  18  34  52  71  91 117 159 198 227 275
#     4  10  19  31  50  74  97 126 156 191 238 285
#
# _framework density 15.674319000000001
#
# number of rings (size 3 to 8) (size 9 to 14) (size 15 to 20)
#    0.000    2.444    2.222    1.667    0.000    1.111 
#    0.000    0.000    0.000    0.333    0.000    3.889 
#    0.000    0.000    0.000   20.667    0.000    0.000 
#
# Total GULP energy -401054.412834 kJ/mol
# GULP energy per Si atom -5570.200178 kJ/mol
# Density = 1.563864 g / cm^3
# Si number density = 15.674319 Si / 1000 Ang^3
#
#
#
# Elastic Constant Matrix: (Units=GPa)
#
#
# Indices 1 2 3 4 5 6 
#
# 1 93.7070 78.4482 36.8756 0.0000 0.0000 0.0000
# 2 78.4482 93.7070 36.8756 0.0000 0.0000 0.0000
# 3 36.8756 36.8756 52.1862 0.0000 0.0000 0.0000
# 4 0.0000 0.0000 0.0000 11.9060 0.0000 0.0000
# 5 0.0000 0.0000 0.0000 0.0000 11.9060 0.0000
# 6 0.0000 0.0000 0.0000 0.0000 0.0000 27.0526
#
#
#
# Elastic Compliance Matrix: (Units=1/GPa)
#
#
# Indices 1 2 3 4 5 6 
#
# 1 0.036933 -0.028603 -0.005886 0.000000 0.000000 0.000000
# 2 -0.028603 0.036933 -0.005886 0.000000 0.000000 0.000000
# 3 -0.005886 -0.005886 0.027481 0.000000 0.000000 0.000000
# 4 0.000000 0.000000 0.000000 0.083991 0.000000 0.000000
# 5 0.000000 0.000000 0.000000 0.000000 0.083991 0.000000
# 6 0.000000 0.000000 0.000000 0.000000 0.000000 0.036965
#
#
# Mechanical properties :
#
#
# Convention : Reuss Voigt Hill
#
# Bulk Modulus (GPa) = 48.55259 60.44434 54.49847
# Shear Modulus (GPa) = 12.69319 15.99963 14.34641
#
# Velocity S-wave (km/s) = 2.84880 3.19839 3.02864
# Velocity P-wave (km/s) = 6.47024 7.23090 6.86112
#
# Compressibility (1/GPa) = 0.02059622
#
# Stress axis : x y z
#
# Youngs Moduli (GPa) = 27.07591 27.07591 36.38871
#
# Poissons Ratio (x) = 0.77445 0.21420
# Poissons Ratio (y) = 0.77445 0.21420
# Poissons Ratio (z) = 0.15938 0.15938
#
# Static dielectric constant tensor:
#      x y z
#    x 1.515890 0.000000 0.000000 
#    y 0.000000 1.515890 0.000000 
#    z 0.000000 0.000000 1.518090 
# 
# From -- ./inp_files/8298.got.cif
#   From: 2010.05.17/outbox.cif.g08.bks.cpg/sg123_5_cif.got.tgz:8298.got - 2010.05.20 11:43:04.
