data_PCOD9561237
_publ_section_title
;
Structure prediction by ZEFSAII (Michael W. Deem and Ramdas Pophale) SiO2 
 PCOD9561237
Probable space group: I -4 2 D
;
_chemical_formula_sum "Si O2"
_cell_formula_units_Z 40
_cell_length_a 9.019598
_cell_length_b 9.019598
_cell_length_c 21.252139
_cell_angle_alpha 90.000000
_cell_angle_beta 90.000000
_cell_angle_gamma 90.000000
_cell_volume 1728.928411
_symmetry_space_group_name_H-M "I -4 2 D"
_symmetry_group_IT_number 122
_symmetry_cell_setting 'tetragonal'
loop_
_space_group_symop_operation_xyz
x,y,z
y,-x,-z
-x,-y,z
-y,x,-z
x,1/2-y,1/4-z
-x,1/2+y,1/4-z
-y,1/2-x,1/4+z
y,1/2+x,1/4+z
1/2+x,1/2+y,1/2+z
1/2+y,1/2-x,1/2-z
1/2-x,1/2-y,1/2+z
1/2-y,1/2+x,1/2-z
1/2+x,-y,3/4-z
1/2-x,y,3/4-z
1/2-y,-x,3/4+z
1/2+y,x,3/4+z
loop_
_atom_site_type_symbol
_atom_site_label
_atom_site_fract_x
_atom_site_fract_y
_atom_site_fract_z
Si Si1 0.770555 0.927643 0.501112
Si Si2 0.164939 0.888371 0.040666
Si Si3 0.500000 0.000000 0.594047
O O1 0.693076 0.819163 0.451681
O O2 0.638959 0.947472 0.552059
O O3 0.915915 0.834476 0.522602
O O4 0.077401 0.893815 0.105231
O O5 0.054339 0.814839 0.988636
#
# Coordination Sequence:
#
# PCOD9561237 Si02
#       3
#    16  16   8
#     4  11  24  42  65 101 140 172 224 292 344 401
#     4   9  21  42  71  97 121 175 232 269 334 424
#     4  10  23  48  72  92 138 186 225 276 344 416
#
# _framework density 23.135718000000001
#
# number of rings (size 3 to 8) (size 9 to 14) (size 15 to 20)
#    0.000    2.400    0.000    2.400    0.000   14.400 
#    0.000   40.000    0.000    0.000    0.000    0.000 
#    0.000    0.000    0.000    0.000    0.000    0.000 
#
# Total GULP energy -111466.647309 kJ/mol
# GULP energy per Si atom -5573.332365 kJ/mol
# Density = 2.308306 g / cm^3
# Si number density = 23.135718 Si / 1000 Ang^3
#
#
#
# Elastic Constant Matrix: (Units=GPa)
#
#
# Indices 1 2 3 4 5 6 
#
# 1 158.5764 83.7164 78.9939 0.0000 0.0000 0.0000
# 2 83.7164 158.5764 78.9939 0.0000 0.0000 0.0000
# 3 78.9939 78.9939 99.4888 0.0000 0.0000 0.0000
# 4 0.0000 0.0000 0.0000 -25.8299 0.0000 0.0000
# 5 0.0000 0.0000 0.0000 0.0000 -25.8299 0.0000
# 6 0.0000 0.0000 0.0000 0.0000 0.0000 56.8164
#
#
#
# Elastic Compliance Matrix: (Units=1/GPa)
#
#
# Indices 1 2 3 4 5 6 
#
# 1 0.010958 -0.002400 -0.006795 0.000000 0.000000 0.000000
# 2 -0.002400 0.010958 -0.006795 0.000000 0.000000 0.000000
# 3 -0.006795 -0.006795 0.020842 0.000000 0.000000 0.000000
# 4 0.000000 0.000000 0.000000 -0.038715 0.000000 0.000000
# 5 0.000000 0.000000 0.000000 0.000000 -0.038715 0.000000
# 6 0.000000 0.000000 0.000000 0.000000 0.000000 0.017601
#
#
# Mechanical properties :
#
#
# Convention : Reuss Voigt Hill
#
# Bulk Modulus (GPa) = 92.78396 100.00556 96.39476
# Shear Modulus (GPa) = 270.24332 12.69379 141.46856
#
# Velocity S-wave (km/s) = 10.81949 2.34490 7.82815
# Velocity P-wave (km/s) = 14.00975 7.11694 11.11135
#
# Compressibility (1/GPa) = 0.01077772
#
# Stress axis : x y z
#
# Youngs Moduli (GPa) = 91.25670 91.25670 47.98053
#
# Poissons Ratio (x) = 0.21903 0.32603
# Poissons Ratio (y) = 0.21903 0.32603
# Poissons Ratio (z) = 0.62009 0.62009
#
# Static dielectric constant tensor:
#      x y z
#    x 2.156760 0.000000 0.000000 
#    y 0.000000 2.156760 0.000000 
#    z 0.000000 0.000000 1.866590 
# 
# From -- ./inp_files/7608.got.cif
#   From: 2010.05.17/outbox.cif.g08.bks.cpg/sg122_4_cif.got.tgz:7608.got - 2010.05.20 11:37:33.
