data_PCOD9561531
_publ_section_title
;
Structure prediction by ZEFSAII (Michael W. Deem and Ramdas Pophale) SiO2 
 PCOD9561531
Probable space group: I -4 2 D
;
_chemical_formula_sum "Si O2"
_cell_formula_units_Z 48
_cell_length_a 8.623945
_cell_length_b 8.623945
_cell_length_c 25.827573
_cell_angle_alpha 90.000000
_cell_angle_beta 90.000000
_cell_angle_gamma 90.000000
_cell_volume 1920.859297
_symmetry_space_group_name_H-M "I -4 2 D"
_symmetry_group_IT_number 122
_symmetry_cell_setting 'tetragonal'
loop_
_space_group_symop_operation_xyz
x,y,z
y,-x,-z
-x,-y,z
-y,x,-z
x,1/2-y,1/4-z
-x,1/2+y,1/4-z
-y,1/2-x,1/4+z
y,1/2+x,1/4+z
1/2+x,1/2+y,1/2+z
1/2+y,1/2-x,1/2-z
1/2-x,1/2-y,1/2+z
1/2-y,1/2+x,1/2-z
1/2+x,-y,3/4-z
1/2-x,y,3/4-z
1/2-y,-x,3/4+z
1/2+y,x,3/4+z
loop_
_atom_site_type_symbol
_atom_site_label
_atom_site_fract_x
_atom_site_fract_y
_atom_site_fract_z
Si Si1 0.553637 0.835270 0.530022
Si Si2 0.354961 0.409690 0.096320
Si Si3 0.898984 0.652894 0.324870
O O1 0.717228 0.856398 0.558460
O O2 0.420901 0.772843 0.569359
O O3 0.570704 0.721905 0.482012
O O4 0.500000 0.000000 0.509629
O O5 0.500000 0.500000 0.071599
O O6 0.403516 0.250000 0.125000
O O7 0.281376 0.534292 0.136447
O O8 0.000000 0.500000 0.334209
#
# Coordination Sequence:
#
# PCOD9561531 Si02
#       3
#    16  16  16
#     4  12  26  46  80 114 157 217 274 339 419 498
#     4  12  28  47  79 118 160 208 272 351 418 500
#     4  12  23  52  81 109 157 214 280 337 414 511
#
# _framework density 24.988816
#
# number of rings (size 3 to 8) (size 9 to 14) (size 15 to 20)
#    0.000    0.000    6.667    2.000    4.667    0.000 
#    0.000    0.000    0.000    0.000    0.000    0.000 
#    0.000    0.000    0.000    0.000    0.000    0.000 
#
# Total GULP energy -134469.692498 kJ/mol
# GULP energy per Si atom -5602.903854 kJ/mol
# Density = 2.493194 g / cm^3
# Si number density = 24.988816 Si / 1000 Ang^3
#
#
#
# Elastic Constant Matrix: (Units=GPa)
#
#
# Indices 1 2 3 4 5 6 
#
# 1 118.1161 37.9475 8.4434 0.0000 0.0000 0.0000
# 2 37.9475 118.1161 8.4434 0.0000 0.0000 0.0000
# 3 8.4434 8.4434 67.4447 0.0000 0.0000 0.0000
# 4 0.0000 0.0000 0.0000 33.7939 0.0000 0.0000
# 5 0.0000 0.0000 0.0000 0.0000 33.7939 0.0000
# 6 0.0000 0.0000 0.0000 0.0000 0.0000 67.6694
#
#
#
# Elastic Compliance Matrix: (Units=1/GPa)
#
#
# Indices 1 2 3 4 5 6 
#
# 1 0.009485 -0.002989 -0.000813 0.000000 0.000000 0.000000
# 2 -0.002989 0.009485 -0.000813 0.000000 0.000000 0.000000
# 3 -0.000813 -0.000813 0.015031 0.000000 0.000000 0.000000
# 4 0.000000 0.000000 0.000000 0.029591 0.000000 0.000000
# 5 0.000000 0.000000 0.000000 0.000000 0.029591 0.000000
# 6 0.000000 0.000000 0.000000 0.000000 0.000000 0.014778
#
#
# Mechanical properties :
#
#
# Convention : Reuss Voigt Hill
#
# Bulk Modulus (GPa) = 40.37290 45.92727 43.15009
# Shear Modulus (GPa) = 39.85744 43.64095 41.74919
#
# Velocity S-wave (km/s) = 3.99809 4.18355 4.09187
# Velocity P-wave (km/s) = 6.12409 6.46182 6.29522
#
# Compressibility (1/GPa) = 0.02476909
#
# Stress axis : x y z
#
# Youngs Moduli (GPa) = 105.43321 105.43321 66.53104
#
# Poissons Ratio (x) = 0.31514 0.05410
# Poissons Ratio (y) = 0.31514 0.05410
# Poissons Ratio (z) = 0.08574 0.08574
#
# Static dielectric constant tensor:
#      x y z
#    x 1.985850 0.000000 0.000000 
#    y 0.000000 1.985850 0.000000 
#    z 0.000000 0.000000 1.977910 
# 
# From -- ./inp_files/9015.got.cif
#   From: 2010.05.17/outbox.cif.g08.bks.cpg/sg122_5_cif.got.tgz:9015.got - 2010.05.20 11:37:33.
