data_PCOD9561700
_publ_section_title
;
Structure prediction by ZEFSAII (Michael W. Deem and Ramdas Pophale) SiO2 
 PCOD9561700
Probable space group: P 4/M M M
;
_chemical_formula_sum "Si O2"
_cell_formula_units_Z 96
_cell_length_a 18.225256
_cell_length_b 18.225256
_cell_length_c 17.261699
_cell_angle_alpha 90.000000
_cell_angle_beta 90.000000
_cell_angle_gamma 90.000000
_cell_volume 5733.645185
_symmetry_space_group_name_H-M "P 4/M M M"
_symmetry_group_IT_number 123
_symmetry_cell_setting 'tetragonal'
loop_
_space_group_symop_operation_xyz
x,y,z
-y,x,z
-x,-y,z
y,-x,z
x,-y,-z
-x,y,-z
y,x,-z
-y,-x,-z
-x,-y,-z
y,-x,-z
x,y,-z
-y,x,-z
-x,y,z
x,-y,z
-y,-x,z
y,x,z
loop_
_atom_site_type_symbol
_atom_site_label
_atom_site_fract_x
_atom_site_fract_y
_atom_site_fract_z
Si Si1 0.085025 0.207198 0.180031
Si Si2 0.264446 0.143876 0.661815
Si Si3 0.706478 0.415185 0.180893
Si Si4 0.293240 0.415871 0.500000
Si Si5 0.793479 0.913618 0.500000
Si Si6 0.583110 0.209788 0.661630
Si Si7 0.812441 0.313450 0.088827
O O1 0.135957 0.135957 0.164555
O O2 0.096229 0.228214 0.270286
O O3 0.119859 0.274919 0.132080
O O4 0.000000 0.195223 0.162424
O O5 0.223168 0.223168 0.666596
O O6 0.248365 0.111576 0.577465
O O7 0.350527 0.154155 0.675107
O O8 0.694172 0.500000 0.160275
O O9 0.636184 0.363817 0.166544
O O10 0.728974 0.411482 0.271322
O O11 0.775241 0.380646 0.134311
O O12 0.319740 0.500000 0.500000
O O13 0.358907 0.358907 0.500000
O O14 0.245149 0.405609 0.577206
O O15 0.870173 0.870173 0.500000
O O16 0.803472 0.000000 0.500000
O O17 0.500000 0.179577 0.665309
O O18 0.749266 0.250735 0.089125
O O19 0.829409 0.331892 0.000000
#
# Coordination Sequence:
#
# PCOD9561700 Si02
#       7
#    16  16  16   8   8  16  16
#     4  10  20  34  55  81 108 137 168 208 258 312
#     4  10  18  32  53  74 102 139 180 219 253 301
#     4  10  19  32  52  78 108 141 178 222 269 314
#     4  10  19  28  41  65  96 132 171 210 254 300
#     4  10  21  34  52  78 104 136 173 212 260 312
#     4  10  19  31  50  74 101 134 176 224 264 298
#     4   9  18  34  55  76 100 135 176 212 251 308
#
# _framework density 16.743276000000002
#
# number of rings (size 3 to 8) (size 9 to 14) (size 15 to 20)
#    0.000    2.167    1.667    2.500    0.000    1.833 
#    0.000    0.000    0.000   10.000    0.000    5.833 
#    0.000    0.000    0.000    0.000    0.000    0.000 
#
# Total GULP energy -535297.296555 kJ/mol
# GULP energy per Si atom -5576.013506 kJ/mol
# Density = 1.670517 g / cm^3
# Si number density = 16.743276 Si / 1000 Ang^3
#
#
#
# Elastic Constant Matrix: (Units=GPa)
#
#
# Indices 1 2 3 4 5 6 
#
# 1 106.9500 51.1974 24.9952 0.0000 0.0000 0.0000
# 2 51.1974 106.9500 24.9952 0.0000 0.0000 0.0000
# 3 24.9952 24.9952 96.2757 0.0000 0.0000 0.0000
# 4 0.0000 0.0000 0.0000 10.2661 0.0000 0.0000
# 5 0.0000 0.0000 0.0000 0.0000 10.2661 0.0000
# 6 0.0000 0.0000 0.0000 0.0000 0.0000 11.7474
#
#
#
# Elastic Compliance Matrix: (Units=1/GPa)
#
#
# Indices 1 2 3 4 5 6 
#
# 1 0.012412 -0.005524 -0.001788 0.000000 0.000000 0.000000
# 2 -0.005524 0.012412 -0.001788 0.000000 0.000000 0.000000
# 3 -0.001788 -0.001788 0.011315 0.000000 0.000000 0.000000
# 4 0.000000 0.000000 0.000000 0.097408 0.000000 0.000000
# 5 0.000000 0.000000 0.000000 0.000000 0.097408 0.000000
# 6 0.000000 0.000000 0.000000 0.000000 0.000000 0.085125
#
#
# Mechanical properties :
#
#
# Convention : Reuss Voigt Hill
#
# Bulk Modulus (GPa) = 55.74482 56.95014 56.34748
# Shear Modulus (GPa) = 14.69450 20.38843 17.54147
#
# Velocity S-wave (km/s) = 2.96571 3.49335 3.24029
# Velocity P-wave (km/s) = 6.71516 7.09640 6.90841
#
# Compressibility (1/GPa) = 0.01793889
#
# Stress axis : x y z
#
# Youngs Moduli (GPa) = 80.56421 80.56421 88.37468
#
# Poissons Ratio (x) = 0.44503 0.15805
# Poissons Ratio (y) = 0.44503 0.15805
# Poissons Ratio (z) = 0.14408 0.14408
#
# Static dielectric constant tensor:
#      x y z
#    x 1.551370 0.000000 0.000000 
#    y 0.000000 1.551370 0.000000 
#    z 0.000000 0.000000 1.579650 
# 
# From -- ./inp_files/5554.got.cif
#   From: 2010.05.17/outbox.cif.g08.bks.cpg/sg123_3_cif.got.tgz:5554.got - 2010.05.20 11:43:04.
