data_PCOD9561395
_publ_section_title
;
Structure prediction by ZEFSAII (Michael W. Deem and Ramdas Pophale) SiO2 
 PCOD9561395
Probable space group: I -4 2 D
;
_chemical_formula_sum "Si O2"
_cell_formula_units_Z 100
_cell_length_a 14.250409
_cell_length_b 14.250409
_cell_length_c 21.603210
_cell_angle_alpha 90.000000
_cell_angle_beta 90.000000
_cell_angle_gamma 90.000000
_cell_volume 4387.053652
_symmetry_space_group_name_H-M "I -4 2 D"
_symmetry_group_IT_number 122
_symmetry_cell_setting 'tetragonal'
loop_
_space_group_symop_operation_xyz
x,y,z
y,-x,-z
-x,-y,z
-y,x,-z
x,1/2-y,1/4-z
-x,1/2+y,1/4-z
-y,1/2-x,1/4+z
y,1/2+x,1/4+z
1/2+x,1/2+y,1/2+z
1/2+y,1/2-x,1/2-z
1/2-x,1/2-y,1/2+z
1/2-y,1/2+x,1/2-z
1/2+x,-y,3/4-z
1/2-x,y,3/4-z
1/2-y,-x,3/4+z
1/2+y,x,3/4+z
loop_
_atom_site_type_symbol
_atom_site_label
_atom_site_fract_x
_atom_site_fract_y
_atom_site_fract_z
Si Si1 0.860853 0.059691 0.863951
Si Si2 0.395919 0.738926 0.822632
Si Si3 0.945927 0.367413 0.223424
Si Si4 0.581754 0.250000 0.125000
Si Si5 0.440422 0.172985 0.337533
Si Si6 0.000000 0.000000 0.239785
Si Si7 0.000000 0.000000 0.500000
Si Si8 0.929934 0.696516 0.528938
O O1 0.750000 0.054704 0.875000
O O2 0.883581 0.161633 0.892360
O O3 0.889805 0.967140 0.902849
O O4 0.915263 0.045281 0.800473
O O5 0.413121 0.769404 0.750747
O O6 0.482336 0.694863 0.860294
O O7 0.308372 0.668449 0.815849
O O8 0.048864 0.380947 0.253417
O O9 0.643765 0.156896 0.130360
O O10 0.511882 0.247895 0.066424
O O11 0.476115 0.087275 0.294601
O O12 0.423920 0.258222 0.289048
O O13 0.087369 0.958659 0.276396
#
# Coordination Sequence:
#
# PCOD9561395 Si02
#       8
#    16  16  16   8  16   8   4  16
#     4  11  23  39  70 100 143 188 235 298 362 435
#     4  11  24  43  68 105 143 189 240 304 362 449
#     4   9  19  38  62  92 136 187 228 277 359 429
#     4  12  28  48  72 108 142 192 256 314 374 446
#     4  12  26  48  75 106 144 200 249 316 376 449
#     4  12  24  49  69 110 151 189 248 312 366 458
#     4  12  24  50  76  92 148 194 252 316 384 418
#     4  12  27  45  76 105 145 194 248 304 382 442
#
# _framework density 22.794339999999998
#
# number of rings (size 3 to 8) (size 9 to 14) (size 15 to 20)
#    0.000    0.800    3.200    4.800    1.120    3.840 
#    1.440    0.000    0.000    0.000    0.000    0.000 
#    0.000    0.000    0.000    0.000    0.000    0.000 
#
# Total GULP energy -279247.711998 kJ/mol
# GULP energy per Si atom -5584.954240 kJ/mol
# Density = 2.274246 g / cm^3
# Si number density = 22.794340 Si / 1000 Ang^3
#
#
#
# Elastic Constant Matrix: (Units=GPa)
#
#
# Indices 1 2 3 4 5 6 
#
# 1 60.9489 -2.4793 -3.6309 0.0000 0.0000 0.0000
# 2 -2.4793 60.9489 -3.6309 0.0000 0.0000 0.0000
# 3 -3.6309 -3.6309 37.4520 0.0000 0.0000 0.0000
# 4 0.0000 0.0000 0.0000 38.8231 0.0000 0.0000
# 5 0.0000 0.0000 0.0000 0.0000 38.8231 0.0000
# 6 0.0000 0.0000 0.0000 0.0000 0.0000 23.2653
#
#
#
# Elastic Compliance Matrix: (Units=1/GPa)
#
#
# Indices 1 2 3 4 5 6 
#
# 1 0.016539 0.000773 0.001678 0.000000 0.000000 0.000000
# 2 0.000773 0.016539 0.001678 0.000000 0.000000 0.000000
# 3 0.001678 0.001678 0.027026 0.000000 0.000000 0.000000
# 4 0.000000 0.000000 0.000000 0.025758 0.000000 0.000000
# 5 0.000000 0.000000 0.000000 0.000000 0.025758 0.000000
# 6 0.000000 0.000000 0.000000 0.000000 0.000000 0.042982
#
#
# Mechanical properties :
#
#
# Convention : Reuss Voigt Hill
#
# Bulk Modulus (GPa) = 14.62797 15.54084 15.08441
# Shear Modulus (GPa) = 29.56300 31.45502 30.50901
#
# Velocity S-wave (km/s) = 3.60522 3.71880 3.66245
# Velocity P-wave (km/s) = 4.87457 5.02712 4.95143
#
# Compressibility (1/GPa) = 0.06836218
#
# Stress axis : x y z
#
# Youngs Moduli (GPa) = 60.46463 60.46463 37.00108
#
# Poissons Ratio (x) = -0.04672 -0.06210
# Poissons Ratio (y) = -0.04672 -0.06210
# Poissons Ratio (z) = -0.10148 -0.10148
#
# Static dielectric constant tensor:
#      x y z
#    x 1.893920 0.000000 0.000000 
#    y 0.000000 1.893920 0.000000 
#    z 0.000000 0.000000 1.907160 
# 
# From -- ./inp_files/8081.got.cif
#   From: 2010.05.17/outbox.cif.g08.bks.cpg/sg122_5_cif.got.tgz:8081.got - 2010.05.20 11:37:33.
