data_PCOD9561761
_publ_section_title
;
Structure prediction by ZEFSAII (Michael W. Deem and Ramdas Pophale) SiO2 
 PCOD9561761
Probable space group: P 4/M M M
;
_chemical_formula_sum "Si O2"
_cell_formula_units_Z 96
_cell_length_a 14.265356
_cell_length_b 14.265356
_cell_length_c 30.649307
_cell_angle_alpha 90.000000
_cell_angle_beta 90.000000
_cell_angle_gamma 90.000000
_cell_volume 6237.145677
_symmetry_space_group_name_H-M "P 4/M M M"
_symmetry_group_IT_number 123
_symmetry_cell_setting 'tetragonal'
loop_
_space_group_symop_operation_xyz
x,y,z
-y,x,z
-x,-y,z
y,-x,z
x,-y,-z
-x,y,-z
y,x,-z
-y,-x,-z
-x,-y,-z
y,-x,-z
x,y,-z
-y,x,-z
-x,y,z
x,-y,z
-y,-x,z
y,x,z
loop_
_atom_site_type_symbol
_atom_site_label
_atom_site_fract_x
_atom_site_fract_y
_atom_site_fract_z
Si Si1 0.765322 0.610494 0.950980
Si Si2 0.890888 0.737730 0.552249
Si Si3 0.609782 0.108781 0.698987
Si Si4 0.609315 0.888401 0.867403
Si Si5 0.767160 0.611265 0.386794
Si Si6 0.734748 0.888683 0.784081
O O1 0.744165 0.500000 0.947759
O O2 0.672839 0.672839 0.946640
O O3 0.835663 0.634576 0.911961
O O4 0.804111 0.626948 0.000000
O O5 0.887015 0.724397 0.500000
O O6 0.832959 0.832959 0.562356
O O7 0.835793 0.654824 0.576579
O O8 0.000000 0.742805 0.565130
O O9 0.500000 0.115663 0.711348
O O10 0.626641 0.178832 0.659045
O O11 0.673773 0.129011 0.740651
O O12 0.626143 0.000000 0.685517
O O13 0.500000 0.868022 0.857383
O O14 0.673936 0.862174 0.826630
O O15 0.617083 0.000000 0.873779
O O16 0.752723 0.500000 0.392555
O O17 0.671810 0.671810 0.387595
O O18 0.828277 0.828277 0.782816
O O19 0.752859 0.000000 0.786125
#
# Coordination Sequence:
#
# PCOD9561761 Si02
#       6
#    16  16  16  16  16  16
#     4   9  17  28  42  61  85 112 140 170 206 251
#     4   9  18  32  50  73  99 125 154 189 230 277
#     4   9  17  30  49  71  91 112 143 183 226 270
#     4   9  17  29  45  64  84 107 139 179 219 254
#     4  10  20  33  49  69  94 124 158 195 232 270
#     4  10  19  30  45  64  88 117 145 175 212 255
#
# _framework density 15.391655999999999
#
# number of rings (size 3 to 8) (size 9 to 14) (size 15 to 20)
#    0.000    2.667    0.000    2.000    0.000    4.333 
#    0.000    4.167    0.000    0.000    0.000    4.667 
#    0.000   12.000    0.000   15.500    0.000    0.333 
#
# Total GULP energy -534888.820865 kJ/mol
# GULP energy per Si atom -5571.758551 kJ/mol
# Density = 1.535662 g / cm^3
# Si number density = 15.391656 Si / 1000 Ang^3
#
#
#
# Elastic Constant Matrix: (Units=GPa)
#
#
# Indices 1 2 3 4 5 6 
#
# 1 87.4300 61.7747 55.2404 0.0000 0.0000 0.0000
# 2 61.7747 87.4300 55.2404 0.0000 0.0000 0.0000
# 3 55.2404 55.2404 74.3789 0.0000 0.0000 0.0000
# 4 0.0000 0.0000 0.0000 23.1003 0.0000 0.0000
# 5 0.0000 0.0000 0.0000 0.0000 23.1003 0.0000
# 6 0.0000 0.0000 0.0000 0.0000 0.0000 22.8459
#
#
#
# Elastic Compliance Matrix: (Units=1/GPa)
#
#
# Indices 1 2 3 4 5 6 
#
# 1 0.026935 -0.012043 -0.011060 0.000000 0.000000 0.000000
# 2 -0.012043 0.026935 -0.011060 0.000000 0.000000 0.000000
# 3 -0.011060 -0.011060 0.029873 0.000000 0.000000 0.000000
# 4 0.000000 0.000000 0.000000 0.043289 0.000000 0.000000
# 5 0.000000 0.000000 0.000000 0.000000 0.043289 0.000000
# 6 0.000000 0.000000 0.000000 0.000000 0.000000 0.043772
#
#
# Mechanical properties :
#
#
# Convention : Reuss Voigt Hill
#
# Bulk Modulus (GPa) = 64.86519 65.97221 65.41870
# Shear Modulus (GPa) = 17.38779 18.94153 18.16466
#
# Velocity S-wave (km/s) = 3.36473 3.51185 3.43908
# Velocity P-wave (km/s) = 7.57164 7.70711 7.63968
#
# Compressibility (1/GPa) = 0.01541659
#
# Stress axis : x y z
#
# Youngs Moduli (GPa) = 37.12646 37.12646 33.47528
#
# Poissons Ratio (x) = 0.44713 0.37023
# Poissons Ratio (y) = 0.44713 0.37023
# Poissons Ratio (z) = 0.41061 0.41061
#
# Static dielectric constant tensor:
#      x y z
#    x 1.492320 0.000000 0.000000 
#    y 0.000000 1.492320 0.000000 
#    z 0.000000 0.000000 1.510180 
# 
# From -- ./inp_files/8589.got.cif
#   From: 2010.05.17/outbox.cif.g08.bks.cpg/sg123_5_cif.got.tgz:8589.got - 2010.05.20 11:43:04.
