data_PCOD9561763
_publ_section_title
;
Structure prediction by ZEFSAII (Michael W. Deem and Ramdas Pophale) SiO2 
 PCOD9561763
Probable space group: P 4/M M M
;
_chemical_formula_sum "Si O2"
_cell_formula_units_Z 112
_cell_length_a 18.295453
_cell_length_b 18.295453
_cell_length_c 21.034436
_cell_angle_alpha 90.000000
_cell_angle_beta 90.000000
_cell_angle_gamma 90.000000
_cell_volume 7040.722152
_symmetry_space_group_name_H-M "P 4/M M M"
_symmetry_group_IT_number 123
_symmetry_cell_setting 'tetragonal'
loop_
_space_group_symop_operation_xyz
x,y,z
-y,x,z
-x,-y,z
y,-x,z
x,-y,-z
-x,y,-z
y,x,-z
-y,-x,-z
-x,-y,-z
y,-x,-z
x,y,-z
-y,x,-z
-x,y,z
x,-y,z
-y,-x,z
y,x,z
loop_
_atom_site_type_symbol
_atom_site_label
_atom_site_fract_x
_atom_site_fract_y
_atom_site_fract_z
Si Si1 0.585779 0.231715 0.068034
Si Si2 0.698624 0.413312 0.799897
Si Si3 0.085797 0.584828 0.265840
Si Si4 0.333587 0.782511 0.315057
Si Si5 0.631802 0.083565 0.881010
Si Si6 0.584846 0.702043 0.425294
Si Si7 0.205200 0.084299 0.075798
O O1 0.500000 0.249525 0.066332
O O2 0.613239 0.267486 0.133056
O O3 0.595152 0.145153 0.076499
O O4 0.618412 0.254078 0.000000
O O5 0.704273 0.500000 0.795641
O O6 0.616401 0.383600 0.796877
O O7 0.741871 0.376500 0.742190
O O8 0.109858 0.500000 0.276715
O O9 0.133751 0.644864 0.302723
O O10 0.092556 0.602430 0.190669
O O11 0.000000 0.589288 0.281725
O O12 0.251458 0.748543 0.313452
O O13 0.370335 0.756425 0.380576
O O14 0.719169 0.095508 0.886668
O O15 0.617468 0.000000 0.901057
O O16 0.590608 0.720850 0.500000
O O17 0.500000 0.700849 0.407432
O O18 0.623364 0.623364 0.416785
O O19 0.142839 0.142839 0.092195
O O20 0.181404 0.000000 0.085823
O O21 0.221013 0.091969 0.000000
#
# Coordination Sequence:
#
# PCOD9561763 Si02
#       7
#    16  16  16  16  16  16  16
#     4  10  20  32  45  61  83 110 140 178 223 272
#     4  10  20  33  48  65  85 112 148 189 231 274
#     4  10  19  31  50  73  97 126 158 194 236 284
#     4  10  19  32  51  72  96 125 158 197 235 278
#     4  10  19  30  45  65  87 111 140 177 224 276
#     4   9  17  28  44  68  97 130 165 200 240 283
#     4   9  18  31  45  61  82 108 139 179 226 277
#
# _framework density 15.907458999999999
#
# number of rings (size 3 to 8) (size 9 to 14) (size 15 to 20)
#    0.000    2.286    1.429    2.143    0.000    3.571 
#    0.000    2.143    0.000    3.000    0.000    4.000 
#    0.000    0.286    0.000    0.000    0.000    0.000 
#
# Total GULP energy -623974.315599 kJ/mol
# GULP energy per Si atom -5571.199246 kJ/mol
# Density = 1.587125 g / cm^3
# Si number density = 15.907459 Si / 1000 Ang^3
#
#
#
# Elastic Constant Matrix: (Units=GPa)
#
#
# Indices 1 2 3 4 5 6 
#
# 1 45.4860 23.2783 8.7371 0.0000 0.0000 0.0000
# 2 23.2783 45.4860 8.7371 0.0000 0.0000 0.0000
# 3 8.7371 8.7371 34.6747 0.0000 0.0000 0.0000
# 4 0.0000 0.0000 0.0000 9.3202 0.0000 0.0000
# 5 0.0000 0.0000 0.0000 0.0000 9.3202 0.0000
# 6 0.0000 0.0000 0.0000 0.0000 0.0000 24.2993
#
#
#
# Elastic Compliance Matrix: (Units=1/GPa)
#
#
# Indices 1 2 3 4 5 6 
#
# 1 0.030283 -0.014746 -0.003915 0.000000 0.000000 0.000000
# 2 -0.014746 0.030283 -0.003915 0.000000 0.000000 0.000000
# 3 -0.003915 -0.003915 0.030812 0.000000 0.000000 0.000000
# 4 0.000000 0.000000 0.000000 0.107294 0.000000 0.000000
# 5 0.000000 0.000000 0.000000 0.000000 0.107294 0.000000
# 6 0.000000 0.000000 0.000000 0.000000 0.000000 0.041154
#
#
# Mechanical properties :
#
#
# Convention : Reuss Voigt Hill
#
# Bulk Modulus (GPa) = 21.63234 23.01684 22.32459
# Shear Modulus (GPa) = 12.26450 14.24757 13.25603
#
# Velocity S-wave (km/s) = 2.77968 2.99599 2.88986
# Velocity P-wave (km/s) = 4.89189 5.14476 5.01992
#
# Compressibility (1/GPa) = 0.04622709
#
# Stress axis : x y z
#
# Youngs Moduli (GPa) = 33.02151 33.02151 32.45452
#
# Poissons Ratio (x) = 0.48694 0.12706
# Poissons Ratio (y) = 0.48694 0.12706
# Poissons Ratio (z) = 0.12928 0.12928
#
# Static dielectric constant tensor:
#      x y z
#    x 1.548900 0.000000 0.000000 
#    y 0.000000 1.548900 0.000000 
#    z 0.000000 0.000000 1.537860 
# 
# From -- ./inp_files/6658.got.cif
#   From: 2010.05.17/outbox.cif.g08.bks.cpg/sg123_4_cif.got.tgz:6658.got - 2010.05.20 11:43:04.
