data_PCOD9561448
_publ_section_title
;
Structure prediction by ZEFSAII (Michael W. Deem and Ramdas Pophale) SiO2 
 PCOD9561448
Probable space group: I -4 2 D
;
_chemical_formula_sum "Si O2"
_cell_formula_units_Z 56
_cell_length_a 13.948316
_cell_length_b 13.948316
_cell_length_c 14.344186
_cell_angle_alpha 90.000000
_cell_angle_beta 90.000000
_cell_angle_gamma 90.000000
_cell_volume 2790.740555
_symmetry_space_group_name_H-M "I -4 2 D"
_symmetry_group_IT_number 122
_symmetry_cell_setting 'tetragonal'
loop_
_space_group_symop_operation_xyz
x,y,z
y,-x,-z
-x,-y,z
-y,x,-z
x,1/2-y,1/4-z
-x,1/2+y,1/4-z
-y,1/2-x,1/4+z
y,1/2+x,1/4+z
1/2+x,1/2+y,1/2+z
1/2+y,1/2-x,1/2-z
1/2-x,1/2-y,1/2+z
1/2-y,1/2+x,1/2-z
1/2+x,-y,3/4-z
1/2-x,y,3/4-z
1/2-y,-x,3/4+z
1/2+y,x,3/4+z
loop_
_atom_site_type_symbol
_atom_site_label
_atom_site_fract_x
_atom_site_fract_y
_atom_site_fract_z
Si Si1 0.996606 0.612603 0.495740
Si Si2 0.804885 0.216163 0.731649
Si Si3 0.250000 0.623257 0.875000
Si Si4 0.916823 0.877128 0.961373
O O1 0.103833 0.653588 0.489054
O O2 0.000000 0.500000 0.515387
O O3 0.941678 0.670669 0.575388
O O4 0.942114 0.627950 0.397819
O O5 0.815598 0.250000 0.625000
O O6 0.796244 0.307980 0.797587
O O7 0.708036 0.153698 0.739047
O O8 0.018476 0.873287 0.015364
#
# Coordination Sequence:
#
# PCOD9561448 Si02
#       4
#    16  16   8  16
#     4  12  27  49  75 108 148 195 247 308 375 443
#     4  12  27  47  75 108 151 196 252 306 375 442
#     4  12  28  48  76 108 148 200 252 306 368 446
#     4  11  24  48  76 113 147 186 248 316 376 439
#
# _framework density 20.066358999999999
#
# number of rings (size 3 to 8) (size 9 to 14) (size 15 to 20)
#    0.000    0.286    7.143    1.714    8.000    0.000 
#    0.000    0.000    0.000    0.000    0.000    0.000 
#    0.000    0.000    0.000    0.000    0.000    0.000 
#
# Total GULP energy -156838.447313 kJ/mol
# GULP energy per Si atom -5601.373118 kJ/mol
# Density = 2.002069 g / cm^3
# Si number density = 20.066359 Si / 1000 Ang^3
#
#
#
# Elastic Constant Matrix: (Units=GPa)
#
#
# Indices 1 2 3 4 5 6 
#
# 1 88.0814 50.4302 13.8439 0.0000 0.0000 0.0000
# 2 50.4302 88.0814 13.8439 0.0000 0.0000 0.0000
# 3 13.8439 13.8439 102.4936 0.0000 0.0000 0.0000
# 4 0.0000 0.0000 0.0000 34.8111 0.0000 0.0000
# 5 0.0000 0.0000 0.0000 0.0000 34.8111 0.0000
# 6 0.0000 0.0000 0.0000 0.0000 0.0000 38.5318
#
#
#
# Elastic Compliance Matrix: (Units=1/GPa)
#
#
# Indices 1 2 3 4 5 6 
#
# 1 0.016990 -0.009570 -0.001002 0.000000 0.000000 0.000000
# 2 -0.009570 0.016990 -0.001002 0.000000 0.000000 0.000000
# 3 -0.001002 -0.001002 0.010027 0.000000 0.000000 0.000000
# 4 0.000000 0.000000 0.000000 0.028726 0.000000 0.000000
# 5 0.000000 0.000000 0.000000 0.000000 0.028726 0.000000
# 6 0.000000 0.000000 0.000000 0.000000 0.000000 0.025953
#
#
# Mechanical properties :
#
#
# Convention : Reuss Voigt Hill
#
# Bulk Modulus (GPa) = 47.94213 48.32136 48.13175
# Shear Modulus (GPa) = 31.74324 35.00002 33.37163
#
# Velocity S-wave (km/s) = 3.98164 4.18091 4.08249
# Velocity P-wave (km/s) = 6.71429 6.88765 6.80152
#
# Compressibility (1/GPa) = 0.02085848
#
# Stress axis : x y z
#
# Youngs Moduli (GPa) = 58.85900 58.85899 99.72626
#
# Poissons Ratio (x) = 0.56327 0.09995
# Poissons Ratio (y) = 0.56327 0.09995
# Poissons Ratio (z) = 0.05899 0.05899
#
# Static dielectric constant tensor:
#      x y z
#    x 1.672820 0.000000 0.000000 
#    y 0.000000 1.672820 0.000000 
#    z 0.000000 0.000000 1.704980 
# 
# From -- ./inp_files/5078.got.cif
#   From: 2010.05.17/outbox.cif.g08.bks.cpg/sg122_3_cif.got.tgz:5078.got - 2010.05.20 11:37:33.
