data_PCOD9561164
_publ_section_title
;
Structure prediction by ZEFSAII (Michael W. Deem and Ramdas Pophale) SiO2 
 PCOD9561164
Probable space group: I -4 2 D
;
_chemical_formula_sum "Si O2"
_cell_formula_units_Z 64
_cell_length_a 10.550361
_cell_length_b 10.550361
_cell_length_c 23.640555
_cell_angle_alpha 90.000000
_cell_angle_beta 90.000000
_cell_angle_gamma 90.000000
_cell_volume 2631.432948
_symmetry_space_group_name_H-M "I -4 2 D"
_symmetry_group_IT_number 122
_symmetry_cell_setting 'tetragonal'
loop_
_space_group_symop_operation_xyz
x,y,z
y,-x,-z
-x,-y,z
-y,x,-z
x,1/2-y,1/4-z
-x,1/2+y,1/4-z
-y,1/2-x,1/4+z
y,1/2+x,1/4+z
1/2+x,1/2+y,1/2+z
1/2+y,1/2-x,1/2-z
1/2-x,1/2-y,1/2+z
1/2-y,1/2+x,1/2-z
1/2+x,-y,3/4-z
1/2-x,y,3/4-z
1/2-y,-x,3/4+z
1/2+y,x,3/4+z
loop_
_atom_site_type_symbol
_atom_site_label
_atom_site_fract_x
_atom_site_fract_y
_atom_site_fract_z
Si Si1 0.250000 0.608249 0.875000
Si Si2 0.110050 0.726931 0.539049
Si Si3 0.658694 0.090905 0.544838
Si Si4 0.000000 0.000000 0.102586
Si Si5 0.262888 0.464290 0.190427
O O1 0.233063 0.514925 0.822605
O O2 0.373507 0.687369 0.859481
O O3 0.206546 0.841072 0.544779
O O4 0.181571 0.605426 0.565650
O O5 0.051897 0.680849 0.479093
O O6 0.580622 0.086609 0.603188
O O7 0.583743 0.174130 0.498396
O O8 0.887907 0.949340 0.062870
#
# Coordination Sequence:
#
# PCOD9561164 Si02
#       5
#     8  16  16   8  16
#     4  10  22  44  70 100 148 196 252 316 390 452
#     4  11  24  46  71 109 152 197 259 328 383 469
#     4  11  25  47  72 110 156 198 259 325 387 473
#     4  12  26  48  79 106 152 210 253 312 406 452
#     4  11  26  46  73 111 150 201 260 323 381 475
#
# _framework density 24.321348
#
# number of rings (size 3 to 8) (size 9 to 14) (size 15 to 20)
#    0.000    1.000    2.500    3.750    7.000    4.500 
#    0.000    0.000    0.000    0.000    0.000    0.000 
#    0.000    0.000    0.000    0.000    0.000    0.000 
#
# Total GULP energy -179004.955401 kJ/mol
# GULP energy per Si atom -5593.904856 kJ/mol
# Density = 2.426599 g / cm^3
# Si number density = 24.321348 Si / 1000 Ang^3
#
#
#
# Elastic Constant Matrix: (Units=GPa)
#
#
# Indices 1 2 3 4 5 6 
#
# 1 147.0566 55.2375 11.1681 0.0000 0.0000 0.0000
# 2 55.2375 147.0566 11.1681 0.0000 0.0000 0.0000
# 3 11.1681 11.1681 60.0919 0.0000 0.0000 0.0000
# 4 0.0000 0.0000 0.0000 21.4655 0.0000 0.0000
# 5 0.0000 0.0000 0.0000 0.0000 21.4655 0.0000
# 6 0.0000 0.0000 0.0000 0.0000 0.0000 73.1096
#
#
#
# Elastic Compliance Matrix: (Units=1/GPa)
#
#
# Indices 1 2 3 4 5 6 
#
# 1 0.007969 -0.002922 -0.000938 0.000000 0.000000 0.000000
# 2 -0.002922 0.007969 -0.000938 0.000000 0.000000 0.000000
# 3 -0.000938 -0.000938 0.016990 0.000000 0.000000 0.000000
# 4 0.000000 0.000000 0.000000 0.046586 0.000000 0.000000
# 5 0.000000 0.000000 0.000000 0.000000 0.046586 0.000000
# 6 0.000000 0.000000 0.000000 0.000000 0.000000 0.013678
#
#
# Mechanical properties :
#
#
# Convention : Reuss Voigt Hill
#
# Bulk Modulus (GPa) = 42.86017 56.59475 49.72746
# Shear Modulus (GPa) = 31.81636 41.65020 36.73328
#
# Velocity S-wave (km/s) = 3.62078 4.14272 3.89051
# Velocity P-wave (km/s) = 5.92797 6.79727 6.37745
#
# Compressibility (1/GPa) = 0.02333169
#
# Stress axis : x y z
#
# Youngs Moduli (GPa) = 125.48749 125.48749 58.85879
#
# Poissons Ratio (x) = 0.36668 0.05521
# Poissons Ratio (y) = 0.36668 0.05521
# Poissons Ratio (z) = 0.11770 0.11770
#
# Static dielectric constant tensor:
#      x y z
#    x 1.931420 0.000000 0.000000 
#    y 0.000000 1.931420 0.000000 
#    z 0.000000 0.000000 2.022500 
# 
# From -- ./inp_files/8535.got.cif
#   From: 2010.05.17/outbox.cif.g08.bks.cpg/sg122_5_cif.got.tgz:8535.got - 2010.05.20 11:37:33.
