data_PCOD9561814
_publ_section_title
;
Structure prediction by ZEFSAII (Michael W. Deem and Ramdas Pophale) SiO2 
 PCOD9561814
Probable space group: P 4/M M M
;
_chemical_formula_sum "Si O2"
_cell_formula_units_Z 104
_cell_length_a 27.224080
_cell_length_b 27.224080
_cell_length_c 8.921414
_cell_angle_alpha 90.000000
_cell_angle_beta 90.000000
_cell_angle_gamma 90.000000
_cell_volume 6612.110731
_symmetry_space_group_name_H-M "P 4/M M M"
_symmetry_group_IT_number 123
_symmetry_cell_setting 'tetragonal'
loop_
_space_group_symop_operation_xyz
x,y,z
-y,x,z
-x,-y,z
y,-x,z
x,-y,-z
-x,y,-z
y,x,-z
-y,-x,-z
-x,-y,-z
y,-x,-z
x,y,-z
-y,x,-z
-x,y,z
x,-y,z
-y,-x,z
y,x,z
loop_
_atom_site_type_symbol
_atom_site_label
_atom_site_fract_x
_atom_site_fract_y
_atom_site_fract_z
Si Si1 0.557835 0.000000 0.320371
Si Si2 0.369822 0.289101 0.678774
Si Si3 0.945037 0.265122 0.678799
Si Si4 0.370773 0.921686 0.820421
Si Si5 0.187121 0.657502 0.821130
Si Si6 0.152493 0.232783 0.819476
Si Si7 0.556441 0.363582 0.819246
O O1 0.585719 0.047138 0.252124
O O2 0.500000 0.000000 0.284628
O O3 0.563566 0.000000 0.500000
O O4 0.373993 0.289398 0.500000
O O5 0.322271 0.322271 0.720919
O O6 0.362788 0.234434 0.738379
O O7 0.416218 0.316759 0.750101
O O8 0.939525 0.270389 0.500000
O O9 0.940039 0.318853 0.754018
O O10 0.900815 0.232786 0.743972
O O11 0.000000 0.246280 0.710063
O O12 0.371502 0.863357 0.788746
O O13 0.370429 0.928355 0.000000
O O14 0.176988 0.714560 0.780441
O O15 0.195390 0.655817 0.000000
O O16 0.188547 0.188547 0.776484
O O17 0.146727 0.232436 0.000000
O O18 0.500000 0.367588 0.772153
O O19 0.588909 0.411092 0.776494
O O20 0.557819 0.359798 0.000000
#
# Coordination Sequence:
#
# PCOD9561814 Si02
#       7
#     8  16  16  16  16  16  16
#     4  11  23  37  53  73  97 123 155 203 258 303
#     4  10  20  32  48  72 100 130 162 193 230 282
#     4  10  19  30  47  71  99 131 166 203 245 293
#     4  10  20  34  53  73  94 123 163 205 245 293
#     4   9  18  32  50  72  96 126 162 199 239 284
#     4   9  18  31  47  70 100 132 166 204 246 292
#     4   9  18  33  53  75  97 122 152 188 232 281
#
# _framework density 15.728714
#
# number of rings (size 3 to 8) (size 9 to 14) (size 15 to 20)
#    0.000    2.385    0.769    3.000    0.000    6.923 
#    0.000    1.538    0.000    0.923    0.000    2.154 
#    0.000    0.308    0.000    3.385    0.000    2.462 
#
# Total GULP energy -580061.695171 kJ/mol
# GULP energy per Si atom -5577.516300 kJ/mol
# Density = 1.569292 g / cm^3
# Si number density = 15.728714 Si / 1000 Ang^3
#
#
#
# Elastic Constant Matrix: (Units=GPa)
#
#
# Indices 1 2 3 4 5 6 
#
# 1 135.0133 78.5166 51.2616 0.0000 0.0000 0.0000
# 2 78.5166 135.0133 51.2616 0.0000 0.0000 0.0000
# 3 51.2616 51.2616 41.6450 0.0000 0.0000 0.0000
# 4 0.0000 0.0000 0.0000 20.0472 0.0000 0.0000
# 5 0.0000 0.0000 0.0000 0.0000 20.0472 0.0000
# 6 0.0000 0.0000 0.0000 0.0000 0.0000 19.5635
#
#
#
# Elastic Compliance Matrix: (Units=1/GPa)
#
#
# Indices 1 2 3 4 5 6 
#
# 1 0.014575 -0.003125 -0.014095 0.000000 0.000000 0.000000
# 2 -0.003125 0.014575 -0.014095 0.000000 0.000000 0.000000
# 3 -0.014095 -0.014095 0.058711 0.000000 0.000000 0.000000
# 4 0.000000 0.000000 0.000000 0.049882 0.000000 0.000000
# 5 0.000000 0.000000 0.000000 0.000000 0.049882 0.000000
# 6 0.000000 0.000000 0.000000 0.000000 0.000000 0.051115
#
#
# Mechanical properties :
#
#
# Convention : Reuss Voigt Hill
#
# Bulk Modulus (GPa) = 39.62955 74.86123 57.24539
# Shear Modulus (GPa) = 16.14038 20.64035 18.39037
#
# Velocity S-wave (km/s) = 3.20687 3.62646 3.42310
# Velocity P-wave (km/s) = 6.24198 8.07673 7.21789
#
# Compressibility (1/GPa) = 0.02523369
#
# Stress axis : x y z
#
# Youngs Moduli (GPa) = 68.60893 68.60893 17.03245
#
# Poissons Ratio (x) = 0.21439 0.24007
# Poissons Ratio (y) = 0.21439 0.24007
# Poissons Ratio (z) = 0.96702 0.96702
#
# Static dielectric constant tensor:
#      x y z
#    x 1.513330 0.000000 0.000000 
#    y 0.000000 1.513330 0.000000 
#    z 0.000000 0.000000 1.523360 
# 
# From -- ./inp_files/1949.got.cif
#   From: 2010.05.17/outbox.cif.g08.bks.cpg/sg123_1_cif.got.tgz:1949.got - 2010.05.20 11:43:04.
