data_PCOD9561546
_publ_section_title
;
Structure prediction by ZEFSAII (Michael W. Deem and Ramdas Pophale) SiO2 
 PCOD9561546
Probable space group: I -4 2 D
;
_chemical_formula_sum "Si O2"
_cell_formula_units_Z 52
_cell_length_a 18.769297
_cell_length_b 18.769297
_cell_length_c 6.777225
_cell_angle_alpha 90.000000
_cell_angle_beta 90.000000
_cell_angle_gamma 90.000000
_cell_volume 2387.524942
_symmetry_space_group_name_H-M "I -4 2 D"
_symmetry_group_IT_number 122
_symmetry_cell_setting 'tetragonal'
loop_
_space_group_symop_operation_xyz
x,y,z
y,-x,-z
-x,-y,z
-y,x,-z
x,1/2-y,1/4-z
-x,1/2+y,1/4-z
-y,1/2-x,1/4+z
y,1/2+x,1/4+z
1/2+x,1/2+y,1/2+z
1/2+y,1/2-x,1/2-z
1/2-x,1/2-y,1/2+z
1/2-y,1/2+x,1/2-z
1/2+x,-y,3/4-z
1/2-x,y,3/4-z
1/2-y,-x,3/4+z
1/2+y,x,3/4+z
loop_
_atom_site_type_symbol
_atom_site_label
_atom_site_fract_x
_atom_site_fract_y
_atom_site_fract_z
Si Si1 0.873446 0.931195 0.770258
Si Si2 0.831770 0.086129 0.862880
Si Si3 0.500000 0.000000 0.250000
Si Si4 0.320289 0.820868 0.248555
O O1 0.816004 0.885391 0.648910
O O2 0.837434 0.002264 0.845733
O O3 0.893909 0.880917 0.953659
O O4 0.942915 0.957794 0.641635
O O5 0.750000 0.110062 0.875000
O O6 0.850951 0.121573 0.655377
O O7 0.304608 0.750000 0.125000
O O8 0.250000 0.841935 0.375000
#
# Coordination Sequence:
#
# PCOD9561546 Si02
#       4
#    16  16   4  16
#     4  12  27  46  75 110 149 201 254 315 383 457
#     4  12  27  47  74 108 150 199 254 314 382 462
#     4  12  24  50  72 108 158 196 252 326 384 444
#     4  12  28  49  76 109 151 196 254 317 389 455
#
# _framework density 21.779879000000001
#
# number of rings (size 3 to 8) (size 9 to 14) (size 15 to 20)
#    0.000    0.000    6.154    2.769    4.308    1.231 
#    0.000    0.000    0.000    0.000    0.000    0.000 
#    0.000    0.000    0.000    0.000    0.000    0.000 
#
# Total GULP energy -145210.020727 kJ/mol
# GULP energy per Si atom -5585.000797 kJ/mol
# Density = 2.173031 g / cm^3
# Si number density = 21.779879 Si / 1000 Ang^3
#
#
#
# Elastic Constant Matrix: (Units=GPa)
#
#
# Indices 1 2 3 4 5 6 
#
# 1 85.1042 0.7696 41.4203 0.0000 0.0000 0.0000
# 2 0.7696 85.1042 41.4203 0.0000 0.0000 0.0000
# 3 41.4203 41.4203 119.5485 0.0000 0.0000 0.0000
# 4 0.0000 0.0000 0.0000 -166.2075 0.0000 0.0000
# 5 0.0000 0.0000 0.0000 0.0000 -166.2075 0.0000
# 6 0.0000 0.0000 0.0000 0.0000 0.0000 31.5169
#
#
#
# Elastic Compliance Matrix: (Units=1/GPa)
#
#
# Indices 1 2 3 4 5 6 
#
# 1 0.014674 0.002817 -0.006060 0.000000 0.000000 0.000000
# 2 0.002817 0.014674 -0.006060 0.000000 0.000000 0.000000
# 3 -0.006060 -0.006060 0.012564 0.000000 0.000000 0.000000
# 4 0.000000 0.000000 0.000000 -0.006017 0.000000 0.000000
# 5 0.000000 0.000000 0.000000 0.000000 -0.006017 0.000000
# 6 0.000000 0.000000 0.000000 0.000000 0.000000 0.031729
#
#
# Mechanical properties :
#
#
# Convention : Reuss Voigt Hill
#
# Bulk Modulus (GPa) = 42.90801 50.77524 46.84163
# Shear Modulus (GPa) = 56.82818 -46.43652 5.19583
#
# Velocity S-wave (km/s) = 5.11358 -4.62246 1.54622
# Velocity P-wave (km/s) = 7.38975 2.26406 4.97406
#
# Compressibility (1/GPa) = 0.02330567
#
# Stress axis : x y z
#
# Youngs Moduli (GPa) = 68.14616 68.14616 79.59119
#
# Poissons Ratio (x) = -0.19195 0.48234
# Poissons Ratio (y) = -0.19195 0.48234
# Poissons Ratio (z) = 0.41298 0.41298
#
# Static dielectric constant tensor:
#      x y z
#    x 1.893760 0.000000 0.000000 
#    y 0.000000 1.893760 0.000000 
#    z 0.000000 0.000000 1.863870 
# 
# From -- ./inp_files/814.got.cif
#   From: 2010.05.17/outbox.cif.g08.bks.cpg/sg122_1_cif.got.tgz:814.got - 2010.05.20 11:37:33.
