data_PCOD9561642
_publ_section_title
;
Structure prediction by ZEFSAII (Michael W. Deem and Ramdas Pophale) SiO2 
 PCOD9561642
Probable space group: P 4/M M M
;
_chemical_formula_sum "Si O2"
_cell_formula_units_Z 96
_cell_length_a 21.792435
_cell_length_b 21.792435
_cell_length_c 12.635183
_cell_angle_alpha 90.000000
_cell_angle_beta 90.000000
_cell_angle_gamma 90.000000
_cell_volume 6000.577579
_symmetry_space_group_name_H-M "P 4/M M M"
_symmetry_group_IT_number 123
_symmetry_cell_setting 'tetragonal'
loop_
_space_group_symop_operation_xyz
x,y,z
-y,x,z
-x,-y,z
y,-x,z
x,-y,-z
-x,y,-z
y,x,-z
-y,-x,-z
-x,-y,-z
y,-x,-z
x,y,-z
-y,x,-z
-x,y,z
x,-y,z
-y,-x,z
y,x,z
loop_
_atom_site_type_symbol
_atom_site_label
_atom_site_fract_x
_atom_site_fract_y
_atom_site_fract_z
Si Si1 0.931626 0.384514 0.000000
Si Si2 0.205656 0.571505 0.000000
Si Si3 0.341173 0.237782 0.195437
Si Si4 0.796727 0.431262 0.625853
Si Si5 0.391672 0.932525 0.374204
Si Si6 0.900280 0.299818 0.199366
Si Si7 0.167481 0.068486 0.125990
O O1 0.869211 0.424406 0.000000
O O2 0.925518 0.341664 0.896496
O O3 0.000000 0.413280 0.000000
O O4 0.230680 0.609131 0.898763
O O5 0.223070 0.500000 0.000000
O O6 0.295187 0.295187 0.184791
O O7 0.380111 0.236305 0.304044
O O8 0.303453 0.173713 0.193813
O O9 0.790185 0.420774 0.500000
O O10 0.774964 0.500000 0.650500
O O11 0.870126 0.428486 0.650859
O O12 0.381415 0.931695 0.500000
O O13 0.330059 0.923888 0.307177
O O14 0.418723 0.000000 0.348279
O O15 0.922559 0.231449 0.183803
O O16 0.118739 0.118739 0.159239
O O17 0.143579 0.000000 0.141985
O O18 0.179326 0.076075 0.000000
#
# Coordination Sequence:
#
# PCOD9561642 Si02
#       7
#     8   8  16  16  16  16  16
#     4  10  18  28  46  69  93 126 161 192 226 268
#     4  10  21  34  48  69  99 130 157 191 231 272
#     4  10  20  33  50  71  95 125 159 194 230 272
#     4   9  18  32  49  70  98 129 158 193 235 274
#     4   9  17  28  44  67  95 129 164 193 222 263
#     4  10  18  30  46  66  92 120 155 196 236 275
#     4  10  19  29  43  62  84 112 147 191 244 296
#
# _framework density 15.998459
#
# number of rings (size 3 to 8) (size 9 to 14) (size 15 to 20)
#    0.000    2.333    0.833    2.750    0.000    1.000 
#    0.000    2.500    0.000    7.500    0.000    0.000 
#    0.000   13.667    0.000   10.833    0.000    0.167 
#
# Total GULP energy -535017.269907 kJ/mol
# GULP energy per Si atom -5573.096562 kJ/mol
# Density = 1.596205 g / cm^3
# Si number density = 15.998459 Si / 1000 Ang^3
#
#
#
# Elastic Constant Matrix: (Units=GPa)
#
#
# Indices 1 2 3 4 5 6 
#
# 1 70.4968 44.5163 22.9531 0.0000 0.0000 0.0000
# 2 44.5163 70.4968 22.9531 0.0000 0.0000 0.0000
# 3 22.9531 22.9531 27.5487 0.0000 0.0000 0.0000
# 4 0.0000 0.0000 0.0000 15.8786 0.0000 0.0000
# 5 0.0000 0.0000 0.0000 0.0000 15.8786 0.0000
# 6 0.0000 0.0000 0.0000 0.0000 0.0000 3.5947
#
#
#
# Elastic Compliance Matrix: (Units=1/GPa)
#
#
# Indices 1 2 3 4 5 6 
#
# 1 0.025759 -0.012732 -0.010854 0.000000 0.000000 0.000000
# 2 -0.012732 0.025759 -0.010854 0.000000 0.000000 0.000000
# 3 -0.010854 -0.010854 0.054385 0.000000 0.000000 0.000000
# 4 0.000000 0.000000 0.000000 0.062978 0.000000 0.000000
# 5 0.000000 0.000000 0.000000 0.000000 0.062978 0.000000
# 6 0.000000 0.000000 0.000000 0.000000 0.000000 0.278185
#
#
# Mechanical properties :
#
#
# Convention : Reuss Voigt Hill
#
# Bulk Modulus (GPa) = 27.00923 38.82080 32.91501
# Shear Modulus (GPa) = 8.45646 12.27836 10.36741
#
# Velocity S-wave (km/s) = 2.30158 2.77333 2.54840
# Velocity P-wave (km/s) = 4.89715 5.87990 5.41088
#
# Compressibility (1/GPa) = 0.03702438
#
# Stress axis : x y z
#
# Youngs Moduli (GPa) = 38.82194 38.82194 18.38726
#
# Poissons Ratio (x) = 0.49428 0.19957
# Poissons Ratio (y) = 0.49428 0.19957
# Poissons Ratio (z) = 0.42136 0.42136
#
# Static dielectric constant tensor:
#      x y z
#    x 1.528820 0.000000 0.000000 
#    y 0.000000 1.528820 0.000000 
#    z 0.000000 0.000000 1.542410 
# 
# From -- ./inp_files/3207.got.cif
#   From: 2010.05.17/outbox.cif.g08.bks.cpg/sg123_2_cif.got.tgz:3207.got - 2010.05.20 11:43:04.
