data_PCOD9561751
_publ_section_title
;
Structure prediction by ZEFSAII (Michael W. Deem and Ramdas Pophale) SiO2 
 PCOD9561751
Probable space group: P 4/M M M
;
_chemical_formula_sum "Si O2"
_cell_formula_units_Z 88
_cell_length_a 14.846722
_cell_length_b 14.846722
_cell_length_c 28.187847
_cell_angle_alpha 90.000000
_cell_angle_beta 90.000000
_cell_angle_gamma 90.000000
_cell_volume 6213.310520
_symmetry_space_group_name_H-M "P 4/M M M"
_symmetry_group_IT_number 123
_symmetry_cell_setting 'tetragonal'
loop_
_space_group_symop_operation_xyz
x,y,z
-y,x,z
-x,-y,z
y,-x,z
x,-y,-z
-x,y,-z
y,x,-z
-y,-x,-z
-x,-y,-z
y,-x,-z
x,y,-z
-y,x,-z
-x,y,z
x,-y,z
-y,-x,z
y,x,z
loop_
_atom_site_type_symbol
_atom_site_label
_atom_site_fract_x
_atom_site_fract_y
_atom_site_fract_z
Si Si1 0.245660 0.395383 0.829617
Si Si2 0.107310 0.740592 0.000000
Si Si3 0.245073 0.394449 0.720434
Si Si4 0.105625 0.254984 0.554604
Si Si5 0.105892 0.604082 0.913520
Si Si6 0.605621 0.894404 0.362417
O O1 0.273781 0.500000 0.833838
O O2 0.328326 0.328326 0.838289
O O3 0.214752 0.381902 0.775106
O O4 0.167411 0.379566 0.867716
O O5 0.124591 0.676624 0.954447
O O6 0.173326 0.826675 0.000000
O O7 0.000000 0.764019 0.000000
O O8 0.268315 0.500000 0.714893
O O9 0.330669 0.330669 0.712771
O O10 0.167916 0.372549 0.682491
O O11 0.118604 0.285534 0.500000
O O12 0.169383 0.169383 0.562379
O O13 0.127204 0.332074 0.592636
O O14 0.000000 0.231647 0.559846
O O15 0.121642 0.500000 0.929599
O O16 0.000000 0.610541 0.901623
O O17 0.500000 0.881666 0.373954
O O18 0.618293 0.000000 0.350837
#
# Coordination Sequence:
#
# PCOD9561751 Si02
#       6
#    16   8  16  16  16  16
#     4   9  17  28  42  61  84 109 136 165 198 237
#     4  10  19  30  45  63  84 110 137 167 202 239
#     4   9  17  28  42  60  82 108 136 166 199 235
#     4   9  17  28  42  60  81 105 132 162 197 237
#     4   9  17  29  45  64  84 106 134 168 204 240
#     4   9  17  28  42  60  81 105 133 165 201 239
#
# _framework density 14.163142000000001
#
# number of rings (size 3 to 8) (size 9 to 14) (size 15 to 20)
#    0.000    2.909    0.000    1.364    0.000    2.818 
#    0.000    8.182    0.000    0.000    0.000    0.000 
#    0.000    6.545    0.000   50.727    0.000    1.455 
#
# Total GULP energy -489879.379537 kJ/mol
# GULP energy per Si atom -5566.811131 kJ/mol
# Density = 1.413091 g / cm^3
# Si number density = 14.163142 Si / 1000 Ang^3
#
#
#
# Elastic Constant Matrix: (Units=GPa)
#
#
# Indices 1 2 3 4 5 6 
#
# 1 79.0523 66.5975 76.9072 0.0000 0.0000 0.0000
# 2 66.5975 79.0509 76.9070 0.0000 0.0000 0.0000
# 3 76.9072 76.9070 114.7196 0.0000 0.0000 0.0000
# 4 0.0000 0.0000 0.0000 24.7912 0.0000 0.0000
# 5 0.0000 0.0000 0.0000 0.0000 24.7910 0.0000
# 6 0.0000 0.0000 0.0000 0.0000 0.0000 26.0736
#
#
#
# Elastic Compliance Matrix: (Units=1/GPa)
#
#
# Indices 1 2 3 4 5 6 
#
# 1 0.051902 -0.028392 -0.015761 0.000000 0.000000 0.000000
# 2 -0.028392 0.051904 -0.015762 0.000000 0.000000 0.000000
# 3 -0.015761 -0.015762 0.029850 0.000000 0.000000 0.000000
# 4 0.000000 0.000000 0.000000 0.040337 0.000000 0.000000
# 5 0.000000 0.000000 0.000000 0.000000 0.040337 0.000000
# 6 0.000000 0.000000 0.000000 0.000000 0.000000 0.038353
#
#
# Mechanical properties :
#
#
# Convention : Reuss Voigt Hill
#
# Bulk Modulus (GPa) = 72.33043 79.29402 75.81222
# Shear Modulus (GPa) = 13.25837 18.62523 15.94180
#
# Velocity S-wave (km/s) = 3.06292 3.63030 3.35861
# Velocity P-wave (km/s) = 7.98054 8.58369 8.28760
#
# Compressibility (1/GPa) = 0.01382544
#
# Stress axis : x y z
#
# Youngs Moduli (GPa) = 19.26720 19.26646 33.50116
#
# Poissons Ratio (x) = 0.54701 0.52801
# Poissons Ratio (y) = 0.54703 0.52805
# Poissons Ratio (z) = 0.30367 0.30368
#
# Static dielectric constant tensor:
#      x y z
#    x 1.448580 0.000000 0.000000 
#    y 0.000000 1.448580 0.000000 
#    z 0.000000 0.000000 1.460530 
# 
# From -- ./inp_files/7951.got.cif
#   From: 2010.05.17/outbox.cif.g08.bks.cpg/sg123_4_cif.got.tgz:7951.got - 2010.05.20 11:43:04.
