data_PCOD9561850
_publ_section_title
;
Structure prediction by ZEFSAII (Michael W. Deem and Ramdas Pophale) SiO2 
 PCOD9561850
Probable space group: P 4/M M M
;
_chemical_formula_sum "Si O2"
_cell_formula_units_Z 128
_cell_length_a 19.061685
_cell_length_b 19.061685
_cell_length_c 23.854577
_cell_angle_alpha 90.000000
_cell_angle_beta 90.000000
_cell_angle_gamma 90.000000
_cell_volume 8667.508909
_symmetry_space_group_name_H-M "P 4/M M M"
_symmetry_group_IT_number 123
_symmetry_cell_setting 'tetragonal'
loop_
_space_group_symop_operation_xyz
x,y,z
-y,x,z
-x,-y,z
y,-x,z
x,-y,-z
-x,y,-z
y,x,-z
-y,-x,-z
-x,-y,-z
y,-x,-z
x,y,-z
-y,x,-z
-x,y,z
x,-y,z
-y,-x,z
y,x,z
loop_
_atom_site_type_symbol
_atom_site_label
_atom_site_fract_x
_atom_site_fract_y
_atom_site_fract_z
Si Si1 0.920264 0.803778 0.760817
Si Si2 0.918971 0.329934 0.839583
Si Si3 0.082934 0.696070 0.660143
Si Si4 0.807591 0.692511 0.063759
Si Si5 0.691595 0.580290 0.910495
Si Si6 0.917934 0.198157 0.566901
Si Si7 0.582933 0.852968 0.738003
Si Si8 0.420512 0.306319 0.775049
O O1 0.864686 0.864686 0.767697
O O2 0.915626 0.745990 0.809698
O O3 0.906289 0.759102 0.704611
O O4 0.000000 0.830407 0.758343
O O5 0.868589 0.325567 0.892906
O O6 0.892096 0.384967 0.792627
O O7 0.000000 0.344957 0.853445
O O8 0.101243 0.731270 0.600818
O O9 0.123305 0.629123 0.684728
O O10 0.000000 0.678982 0.660609
O O11 0.760835 0.760835 0.080395
O O12 0.752949 0.628062 0.065024
O O13 0.832421 0.702916 0.000000
O O14 0.694260 0.500000 0.928269
O O15 0.618476 0.618476 0.924085
O O16 0.700109 0.582937 0.842763
O O17 0.913524 0.208434 0.500000
O O18 0.865687 0.134314 0.581824
O O19 0.000000 0.182138 0.580562
O O20 0.500000 0.867508 0.732166
O O21 0.592160 0.770132 0.749278
O O22 0.500000 0.328674 0.761201
O O23 0.362802 0.362802 0.757594
#
# Coordination Sequence:
#
# PCOD9561850 Si02
#       8
#    16  16  16  16  16  16  16  16
#     4   9  17  28  43  64  89 115 143 176 215 262
#     4  10  20  32  47  66  86 110 141 181 227 268
#     4   9  18  30  43  63  90 120 154 190 228 265
#     4  10  20  33  49  66  85 113 145 176 216 266
#     4   9  17  30  46  65  88 111 137 167 201 245
#     4   9  17  29  45  66  94 127 162 198 233 271
#     4  10  19  31  48  69  91 116 149 188 227 271
#     4   9  17  28  44  66  90 116 143 172 210 256
#
# _framework density 14.767795
#
# number of rings (size 3 to 8) (size 9 to 14) (size 15 to 20)
#    0.000    2.625    1.250    1.875    0.000    4.500 
#    0.000    1.875    0.000    2.625    0.000    5.250 
#    0.000    0.000    0.000   11.625    0.000    0.000 
#
# Total GULP energy -713191.744763 kJ/mol
# GULP energy per Si atom -5571.810506 kJ/mol
# Density = 1.473418 g / cm^3
# Si number density = 14.767795 Si / 1000 Ang^3
#
#
#
# Elastic Constant Matrix: (Units=GPa)
#
#
# Indices 1 2 3 4 5 6 
#
# 1 96.1696 64.9409 35.8596 0.0000 0.0000 0.0000
# 2 64.9409 96.1696 35.8596 0.0000 0.0000 0.0000
# 3 35.8596 35.8596 51.4297 0.0000 0.0000 0.0000
# 4 0.0000 0.0000 0.0000 7.5690 0.0000 0.0000
# 5 0.0000 0.0000 0.0000 0.0000 7.5690 0.0000
# 6 0.0000 0.0000 0.0000 0.0000 0.0000 22.1541
#
#
#
# Elastic Compliance Matrix: (Units=1/GPa)
#
#
# Indices 1 2 3 4 5 6 
#
# 1 0.020511 -0.011511 -0.006276 0.000000 0.000000 0.000000
# 2 -0.011511 0.020511 -0.006276 0.000000 0.000000 0.000000
# 3 -0.006276 -0.006276 0.028196 0.000000 0.000000 0.000000
# 4 0.000000 0.000000 0.000000 0.132119 0.000000 0.000000
# 5 0.000000 0.000000 0.000000 0.000000 0.132119 0.000000
# 6 0.000000 0.000000 0.000000 0.000000 0.000000 0.045138
#
#
# Mechanical properties :
#
#
# Convention : Reuss Voigt Hill
#
# Bulk Modulus (GPa) = 47.40702 57.45434 52.43068
# Shear Modulus (GPa) = 11.52741 14.59899 13.06320
#
# Velocity S-wave (km/s) = 2.79691 3.14756 2.97740
# Velocity P-wave (km/s) = 6.52699 7.22490 6.88479
#
# Compressibility (1/GPa) = 0.02109392
#
# Stress axis : x y z
#
# Youngs Moduli (GPa) = 48.75391 48.75391 35.46656
#
# Poissons Ratio (x) = 0.56119 0.22258
# Poissons Ratio (y) = 0.56119 0.22258
# Poissons Ratio (z) = 0.30597 0.30597
#
# Static dielectric constant tensor:
#      x y z
#    x 1.481070 0.000000 0.000000 
#    y 0.000000 1.481070 0.000000 
#    z 0.000000 0.000000 1.500530 
# 
# From -- ./inp_files/7649.got.cif
#   From: 2010.05.17/outbox.cif.g08.bks.cpg/sg123_4_cif.got.tgz:7649.got - 2010.05.20 11:43:04.
