data_PCOD9561351
_publ_section_title
;
Structure prediction by ZEFSAII (Michael W. Deem and Ramdas Pophale) SiO2 
 PCOD9561351
Probable space group: I -4 2 D
;
_chemical_formula_sum "Si O2"
_cell_formula_units_Z 88
_cell_length_a 17.524469
_cell_length_b 17.524469
_cell_length_c 13.568223
_cell_angle_alpha 90.000000
_cell_angle_beta 90.000000
_cell_angle_gamma 90.000000
_cell_volume 4166.896447
_symmetry_space_group_name_H-M "I -4 2 D"
_symmetry_group_IT_number 122
_symmetry_cell_setting 'tetragonal'
loop_
_space_group_symop_operation_xyz
x,y,z
y,-x,-z
-x,-y,z
-y,x,-z
x,1/2-y,1/4-z
-x,1/2+y,1/4-z
-y,1/2-x,1/4+z
y,1/2+x,1/4+z
1/2+x,1/2+y,1/2+z
1/2+y,1/2-x,1/2-z
1/2-x,1/2-y,1/2+z
1/2-y,1/2+x,1/2-z
1/2+x,-y,3/4-z
1/2-x,y,3/4-z
1/2-y,-x,3/4+z
1/2+y,x,3/4+z
loop_
_atom_site_type_symbol
_atom_site_label
_atom_site_fract_x
_atom_site_fract_y
_atom_site_fract_z
Si Si1 0.119328 0.801926 0.485907
Si Si2 0.750000 0.617495 0.375000
Si Si3 0.919445 0.850590 0.365343
Si Si4 0.780211 0.475042 0.983692
Si Si5 0.923643 0.127197 0.278942
Si Si6 0.751533 0.195248 0.758059
O O1 0.096872 0.867181 0.564096
O O2 0.112471 0.831280 0.375223
O O3 0.204566 0.775446 0.509730
O O4 0.065779 0.728626 0.502462
O O5 0.811354 0.572516 0.440638
O O6 0.795899 0.671911 0.298431
O O7 0.947904 0.784012 0.439486
O O8 0.870936 0.803116 0.287063
O O9 0.991176 0.892344 0.315464
O O10 0.750000 0.454935 0.875000
O O11 0.863383 0.438917 0.998364
O O12 0.750000 0.185702 0.875000
#
# Coordination Sequence:
#
# PCOD9561351 Si02
#       6
#    16   8  16  16  16  16
#     4  11  22  40  65  96 126 174 226 288 339 409
#     4  12  22  40  64  94 138 182 228 280 346 410
#     4  11  23  39  64  98 135 171 233 284 342 411
#     4  11  21  39  64  90 135 176 214 277 358 409
#     4  11  24  40  64  98 135 182 222 278 354 422
#     4  12  22  37  64  94 129 172 236 288 334 399
#
# _framework density 21.118835000000001
#
# number of rings (size 3 to 8) (size 9 to 14) (size 15 to 20)
#    0.000    0.727    7.273    1.091    1.273    0.000 
#    0.000    3.636    0.000    0.000    0.000    0.000 
#    0.000    0.000    0.000    0.000    0.000    0.000 
#
# Total GULP energy -245839.410675 kJ/mol
# GULP energy per Si atom -5587.259334 kJ/mol
# Density = 2.107077 g / cm^3
# Si number density = 21.118835 Si / 1000 Ang^3
#
#
#
# Elastic Constant Matrix: (Units=GPa)
#
#
# Indices 1 2 3 4 5 6 
#
# 1 68.7689 11.1767 21.4325 0.0000 0.0000 0.0000
# 2 11.1767 68.7689 21.4325 0.0000 0.0000 0.0000
# 3 21.4325 21.4325 117.0448 0.0000 0.0000 0.0000
# 4 0.0000 0.0000 0.0000 26.0903 0.0000 0.0000
# 5 0.0000 0.0000 0.0000 0.0000 26.0903 0.0000
# 6 0.0000 0.0000 0.0000 0.0000 0.0000 27.5278
#
#
#
# Elastic Compliance Matrix: (Units=1/GPa)
#
#
# Indices 1 2 3 4 5 6 
#
# 1 0.015617 -0.001747 -0.002540 0.000000 0.000000 0.000000
# 2 -0.001747 0.015617 -0.002540 0.000000 0.000000 0.000000
# 3 -0.002540 -0.002540 0.009474 0.000000 0.000000 0.000000
# 4 0.000000 0.000000 0.000000 0.038328 0.000000 0.000000
# 5 0.000000 0.000000 0.000000 0.000000 0.038328 0.000000
# 6 0.000000 0.000000 0.000000 0.000000 0.000000 0.036327
#
#
# Mechanical properties :
#
#
# Convention : Reuss Voigt Hill
#
# Bulk Modulus (GPa) = 36.96152 40.29622 38.62887
# Shear Modulus (GPa) = 28.35072 29.31107 28.83090
#
# Velocity S-wave (km/s) = 3.66790 3.72951 3.69884
# Velocity P-wave (km/s) = 5.95632 6.13741 6.04754
#
# Compressibility (1/GPa) = 0.02705516
#
# Stress axis : x y z
#
# Youngs Moduli (GPa) = 64.03320 64.03320 105.55312
#
# Poissons Ratio (x) = 0.11184 0.26809
# Poissons Ratio (y) = 0.11184 0.26809
# Poissons Ratio (z) = 0.16263 0.16263
#
# Static dielectric constant tensor:
#      x y z
#    x 1.812440 0.000000 0.000000 
#    y 0.000000 1.812440 0.000000 
#    z 0.000000 0.000000 1.761900 
# 
# From -- ./inp_files/5373.got.cif
#   From: 2010.05.17/outbox.cif.g08.bks.cpg/sg122_3_cif.got.tgz:5373.got - 2010.05.20 11:37:33.
