data_PCOD9561538
_publ_section_title
;
Structure prediction by ZEFSAII (Michael W. Deem and Ramdas Pophale) SiO2 
 PCOD9561538
Probable space group: I -4 2 D
;
_chemical_formula_sum "Si O2"
_cell_formula_units_Z 52
_cell_length_a 20.534603
_cell_length_b 20.534603
_cell_length_c 5.199963
_cell_angle_alpha 90.000000
_cell_angle_beta 90.000000
_cell_angle_gamma 90.000000
_cell_volume 2192.667984
_symmetry_space_group_name_H-M "I -4 2 D"
_symmetry_group_IT_number 122
_symmetry_cell_setting 'tetragonal'
loop_
_space_group_symop_operation_xyz
x,y,z
y,-x,-z
-x,-y,z
-y,x,-z
x,1/2-y,1/4-z
-x,1/2+y,1/4-z
-y,1/2-x,1/4+z
y,1/2+x,1/4+z
1/2+x,1/2+y,1/2+z
1/2+y,1/2-x,1/2-z
1/2-x,1/2-y,1/2+z
1/2-y,1/2+x,1/2-z
1/2+x,-y,3/4-z
1/2-x,y,3/4-z
1/2-y,-x,3/4+z
1/2+y,x,3/4+z
loop_
_atom_site_type_symbol
_atom_site_label
_atom_site_fract_x
_atom_site_fract_y
_atom_site_fract_z
Si Si1 0.509646 0.750000 0.125000
Si Si2 0.618333 0.572321 0.817183
Si Si3 0.613179 0.841940 0.944364
Si Si4 0.000000 0.500000 0.750000
Si Si5 0.750000 0.785665 0.875000
O O1 0.460944 0.687479 0.104343
O O2 0.561982 0.718076 0.328218
O O3 0.615718 0.609281 0.546206
O O4 0.560820 0.519917 0.824829
O O5 0.598900 0.623327 0.036772
O O6 0.687713 0.821571 0.981534
O O7 0.722349 0.750000 0.625000
#
# Coordination Sequence:
#
# PCOD9561538 Si02
#       5
#     8  16  16   4   8
#     4  12  28  51  86 116 159 226 278 340 426 508
#     4  12  29  49  79 111 163 207 274 336 414 486
#     4  12  28  49  76 115 155 204 268 337 404 497
#     4  12  28  54  76 118 164 218 268 358 400 494
#     4  12  24  45  74 108 153 190 248 330 400 468
#
# _framework density 23.715399999999999
#
# number of rings (size 3 to 8) (size 9 to 14) (size 15 to 20)
#    0.000    0.000    4.615    3.692    4.308    3.692 
#    0.000    0.000    0.000    0.000    0.000    0.000 
#    0.000    0.000    0.000    0.000    0.000    0.000 
#
# Total GULP energy -145062.821832 kJ/mol
# GULP energy per Si atom -5579.339301 kJ/mol
# Density = 2.366142 g / cm^3
# Si number density = 23.715400 Si / 1000 Ang^3
#
#
#
# Elastic Constant Matrix: (Units=GPa)
#
#
# Indices 1 2 3 4 5 6 
#
# 1 113.0963 15.9887 -7.6270 0.0000 0.0000 0.0000
# 2 15.9887 113.0963 -7.6270 0.0000 0.0000 0.0000
# 3 -7.6270 -7.6270 38.9675 0.0000 0.0000 0.0000
# 4 0.0000 0.0000 0.0000 -5.0379 0.0000 0.0000
# 5 0.0000 0.0000 0.0000 0.0000 -5.0379 0.0000
# 6 0.0000 0.0000 0.0000 0.0000 0.0000 75.1224
#
#
#
# Elastic Compliance Matrix: (Units=1/GPa)
#
#
# Indices 1 2 3 4 5 6 
#
# 1 0.009114 -0.001184 0.001552 0.000000 0.000000 0.000000
# 2 -0.001184 0.009114 0.001552 0.000000 0.000000 0.000000
# 3 0.001552 0.001552 0.026270 0.000000 0.000000 0.000000
# 4 0.000000 0.000000 0.000000 -0.198495 0.000000 0.000000
# 5 0.000000 0.000000 0.000000 0.000000 -0.198495 0.000000
# 6 0.000000 0.000000 0.000000 0.000000 0.000000 0.013312
#
#
# Mechanical properties :
#
#
# Convention : Reuss Voigt Hill
#
# Bulk Modulus (GPa) = 20.68717 29.62551 25.15634
# Shear Modulus (GPa) = -15.29480 30.63769 7.67145
#
# Velocity S-wave (km/s) = -2.54230 3.59819 1.80050
# Velocity P-wave (km/s) = 0.35254 5.45727 3.86692
#
# Compressibility (1/GPa) = 0.04833915
#
# Stress axis : x y z
#
# Youngs Moduli (GPa) = 109.72067 109.72067 38.06626
#
# Poissons Ratio (x) = 0.12989 -0.05909
# Poissons Ratio (y) = 0.12989 -0.05909
# Poissons Ratio (z) = -0.17030 -0.17030
#
# Static dielectric constant tensor:
#      x y z
#    x 2.137080 0.000000 0.000000 
#    y 0.000000 2.137080 0.000000 
#    z 0.000000 0.000000 1.937390 
# 
# From -- ./inp_files/895.got.cif
#   From: 2010.05.17/outbox.cif.g08.bks.cpg/sg122_1_cif.got.tgz:895.got - 2010.05.20 11:37:33.
