data_PCOD9561786
_publ_section_title
;
Structure prediction by ZEFSAII (Michael W. Deem and Ramdas Pophale) SiO2 
 PCOD9561786
Probable space group: P 4/M M M
;
_chemical_formula_sum "Si O2"
_cell_formula_units_Z 88
_cell_length_a 13.919132
_cell_length_b 13.919132
_cell_length_c 28.773602
_cell_angle_alpha 90.000000
_cell_angle_beta 90.000000
_cell_angle_gamma 90.000000
_cell_volume 5574.661979
_symmetry_space_group_name_H-M "P 4/M M M"
_symmetry_group_IT_number 123
_symmetry_cell_setting 'tetragonal'
loop_
_space_group_symop_operation_xyz
x,y,z
-y,x,z
-x,-y,z
y,-x,z
x,-y,-z
-x,y,-z
y,x,-z
-y,-x,-z
-x,-y,-z
y,-x,-z
x,y,-z
-y,x,-z
-x,y,z
x,-y,z
-y,-x,z
y,x,z
loop_
_atom_site_type_symbol
_atom_site_label
_atom_site_fract_x
_atom_site_fract_y
_atom_site_fract_z
Si Si1 0.271526 0.884821 0.356868
Si Si2 0.883450 0.610344 0.552130
Si Si3 0.885397 0.270316 0.909221
Si Si4 0.112035 0.386871 0.184145
Si Si5 0.227261 0.614313 0.278522
Si Si6 0.390529 0.883246 0.000000
O O1 0.170956 0.829045 0.351782
O O2 0.319105 0.856986 0.406348
O O3 0.342233 0.844478 0.317127
O O4 0.262505 0.000000 0.354202
O O5 0.851669 0.637953 0.500000
O O6 0.852618 0.500000 0.561039
O O7 0.000000 0.609028 0.551484
O O8 0.828726 0.171275 0.910560
O O9 0.863922 0.325379 0.861217
O O10 0.000000 0.256698 0.911737
O O11 0.855235 0.334404 0.953424
O O12 0.119322 0.500000 0.172531
O O13 0.178997 0.367835 0.228240
O O14 0.000000 0.368289 0.196441
O O15 0.239163 0.500000 0.284492
O O16 0.325905 0.674095 0.282027
O O17 0.500000 0.848518 0.000000
O O18 0.393737 0.000000 0.000000
#
# Coordination Sequence:
#
# PCOD9561786 Si02
#       6
#    16  16  16  16  16   8
#     4  10  20  32  47  68  94 125 161 199 238 282
#     4   8  14  26  45  67  89 115 150 192 234 273
#     4  10  19  30  45  66  94 125 154 185 221 265
#     4   9  17  30  49  71  93 119 153 193 233 270
#     4  10  20  33  50  72  96 122 154 193 238 288
#     4   9  17  30  47  65  85 111 147 191 233 266
#
# _framework density 15.78571
#
# number of rings (size 3 to 8) (size 9 to 14) (size 15 to 20)
#    0.000    2.636    0.000    3.000    0.000    4.909 
#    0.000    0.000    0.000    1.636    0.000    5.091 
#    0.000   13.818    0.000   16.909    0.000    0.909 
#
# Total GULP energy -490347.872377 kJ/mol
# GULP energy per Si atom -5572.134913 kJ/mol
# Density = 1.574978 g / cm^3
# Si number density = 15.785710 Si / 1000 Ang^3
#
#
#
# Elastic Constant Matrix: (Units=GPa)
#
#
# Indices 1 2 3 4 5 6 
#
# 1 79.5201 54.0119 58.6860 0.0000 0.0000 0.0000
# 2 54.0119 79.5201 58.6860 0.0000 0.0000 0.0000
# 3 58.6860 58.6860 114.9842 0.0000 0.0000 0.0000
# 4 0.0000 0.0000 0.0000 15.4412 0.0000 0.0000
# 5 0.0000 0.0000 0.0000 0.0000 15.4412 0.0000
# 6 0.0000 0.0000 0.0000 0.0000 0.0000 13.6290
#
#
#
# Elastic Compliance Matrix: (Units=1/GPa)
#
#
# Indices 1 2 3 4 5 6 
#
# 1 0.026393 -0.012811 -0.006932 0.000000 0.000000 0.000000
# 2 -0.012811 0.026393 -0.006932 0.000000 0.000000 0.000000
# 3 -0.006932 -0.006932 0.015773 0.000000 0.000000 0.000000
# 4 0.000000 0.000000 0.000000 0.064762 0.000000 0.000000
# 5 0.000000 0.000000 0.000000 0.000000 0.064762 0.000000
# 6 0.000000 0.000000 0.000000 0.000000 0.000000 0.073373
#
#
# Mechanical properties :
#
#
# Convention : Reuss Voigt Hill
#
# Bulk Modulus (GPa) = 65.75192 68.53250 67.14221
# Shear Modulus (GPa) = 15.15733 15.74496 15.45115
#
# Velocity S-wave (km/s) = 3.10206 3.16162 3.13198
# Velocity P-wave (km/s) = 7.38740 7.53899 7.46358
#
# Compressibility (1/GPa) = 0.01520868
#
# Stress axis : x y z
#
# Youngs Moduli (GPa) = 37.88955 37.88955 63.40034
#
# Poissons Ratio (x) = 0.48539 0.43949
# Poissons Ratio (y) = 0.48539 0.43949
# Poissons Ratio (z) = 0.26265 0.26265
#
# Static dielectric constant tensor:
#      x y z
#    x 1.508490 0.000000 0.000000 
#    y 0.000000 1.508490 0.000000 
#    z 0.000000 0.000000 1.532160 
# 
# From -- ./inp_files/7157.got.cif
#   From: 2010.05.17/outbox.cif.g08.bks.cpg/sg123_4_cif.got.tgz:7157.got - 2010.05.20 11:43:04.
