data_PCOD9561264
_publ_section_title
;
Structure prediction by ZEFSAII (Michael W. Deem and Ramdas Pophale) SiO2 
 PCOD9561264
Probable space group: I -4 2 D
;
_chemical_formula_sum "Si O2"
_cell_formula_units_Z 96
_cell_length_a 15.174098
_cell_length_b 15.174098
_cell_length_c 20.108509
_cell_angle_alpha 90.000000
_cell_angle_beta 90.000000
_cell_angle_gamma 90.000000
_cell_volume 4630.049552
_symmetry_space_group_name_H-M "I -4 2 D"
_symmetry_group_IT_number 122
_symmetry_cell_setting 'tetragonal'
loop_
_space_group_symop_operation_xyz
x,y,z
y,-x,-z
-x,-y,z
-y,x,-z
x,1/2-y,1/4-z
-x,1/2+y,1/4-z
-y,1/2-x,1/4+z
y,1/2+x,1/4+z
1/2+x,1/2+y,1/2+z
1/2+y,1/2-x,1/2-z
1/2-x,1/2-y,1/2+z
1/2-y,1/2+x,1/2-z
1/2+x,-y,3/4-z
1/2-x,y,3/4-z
1/2-y,-x,3/4+z
1/2+y,x,3/4+z
loop_
_atom_site_type_symbol
_atom_site_label
_atom_site_fract_x
_atom_site_fract_y
_atom_site_fract_z
Si Si1 0.655026 0.449556 0.907564
Si Si2 0.061276 0.913874 0.907792
Si Si3 0.178602 0.592833 0.210672
Si Si4 0.372184 0.622499 0.266171
Si Si5 0.636302 0.180135 0.219277
Si Si6 0.000000 0.500000 0.569244
Si Si7 0.250000 0.212134 0.875000
O O1 0.750000 0.427427 0.875000
O O2 0.656212 0.553685 0.923486
O O3 0.566900 0.439879 0.863039
O O4 0.648052 0.393421 0.974740
O O5 0.120717 0.900489 0.843541
O O6 0.991966 0.834434 0.914845
O O7 0.116665 0.917467 0.975340
O O8 0.000000 0.000000 0.901308
O O9 0.277165 0.601709 0.236302
O O10 0.157621 0.680798 0.168589
O O11 0.386211 0.726198 0.253358
O O12 0.442698 0.564274 0.226794
O O13 0.722776 0.195774 0.174173
#
# Coordination Sequence:
#
# PCOD9561264 Si02
#       7
#    16  16  16  16  16   8   8
#     4  12  24  42  72 104 144 185 244 290 368 432
#     4  12  24  46  66 100 136 182 236 290 342 413
#     4  11  24  45  70  96 138 181 233 291 345 413
#     4  11  26  45  70  99 142 181 236 289 354 419
#     4  11  24  45  68 105 143 182 229 302 340 435
#     4  12  24  47  68 105 138 194 226 298 364 424
#     4  10  24  44  68  98 142 184 234 286 352 406
#
# _framework density 20.734117999999999
#
# number of rings (size 3 to 8) (size 9 to 14) (size 15 to 20)
#    0.000    0.667    5.000    2.500    4.667    4.000 
#    0.000    0.000    0.000    0.000    0.000    0.000 
#    0.000    0.000    0.000    0.000    0.000    0.000 
#
# Total GULP energy -268521.523299 kJ/mol
# GULP energy per Si atom -5594.198402 kJ/mol
# Density = 2.068693 g / cm^3
# Si number density = 20.734118 Si / 1000 Ang^3
#
#
#
# Elastic Constant Matrix: (Units=GPa)
#
#
# Indices 1 2 3 4 5 6 
#
# 1 30.5484 0.2087 0.0136 0.0000 0.0000 0.0000
# 2 0.2087 30.5484 0.0136 0.0000 0.0000 0.0000
# 3 0.0136 0.0136 78.8549 0.0000 0.0000 0.0000
# 4 0.0000 0.0000 0.0000 33.4980 0.0000 0.0000
# 5 0.0000 0.0000 0.0000 0.0000 33.4980 0.0000
# 6 0.0000 0.0000 0.0000 0.0000 0.0000 31.7009
#
#
#
# Elastic Compliance Matrix: (Units=1/GPa)
#
#
# Indices 1 2 3 4 5 6 
#
# 1 0.032737 -0.000224 -0.000006 0.000000 0.000000 0.000000
# 2 -0.000224 0.032737 -0.000006 0.000000 0.000000 0.000000
# 3 -0.000006 -0.000006 0.012682 0.000000 0.000000 0.000000
# 4 0.000000 0.000000 0.000000 0.029852 0.000000 0.000000
# 5 0.000000 0.000000 0.000000 0.000000 0.029852 0.000000
# 6 0.000000 0.000000 0.000000 0.000000 0.000000 0.031545
#
#
# Mechanical properties :
#
#
# Convention : Reuss Voigt Hill
#
# Bulk Modulus (GPa) = 12.87252 15.60260 14.23756
# Shear Modulus (GPa) = 25.54030 29.05377 27.29704
#
# Velocity S-wave (km/s) = 3.51351 3.74739 3.63233
# Velocity P-wave (km/s) = 4.76251 5.12498 4.94706
#
# Compressibility (1/GPa) = 0.07768486
#
# Stress axis : x y z
#
# Youngs Moduli (GPa) = 30.54694 30.54694 78.85492
#
# Poissons Ratio (x) = 0.00683 0.00044
# Poissons Ratio (y) = 0.00683 0.00044
# Poissons Ratio (z) = 0.00017 0.00017
#
# Static dielectric constant tensor:
#      x y z
#    x 1.754640 0.000000 0.000000 
#    y 0.000000 1.754640 0.000000 
#    z 0.000000 0.000000 1.735420 
# 
# From -- ./inp_files/7334.got.cif
#   From: 2010.05.17/outbox.cif.g08.bks.cpg/sg122_4_cif.got.tgz:7334.got - 2010.05.20 11:37:33.
