data_PCOD9561375
_publ_section_title
;
Structure prediction by ZEFSAII (Michael W. Deem and Ramdas Pophale) SiO2 
 PCOD9561375
Probable space group: I -4 2 D
;
_chemical_formula_sum "Si O2"
_cell_formula_units_Z 64
_cell_length_a 10.607776
_cell_length_b 10.607776
_cell_length_c 25.317522
_cell_angle_alpha 90.000000
_cell_angle_beta 90.000000
_cell_angle_gamma 90.000000
_cell_volume 2848.851927
_symmetry_space_group_name_H-M "I -4 2 D"
_symmetry_group_IT_number 122
_symmetry_cell_setting 'tetragonal'
loop_
_space_group_symop_operation_xyz
x,y,z
y,-x,-z
-x,-y,z
-y,x,-z
x,1/2-y,1/4-z
-x,1/2+y,1/4-z
-y,1/2-x,1/4+z
y,1/2+x,1/4+z
1/2+x,1/2+y,1/2+z
1/2+y,1/2-x,1/2-z
1/2-x,1/2-y,1/2+z
1/2-y,1/2+x,1/2-z
1/2+x,-y,3/4-z
1/2-x,y,3/4-z
1/2-y,-x,3/4+z
1/2+y,x,3/4+z
loop_
_atom_site_type_symbol
_atom_site_label
_atom_site_fract_x
_atom_site_fract_y
_atom_site_fract_z
Si Si1 0.618747 0.343129 0.004636
Si Si2 0.853712 0.966452 0.068047
Si Si3 0.233893 0.352925 0.291189
Si Si4 0.593709 0.615936 0.683178
O O1 0.738980 0.333001 0.043470
O O2 0.624040 0.212270 0.972166
O O3 0.475657 0.356580 0.025930
O O4 0.794073 0.889073 0.020153
O O5 0.849614 0.904244 0.125033
O O6 0.000000 0.000000 0.056979
O O7 0.799098 0.107478 0.067514
O O8 0.274446 0.487796 0.314870
O O9 0.500000 0.500000 0.696487
#
# Coordination Sequence:
#
# PCOD9561375 Si02
#       4
#    16  16  16  16
#     4  11  24  44  70  95 141 190 234 290 366 437
#     4  11  22  39  69 107 138 169 240 304 354 415
#     4  12  21  43  71 104 142 183 232 304 363 425
#     4  11  24  42  72 103 135 190 237 290 366 441
#
# _framework density 22.46519
#
# number of rings (size 3 to 8) (size 9 to 14) (size 15 to 20)
#    0.000    0.750    7.500    0.000    0.000    9.000 
#    0.000    0.000   27.500    0.000    0.000    0.000 
#    0.000    0.000    0.000    0.000    0.000    0.000 
#
# Total GULP energy -178531.750043 kJ/mol
# GULP energy per Si atom -5579.117189 kJ/mol
# Density = 2.241406 g / cm^3
# Si number density = 22.465190 Si / 1000 Ang^3
#
#
#
# Elastic Constant Matrix: (Units=GPa)
#
#
# Indices 1 2 3 4 5 6 
#
# 1 141.2210 26.3412 26.4194 0.0000 0.0000 0.0000
# 2 26.3412 141.2210 26.4194 0.0000 0.0000 0.0000
# 3 26.4194 26.4194 82.9386 0.0000 0.0000 0.0000
# 4 0.0000 0.0000 0.0000 17.0578 0.0000 0.0000
# 5 0.0000 0.0000 0.0000 0.0000 17.0578 0.0000
# 6 0.0000 0.0000 0.0000 0.0000 0.0000 39.1432
#
#
#
# Elastic Compliance Matrix: (Units=1/GPa)
#
#
# Indices 1 2 3 4 5 6 
#
# 1 0.007670 -0.001035 -0.002113 0.000000 0.000000 0.000000
# 2 -0.001035 0.007670 -0.002113 0.000000 0.000000 0.000000
# 3 -0.002113 -0.002113 0.013403 0.000000 0.000000 0.000000
# 4 0.000000 0.000000 0.000000 0.058624 0.000000 0.000000
# 5 0.000000 0.000000 0.000000 0.000000 0.058624 0.000000
# 6 0.000000 0.000000 0.000000 0.000000 0.000000 0.025547
#
#
# Mechanical properties :
#
#
# Convention : Reuss Voigt Hill
#
# Bulk Modulus (GPa) = 54.88806 58.19338 56.54072
# Shear Modulus (GPa) = 26.57664 33.73178 30.15421
#
# Velocity S-wave (km/s) = 3.44323 3.87914 3.66767
# Velocity P-wave (km/s) = 6.34770 6.78408 6.56951
#
# Compressibility (1/GPa) = 0.01821890
#
# Stress axis : x y z
#
# Youngs Moduli (GPa) = 130.38579 130.38579 74.60759
#
# Poissons Ratio (x) = 0.13498 0.15767
# Poissons Ratio (y) = 0.13498 0.15767
# Poissons Ratio (z) = 0.27555 0.27555
#
# Static dielectric constant tensor:
#      x y z
#    x 1.969350 0.000000 0.000000 
#    y 0.000000 1.969350 0.000000 
#    z 0.000000 0.000000 1.832020 
# 
# From -- ./inp_files/6938.got.cif
#   From: 2010.05.17/outbox.cif.g08.bks.cpg/sg122_4_cif.got.tgz:6938.got - 2010.05.20 11:37:33.
