data_PCOD9561935
_publ_section_title
;
Structure prediction by ZEFSAII (Michael W. Deem and Ramdas Pophale) SiO2 
 PCOD9561935
Probable space group: P 4/M M M
;
_chemical_formula_sum "Si O2"
_cell_formula_units_Z 60
_cell_length_a 18.778539
_cell_length_b 18.778539
_cell_length_c 11.594364
_cell_angle_alpha 90.000000
_cell_angle_beta 90.000000
_cell_angle_gamma 90.000000
_cell_volume 4088.561470
_symmetry_space_group_name_H-M "P 4/M M M"
_symmetry_group_IT_number 123
_symmetry_cell_setting 'tetragonal'
loop_
_space_group_symop_operation_xyz
x,y,z
-y,x,z
-x,-y,z
y,-x,z
x,-y,-z
-x,y,-z
y,x,-z
-y,-x,-z
-x,-y,-z
y,-x,-z
x,y,-z
-y,x,-z
-x,y,z
x,-y,z
-y,-x,z
y,x,z
loop_
_atom_site_type_symbol
_atom_site_label
_atom_site_fract_x
_atom_site_fract_y
_atom_site_fract_z
Si Si1 0.418091 0.785061 0.863065
Si Si2 0.580290 0.081967 0.707505
Si Si3 0.420868 0.420868 0.362393
Si Si4 0.692489 0.692489 0.282616
Si Si5 0.230491 0.769510 0.500000
Si Si6 0.690641 0.084260 0.500000
O O1 0.500000 0.760591 0.837645
O O2 0.413230 0.864961 0.813966
O O3 0.356743 0.742837 0.796158
O O4 0.408313 0.781273 0.000000
O O5 0.500000 0.091783 0.658330
O O6 0.639575 0.095589 0.610789
O O7 0.586472 0.000000 0.743278
O O8 0.500000 0.402477 0.318428
O O9 0.425501 0.425501 0.500000
O O10 0.362902 0.362902 0.336425
O O11 0.733796 0.733796 0.385285
O O12 0.250055 0.853688 0.500000
O O13 0.712998 0.000000 0.500000
#
# Coordination Sequence:
#
# PCOD9561935 Si02
#       6
#    16  16   8   8   4   8
#     4  10  21  34  48  67  94 132 170 204 243 284
#     4   9  17  30  49  72  99 131 161 193 238 293
#     4   9  18  31  45  63  89 121 157 201 255 298
#     4  12  20  34  47  71  95 123 161 214 249 296
#     4  12  22  32  52  82  96 124 160 190 258 310
#     4  10  19  34  51  74 105 128 155 197 243 299
#
# _framework density 14.675088000000001
#
# number of rings (size 3 to 8) (size 9 to 14) (size 15 to 20)
#    0.000    2.000    3.333    2.000    0.000    2.133 
#    0.000    2.667    0.000    0.200    0.000    5.600 
#    0.000    0.000    0.000    0.000    0.000    8.133 
#
# Total GULP energy -334127.508194 kJ/mol
# GULP energy per Si atom -5568.791803 kJ/mol
# Density = 1.464169 g / cm^3
# Si number density = 14.675088 Si / 1000 Ang^3
#
#
#
# Elastic Constant Matrix: (Units=GPa)
#
#
# Indices 1 2 3 4 5 6 
#
# 1 87.4062 56.8554 38.7793 0.0000 0.0000 0.0000
# 2 56.8554 87.4068 38.7793 0.0000 0.0000 0.0000
# 3 38.7793 38.7793 74.7921 0.0000 0.0000 0.0000
# 4 0.0000 0.0000 0.0000 18.7954 0.0000 0.0000
# 5 0.0000 0.0000 0.0000 0.0000 18.7953 0.0000
# 6 0.0000 0.0000 0.0000 0.0000 0.0000 25.6111
#
#
#
# Elastic Compliance Matrix: (Units=1/GPa)
#
#
# Indices 1 2 3 4 5 6 
#
# 1 0.021172 -0.011561 -0.004983 0.000000 0.000000 0.000000
# 2 -0.011561 0.021171 -0.004983 0.000000 0.000000 0.000000
# 3 -0.004983 -0.004983 0.018538 0.000000 0.000000 0.000000
# 4 0.000000 0.000000 0.000000 0.053205 0.000000 0.000000
# 5 0.000000 0.000000 0.000000 0.000000 0.053205 0.000000
# 6 0.000000 0.000000 0.000000 0.000000 0.000000 0.039046
#
#
# Mechanical properties :
#
#
# Convention : Reuss Voigt Hill
#
# Bulk Modulus (GPa) = 56.09489 57.60368 56.84929
# Shear Modulus (GPa) = 19.58235 20.31977 19.95106
#
# Velocity S-wave (km/s) = 3.65690 3.72512 3.69117
# Velocity P-wave (km/s) = 7.49254 7.60526 7.54911
#
# Compressibility (1/GPa) = 0.01782693
#
# Stress axis : x y z
#
# Youngs Moduli (GPa) = 47.23314 47.23357 53.94348
#
# Poissons Ratio (x) = 0.54605 0.26881
# Poissons Ratio (y) = 0.54604 0.26881
# Poissons Ratio (z) = 0.23537 0.23537
#
# Static dielectric constant tensor:
#      x y z
#    x 1.489830 0.000000 0.000000 
#    y 0.000000 1.489830 0.000000 
#    z 0.000000 0.000000 1.469490 
# 
# From -- ./inp_files/2686.got.cif
#   From: 2010.05.17/outbox.cif.g08.bks.cpg/sg123_2_cif.got.tgz:2686.got - 2010.05.20 11:43:04.
