data_PCOD9561301
_publ_section_title
;
Structure prediction by ZEFSAII (Michael W. Deem and Ramdas Pophale) SiO2 
 PCOD9561301
Probable space group: I -4 2 D
;
_chemical_formula_sum "Si O2"
_cell_formula_units_Z 80
_cell_length_a 14.615223
_cell_length_b 14.615223
_cell_length_c 19.148935
_cell_angle_alpha 90.000000
_cell_angle_beta 90.000000
_cell_angle_gamma 90.000000
_cell_volume 4090.303346
_symmetry_space_group_name_H-M "I -4 2 D"
_symmetry_group_IT_number 122
_symmetry_cell_setting 'tetragonal'
loop_
_space_group_symop_operation_xyz
x,y,z
y,-x,-z
-x,-y,z
-y,x,-z
x,1/2-y,1/4-z
-x,1/2+y,1/4-z
-y,1/2-x,1/4+z
y,1/2+x,1/4+z
1/2+x,1/2+y,1/2+z
1/2+y,1/2-x,1/2-z
1/2-x,1/2-y,1/2+z
1/2-y,1/2+x,1/2-z
1/2+x,-y,3/4-z
1/2-x,y,3/4-z
1/2-y,-x,3/4+z
1/2+y,x,3/4+z
loop_
_atom_site_type_symbol
_atom_site_label
_atom_site_fract_x
_atom_site_fract_y
_atom_site_fract_z
Si Si1 0.038774 0.127933 0.028514
Si Si2 0.572652 0.686505 0.780432
Si Si3 0.087573 0.740472 0.706981
Si Si4 0.728920 0.078192 0.189483
Si Si5 0.403148 0.052879 0.923187
O O1 0.984802 0.139806 0.100723
O O2 0.093765 0.214345 0.002062
O O3 0.961466 0.102878 0.970674
O O4 0.659847 0.622162 0.769123
O O5 0.553555 0.692817 0.862358
O O6 0.485324 0.652993 0.738291
O O7 0.062204 0.750000 0.625000
O O8 0.171645 0.668617 0.710717
O O9 0.002182 0.713091 0.754780
O O10 0.837878 0.092842 0.179107
O O11 0.500000 0.000000 0.926738
#
# Coordination Sequence:
#
# PCOD9561301 Si02
#       5
#    16  16  16  16  16
#     4  11  21  37  62  95 135 170 205 262 333 405
#     4  11  24  40  67  98 131 172 219 267 335 407
#     4  10  25  45  68  96 130 175 229 278 332 390
#     4  11  24  47  66  95 135 172 226 282 325 393
#     4  12  22  41  66  93 134 172 215 271 334 395
#
# _framework density 19.558453
#
# number of rings (size 3 to 8) (size 9 to 14) (size 15 to 20)
#    0.000    1.000    6.000    0.600    2.800    3.600 
#    0.000    2.000    0.000    0.000    0.000    0.000 
#    0.000    0.000    0.000    0.000    0.000    0.000 
#
# Total GULP energy -223369.657940 kJ/mol
# GULP energy per Si atom -5584.241448 kJ/mol
# Density = 1.951394 g / cm^3
# Si number density = 19.558453 Si / 1000 Ang^3
#
#
#
# Elastic Constant Matrix: (Units=GPa)
#
#
# Indices 1 2 3 4 5 6 
#
# 1 61.9739 13.3718 50.0172 0.0000 0.0000 0.0000
# 2 13.3718 61.9740 50.0172 0.0000 0.0000 0.0000
# 3 50.0172 50.0172 87.8485 0.0000 0.0000 0.0000
# 4 0.0000 0.0000 0.0000 31.2086 0.0000 0.0000
# 5 0.0000 0.0000 0.0000 0.0000 31.2086 0.0000
# 6 0.0000 0.0000 0.0000 0.0000 0.0000 30.2811
#
#
#
# Elastic Compliance Matrix: (Units=1/GPa)
#
#
# Indices 1 2 3 4 5 6 
#
# 1 0.037476 0.016900 -0.030959 0.000000 0.000000 0.000000
# 2 0.016900 0.037476 -0.030959 0.000000 0.000000 0.000000
# 3 -0.030959 -0.030959 0.046637 0.000000 0.000000 0.000000
# 4 0.000000 0.000000 0.000000 0.032042 0.000000 0.000000
# 5 0.000000 0.000000 0.000000 0.000000 0.032042 0.000000
# 6 0.000000 0.000000 0.000000 0.000000 0.000000 0.033024
#
#
# Mechanical properties :
#
#
# Convention : Reuss Voigt Hill
#
# Bulk Modulus (GPa) = 31.69402 48.73429 40.21415
# Shear Modulus (GPa) = 15.66163 25.09902 20.38032
#
# Velocity S-wave (km/s) = 2.83284 3.58618 3.23154
# Velocity P-wave (km/s) = 5.19037 6.48991 5.87617
#
# Compressibility (1/GPa) = 0.03155170
#
# Stress axis : x y z
#
# Youngs Moduli (GPa) = 26.68396 26.68396 21.44208
#
# Poissons Ratio (x) = -0.45097 0.66384
# Poissons Ratio (y) = -0.45097 0.66384
# Poissons Ratio (z) = 0.82612 0.82612
#
# Static dielectric constant tensor:
#      x y z
#    x 1.705800 0.000000 0.000000 
#    y 0.000000 1.705800 0.000000 
#    z 0.000000 0.000000 1.687380 
# 
# From -- ./inp_files/7056.got.cif
#   From: 2010.05.17/outbox.cif.g08.bks.cpg/sg122_4_cif.got.tgz:7056.got - 2010.05.20 11:37:33.
