data_PCOD9561196
_publ_section_title
;
Structure prediction by ZEFSAII (Michael W. Deem and Ramdas Pophale) SiO2 
 PCOD9561196
Probable space group: I -4 2 D
;
_chemical_formula_sum "Si O2"
_cell_formula_units_Z 128
_cell_length_a 23.454473
_cell_length_b 23.454473
_cell_length_c 11.492132
_cell_angle_alpha 90.000000
_cell_angle_beta 90.000000
_cell_angle_gamma 90.000000
_cell_volume 6321.963209
_symmetry_space_group_name_H-M "I -4 2 D"
_symmetry_group_IT_number 122
_symmetry_cell_setting 'tetragonal'
loop_
_space_group_symop_operation_xyz
x,y,z
y,-x,-z
-x,-y,z
-y,x,-z
x,1/2-y,1/4-z
-x,1/2+y,1/4-z
-y,1/2-x,1/4+z
y,1/2+x,1/4+z
1/2+x,1/2+y,1/2+z
1/2+y,1/2-x,1/2-z
1/2-x,1/2-y,1/2+z
1/2-y,1/2+x,1/2-z
1/2+x,-y,3/4-z
1/2-x,y,3/4-z
1/2-y,-x,3/4+z
1/2+y,x,3/4+z
loop_
_atom_site_type_symbol
_atom_site_label
_atom_site_fract_x
_atom_site_fract_y
_atom_site_fract_z
Si Si1 0.814362 0.146771 0.920361
Si Si2 0.899523 0.675552 0.532922
Si Si3 0.411885 0.798246 0.222511
Si Si4 0.057836 0.462663 0.115150
Si Si5 0.772071 0.684836 0.583771
Si Si6 0.560581 0.876551 0.829406
Si Si7 0.293963 0.955246 0.223373
Si Si8 0.397140 0.124116 0.446424
O O1 0.750000 0.142559 0.875000
O O2 0.827361 0.209958 0.971523
O O3 0.852979 0.139584 0.805258
O O4 0.828995 0.095770 0.008956
O O5 0.832721 0.688027 0.520395
O O6 0.908623 0.619769 0.454306
O O7 0.923761 0.676257 0.664498
O O8 0.935234 0.728310 0.479132
O O9 0.408238 0.750000 0.125000
O O10 0.363066 0.784702 0.317692
O O11 0.476646 0.798179 0.268752
O O12 0.399969 0.856872 0.154438
O O13 0.118455 0.495963 0.125039
O O14 0.057862 0.426092 0.233328
O O15 0.000000 0.500000 0.106453
O O16 0.061831 0.422697 0.002997
O O17 0.764806 0.750000 0.625000
O O18 0.324290 0.932257 0.108967
#
# Coordination Sequence:
#
# PCOD9561196 Si02
#       8
#    16  16  16  16  16  16  16  16
#     4  10  23  39  63  98 127 170 224 274 330 400
#     4  11  21  39  67  91 138 175 214 276 344 401
#     4  12  22  40  64  99 134 180 219 272 350 414
#     4  11  23  45  68  87 117 174 229 272 338 398
#     4  11  22  41  65  96 138 177 227 279 338 414
#     4  11  22  40  66  88 124 167 224 267 336 401
#     4  11  23  41  63 100 134 176 224 269 355 408
#     4  11  23  42  67  92 129 173 220 282 330 415
#
# _framework density 20.246873999999998
#
# number of rings (size 3 to 8) (size 9 to 14) (size 15 to 20)
#    0.000    1.000    6.250    1.500    0.000    1.500 
#    2.250    0.000    0.000    0.000    0.000    0.000 
#    0.000    0.000    0.000    0.000    0.000    0.000 
#
# Total GULP energy -356290.620266 kJ/mol
# GULP energy per Si atom -5567.040942 kJ/mol
# Density = 2.020079 g / cm^3
# Si number density = 20.246874 Si / 1000 Ang^3
#
#
#
# Elastic Constant Matrix: (Units=GPa)
#
#
# Indices 1 2 3 4 5 6 
#
# 1 86.5938 25.9029 21.3386 0.0000 0.0000 0.0000
# 2 25.9029 86.5938 21.3386 0.0000 0.0000 0.0000
# 3 21.3386 21.3386 50.2930 0.0000 0.0000 0.0000
# 4 0.0000 0.0000 0.0000 19.9579 0.0000 0.0000
# 5 0.0000 0.0000 0.0000 0.0000 19.9579 0.0000
# 6 0.0000 0.0000 0.0000 0.0000 0.0000 28.4204
#
#
#
# Elastic Compliance Matrix: (Units=1/GPa)
#
#
# Indices 1 2 3 4 5 6 
#
# 1 0.013536 -0.002941 -0.004495 0.000000 0.000000 0.000000
# 2 -0.002941 0.013536 -0.004495 0.000000 0.000000 0.000000
# 3 -0.004495 -0.004495 0.023698 0.000000 0.000000 0.000000
# 4 0.000000 0.000000 0.000000 0.050106 0.000000 0.000000
# 5 0.000000 0.000000 0.000000 0.000000 0.050106 0.000000
# 6 0.000000 0.000000 0.000000 0.000000 0.000000 0.035186
#
#
# Mechanical properties :
#
#
# Convention : Reuss Voigt Hill
#
# Bulk Modulus (GPa) = 37.16580 40.07119 38.61849
# Shear Modulus (GPa) = 22.83127 23.99392 23.41259
#
# Velocity S-wave (km/s) = 3.36168 3.44622 3.40421
# Velocity P-wave (km/s) = 5.78481 5.97239 5.87935
#
# Compressibility (1/GPa) = 0.02690646
#
# Stress axis : x y z
#
# Youngs Moduli (GPa) = 73.87883 73.87883 42.19792
#
# Poissons Ratio (x) = 0.21730 0.18968
# Poissons Ratio (y) = 0.21730 0.18968
# Poissons Ratio (z) = 0.33209 0.33209
#
# Static dielectric constant tensor:
#      x y z
#    x 1.973460 0.000000 0.000000 
#    y 0.000000 1.973460 0.000000 
#    z 0.000000 0.000000 1.745570 
# 
# From -- ./inp_files/4637.got.cif
#   From: 2010.05.17/outbox.cif.g08.bks.cpg/sg122_3_cif.got.tgz:4637.got - 2010.05.20 11:37:33.
