data_PCOD9561859
_publ_section_title
;
Structure prediction by ZEFSAII (Michael W. Deem and Ramdas Pophale) SiO2 
 PCOD9561859
Probable space group: P 4/M M M
;
_chemical_formula_sum "Si O2"
_cell_formula_units_Z 72
_cell_length_a 12.872833
_cell_length_b 12.872833
_cell_length_c 26.801504
_cell_angle_alpha 90.000000
_cell_angle_beta 90.000000
_cell_angle_gamma 90.000000
_cell_volume 4441.272657
_symmetry_space_group_name_H-M "P 4/M M M"
_symmetry_group_IT_number 123
_symmetry_cell_setting 'tetragonal'
loop_
_space_group_symop_operation_xyz
x,y,z
-y,x,z
-x,-y,z
y,-x,z
x,-y,-z
-x,y,-z
y,x,-z
-y,-x,-z
-x,-y,-z
y,-x,-z
x,y,-z
-y,x,-z
-x,y,z
x,-y,z
-y,-x,z
y,x,z
loop_
_atom_site_type_symbol
_atom_site_label
_atom_site_fract_x
_atom_site_fract_y
_atom_site_fract_z
Si Si1 0.500000 0.126010 0.231932
Si Si2 0.375944 0.788079 0.393291
Si Si3 0.374189 0.882528 0.500000
Si Si4 0.121449 0.292011 0.059611
Si Si5 0.121779 0.705833 0.293019
Si Si6 0.873795 0.500000 0.117439
O O1 0.394490 0.155937 0.260524
O O2 0.500000 0.161448 0.174697
O O3 0.500000 0.000000 0.232103
O O4 0.500000 0.786840 0.389112
O O5 0.324170 0.675831 0.385531
O O6 0.346266 0.827089 0.448465
O O7 0.328680 0.861333 0.350476
O O8 0.500000 0.886379 0.500000
O O9 0.334460 0.000000 0.500000
O O10 0.194867 0.194867 0.071738
O O11 0.156444 0.395280 0.088579
O O12 0.000000 0.271490 0.071466
O O13 0.127490 0.310530 0.000000
O O14 0.196061 0.803940 0.283017
O O15 0.000000 0.726900 0.283715
O O16 0.000000 0.500000 0.117394
#
# Coordination Sequence:
#
# PCOD9561859 Si02
#       6
#     8  16   8  16  16   8
#     4   9  18  33  52  71  95 127 167 209 250 296
#     4  10  19  31  48  71  99 131 167 207 252 302
#     4   9  17  28  45  67  91 123 163 207 250 298
#     4   9  17  29  47  73 104 136 169 206 249 295
#     4  10  20  34  53  75 100 130 164 205 251 300
#     4   9  17  30  49  71  95 130 171 209 245 289
#
# _framework density 16.211569000000001
#
# number of rings (size 3 to 8) (size 9 to 14) (size 15 to 20)
#    0.000    2.556    1.111    1.333    0.000    3.778 
#    0.000    1.111    0.000    2.667    0.000    9.333 
#    0.000    8.000    0.000    0.000    0.000    0.000 
#
# Total GULP energy -401096.231750 kJ/mol
# GULP energy per Si atom -5570.780997 kJ/mol
# Density = 1.617467 g / cm^3
# Si number density = 16.211569 Si / 1000 Ang^3
#
#
#
# Elastic Constant Matrix: (Units=GPa)
#
#
# Indices 1 2 3 4 5 6 
#
# 1 93.5127 64.8103 43.7888 0.0000 0.0000 0.0000
# 2 64.8103 93.5127 43.7888 0.0000 0.0000 0.0000
# 3 43.7888 43.7888 79.9257 0.0000 0.0000 0.0000
# 4 0.0000 0.0000 0.0000 14.1644 0.0000 0.0000
# 5 0.0000 0.0000 0.0000 0.0000 14.1644 0.0000
# 6 0.0000 0.0000 0.0000 0.0000 0.0000 10.7550
#
#
#
# Elastic Compliance Matrix: (Units=1/GPa)
#
#
# Indices 1 2 3 4 5 6 
#
# 1 0.021952 -0.012889 -0.004965 0.000000 0.000000 0.000000
# 2 -0.012889 0.021952 -0.004965 0.000000 0.000000 0.000000
# 3 -0.004965 -0.004965 0.017952 0.000000 0.000000 0.000000
# 4 0.000000 0.000000 0.000000 0.070599 0.000000 0.000000
# 5 0.000000 0.000000 0.000000 0.000000 0.070599 0.000000
# 6 0.000000 0.000000 0.000000 0.000000 0.000000 0.092980
#
#
# Mechanical properties :
#
#
# Convention : Reuss Voigt Hill
#
# Bulk Modulus (GPa) = 61.66413 63.52518 62.59465
# Shear Modulus (GPa) = 14.40598 15.45431 14.93015
#
# Velocity S-wave (km/s) = 2.98421 3.09089 3.03802
# Velocity P-wave (km/s) = 7.07062 7.21168 7.14150
#
# Compressibility (1/GPa) = 0.01621688
#
# Stress axis : x y z
#
# Youngs Moduli (GPa) = 45.55492 45.55492 55.70356
#
# Poissons Ratio (x) = 0.58715 0.27658
# Poissons Ratio (y) = 0.58715 0.27658
# Poissons Ratio (z) = 0.22619 0.22619
#
# Static dielectric constant tensor:
#      x y z
#    x 1.529660 0.000000 0.000000 
#    y 0.000000 1.529660 0.000000 
#    z 0.000000 0.000000 1.551870 
# 
# From -- ./inp_files/7926.got.cif
#   From: 2010.05.17/outbox.cif.g08.bks.cpg/sg123_4_cif.got.tgz:7926.got - 2010.05.20 11:43:04.
