data_PCOD9561892
_publ_section_title
;
Structure prediction by ZEFSAII (Michael W. Deem and Ramdas Pophale) SiO2 
 PCOD9561892
Probable space group: P 4/M M M
;
_chemical_formula_sum "Si O2"
_cell_formula_units_Z 68
_cell_length_a 18.125469
_cell_length_b 18.125469
_cell_length_c 11.938851
_cell_angle_alpha 90.000000
_cell_angle_beta 90.000000
_cell_angle_gamma 90.000000
_cell_volume 3922.302076
_symmetry_space_group_name_H-M "P 4/M M M"
_symmetry_group_IT_number 123
_symmetry_cell_setting 'tetragonal'
loop_
_space_group_symop_operation_xyz
x,y,z
-y,x,z
-x,-y,z
y,-x,z
x,-y,-z
-x,y,-z
y,x,-z
-y,-x,-z
-x,-y,-z
y,-x,-z
x,y,-z
-y,x,-z
-x,y,z
x,-y,z
-y,-x,z
y,x,z
loop_
_atom_site_type_symbol
_atom_site_label
_atom_site_fract_x
_atom_site_fract_y
_atom_site_fract_z
Si Si1 0.106419 0.500000 0.130145
Si Si2 0.500000 0.622199 0.000000
Si Si3 0.918447 0.646061 0.726760
Si Si4 0.271558 0.500000 0.790040
Si Si5 0.795954 0.083593 0.866842
Si Si6 0.242623 0.363682 0.629794
O O1 0.081564 0.573530 0.194834
O O2 0.194423 0.500000 0.143680
O O3 0.085547 0.500000 0.000000
O O4 0.428612 0.571389 0.000000
O O5 0.500000 0.667911 0.885662
O O6 0.909637 0.718911 0.802680
O O7 0.845309 0.642732 0.650987
O O8 0.000000 0.649660 0.671619
O O9 0.272027 0.427806 0.711337
O O10 0.855368 0.144633 0.831750
O O11 0.824035 0.000000 0.848600
O O12 0.783091 0.092073 0.000000
O O13 0.254861 0.383388 0.500000
O O14 0.288196 0.288196 0.652046
#
# Coordination Sequence:
#
# PCOD9561892 Si02
#       6
#     8   4  16   8  16  16
#     4  10  19  32  50  73 102 139 174 202 246 307
#     4  11  22  36  58  86 115 144 172 212 263 316
#     4  10  20  32  49  73 102 135 173 219 264 309
#     4  10  20  37  56  81 109 138 172 214 259 309
#     4   9  17  29  45  67  97 132 171 216 265 318
#     4  10  21  37  57  78 104 140 180 221 264 314
#
# _framework density 17.336758
#
# number of rings (size 3 to 8) (size 9 to 14) (size 15 to 20)
#    0.000    2.176    0.588    2.824    0.000    2.588 
#    0.000    1.176    0.000    4.235    0.000    4.941 
#    0.000    0.000    0.000   21.882    0.000    0.235 
#
# Total GULP energy -379129.393741 kJ/mol
# GULP energy per Si atom -5575.432261 kJ/mol
# Density = 1.729730 g / cm^3
# Si number density = 17.336758 Si / 1000 Ang^3
#
#
#
# Elastic Constant Matrix: (Units=GPa)
#
#
# Indices 1 2 3 4 5 6 
#
# 1 113.4124 61.1129 48.4574 0.0000 0.0000 0.0000
# 2 61.1129 113.4117 48.4575 0.0000 0.0000 0.0000
# 3 48.4574 48.4575 81.5176 0.0000 0.0000 0.0000
# 4 0.0000 0.0000 0.0000 15.7822 0.0000 0.0000
# 5 0.0000 0.0000 0.0000 0.0000 15.7841 0.0000
# 6 0.0000 0.0000 0.0000 0.0000 0.0000 37.0851
#
#
#
# Elastic Compliance Matrix: (Units=1/GPa)
#
#
# Indices 1 2 3 4 5 6 
#
# 1 0.013837 -0.005284 -0.005084 0.000000 0.000000 0.000000
# 2 -0.005284 0.013837 -0.005084 0.000000 0.000000 0.000000
# 3 -0.005084 -0.005084 0.018312 0.000000 0.000000 0.000000
# 4 0.000000 0.000000 0.000000 0.063362 0.000000 0.000000
# 5 0.000000 0.000000 0.000000 0.000000 0.063355 0.000000
# 6 0.000000 0.000000 0.000000 0.000000 0.000000 0.026965
#
#
# Mechanical properties :
#
#
# Convention : Reuss Voigt Hill
#
# Bulk Modulus (GPa) = 66.30893 69.37748 67.84320
# Shear Modulus (GPa) = 21.22239 23.75123 22.48681
#
# Velocity S-wave (km/s) = 3.50255 3.70536 3.60538
# Velocity P-wave (km/s) = 7.39512 7.64269 7.51992
#
# Compressibility (1/GPa) = 0.01508092
#
# Stress axis : x y z
#
# Youngs Moduli (GPa) = 72.27034 72.26969 54.60887
#
# Poissons Ratio (x) = 0.38186 0.27765
# Poissons Ratio (y) = 0.38186 0.27766
# Poissons Ratio (z) = 0.36745 0.36745
#
# Static dielectric constant tensor:
#      x y z
#    x 1.588670 0.000000 0.000000 
#    y 0.000000 1.588670 0.000000 
#    z 0.000000 0.000000 1.550600 
# 
# From -- ./inp_files/2774.got.cif
#   From: 2010.05.17/outbox.cif.g08.bks.cpg/sg123_2_cif.got.tgz:2774.got - 2010.05.20 11:43:04.
