data_PCOD9561635
_publ_section_title
;
Structure prediction by ZEFSAII (Michael W. Deem and Ramdas Pophale) SiO2 
 PCOD9561635
Probable space group: P 4/M M M
;
_chemical_formula_sum "Si O2"
_cell_formula_units_Z 112
_cell_length_a 17.866771
_cell_length_b 17.866771
_cell_length_c 23.516479
_cell_angle_alpha 90.000000
_cell_angle_beta 90.000000
_cell_angle_gamma 90.000000
_cell_volume 7506.965841
_symmetry_space_group_name_H-M "P 4/M M M"
_symmetry_group_IT_number 123
_symmetry_cell_setting 'tetragonal'
loop_
_space_group_symop_operation_xyz
x,y,z
-y,x,z
-x,-y,z
y,-x,z
x,-y,-z
-x,y,-z
y,x,-z
-y,-x,-z
-x,-y,-z
y,-x,-z
x,y,-z
-y,x,-z
-x,y,z
x,-y,z
-y,-x,z
y,x,z
loop_
_atom_site_type_symbol
_atom_site_label
_atom_site_fract_x
_atom_site_fract_y
_atom_site_fract_z
Si Si1 0.587696 0.290926 0.227964
Si Si2 0.188741 0.688741 0.852431
Si Si3 0.587507 0.912492 0.931836
Si Si4 0.788632 0.912961 0.361025
Si Si5 0.185636 0.685637 0.565211
Si Si6 0.711367 0.587039 0.361023
Si Si7 0.912304 0.209077 0.227967
O O1 0.500000 0.295200 0.215277
O O2 0.629520 0.370481 0.221756
O O3 0.630599 0.233620 0.187312
O O4 0.596825 0.268657 0.294314
O O5 0.249999 0.750002 0.873575
O O6 0.143196 0.643196 0.899736
O O7 0.130598 0.733617 0.812686
O O8 0.500000 0.897476 0.917431
O O9 0.602522 0.000000 0.917431
O O10 0.594746 0.905255 0.000000
O O11 0.861263 0.861263 0.371671
O O12 0.722395 0.882518 0.400556
O O13 0.768653 0.903176 0.294316
O O14 0.804243 0.000000 0.370923
O O15 0.167658 0.667655 0.500000
O O16 0.250000 0.750001 0.565068
O O17 0.222396 0.617485 0.599447
O O18 0.695759 0.500000 0.370922
O O19 0.638736 0.638736 0.371671
O O20 0.870477 0.129524 0.221760
O O21 0.000000 0.204800 0.215280
#
# Coordination Sequence:
#
# PCOD9561635 Si02
#       7
#    16  16  16  16  16  16  16
#     4   9  17  28  43  64  89 116 143 173 211 253
#     4  10  18  28  45  67  91 117 146 180 214 251
#     4   9  18  32  48  65  87 116 148 183 223 263
#     4   9  17  29  45  65  88 112 140 175 213 254
#     4   9  17  29  44  60  80 109 142 172 206 253
#     4   9  17  29  45  65  88 112 140 175 213 254
#     4   9  17  28  43  64  89 116 143 173 211 253
#
# _framework density 14.919476
#
# number of rings (size 3 to 8) (size 9 to 14) (size 15 to 20)
#    0.000    2.857    0.000    2.143    0.000    4.857 
#    0.000    2.857    0.000    0.429    0.000    9.000 
#    0.000    0.000    0.000   26.571    0.000    0.286 
#
# Total GULP energy -623803.283152 kJ/mol
# GULP energy per Si atom -5569.672171 kJ/mol
# Density = 1.488552 g / cm^3
# Si number density = 14.919476 Si / 1000 Ang^3
#
#
#
# Elastic Constant Matrix: (Units=GPa)
#
#
# Indices 1 2 3 4 5 6 
#
# 1 90.6058 71.3573 59.6039 0.0000 0.0000 0.0000
# 2 71.3573 90.6058 59.6039 0.0000 0.0000 0.0000
# 3 59.6039 59.6039 65.2066 0.0000 0.0000 0.0000
# 4 0.0000 0.0000 0.0000 20.8667 0.0000 0.0000
# 5 0.0000 0.0000 0.0000 0.0000 20.8667 0.0000
# 6 0.0000 0.0000 0.0000 0.0000 0.0000 18.4301
#
#
#
# Elastic Compliance Matrix: (Units=1/GPa)
#
#
# Indices 1 2 3 4 5 6 
#
# 1 0.035410 -0.016542 -0.017247 0.000000 0.000000 0.000000
# 2 -0.016542 0.035410 -0.017247 0.000000 0.000000 0.000000
# 3 -0.017247 -0.017247 0.046867 0.000000 0.000000 0.000000
# 4 0.000000 0.000000 0.000000 0.047923 0.000000 0.000000
# 5 0.000000 0.000000 0.000000 0.000000 0.047923 0.000000
# 6 0.000000 0.000000 0.000000 0.000000 0.000000 0.054259
#
#
# Mechanical properties :
#
#
# Convention : Reuss Voigt Hill
#
# Bulk Modulus (GPa) = 64.04314 69.72758 66.88536
# Shear Modulus (GPa) = 13.33081 15.75624 14.54352
#
# Velocity S-wave (km/s) = 2.99242 3.25327 3.12557
# Velocity P-wave (km/s) = 7.41340 7.80699 7.61274
#
# Compressibility (1/GPa) = 0.01561448
#
# Stress axis : x y z
#
# Youngs Moduli (GPa) = 28.24025 28.24025 21.33710
#
# Poissons Ratio (x) = 0.46715 0.36801
# Poissons Ratio (y) = 0.46715 0.36801
# Poissons Ratio (z) = 0.48707 0.48707
#
# Static dielectric constant tensor:
#      x y z
#    x 1.478000 0.000000 0.000000 
#    y 0.000000 1.478000 0.000000 
#    z 0.000000 0.000000 1.485890 
# 
# From -- ./inp_files/6673.got.cif
#   From: 2010.05.17/outbox.cif.g08.bks.cpg/sg123_4_cif.got.tgz:6673.got - 2010.05.20 11:43:04.
