data_PCOD9561443
_publ_section_title
;
Structure prediction by ZEFSAII (Michael W. Deem and Ramdas Pophale) SiO2 
 PCOD9561443
Probable space group: I -4 2 D
;
_chemical_formula_sum "Si O2"
_cell_formula_units_Z 52
_cell_length_a 20.487059
_cell_length_b 20.487059
_cell_length_c 4.781113
_cell_angle_alpha 90.000000
_cell_angle_beta 90.000000
_cell_angle_gamma 90.000000
_cell_volume 2006.726771
_symmetry_space_group_name_H-M "I -4 2 D"
_symmetry_group_IT_number 122
_symmetry_cell_setting 'tetragonal'
loop_
_space_group_symop_operation_xyz
x,y,z
y,-x,-z
-x,-y,z
-y,x,-z
x,1/2-y,1/4-z
-x,1/2+y,1/4-z
-y,1/2-x,1/4+z
y,1/2+x,1/4+z
1/2+x,1/2+y,1/2+z
1/2+y,1/2-x,1/2-z
1/2-x,1/2-y,1/2+z
1/2-y,1/2+x,1/2-z
1/2+x,-y,3/4-z
1/2-x,y,3/4-z
1/2-y,-x,3/4+z
1/2+y,x,3/4+z
loop_
_atom_site_type_symbol
_atom_site_label
_atom_site_fract_x
_atom_site_fract_y
_atom_site_fract_z
Si Si1 0.494186 0.750000 0.125000
Si Si2 0.616910 0.583166 0.947098
Si Si3 0.601548 0.830624 0.811952
Si Si4 0.000000 0.500000 0.750000
Si Si5 0.790060 0.750000 0.625000
O O1 0.449474 0.688044 0.045010
O O2 0.542121 0.716942 0.355803
O O3 0.610793 0.647841 0.755949
O O4 0.559734 0.535512 0.843405
O O5 0.597901 0.603335 0.259573
O O6 0.665901 0.797769 0.940800
O O7 0.750000 0.784592 0.375000
#
# Coordination Sequence:
#
# PCOD9561443 Si02
#       5
#     8  16  16   4   8
#     4  11  28  50  80 116 162 218 279 344 420 501
#     4  12  28  48  80 111 161 210 278 339 418 488
#     4  11  28  48  72 115 155 204 270 337 402 497
#     4  12  28  54  80 118 160 222 276 354 404 526
#     4  11  24  46  74 106 154 198 253 322 408 491
#
# _framework density 25.912845000000001
#
# number of rings (size 3 to 8) (size 9 to 14) (size 15 to 20)
#    0.000    0.615    3.077    1.846   10.769    7.385 
#    0.000    0.000    0.000    0.000    0.000    0.000 
#    0.000    0.000    0.000    0.000    0.000    0.000 
#
# Total GULP energy -145497.700449 kJ/mol
# GULP energy per Si atom -5596.065402 kJ/mol
# Density = 2.585387 g / cm^3
# Si number density = 25.912845 Si / 1000 Ang^3
#
#
#
# Elastic Constant Matrix: (Units=GPa)
#
#
# Indices 1 2 3 4 5 6 
#
# 1 149.6191 66.7809 25.9932 0.0000 0.0000 0.0000
# 2 66.7809 149.6191 25.9932 0.0000 0.0000 0.0000
# 3 25.9932 25.9932 98.8744 0.0000 0.0000 0.0000
# 4 0.0000 0.0000 0.0000 8.0619 0.0000 0.0000
# 5 0.0000 0.0000 0.0000 0.0000 8.0619 0.0000
# 6 0.0000 0.0000 0.0000 0.0000 0.0000 54.9012
#
#
#
# Elastic Compliance Matrix: (Units=1/GPa)
#
#
# Indices 1 2 3 4 5 6 
#
# 1 0.008502 -0.003570 -0.001297 0.000000 0.000000 0.000000
# 2 -0.003570 0.008502 -0.001297 0.000000 0.000000 0.000000
# 3 -0.001297 -0.001297 0.010796 0.000000 0.000000 0.000000
# 4 0.000000 0.000000 0.000000 0.124041 0.000000 0.000000
# 5 0.000000 0.000000 0.000000 0.000000 0.124041 0.000000
# 6 0.000000 0.000000 0.000000 0.000000 0.000000 0.018215
#
#
# Mechanical properties :
#
#
# Convention : Reuss Voigt Hill
#
# Bulk Modulus (GPa) = 64.62503 70.62748 67.62626
# Shear Modulus (GPa) = 16.04725 32.82801 24.43763
#
# Velocity S-wave (km/s) = 2.49123 3.56316 3.07428
# Velocity P-wave (km/s) = 5.76788 6.65155 6.22542
#
# Compressibility (1/GPa) = 0.01547388
#
# Stress axis : x y z
#
# Youngs Moduli (GPa) = 117.61726 117.61726 92.62997
#
# Poissons Ratio (x) = 0.41984 0.12012
# Poissons Ratio (y) = 0.41984 0.12012
# Poissons Ratio (z) = 0.15252 0.15252
#
# Static dielectric constant tensor:
#      x y z
#    x 2.105210 0.000000 0.000000 
#    y 0.000000 2.105210 0.000000 
#    z 0.000000 0.000000 2.011140 
# 
# From -- ./inp_files/767.got.cif
#   From: 2010.05.17/outbox.cif.g08.bks.cpg/sg122_1_cif.got.tgz:767.got - 2010.05.20 11:37:33.
