data_PCOD9561249
_publ_section_title
;
Structure prediction by ZEFSAII (Michael W. Deem and Ramdas Pophale) SiO2 
 PCOD9561249
Probable space group: I -4 2 D
;
_chemical_formula_sum "Si O2"
_cell_formula_units_Z 60
_cell_length_a 11.177894
_cell_length_b 11.177894
_cell_length_c 22.322838
_cell_angle_alpha 90.000000
_cell_angle_beta 90.000000
_cell_angle_gamma 90.000000
_cell_volume 2789.134009
_symmetry_space_group_name_H-M "I -4 2 D"
_symmetry_group_IT_number 122
_symmetry_cell_setting 'tetragonal'
loop_
_space_group_symop_operation_xyz
x,y,z
y,-x,-z
-x,-y,z
-y,x,-z
x,1/2-y,1/4-z
-x,1/2+y,1/4-z
-y,1/2-x,1/4+z
y,1/2+x,1/4+z
1/2+x,1/2+y,1/2+z
1/2+y,1/2-x,1/2-z
1/2-x,1/2-y,1/2+z
1/2-y,1/2+x,1/2-z
1/2+x,-y,3/4-z
1/2-x,y,3/4-z
1/2-y,-x,3/4+z
1/2+y,x,3/4+z
loop_
_atom_site_type_symbol
_atom_site_label
_atom_site_fract_x
_atom_site_fract_y
_atom_site_fract_z
Si Si1 0.224065 0.600207 0.305259
Si Si2 0.946708 0.658918 0.786095
Si Si3 0.500000 0.000000 0.750000
Si Si4 0.000000 0.500000 0.605460
Si Si5 0.846705 0.888649 0.743278
O O1 0.250000 0.616025 0.375000
O O2 0.179250 0.725210 0.277119
O O3 0.323908 0.520776 0.270853
O O4 0.110902 0.514666 0.293871
O O5 0.863751 0.579241 0.741436
O O6 0.941635 0.597383 0.850525
O O7 0.910762 0.795963 0.787435
O O8 0.069012 0.406530 0.564036
#
# Coordination Sequence:
#
# PCOD9561249 Si02
#       5
#    16  16   4   8  16
#     4  10  24  42  67  93 135 184 220 292 331 426
#     4   9  23  43  64 102 139 173 228 295 347 419
#     4   8  20  46  56  92 134 164 236 264 338 392
#     4  10  25  43  72 102 139 189 226 304 352 416
#     4  11  25  44  68 104 135 181 240 274 363 422
#
# _framework density 21.512053999999999
#
# number of rings (size 3 to 8) (size 9 to 14) (size 15 to 20)
#    0.000    2.400    0.000    0.000   11.200    7.467 
#    0.000    0.000    0.000    0.000    0.000    0.000 
#    0.000    0.000    0.000    0.000    0.000    0.000 
#
# Total GULP energy -167368.535105 kJ/mol
# GULP energy per Si atom -5578.951170 kJ/mol
# Density = 2.146309 g / cm^3
# Si number density = 21.512054 Si / 1000 Ang^3
#
#
#
# Elastic Constant Matrix: (Units=GPa)
#
#
# Indices 1 2 3 4 5 6 
#
# 1 73.2445 52.1379 36.5240 0.0000 0.0000 0.0000
# 2 52.1379 73.2445 36.5240 0.0000 0.0000 0.0000
# 3 36.5240 36.5240 76.1731 0.0000 0.0000 0.0000
# 4 0.0000 0.0000 0.0000 13.4880 0.0000 0.0000
# 5 0.0000 0.0000 0.0000 0.0000 13.4880 0.0000
# 6 0.0000 0.0000 0.0000 0.0000 0.0000 42.7441
#
#
#
# Elastic Compliance Matrix: (Units=1/GPa)
#
#
# Indices 1 2 3 4 5 6 
#
# 1 0.029223 -0.018156 -0.005307 0.000000 0.000000 0.000000
# 2 -0.018156 0.029223 -0.005307 0.000000 0.000000 0.000000
# 3 -0.005307 -0.005307 0.018217 0.000000 0.000000 0.000000
# 4 0.000000 0.000000 0.000000 0.074140 0.000000 0.000000
# 5 0.000000 0.000000 0.000000 0.000000 0.074140 0.000000
# 6 0.000000 0.000000 0.000000 0.000000 0.000000 0.023395
#
#
# Mechanical properties :
#
#
# Convention : Reuss Voigt Hill
#
# Bulk Modulus (GPa) = 52.28767 52.55933 52.42350
# Shear Modulus (GPa) = 16.01282 20.44246 18.22764
#
# Velocity S-wave (km/s) = 2.73127 3.08600 2.91404
# Velocity P-wave (km/s) = 5.85708 6.09782 5.97866
#
# Compressibility (1/GPa) = 0.01912497
#
# Stress axis : x y z
#
# Youngs Moduli (GPa) = 34.21982 34.21982 54.89413
#
# Poissons Ratio (x) = 0.62128 0.29130
# Poissons Ratio (y) = 0.62128 0.29130
# Poissons Ratio (z) = 0.18159 0.18159
#
# Static dielectric constant tensor:
#      x y z
#    x 1.835120 0.000000 0.000000 
#    y 0.000000 1.835120 0.000000 
#    z 0.000000 0.000000 1.750810 
# 
# From -- ./inp_files/6963.got.cif
#   From: 2010.05.17/outbox.cif.g08.bks.cpg/sg122_4_cif.got.tgz:6963.got - 2010.05.20 11:37:33.
