data_PCOD9561660
_publ_section_title
;
Structure prediction by ZEFSAII (Michael W. Deem and Ramdas Pophale) SiO2 
 PCOD9561660
Probable space group: P 4/M M M
;
_chemical_formula_sum "Si O2"
_cell_formula_units_Z 96
_cell_length_a 19.470577
_cell_length_b 19.470577
_cell_length_c 16.119942
_cell_angle_alpha 90.000000
_cell_angle_beta 90.000000
_cell_angle_gamma 90.000000
_cell_volume 6111.124316
_symmetry_space_group_name_H-M "P 4/M M M"
_symmetry_group_IT_number 123
_symmetry_cell_setting 'tetragonal'
loop_
_space_group_symop_operation_xyz
x,y,z
-y,x,z
-x,-y,z
y,-x,z
x,-y,-z
-x,y,-z
y,x,-z
-y,-x,-z
-x,-y,-z
y,-x,-z
x,y,-z
-y,x,-z
-x,y,z
x,-y,z
-y,-x,z
y,x,z
loop_
_atom_site_type_symbol
_atom_site_label
_atom_site_fract_x
_atom_site_fract_y
_atom_site_fract_z
Si Si1 0.923043 0.581497 0.329131
Si Si2 0.078770 0.191640 0.900859
Si Si3 0.416847 0.219191 0.408729
Si Si4 0.788744 0.417882 0.908690
Si Si5 0.921853 0.654878 0.151894
Si Si6 0.582598 0.693714 0.247429
O O1 0.915657 0.500000 0.308263
O O2 0.860103 0.599870 0.388487
O O3 0.917705 0.624859 0.244831
O O4 0.000000 0.590674 0.363851
O O5 0.133664 0.133664 0.878204
O O6 0.089611 0.263573 0.854328
O O7 0.000000 0.169112 0.886494
O O8 0.085460 0.205018 0.000000
O O9 0.391276 0.239393 0.500000
O O10 0.500000 0.223127 0.410715
O O11 0.396058 0.265965 0.331114
O O12 0.798034 0.500000 0.903261
O O13 0.862328 0.382496 0.898467
O O14 0.739750 0.398192 0.832465
O O15 0.759982 0.401586 0.000000
O O16 0.000000 0.641904 0.121639
O O17 0.500000 0.685730 0.247703
O O18 0.622224 0.622224 0.243743
#
# Coordination Sequence:
#
# PCOD9561660 Si02
#       6
#    16  16  16  16  16  16
#     4   9  16  27  45  69  99 133 164 192 223 266
#     4   9  18  31  45  62  85 115 154 198 240 280
#     4   9  17  31  51  73  97 124 155 193 237 284
#     4  10  20  33  49  70  97 129 163 195 230 277
#     4  10  18  29  46  68  98 131 160 193 232 272
#     4  10  21  37  54  72  94 120 156 203 253 301
#
# _framework density 15.709056
#
# number of rings (size 3 to 8) (size 9 to 14) (size 15 to 20)
#    0.000    2.500    1.667    1.000    0.000    4.000 
#    0.000    3.333    0.000    0.000    0.000    4.667 
#    0.000    0.000    0.000    0.000    0.000    0.167 
#
# Total GULP energy -534818.904051 kJ/mol
# GULP energy per Si atom -5571.030251 kJ/mol
# Density = 1.567330 g / cm^3
# Si number density = 15.709056 Si / 1000 Ang^3
#
#
#
# Elastic Constant Matrix: (Units=GPa)
#
#
# Indices 1 2 3 4 5 6 
#
# 1 51.0311 36.0359 37.9413 0.0000 0.0000 0.0000
# 2 36.0359 51.0311 37.9413 0.0000 0.0000 0.0000
# 3 37.9413 37.9413 99.8810 0.0000 0.0000 0.0000
# 4 0.0000 0.0000 0.0000 4.3561 0.0000 0.0000
# 5 0.0000 0.0000 0.0000 0.0000 4.3561 0.0000
# 6 0.0000 0.0000 0.0000 0.0000 0.0000 23.3896
#
#
#
# Elastic Compliance Matrix: (Units=1/GPa)
#
#
# Indices 1 2 3 4 5 6 
#
# 1 0.041929 -0.024759 -0.006522 0.000000 0.000000 0.000000
# 2 -0.024759 0.041929 -0.006522 0.000000 0.000000 0.000000
# 3 -0.006522 -0.006522 0.014967 0.000000 0.000000 0.000000
# 4 0.000000 0.000000 0.000000 0.229563 0.000000 0.000000
# 5 0.000000 0.000000 0.000000 0.000000 0.229563 0.000000
# 6 0.000000 0.000000 0.000000 0.000000 0.000000 0.042754
#
#
# Mechanical properties :
#
#
# Convention : Reuss Voigt Hill
#
# Bulk Modulus (GPa) = 43.07043 47.30890 45.18967
# Shear Modulus (GPa) = 7.30940 12.42201 9.86570
#
# Velocity S-wave (km/s) = 2.15942 2.81509 2.50876
# Velocity P-wave (km/s) = 5.80470 6.38337 6.10090
#
# Compressibility (1/GPa) = 0.02321778
#
# Stress axis : x y z
#
# Youngs Moduli (GPa) = 23.84990 23.84990 66.81363
#
# Poissons Ratio (x) = 0.59050 0.43577
# Poissons Ratio (y) = 0.59050 0.43577
# Poissons Ratio (z) = 0.15555 0.15555
#
# Static dielectric constant tensor:
#      x y z
#    x 1.511900 0.000000 0.000000 
#    y 0.000000 1.511900 0.000000 
#    z 0.000000 0.000000 1.541400 
# 
# From -- ./inp_files/5490.got.cif
#   From: 2010.05.17/outbox.cif.g08.bks.cpg/sg123_3_cif.got.tgz:5490.got - 2010.05.20 11:43:04.
