data_PCOD9561601
_publ_section_title
;
Structure prediction by ZEFSAII (Michael W. Deem and Ramdas Pophale) SiO2 
 PCOD9561601
Probable space group: P 4/M M M
;
_chemical_formula_sum "Si O2"
_cell_formula_units_Z 80
_cell_length_a 23.167957
_cell_length_b 23.167957
_cell_length_c 7.366942
_cell_angle_alpha 90.000000
_cell_angle_beta 90.000000
_cell_angle_gamma 90.000000
_cell_volume 3954.237292
_symmetry_space_group_name_H-M "P 4/M M M"
_symmetry_group_IT_number 123
_symmetry_cell_setting 'tetragonal'
loop_
_space_group_symop_operation_xyz
x,y,z
-y,x,z
-x,-y,z
y,-x,z
x,-y,-z
-x,y,-z
y,x,-z
-y,-x,-z
-x,-y,-z
y,-x,-z
x,y,-z
-y,x,-z
-x,y,z
x,-y,z
-y,-x,z
y,x,z
loop_
_atom_site_type_symbol
_atom_site_label
_atom_site_fract_x
_atom_site_fract_y
_atom_site_fract_z
Si Si1 0.725168 0.816361 0.221627
Si Si2 0.723011 0.370594 0.221277
Si Si3 0.068654 0.438851 0.282580
Si Si4 0.935052 0.688701 0.208522
Si Si5 0.406741 0.500000 0.719042
Si Si6 0.275872 0.500000 0.202786
O O1 0.782070 0.782070 0.275494
O O2 0.671129 0.775859 0.273821
O O3 0.722498 0.881541 0.290690
O O4 0.723585 0.818048 0.000000
O O5 0.663800 0.336201 0.276405
O O6 0.734672 0.436219 0.285665
O O7 0.720632 0.373374 0.000000
O O8 0.074829 0.436679 0.500000
O O9 0.094242 0.500000 0.219289
O O10 0.087093 0.377711 0.207901
O O11 0.000000 0.440975 0.242696
O O12 0.000000 0.690528 0.288215
O O13 0.940736 0.706848 0.000000
O O14 0.444445 0.444445 0.768570
O O15 0.400337 0.500000 0.500000
O O16 0.345157 0.500000 0.806587
O O17 0.249981 0.500000 0.000000
#
# Coordination Sequence:
#
# PCOD9561601 Si02
#       6
#    16  16  16  16   8   8
#     4   8  14  26  41  56  80 113 138 156 193 249
#     4   8  14  24  37  54  75  97 122 152 189 234
#     4   8  14  25  39  54  77 112 144 163 192 244
#     4   9  16  25  40  64  86 101 129 176 213 232
#     4   9  18  30  40  52  74 101 121 140 184 252
#     4  10  17  25  41  62  75  84 114 167 202 214
#
# _framework density 20.231459999999998
#
# number of rings (size 3 to 8) (size 9 to 14) (size 15 to 20)
#    0.000    3.500    0.000    2.700    0.000    1.600 
#    1.800    2.500    0.000    1.800    0.000    2.800 
#    0.000    0.400    0.000    5.600    0.000    0.000 
#
# Total GULP energy -445614.466630 kJ/mol
# GULP energy per Si atom -5570.180833 kJ/mol
# Density = 2.018541 g / cm^3
# Si number density = 20.231460 Si / 1000 Ang^3
#
#
#
# Elastic Constant Matrix: (Units=GPa)
#
#
# Indices 1 2 3 4 5 6 
#
# 1 123.1765 59.9115 4.8060 0.0000 0.0000 0.0000
# 2 59.9115 123.1765 4.8060 0.0000 0.0000 0.0000
# 3 4.8060 4.8060 67.1445 0.0000 0.0000 0.0000
# 4 0.0000 0.0000 0.0000 -142.4053 0.0000 0.0000
# 5 0.0000 0.0000 0.0000 0.0000 -142.4053 0.0000
# 6 0.0000 0.0000 0.0000 0.0000 0.0000 8.0771
#
#
#
# Elastic Compliance Matrix: (Units=1/GPa)
#
#
# Indices 1 2 3 4 5 6 
#
# 1 0.010644 -0.005162 -0.000392 0.000000 0.000000 0.000000
# 2 -0.005162 0.010644 -0.000392 0.000000 0.000000 0.000000
# 3 -0.000392 -0.000392 0.014949 0.000000 0.000000 0.000000
# 4 0.000000 0.000000 0.000000 -0.007022 0.000000 0.000000
# 5 0.000000 0.000000 0.000000 0.000000 -0.007022 0.000000
# 6 0.000000 0.000000 0.000000 0.000000 0.000000 0.123807
#
#
# Mechanical properties :
#
#
# Convention : Reuss Voigt Hill
#
# Bulk Modulus (GPa) = 41.07677 50.28273 45.67975
# Shear Modulus (GPa) = 30.11881 -39.08177 -4.48148
#
# Velocity S-wave (km/s) = 3.86257 -4.39992 -1.48994
# Velocity P-wave (km/s) = 6.34351 0.95114 4.43483
#
# Compressibility (1/GPa) = 0.02434466
#
# Stress axis : x y z
#
# Youngs Moduli (GPa) = 93.94533 93.94533 66.89221
#
# Poissons Ratio (x) = 0.48495 0.02625
# Poissons Ratio (y) = 0.48495 0.02625
# Poissons Ratio (z) = 0.03687 0.03687
#
# Static dielectric constant tensor:
#      x y z
#    x 1.733070 0.000000 0.000000 
#    y 0.000000 1.733070 0.000000 
#    z 0.000000 0.000000 1.762510 
# 
# From -- ./inp_files/1507.got.cif
#   From: 2010.05.17/outbox.cif.g08.bks.cpg/sg123_1_cif.got.tgz:1507.got - 2010.05.20 11:43:04.
