data_PCOD9561043
_publ_section_title
;
Structure prediction by ZEFSAII (Michael W. Deem and Ramdas Pophale) SiO2 
 PCOD9561043
Probable space group: I -4 2 D
;
_chemical_formula_sum "Si O2"
_cell_formula_units_Z 64
_cell_length_a 11.779901
_cell_length_b 11.779901
_cell_length_c 22.100237
_cell_angle_alpha 90.000000
_cell_angle_beta 90.000000
_cell_angle_gamma 90.000000
_cell_volume 3066.762981
_symmetry_space_group_name_H-M "I -4 2 D"
_symmetry_group_IT_number 122
_symmetry_cell_setting 'tetragonal'
loop_
_space_group_symop_operation_xyz
x,y,z
y,-x,-z
-x,-y,z
-y,x,-z
x,1/2-y,1/4-z
-x,1/2+y,1/4-z
-y,1/2-x,1/4+z
y,1/2+x,1/4+z
1/2+x,1/2+y,1/2+z
1/2+y,1/2-x,1/2-z
1/2-x,1/2-y,1/2+z
1/2-y,1/2+x,1/2-z
1/2+x,-y,3/4-z
1/2-x,y,3/4-z
1/2-y,-x,3/4+z
1/2+y,x,3/4+z
loop_
_atom_site_type_symbol
_atom_site_label
_atom_site_fract_x
_atom_site_fract_y
_atom_site_fract_z
Si Si1 0.995315 0.738210 0.333532
Si Si2 0.708573 0.177922 0.763595
Si Si3 0.678274 0.084413 0.436165
Si Si4 0.555577 0.377605 0.295486
O O1 0.874418 0.718600 0.302825
O O2 0.085362 0.663779 0.293773
O O3 0.052762 0.863265 0.327961
O O4 0.005661 0.699923 0.401939
O O5 0.730867 0.311637 0.774110
O O6 0.808853 0.115887 0.800122
O O7 0.750000 0.070345 0.375000
O O8 0.670919 0.977541 0.479762
O O9 0.500000 0.500000 0.301020
#
# Coordination Sequence:
#
# PCOD9561043 Si02
#       4
#    16  16  16  16
#     4  10  22  39  64  93 131 157 208 261 320 374
#     4  10  21  43  62  93 129 165 202 263 321 366
#     4  10  22  43  62  85 133 164 200 263 318 366
#     4  12  22  39  68  89 126 173 209 262 313 375
#
# _framework density 20.86891
#
# number of rings (size 3 to 8) (size 9 to 14) (size 15 to 20)
#    1.500    0.000    5.000    0.750    3.500    1.000 
#    9.000    0.000    0.000    0.000    0.000    0.000 
#    0.000    0.000    0.000    0.000    0.000    0.000 
#
# Total GULP energy -178292.663748 kJ/mol
# GULP energy per Si atom -5571.645742 kJ/mol
# Density = 2.082141 g / cm^3
# Si number density = 20.868910 Si / 1000 Ang^3
#
#
#
# Elastic Constant Matrix: (Units=GPa)
#
#
# Indices 1 2 3 4 5 6 
#
# 1 44.8220 10.6975 21.1033 0.0000 0.0000 0.0000
# 2 10.6975 44.8220 21.1033 0.0000 0.0000 0.0000
# 3 21.1033 21.1033 128.7189 0.0000 0.0000 0.0000
# 4 0.0000 0.0000 0.0000 12.3718 0.0000 0.0000
# 5 0.0000 0.0000 0.0000 0.0000 12.3718 0.0000
# 6 0.0000 0.0000 0.0000 0.0000 0.0000 19.1136
#
#
#
# Elastic Compliance Matrix: (Units=1/GPa)
#
#
# Indices 1 2 3 4 5 6 
#
# 1 0.024940 -0.004364 -0.003373 0.000000 0.000000 0.000000
# 2 -0.004364 0.024940 -0.003373 0.000000 0.000000 0.000000
# 3 -0.003373 -0.003373 0.008875 0.000000 0.000000 0.000000
# 4 0.000000 0.000000 0.000000 0.080829 0.000000 0.000000
# 5 0.000000 0.000000 0.000000 0.000000 0.080829 0.000000
# 6 0.000000 0.000000 0.000000 0.000000 0.000000 0.052319
#
#
# Mechanical properties :
#
#
# Convention : Reuss Voigt Hill
#
# Bulk Modulus (GPa) = 27.37200 36.01901 31.69550
# Shear Modulus (GPa) = 16.27965 19.80204 18.04085
#
# Velocity S-wave (km/s) = 2.79604 3.08373 2.94340
# Velocity P-wave (km/s) = 4.85473 5.47506 5.17420
#
# Compressibility (1/GPa) = 0.03653369
#
# Stress axis : x y z
#
# Youngs Moduli (GPa) = 40.09569 40.09569 112.67587
#
# Poissons Ratio (x) = 0.17498 0.38011
# Poissons Ratio (y) = 0.17498 0.38011
# Poissons Ratio (z) = 0.13526 0.13526
#
# Static dielectric constant tensor:
#      x y z
#    x 1.806380 0.000000 0.000000 
#    y 0.000000 1.806380 0.000000 
#    z 0.000000 0.000000 1.723050 
# 
# From -- ./inp_files/7855.got.cif
#   From: 2010.05.17/outbox.cif.g08.bks.cpg/sg122_4_cif.got.tgz:7855.got - 2010.05.20 11:37:33.
