data_PCOD9561275
_publ_section_title
;
Structure prediction by ZEFSAII (Michael W. Deem and Ramdas Pophale) SiO2 
 PCOD9561275
Probable space group: I -4 2 D
;
_chemical_formula_sum "Si O2"
_cell_formula_units_Z 64
_cell_length_a 11.048959
_cell_length_b 11.048959
_cell_length_c 22.007924
_cell_angle_alpha 90.000000
_cell_angle_beta 90.000000
_cell_angle_gamma 90.000000
_cell_volume 2686.716248
_symmetry_space_group_name_H-M "I -4 2 D"
_symmetry_group_IT_number 122
_symmetry_cell_setting 'tetragonal'
loop_
_space_group_symop_operation_xyz
x,y,z
y,-x,-z
-x,-y,z
-y,x,-z
x,1/2-y,1/4-z
-x,1/2+y,1/4-z
-y,1/2-x,1/4+z
y,1/2+x,1/4+z
1/2+x,1/2+y,1/2+z
1/2+y,1/2-x,1/2-z
1/2-x,1/2-y,1/2+z
1/2-y,1/2+x,1/2-z
1/2+x,-y,3/4-z
1/2-x,y,3/4-z
1/2-y,-x,3/4+z
1/2+y,x,3/4+z
loop_
_atom_site_type_symbol
_atom_site_label
_atom_site_fract_x
_atom_site_fract_y
_atom_site_fract_z
Si Si1 0.389431 0.761962 0.494221
Si Si2 0.279669 0.017615 0.621445
Si Si3 0.750000 0.827349 0.875000
Si Si4 0.000000 0.000000 0.779464
Si Si5 0.130540 0.629610 0.776674
O O1 0.436987 0.684887 0.438219
O O2 0.406319 0.727508 0.564490
O O3 0.247242 0.790232 0.488269
O O4 0.461290 0.887670 0.489133
O O5 0.254095 0.874180 0.619340
O O6 0.389052 0.033597 0.573837
O O7 0.166453 0.090839 0.594485
O O8 0.157590 0.488581 0.764212
#
# Coordination Sequence:
#
# PCOD9561275 Si02
#       5
#    16  16   8   8  16
#     4  11  25  47  74 104 149 195 238 309 367 428
#     4  11  25  47  75 106 151 199 237 308 369 435
#     4  10  24  46  66 116 140 190 256 288 356 458
#     4  10  24  48  69 114 143 188 258 288 360 458
#     4  11  23  46  72 109 143 180 246 301 362 447
#
# _framework density 23.820900000000002
#
# number of rings (size 3 to 8) (size 9 to 14) (size 15 to 20)
#    0.000    1.250    5.000    0.750    3.500    6.000 
#   13.500    1.250    0.000    0.000    0.000    0.000 
#    0.000    0.000    0.000    0.000    0.000    0.000 
#
# Total GULP energy -178860.946361 kJ/mol
# GULP energy per Si atom -5589.404574 kJ/mol
# Density = 2.376668 g / cm^3
# Si number density = 23.820900 Si / 1000 Ang^3
#
#
#
# Elastic Constant Matrix: (Units=GPa)
#
#
# Indices 1 2 3 4 5 6 
#
# 1 66.7905 19.1408 21.2916 0.0000 0.0000 0.0000
# 2 19.1408 66.7905 21.2916 0.0000 0.0000 0.0000
# 3 21.2916 21.2916 130.1926 0.0000 0.0000 0.0000
# 4 0.0000 0.0000 0.0000 25.5322 0.0000 0.0000
# 5 0.0000 0.0000 0.0000 0.0000 25.5322 0.0000
# 6 0.0000 0.0000 0.0000 0.0000 0.0000 24.3425
#
#
#
# Elastic Compliance Matrix: (Units=1/GPa)
#
#
# Indices 1 2 3 4 5 6 
#
# 1 0.016825 -0.004162 -0.002071 0.000000 0.000000 0.000000
# 2 -0.004162 0.016825 -0.002071 0.000000 0.000000 0.000000
# 3 -0.002071 -0.002071 0.008358 0.000000 0.000000 0.000000
# 4 0.000000 0.000000 0.000000 0.039166 0.000000 0.000000
# 5 0.000000 0.000000 0.000000 0.000000 0.039166 0.000000
# 6 0.000000 0.000000 0.000000 0.000000 0.000000 0.041080
#
#
# Mechanical properties :
#
#
# Convention : Reuss Voigt Hill
#
# Bulk Modulus (GPa) = 39.36799 43.02462 41.19630
# Shear Modulus (GPa) = 26.81033 28.55134 27.68084
#
# Velocity S-wave (km/s) = 3.35848 3.46581 3.41257
# Velocity P-wave (km/s) = 5.62154 5.84095 5.73230
#
# Compressibility (1/GPa) = 0.02540135
#
# Stress axis : x y z
#
# Youngs Moduli (GPa) = 59.43538 59.43538 119.64159
#
# Poissons Ratio (x) = 0.24734 0.24777
# Poissons Ratio (y) = 0.24734 0.24777
# Poissons Ratio (z) = 0.12309 0.12309
#
# Static dielectric constant tensor:
#      x y z
#    x 1.923350 0.000000 0.000000 
#    y 0.000000 1.923350 0.000000 
#    z 0.000000 0.000000 1.957940 
# 
# From -- ./inp_files/7873.got.cif
#   From: 2010.05.17/outbox.cif.g08.bks.cpg/sg122_4_cif.got.tgz:7873.got - 2010.05.20 11:37:33.
