data_PCOD9561647
_publ_section_title
;
Structure prediction by ZEFSAII (Michael W. Deem and Ramdas Pophale) SiO2 
 PCOD9561647
Probable space group: P 4/M M M
;
_chemical_formula_sum "Si O2"
_cell_formula_units_Z 96
_cell_length_a 25.094304
_cell_length_b 25.094304
_cell_length_c 7.603646
_cell_angle_alpha 90.000000
_cell_angle_beta 90.000000
_cell_angle_gamma 90.000000
_cell_volume 4788.199083
_symmetry_space_group_name_H-M "P 4/M M M"
_symmetry_group_IT_number 123
_symmetry_cell_setting 'tetragonal'
loop_
_space_group_symop_operation_xyz
x,y,z
-y,x,z
-x,-y,z
y,-x,z
x,-y,-z
-x,y,-z
y,x,-z
-y,-x,-z
-x,-y,-z
y,-x,-z
x,y,-z
-y,x,-z
-x,y,z
x,-y,z
-y,-x,z
y,x,z
loop_
_atom_site_type_symbol
_atom_site_label
_atom_site_fract_x
_atom_site_fract_y
_atom_site_fract_z
Si Si1 0.144084 0.059343 0.285310
Si Si2 0.059308 0.438662 0.285388
Si Si3 0.268175 0.646813 0.791418
Si Si4 0.856852 0.647093 0.288776
Si Si5 0.560474 0.353940 0.290366
Si Si6 0.059831 0.733784 0.285261
O O1 0.144003 0.060522 0.500000
O O2 0.104569 0.104569 0.222075
O O3 0.205111 0.067140 0.230885
O O4 0.127047 0.000000 0.232906
O O5 0.059432 0.437671 0.500000
O O6 0.064372 0.500000 0.231492
O O7 0.108947 0.403587 0.224882
O O8 0.000000 0.419335 0.232473
O O9 0.303027 0.696973 0.719903
O O10 0.205675 0.647831 0.750080
O O11 0.299267 0.593275 0.735474
O O12 0.272113 0.648707 0.000000
O O13 0.860411 0.646974 0.500000
O O14 0.891583 0.697339 0.224861
O O15 0.556794 0.361712 0.500000
O O16 0.500000 0.353058 0.220744
O O17 0.598351 0.401650 0.220061
O O18 0.059729 0.732614 0.500000
O O19 0.000000 0.716362 0.231919
#
# Coordination Sequence:
#
# PCOD9561647 Si02
#       6
#    16  16  16  16  16  16
#     4   8  13  20  29  44  70 103 137 174 219 273
#     4   8  14  25  42  67  98 125 148 181 228 280
#     4  10  22  38  51  66  96 136 171 203 242 286
#     4  10  18  28  48  73  91 115 158 205 242 281
#     4   9  18  34  57  83 108 132 159 194 235 278
#     4   8  14  24  38  59  87 115 145 189 243 290
#
# _framework density 20.049291
#
# number of rings (size 3 to 8) (size 9 to 14) (size 15 to 20)
#    0.000    3.167    0.000    2.500    0.000    5.000 
#    0.000    5.000    0.000    2.000    0.000    3.500 
#    0.000    0.000    0.000    0.000    0.000    0.000 
#
# Total GULP energy -535126.259428 kJ/mol
# GULP energy per Si atom -5574.231869 kJ/mol
# Density = 2.000366 g / cm^3
# Si number density = 20.049291 Si / 1000 Ang^3
#
#
#
# Elastic Constant Matrix: (Units=GPa)
#
#
# Indices 1 2 3 4 5 6 
#
# 1 179.3391 126.3187 5.3382 0.0000 0.0000 0.0000
# 2 126.3187 179.3391 5.3382 0.0000 0.0000 0.0000
# 3 5.3382 5.3382 41.7981 0.0000 0.0000 0.0000
# 4 0.0000 0.0000 0.0000 -18.8985 0.0000 0.0000
# 5 0.0000 0.0000 0.0000 0.0000 -18.8985 0.0000
# 6 0.0000 0.0000 0.0000 0.0000 0.0000 44.7998
#
#
#
# Elastic Compliance Matrix: (Units=1/GPa)
#
#
# Indices 1 2 3 4 5 6 
#
# 1 0.011073 -0.007787 -0.000420 0.000000 0.000000 0.000000
# 2 -0.007787 0.011073 -0.000420 0.000000 0.000000 0.000000
# 3 -0.000420 -0.000420 0.024032 0.000000 0.000000 0.000000
# 4 0.000000 0.000000 0.000000 -0.052914 0.000000 0.000000
# 5 0.000000 0.000000 0.000000 0.000000 -0.052914 0.000000
# 6 0.000000 0.000000 0.000000 0.000000 0.000000 0.022322
#
#
# Mechanical properties :
#
#
# Convention : Reuss Voigt Hill
#
# Bulk Modulus (GPa) = 34.57158 74.94072 54.75615
# Shear Modulus (GPa) = -479.24386 18.96597 -230.13895
#
# Velocity S-wave (km/s) = -15.47746 3.07899 -10.72547
# Velocity P-wave (km/s) = 17.38165 7.07811 11.22546
#
# Compressibility (1/GPa) = 0.02892550
#
# Stress axis : x y z
#
# Youngs Moduli (GPa) = 90.30587 90.30587 41.61164
#
# Poissons Ratio (x) = 0.70323 0.01746
# Poissons Ratio (y) = 0.70323 0.01746
# Poissons Ratio (z) = 0.03790 0.03790
#
# Static dielectric constant tensor:
#      x y z
#    x 1.710180 0.000000 0.000000 
#    y 0.000000 1.710180 0.000000 
#    z 0.000000 0.000000 1.748140 
# 
# From -- ./inp_files/1558.got.cif
#   From: 2010.05.17/outbox.cif.g08.bks.cpg/sg123_1_cif.got.tgz:1558.got - 2010.05.20 11:43:04.
