data_PCOD9561474
_publ_section_title
;
Structure prediction by ZEFSAII (Michael W. Deem and Ramdas Pophale) SiO2 
 PCOD9561474
Probable space group: I -4 2 D
;
_chemical_formula_sum "Si O2"
_cell_formula_units_Z 64
_cell_length_a 25.016275
_cell_length_b 25.016275
_cell_length_c 5.088323
_cell_angle_alpha 90.000000
_cell_angle_beta 90.000000
_cell_angle_gamma 90.000000
_cell_volume 3184.343846
_symmetry_space_group_name_H-M "I -4 2 D"
_symmetry_group_IT_number 122
_symmetry_cell_setting 'tetragonal'
loop_
_space_group_symop_operation_xyz
x,y,z
y,-x,-z
-x,-y,z
-y,x,-z
x,1/2-y,1/4-z
-x,1/2+y,1/4-z
-y,1/2-x,1/4+z
y,1/2+x,1/4+z
1/2+x,1/2+y,1/2+z
1/2+y,1/2-x,1/2-z
1/2-x,1/2-y,1/2+z
1/2-y,1/2+x,1/2-z
1/2+x,-y,3/4-z
1/2-x,y,3/4-z
1/2-y,-x,3/4+z
1/2+y,x,3/4+z
loop_
_atom_site_type_symbol
_atom_site_label
_atom_site_fract_x
_atom_site_fract_y
_atom_site_fract_z
Si Si1 0.177748 0.250000 0.625000
Si Si2 0.807580 0.038134 0.220989
Si Si3 0.693070 0.914758 0.531212
Si Si4 0.250000 0.162058 0.875000
Si Si5 0.104489 0.330794 0.934399
O O1 0.217926 0.202375 0.692737
O O2 0.140108 0.220952 0.408463
O O3 0.750000 0.038319 0.375000
O O4 0.842263 0.061145 0.458301
O O5 0.817619 0.976289 0.156220
O O6 0.816856 0.074745 0.960945
O O7 0.750000 0.911695 0.375000
O O8 0.704977 0.877968 0.779437
O O9 0.643268 0.882102 0.419469
#
# Coordination Sequence:
#
# PCOD9561474 Si02
#       5
#     8  16  16   8  16
#     4  12  24  38  66 102 146 182 218 260 338 408
#     4  11  27  42  69  94 135 174 228 276 330 395
#     4  11  26  44  65  97 134 183 221 273 338 406
#     4  12  24  40  62  96 152 182 220 258 324 426
#     4  12  25  44  67  98 136 175 223 279 332 397
#
# _framework density 20.098330000000001
#
# number of rings (size 3 to 8) (size 9 to 14) (size 15 to 20)
#    0.000    0.500    3.750    3.750   10.500    0.000 
#    0.000    0.000    0.000    4.500    0.000    0.000 
#    0.000    0.000    0.000    0.000    0.000    0.000 
#
# Total GULP energy -178228.348195 kJ/mol
# GULP energy per Si atom -5569.635881 kJ/mol
# Density = 2.005259 g / cm^3
# Si number density = 20.098330 Si / 1000 Ang^3
#
#
#
# Elastic Constant Matrix: (Units=GPa)
#
#
# Indices 1 2 3 4 5 6 
#
# 1 149.2605 55.2731 46.8997 0.0000 0.0000 0.0000
# 2 55.2731 149.2605 46.8997 0.0000 0.0000 0.0000
# 3 46.8997 46.8997 108.7522 0.0000 0.0000 0.0000
# 4 0.0000 0.0000 0.0000 113.9255 0.0000 0.0000
# 5 0.0000 0.0000 0.0000 0.0000 113.9255 0.0000
# 6 0.0000 0.0000 0.0000 0.0000 0.0000 13.6870
#
#
#
# Elastic Compliance Matrix: (Units=1/GPa)
#
#
# Indices 1 2 3 4 5 6 
#
# 1 0.008367 -0.002273 -0.002628 0.000000 0.000000 0.000000
# 2 -0.002273 0.008367 -0.002628 0.000000 0.000000 0.000000
# 3 -0.002628 -0.002628 0.011462 0.000000 0.000000 0.000000
# 4 0.000000 0.000000 0.000000 0.008778 0.000000 0.000000
# 5 0.000000 0.000000 0.000000 0.000000 0.008778 0.000000
# 6 0.000000 0.000000 0.000000 0.000000 0.000000 0.073062
#
#
# Mechanical properties :
#
#
# Convention : Reuss Voigt Hill
#
# Bulk Modulus (GPa) = 76.11489 78.37979 77.24734
# Shear Modulus (GPa) = 36.16602 65.52097 50.84350
#
# Velocity S-wave (km/s) = 4.24660 5.71585 5.03511
# Velocity P-wave (km/s) = 7.87390 9.09088 8.50419
#
# Compressibility (1/GPa) = 0.01313803
#
# Stress axis : x y z
#
# Youngs Moduli (GPa) = 119.51562 119.51562 87.24398
#
# Poissons Ratio (x) = 0.27161 0.22930
# Poissons Ratio (y) = 0.27161 0.22930
# Poissons Ratio (z) = 0.31412 0.31412
#
# Static dielectric constant tensor:
#      x y z
#    x 1.384880 0.000000 0.000000 
#    y 0.000000 1.384880 0.000000 
#    z 0.000000 0.000000 1.833660 
# 
# From -- ./inp_files/1164.got.cif
#   From: 2010.05.17/outbox.cif.g08.bks.cpg/sg122_1_cif.got.tgz:1164.got - 2010.05.20 11:37:33.
