data_PCOD9561114
_publ_section_title
;
Structure prediction by ZEFSAII (Michael W. Deem and Ramdas Pophale) SiO2 
 PCOD9561114
Probable space group: I -4 2 D
;
_chemical_formula_sum "Si O2"
_cell_formula_units_Z 80
_cell_length_a 10.387799
_cell_length_b 10.387799
_cell_length_c 30.533834
_cell_angle_alpha 90.000000
_cell_angle_beta 90.000000
_cell_angle_gamma 90.000000
_cell_volume 3294.795130
_symmetry_space_group_name_H-M "I -4 2 D"
_symmetry_group_IT_number 122
_symmetry_cell_setting 'tetragonal'
loop_
_space_group_symop_operation_xyz
x,y,z
y,-x,-z
-x,-y,z
-y,x,-z
x,1/2-y,1/4-z
-x,1/2+y,1/4-z
-y,1/2-x,1/4+z
y,1/2+x,1/4+z
1/2+x,1/2+y,1/2+z
1/2+y,1/2-x,1/2-z
1/2-x,1/2-y,1/2+z
1/2-y,1/2+x,1/2-z
1/2+x,-y,3/4-z
1/2-x,y,3/4-z
1/2-y,-x,3/4+z
1/2+y,x,3/4+z
loop_
_atom_site_type_symbol
_atom_site_label
_atom_site_fract_x
_atom_site_fract_y
_atom_site_fract_z
Si Si1 0.000000 0.500000 0.905725
Si Si2 0.417854 0.881181 0.944935
Si Si3 0.953777 0.314206 0.975026
Si Si4 0.576318 0.872742 0.319792
Si Si5 0.193204 0.305082 0.303134
Si Si6 0.526350 0.750000 0.625000
O O1 0.911141 0.418547 0.939178
O O2 0.064090 0.400219 0.871895
O O3 0.497287 0.751293 0.946996
O O4 0.500000 0.000000 0.924742
O O5 0.310285 0.870494 0.908870
O O6 0.374480 0.940866 0.990935
O O7 0.041296 0.213650 0.949716
O O8 0.851215 0.248890 0.006133
O O9 0.722382 0.823714 0.312337
O O10 0.500000 0.000000 0.301835
O O11 0.210243 0.419336 0.338126
#
# Coordination Sequence:
#
# PCOD9561114 Si02
#       6
#     8  16  16  16  16   8
#     4  10  22  40  70  99 138 198 236 315 362 452
#     4  11  21  46  69  98 142 197 235 306 383 449
#     4  11  23  43  72  99 152 189 243 307 374 439
#     4  10  23  45  68 103 146 187 250 305 384 446
#     4  11  23  46  68 109 144 196 245 313 368 448
#     4  10  22  40  74  96 140 194 250 298 372 462
#
# _framework density 24.280719000000001
#
# number of rings (size 3 to 8) (size 9 to 14) (size 15 to 20)
#    0.600    0.800    5.000    1.200    0.000    3.600 
#   10.800    0.000    0.000    0.000    0.000    0.000 
#    0.000    0.000    0.000    0.000    0.000    0.000 
#
# Total GULP energy -222686.903693 kJ/mol
# GULP energy per Si atom -5567.172592 kJ/mol
# Density = 2.422546 g / cm^3
# Si number density = 24.280719 Si / 1000 Ang^3
#
#
#
# Elastic Constant Matrix: (Units=GPa)
#
#
# Indices 1 2 3 4 5 6 
#
# 1 66.4522 20.0728 -3.6494 0.0000 0.0000 0.0000
# 2 20.0728 66.4522 -3.6494 0.0000 0.0000 0.0000
# 3 -3.6494 -3.6494 65.8822 0.0000 0.0000 0.0000
# 4 0.0000 0.0000 0.0000 38.7689 0.0000 0.0000
# 5 0.0000 0.0000 0.0000 0.0000 38.7689 0.0000
# 6 0.0000 0.0000 0.0000 0.0000 0.0000 26.4238
#
#
#
# Elastic Compliance Matrix: (Units=1/GPa)
#
#
# Indices 1 2 3 4 5 6 
#
# 1 0.016586 -0.004975 0.000643 0.000000 0.000000 0.000000
# 2 -0.004975 0.016586 0.000643 0.000000 0.000000 0.000000
# 3 0.000643 0.000643 0.015250 0.000000 0.000000 0.000000
# 4 0.000000 0.000000 0.000000 0.025794 0.000000 0.000000
# 5 0.000000 0.000000 0.000000 0.000000 0.025794 0.000000
# 6 0.000000 0.000000 0.000000 0.000000 0.000000 0.037845
#
#
# Mechanical properties :
#
#
# Convention : Reuss Voigt Hill
#
# Bulk Modulus (GPa) = 24.36295 24.92604 24.64450
# Shear Modulus (GPa) = 31.46352 33.19313 32.32833
#
# Velocity S-wave (km/s) = 3.60366 3.70138 3.65285
# Velocity P-wave (km/s) = 5.23171 5.34369 5.28800
#
# Compressibility (1/GPa) = 0.04104593
#
# Stress axis : x y z
#
# Youngs Moduli (GPa) = 60.29012 60.29012 65.57431
#
# Poissons Ratio (x) = 0.29993 -0.04218
# Poissons Ratio (y) = 0.29993 -0.04218
# Poissons Ratio (z) = -0.03878 -0.03878
#
# Static dielectric constant tensor:
#      x y z
#    x 2.085640 0.000000 0.000000 
#    y 0.000000 2.085640 0.000000 
#    z 0.000000 0.000000 1.928650 
# 
# From -- ./inp_files/9412.got.cif
#   From: 2010.05.17/outbox.cif.g08.bks.cpg/sg122_5_cif.got.tgz:9412.got - 2010.05.20 11:37:33.
