data_PCOD9561721
_publ_section_title
;
Structure prediction by ZEFSAII (Michael W. Deem and Ramdas Pophale) SiO2 
 PCOD9561721
Probable space group: P 4/M M M
;
_chemical_formula_sum "Si O2"
_cell_formula_units_Z 112
_cell_length_a 14.451266
_cell_length_b 14.451266
_cell_length_c 32.132180
_cell_angle_alpha 90.000000
_cell_angle_beta 90.000000
_cell_angle_gamma 90.000000
_cell_volume 6710.455199
_symmetry_space_group_name_H-M "P 4/M M M"
_symmetry_group_IT_number 123
_symmetry_cell_setting 'tetragonal'
loop_
_space_group_symop_operation_xyz
x,y,z
-y,x,z
-x,-y,z
y,-x,z
x,-y,-z
-x,y,-z
y,x,-z
-y,-x,-z
-x,-y,-z
y,-x,-z
x,y,-z
-y,x,-z
-x,y,z
x,-y,z
-y,-x,z
y,x,z
loop_
_atom_site_type_symbol
_atom_site_label
_atom_site_fract_x
_atom_site_fract_y
_atom_site_fract_z
Si Si1 0.109653 0.264480 0.782059
Si Si2 0.250410 0.102862 0.049800
Si Si3 0.606724 0.107210 0.298259
Si Si4 0.396040 0.246912 0.929678
Si Si5 0.609649 0.761804 0.622316
Si Si6 0.612442 0.105801 0.547209
Si Si7 0.606174 0.245303 0.170601
O O1 0.170793 0.170793 0.782008
O O2 0.121074 0.319663 0.738432
O O3 0.156879 0.334233 0.815205
O O4 0.000000 0.250009 0.789091
O O5 0.171297 0.171297 0.066854
O O6 0.347802 0.151625 0.057689
O O7 0.244342 0.000000 0.067088
O O8 0.238101 0.098088 0.000000
O O9 0.500000 0.120326 0.283381
O O10 0.622296 0.175508 0.336630
O O11 0.613343 0.000000 0.312257
O O12 0.500000 0.256053 0.944977
O O13 0.329244 0.329244 0.944617
O O14 0.396761 0.249320 0.879463
O O15 0.500000 0.742555 0.618324
O O16 0.670022 0.670022 0.625198
O O17 0.640661 0.822384 0.582474
O O18 0.640990 0.129717 0.500000
O O19 0.500000 0.104919 0.547653
O O20 0.641921 0.000000 0.556097
O O21 0.500000 0.243628 0.185601
O O22 0.664739 0.335262 0.185159
#
# Coordination Sequence:
#
# PCOD9561721 Si02
#       7
#    16  16  16  16  16  16  16
#     4  10  20  33  49  69  94 123 154 189 228 272
#     4   9  18  32  49  69  93 121 154 193 235 277
#     4   9  17  30  49  70  88 109 143 188 235 275
#     4   9  18  32  49  70  96 124 154 189 228 271
#     4  10  19  29  42  61  88 121 151 178 210 253
#     4   8  14  26  44  63  81 103 136 181 227 260
#     4   9  18  32  50  72  96 122 153 189 229 272
#
# _framework density 16.690372
#
# number of rings (size 3 to 8) (size 9 to 14) (size 15 to 20)
#    0.000    2.857    0.000    1.714    0.000    4.714 
#    0.000    4.286    0.000    0.000    0.000   10.000 
#    0.000    2.571    0.000    6.286    0.000    0.571 
#
# Total GULP energy -623925.946134 kJ/mol
# GULP energy per Si atom -5570.767376 kJ/mol
# Density = 1.665238 g / cm^3
# Si number density = 16.690372 Si / 1000 Ang^3
#
#
#
# Elastic Constant Matrix: (Units=GPa)
#
#
# Indices 1 2 3 4 5 6 
#
# 1 100.9808 49.4497 13.6412 0.0000 0.0000 0.0000
# 2 49.4497 100.9808 13.6412 0.0000 0.0000 0.0000
# 3 13.6412 13.6412 18.6507 0.0000 0.0000 0.0000
# 4 0.0000 0.0000 0.0000 17.3526 0.0000 0.0000
# 5 0.0000 0.0000 0.0000 0.0000 17.3526 0.0000
# 6 0.0000 0.0000 0.0000 0.0000 0.0000 14.2797
#
#
#
# Elastic Compliance Matrix: (Units=1/GPa)
#
#
# Indices 1 2 3 4 5 6 
#
# 1 0.013535 -0.005871 -0.005606 0.000000 0.000000 0.000000
# 2 -0.005871 0.013535 -0.005606 0.000000 0.000000 0.000000
# 3 -0.005606 -0.005606 0.061817 0.000000 0.000000 0.000000
# 4 0.000000 0.000000 0.000000 0.057628 0.000000 0.000000
# 5 0.000000 0.000000 0.000000 0.000000 0.057628 0.000000
# 6 0.000000 0.000000 0.000000 0.000000 0.000000 0.070030
#
#
# Mechanical properties :
#
#
# Convention : Reuss Voigt Hill
#
# Bulk Modulus (GPa) = 18.27378 41.56407 29.91892
# Shear Modulus (GPa) = 15.31025 19.38899 17.34962
#
# Velocity S-wave (km/s) = 3.03200 3.41205 3.22762
# Velocity P-wave (km/s) = 4.81973 6.36238 5.64401
#
# Compressibility (1/GPa) = 0.05472322
#
# Stress axis : x y z
#
# Youngs Moduli (GPa) = 73.88254 73.88254 16.17667
#
# Poissons Ratio (x) = 0.43375 0.09068
# Poissons Ratio (y) = 0.43375 0.09068
# Poissons Ratio (z) = 0.41416 0.41416
#
# Static dielectric constant tensor:
#      x y z
#    x 1.554530 0.000000 0.000000 
#    y 0.000000 1.554530 0.000000 
#    z 0.000000 0.000000 1.578970 
# 
# From -- ./inp_files/8762.got.cif
#   From: 2010.05.17/outbox.cif.g08.bks.cpg/sg123_5_cif.got.tgz:8762.got - 2010.05.20 11:43:04.
