data_PCOD9561015
_publ_section_title
;
Structure prediction by ZEFSAII (Michael W. Deem and Ramdas Pophale) SiO2 
 PCOD9561015
Probable space group: I -4 2 D
;
_chemical_formula_sum "Si O2"
_cell_formula_units_Z 64
_cell_length_a 16.571867
_cell_length_b 16.571867
_cell_length_c 10.156983
_cell_angle_alpha 90.000000
_cell_angle_beta 90.000000
_cell_angle_gamma 90.000000
_cell_volume 2789.379494
_symmetry_space_group_name_H-M "I -4 2 D"
_symmetry_group_IT_number 122
_symmetry_cell_setting 'tetragonal'
loop_
_space_group_symop_operation_xyz
x,y,z
y,-x,-z
-x,-y,z
-y,x,-z
x,1/2-y,1/4-z
-x,1/2+y,1/4-z
-y,1/2-x,1/4+z
y,1/2+x,1/4+z
1/2+x,1/2+y,1/2+z
1/2+y,1/2-x,1/2-z
1/2-x,1/2-y,1/2+z
1/2-y,1/2+x,1/2-z
1/2+x,-y,3/4-z
1/2-x,y,3/4-z
1/2-y,-x,3/4+z
1/2+y,x,3/4+z
loop_
_atom_site_type_symbol
_atom_site_label
_atom_site_fract_x
_atom_site_fract_y
_atom_site_fract_z
Si Si1 0.992793 0.614340 0.327231
Si Si2 0.161083 0.813759 0.436481
Si Si3 0.787613 0.524647 0.499832
Si Si4 0.119157 0.631081 0.522997
O O1 0.061900 0.582173 0.223213
O O2 0.985813 0.709596 0.318978
O O3 0.028560 0.608219 0.475328
O O4 0.250000 0.827645 0.375000
O O5 0.089143 0.834235 0.336151
O O6 0.147450 0.716971 0.461823
O O7 0.141063 0.858828 0.573471
O O8 0.750000 0.569579 0.375000
O O9 0.835527 0.445259 0.463043
#
# Coordination Sequence:
#
# PCOD9561015 Si02
#       4
#    16  16  16  16
#     4  10  21  39  64  96 129 171 222 276 336 399
#     4  10  24  42  68 100 136 182 226 279 354 412
#     4  11  22  40  69  96 127 181 226 278 341 403
#     4  10  22  45  65  98 141 174 224 294 337 410
#
# _framework density 22.944171000000001
#
# number of rings (size 3 to 8) (size 9 to 14) (size 15 to 20)
#    0.000    1.750    2.500    0.750    7.000    0.000 
#   13.500    0.000    0.000    0.000    0.000    0.000 
#    0.000    0.000    0.000    0.000    0.000    0.000 
#
# Total GULP energy -178249.855301 kJ/mol
# GULP energy per Si atom -5570.307978 kJ/mol
# Density = 2.289195 g / cm^3
# Si number density = 22.944171 Si / 1000 Ang^3
#
#
#
# Elastic Constant Matrix: (Units=GPa)
#
#
# Indices 1 2 3 4 5 6 
#
# 1 81.0082 12.2025 19.4843 0.0000 0.0000 0.0000
# 2 12.2025 81.0082 19.4843 0.0000 0.0000 0.0000
# 3 19.4843 19.4843 117.1520 0.0000 0.0000 0.0000
# 4 0.0000 0.0000 0.0000 28.5853 0.0000 0.0000
# 5 0.0000 0.0000 0.0000 0.0000 28.5853 0.0000
# 6 0.0000 0.0000 0.0000 0.0000 0.0000 8.9645
#
#
#
# Elastic Compliance Matrix: (Units=1/GPa)
#
#
# Indices 1 2 3 4 5 6 
#
# 1 0.013032 -0.001502 -0.001918 0.000000 0.000000 0.000000
# 2 -0.001502 0.013032 -0.001918 0.000000 0.000000 0.000000
# 3 -0.001918 -0.001918 0.009174 0.000000 0.000000 0.000000
# 4 0.000000 0.000000 0.000000 0.034983 0.000000 0.000000
# 5 0.000000 0.000000 0.000000 0.000000 0.034983 0.000000
# 6 0.000000 0.000000 0.000000 0.000000 0.000000 0.111551
#
#
# Mechanical properties :
#
#
# Convention : Reuss Voigt Hill
#
# Bulk Modulus (GPa) = 40.71098 42.39007 41.55053
# Shear Modulus (GPa) = 21.22090 28.42683 24.82386
#
# Velocity S-wave (km/s) = 3.04450 3.52370 3.29283
# Velocity P-wave (km/s) = 5.49005 5.92205 5.71014
#
# Compressibility (1/GPa) = 0.02456340
#
# Stress axis : x y z
#
# Youngs Moduli (GPa) = 76.73487 76.73487 109.00621
#
# Poissons Ratio (x) = 0.11524 0.20904
# Poissons Ratio (y) = 0.11524 0.20904
# Poissons Ratio (z) = 0.14715 0.14715
#
# Static dielectric constant tensor:
#      x y z
#    x 1.832000 0.000000 0.000000 
#    y 0.000000 1.832000 0.000000 
#    z 0.000000 0.000000 1.947120 
# 
# From -- ./inp_files/4087.got.cif
#   From: 2010.05.17/outbox.cif.g08.bks.cpg/sg122_3_cif.got.tgz:4087.got - 2010.05.20 11:37:33.
