data_PCOD9561860
_publ_section_title
;
Structure prediction by ZEFSAII (Michael W. Deem and Ramdas Pophale) SiO2 
 PCOD9561860
Probable space group: P 4/M M M
;
_chemical_formula_sum "Si O2"
_cell_formula_units_Z 80
_cell_length_a 13.010713
_cell_length_b 13.010713
_cell_length_c 29.089068
_cell_angle_alpha 90.000000
_cell_angle_beta 90.000000
_cell_angle_gamma 90.000000
_cell_volume 4924.158241
_symmetry_space_group_name_H-M "P 4/M M M"
_symmetry_group_IT_number 123
_symmetry_cell_setting 'tetragonal'
loop_
_space_group_symop_operation_xyz
x,y,z
-y,x,z
-x,-y,z
y,-x,z
x,-y,-z
-x,y,-z
y,x,-z
-y,-x,-z
-x,-y,-z
y,-x,-z
x,y,-z
-y,x,-z
-x,y,z
x,-y,z
-y,-x,z
y,x,z
loop_
_atom_site_type_symbol
_atom_site_label
_atom_site_fract_x
_atom_site_fract_y
_atom_site_fract_z
Si Si1 0.124337 0.384581 0.265299
Si Si2 0.209025 0.618558 0.551115
Si Si3 0.880823 0.500000 0.889202
Si Si4 0.713637 0.119081 0.361045
Si Si5 0.330703 0.500000 0.055386
Si Si6 0.287718 0.879436 0.831594
O O1 0.163887 0.500000 0.258014
O O2 0.157440 0.342114 0.314687
O O3 0.146483 0.314807 0.221377
O O4 0.000000 0.390517 0.266942
O O5 0.163227 0.636112 0.500000
O O6 0.239365 0.500000 0.553854
O O7 0.307277 0.692724 0.554990
O O8 0.136383 0.645553 0.593648
O O9 0.783396 0.500000 0.923483
O O10 0.871244 0.604290 0.859013
O O11 0.000000 0.500000 0.907561
O O12 0.816296 0.183705 0.367465
O O13 0.736184 0.000000 0.355004
O O14 0.399957 0.399957 0.068594
O O15 0.323818 0.500000 0.000000
O O16 0.199446 0.800555 0.847675
O O17 0.255826 0.000000 0.834281
#
# Coordination Sequence:
#
# PCOD9561860 Si02
#       6
#    16  16   8  16   8  16
#     4   9  16  29  47  67  91 119 156 195 233 282
#     4   9  18  32  49  70  93 114 141 180 227 281
#     4  10  19  32  50  74 103 136 174 212 252 300
#     4  10  20  32  47  67  90 120 155 191 233 278
#     4   9  18  33  53  77 105 136 171 214 262 306
#     4  10  19  31  48  71  99 132 169 209 251 295
#
# _framework density 16.246431000000001
#
# number of rings (size 3 to 8) (size 9 to 14) (size 15 to 20)
#    0.000    2.500    1.000    2.100    0.000    2.400 
#    0.000    2.000    0.000    3.600    0.000    2.800 
#    0.000    0.000    0.000   18.600    0.000    0.000 
#
# Total GULP energy -445376.371235 kJ/mol
# GULP energy per Si atom -5567.204640 kJ/mol
# Density = 1.620945 g / cm^3
# Si number density = 16.246431 Si / 1000 Ang^3
#
#
#
# Elastic Constant Matrix: (Units=GPa)
#
#
# Indices 1 2 3 4 5 6 
#
# 1 87.6877 44.3806 29.5688 0.0000 0.0000 0.0000
# 2 44.3806 87.6877 29.5688 0.0000 0.0000 0.0000
# 3 29.5688 29.5688 58.4343 0.0000 0.0000 0.0000
# 4 0.0000 0.0000 0.0000 24.7295 0.0000 0.0000
# 5 0.0000 0.0000 0.0000 0.0000 24.7295 0.0000
# 6 0.0000 0.0000 0.0000 0.0000 0.0000 16.2329
#
#
#
# Elastic Compliance Matrix: (Units=1/GPa)
#
#
# Indices 1 2 3 4 5 6 
#
# 1 0.016441 -0.006650 -0.004954 0.000000 0.000000 0.000000
# 2 -0.006650 0.016441 -0.004954 0.000000 0.000000 0.000000
# 3 -0.004954 -0.004954 0.022127 0.000000 0.000000 0.000000
# 4 0.000000 0.000000 0.000000 0.040438 0.000000 0.000000
# 5 0.000000 0.000000 0.000000 0.000000 0.040438 0.000000
# 6 0.000000 0.000000 0.000000 0.000000 0.000000 0.061603
#
#
# Mechanical properties :
#
#
# Convention : Reuss Voigt Hill
#
# Bulk Modulus (GPa) = 45.68046 48.98288 47.33167
# Shear Modulus (GPa) = 21.01723 21.82448 21.42086
#
# Velocity S-wave (km/s) = 3.60064 3.66914 3.63505
# Velocity P-wave (km/s) = 6.74273 6.94013 6.84214
#
# Compressibility (1/GPa) = 0.02189120
#
# Stress axis : x y z
#
# Youngs Moduli (GPa) = 60.82532 60.82532 45.19400
#
# Poissons Ratio (x) = 0.40451 0.22389
# Poissons Ratio (y) = 0.40451 0.22389
# Poissons Ratio (z) = 0.30133 0.30133
#
# Static dielectric constant tensor:
#      x y z
#    x 1.536270 0.000000 0.000000 
#    y 0.000000 1.536270 0.000000 
#    z 0.000000 0.000000 1.563250 
# 
# From -- ./inp_files/8349.got.cif
#   From: 2010.05.17/outbox.cif.g08.bks.cpg/sg123_5_cif.got.tgz:8349.got - 2010.05.20 11:43:04.
