data_PCOD9561678
_publ_section_title
;
Structure prediction by ZEFSAII (Michael W. Deem and Ramdas Pophale) SiO2 
 PCOD9561678
Probable space group: P 4/M M M
;
_chemical_formula_sum "Si O2"
_cell_formula_units_Z 112
_cell_length_a 23.193153
_cell_length_b 23.193153
_cell_length_c 13.688914
_cell_angle_alpha 90.000000
_cell_angle_beta 90.000000
_cell_angle_gamma 90.000000
_cell_volume 7363.572734
_symmetry_space_group_name_H-M "P 4/M M M"
_symmetry_group_IT_number 123
_symmetry_cell_setting 'tetragonal'
loop_
_space_group_symop_operation_xyz
x,y,z
-y,x,z
-x,-y,z
y,-x,z
x,-y,-z
-x,y,-z
y,x,-z
-y,-x,-z
-x,-y,-z
y,-x,-z
x,y,-z
-y,x,-z
-x,y,z
x,-y,z
-y,-x,z
y,x,z
loop_
_atom_site_type_symbol
_atom_site_label
_atom_site_fract_x
_atom_site_fract_y
_atom_site_fract_z
Si Si1 0.932871 0.839648 0.384856
Si Si2 0.435035 0.880941 0.114372
Si Si3 0.313081 0.065415 0.883776
Si Si4 0.147640 0.241522 0.255699
Si Si5 0.566280 0.229855 0.254208
Si Si6 0.676784 0.228508 0.384971
Si Si7 0.338039 0.433385 0.113357
O O1 0.927779 0.824908 0.500000
O O2 0.900804 0.900804 0.371489
O O3 0.897840 0.794009 0.320823
O O4 0.000000 0.841862 0.359358
O O5 0.500000 0.905002 0.128486
O O6 0.381277 0.922883 0.132254
O O7 0.428472 0.826477 0.185641
O O8 0.431540 0.862829 0.000000
O O9 0.276208 0.112847 0.826350
O O10 0.298745 0.000000 0.853156
O O11 0.302949 0.070218 0.000000
O O12 0.195272 0.195272 0.218282
O O13 0.181883 0.285813 0.325205
O O14 0.500000 0.232360 0.289432
O O15 0.613516 0.229744 0.338725
O O16 0.576842 0.284726 0.184655
O O17 0.676050 0.215114 0.500000
O O18 0.710941 0.289060 0.372767
O O19 0.356355 0.500000 0.124121
O O20 0.389806 0.389806 0.133406
O O21 0.320045 0.425600 0.000000
#
# Coordination Sequence:
#
# PCOD9561678 Si02
#       7
#    16  16  16  16  16  16  16
#     4   9  17  29  47  71  96 123 155 190 231 278
#     4   9  17  30  48  70  96 124 154 191 234 279
#     4  10  20  33  50  73  99 125 156 193 231 275
#     4  10  19  33  50  68  95 127 159 193 232 278
#     4  10  18  30  48  68  93 123 155 194 239 286
#     4  10  20  33  49  69  93 121 157 202 245 282
#     4   9  17  28  43  65  93 125 159 193 231 278
#
# _framework density 15.210008
#
# number of rings (size 3 to 8) (size 9 to 14) (size 15 to 20)
#    0.000    2.429    1.429    1.714    0.000    4.571 
#    0.000    2.857    0.000    0.000    0.000    0.000 
#    0.000    2.286    0.000   26.571    0.000    0.286 
#
# Total GULP energy -624082.910403 kJ/mol
# GULP energy per Si atom -5572.168843 kJ/mol
# Density = 1.517539 g / cm^3
# Si number density = 15.210008 Si / 1000 Ang^3
#
#
#
# Elastic Constant Matrix: (Units=GPa)
#
#
# Indices 1 2 3 4 5 6 
#
# 1 96.0701 50.8010 47.8507 0.0000 0.0000 0.0000
# 2 50.8010 96.0701 47.8507 0.0000 0.0000 0.0000
# 3 47.8507 47.8507 57.5803 0.0000 0.0000 0.0000
# 4 0.0000 0.0000 0.0000 24.1770 0.0000 0.0000
# 5 0.0000 0.0000 0.0000 0.0000 24.1770 0.0000
# 6 0.0000 0.0000 0.0000 0.0000 0.0000 16.9039
#
#
#
# Elastic Compliance Matrix: (Units=1/GPa)
#
#
# Indices 1 2 3 4 5 6 
#
# 1 0.018470 -0.003620 -0.012341 0.000000 0.000000 0.000000
# 2 -0.003620 0.018470 -0.012341 0.000000 0.000000 0.000000
# 3 -0.012341 -0.012341 0.037878 0.000000 0.000000 0.000000
# 4 0.000000 0.000000 0.000000 0.041362 0.000000 0.000000
# 5 0.000000 0.000000 0.000000 0.000000 0.041362 0.000000
# 6 0.000000 0.000000 0.000000 0.000000 0.000000 0.059158
#
#
# Mechanical properties :
#
#
# Convention : Reuss Voigt Hill
#
# Bulk Modulus (GPa) = 54.89967 60.30281 57.60124
# Shear Modulus (GPa) = 17.89720 19.93278 18.91499
#
# Velocity S-wave (km/s) = 3.43399 3.62402 3.53028
# Velocity P-wave (km/s) = 7.20388 7.56599 7.38715
#
# Compressibility (1/GPa) = 0.01821504
#
# Stress axis : x y z
#
# Youngs Moduli (GPa) = 54.14190 54.14190 26.40074
#
# Poissons Ratio (x) = 0.19600 0.32580
# Poissons Ratio (y) = 0.19600 0.32580
# Poissons Ratio (z) = 0.66814 0.66814
#
# Static dielectric constant tensor:
#      x y z
#    x 1.497890 0.000000 0.000000 
#    y 0.000000 1.497890 0.000000 
#    z 0.000000 0.000000 1.478550 
# 
# From -- ./inp_files/3377.got.cif
#   From: 2010.05.17/outbox.cif.g08.bks.cpg/sg123_2_cif.got.tgz:3377.got - 2010.05.20 11:43:04.
