data_PCOD9561066
_publ_section_title
;
Structure prediction by ZEFSAII (Michael W. Deem and Ramdas Pophale) SiO2 
 PCOD9561066
Probable space group: I -4 2 D
;
_chemical_formula_sum "Si O2"
_cell_formula_units_Z 44
_cell_length_a 17.851928
_cell_length_b 17.851928
_cell_length_c 6.064816
_cell_angle_alpha 90.000000
_cell_angle_beta 90.000000
_cell_angle_gamma 90.000000
_cell_volume 1932.804297
_symmetry_space_group_name_H-M "I -4 2 D"
_symmetry_group_IT_number 122
_symmetry_cell_setting 'tetragonal'
loop_
_space_group_symop_operation_xyz
x,y,z
y,-x,-z
-x,-y,z
-y,x,-z
x,1/2-y,1/4-z
-x,1/2+y,1/4-z
-y,1/2-x,1/4+z
y,1/2+x,1/4+z
1/2+x,1/2+y,1/2+z
1/2+y,1/2-x,1/2-z
1/2-x,1/2-y,1/2+z
1/2-y,1/2+x,1/2-z
1/2+x,-y,3/4-z
1/2-x,y,3/4-z
1/2-y,-x,3/4+z
1/2+y,x,3/4+z
loop_
_atom_site_type_symbol
_atom_site_label
_atom_site_fract_x
_atom_site_fract_y
_atom_site_fract_z
Si Si1 0.498931 0.250000 0.625000
Si Si2 0.321131 0.398458 0.997279
Si Si3 0.000000 0.000000 0.000000
Si Si4 0.139840 0.953510 0.232502
O O1 0.554650 0.290918 0.794275
O O2 0.449446 0.305787 0.476978
O O3 0.389540 0.348758 0.085015
O O4 0.250000 0.361282 0.875000
O O5 0.350109 0.463818 0.834447
O O6 0.945254 0.049153 0.148638
#
# Coordination Sequence:
#
# PCOD9561066 Si02
#       4
#     8  16   4  16
#     4  10  22  38  58  96 126 170 202 274 326 388
#     4  10  22  37  60  94 126 169 211 270 328 385
#     4  12  20  34  68  96 130 156 212 286 324 388
#     4  11  21  37  59  98 130 166 219 272 331 387
#
# _framework density 22.764849999999999
#
# number of rings (size 3 to 8) (size 9 to 14) (size 15 to 20)
#    0.000    1.455    3.636    2.182    0.000    0.000 
#    0.000    0.000    0.000    0.000   80.364    0.000 
#    0.000    0.000    0.000    0.000    0.000    0.000 
#
# Total GULP energy -122986.632085 kJ/mol
# GULP energy per Si atom -5590.301458 kJ/mol
# Density = 2.271304 g / cm^3
# Si number density = 22.764850 Si / 1000 Ang^3
#
#
#
# Elastic Constant Matrix: (Units=GPa)
#
#
# Indices 1 2 3 4 5 6 
#
# 1 65.9946 1.9452 27.1734 0.0000 0.0000 0.0000
# 2 1.9452 65.9946 27.1734 0.0000 0.0000 0.0000
# 3 27.1734 27.1734 103.1265 0.0000 0.0000 0.0000
# 4 0.0000 0.0000 0.0000 36.6367 0.0000 0.0000
# 5 0.0000 0.0000 0.0000 0.0000 36.6367 0.0000
# 6 0.0000 0.0000 0.0000 0.0000 0.0000 6.3113
#
#
#
# Elastic Compliance Matrix: (Units=1/GPa)
#
#
# Indices 1 2 3 4 5 6 
#
# 1 0.017131 0.001518 -0.004914 0.000000 0.000000 0.000000
# 2 0.001518 0.017131 -0.004914 0.000000 0.000000 0.000000
# 3 -0.004914 -0.004914 0.012287 0.000000 0.000000 0.000000
# 4 0.000000 0.000000 0.000000 0.027295 0.000000 0.000000
# 5 0.000000 0.000000 0.000000 0.000000 0.027295 0.000000
# 6 0.000000 0.000000 0.000000 0.000000 0.000000 0.158446
#
#
# Mechanical properties :
#
#
# Convention : Reuss Voigt Hill
#
# Bulk Modulus (GPa) = 33.41170 38.63331 36.02251
# Shear Modulus (GPa) = 17.47140 27.83850 22.65495
#
# Velocity S-wave (km/s) = 2.77333 3.50075 3.15806
# Velocity P-wave (km/s) = 4.99639 5.77476 5.39962
#
# Compressibility (1/GPa) = 0.02992963
#
# Stress axis : x y z
#
# Youngs Moduli (GPa) = 58.37233 58.37233 81.38975
#
# Poissons Ratio (x) = -0.08864 0.39996
# Poissons Ratio (y) = -0.08864 0.39996
# Poissons Ratio (z) = 0.28685 0.28685
#
# Static dielectric constant tensor:
#      x y z
#    x 1.892230 0.000000 0.000000 
#    y 0.000000 1.892230 0.000000 
#    z 0.000000 0.000000 1.884060 
# 
# From -- ./inp_files/592.got.cif
#   From: 2010.05.17/outbox.cif.g08.bks.cpg/sg122_1_cif.got.tgz:592.got - 2010.05.20 11:37:33.
