data_PCOD9561520
_publ_section_title
;
Structure prediction by ZEFSAII (Michael W. Deem and Ramdas Pophale) SiO2 
 PCOD9561520
Probable space group: I -4 2 D
;
_chemical_formula_sum "Si O2"
_cell_formula_units_Z 40
_cell_length_a 14.251758
_cell_length_b 14.251758
_cell_length_c 7.387770
_cell_angle_alpha 90.000000
_cell_angle_beta 90.000000
_cell_angle_gamma 90.000000
_cell_volume 1500.549218
_symmetry_space_group_name_H-M "I -4 2 D"
_symmetry_group_IT_number 122
_symmetry_cell_setting 'tetragonal'
loop_
_space_group_symop_operation_xyz
x,y,z
y,-x,-z
-x,-y,z
-y,x,-z
x,1/2-y,1/4-z
-x,1/2+y,1/4-z
-y,1/2-x,1/4+z
y,1/2+x,1/4+z
1/2+x,1/2+y,1/2+z
1/2+y,1/2-x,1/2-z
1/2-x,1/2-y,1/2+z
1/2-y,1/2+x,1/2-z
1/2+x,-y,3/4-z
1/2-x,y,3/4-z
1/2-y,-x,3/4+z
1/2+y,x,3/4+z
loop_
_atom_site_type_symbol
_atom_site_label
_atom_site_fract_x
_atom_site_fract_y
_atom_site_fract_z
Si Si1 0.894919 0.608243 0.965988
Si Si2 0.106458 0.104871 0.722321
Si Si3 0.754468 0.250000 0.625000
O O1 0.001734 0.880780 0.779560
O O2 0.895693 0.607275 0.746204
O O3 0.807434 0.674133 0.006857
O O4 0.999378 0.637256 0.024734
O O5 0.169795 0.186601 0.799046
#
# Coordination Sequence:
#
# PCOD9561520 Si02
#       3
#    16  16   8
#     4   9  21  42  66  91 135 174 216 273 331 405
#     4   9  21  43  64  97 130 172 223 273 332 392
#     4  12  22  36  70 102 124 168 226 276 326 390
#
# _framework density 26.656905999999999
#
# number of rings (size 3 to 8) (size 9 to 14) (size 15 to 20)
#    0.000    2.400    0.000    3.600   11.200    0.000 
#    7.200    0.000    0.000    0.000    0.000    0.000 
#    0.000    0.000    0.000    0.000    0.000    0.000 
#
# Total GULP energy -112122.884264 kJ/mol
# GULP energy per Si atom -5606.144213 kJ/mol
# Density = 2.659623 g / cm^3
# Si number density = 26.656906 Si / 1000 Ang^3
#
#
#
# Elastic Constant Matrix: (Units=GPa)
#
#
# Indices 1 2 3 4 5 6 
#
# 1 204.2388 133.7400 3.2291 0.0000 0.0000 0.0000
# 2 133.7400 204.2388 3.2291 0.0000 0.0000 0.0000
# 3 3.2291 3.2291 63.7313 0.0000 0.0000 0.0000
# 4 0.0000 0.0000 0.0000 33.3641 0.0000 0.0000
# 5 0.0000 0.0000 0.0000 0.0000 33.3641 0.0000
# 6 0.0000 0.0000 0.0000 0.0000 0.0000 63.1867
#
#
#
# Elastic Compliance Matrix: (Units=1/GPa)
#
#
# Indices 1 2 3 4 5 6 
#
# 1 0.008573 -0.005612 -0.000150 0.000000 0.000000 0.000000
# 2 -0.005612 0.008573 -0.000150 0.000000 0.000000 0.000000
# 3 -0.000150 -0.000150 0.015706 0.000000 0.000000 0.000000
# 4 0.000000 0.000000 0.000000 0.029972 0.000000 0.000000
# 5 0.000000 0.000000 0.000000 0.000000 0.029972 0.000000
# 6 0.000000 0.000000 0.000000 0.000000 0.000000 0.015826
#
#
# Mechanical properties :
#
#
# Convention : Reuss Voigt Hill
#
# Bulk Modulus (GPa) = 47.55313 83.62282 65.58798
# Shear Modulus (GPa) = 39.22920 48.11703 43.67312
#
# Velocity S-wave (km/s) = 3.84035 4.25320 4.05203
# Velocity P-wave (km/s) = 6.12716 7.45370 6.82275
#
# Compressibility (1/GPa) = 0.02102911
#
# Stress axis : x y z
#
# Youngs Moduli (GPa) = 116.64335 116.64335 63.66960
#
# Poissons Ratio (x) = 0.65455 0.00955
# Poissons Ratio (y) = 0.65455 0.00955
# Poissons Ratio (z) = 0.01750 0.01750
#
# Static dielectric constant tensor:
#      x y z
#    x 2.030000 0.000000 0.000000 
#    y 0.000000 2.030000 0.000000 
#    z 0.000000 0.000000 2.223230 
# 
# From -- ./inp_files/1960.got.cif
#   From: 2010.05.17/outbox.cif.g08.bks.cpg/sg122_1_cif.got.tgz:1960.got - 2010.05.20 11:37:33.
