data_PCOD9561697
_publ_section_title
;
Structure prediction by ZEFSAII (Michael W. Deem and Ramdas Pophale) SiO2 
 PCOD9561697
Probable space group: P 4/M M M
;
_chemical_formula_sum "Si O2"
_cell_formula_units_Z 128
_cell_length_a 19.976754
_cell_length_b 19.976754
_cell_length_c 18.295717
_cell_angle_alpha 90.000000
_cell_angle_beta 90.000000
_cell_angle_gamma 90.000000
_cell_volume 7301.284597
_symmetry_space_group_name_H-M "P 4/M M M"
_symmetry_group_IT_number 123
_symmetry_cell_setting 'tetragonal'
loop_
_space_group_symop_operation_xyz
x,y,z
-y,x,z
-x,-y,z
y,-x,z
x,-y,-z
-x,y,-z
y,x,-z
-y,-x,-z
-x,-y,-z
y,-x,-z
x,y,-z
-y,x,-z
-x,y,z
x,-y,z
-y,-x,z
y,x,z
loop_
_atom_site_type_symbol
_atom_site_label
_atom_site_fract_x
_atom_site_fract_y
_atom_site_fract_z
Si Si1 0.577784 0.839607 0.083677
Si Si2 0.313514 0.425016 0.124423
Si Si3 0.611192 0.196377 0.418742
Si Si4 0.755874 0.131778 0.579838
Si Si5 0.573748 0.925368 0.336097
Si Si6 0.268840 0.376484 0.277379
Si Si7 0.921540 0.806862 0.729819
Si Si8 0.328252 0.130668 0.214404
O O1 0.500000 0.851992 0.106185
O O2 0.586744 0.758837 0.087772
O O3 0.631216 0.871847 0.138577
O O4 0.585893 0.861299 0.000000
O O5 0.336360 0.500000 0.105617
O O6 0.367948 0.367948 0.107638
O O7 0.296976 0.420798 0.211369
O O8 0.598616 0.222063 0.500000
O O9 0.690127 0.178097 0.410569
O O10 0.578317 0.125145 0.403038
O O11 0.589379 0.241320 0.350355
O O12 0.749062 0.098127 0.500000
O O13 0.817958 0.182043 0.576691
O O14 0.772038 0.086412 0.649530
O O15 0.500000 0.918709 0.302104
O O16 0.628379 0.908447 0.275107
O O17 0.583595 0.000000 0.362376
O O18 0.325997 0.325997 0.300953
O O19 0.207576 0.334403 0.241712
O O20 0.870880 0.870880 0.733379
O O21 0.895547 0.747538 0.783517
O O22 0.000000 0.823007 0.741890
#
# Coordination Sequence:
#
# PCOD9561697 Si02
#       8
#    16  16  16  16  16  16  16  16
#     4   9  18  33  54  83 117 144 166 201 253 307
#     4   9  18  31  48  71 100 137 176 212 251 297
#     4  10  19  28  43  66  94 128 165 208 253 305
#     4   9  17  30  49  73  99 128 167 216 267 319
#     4  10  20  32  45  63  92 129 166 203 241 284
#     4   9  16  28  46  68  95 122 156 205 257 302
#     4  11  22  36  55  78 104 136 176 223 272 321
#     4  10  18  31  54  77  98 131 171 204 240 299
#
# _framework density 17.531161000000001
#
# number of rings (size 3 to 8) (size 9 to 14) (size 15 to 20)
#    0.000    2.375    2.500    1.500    0.000    5.500 
#    0.000    1.875    0.000    1.500    0.000    7.875 
#    0.000    0.000    0.000    3.875    0.000    0.000 
#
# Total GULP energy -712951.445703 kJ/mol
# GULP energy per Si atom -5569.933170 kJ/mol
# Density = 1.749126 g / cm^3
# Si number density = 17.531161 Si / 1000 Ang^3
#
#
#
# Elastic Constant Matrix: (Units=GPa)
#
#
# Indices 1 2 3 4 5 6 
#
# 1 59.0160 19.4084 15.9634 0.0000 0.0000 0.0000
# 2 19.4084 59.0160 15.9634 0.0000 0.0000 0.0000
# 3 15.9634 15.9634 80.7284 0.0000 0.0000 0.0000
# 4 0.0000 0.0000 0.0000 8.5579 0.0000 0.0000
# 5 0.0000 0.0000 0.0000 0.0000 8.5579 0.0000
# 6 0.0000 0.0000 0.0000 0.0000 0.0000 15.4689
#
#
#
# Elastic Compliance Matrix: (Units=1/GPa)
#
#
# Indices 1 2 3 4 5 6 
#
# 1 0.019558 -0.005690 -0.002742 0.000000 0.000000 0.000000
# 2 -0.005690 0.019558 -0.002742 0.000000 0.000000 0.000000
# 3 -0.002742 -0.002742 0.013472 0.000000 0.000000 0.000000
# 4 0.000000 0.000000 0.000000 0.116851 0.000000 0.000000
# 5 0.000000 0.000000 0.000000 0.000000 0.116851 0.000000
# 6 0.000000 0.000000 0.000000 0.000000 0.000000 0.064646
#
#
# Mechanical properties :
#
#
# Convention : Reuss Voigt Hill
#
# Bulk Modulus (GPa) = 33.07104 33.49231 33.28168
# Shear Modulus (GPa) = 13.04247 16.34529 14.69388
#
# Velocity S-wave (km/s) = 2.73052 3.05676 2.89824
# Velocity P-wave (km/s) = 5.37086 5.62177 5.49775
#
# Compressibility (1/GPa) = 0.03023793
#
# Stress axis : x y z
#
# Youngs Moduli (GPa) = 51.13101 51.13101 74.22965
#
# Poissons Ratio (x) = 0.29094 0.20355
# Poissons Ratio (y) = 0.29094 0.20355
# Poissons Ratio (z) = 0.14021 0.14021
#
# Static dielectric constant tensor:
#      x y z
#    x 1.612160 0.000000 0.000000 
#    y 0.000000 1.612160 0.000000 
#    z 0.000000 0.000000 1.631750 
# 
# From -- ./inp_files/6030.got.cif
#   From: 2010.05.17/outbox.cif.g08.bks.cpg/sg123_4_cif.got.tgz:6030.got - 2010.05.20 11:43:04.
