data_PCOD9561054
_publ_section_title
;
Structure prediction by ZEFSAII (Michael W. Deem and Ramdas Pophale) SiO2 
 PCOD9561054
Probable space group: I -4 2 D
;
_chemical_formula_sum "Si O2"
_cell_formula_units_Z 88
_cell_length_a 11.189175
_cell_length_b 11.189175
_cell_length_c 26.116084
_cell_angle_alpha 90.000000
_cell_angle_beta 90.000000
_cell_angle_gamma 90.000000
_cell_volume 3269.672009
_symmetry_space_group_name_H-M "I -4 2 D"
_symmetry_group_IT_number 122
_symmetry_cell_setting 'tetragonal'
loop_
_space_group_symop_operation_xyz
x,y,z
y,-x,-z
-x,-y,z
-y,x,-z
x,1/2-y,1/4-z
-x,1/2+y,1/4-z
-y,1/2-x,1/4+z
y,1/2+x,1/4+z
1/2+x,1/2+y,1/2+z
1/2+y,1/2-x,1/2-z
1/2-x,1/2-y,1/2+z
1/2-y,1/2+x,1/2-z
1/2+x,-y,3/4-z
1/2-x,y,3/4-z
1/2-y,-x,3/4+z
1/2+y,x,3/4+z
loop_
_atom_site_type_symbol
_atom_site_label
_atom_site_fract_x
_atom_site_fract_y
_atom_site_fract_z
Si Si1 0.000000 0.000000 0.754213
Si Si2 0.788432 0.446800 0.566297
Si Si3 0.041357 0.635599 0.162458
Si Si4 0.708414 0.785929 0.684725
Si Si5 0.906078 0.403680 0.669975
Si Si6 0.262708 0.458896 0.744838
O O1 0.100345 0.929691 0.721665
O O2 0.036346 0.122536 0.779644
O O3 0.660728 0.388527 0.555833
O O4 0.778804 0.590328 0.563025
O O5 0.817801 0.395472 0.622155
O O6 0.059747 0.750000 0.125000
O O7 0.000000 0.500000 0.142433
O O8 0.929429 0.680756 0.195172
O O9 0.713523 0.750000 0.625000
O O10 0.743718 0.673770 0.718936
O O11 0.842407 0.468875 0.716569
O O12 0.958907 0.284118 0.695504
O O13 0.000000 0.500000 0.649179
#
# Coordination Sequence:
#
# PCOD9561054 Si02
#       6
#     8  16  16  16  16  16
#     4  12  30  44  66 113 150 194 251 318 384 458
#     4  11  24  45  72 106 147 199 250 311 389 469
#     4   9  21  41  70 107 140 188 260 314 378 460
#     4  10  21  44  74 103 144 198 253 314 382 462
#     4  12  24  45  76 107 149 201 253 312 393 475
#     4  12  25  46  71 111 152 200 253 322 387 462
#
# _framework density 26.914016
#
# number of rings (size 3 to 8) (size 9 to 14) (size 15 to 20)
#    0.000    1.091    4.545    1.091    2.545    2.909 
#    3.273    0.000    0.000    0.000    0.000    0.000 
#    0.000    0.000    0.000    0.000    0.000    0.000 
#
# Total GULP energy -245773.123480 kJ/mol
# GULP energy per Si atom -5585.752806 kJ/mol
# Density = 2.685276 g / cm^3
# Si number density = 26.914016 Si / 1000 Ang^3
#
#
#
# Elastic Constant Matrix: (Units=GPa)
#
#
# Indices 1 2 3 4 5 6 
#
# 1 112.8232 25.2274 12.8579 0.0000 0.0000 0.0000
# 2 25.2274 112.8232 12.8579 0.0000 0.0000 0.0000
# 3 12.8579 12.8579 97.4864 0.0000 0.0000 0.0000
# 4 0.0000 0.0000 0.0000 7.4631 0.0000 0.0000
# 5 0.0000 0.0000 0.0000 0.0000 7.4631 0.0000
# 6 0.0000 0.0000 0.0000 0.0000 0.0000 26.3818
#
#
#
# Elastic Compliance Matrix: (Units=1/GPa)
#
#
# Indices 1 2 3 4 5 6 
#
# 1 0.009421 -0.001995 -0.000979 0.000000 0.000000 0.000000
# 2 -0.001995 0.009421 -0.000979 0.000000 0.000000 0.000000
# 3 -0.000979 -0.000979 0.010516 0.000000 0.000000 0.000000
# 4 0.000000 0.000000 0.000000 0.133993 0.000000 0.000000
# 5 0.000000 0.000000 0.000000 0.000000 0.133993 0.000000
# 6 0.000000 0.000000 0.000000 0.000000 0.000000 0.037905
#
#
# Mechanical properties :
#
#
# Convention : Reuss Voigt Hill
#
# Bulk Modulus (GPa) = 46.61859 47.22438 46.92148
# Shear Modulus (GPa) = 14.27319 26.40757 20.34038
#
# Velocity S-wave (km/s) = 2.30538 3.13578 2.75208
# Velocity P-wave (km/s) = 4.94422 5.54034 5.25074
#
# Compressibility (1/GPa) = 0.02145067
#
# Stress axis : x y z
#
# Youngs Moduli (GPa) = 106.14446 106.14446 95.09127
#
# Poissons Ratio (x) = 0.21175 0.09314
# Poissons Ratio (y) = 0.21175 0.09314
# Poissons Ratio (z) = 0.10397 0.10397
#
# Static dielectric constant tensor:
#      x y z
#    x 3.126500 0.000000 0.000000 
#    y 0.000000 3.126500 0.000000 
#    z 0.000000 0.000000 2.295680 
# 
# From -- ./inp_files/9513.got.cif
#   From: 2010.05.17/outbox.cif.g08.bks.cpg/sg122_5_cif.got.tgz:9513.got - 2010.05.20 11:37:33.
