data_PCOD9561242
_publ_section_title
;
Structure prediction by ZEFSAII (Michael W. Deem and Ramdas Pophale) SiO2 
 PCOD9561242
Probable space group: I -4 2 D
;
_chemical_formula_sum "Si O2"
_cell_formula_units_Z 72
_cell_length_a 24.951239
_cell_length_b 24.951239
_cell_length_c 5.034170
_cell_angle_alpha 90.000000
_cell_angle_beta 90.000000
_cell_angle_gamma 90.000000
_cell_volume 3134.094661
_symmetry_space_group_name_H-M "I -4 2 D"
_symmetry_group_IT_number 122
_symmetry_cell_setting 'tetragonal'
loop_
_space_group_symop_operation_xyz
x,y,z
y,-x,-z
-x,-y,z
-y,x,-z
x,1/2-y,1/4-z
-x,1/2+y,1/4-z
-y,1/2-x,1/4+z
y,1/2+x,1/4+z
1/2+x,1/2+y,1/2+z
1/2+y,1/2-x,1/2-z
1/2-x,1/2-y,1/2+z
1/2-y,1/2+x,1/2-z
1/2+x,-y,3/4-z
1/2-x,y,3/4-z
1/2-y,-x,3/4+z
1/2+y,x,3/4+z
loop_
_atom_site_type_symbol
_atom_site_label
_atom_site_fract_x
_atom_site_fract_y
_atom_site_fract_z
Si Si1 0.117320 0.250000 0.125000
Si Si2 0.007059 0.688128 0.727323
Si Si3 0.350530 0.430202 0.494417
Si Si4 0.164411 0.687487 0.621561
Si Si5 0.094666 0.153981 0.753458
O O1 0.157622 0.280799 0.935338
O O2 0.088057 0.295705 0.296529
O O3 0.012216 0.750000 0.625000
O O4 0.028999 0.650082 0.491554
O O5 0.038650 0.678466 0.001090
O O6 0.945287 0.669113 0.734799
O O7 0.322036 0.380081 0.645184
O O8 0.345197 0.352275 0.133093
O O9 0.403396 0.593239 0.599609
O O10 0.172389 0.750000 0.625000
#
# Coordination Sequence:
#
# PCOD9561242 Si02
#       5
#     8  16  16  16  16
#     4  10  24  38  68 102 148 196 234 284 356 450
#     4  12  26  43  76 102 141 186 245 299 363 427
#     4  11  26  44  70 104 138 184 235 299 360 427
#     4  11  24  42  67 101 149 191 234 285 359 442
#     4  11  26  46  69 106 147 188 246 303 367 435
#
# _framework density 22.973140000000001
#
# number of rings (size 3 to 8) (size 9 to 14) (size 15 to 20)
#    0.000    0.889    2.222    3.333   15.556    1.778 
#    0.000    0.000    0.000    4.000    0.000    0.000 
#    0.000    0.000    0.000    0.000    0.000    0.000 
#
# Total GULP energy -200740.386282 kJ/mol
# GULP energy per Si atom -5576.121841 kJ/mol
# Density = 2.292085 g / cm^3
# Si number density = 22.973140 Si / 1000 Ang^3
#
#
#
# Elastic Constant Matrix: (Units=GPa)
#
#
# Indices 1 2 3 4 5 6 
#
# 1 90.6146 7.3170 24.5151 0.0000 0.0000 0.0000
# 2 7.3170 90.6146 24.5151 0.0000 0.0000 0.0000
# 3 24.5151 24.5151 132.5916 0.0000 0.0000 0.0000
# 4 0.0000 0.0000 0.0000 31.0450 0.0000 0.0000
# 5 0.0000 0.0000 0.0000 0.0000 31.0450 0.0000
# 6 0.0000 0.0000 0.0000 0.0000 0.0000 3.9652
#
#
#
# Elastic Compliance Matrix: (Units=1/GPa)
#
#
# Indices 1 2 3 4 5 6 
#
# 1 0.011629 -0.000376 -0.002081 0.000000 0.000000 0.000000
# 2 -0.000376 0.011629 -0.002081 0.000000 0.000000 0.000000
# 3 -0.002081 -0.002081 0.008311 0.000000 0.000000 0.000000
# 4 0.000000 0.000000 0.000000 0.032211 0.000000 0.000000
# 5 0.000000 0.000000 0.000000 0.000000 0.032211 0.000000
# 6 0.000000 0.000000 0.000000 0.000000 0.000000 0.252195
#
#
# Mechanical properties :
#
#
# Convention : Reuss Voigt Hill
#
# Bulk Modulus (GPa) = 44.45477 47.39059 45.92268
# Shear Modulus (GPa) = 13.70766 30.37592 22.04179
#
# Velocity S-wave (km/s) = 2.44536 3.64020 3.10087
# Velocity P-wave (km/s) = 5.23123 6.19206 5.73181
#
# Compressibility (1/GPa) = 0.02249478
#
# Stress axis : x y z
#
# Youngs Moduli (GPa) = 85.99188 85.99188 120.31792
#
# Poissons Ratio (x) = 0.03235 0.25033
# Poissons Ratio (y) = 0.03235 0.25033
# Poissons Ratio (z) = 0.17891 0.17891
#
# Static dielectric constant tensor:
#      x y z
#    x 2.100560 0.000000 0.000000 
#    y 0.000000 2.100560 0.000000 
#    z 0.000000 0.000000 2.219190 
# 
# From -- ./inp_files/2745.got.cif
#   From: 2010.05.17/outbox.cif.g08.bks.cpg/sg122_2_cif.got.tgz:2745.got - 2010.05.20 11:37:33.
