data_PCOD9561106
_publ_section_title
;
Structure prediction by ZEFSAII (Michael W. Deem and Ramdas Pophale) SiO2 
 PCOD9561106
Probable space group: I -4 2 D
;
_chemical_formula_sum "Si O2"
_cell_formula_units_Z 64
_cell_length_a 11.111587
_cell_length_b 11.111587
_cell_length_c 25.613907
_cell_angle_alpha 90.000000
_cell_angle_beta 90.000000
_cell_angle_gamma 90.000000
_cell_volume 3162.481622
_symmetry_space_group_name_H-M "I -4 2 D"
_symmetry_group_IT_number 122
_symmetry_cell_setting 'tetragonal'
loop_
_space_group_symop_operation_xyz
x,y,z
y,-x,-z
-x,-y,z
-y,x,-z
x,1/2-y,1/4-z
-x,1/2+y,1/4-z
-y,1/2-x,1/4+z
y,1/2+x,1/4+z
1/2+x,1/2+y,1/2+z
1/2+y,1/2-x,1/2-z
1/2-x,1/2-y,1/2+z
1/2-y,1/2+x,1/2-z
1/2+x,-y,3/4-z
1/2-x,y,3/4-z
1/2-y,-x,3/4+z
1/2+y,x,3/4+z
loop_
_atom_site_type_symbol
_atom_site_label
_atom_site_fract_x
_atom_site_fract_y
_atom_site_fract_z
Si Si1 0.427945 0.750000 0.625000
Si Si2 0.899438 0.725135 0.931716
Si Si3 0.575180 0.614577 0.712034
Si Si4 0.293561 0.121573 0.145548
Si Si5 0.476111 0.750000 0.125000
O O1 0.341875 0.672310 0.587253
O O2 0.505369 0.662134 0.661198
O O3 0.820004 0.609552 0.914697
O O4 0.022369 0.717356 0.899149
O O5 0.920988 0.714286 0.993025
O O6 0.500000 0.500000 0.732085
O O7 0.710779 0.583387 0.693868
O O8 0.244475 0.250000 0.125000
O O9 0.433567 0.156160 0.153552
#
# Coordination Sequence:
#
# PCOD9561106 Si02
#       5
#     8  16  16  16   8
#     4  11  25  42  64 104 133 169 228 272 318 407
#     4  11  24  43  67  96 134 172 216 278 327 387
#     4  12  24  41  68  95 133 178 216 269 339 387
#     4  10  22  40  65  93 130 167 220 267 319 397
#     4   9  21  42  68  90 131 169 214 272 326 379
#
# _framework density 20.237272000000001
#
# number of rings (size 3 to 8) (size 9 to 14) (size 15 to 20)
#    0.750    0.500    3.750    2.250    3.500    0.000 
#    0.000    0.000    0.000    0.000    0.000    0.000 
#    0.000    0.000    0.000    0.000    0.000    0.000 
#
# Total GULP energy -178563.898920 kJ/mol
# GULP energy per Si atom -5580.121841 kJ/mol
# Density = 2.019121 g / cm^3
# Si number density = 20.237272 Si / 1000 Ang^3
#
#
#
# Elastic Constant Matrix: (Units=GPa)
#
#
# Indices 1 2 3 4 5 6 
#
# 1 60.2937 -13.4828 6.9275 0.0000 0.0000 0.0000
# 2 -13.4828 60.2937 6.9275 0.0000 0.0000 0.0000
# 3 6.9275 6.9275 83.0408 0.0000 0.0000 0.0000
# 4 0.0000 0.0000 0.0000 24.7668 0.0000 0.0000
# 5 0.0000 0.0000 0.0000 0.0000 24.7668 0.0000
# 6 0.0000 0.0000 0.0000 0.0000 0.0000 -103.4446
#
#
#
# Elastic Compliance Matrix: (Units=1/GPa)
#
#
# Indices 1 2 3 4 5 6 
#
# 1 0.017729 0.004174 -0.001827 0.000000 0.000000 0.000000
# 2 0.004174 0.017729 -0.001827 0.000000 0.000000 0.000000
# 3 -0.001827 -0.001827 0.012347 0.000000 0.000000 0.000000
# 4 0.000000 0.000000 0.000000 0.040377 0.000000 0.000000
# 5 0.000000 0.000000 0.000000 0.000000 0.040377 0.000000
# 6 0.000000 0.000000 0.000000 0.000000 0.000000 -0.009667
#
#
# Mechanical properties :
#
#
# Convention : Reuss Voigt Hill
#
# Bulk Modulus (GPa) = 20.47296 22.70807 21.59052
# Shear Modulus (GPa) = 37.27642 2.76818 20.02230
#
# Velocity S-wave (km/s) = 4.29647 1.17082 3.14885
# Velocity P-wave (km/s) = 5.89503 3.61567 4.89001
#
# Compressibility (1/GPa) = 0.04884491
#
# Stress axis : x y z
#
# Youngs Moduli (GPa) = 56.40504 56.40504 80.99044
#
# Poissons Ratio (x) = -0.23546 0.14799
# Poissons Ratio (y) = -0.23546 0.14799
# Poissons Ratio (z) = 0.10307 0.10307
#
# Static dielectric constant tensor:
#      x y z
#    x 1.729470 0.000000 0.000000 
#    y 0.000000 1.729470 0.000000 
#    z 0.000000 0.000000 1.709370 
# 
# From -- ./inp_files/7903.got.cif
#   From: 2010.05.17/outbox.cif.g08.bks.cpg/sg122_4_cif.got.tgz:7903.got - 2010.05.20 11:37:33.
