data_PCOD9561778
_publ_section_title
;
Structure prediction by ZEFSAII (Michael W. Deem and Ramdas Pophale) SiO2 
 PCOD9561778
Probable space group: P 4/M M M
;
_chemical_formula_sum "Si O2"
_cell_formula_units_Z 88
_cell_length_a 13.911518
_cell_length_b 13.911518
_cell_length_c 28.790597
_cell_angle_alpha 90.000000
_cell_angle_beta 90.000000
_cell_angle_gamma 90.000000
_cell_volume 5571.853827
_symmetry_space_group_name_H-M "P 4/M M M"
_symmetry_group_IT_number 123
_symmetry_cell_setting 'tetragonal'
loop_
_space_group_symop_operation_xyz
x,y,z
-y,x,z
-x,-y,z
y,-x,z
x,-y,-z
-x,y,-z
y,x,-z
-y,-x,-z
-x,-y,-z
y,-x,-z
x,y,-z
-y,x,-z
-x,y,z
x,-y,z
-y,-x,z
y,x,z
loop_
_atom_site_type_symbol
_atom_site_label
_atom_site_fract_x
_atom_site_fract_y
_atom_site_fract_z
Si Si1 0.272584 0.115187 0.733991
Si Si2 0.773085 0.385353 0.813117
Si Si3 0.887821 0.386292 0.092459
Si Si4 0.269582 0.885539 0.000000
Si Si5 0.886258 0.272086 0.447241
Si Si6 0.391382 0.116408 0.357953
O O1 0.172280 0.172280 0.737692
O O2 0.341919 0.155594 0.774303
O O3 0.322800 0.141185 0.684982
O O4 0.262123 0.000000 0.736926
O O5 0.761722 0.500000 0.807493
O O6 0.674026 0.325975 0.809665
O O7 0.821716 0.366478 0.863209
O O8 0.882333 0.500000 0.082383
O O9 0.000000 0.364648 0.103518
O O10 0.860116 0.328323 0.046494
O O11 0.170232 0.829769 0.000000
O O12 0.257173 0.000000 0.000000
O O13 0.871931 0.308664 0.500000
O O14 0.824469 0.175532 0.442303
O O15 0.855421 0.345698 0.407218
O O16 0.000000 0.252896 0.441614
O O17 0.500000 0.152724 0.351838
O O18 0.396109 0.000000 0.358190
#
# Coordination Sequence:
#
# PCOD9561778 Si02
#       6
#    16  16  16   8  16  16
#     4  10  20  33  50  72  97 125 157 192 232 280
#     4  10  20  33  50  72  97 126 160 197 237 281
#     4   9  17  30  49  71  92 116 151 195 240 283
#     4  10  19  30  45  65  92 124 155 189 228 273
#     4   9  17  28  42  62  89 120 153 189 230 278
#     4   9  17  29  45  64  87 117 152 188 226 269
#
# _framework density 15.793666
#
# number of rings (size 3 to 8) (size 9 to 14) (size 15 to 20)
#    0.000    2.545    0.000    2.455    0.000    3.909 
#    0.000    2.727    0.000    3.273    0.000    2.545 
#    0.000    9.818    0.000    8.000    0.000    0.727 
#
# Total GULP energy -490355.120755 kJ/mol
# GULP energy per Si atom -5572.217281 kJ/mol
# Density = 1.575772 g / cm^3
# Si number density = 15.793666 Si / 1000 Ang^3
#
#
#
# Elastic Constant Matrix: (Units=GPa)
#
#
# Indices 1 2 3 4 5 6 
#
# 1 78.6323 50.1406 54.1624 0.0000 0.0000 0.0000
# 2 50.1406 78.6284 54.1616 0.0000 0.0000 0.0000
# 3 54.1624 54.1616 117.6105 0.0000 0.0000 0.0000
# 4 0.0000 0.0000 0.0000 22.6382 0.0000 0.0000
# 5 0.0000 0.0000 0.0000 0.0000 22.6385 0.0000
# 6 0.0000 0.0000 0.0000 0.0000 0.0000 12.8730
#
#
#
# Elastic Compliance Matrix: (Units=1/GPa)
#
#
# Indices 1 2 3 4 5 6 
#
# 1 0.023888 -0.011212 -0.005838 0.000000 0.000000 0.000000
# 2 -0.011212 0.023889 -0.005838 0.000000 0.000000 0.000000
# 3 -0.005838 -0.005838 0.013880 0.000000 0.000000 0.000000
# 4 0.000000 0.000000 0.000000 0.044173 0.000000 0.000000
# 5 0.000000 0.000000 0.000000 0.000000 0.044173 0.000000
# 6 0.000000 0.000000 0.000000 0.000000 0.000000 0.077682
#
#
# Mechanical properties :
#
#
# Convention : Reuss Voigt Hill
#
# Bulk Modulus (GPa) = 62.96675 65.75558 64.36117
# Shear Modulus (GPa) = 17.93705 19.39039 18.66372
#
# Velocity S-wave (km/s) = 3.37369 3.50770 3.44135
# Velocity P-wave (km/s) = 7.42500 7.62429 7.52531
#
# Compressibility (1/GPa) = 0.01588140
#
# Stress axis : x y z
#
# Youngs Moduli (GPa) = 41.86243 41.86000 72.04864
#
# Poissons Ratio (x) = 0.46933 0.42059
# Poissons Ratio (y) = 0.46936 0.42062
# Poissons Ratio (z) = 0.24438 0.24438
#
# Static dielectric constant tensor:
#      x y z
#    x 1.506560 0.000000 0.000000 
#    y 0.000000 1.506560 0.000000 
#    z 0.000000 0.000000 1.534250 
# 
# From -- ./inp_files/7167.got.cif
#   From: 2010.05.17/outbox.cif.g08.bks.cpg/sg123_4_cif.got.tgz:7167.got - 2010.05.20 11:43:04.
