data_PCOD9561452
_publ_section_title
;
Structure prediction by ZEFSAII (Michael W. Deem and Ramdas Pophale) SiO2 
 PCOD9561452
Probable space group: I -4 2 D
;
_chemical_formula_sum "Si O2"
_cell_formula_units_Z 60
_cell_length_a 18.365570
_cell_length_b 18.365570
_cell_length_c 9.285994
_cell_angle_alpha 90.000000
_cell_angle_beta 90.000000
_cell_angle_gamma 90.000000
_cell_volume 3132.111559
_symmetry_space_group_name_H-M "I -4 2 D"
_symmetry_group_IT_number 122
_symmetry_cell_setting 'tetragonal'
loop_
_space_group_symop_operation_xyz
x,y,z
y,-x,-z
-x,-y,z
-y,x,-z
x,1/2-y,1/4-z
-x,1/2+y,1/4-z
-y,1/2-x,1/4+z
y,1/2+x,1/4+z
1/2+x,1/2+y,1/2+z
1/2+y,1/2-x,1/2-z
1/2-x,1/2-y,1/2+z
1/2-y,1/2+x,1/2-z
1/2+x,-y,3/4-z
1/2-x,y,3/4-z
1/2-y,-x,3/4+z
1/2+y,x,3/4+z
loop_
_atom_site_type_symbol
_atom_site_label
_atom_site_fract_x
_atom_site_fract_y
_atom_site_fract_z
Si Si1 0.500000 0.500000 0.000000
Si Si2 0.759092 0.131218 0.706054
Si Si3 0.250000 0.148188 0.875000
Si Si4 0.533994 0.256745 0.366875
Si Si5 0.926619 0.138798 0.624488
O O1 0.453702 0.557615 0.092956
O O2 0.700669 0.179851 0.621323
O O3 0.840127 0.145947 0.647467
O O4 0.746913 0.045483 0.685687
O O5 0.750000 0.150035 0.875000
O O6 0.255341 0.096198 0.736934
O O7 0.538851 0.328694 0.269184
O O8 0.548157 0.189867 0.257459
#
# Coordination Sequence:
#
# PCOD9561452 Si02
#       5
#     4  16   8  16  16
#     4  12  24  44  72  98 140 180 232 286 344 400
#     4  12  25  44  70 102 141 179 229 284 343 411
#     4  12  26  42  70  98 138 182 228 286 344 410
#     4  11  25  44  68  99 137 177 226 282 345 405
#     4  11  25  44  68 101 133 178 228 278 341 411
#
# _framework density 19.156406
#
# number of rings (size 3 to 8) (size 9 to 14) (size 15 to 20)
#    0.000    0.533    6.667    1.600    3.733    0.000 
#    0.000    0.000    0.000    1.600    0.000    0.000 
#    0.000    0.000    0.000    0.000    0.000    0.000 
#
# Total GULP energy -167737.440782 kJ/mol
# GULP energy per Si atom -5591.248026 kJ/mol
# Density = 1.911280 g / cm^3
# Si number density = 19.156406 Si / 1000 Ang^3
#
#
#
# Elastic Constant Matrix: (Units=GPa)
#
#
# Indices 1 2 3 4 5 6 
#
# 1 104.0308 27.6503 23.3419 0.0000 0.0000 0.0000
# 2 27.6503 104.0308 23.3419 0.0000 0.0000 0.0000
# 3 23.3419 23.3419 84.7380 0.0000 0.0000 0.0000
# 4 0.0000 0.0000 0.0000 23.0161 0.0000 0.0000
# 5 0.0000 0.0000 0.0000 0.0000 23.0161 0.0000
# 6 0.0000 0.0000 0.0000 0.0000 0.0000 26.6884
#
#
#
# Elastic Compliance Matrix: (Units=1/GPa)
#
#
# Indices 1 2 3 4 5 6 
#
# 1 0.010754 -0.002338 -0.002318 0.000000 0.000000 0.000000
# 2 -0.002338 0.010754 -0.002318 0.000000 0.000000 0.000000
# 3 -0.002318 -0.002318 0.013078 0.000000 0.000000 0.000000
# 4 0.000000 0.000000 0.000000 0.043448 0.000000 0.000000
# 5 0.000000 0.000000 0.000000 0.000000 0.043448 0.000000
# 6 0.000000 0.000000 0.000000 0.000000 0.000000 0.037469
#
#
# Mechanical properties :
#
#
# Convention : Reuss Voigt Hill
#
# Bulk Modulus (GPa) = 48.45625 49.05196 48.75411
# Shear Modulus (GPa) = 27.81175 29.10850 28.46013
#
# Velocity S-wave (km/s) = 3.81442 3.90233 3.85862
# Velocity P-wave (km/s) = 6.68952 6.77981 6.73482
#
# Compressibility (1/GPa) = 0.02063717
#
# Stress axis : x y z
#
# Youngs Moduli (GPa) = 92.98732 92.98732 76.46281
#
# Poissons Ratio (x) = 0.21742 0.17726
# Poissons Ratio (y) = 0.21742 0.17726
# Poissons Ratio (z) = 0.21557 0.21557
#
# Static dielectric constant tensor:
#      x y z
#    x 1.660880 0.000000 0.000000 
#    y 0.000000 1.660880 0.000000 
#    z 0.000000 0.000000 1.637920 
# 
# From -- ./inp_files/2313.got.cif
#   From: 2010.05.17/outbox.cif.g08.bks.cpg/sg122_2_cif.got.tgz:2313.got - 2010.05.20 11:37:33.
