data_PCOD9561014
_publ_section_title
;
Structure prediction by ZEFSAII (Michael W. Deem and Ramdas Pophale) SiO2 
 PCOD9561014
Probable space group: I -4 2 D
;
_chemical_formula_sum "Si O2"
_cell_formula_units_Z 56
_cell_length_a 10.658446
_cell_length_b 10.658446
_cell_length_c 26.463114
_cell_angle_alpha 90.000000
_cell_angle_beta 90.000000
_cell_angle_gamma 90.000000
_cell_volume 3006.275144
_symmetry_space_group_name_H-M "I -4 2 D"
_symmetry_group_IT_number 122
_symmetry_cell_setting 'tetragonal'
loop_
_space_group_symop_operation_xyz
x,y,z
y,-x,-z
-x,-y,z
-y,x,-z
x,1/2-y,1/4-z
-x,1/2+y,1/4-z
-y,1/2-x,1/4+z
y,1/2+x,1/4+z
1/2+x,1/2+y,1/2+z
1/2+y,1/2-x,1/2-z
1/2-x,1/2-y,1/2+z
1/2-y,1/2+x,1/2-z
1/2+x,-y,3/4-z
1/2-x,y,3/4-z
1/2-y,-x,3/4+z
1/2+y,x,3/4+z
loop_
_atom_site_type_symbol
_atom_site_label
_atom_site_fract_x
_atom_site_fract_y
_atom_site_fract_z
Si Si1 0.429490 0.270903 0.937203
Si Si2 0.500000 0.000000 0.603456
Si Si3 0.293028 0.652266 0.951796
Si Si4 0.127219 0.250000 0.125000
Si Si5 0.936671 0.250000 0.625000
O O1 0.463555 0.126901 0.925972
O O2 0.556835 0.348416 0.946005
O O3 0.359992 0.342779 0.891930
O O4 0.350959 0.268879 0.988858
O O5 0.542495 0.873064 0.630998
O O6 0.253415 0.778485 0.922781
O O7 0.233894 0.532755 0.922319
#
# Coordination Sequence:
#
# PCOD9561014 Si02
#       5
#    16   8  16   8   8
#     4  11  21  40  63  91 134 168 218 279 339 396
#     4  10  22  42  60  85 130 176 215 270 326 404
#     4  10  21  39  63  97 128 162 220 285 332 399
#     4   9  21  42  60  88 127 171 216 270 334 407
#     4  11  21  34  66  96 125 173 204 270 352 379
#
# _framework density 18.627701999999999
#
# number of rings (size 3 to 8) (size 9 to 14) (size 15 to 20)
#    0.000    1.714    2.857    1.714    0.000    0.000 
#   15.429    2.857    0.000    1.714    0.000    0.000 
#    0.000    0.000    0.000    0.000    0.000    0.000 
#
# Total GULP energy -155994.336344 kJ/mol
# GULP energy per Si atom -5571.226298 kJ/mol
# Density = 1.858530 g / cm^3
# Si number density = 18.627702 Si / 1000 Ang^3
#
#
#
# Elastic Constant Matrix: (Units=GPa)
#
#
# Indices 1 2 3 4 5 6 
#
# 1 106.5459 47.9999 33.0414 0.0000 0.0000 0.0000
# 2 47.9999 106.5459 33.0414 0.0000 0.0000 0.0000
# 3 33.0414 33.0414 58.0713 0.0000 0.0000 0.0000
# 4 0.0000 0.0000 0.0000 38.3239 0.0000 0.0000
# 5 0.0000 0.0000 0.0000 0.0000 38.3239 0.0000
# 6 0.0000 0.0000 0.0000 0.0000 0.0000 29.1565
#
#
#
# Elastic Compliance Matrix: (Units=1/GPa)
#
#
# Indices 1 2 3 4 5 6 
#
# 1 0.012816 -0.004265 -0.004865 0.000000 0.000000 0.000000
# 2 -0.004265 0.012816 -0.004865 0.000000 0.000000 0.000000
# 3 -0.004865 -0.004865 0.022757 0.000000 0.000000 0.000000
# 4 0.000000 0.000000 0.000000 0.026093 0.000000 0.000000
# 5 0.000000 0.000000 0.000000 0.000000 0.026093 0.000000
# 6 0.000000 0.000000 0.000000 0.000000 0.000000 0.034298
#
#
# Mechanical properties :
#
#
# Convention : Reuss Voigt Hill
#
# Bulk Modulus (GPa) = 49.02593 55.48095 52.25344
# Shear Modulus (GPa) = 29.47023 31.63288 30.55156
#
# Velocity S-wave (km/s) = 3.98183 4.12535 4.05423
# Velocity P-wave (km/s) = 6.89318 7.24845 7.07305
#
# Compressibility (1/GPa) = 0.02039737
#
# Stress axis : x y z
#
# Youngs Moduli (GPa) = 78.02893 78.02893 43.94306
#
# Poissons Ratio (x) = 0.33278 0.21380
# Poissons Ratio (y) = 0.33278 0.21380
# Poissons Ratio (z) = 0.37964 0.37964
#
# Static dielectric constant tensor:
#      x y z
#    x 1.649170 0.000000 0.000000 
#    y 0.000000 1.649170 0.000000 
#    z 0.000000 0.000000 1.644530 
# 
# From -- ./inp_files/7774.got.cif
#   From: 2010.05.17/outbox.cif.g08.bks.cpg/sg122_4_cif.got.tgz:7774.got - 2010.05.20 11:37:33.
