data_PCOD9561788
_publ_section_title
;
Structure prediction by ZEFSAII (Michael W. Deem and Ramdas Pophale) SiO2 
 PCOD9561788
Probable space group: P 4/M M M
;
_chemical_formula_sum "Si O2"
_cell_formula_units_Z 88
_cell_length_a 13.873144
_cell_length_b 13.873144
_cell_length_c 28.838952
_cell_angle_alpha 90.000000
_cell_angle_beta 90.000000
_cell_angle_gamma 90.000000
_cell_volume 5550.463647
_symmetry_space_group_name_H-M "P 4/M M M"
_symmetry_group_IT_number 123
_symmetry_cell_setting 'tetragonal'
loop_
_space_group_symop_operation_xyz
x,y,z
-y,x,z
-x,-y,z
y,-x,z
x,-y,-z
-x,y,-z
y,x,-z
-y,-x,-z
-x,-y,-z
y,-x,-z
x,y,-z
-y,x,-z
-x,y,z
x,-y,z
-y,-x,z
y,x,z
loop_
_atom_site_type_symbol
_atom_site_label
_atom_site_fract_x
_atom_site_fract_y
_atom_site_fract_z
Si Si1 0.773181 0.614698 0.130326
Si Si2 0.616834 0.110120 0.222885
Si Si3 0.112826 0.271602 0.945482
Si Si4 0.772610 0.615915 0.500000
Si Si5 0.383113 0.889857 0.592310
Si Si6 0.384051 0.772840 0.315264
O O1 0.759024 0.500000 0.130210
O O2 0.673833 0.673833 0.128622
O O3 0.830353 0.643481 0.177131
O O4 0.837873 0.649008 0.087059
O O5 0.500000 0.105704 0.222930
O O6 0.643517 0.165740 0.269792
O O7 0.652468 0.000000 0.221882
O O8 0.173260 0.173260 0.938013
O O9 0.000000 0.260677 0.934824
O O10 0.121919 0.296376 0.000000
O O11 0.759558 0.500000 0.500000
O O12 0.672304 0.672304 0.500000
O O13 0.832869 0.643562 0.545809
O O14 0.500000 0.894161 0.592296
O O15 0.356566 0.832246 0.638647
O O16 0.347816 0.000000 0.592474
O O17 0.500000 0.759521 0.315158
O O18 0.327327 0.672674 0.314777
#
# Coordination Sequence:
#
# PCOD9561788 Si02
#       6
#    16  16  16   8  16  16
#     4  10  20  33  49  70  97 128 162 199 238 284
#     4   9  17  30  48  68  90 118 153 194 237 275
#     4   9  18  32  50  73  99 126 158 197 242 291
#     4  10  19  30  45  67  96 126 153 181 216 267
#     4   9  17  30  47  65  87 117 153 195 237 267
#     4  10  19  30  45  67  96 127 157 188 224 273
#
# _framework density 15.854531
#
# number of rings (size 3 to 8) (size 9 to 14) (size 15 to 20)
#    0.000    2.545    0.000    2.455    0.000    5.364 
#    0.000    1.818    0.000    6.545    0.000    2.545 
#    0.000   39.273    0.000    0.000    0.000    0.000 
#
# Total GULP energy -490422.357883 kJ/mol
# GULP energy per Si atom -5572.981340 kJ/mol
# Density = 1.581845 g / cm^3
# Si number density = 15.854531 Si / 1000 Ang^3
#
#
#
# Elastic Constant Matrix: (Units=GPa)
#
#
# Indices 1 2 3 4 5 6 
#
# 1 89.2856 51.6124 55.8387 0.0000 0.0000 0.0000
# 2 51.6124 89.2856 55.8387 0.0000 0.0000 0.0000
# 3 55.8387 55.8387 114.0724 0.0000 0.0000 0.0000
# 4 0.0000 0.0000 0.0000 17.7473 0.0000 0.0000
# 5 0.0000 0.0000 0.0000 0.0000 17.7473 0.0000
# 6 0.0000 0.0000 0.0000 0.0000 0.0000 4.5871
#
#
#
# Elastic Compliance Matrix: (Units=1/GPa)
#
#
# Indices 1 2 3 4 5 6 
#
# 1 0.019070 -0.007474 -0.005677 0.000000 0.000000 0.000000
# 2 -0.007474 0.019070 -0.005677 0.000000 0.000000 0.000000
# 3 -0.005677 -0.005677 0.014324 0.000000 0.000000 0.000000
# 4 0.000000 0.000000 0.000000 0.056347 0.000000 0.000000
# 5 0.000000 0.000000 0.000000 0.000000 0.056347 0.000000
# 6 0.000000 0.000000 0.000000 0.000000 0.000000 0.218003
#
#
# Mechanical properties :
#
#
# Convention : Reuss Voigt Hill
#
# Bulk Modulus (GPa) = 67.51864 68.80260 68.16062
# Shear Modulus (GPa) = 11.74393 16.63990 14.19192
#
# Velocity S-wave (km/s) = 2.72459 3.24317 2.99512
# Velocity P-wave (km/s) = 7.25097 7.58384 7.41927
#
# Compressibility (1/GPa) = 0.01481072
#
# Stress axis : x y z
#
# Youngs Moduli (GPa) = 52.43734 52.43734 69.81397
#
# Poissons Ratio (x) = 0.39190 0.39631
# Poissons Ratio (y) = 0.39190 0.39631
# Poissons Ratio (z) = 0.29767 0.29767
#
# Static dielectric constant tensor:
#      x y z
#    x 1.511440 0.000000 0.000000 
#    y 0.000000 1.511440 0.000000 
#    z 0.000000 0.000000 1.535760 
# 
# From -- ./inp_files/7220.got.cif
#   From: 2010.05.17/outbox.cif.g08.bks.cpg/sg123_4_cif.got.tgz:7220.got - 2010.05.20 11:43:04.
