data_PCOD9561802
_publ_section_title
;
Structure prediction by ZEFSAII (Michael W. Deem and Ramdas Pophale) SiO2 
 PCOD9561802
Probable space group: P 4/M M M
;
_chemical_formula_sum "Si O2"
_cell_formula_units_Z 112
_cell_length_a 19.065287
_cell_length_b 19.065287
_cell_length_c 19.209151
_cell_angle_alpha 90.000000
_cell_angle_beta 90.000000
_cell_angle_gamma 90.000000
_cell_volume 6982.241486
_symmetry_space_group_name_H-M "P 4/M M M"
_symmetry_group_IT_number 123
_symmetry_cell_setting 'tetragonal'
loop_
_space_group_symop_operation_xyz
x,y,z
-y,x,z
-x,-y,z
y,-x,z
x,-y,-z
-x,y,-z
y,x,-z
-y,-x,-z
-x,-y,-z
y,-x,-z
x,y,-z
-y,x,-z
-x,y,z
x,-y,z
-y,-x,z
y,x,z
loop_
_atom_site_type_symbol
_atom_site_label
_atom_site_fract_x
_atom_site_fract_y
_atom_site_fract_z
Si Si1 0.917086 0.800961 0.853790
Si Si2 0.157559 0.418411 0.790668
Si Si3 0.708484 0.919012 0.278826
Si Si4 0.349449 0.917008 0.080350
Si Si5 0.261366 0.142565 0.576896
Si Si6 0.739780 0.379433 0.424135
Si Si7 0.422579 0.304616 0.725330
O O1 0.865316 0.865316 0.868877
O O2 0.900252 0.768393 0.777435
O O3 0.906624 0.733458 0.903766
O O4 0.000000 0.819995 0.856043
O O5 0.138888 0.500000 0.777743
O O6 0.123688 0.361946 0.738124
O O7 0.129185 0.393796 0.865742
O O8 0.240922 0.412262 0.779168
O O9 0.734886 0.906493 0.356581
O O10 0.692027 0.000000 0.266472
O O11 0.363395 0.000000 0.093269
O O12 0.364690 0.901765 0.000000
O O13 0.258580 0.109372 0.500000
O O14 0.195826 0.195826 0.582811
O O15 0.330508 0.191634 0.579660
O O16 0.740649 0.415917 0.500000
O O17 0.674710 0.325291 0.425858
O O18 0.729310 0.420147 0.352403
O O19 0.500000 0.335432 0.735395
O O20 0.361844 0.361844 0.730798
#
# Coordination Sequence:
#
# PCOD9561802 Si02
#       7
#    16  16  16  16  16  16  16
#     4   9  18  31  48  71  98 129 162 195 234 282
#     4  10  20  33  50  73  97 126 162 193 228 281
#     4  10  19  30  46  68  96 128 161 202 246 284
#     4   9  19  35  53  75 102 128 155 191 237 283
#     4   9  16  27  45  67  90 120 161 206 247 286
#     4   8  14  26  45  67  89 117 155 196 238 283
#     4  10  20  33  50  72  97 126 161 203 247 291
#
# _framework density 16.040693999999998
#
# number of rings (size 3 to 8) (size 9 to 14) (size 15 to 20)
#    0.000    2.714    1.429    2.571    0.000    4.857 
#    0.000    0.714    0.000    0.429    0.000    5.000 
#    0.000    0.000    0.000   16.429    0.000    0.000 
#
# Total GULP energy -623510.192445 kJ/mol
# GULP energy per Si atom -5567.055290 kJ/mol
# Density = 1.600418 g / cm^3
# Si number density = 16.040694 Si / 1000 Ang^3
#
#
#
# Elastic Constant Matrix: (Units=GPa)
#
#
# Indices 1 2 3 4 5 6 
#
# 1 46.0136 31.1942 15.2768 0.0000 0.0000 0.0000
# 2 31.1942 46.0136 15.2768 0.0000 0.0000 0.0000
# 3 15.2768 15.2768 98.8839 0.0000 0.0000 0.0000
# 4 0.0000 0.0000 0.0000 7.8063 0.0000 0.0000
# 5 0.0000 0.0000 0.0000 0.0000 7.8063 0.0000
# 6 0.0000 0.0000 0.0000 0.0000 0.0000 -24.1560
#
#
#
# Elastic Compliance Matrix: (Units=1/GPa)
#
#
# Indices 1 2 3 4 5 6 
#
# 1 0.040637 -0.026842 -0.002131 0.000000 0.000000 0.000000
# 2 -0.026842 0.040637 -0.002131 0.000000 0.000000 0.000000
# 3 -0.002131 -0.002131 0.010771 0.000000 0.000000 0.000000
# 4 0.000000 0.000000 0.000000 0.128102 0.000000 0.000000
# 5 0.000000 0.000000 0.000000 0.000000 0.128102 0.000000
# 6 0.000000 0.000000 0.000000 0.000000 0.000000 -0.041398
#
#
# Mechanical properties :
#
#
# Convention : Reuss Voigt Hill
#
# Bulk Modulus (GPa) = 33.51521 34.93407 34.22464
# Shear Modulus (GPa) = 13.19237 6.90219 10.04728
#
# Velocity S-wave (km/s) = 2.87092 2.07660 2.50544
# Velocity P-wave (km/s) = 5.65056 5.25123 5.45455
#
# Compressibility (1/GPa) = 0.02983720
#
# Stress axis : x y z
#
# Youngs Moduli (GPa) = 24.60786 24.60786 92.83838
#
# Poissons Ratio (x) = 0.66052 0.19787
# Poissons Ratio (y) = 0.66052 0.19787
# Poissons Ratio (z) = 0.05245 0.05245
#
# Static dielectric constant tensor:
#      x y z
#    x 1.521750 0.000000 0.000000 
#    y 0.000000 1.521750 0.000000 
#    z 0.000000 0.000000 1.565040 
# 
# From -- ./inp_files/6645.got.cif
#   From: 2010.05.17/outbox.cif.g08.bks.cpg/sg123_4_cif.got.tgz:6645.got - 2010.05.20 11:43:04.
