data_PCOD9561445
_publ_section_title
;
Structure prediction by ZEFSAII (Michael W. Deem and Ramdas Pophale) SiO2 
 PCOD9561445
Probable space group: I -4 2 D
;
_chemical_formula_sum "Si O2"
_cell_formula_units_Z 96
_cell_length_a 22.942972
_cell_length_b 22.942972
_cell_length_c 8.689342
_cell_angle_alpha 90.000000
_cell_angle_beta 90.000000
_cell_angle_gamma 90.000000
_cell_volume 4573.895531
_symmetry_space_group_name_H-M "I -4 2 D"
_symmetry_group_IT_number 122
_symmetry_cell_setting 'tetragonal'
loop_
_space_group_symop_operation_xyz
x,y,z
y,-x,-z
-x,-y,z
-y,x,-z
x,1/2-y,1/4-z
-x,1/2+y,1/4-z
-y,1/2-x,1/4+z
y,1/2+x,1/4+z
1/2+x,1/2+y,1/2+z
1/2+y,1/2-x,1/2-z
1/2-x,1/2-y,1/2+z
1/2-y,1/2+x,1/2-z
1/2+x,-y,3/4-z
1/2-x,y,3/4-z
1/2-y,-x,3/4+z
1/2+y,x,3/4+z
loop_
_atom_site_type_symbol
_atom_site_label
_atom_site_fract_x
_atom_site_fract_y
_atom_site_fract_z
Si Si1 0.844943 0.540187 0.729560
Si Si2 0.115951 0.750000 0.625000
Si Si3 0.084392 0.546694 0.228672
Si Si4 0.190908 0.542146 0.456954
Si Si5 0.250000 0.651461 0.875000
Si Si6 0.328096 0.281689 0.788224
Si Si7 0.867220 0.074621 0.348182
O O1 0.787309 0.576626 0.762361
O O2 0.834457 0.503922 0.575443
O O3 0.854448 0.491938 0.859391
O O4 0.897676 0.585503 0.713873
O O5 0.157224 0.794930 0.713892
O O6 0.073294 0.476961 0.214496
O O7 0.139069 0.556341 0.339840
O O8 0.103034 0.574936 0.067981
O O9 0.250000 0.520445 0.375000
O O10 0.209449 0.602107 0.539794
O O11 0.244537 0.685312 0.710065
O O12 0.191829 0.612256 0.893358
O O13 0.315914 0.250000 0.625000
#
# Coordination Sequence:
#
# PCOD9561445 Si02
#       7
#    16   8  16  16   8  16  16
#     4  12  26  45  72 102 140 186 238 297 356 435
#     4  12  27  46  72 110 134 186 255 292 356 448
#     4  11  26  43  71 103 140 184 238 298 358 431
#     4  11  24  47  68 104 141 184 234 292 369 425
#     4  12  23  50  72 104 142 194 233 290 382 418
#     4  11  26  47  74 100 147 188 234 304 358 429
#     4  12  26  45  71 102 142 188 236 295 361 434
#
# _framework density 20.988674
#
# number of rings (size 3 to 8) (size 9 to 14) (size 15 to 20)
#    0.000    0.500    5.000    2.500    8.167    0.333 
#    3.000    0.000    0.000    0.000    0.000    0.000 
#    0.000    0.000    0.000    0.000    0.000    0.000 
#
# Total GULP energy -268340.143147 kJ/mol
# GULP energy per Si atom -5590.419649 kJ/mol
# Density = 2.094090 g / cm^3
# Si number density = 20.988674 Si / 1000 Ang^3
#
#
#
# Elastic Constant Matrix: (Units=GPa)
#
#
# Indices 1 2 3 4 5 6 
#
# 1 62.8952 3.3689 20.0673 0.0000 0.0000 0.0000
# 2 3.3689 62.8952 20.0673 0.0000 0.0000 0.0000
# 3 20.0673 20.0673 104.2752 0.0000 0.0000 0.0000
# 4 0.0000 0.0000 0.0000 28.8231 0.0000 0.0000
# 5 0.0000 0.0000 0.0000 0.0000 28.8231 0.0000
# 6 0.0000 0.0000 0.0000 0.0000 0.0000 14.5745
#
#
#
# Elastic Compliance Matrix: (Units=1/GPa)
#
#
# Indices 1 2 3 4 5 6 
#
# 1 0.016941 0.000141 -0.003287 0.000000 0.000000 0.000000
# 2 0.000141 0.016941 -0.003287 0.000000 0.000000 0.000000
# 3 -0.003287 -0.003287 0.010855 0.000000 0.000000 0.000000
# 4 0.000000 0.000000 0.000000 0.034694 0.000000 0.000000
# 5 0.000000 0.000000 0.000000 0.000000 0.034694 0.000000
# 6 0.000000 0.000000 0.000000 0.000000 0.000000 0.068613
#
#
# Mechanical properties :
#
#
# Convention : Reuss Voigt Hill
#
# Bulk Modulus (GPa) = 31.37733 35.23030 33.30381
# Shear Modulus (GPa) = 24.24493 26.88163 25.56328
#
# Velocity S-wave (km/s) = 3.40243 3.58266 3.49371
# Velocity P-wave (km/s) = 5.51520 5.82544 5.67244
#
# Compressibility (1/GPa) = 0.03187014
#
# Stress axis : x y z
#
# Youngs Moduli (GPa) = 59.02925 59.02925 92.12095
#
# Poissons Ratio (x) = -0.00835 0.30284
# Poissons Ratio (y) = -0.00835 0.30284
# Poissons Ratio (z) = 0.19405 0.19405
#
# Static dielectric constant tensor:
#      x y z
#    x 1.731370 0.000000 0.000000 
#    y 0.000000 1.731370 0.000000 
#    z 0.000000 0.000000 1.846830 
# 
# From -- ./inp_files/2963.got.cif
#   From: 2010.05.17/outbox.cif.g08.bks.cpg/sg122_2_cif.got.tgz:2963.got - 2010.05.20 11:37:33.
