data_PCOD9561442
_publ_section_title
;
Structure prediction by ZEFSAII (Michael W. Deem and Ramdas Pophale) SiO2 
 PCOD9561442
Probable space group: I -4 2 D
;
_chemical_formula_sum "Si O2"
_cell_formula_units_Z 64
_cell_length_a 14.655778
_cell_length_b 14.655778
_cell_length_c 14.759683
_cell_angle_alpha 90.000000
_cell_angle_beta 90.000000
_cell_angle_gamma 90.000000
_cell_volume 3170.259304
_symmetry_space_group_name_H-M "I -4 2 D"
_symmetry_group_IT_number 122
_symmetry_cell_setting 'tetragonal'
loop_
_space_group_symop_operation_xyz
x,y,z
y,-x,-z
-x,-y,z
-y,x,-z
x,1/2-y,1/4-z
-x,1/2+y,1/4-z
-y,1/2-x,1/4+z
y,1/2+x,1/4+z
1/2+x,1/2+y,1/2+z
1/2+y,1/2-x,1/2-z
1/2-x,1/2-y,1/2+z
1/2-y,1/2+x,1/2-z
1/2+x,-y,3/4-z
1/2-x,y,3/4-z
1/2-y,-x,3/4+z
1/2+y,x,3/4+z
loop_
_atom_site_type_symbol
_atom_site_label
_atom_site_fract_x
_atom_site_fract_y
_atom_site_fract_z
Si Si1 0.124711 0.307909 0.203872
Si Si2 0.025889 0.239806 0.733229
Si Si3 0.389814 0.504717 0.616575
Si Si4 0.716902 0.824670 0.272312
O O1 0.072116 0.250000 0.125000
O O2 0.145366 0.404519 0.158759
O O3 0.071198 0.338484 0.294989
O O4 0.213007 0.246577 0.226344
O O5 0.030996 0.250000 0.625000
O O6 0.928249 0.279611 0.762919
O O7 0.028425 0.140400 0.781144
O O8 0.114253 0.290733 0.769067
O O9 0.500000 0.500000 0.606415
O O10 0.750000 0.829401 0.375000
#
# Coordination Sequence:
#
# PCOD9561442 Si02
#       4
#    16  16  16  16
#     4  12  23  42  73 105 142 183 231 301 377 423
#     4  11  26  48  68 101 143 186 248 287 371 433
#     4  12  25  46  72 111 143 185 251 300 363 447
#     4  11  24  46  72  98 137 192 231 299 351 439
#
# _framework density 20.187624
#
# number of rings (size 3 to 8) (size 9 to 14) (size 15 to 20)
#    0.000    0.500    7.500    0.750    0.000    3.500 
#    9.000    0.000    0.000    0.000    0.000    0.000 
#    0.000    0.000    0.000    0.000    0.000    0.000 
#
# Total GULP energy -178370.687694 kJ/mol
# GULP energy per Si atom -5574.083990 kJ/mol
# Density = 2.014168 g / cm^3
# Si number density = 20.187624 Si / 1000 Ang^3
#
#
#
# Elastic Constant Matrix: (Units=GPa)
#
#
# Indices 1 2 3 4 5 6 
#
# 1 150.9945 81.3386 46.5598 0.0000 0.0000 0.0000
# 2 81.3386 150.9945 46.5598 0.0000 0.0000 0.0000
# 3 46.5598 46.5598 123.1002 0.0000 0.0000 0.0000
# 4 0.0000 0.0000 0.0000 31.7376 0.0000 0.0000
# 5 0.0000 0.0000 0.0000 0.0000 31.7376 0.0000
# 6 0.0000 0.0000 0.0000 0.0000 0.0000 17.3011
#
#
#
# Elastic Compliance Matrix: (Units=1/GPa)
#
#
# Indices 1 2 3 4 5 6 
#
# 1 0.009715 -0.004642 -0.001919 0.000000 0.000000 0.000000
# 2 -0.004642 0.009715 -0.001919 0.000000 0.000000 0.000000
# 3 -0.001919 -0.001919 0.009575 0.000000 0.000000 0.000000
# 4 0.000000 0.000000 0.000000 0.031508 0.000000 0.000000
# 5 0.000000 0.000000 0.000000 0.000000 0.031508 0.000000
# 6 0.000000 0.000000 0.000000 0.000000 0.000000 0.057800
#
#
# Mechanical properties :
#
#
# Convention : Reuss Voigt Hill
#
# Bulk Modulus (GPa) = 83.01435 86.00062 84.50748
# Shear Modulus (GPa) = 29.27489 32.86398 31.06944
#
# Velocity S-wave (km/s) = 3.81220 4.03914 3.92731
# Velocity P-wave (km/s) = 7.78382 8.02782 7.90676
#
# Compressibility (1/GPa) = 0.01204611
#
# Stress axis : x y z
#
# Youngs Moduli (GPa) = 102.93613 102.93613 104.43893
#
# Poissons Ratio (x) = 0.47778 0.20040
# Poissons Ratio (y) = 0.47778 0.20040
# Poissons Ratio (z) = 0.19752 0.19752
#
# Static dielectric constant tensor:
#      x y z
#    x 1.710710 0.000000 0.000000 
#    y 0.000000 1.710710 0.000000 
#    z 0.000000 0.000000 1.827750 
# 
# From -- ./inp_files/5135.got.cif
#   From: 2010.05.17/outbox.cif.g08.bks.cpg/sg122_3_cif.got.tgz:5135.got - 2010.05.20 11:37:33.
