data_PCOD9561876
_publ_section_title
;
Structure prediction by ZEFSAII (Michael W. Deem and Ramdas Pophale) SiO2 
 PCOD9561876
Probable space group: P 4/M M M
;
_chemical_formula_sum "Si O2"
_cell_formula_units_Z 58
_cell_length_a 12.746527
_cell_length_b 12.746527
_cell_length_c 22.115513
_cell_angle_alpha 90.000000
_cell_angle_beta 90.000000
_cell_angle_gamma 90.000000
_cell_volume 3593.194766
_symmetry_space_group_name_H-M "P 4/M M M"
_symmetry_group_IT_number 123
_symmetry_cell_setting 'tetragonal'
loop_
_space_group_symop_operation_xyz
x,y,z
-y,x,z
-x,-y,z
y,-x,z
x,-y,-z
-x,y,-z
y,x,-z
-y,-x,-z
-x,-y,-z
y,-x,-z
x,y,-z
-y,x,-z
-x,y,z
x,-y,z
-y,-x,z
y,x,z
loop_
_atom_site_type_symbol
_atom_site_label
_atom_site_fract_x
_atom_site_fract_y
_atom_site_fract_z
Si Si1 0.500000 0.121112 0.347027
Si Si2 0.375980 0.882892 0.132423
Si Si3 0.500000 0.327077 0.572665
Si Si4 0.500000 0.500000 0.888354
Si Si5 0.331546 0.331546 0.070276
Si Si6 0.120181 0.709159 0.267050
O O1 0.500000 0.214383 0.395676
O O2 0.397072 0.133163 0.305352
O O3 0.500000 0.000000 0.370415
O O4 0.500000 0.882357 0.145171
O O5 0.352952 0.788937 0.087010
O O6 0.318585 0.865460 0.196294
O O7 0.348348 0.000000 0.110010
O O8 0.601674 0.398327 0.589111
O O9 0.500000 0.316216 0.500000
O O10 0.407981 0.592020 0.892380
O O11 0.353335 0.353335 0.000000
O O12 0.203592 0.796409 0.285229
O O13 0.000000 0.744973 0.275112
#
# Coordination Sequence:
#
# PCOD9561876 Si02
#       6
#     8  16   8   2   8  16
#     4  10  19  31  50  77 105 134 167 206 249 291
#     4  10  20  35  53  73  98 129 165 202 247 304
#     4   9  18  33  52  74 104 141 175 207 242 284
#     4  12  25  36  48  76 100 120 152 188 245 302
#     4  12  23  36  54  73 100 129 158 204 254 303
#     4  10  19  32  51  74 100 129 163 205 250 295
#
# _framework density 16.141625000000001
#
# number of rings (size 3 to 8) (size 9 to 14) (size 15 to 20)
#    0.000    1.793    4.138    1.862    0.000    1.103 
#    0.000    1.379    0.000    0.414    0.000    0.966 
#    0.000    0.000    0.000   25.655    0.000    0.000 
#
# Total GULP energy -322878.739830 kJ/mol
# GULP energy per Si atom -5566.874825 kJ/mol
# Density = 1.610489 g / cm^3
# Si number density = 16.141625 Si / 1000 Ang^3
#
#
#
# Elastic Constant Matrix: (Units=GPa)
#
#
# Indices 1 2 3 4 5 6 
#
# 1 105.5450 55.9245 12.8273 0.0000 0.0000 0.0000
# 2 55.9245 105.5450 12.8273 0.0000 0.0000 0.0000
# 3 12.8273 12.8273 16.4699 0.0000 0.0000 0.0000
# 4 0.0000 0.0000 0.0000 -0.8159 0.0000 0.0000
# 5 0.0000 0.0000 0.0000 0.0000 -0.8159 0.0000
# 6 0.0000 0.0000 0.0000 0.0000 0.0000 23.5518
#
#
#
# Elastic Compliance Matrix: (Units=1/GPa)
#
#
# Indices 1 2 3 4 5 6 
#
# 1 0.013610 -0.006543 -0.005505 0.000000 0.000000 0.000000
# 2 -0.006543 0.013610 -0.005505 0.000000 0.000000 0.000000
# 3 -0.005505 -0.005505 0.069291 0.000000 0.000000 0.000000
# 4 0.000000 0.000000 0.000000 -1.225608 0.000000 0.000000
# 5 0.000000 0.000000 0.000000 0.000000 -1.225608 0.000000
# 6 0.000000 0.000000 0.000000 0.000000 0.000000 0.042460
#
#
# Mechanical properties :
#
#
# Convention : Reuss Voigt Hill
#
# Bulk Modulus (GPa) = 16.28444 43.41313 29.84878
# Shear Modulus (GPa) = -2.21565 14.11605 5.95020
#
# Velocity S-wave (km/s) = -1.17287 2.96042 1.92204
# Velocity P-wave (km/s) = 2.87684 6.21603 4.84331
#
# Compressibility (1/GPa) = 0.06140832
#
# Stress axis : x y z
#
# Youngs Moduli (GPa) = 73.47366 73.47366 14.43184
#
# Poissons Ratio (x) = 0.48071 0.07944
# Poissons Ratio (y) = 0.48071 0.07944
# Poissons Ratio (z) = 0.40444 0.40444
#
# Static dielectric constant tensor:
#      x y z
#    x 1.541910 0.000000 0.000000 
#    y 0.000000 1.541910 0.000000 
#    z 0.000000 0.000000 1.522670 
# 
# From -- ./inp_files/6204.got.cif
#   From: 2010.05.17/outbox.cif.g08.bks.cpg/sg123_4_cif.got.tgz:6204.got - 2010.05.20 11:43:04.
