data_PCOD9561766
_publ_section_title
;
Structure prediction by ZEFSAII (Michael W. Deem and Ramdas Pophale) SiO2 
 PCOD9561766
Probable space group: P 4/M M M
;
_chemical_formula_sum "Si O2"
_cell_formula_units_Z 40
_cell_length_a 14.261156
_cell_length_b 14.261156
_cell_length_c 13.109296
_cell_angle_alpha 90.000000
_cell_angle_beta 90.000000
_cell_angle_gamma 90.000000
_cell_volume 2666.176099
_symmetry_space_group_name_H-M "P 4/M M M"
_symmetry_group_IT_number 123
_symmetry_cell_setting 'tetragonal'
loop_
_space_group_symop_operation_xyz
x,y,z
-y,x,z
-x,-y,z
y,-x,z
x,-y,-z
-x,y,-z
y,x,-z
-y,-x,-z
-x,-y,-z
y,-x,-z
x,y,-z
-y,x,-z
-x,y,z
x,-y,z
-y,-x,z
y,x,z
loop_
_atom_site_type_symbol
_atom_site_label
_atom_site_fract_x
_atom_site_fract_y
_atom_site_fract_z
Si Si1 0.386401 0.893515 0.805438
Si Si2 0.765459 0.610543 0.382264
Si Si3 0.387140 0.766576 0.000000
O O1 0.500000 0.898424 0.806728
O O2 0.360483 0.843719 0.699432
O O3 0.351239 0.000000 0.814658
O O4 0.361144 0.827688 0.900493
O O5 0.796125 0.622321 0.500000
O O6 0.745035 0.500000 0.367039
O O7 0.673421 0.673421 0.366850
O O8 0.500000 0.751954 0.000000
O O9 0.329599 0.670402 0.000000
#
# Coordination Sequence:
#
# PCOD9561766 Si02
#       3
#    16  16   8
#     4   9  17  29  44  61  83 113 147 181 217 252
#     4   9  17  28  42  62  89 119 148 177 209 249
#     4  10  19  30  45  65  90 118 145 173 206 249
#
# _framework density 15.00276
#
# number of rings (size 3 to 8) (size 9 to 14) (size 15 to 20)
#    0.000    2.800    0.000    1.800    0.000    3.800 
#    0.000    6.000    0.000    7.200    0.000    0.000 
#    0.000   32.800    0.000   17.600    0.000    1.600 
#
# Total GULP energy -222709.483994 kJ/mol
# GULP energy per Si atom -5567.737100 kJ/mol
# Density = 1.496861 g / cm^3
# Si number density = 15.002760 Si / 1000 Ang^3
#
#
#
# Elastic Constant Matrix: (Units=GPa)
#
#
# Indices 1 2 3 4 5 6 
#
# 1 67.9581 41.3168 51.7788 0.0000 0.0000 0.0000
# 2 41.3168 67.9627 51.7805 0.0000 0.0000 0.0000
# 3 51.7788 51.7805 105.0759 0.0000 0.0000 0.0000
# 4 0.0000 0.0000 0.0000 17.8636 0.0000 0.0000
# 5 0.0000 0.0000 0.0000 0.0000 17.8632 0.0000
# 6 0.0000 0.0000 0.0000 0.0000 0.0000 0.6394
#
#
#
# Elastic Compliance Matrix: (Units=1/GPa)
#
#
# Indices 1 2 3 4 5 6 
#
# 1 0.027352 -0.010182 -0.008461 0.000000 0.000000 0.000000
# 2 -0.010182 0.027350 -0.008460 0.000000 0.000000 0.000000
# 3 -0.008461 -0.008460 0.017855 0.000000 0.000000 0.000000
# 4 0.000000 0.000000 0.000000 0.055980 0.000000 0.000000
# 5 0.000000 0.000000 0.000000 0.000000 0.055981 0.000000
# 6 0.000000 0.000000 0.000000 0.000000 0.000000 1.563871
#
#
# Mechanical properties :
#
#
# Convention : Reuss Voigt Hill
#
# Bulk Modulus (GPa) = 54.49302 58.97209 56.73256
# Shear Modulus (GPa) = 2.76440 13.68127 8.22283
#
# Velocity S-wave (km/s) = 1.35889 3.02307 2.34367
# Velocity P-wave (km/s) = 6.23402 7.18179 6.72462
#
# Compressibility (1/GPa) = 0.01835097
#
# Stress axis : x y z
#
# Youngs Moduli (GPa) = 36.56090 36.56343 56.00552
#
# Poissons Ratio (x) = 0.37228 0.47385
# Poissons Ratio (y) = 0.37225 0.47383
# Poissons Ratio (z) = 0.30933 0.30934
#
# Static dielectric constant tensor:
#      x y z
#    x 1.477760 0.000000 0.000000 
#    y 0.000000 1.477760 0.000000 
#    z 0.000000 0.000000 1.520380 
# 
# From -- ./inp_files/2282.got.cif
#   From: 2010.05.17/outbox.cif.g08.bks.cpg/sg123_2_cif.got.tgz:2282.got - 2010.05.20 11:43:04.
