data_PCOD9561233
_publ_section_title
;
Structure prediction by ZEFSAII (Michael W. Deem and Ramdas Pophale) SiO2 
 PCOD9561233
Probable space group: I -4 2 D
;
_chemical_formula_sum "Si O2"
_cell_formula_units_Z 60
_cell_length_a 10.545043
_cell_length_b 10.545043
_cell_length_c 23.045227
_cell_angle_alpha 90.000000
_cell_angle_beta 90.000000
_cell_angle_gamma 90.000000
_cell_volume 2562.581582
_symmetry_space_group_name_H-M "I -4 2 D"
_symmetry_group_IT_number 122
_symmetry_cell_setting 'tetragonal'
loop_
_space_group_symop_operation_xyz
x,y,z
y,-x,-z
-x,-y,z
-y,x,-z
x,1/2-y,1/4-z
-x,1/2+y,1/4-z
-y,1/2-x,1/4+z
y,1/2+x,1/4+z
1/2+x,1/2+y,1/2+z
1/2+y,1/2-x,1/2-z
1/2-x,1/2-y,1/2+z
1/2-y,1/2+x,1/2-z
1/2+x,-y,3/4-z
1/2-x,y,3/4-z
1/2-y,-x,3/4+z
1/2+y,x,3/4+z
loop_
_atom_site_type_symbol
_atom_site_label
_atom_site_fract_x
_atom_site_fract_y
_atom_site_fract_z
Si Si1 0.916411 0.195769 0.849727
Si Si2 0.500000 0.000000 0.510323
Si Si3 0.000000 0.500000 0.750000
Si Si4 0.314445 0.711208 0.788965
Si Si5 0.176970 0.675146 0.679531
O O1 0.820132 0.300030 0.822992
O O2 0.882335 0.189152 0.917722
O O3 0.059144 0.240639 0.844203
O O4 0.910022 0.078049 0.805155
O O5 0.404111 0.912429 0.472031
O O6 0.062620 0.611459 0.713329
O O7 0.266795 0.749541 0.724775
O O8 0.129326 0.750000 0.625000
#
# Coordination Sequence:
#
# PCOD9561233 Si02
#       5
#    16   8   4  16  16
#     4  10  23  47  69 106 147 196 248 318 378 461
#     4  10  24  47  74 107 153 201 250 324 388 458
#     4  12  24  42  68 104 144 190 248 308 386 460
#     4  10  23  47  73 103 148 190 255 312 380 457
#     4  11  25  44  69 105 145 191 248 316 383 451
#
# _framework density 23.413888
#
# number of rings (size 3 to 8) (size 9 to 14) (size 15 to 20)
#    0.000    1.600    2.667    0.000    3.733    3.200 
#   19.200    0.000    0.000    0.000    0.000    0.000 
#    0.000    0.000    0.000    0.000    0.000    0.000 
#
# Total GULP energy -167258.163417 kJ/mol
# GULP energy per Si atom -5575.272114 kJ/mol
# Density = 2.336060 g / cm^3
# Si number density = 23.413888 Si / 1000 Ang^3
#
#
#
# Elastic Constant Matrix: (Units=GPa)
#
#
# Indices 1 2 3 4 5 6 
#
# 1 77.1608 28.1967 62.6061 0.0000 0.0000 0.0000
# 2 28.1967 77.1608 62.6061 0.0000 0.0000 0.0000
# 3 62.6061 62.6061 169.2979 0.0000 0.0000 0.0000
# 4 0.0000 0.0000 0.0000 18.2416 0.0000 0.0000
# 5 0.0000 0.0000 0.0000 0.0000 18.2416 0.0000
# 6 0.0000 0.0000 0.0000 0.0000 0.0000 29.5625
#
#
#
# Elastic Compliance Matrix: (Units=1/GPa)
#
#
# Indices 1 2 3 4 5 6 
#
# 1 0.018678 -0.001745 -0.006262 0.000000 0.000000 0.000000
# 2 -0.001745 0.018678 -0.006262 0.000000 0.000000 0.000000
# 3 -0.006262 -0.006262 0.010538 0.000000 0.000000 0.000000
# 4 0.000000 0.000000 0.000000 0.054820 0.000000 0.000000
# 5 0.000000 0.000000 0.000000 0.000000 0.054820 0.000000
# 6 0.000000 0.000000 0.000000 0.000000 0.000000 0.033827
#
#
# Mechanical properties :
#
#
# Convention : Reuss Voigt Hill
#
# Bulk Modulus (GPa) = 51.66031 70.04858 60.85444
# Shear Modulus (GPa) = 22.08962 24.55654 23.32308
#
# Velocity S-wave (km/s) = 3.07488 3.24204 3.15956
# Velocity P-wave (km/s) = 5.89223 6.63301 6.27357
#
# Compressibility (1/GPa) = 0.01935722
#
# Stress axis : x y z
#
# Youngs Moduli (GPa) = 53.53792 53.53792 94.89376
#
# Poissons Ratio (x) = 0.09341 0.59422
# Poissons Ratio (y) = 0.09341 0.59422
# Poissons Ratio (z) = 0.33525 0.33525
#
# Static dielectric constant tensor:
#      x y z
#    x 1.922680 0.000000 0.000000 
#    y 0.000000 1.922680 0.000000 
#    z 0.000000 0.000000 1.944460 
# 
# From -- ./inp_files/6960.got.cif
#   From: 2010.05.17/outbox.cif.g08.bks.cpg/sg122_4_cif.got.tgz:6960.got - 2010.05.20 11:37:33.
