data_PCOD9561180
_publ_section_title
;
Structure prediction by ZEFSAII (Michael W. Deem and Ramdas Pophale) SiO2 
 PCOD9561180
Probable space group: I -4 2 D
;
_chemical_formula_sum "Si O2"
_cell_formula_units_Z 44
_cell_length_a 13.191100
_cell_length_b 13.191100
_cell_length_c 10.516647
_cell_angle_alpha 90.000000
_cell_angle_beta 90.000000
_cell_angle_gamma 90.000000
_cell_volume 1829.950415
_symmetry_space_group_name_H-M "I -4 2 D"
_symmetry_group_IT_number 122
_symmetry_cell_setting 'tetragonal'
loop_
_space_group_symop_operation_xyz
x,y,z
y,-x,-z
-x,-y,z
-y,x,-z
x,1/2-y,1/4-z
-x,1/2+y,1/4-z
-y,1/2-x,1/4+z
y,1/2+x,1/4+z
1/2+x,1/2+y,1/2+z
1/2+y,1/2-x,1/2-z
1/2-x,1/2-y,1/2+z
1/2-y,1/2+x,1/2-z
1/2+x,-y,3/4-z
1/2-x,y,3/4-z
1/2-y,-x,3/4+z
1/2+y,x,3/4+z
loop_
_atom_site_type_symbol
_atom_site_label
_atom_site_fract_x
_atom_site_fract_y
_atom_site_fract_z
Si Si1 0.539161 0.780859 0.772544
Si Si2 0.227820 0.750000 0.625000
Si Si3 0.430114 0.866518 0.289819
Si Si4 0.500000 0.500000 0.500000
O O1 0.534672 0.750000 0.625000
O O2 0.655509 0.787303 0.818535
O O3 0.483598 0.689246 0.844774
O O4 0.490752 0.888935 0.812541
O O5 0.156257 0.703810 0.733674
O O6 0.521507 0.884833 0.188058
#
# Coordination Sequence:
#
# PCOD9561180 Si02
#       4
#    16   8  16   4
#     4  11  25  44  70 104 145 190 247 311 381 449
#     4  10  22  46  66 100 142 194 238 294 372 456
#     4   9  20  42  72 103 134 184 243 301 365 449
#     4  12  28  44  64 104 146 196 236 312 376 450
#
# _framework density 24.044367000000001
#
# number of rings (size 3 to 8) (size 9 to 14) (size 15 to 20)
#    0.000    1.818    0.000    2.182    2.545    8.727 
#   19.636    0.000    0.000    0.000    0.000    0.000 
#    0.000    0.000    0.000    0.000    0.000    0.000 
#
# Total GULP energy -123033.608121 kJ/mol
# GULP energy per Si atom -5592.436733 kJ/mol
# Density = 2.398964 g / cm^3
# Si number density = 24.044367 Si / 1000 Ang^3
#
#
#
# Elastic Constant Matrix: (Units=GPa)
#
#
# Indices 1 2 3 4 5 6 
#
# 1 113.0954 40.2259 34.3667 0.0000 0.0000 0.0000
# 2 40.2259 113.0954 34.3667 0.0000 0.0000 0.0000
# 3 34.3667 34.3667 89.8623 0.0000 0.0000 0.0000
# 4 0.0000 0.0000 0.0000 22.9356 0.0000 0.0000
# 5 0.0000 0.0000 0.0000 0.0000 22.9356 0.0000
# 6 0.0000 0.0000 0.0000 0.0000 0.0000 52.4020
#
#
#
# Elastic Compliance Matrix: (Units=1/GPa)
#
#
# Indices 1 2 3 4 5 6 
#
# 1 0.010797 -0.002926 -0.003010 0.000000 0.000000 0.000000
# 2 -0.002926 0.010797 -0.003010 0.000000 0.000000 0.000000
# 3 -0.003010 -0.003010 0.013431 0.000000 0.000000 0.000000
# 4 0.000000 0.000000 0.000000 0.043600 0.000000 0.000000
# 5 0.000000 0.000000 0.000000 0.000000 0.043600 0.000000
# 6 0.000000 0.000000 0.000000 0.000000 0.000000 0.019083
#
#
# Mechanical properties :
#
#
# Convention : Reuss Voigt Hill
#
# Bulk Modulus (GPa) = 58.36851 59.33016 58.84934
# Shear Modulus (GPa) = 30.31890 33.46092 31.88991
#
# Velocity S-wave (km/s) = 3.55485 3.73451 3.64578
# Velocity P-wave (km/s) = 6.41695 6.58211 6.50006
#
# Compressibility (1/GPa) = 0.01713253
#
# Stress axis : x y z
#
# Youngs Moduli (GPa) = 92.61408 92.61408 74.45587
#
# Poissons Ratio (x) = 0.27096 0.22415
# Poissons Ratio (y) = 0.27096 0.22415
# Poissons Ratio (z) = 0.27881 0.27881
#
# Static dielectric constant tensor:
#      x y z
#    x 1.916800 0.000000 0.000000 
#    y 0.000000 1.916800 0.000000 
#    z 0.000000 0.000000 1.883370 
# 
# From -- ./inp_files/1903.got.cif
#   From: 2010.05.17/outbox.cif.g08.bks.cpg/sg122_1_cif.got.tgz:1903.got - 2010.05.20 11:37:33.
