data_PCOD9561882
_publ_section_title
;
Structure prediction by ZEFSAII (Michael W. Deem and Ramdas Pophale) SiO2 
 PCOD9561882
Probable space group: P 4/M M M
;
_chemical_formula_sum "Si O2"
_cell_formula_units_Z 96
_cell_length_a 24.985916
_cell_length_b 24.985916
_cell_length_c 7.585940
_cell_angle_alpha 90.000000
_cell_angle_beta 90.000000
_cell_angle_gamma 90.000000
_cell_volume 4735.871986
_symmetry_space_group_name_H-M "P 4/M M M"
_symmetry_group_IT_number 123
_symmetry_cell_setting 'tetragonal'
loop_
_space_group_symop_operation_xyz
x,y,z
-y,x,z
-x,-y,z
y,-x,z
x,-y,-z
-x,y,-z
y,x,-z
-y,-x,-z
-x,-y,-z
y,-x,-z
x,y,-z
-y,x,-z
-x,y,z
x,-y,z
-y,-x,z
y,x,z
loop_
_atom_site_type_symbol
_atom_site_label
_atom_site_fract_x
_atom_site_fract_y
_atom_site_fract_z
Si Si1 0.060396 0.854693 0.786948
Si Si2 0.767510 0.851913 0.709639
Si Si3 0.649075 0.855128 0.705564
Si Si4 0.354504 0.439303 0.713246
Si Si5 0.266318 0.648654 0.207267
Si Si6 0.438752 0.061224 0.284712
O O1 0.092955 0.907046 0.727125
O O2 0.096180 0.804133 0.734674
O O3 0.000000 0.852356 0.721608
O O4 0.059048 0.855948 0.000000
O O5 0.761755 0.842590 0.500000
O O6 0.801468 0.801468 0.781840
O O7 0.708525 0.860228 0.784732
O O8 0.653029 0.870441 0.500000
O O9 0.637629 0.791804 0.714303
O O10 0.603286 0.894180 0.778755
O O11 0.354772 0.440478 0.500000
O O12 0.351168 0.500000 0.777134
O O13 0.407960 0.407960 0.770683
O O14 0.305085 0.402025 0.767697
O O15 0.299691 0.700310 0.278237
O O16 0.258536 0.657462 0.000000
O O17 0.439518 0.062409 0.500000
O O18 0.500000 0.071813 0.228093
O O19 0.424607 0.000000 0.234403
#
# Coordination Sequence:
#
# PCOD9561882 Si02
#       6
#    16  16  16  16  16  16
#     4   9  18  32  49  69  94 125 160 198 240 286
#     4   9  18  31  46  67  96 126 155 194 244 291
#     4  10  19  31  52  78  98 123 163 204 241 288
#     4   9  18  33  53  76 102 133 169 210 254 297
#     4  10  21  35  50  71 102 137 168 202 248 298
#     4   8  15  29  48  71  99 126 153 191 238 285
#
# _framework density 20.270817000000001
#
# number of rings (size 3 to 8) (size 9 to 14) (size 15 to 20)
#    0.000    2.833    0.000    1.500    0.000    4.667 
#    0.000    6.667    0.000    0.500    0.000    5.833 
#    0.000    0.000    0.000    0.000    0.000    0.000 
#
# Total GULP energy -535488.489608 kJ/mol
# GULP energy per Si atom -5578.005100 kJ/mol
# Density = 2.022468 g / cm^3
# Si number density = 20.270817 Si / 1000 Ang^3
#
#
#
# Elastic Constant Matrix: (Units=GPa)
#
#
# Indices 1 2 3 4 5 6 
#
# 1 173.4487 107.7427 -0.5781 0.0000 0.0000 0.0000
# 2 107.7427 173.4487 -0.5781 0.0000 0.0000 0.0000
# 3 -0.5781 -0.5781 45.0117 0.0000 0.0000 0.0000
# 4 0.0000 0.0000 0.0000 3.3478 0.0000 0.0000
# 5 0.0000 0.0000 0.0000 0.0000 3.3478 0.0000
# 6 0.0000 0.0000 0.0000 0.0000 0.0000 22.5259
#
#
#
# Elastic Compliance Matrix: (Units=1/GPa)
#
#
# Indices 1 2 3 4 5 6 
#
# 1 0.009388 -0.005831 0.000046 0.000000 0.000000 0.000000
# 2 -0.005831 0.009388 0.000046 0.000000 0.000000 0.000000
# 3 0.000046 0.000046 0.022218 0.000000 0.000000 0.000000
# 4 0.000000 0.000000 0.000000 0.298703 0.000000 0.000000
# 5 0.000000 0.000000 0.000000 0.000000 0.298703 0.000000
# 6 0.000000 0.000000 0.000000 0.000000 0.000000 0.044393
#
#
# Mechanical properties :
#
#
# Convention : Reuss Voigt Hill
#
# Bulk Modulus (GPa) = 33.88302 67.23135 50.55718
# Shear Modulus (GPa) = 7.10115 24.86582 15.98349
#
# Velocity S-wave (km/s) = 1.87370 3.50620 2.81107
# Velocity P-wave (km/s) = 4.62952 7.04484 5.96080
#
# Compressibility (1/GPa) = 0.02951331
#
# Stress axis : x y z
#
# Youngs Moduli (GPa) = 106.52023 106.52023 45.00928
#
# Poissons Ratio (x) = 0.62116 -0.00206
# Poissons Ratio (y) = 0.62116 -0.00206
# Poissons Ratio (z) = -0.00487 -0.00487
#
# Static dielectric constant tensor:
#      x y z
#    x 1.707060 0.000000 0.000000 
#    y 0.000000 1.707060 0.000000 
#    z 0.000000 0.000000 1.768160 
# 
# From -- ./inp_files/1551.got.cif
#   From: 2010.05.17/outbox.cif.g08.bks.cpg/sg123_1_cif.got.tgz:1551.got - 2010.05.20 11:43:04.
