data_PCOD9561987
_publ_section_title
;
Structure prediction by ZEFSAII (Michael W. Deem and Ramdas Pophale) SiO2 
 PCOD9561987
Probable space group: P 4/M M M
;
_chemical_formula_sum "Si O2"
_cell_formula_units_Z 104
_cell_length_a 27.655009
_cell_length_b 27.655009
_cell_length_c 8.101656
_cell_angle_alpha 90.000000
_cell_angle_beta 90.000000
_cell_angle_gamma 90.000000
_cell_volume 6196.142643
_symmetry_space_group_name_H-M "P 4/M M M"
_symmetry_group_IT_number 123
_symmetry_cell_setting 'tetragonal'
loop_
_space_group_symop_operation_xyz
x,y,z
-y,x,z
-x,-y,z
y,-x,z
x,-y,-z
-x,y,-z
y,x,-z
-y,-x,-z
-x,-y,-z
y,-x,-z
x,y,-z
-y,x,-z
-x,y,z
x,-y,z
-y,-x,z
y,x,z
loop_
_atom_site_type_symbol
_atom_site_label
_atom_site_fract_x
_atom_site_fract_y
_atom_site_fract_z
Si Si1 0.552864 0.237139 0.701330
Si Si2 0.685273 0.157334 0.301129
Si Si3 0.867552 0.054709 0.698520
Si Si4 0.054578 0.500000 0.196135
Si Si5 0.128488 0.581326 0.301095
Si Si6 0.265469 0.657044 0.298280
Si Si7 0.208500 0.869291 0.803287
O O1 0.552949 0.237990 0.500000
O O2 0.500000 0.254038 0.757216
O O3 0.560127 0.180892 0.749533
O O4 0.600943 0.265509 0.754799
O O5 0.684492 0.157567 0.500000
O O6 0.637236 0.128655 0.245109
O O7 0.678880 0.213361 0.248207
O O8 0.736122 0.136233 0.246375
O O9 0.871604 0.052820 0.500000
O O10 0.911418 0.088583 0.760902
O O11 0.818360 0.082939 0.739577
O O12 0.868927 0.000000 0.761947
O O13 0.085336 0.547106 0.245917
O O14 0.000000 0.500000 0.265264
O O15 0.051392 0.500000 0.000000
O O16 0.128382 0.581147 0.500000
O O17 0.266106 0.657284 0.500000
O O18 0.309227 0.690774 0.241160
O O19 0.176394 0.823607 0.741073
O O20 0.205655 0.869566 0.000000
#
# Coordination Sequence:
#
# PCOD9561987 Si02
#       7
#    16  16  16   8  16  16  16
#     4   8  12  20  37  58  80 107 138 174 215 257
#     4   9  17  29  48  70  89 115 151 190 231 271
#     4   9  18  33  53  75  96 118 146 182 223 266
#     4  11  23  35  47  65  89 115 143 181 230 275
#     4   9  17  31  50  68  84 108 147 188 228 272
#     4   8  13  20  33  58  88 112 137 175 222 266
#     4  10  20  32  47  69  98 130 158 182 216 268
#
# _framework density 16.784637
#
# number of rings (size 3 to 8) (size 9 to 14) (size 15 to 20)
#    0.000    3.000    0.769    3.000    0.000    3.231 
#    0.000    1.538    0.000    0.923    0.000    2.154 
#    0.000    0.308    0.000    4.308    0.000    0.000 
#
# Total GULP energy -579384.189426 kJ/mol
# GULP energy per Si atom -5571.001821 kJ/mol
# Density = 1.674643 g / cm^3
# Si number density = 16.784637 Si / 1000 Ang^3
#
#
#
# Elastic Constant Matrix: (Units=GPa)
#
#
# Indices 1 2 3 4 5 6 
#
# 1 153.1233 92.0876 10.6635 0.0000 0.0000 0.0000
# 2 92.0876 153.1233 10.6635 0.0000 0.0000 0.0000
# 3 10.6635 10.6635 9.9998 0.0000 0.0000 0.0000
# 4 0.0000 0.0000 0.0000 1.6935 0.0000 0.0000
# 5 0.0000 0.0000 0.0000 0.0000 1.6935 0.0000
# 6 0.0000 0.0000 0.0000 0.0000 0.0000 18.8994
#
#
#
# Elastic Compliance Matrix: (Units=1/GPa)
#
#
# Indices 1 2 3 4 5 6 
#
# 1 0.010439 -0.005944 -0.004793 0.000000 0.000000 0.000000
# 2 -0.005944 0.010439 -0.004793 0.000000 0.000000 0.000000
# 3 -0.004793 -0.004793 0.110225 0.000000 0.000000 0.000000
# 4 0.000000 0.000000 0.000000 0.590497 0.000000 0.000000
# 5 0.000000 0.000000 0.000000 0.000000 0.590497 0.000000
# 6 0.000000 0.000000 0.000000 0.000000 0.000000 0.052912
#
#
# Mechanical properties :
#
#
# Convention : Reuss Voigt Hill
#
# Bulk Modulus (GPa) = 9.99586 60.34176 35.16881
# Shear Modulus (GPa) = 3.49792 17.97940 10.73866
#
# Velocity S-wave (km/s) = 1.44517 3.27644 2.53215
# Velocity P-wave (km/s) = 2.95855 7.09521 5.43576
#
# Compressibility (1/GPa) = 0.10004140
#
# Stress axis : x y z
#
# Youngs Moduli (GPa) = 95.79067 95.79067 9.07236
#
# Poissons Ratio (x) = 0.56942 0.04349
# Poissons Ratio (y) = 0.56942 0.04349
# Poissons Ratio (z) = 0.45916 0.45916
#
# Static dielectric constant tensor:
#      x y z
#    x 1.569990 0.000000 0.000000 
#    y 0.000000 1.569990 0.000000 
#    z 0.000000 0.000000 1.585040 
# 
# From -- ./inp_files/1947.got.cif
#   From: 2010.05.17/outbox.cif.g08.bks.cpg/sg123_1_cif.got.tgz:1947.got - 2010.05.20 11:43:04.
