data_PCOD9561319
_publ_section_title
;
Structure prediction by ZEFSAII (Michael W. Deem and Ramdas Pophale) SiO2 
 PCOD9561319
Probable space group: I -4 2 D
;
_chemical_formula_sum "Si O2"
_cell_formula_units_Z 28
_cell_length_a 10.132267
_cell_length_b 10.132267
_cell_length_c 10.386722
_cell_angle_alpha 90.000000
_cell_angle_beta 90.000000
_cell_angle_gamma 90.000000
_cell_volume 1066.330322
_symmetry_space_group_name_H-M "I -4 2 D"
_symmetry_group_IT_number 122
_symmetry_cell_setting 'tetragonal'
loop_
_space_group_symop_operation_xyz
x,y,z
y,-x,-z
-x,-y,z
-y,x,-z
x,1/2-y,1/4-z
-x,1/2+y,1/4-z
-y,1/2-x,1/4+z
y,1/2+x,1/4+z
1/2+x,1/2+y,1/2+z
1/2+y,1/2-x,1/2-z
1/2-x,1/2-y,1/2+z
1/2-y,1/2+x,1/2-z
1/2+x,-y,3/4-z
1/2-x,y,3/4-z
1/2-y,-x,3/4+z
1/2+y,x,3/4+z
loop_
_atom_site_type_symbol
_atom_site_label
_atom_site_fract_x
_atom_site_fract_y
_atom_site_fract_z
Si Si1 0.500000 0.000000 0.250000
Si Si2 0.148527 0.627787 0.271211
Si Si3 0.378963 0.250000 0.125000
O O1 0.535623 0.873526 0.165422
O O2 0.143428 0.501972 0.176444
O O3 0.250000 0.565914 0.375000
O O4 0.208191 0.774151 0.262779
#
# Coordination Sequence:
#
# PCOD9561319 Si02
#       3
#     4  16   8
#     4  12  28  48  76 104 148 190 248 300 364 428
#     4   9  21  42  71 107 140 189 235 297 355 431
#     4  10  28  44  74 106 148 186 242 304 360 434
#
# _framework density 26.258279000000002
#
# number of rings (size 3 to 8) (size 9 to 14) (size 15 to 20)
#    1.714    0.571    0.000    0.000    8.000    9.143 
#    0.000    0.000    0.000    0.000    0.000    0.000 
#    0.000    0.000    0.000    0.000    0.000    0.000 
#
# Total GULP energy -77937.412878 kJ/mol
# GULP energy per Si atom -5566.958063 kJ/mol
# Density = 2.619851 g / cm^3
# Si number density = 26.258279 Si / 1000 Ang^3
#
#
#
# Elastic Constant Matrix: (Units=GPa)
#
#
# Indices 1 2 3 4 5 6 
#
# 1 216.8573 73.1449 45.7309 0.0000 0.0000 0.0000
# 2 73.1449 216.8574 45.7309 0.0000 0.0000 0.0000
# 3 45.7309 45.7309 60.4604 0.0000 0.0000 0.0000
# 4 0.0000 0.0000 0.0000 10.2042 0.0000 0.0000
# 5 0.0000 0.0000 0.0000 0.0000 10.2042 0.0000
# 6 0.0000 0.0000 0.0000 0.0000 0.0000 53.9904
#
#
#
# Elastic Compliance Matrix: (Units=1/GPa)
#
#
# Indices 1 2 3 4 5 6 
#
# 1 0.005743 -0.001215 -0.003425 0.000000 0.000000 0.000000
# 2 -0.001215 0.005743 -0.003425 0.000000 0.000000 0.000000
# 3 -0.003425 -0.003425 0.021721 0.000000 0.000000 0.000000
# 4 0.000000 0.000000 0.000000 0.097999 0.000000 0.000000
# 5 0.000000 0.000000 0.000000 0.000000 0.097999 0.000000
# 6 0.000000 0.000000 0.000000 0.000000 0.000000 0.018522
#
#
# Mechanical properties :
#
#
# Convention : Reuss Voigt Hill
#
# Bulk Modulus (GPa) = 58.55726 91.48762 75.02244
# Shear Modulus (GPa) = 18.54939 36.85099 27.70019
#
# Velocity S-wave (km/s) = 2.66074 3.75027 3.25147
# Velocity P-wave (km/s) = 5.63811 7.32596 6.53674
#
# Compressibility (1/GPa) = 0.01707730
#
# Stress axis : x y z
#
# Youngs Moduli (GPa) = 174.11196 174.11196 46.03767
#
# Poissons Ratio (x) = 0.21153 0.15769
# Poissons Ratio (y) = 0.21153 0.15769
# Poissons Ratio (z) = 0.59638 0.59638
#
# Static dielectric constant tensor:
#      x y z
#    x 2.032080 0.000000 0.000000 
#    y 0.000000 2.032080 0.000000 
#    z 0.000000 0.000000 2.319580 
# 
# From -- ./inp_files/1641.got.cif
#   From: 2010.05.17/outbox.cif.g08.bks.cpg/sg122_1_cif.got.tgz:1641.got - 2010.05.20 11:37:33.
