data_PCOD9561884
_publ_section_title
;
Structure prediction by ZEFSAII (Michael W. Deem and Ramdas Pophale) SiO2 
 PCOD9561884
Probable space group: P 4/M M M
;
_chemical_formula_sum "Si O2"
_cell_formula_units_Z 80
_cell_length_a 23.757163
_cell_length_b 23.757163
_cell_length_c 8.967732
_cell_angle_alpha 90.000000
_cell_angle_beta 90.000000
_cell_angle_gamma 90.000000
_cell_volume 5061.412995
_symmetry_space_group_name_H-M "P 4/M M M"
_symmetry_group_IT_number 123
_symmetry_cell_setting 'tetragonal'
loop_
_space_group_symop_operation_xyz
x,y,z
-y,x,z
-x,-y,z
y,-x,z
x,-y,-z
-x,y,-z
y,x,-z
-y,-x,-z
-x,-y,-z
y,-x,-z
x,y,-z
-y,x,-z
-x,y,z
x,-y,z
-y,-x,z
y,x,z
loop_
_atom_site_type_symbol
_atom_site_label
_atom_site_fract_x
_atom_site_fract_y
_atom_site_fract_z
Si Si1 0.628104 0.064477 0.319932
Si Si2 0.821118 0.564425 0.320293
Si Si3 0.728919 0.871334 0.825367
Si Si4 0.847070 0.847070 0.678758
Si Si5 0.337401 0.246667 0.175394
Si Si6 0.063118 0.063118 0.318447
O O1 0.632417 0.065564 0.500000
O O2 0.586137 0.115881 0.276889
O O3 0.687096 0.083533 0.248319
O O4 0.612786 0.000000 0.277571
O O5 0.818991 0.566688 0.500000
O O6 0.813569 0.500000 0.272195
O O7 0.773038 0.605875 0.257529
O O8 0.787298 0.866176 0.741050
O O9 0.701058 0.809289 0.812836
O O10 0.736422 0.883450 0.000000
O O11 0.845058 0.845058 0.500000
O O12 0.892258 0.892258 0.731806
O O13 0.300198 0.300198 0.229209
O O14 0.349117 0.255603 0.000000
O O15 0.063248 0.063248 0.500000
O O16 0.000000 0.076899 0.270583
#
# Coordination Sequence:
#
# PCOD9561884 Si02
#       6
#    16  16  16   8  16   8
#     4   9  18  32  48  67  93 127 166 203 238 281
#     4   9  18  31  47  71 100 128 161 201 242 282
#     4  10  19  32  47  66  94 122 151 191 238 285
#     4  11  20  29  48  74  92 112 144 186 239 295
#     4   9  17  31  49  68  92 125 161 194 231 275
#     4   8  16  32  49  62  78 102 134 174 222 277
#
# _framework density 15.805861999999999
#
# number of rings (size 3 to 8) (size 9 to 14) (size 15 to 20)
#    0.000    2.700    1.000    1.200    0.000    3.200 
#    0.000    4.000    0.000    1.800    0.000    8.400 
#    0.000    0.400    0.000    4.400    0.000    3.200 
#
# Total GULP energy -445534.640601 kJ/mol
# GULP energy per Si atom -5569.183008 kJ/mol
# Density = 1.576989 g / cm^3
# Si number density = 15.805862 Si / 1000 Ang^3
#
#
#
# Elastic Constant Matrix: (Units=GPa)
#
#
# Indices 1 2 3 4 5 6 
#
# 1 47.2885 122.8794 33.4918 0.0000 0.0000 0.0000
# 2 122.8794 47.2885 33.4918 0.0000 0.0000 0.0000
# 3 33.4918 33.4918 21.8071 0.0000 0.0000 0.0000
# 4 0.0000 0.0000 0.0000 14.8941 0.0000 0.0000
# 5 0.0000 0.0000 0.0000 0.0000 14.8941 0.0000
# 6 0.0000 0.0000 0.0000 0.0000 0.0000 16.9113
#
#
#
# Elastic Compliance Matrix: (Units=1/GPa)
#
#
# Indices 1 2 3 4 5 6 
#
# 1 0.000816 0.014045 -0.022823 0.000000 0.000000 0.000000
# 2 0.014045 0.000816 -0.022823 0.000000 0.000000 0.000000
# 3 -0.022823 -0.022823 0.115960 0.000000 0.000000 0.000000
# 4 0.000000 0.000000 0.000000 0.067141 0.000000 0.000000
# 5 0.000000 0.000000 0.000000 0.000000 0.067141 0.000000
# 6 0.000000 0.000000 0.000000 0.000000 0.000000 0.059132
#
#
# Mechanical properties :
#
#
# Convention : Reuss Voigt Hill
#
# Bulk Modulus (GPa) = 18.38589 55.12337 36.75463
# Shear Modulus (GPa) = 12.74414 4.44128 8.59271
#
# Velocity S-wave (km/s) = 2.84261 1.67809 2.33414
# Velocity P-wave (km/s) = 4.73619 6.22139 5.52888
#
# Compressibility (1/GPa) = 0.05438953
#
# Stress axis : x y z
#
# Youngs Moduli (GPa) = 1226.03890 1226.03890 8.62364
#
# Poissons Ratio (x) = -17.21939 0.19682
# Poissons Ratio (y) = -17.21939 0.19682
# Poissons Ratio (z) = 27.98172 27.98172
#
# Static dielectric constant tensor:
#      x y z
#    x 1.520650 0.000000 0.000000 
#    y 0.000000 1.520650 0.000000 
#    z 0.000000 0.000000 1.532260 
# 
# From -- ./inp_files/1450.got.cif
#   From: 2010.05.17/outbox.cif.g08.bks.cpg/sg123_1_cif.got.tgz:1450.got - 2010.05.20 11:43:04.
