data_PCOD9561415
_publ_section_title
;
Structure prediction by ZEFSAII (Michael W. Deem and Ramdas Pophale) SiO2 
 PCOD9561415
Probable space group: I -4 2 D
;
_chemical_formula_sum "Si O2"
_cell_formula_units_Z 56
_cell_length_a 18.099532
_cell_length_b 18.099532
_cell_length_c 7.229983
_cell_angle_alpha 90.000000
_cell_angle_beta 90.000000
_cell_angle_gamma 90.000000
_cell_volume 2368.492245
_symmetry_space_group_name_H-M "I -4 2 D"
_symmetry_group_IT_number 122
_symmetry_cell_setting 'tetragonal'
loop_
_space_group_symop_operation_xyz
x,y,z
y,-x,-z
-x,-y,z
-y,x,-z
x,1/2-y,1/4-z
-x,1/2+y,1/4-z
-y,1/2-x,1/4+z
y,1/2+x,1/4+z
1/2+x,1/2+y,1/2+z
1/2+y,1/2-x,1/2-z
1/2-x,1/2-y,1/2+z
1/2-y,1/2+x,1/2-z
1/2+x,-y,3/4-z
1/2-x,y,3/4-z
1/2-y,-x,3/4+z
1/2+y,x,3/4+z
loop_
_atom_site_type_symbol
_atom_site_label
_atom_site_fract_x
_atom_site_fract_y
_atom_site_fract_z
Si Si1 0.069565 0.077064 0.599818
Si Si2 0.613099 0.236619 0.342060
Si Si3 0.160553 0.250000 0.125000
Si Si4 0.209070 0.959338 0.175854
O O1 0.148940 0.115632 0.604897
O O2 0.035189 0.121062 0.774565
O O3 0.010767 0.086863 0.429056
O O4 0.681609 0.284409 0.404241
O O5 0.536429 0.268098 0.417120
O O6 0.610301 0.250000 0.125000
O O7 0.106233 0.259505 0.300198
O O8 0.250000 0.954679 0.375000
#
# Coordination Sequence:
#
# PCOD9561415 Si02
#       4
#    16  16   8  16
#     4  11  23  43  76 105 142 199 250 304 376 454
#     4  11  25  46  73 111 145 195 254 306 383 461
#     4  12  30  44  78 112 154 196 250 326 392 452
#     4  11  25  50  74 107 151 196 253 311 386 465
#
# _framework density 23.643733000000001
#
# number of rings (size 3 to 8) (size 9 to 14) (size 15 to 20)
#    0.000    0.857    5.714    1.714    6.000    2.286 
#    0.000    0.000    0.000    0.000    0.000    0.000 
#    0.000    0.000    0.000    0.000    0.000    0.000 
#
# Total GULP energy -156075.722806 kJ/mol
# GULP energy per Si atom -5574.132957 kJ/mol
# Density = 2.358992 g / cm^3
# Si number density = 23.643733 Si / 1000 Ang^3
#
#
#
# Elastic Constant Matrix: (Units=GPa)
#
#
# Indices 1 2 3 4 5 6 
#
# 1 189.9172 86.0660 33.8708 0.0000 0.0000 0.0000
# 2 86.0660 189.9172 33.8708 0.0000 0.0000 0.0000
# 3 33.8708 33.8708 77.2116 0.0000 0.0000 0.0000
# 4 0.0000 0.0000 0.0000 15.9263 0.0000 0.0000
# 5 0.0000 0.0000 0.0000 0.0000 15.9263 0.0000
# 6 0.0000 0.0000 0.0000 0.0000 0.0000 29.5706
#
#
#
# Elastic Compliance Matrix: (Units=1/GPa)
#
#
# Indices 1 2 3 4 5 6 
#
# 1 0.006845 -0.002784 -0.001781 0.000000 0.000000 0.000000
# 2 -0.002784 0.006845 -0.001781 0.000000 0.000000 0.000000
# 3 -0.001781 -0.001781 0.014514 0.000000 0.000000 0.000000
# 4 0.000000 0.000000 0.000000 0.062789 0.000000 0.000000
# 5 0.000000 0.000000 0.000000 0.000000 0.062789 0.000000
# 6 0.000000 0.000000 0.000000 0.000000 0.000000 0.033817
#
#
# Mechanical properties :
#
#
# Convention : Reuss Voigt Hill
#
# Bulk Modulus (GPa) = 64.47321 84.96236 74.71779
# Shear Modulus (GPa) = 24.33520 32.50054 28.41787
#
# Velocity S-wave (km/s) = 3.21167 3.71157 3.47063
# Velocity P-wave (km/s) = 6.40944 7.37429 6.90873
#
# Compressibility (1/GPa) = 0.01551032
#
# Stress axis : x y z
#
# Youngs Moduli (GPa) = 146.09415 146.09415 68.89782
#
# Poissons Ratio (x) = 0.40676 0.12273
# Poissons Ratio (y) = 0.40676 0.12273
# Poissons Ratio (z) = 0.26024 0.26024
#
# Static dielectric constant tensor:
#      x y z
#    x 1.839790 0.000000 0.000000 
#    y 0.000000 1.839790 0.000000 
#    z 0.000000 0.000000 1.921430 
# 
# From -- ./inp_files/2259.got.cif
#   From: 2010.05.17/outbox.cif.g08.bks.cpg/sg122_2_cif.got.tgz:2259.got - 2010.05.20 11:37:33.
