data_PCOD9561341
_publ_section_title
;
Structure prediction by ZEFSAII (Michael W. Deem and Ramdas Pophale) SiO2 
 PCOD9561341
Probable space group: I -4 2 D
;
_chemical_formula_sum "Si O2"
_cell_formula_units_Z 64
_cell_length_a 21.657509
_cell_length_b 21.657509
_cell_length_c 6.637089
_cell_angle_alpha 90.000000
_cell_angle_beta 90.000000
_cell_angle_gamma 90.000000
_cell_volume 3113.111304
_symmetry_space_group_name_H-M "I -4 2 D"
_symmetry_group_IT_number 122
_symmetry_cell_setting 'tetragonal'
loop_
_space_group_symop_operation_xyz
x,y,z
y,-x,-z
-x,-y,z
-y,x,-z
x,1/2-y,1/4-z
-x,1/2+y,1/4-z
-y,1/2-x,1/4+z
y,1/2+x,1/4+z
1/2+x,1/2+y,1/2+z
1/2+y,1/2-x,1/2-z
1/2-x,1/2-y,1/2+z
1/2-y,1/2+x,1/2-z
1/2+x,-y,3/4-z
1/2-x,y,3/4-z
1/2-y,-x,3/4+z
1/2+y,x,3/4+z
loop_
_atom_site_type_symbol
_atom_site_label
_atom_site_fract_x
_atom_site_fract_y
_atom_site_fract_z
Si Si1 0.810247 0.901638 0.999154
Si Si2 0.674798 0.980993 0.394882
Si Si3 0.118949 0.131779 0.611882
Si Si4 0.812313 0.708981 0.955105
O O1 0.750000 0.920301 0.875000
O O2 0.856440 0.871219 0.839619
O O3 0.791932 0.852012 0.170832
O O4 0.837336 0.957771 0.127102
O O5 0.750000 0.984219 0.375000
O O6 0.642784 0.046223 0.356774
O O7 0.644881 0.930094 0.246033
O O8 0.147734 0.187528 0.481603
O O9 0.844509 0.750000 0.125000
O O10 0.750000 0.740979 0.875000
#
# Coordination Sequence:
#
# PCOD9561341 Si02
#       4
#    16  16  16  16
#     4  11  20  43  68  93 135 178 220 285 352 409
#     4  11  25  45  70  98 136 182 226 288 351 417
#     4  11  25  45  66  98 137 179 235 290 345 424
#     4  11  23  36  63 102 138 176 218 289 364 430
#
# _framework density 20.558209999999999
#
# number of rings (size 3 to 8) (size 9 to 14) (size 15 to 20)
#    0.000    1.000    5.000    2.250    3.500    4.500 
#    0.000    0.000    0.000    0.000    0.000    0.000 
#    0.000    0.000    0.000    0.000    0.000    0.000 
#
# Total GULP energy -178804.246880 kJ/mol
# GULP energy per Si atom -5587.632715 kJ/mol
# Density = 2.051142 g / cm^3
# Si number density = 20.558210 Si / 1000 Ang^3
#
#
#
# Elastic Constant Matrix: (Units=GPa)
#
#
# Indices 1 2 3 4 5 6 
#
# 1 105.8979 32.2395 41.0491 0.0000 0.0000 0.0000
# 2 32.2395 105.8979 41.0491 0.0000 0.0000 0.0000
# 3 41.0491 41.0491 130.1710 0.0000 0.0000 0.0000
# 4 0.0000 0.0000 0.0000 25.5876 0.0000 0.0000
# 5 0.0000 0.0000 0.0000 0.0000 25.5876 0.0000
# 6 0.0000 0.0000 0.0000 0.0000 0.0000 14.9293
#
#
#
# Elastic Compliance Matrix: (Units=1/GPa)
#
#
# Indices 1 2 3 4 5 6 
#
# 1 0.011243 -0.002334 -0.002809 0.000000 0.000000 0.000000
# 2 -0.002334 0.011243 -0.002809 0.000000 0.000000 0.000000
# 3 -0.002809 -0.002809 0.009454 0.000000 0.000000 0.000000
# 4 0.000000 0.000000 0.000000 0.039081 0.000000 0.000000
# 5 0.000000 0.000000 0.000000 0.000000 0.039081 0.000000
# 6 0.000000 0.000000 0.000000 0.000000 0.000000 0.066982
#
#
# Mechanical properties :
#
#
# Convention : Reuss Voigt Hill
#
# Bulk Modulus (GPa) = 62.36657 63.40468 62.88562
# Shear Modulus (GPa) = 25.21002 28.39619 26.80310
#
# Velocity S-wave (km/s) = 3.50562 3.72056 3.61469
# Velocity P-wave (km/s) = 6.84019 7.02604 6.93374
#
# Compressibility (1/GPa) = 0.01603423
#
# Stress axis : x y z
#
# Youngs Moduli (GPa) = 88.94811 88.94811 105.77461
#
# Poissons Ratio (x) = 0.20758 0.29716
# Poissons Ratio (y) = 0.20758 0.29716
# Poissons Ratio (z) = 0.24989 0.24989
#
# Static dielectric constant tensor:
#      x y z
#    x 1.754300 0.000000 0.000000 
#    y 0.000000 1.754300 0.000000 
#    z 0.000000 0.000000 1.773720 
# 
# From -- ./inp_files/1079.got.cif
#   From: 2010.05.17/outbox.cif.g08.bks.cpg/sg122_1_cif.got.tgz:1079.got - 2010.05.20 11:37:33.
