data_PCOD9561426
_publ_section_title
;
Structure prediction by ZEFSAII (Michael W. Deem and Ramdas Pophale) SiO2 
 PCOD9561426
Probable space group: I -4 2 D
;
_chemical_formula_sum "Si O2"
_cell_formula_units_Z 72
_cell_length_a 16.325088
_cell_length_b 16.325088
_cell_length_c 12.340436
_cell_angle_alpha 90.000000
_cell_angle_beta 90.000000
_cell_angle_gamma 90.000000
_cell_volume 3288.831066
_symmetry_space_group_name_H-M "I -4 2 D"
_symmetry_group_IT_number 122
_symmetry_cell_setting 'tetragonal'
loop_
_space_group_symop_operation_xyz
x,y,z
y,-x,-z
-x,-y,z
-y,x,-z
x,1/2-y,1/4-z
-x,1/2+y,1/4-z
-y,1/2-x,1/4+z
y,1/2+x,1/4+z
1/2+x,1/2+y,1/2+z
1/2+y,1/2-x,1/2-z
1/2-x,1/2-y,1/2+z
1/2-y,1/2+x,1/2-z
1/2+x,-y,3/4-z
1/2-x,y,3/4-z
1/2-y,-x,3/4+z
1/2+y,x,3/4+z
loop_
_atom_site_type_symbol
_atom_site_label
_atom_site_fract_x
_atom_site_fract_y
_atom_site_fract_z
Si Si1 0.606972 0.438449 0.048379
Si Si2 0.609710 0.250000 0.625000
Si Si3 0.538434 0.326501 0.209945
Si Si4 0.629916 0.532889 0.535719
Si Si5 0.777652 0.137695 0.268095
O O1 0.579314 0.408588 0.165671
O O2 0.535043 0.398513 0.973543
O O3 0.696234 0.401373 0.032629
O O4 0.553414 0.294011 0.538840
O O5 0.669372 0.312281 0.685957
O O6 0.565548 0.250000 0.125000
O O7 0.544996 0.335712 0.340820
O O8 0.441089 0.327952 0.191141
O O9 0.594197 0.443366 0.503448
O O10 0.750000 0.186960 0.375000
#
# Coordination Sequence:
#
# PCOD9561426 Si02
#       5
#    16   8  16  16  16
#     4  11  24  41  72 108 142 196 250 317 386 454
#     4  12  28  48  78 106 152 206 248 316 400 462
#     4  11  24  47  73 110 153 193 256 323 380 470
#     4  11  27  51  77 109 154 205 259 319 388 490
#     4  11  25  45  68 108 151 188 250 326 383 462
#
# _framework density 21.892277
#
# number of rings (size 3 to 8) (size 9 to 14) (size 15 to 20)
#    0.000    0.889    6.667    0.000    4.667    7.111 
#    2.000    0.000    0.000    0.000    0.000    0.000 
#    0.000    0.000    0.000    0.000    0.000    0.000 
#
# Total GULP energy -200674.724590 kJ/mol
# GULP energy per Si atom -5574.297905 kJ/mol
# Density = 2.184245 g / cm^3
# Si number density = 21.892277 Si / 1000 Ang^3
#
#
#
# Elastic Constant Matrix: (Units=GPa)
#
#
# Indices 1 2 3 4 5 6 
#
# 1 53.4553 38.9109 34.3235 0.0000 0.0000 0.0000
# 2 38.9109 53.4553 34.3235 0.0000 0.0000 0.0000
# 3 34.3235 34.3235 182.1425 0.0000 0.0000 0.0000
# 4 0.0000 0.0000 0.0000 34.3191 0.0000 0.0000
# 5 0.0000 0.0000 0.0000 0.0000 34.3191 0.0000
# 6 0.0000 0.0000 0.0000 0.0000 0.0000 22.9098
#
#
#
# Elastic Compliance Matrix: (Units=1/GPa)
#
#
# Indices 1 2 3 4 5 6 
#
# 1 0.040672 -0.028083 -0.002372 0.000000 0.000000 0.000000
# 2 -0.028083 0.040672 -0.002372 0.000000 0.000000 0.000000
# 3 -0.002372 -0.002372 0.006384 0.000000 0.000000 0.000000
# 4 0.000000 0.000000 0.000000 0.029138 0.000000 0.000000
# 5 0.000000 0.000000 0.000000 0.000000 0.029138 0.000000
# 6 0.000000 0.000000 0.000000 0.000000 0.000000 0.043649
#
#
# Mechanical properties :
#
#
# Convention : Reuss Voigt Hill
#
# Bulk Modulus (GPa) = 45.30226 56.01875 50.66050
# Shear Modulus (GPa) = 19.03540 30.40930 24.72235
#
# Velocity S-wave (km/s) = 2.95193 3.73103 3.36411
# Velocity P-wave (km/s) = 5.68830 6.64866 6.18714
#
# Compressibility (1/GPa) = 0.02207395
#
# Stress axis : x y z
#
# Youngs Moduli (GPa) = 24.58665 24.58665 156.63319
#
# Poissons Ratio (x) = 0.69046 0.37160
# Poissons Ratio (y) = 0.69046 0.37160
# Poissons Ratio (z) = 0.05833 0.05833
#
# Static dielectric constant tensor:
#      x y z
#    x 1.807850 0.000000 0.000000 
#    y 0.000000 1.807850 0.000000 
#    z 0.000000 0.000000 2.041950 
# 
# From -- ./inp_files/4191.got.cif
#   From: 2010.05.17/outbox.cif.g08.bks.cpg/sg122_3_cif.got.tgz:4191.got - 2010.05.20 11:37:33.
