data_PCOD9561288
_publ_section_title
;
Structure prediction by ZEFSAII (Michael W. Deem and Ramdas Pophale) SiO2 
 PCOD9561288
Probable space group: I -4 2 D
;
_chemical_formula_sum "Si O2"
_cell_formula_units_Z 72
_cell_length_a 11.233371
_cell_length_b 11.233371
_cell_length_c 24.009351
_cell_angle_alpha 90.000000
_cell_angle_beta 90.000000
_cell_angle_gamma 90.000000
_cell_volume 3029.706966
_symmetry_space_group_name_H-M "I -4 2 D"
_symmetry_group_IT_number 122
_symmetry_cell_setting 'tetragonal'
loop_
_space_group_symop_operation_xyz
x,y,z
y,-x,-z
-x,-y,z
-y,x,-z
x,1/2-y,1/4-z
-x,1/2+y,1/4-z
-y,1/2-x,1/4+z
y,1/2+x,1/4+z
1/2+x,1/2+y,1/2+z
1/2+y,1/2-x,1/2-z
1/2-x,1/2-y,1/2+z
1/2-y,1/2+x,1/2-z
1/2+x,-y,3/4-z
1/2-x,y,3/4-z
1/2-y,-x,3/4+z
1/2+y,x,3/4+z
loop_
_atom_site_type_symbol
_atom_site_label
_atom_site_fract_x
_atom_site_fract_y
_atom_site_fract_z
Si Si1 0.236252 0.112336 0.632666
Si Si2 0.029831 0.129194 0.175250
Si Si3 0.695462 0.976103 0.240488
Si Si4 0.250000 0.190638 0.875000
Si Si5 0.843039 0.096689 0.709491
O O1 0.195709 0.250000 0.625000
O O2 0.382200 0.119443 0.628084
O O3 0.216151 0.043463 0.574807
O O4 0.171176 0.034809 0.680691
O O5 0.084895 0.202128 0.226743
O O6 0.901161 0.173398 0.160018
O O7 0.000000 0.000000 0.199419
O O8 0.601007 0.871233 0.254028
O O9 0.812881 0.954920 0.278263
O O10 0.172726 0.266078 0.916965
#
# Coordination Sequence:
#
# PCOD9561288 Si02
#       5
#    16  16  16   8  16
#     4  11  24  45  70 110 147 188 253 314 377 470
#     4  11  25  45  72 103 147 196 251 316 380 462
#     4  10  24  49  71 103 151 192 254 321 376 461
#     4  12  24  46  74 102 150 198 262 316 390 478
#     4  11  26  43  77 105 145 203 247 314 402 461
#
# _framework density 23.764672999999998
#
# number of rings (size 3 to 8) (size 9 to 14) (size 15 to 20)
#    0.000    1.111    3.333    1.333    9.333    0.000 
#   18.000    0.000    0.000    0.000    0.000    0.000 
#    0.000    0.000    0.000    0.000    0.000    0.000 
#
# Total GULP energy -200595.170520 kJ/mol
# GULP energy per Si atom -5572.088070 kJ/mol
# Density = 2.371058 g / cm^3
# Si number density = 23.764673 Si / 1000 Ang^3
#
#
#
# Elastic Constant Matrix: (Units=GPa)
#
#
# Indices 1 2 3 4 5 6 
#
# 1 107.9036 59.8464 46.9653 0.0000 0.0000 0.0000
# 2 59.8464 107.9036 46.9653 0.0000 0.0000 0.0000
# 3 46.9653 46.9653 115.3379 0.0000 0.0000 0.0000
# 4 0.0000 0.0000 0.0000 63.4825 0.0000 0.0000
# 5 0.0000 0.0000 0.0000 0.0000 63.4825 0.0000
# 6 0.0000 0.0000 0.0000 0.0000 0.0000 35.9733
#
#
#
# Elastic Compliance Matrix: (Units=1/GPa)
#
#
# Indices 1 2 3 4 5 6 
#
# 1 0.014265 -0.006543 -0.003144 0.000000 0.000000 0.000000
# 2 -0.006543 0.014265 -0.003144 0.000000 0.000000 0.000000
# 3 -0.003144 -0.003144 0.011231 0.000000 0.000000 0.000000
# 4 0.000000 0.000000 0.000000 0.015752 0.000000 0.000000
# 5 0.000000 0.000000 0.000000 0.000000 0.015752 0.000000
# 6 0.000000 0.000000 0.000000 0.000000 0.000000 0.027798
#
#
# Mechanical properties :
#
#
# Convention : Reuss Voigt Hill
#
# Bulk Modulus (GPa) = 70.93527 70.96658 70.95092
# Shear Modulus (GPa) = 38.63165 44.41220 41.52193
#
# Velocity S-wave (km/s) = 4.03624 4.32769 4.18450
# Velocity P-wave (km/s) = 7.18578 7.40938 7.29844
#
# Compressibility (1/GPa) = 0.01409736
#
# Stress axis : x y z
#
# Youngs Moduli (GPa) = 70.10061 70.10061 89.03995
#
# Poissons Ratio (x) = 0.45869 0.27997
# Poissons Ratio (y) = 0.45869 0.27997
# Poissons Ratio (z) = 0.22042 0.22042
#
# Static dielectric constant tensor:
#      x y z
#    x 1.964910 0.000000 0.000000 
#    y 0.000000 1.964910 0.000000 
#    z 0.000000 0.000000 1.881270 
# 
# From -- ./inp_files/8635.got.cif
#   From: 2010.05.17/outbox.cif.g08.bks.cpg/sg122_5_cif.got.tgz:8635.got - 2010.05.20 11:37:33.
