data_PCOD9561160
_publ_section_title
;
Structure prediction by ZEFSAII (Michael W. Deem and Ramdas Pophale) SiO2 
 PCOD9561160
Probable space group: I -4 2 D
;
_chemical_formula_sum "Si O2"
_cell_formula_units_Z 64
_cell_length_a 12.033878
_cell_length_b 12.033878
_cell_length_c 22.152950
_cell_angle_alpha 90.000000
_cell_angle_beta 90.000000
_cell_angle_gamma 90.000000
_cell_volume 3208.062169
_symmetry_space_group_name_H-M "I -4 2 D"
_symmetry_group_IT_number 122
_symmetry_cell_setting 'tetragonal'
loop_
_space_group_symop_operation_xyz
x,y,z
y,-x,-z
-x,-y,z
-y,x,-z
x,1/2-y,1/4-z
-x,1/2+y,1/4-z
-y,1/2-x,1/4+z
y,1/2+x,1/4+z
1/2+x,1/2+y,1/2+z
1/2+y,1/2-x,1/2-z
1/2-x,1/2-y,1/2+z
1/2-y,1/2+x,1/2-z
1/2+x,-y,3/4-z
1/2-x,y,3/4-z
1/2-y,-x,3/4+z
1/2+y,x,3/4+z
loop_
_atom_site_type_symbol
_atom_site_label
_atom_site_fract_x
_atom_site_fract_y
_atom_site_fract_z
Si Si1 0.565232 0.605957 0.169704
Si Si2 0.566628 0.181396 0.816478
Si Si3 0.664138 0.557666 0.424785
Si Si4 0.477973 0.159916 0.217004
O O1 0.500000 0.500000 0.194980
O O2 0.696947 0.590098 0.157799
O O3 0.546736 0.709964 0.213888
O O4 0.513176 0.627717 0.103554
O O5 0.446074 0.131721 0.831917
O O6 0.572350 0.198496 0.744215
O O7 0.642271 0.074975 0.832587
O O8 0.750000 0.594637 0.375000
O O9 0.588177 0.120259 0.252042
#
# Coordination Sequence:
#
# PCOD9561160 Si02
#       4
#    16  16  16  16
#     4  11  23  41  66  97 126 175 223 265 334 407
#     4   9  21  39  59  96 129 159 228 264 316 407
#     4   9  19  40  64  87 131 175 202 277 335 370
#     4  10  22  44  66  88 134 175 210 278 336 386
#
# _framework density 19.949738
#
# number of rings (size 3 to 8) (size 9 to 14) (size 15 to 20)
#    0.000    2.250    2.500    1.500    3.500    6.000 
#    9.000    0.000    0.000    0.000    0.000    0.000 
#    0.000    0.000    0.000    0.000    0.000    0.000 
#
# Total GULP energy -178422.078457 kJ/mol
# GULP energy per Si atom -5575.689952 kJ/mol
# Density = 1.990433 g / cm^3
# Si number density = 19.949738 Si / 1000 Ang^3
#
#
#
# Elastic Constant Matrix: (Units=GPa)
#
#
# Indices 1 2 3 4 5 6 
#
# 1 116.3667 27.4521 34.2640 0.0000 0.0000 0.0000
# 2 27.4521 116.3667 34.2640 0.0000 0.0000 0.0000
# 3 34.2640 34.2640 65.2790 0.0000 0.0000 0.0000
# 4 0.0000 0.0000 0.0000 9.1464 0.0000 0.0000
# 5 0.0000 0.0000 0.0000 0.0000 9.1464 0.0000
# 6 0.0000 0.0000 0.0000 0.0000 0.0000 -5.8813
#
#
#
# Elastic Compliance Matrix: (Units=1/GPa)
#
#
# Indices 1 2 3 4 5 6 
#
# 1 0.010259 -0.000987 -0.004867 0.000000 0.000000 0.000000
# 2 -0.000987 0.010259 -0.004867 0.000000 0.000000 0.000000
# 3 -0.004867 -0.004867 0.020428 0.000000 0.000000 0.000000
# 4 0.000000 0.000000 0.000000 0.109333 0.000000 0.000000
# 5 0.000000 0.000000 0.000000 0.000000 0.109333 0.000000
# 6 0.000000 0.000000 0.000000 0.000000 0.000000 -0.170031
#
#
# Mechanical properties :
#
#
# Convention : Reuss Voigt Hill
#
# Bulk Modulus (GPa) = 51.26902 54.44139 52.85521
# Shear Modulus (GPa) = 42.54422 15.95112 29.24767
#
# Velocity S-wave (km/s) = 4.62299 2.83073 3.83308
# Velocity P-wave (km/s) = 7.36552 6.16705 6.79277
#
# Compressibility (1/GPa) = 0.01950496
#
# Stress axis : x y z
#
# Youngs Moduli (GPa) = 97.47094 97.47094 48.95256
#
# Poissons Ratio (x) = 0.09623 0.23824
# Poissons Ratio (y) = 0.09623 0.23824
# Poissons Ratio (z) = 0.47438 0.47438
#
# Static dielectric constant tensor:
#      x y z
#    x 1.722080 0.000000 0.000000 
#    y 0.000000 1.722080 0.000000 
#    z 0.000000 0.000000 1.678730 
# 
# From -- ./inp_files/6925.got.cif
#   From: 2010.05.17/outbox.cif.g08.bks.cpg/sg122_4_cif.got.tgz:6925.got - 2010.05.20 11:37:33.
