data_PCOD9561211
_publ_section_title
;
Structure prediction by ZEFSAII (Michael W. Deem and Ramdas Pophale) SiO2 
 PCOD9561211
Probable space group: I -4 2 D
;
_chemical_formula_sum "Si O2"
_cell_formula_units_Z 88
_cell_length_a 14.352635
_cell_length_b 14.352635
_cell_length_c 19.261585
_cell_angle_alpha 90.000000
_cell_angle_beta 90.000000
_cell_angle_gamma 90.000000
_cell_volume 3967.850519
_symmetry_space_group_name_H-M "I -4 2 D"
_symmetry_group_IT_number 122
_symmetry_cell_setting 'tetragonal'
loop_
_space_group_symop_operation_xyz
x,y,z
y,-x,-z
-x,-y,z
-y,x,-z
x,1/2-y,1/4-z
-x,1/2+y,1/4-z
-y,1/2-x,1/4+z
y,1/2+x,1/4+z
1/2+x,1/2+y,1/2+z
1/2+y,1/2-x,1/2-z
1/2-x,1/2-y,1/2+z
1/2-y,1/2+x,1/2-z
1/2+x,-y,3/4-z
1/2-x,y,3/4-z
1/2-y,-x,3/4+z
1/2+y,x,3/4+z
loop_
_atom_site_type_symbol
_atom_site_label
_atom_site_fract_x
_atom_site_fract_y
_atom_site_fract_z
Si Si1 0.750000 0.443170 0.875000
Si Si2 0.211949 0.717963 0.528497
Si Si3 0.907468 0.468780 0.385541
Si Si4 0.665981 0.750000 0.625000
Si Si5 0.450131 0.594450 0.210026
Si Si6 0.750000 0.618580 0.375000
Si Si7 0.605288 0.889079 0.241592
O O1 0.683588 0.494935 0.818870
O O2 0.828615 0.394694 0.828380
O O3 0.220898 0.713713 0.445705
O O4 0.156345 0.626081 0.554047
O O5 0.311824 0.723863 0.563205
O O6 0.152917 0.813382 0.540307
O O7 0.838551 0.395456 0.351478
O O8 0.945653 0.421492 0.456764
O O9 0.837544 0.555270 0.397889
O O10 0.000000 0.500000 0.346189
O O11 0.500000 0.500000 0.182298
O O12 0.499412 0.879356 0.270006
#
# Coordination Sequence:
#
# PCOD9561211 Si02
#       7
#     8  16  16   8  16   8  16
#     4  12  24  42  68 106 138 194 245 289 379 447
#     4  11  23  44  69 103 147 189 249 313 372 461
#     4   9  21  46  68  95 140 183 240 303 369 436
#     4   9  21  44  64 102 138 180 242 304 371 449
#     4  10  23  42  70  97 143 192 240 299 377 447
#     4  11  25  42  72 106 134 192 255 301 372 466
#     4  11  26  43  67 104 148 189 246 302 367 462
#
# _framework density 22.178253000000002
#
# number of rings (size 3 to 8) (size 9 to 14) (size 15 to 20)
#    0.000    1.636    1.818    1.091    7.636    0.000 
#    9.818    0.000    0.000    0.000    0.000    0.000 
#    0.000    0.000    0.000    0.000    0.000    0.000 
#
# Total GULP energy -245067.803090 kJ/mol
# GULP energy per Si atom -5569.722798 kJ/mol
# Density = 2.212777 g / cm^3
# Si number density = 22.178253 Si / 1000 Ang^3
#
#
#
# Elastic Constant Matrix: (Units=GPa)
#
#
# Indices 1 2 3 4 5 6 
#
# 1 135.9490 54.1062 37.8933 0.0000 0.0000 0.0000
# 2 54.1062 135.9490 37.8933 0.0000 0.0000 0.0000
# 3 37.8933 37.8933 65.3894 0.0000 0.0000 0.0000
# 4 0.0000 0.0000 0.0000 -0.8289 0.0000 0.0000
# 5 0.0000 0.0000 0.0000 0.0000 -0.8289 0.0000
# 6 0.0000 0.0000 0.0000 0.0000 0.0000 17.0277
#
#
#
# Elastic Compliance Matrix: (Units=1/GPa)
#
#
# Indices 1 2 3 4 5 6 
#
# 1 0.009531 -0.002688 -0.003965 0.000000 0.000000 0.000000
# 2 -0.002688 0.009531 -0.003965 0.000000 0.000000 0.000000
# 3 -0.003965 -0.003965 0.019889 0.000000 0.000000 0.000000
# 4 0.000000 0.000000 0.000000 -1.206361 0.000000 0.000000
# 5 0.000000 0.000000 0.000000 0.000000 -1.206358 0.000000
# 6 0.000000 0.000000 0.000000 0.000000 0.000000 0.058728
#
#
# Mechanical properties :
#
#
# Convention : Reuss Voigt Hill
#
# Bulk Modulus (GPa) = 56.45603 66.34145 61.39874
# Shear Modulus (GPa) = -2.18541 16.90029 7.35744
#
# Velocity S-wave (km/s) = -0.99374 2.76347 1.82335
# Velocity P-wave (km/s) = 4.91875 6.33720 5.67249
#
# Compressibility (1/GPa) = 0.01771290
#
# Stress axis : x y z
#
# Youngs Moduli (GPa) = 104.92385 104.92385 50.27904
#
# Poissons Ratio (x) = 0.28202 0.19938
# Poissons Ratio (y) = 0.28202 0.19938
# Poissons Ratio (z) = 0.41607 0.41607
#
# Static dielectric constant tensor:
#      x y z
#    x 1.871220 0.000000 0.000000 
#    y 0.000000 1.871220 0.000000 
#    z 0.000000 0.000000 1.852270 
# 
# From -- ./inp_files/7228.got.cif
#   From: 2010.05.17/outbox.cif.g08.bks.cpg/sg122_4_cif.got.tgz:7228.got - 2010.05.20 11:37:33.
