data_PCOD9561400
_publ_section_title
;
Structure prediction by ZEFSAII (Michael W. Deem and Ramdas Pophale) SiO2 
 PCOD9561400
Probable space group: I -4 2 D
;
_chemical_formula_sum "Si O2"
_cell_formula_units_Z 80
_cell_length_a 14.643672
_cell_length_b 14.643672
_cell_length_c 16.331880
_cell_angle_alpha 90.000000
_cell_angle_beta 90.000000
_cell_angle_gamma 90.000000
_cell_volume 3502.161469
_symmetry_space_group_name_H-M "I -4 2 D"
_symmetry_group_IT_number 122
_symmetry_cell_setting 'tetragonal'
loop_
_space_group_symop_operation_xyz
x,y,z
y,-x,-z
-x,-y,z
-y,x,-z
x,1/2-y,1/4-z
-x,1/2+y,1/4-z
-y,1/2-x,1/4+z
y,1/2+x,1/4+z
1/2+x,1/2+y,1/2+z
1/2+y,1/2-x,1/2-z
1/2-x,1/2-y,1/2+z
1/2-y,1/2+x,1/2-z
1/2+x,-y,3/4-z
1/2-x,y,3/4-z
1/2-y,-x,3/4+z
1/2+y,x,3/4+z
loop_
_atom_site_type_symbol
_atom_site_label
_atom_site_fract_x
_atom_site_fract_y
_atom_site_fract_z
Si Si1 0.918257 0.340219 0.069280
Si Si2 0.065403 0.184454 0.294648
Si Si3 0.244521 0.758616 0.472685
Si Si4 0.509619 0.622682 0.453350
Si Si5 0.402103 0.899688 0.219904
O O1 0.936859 0.250000 0.125000
O O2 0.894211 0.074624 0.123267
O O3 0.830152 0.311840 0.014157
O O4 0.009455 0.371145 0.022009
O O5 0.159756 0.228344 0.263717
O O6 0.996084 0.270170 0.301391
O O7 0.080936 0.131085 0.377971
O O8 0.250000 0.750341 0.375000
O O9 0.155120 0.816608 0.495148
O O10 0.568761 0.584328 0.531337
O O11 0.509745 0.882779 0.226740
#
# Coordination Sequence:
#
# PCOD9561400 Si02
#       5
#    16  16  16  16  16
#     4  12  22  42  71 107 150 189 245 305 366 445
#     4  12  23  45  75 104 148 197 239 308 371 436
#     4  12  25  43  73 109 145 195 245 300 373 439
#     4  11  23  41  70 108 150 187 242 307 371 443
#     4  11  26  50  74  99 144 193 252 302 360 446
#
# _framework density 22.843036999999999
#
# number of rings (size 3 to 8) (size 9 to 14) (size 15 to 20)
#    0.000    0.400    6.000    2.400    0.000    1.600 
#    3.600    8.000    0.000    0.000    0.000    0.000 
#    0.000    0.000    0.000    0.000    0.000    0.000 
#
# Total GULP energy -223732.374021 kJ/mol
# GULP energy per Si atom -5593.309351 kJ/mol
# Density = 2.279105 g / cm^3
# Si number density = 22.843037 Si / 1000 Ang^3
#
#
#
# Elastic Constant Matrix: (Units=GPa)
#
#
# Indices 1 2 3 4 5 6 
#
# 1 63.8216 -1.4258 3.4713 0.0000 0.0000 0.0000
# 2 -1.4258 63.8216 3.4713 0.0000 0.0000 0.0000
# 3 3.4713 3.4713 122.1963 0.0000 0.0000 0.0000
# 4 0.0000 0.0000 0.0000 32.4501 0.0000 0.0000
# 5 0.0000 0.0000 0.0000 0.0000 32.4501 0.0000
# 6 0.0000 0.0000 0.0000 0.0000 0.0000 38.6676
#
#
#
# Elastic Compliance Matrix: (Units=1/GPa)
#
#
# Indices 1 2 3 4 5 6 
#
# 1 0.015702 0.000376 -0.000457 0.000000 0.000000 0.000000
# 2 0.000376 0.015702 -0.000457 0.000000 0.000000 0.000000
# 3 -0.000457 -0.000457 0.008210 0.000000 0.000000 0.000000
# 4 0.000000 0.000000 0.000000 0.030817 0.000000 0.000000
# 5 0.000000 0.000000 0.000000 0.000000 0.030817 0.000000
# 6 0.000000 0.000000 0.000000 0.000000 0.000000 0.025861
#
#
# Mechanical properties :
#
#
# Convention : Reuss Voigt Hill
#
# Bulk Modulus (GPa) = 25.94862 28.98591 27.46726
# Shear Modulus (GPa) = 35.45358 37.00172 36.22765
#
# Velocity S-wave (km/s) = 3.94388 4.02907 3.98670
# Velocity P-wave (km/s) = 5.66773 5.86185 5.76561
#
# Compressibility (1/GPa) = 0.03853769
#
# Stress axis : x y z
#
# Youngs Moduli (GPa) = 63.68651 63.68650 121.81008
#
# Poissons Ratio (x) = -0.02392 0.05563
# Poissons Ratio (y) = -0.02392 0.05563
# Poissons Ratio (z) = 0.02909 0.02909
#
# Static dielectric constant tensor:
#      x y z
#    x 1.883310 0.000000 0.000000 
#    y 0.000000 1.883310 0.000000 
#    z 0.000000 0.000000 1.881070 
# 
# From -- ./inp_files/5320.got.cif
#   From: 2010.05.17/outbox.cif.g08.bks.cpg/sg122_3_cif.got.tgz:5320.got - 2010.05.20 11:37:33.
