data_PCOD9561421
_publ_section_title
;
Structure prediction by ZEFSAII (Michael W. Deem and Ramdas Pophale) SiO2 
 PCOD9561421
Probable space group: I -4 2 D
;
_chemical_formula_sum "Si O2"
_cell_formula_units_Z 80
_cell_length_a 9.967943
_cell_length_b 9.967943
_cell_length_c 35.082273
_cell_angle_alpha 90.000000
_cell_angle_beta 90.000000
_cell_angle_gamma 90.000000
_cell_volume 3485.770704
_symmetry_space_group_name_H-M "I -4 2 D"
_symmetry_group_IT_number 122
_symmetry_cell_setting 'tetragonal'
loop_
_space_group_symop_operation_xyz
x,y,z
y,-x,-z
-x,-y,z
-y,x,-z
x,1/2-y,1/4-z
-x,1/2+y,1/4-z
-y,1/2-x,1/4+z
y,1/2+x,1/4+z
1/2+x,1/2+y,1/2+z
1/2+y,1/2-x,1/2-z
1/2-x,1/2-y,1/2+z
1/2-y,1/2+x,1/2-z
1/2+x,-y,3/4-z
1/2-x,y,3/4-z
1/2-y,-x,3/4+z
1/2+y,x,3/4+z
loop_
_atom_site_type_symbol
_atom_site_label
_atom_site_fract_x
_atom_site_fract_y
_atom_site_fract_z
Si Si1 0.337830 0.134472 0.563007
Si Si2 0.693196 0.143313 0.448791
Si Si3 0.878527 0.160647 0.216903
Si Si4 0.845344 0.311543 0.582602
Si Si5 0.852204 0.945725 0.098600
O O1 0.179900 0.151911 0.548209
O O2 0.480614 0.208451 0.550696
O O3 0.354454 0.085858 0.606953
O O4 0.363475 0.995713 0.539575
O O5 0.621145 0.180480 0.487663
O O6 0.681077 0.278976 0.421671
O O7 0.667190 0.996398 0.433082
O O8 0.751344 0.229458 0.195885
O O9 0.855920 0.250000 0.625000
O O10 0.762714 0.447640 0.588543
O O11 0.000000 0.000000 0.087669
#
# Coordination Sequence:
#
# PCOD9561421 Si02
#       5
#    16  16  16  16  16
#     4  11  23  48  70  99 144 195 240 293 377 458
#     4  12  28  41  73 108 146 182 247 316 374 433
#     4  11  25  46  73 101 146 194 238 303 381 451
#     4  12  24  46  71 106 144 189 246 301 371 456
#     4  12  24  46  73 102 138 194 248 298 365 457
#
# _framework density 22.950447
#
# number of rings (size 3 to 8) (size 9 to 14) (size 15 to 20)
#    0.000    0.400    4.000    4.800    8.400    0.800 
#    0.000    2.000    0.000    0.000    0.000    0.000 
#    0.000    0.000    0.000    0.000    0.000    0.000 
#
# Total GULP energy -222778.271392 kJ/mol
# GULP energy per Si atom -5569.456785 kJ/mol
# Density = 2.289821 g / cm^3
# Si number density = 22.950447 Si / 1000 Ang^3
#
#
#
# Elastic Constant Matrix: (Units=GPa)
#
#
# Indices 1 2 3 4 5 6 
#
# 1 40.4255 142.8173 -2.4864 0.0000 0.0000 0.0000
# 2 142.8173 40.4255 -2.4863 0.0000 0.0000 0.0000
# 3 -2.4864 -2.4863 48.2234 0.0000 0.0000 0.0000
# 4 0.0000 0.0000 0.0000 6.8799 0.0000 0.0000
# 5 0.0000 0.0000 0.0000 0.0000 6.8799 0.0000
# 6 0.0000 0.0000 0.0000 0.0000 0.0000 26.7239
#
#
#
# Elastic Compliance Matrix: (Units=1/GPa)
#
#
# Indices 1 2 3 4 5 6 
#
# 1 -0.002151 0.007616 0.000282 0.000000 0.000000 0.000000
# 2 0.007616 -0.002151 0.000282 0.000000 0.000000 0.000000
# 3 0.000282 0.000282 0.020766 0.000000 0.000000 0.000000
# 4 0.000000 0.000000 0.000000 0.145351 0.000000 0.000000
# 5 0.000000 0.000000 0.000000 0.000000 0.145351 0.000000
# 6 0.000000 0.000000 0.000000 0.000000 0.000000 0.037420
#
#
# Mechanical properties :
#
#
# Convention : Reuss Voigt Hill
#
# Bulk Modulus (GPa) = 30.46670 44.97374 37.72022
# Shear Modulus (GPa) = 14.74194 7.51206 11.12700
#
# Velocity S-wave (km/s) = 2.53719 1.81115 2.20427
# Velocity P-wave (km/s) = 4.67834 4.90023 4.79057
#
# Compressibility (1/GPa) = 0.03282272
#
# Stress axis : x y z
#
# Youngs Moduli (GPa) = -464.95208 -464.95212 48.15588
#
# Poissons Ratio (x) = 3.54091 -0.01357
# Poissons Ratio (y) = 3.54091 -0.01357
# Poissons Ratio (z) = 0.13101 0.13101
#
# Static dielectric constant tensor:
#      x y z
#    x 2.367790 0.000000 0.000000 
#    y 0.000000 2.367790 0.000000 
#    z 0.000000 0.000000 2.013320 
# 
# From -- ./inp_files/9369.got.cif
#   From: 2010.05.17/outbox.cif.g08.bks.cpg/sg122_5_cif.got.tgz:9369.got - 2010.05.20 11:37:33.
