data_PCOD9561630
_publ_section_title
;
Structure prediction by ZEFSAII (Michael W. Deem and Ramdas Pophale) SiO2 
 PCOD9561630
Probable space group: P 4/M M M
;
_chemical_formula_sum "Si O2"
_cell_formula_units_Z 96
_cell_length_a 24.891158
_cell_length_b 24.891158
_cell_length_c 7.355698
_cell_angle_alpha 90.000000
_cell_angle_beta 90.000000
_cell_angle_gamma 90.000000
_cell_volume 4557.367946
_symmetry_space_group_name_H-M "P 4/M M M"
_symmetry_group_IT_number 123
_symmetry_cell_setting 'tetragonal'
loop_
_space_group_symop_operation_xyz
x,y,z
-y,x,z
-x,-y,z
y,-x,z
x,-y,-z
-x,y,-z
y,x,-z
-y,-x,-z
-x,-y,-z
y,-x,-z
x,y,-z
-y,x,-z
-x,y,z
x,-y,z
-y,-x,z
y,x,z
loop_
_atom_site_type_symbol
_atom_site_label
_atom_site_fract_x
_atom_site_fract_y
_atom_site_fract_z
Si Si1 0.560295 0.646592 0.219232
Si Si2 0.146657 0.647166 0.702651
Si Si3 0.060669 0.270420 0.278149
Si Si4 0.560658 0.227523 0.714399
Si Si5 0.560556 0.061790 0.780774
Si Si6 0.940170 0.145895 0.278772
O O1 0.500000 0.632017 0.281120
O O2 0.605906 0.605906 0.285147
O O3 0.569390 0.708793 0.267657
O O4 0.560218 0.644086 0.000000
O O5 0.164484 0.664491 0.500000
O O6 0.112382 0.695990 0.786941
O O7 0.194627 0.611843 0.789251
O O8 0.100161 0.602742 0.692005
O O9 0.061031 0.273922 0.500000
O O10 0.066334 0.208107 0.226473
O O11 0.000000 0.288644 0.221954
O O12 0.559016 0.214348 0.500000
O O13 0.500000 0.215637 0.787040
O O14 0.500000 0.077085 0.732020
O O15 0.568855 0.000000 0.730836
O O16 0.565312 0.065649 0.000000
O O17 0.939180 0.145554 0.500000
O O18 0.893723 0.106278 0.215323
O O19 0.000000 0.128268 0.223718
#
# Coordination Sequence:
#
# PCOD9561630 Si02
#       6
#    16  16  16  16  16  16
#     4   9  18  33  53  75  96 118 145 177 216 265
#     4  10  18  28  44  64  84 113 156 194 221 259
#     4   8  14  24  37  55  80 108 140 182 227 263
#     4   9  18  31  45  64  92 121 148 183 223 259
#     4   9  18  30  41  57  84 114 144 185 237 283
#     4   8  13  21  33  50  75 107 140 175 217 264
#
# _framework density 21.064791
#
# number of rings (size 3 to 8) (size 9 to 14) (size 15 to 20)
#    0.000    3.167    0.000    2.500    0.000    3.333 
#    0.000    5.000    0.000    3.000    0.000    2.333 
#    0.000    0.000    0.000    0.500    0.000    0.833 
#
# Total GULP energy -535208.642267 kJ/mol
# GULP energy per Si atom -5575.090024 kJ/mol
# Density = 2.101685 g / cm^3
# Si number density = 21.064791 Si / 1000 Ang^3
#
#
#
# Elastic Constant Matrix: (Units=GPa)
#
#
# Indices 1 2 3 4 5 6 
#
# 1 115.4891 98.5437 1.5691 0.0000 0.0000 0.0000
# 2 98.5437 115.4891 1.5691 0.0000 0.0000 0.0000
# 3 1.5691 1.5691 75.6046 0.0000 0.0000 0.0000
# 4 0.0000 0.0000 0.0000 -41.0332 0.0000 0.0000
# 5 0.0000 0.0000 0.0000 0.0000 -41.0332 0.0000
# 6 0.0000 0.0000 0.0000 0.0000 0.0000 48.0653
#
#
#
# Elastic Compliance Matrix: (Units=1/GPa)
#
#
# Indices 1 2 3 4 5 6 
#
# 1 0.031843 -0.027170 -0.000097 0.000000 0.000000 0.000000
# 2 -0.027170 0.031843 -0.000097 0.000000 0.000000 0.000000
# 3 -0.000097 -0.000097 0.013231 0.000000 0.000000 0.000000
# 4 0.000000 0.000000 0.000000 -0.024371 0.000000 0.000000
# 5 0.000000 0.000000 0.000000 0.000000 -0.024371 0.000000
# 6 0.000000 0.000000 0.000000 0.000000 0.000000 0.020805
#
#
# Mechanical properties :
#
#
# Convention : Reuss Voigt Hill
#
# Bulk Modulus (GPa) = 45.06540 56.66071 50.86306
# Shear Modulus (GPa) = 45.00227 6.85985 25.93106
#
# Velocity S-wave (km/s) = 4.62711 1.80655 3.51239
# Velocity P-wave (km/s) = 7.07015 5.59537 6.37555
#
# Compressibility (1/GPa) = 0.02218997
#
# Stress axis : x y z
#
# Youngs Moduli (GPa) = 31.40374 31.40374 75.58156
#
# Poissons Ratio (x) = 0.85323 0.00733
# Poissons Ratio (y) = 0.85323 0.00733
# Poissons Ratio (z) = 0.00305 0.00305
#
# Static dielectric constant tensor:
#      x y z
#    x 1.750420 0.000000 0.000000 
#    y 0.000000 1.750420 0.000000 
#    z 0.000000 0.000000 1.793340 
# 
# From -- ./inp_files/1567.got.cif
#   From: 2010.05.17/outbox.cif.g08.bks.cpg/sg123_1_cif.got.tgz:1567.got - 2010.05.20 11:43:04.
