data_PCOD9561862
_publ_section_title
;
Structure prediction by ZEFSAII (Michael W. Deem and Ramdas Pophale) SiO2 
 PCOD9561862
Probable space group: P 4/M M M
;
_chemical_formula_sum "Si O2"
_cell_formula_units_Z 64
_cell_length_a 20.553881
_cell_length_b 20.553881
_cell_length_c 7.329921
_cell_angle_alpha 90.000000
_cell_angle_beta 90.000000
_cell_angle_gamma 90.000000
_cell_volume 3096.613263
_symmetry_space_group_name_H-M "P 4/M M M"
_symmetry_group_IT_number 123
_symmetry_cell_setting 'tetragonal'
loop_
_space_group_symop_operation_xyz
x,y,z
-y,x,z
-x,-y,z
y,-x,z
x,-y,-z
-x,y,-z
y,x,-z
-y,-x,-z
-x,-y,-z
y,-x,-z
x,y,-z
-y,x,-z
-x,y,z
x,-y,z
-y,-x,z
y,x,z
loop_
_atom_site_type_symbol
_atom_site_label
_atom_site_fract_x
_atom_site_fract_y
_atom_site_fract_z
Si Si1 0.354918 0.251578 0.782910
Si Si2 0.248420 0.500000 0.779403
Si Si3 0.397700 0.500000 0.778861
Si Si4 0.252186 0.000000 0.296556
Si Si5 0.895208 0.000000 0.779895
Si Si6 0.856876 0.754358 0.281563
O O1 0.317320 0.317320 0.714268
O O2 0.426777 0.229929 0.715955
O O3 0.303673 0.193693 0.753379
O O4 0.362661 0.262431 0.000000
O O5 0.324112 0.500000 0.728982
O O6 0.238264 0.500000 0.000000
O O7 0.437325 0.437325 0.717833
O O8 0.399105 0.500000 0.000000
O O9 0.263786 0.928770 0.210571
O O10 0.282113 0.000000 0.500000
O O11 0.174268 0.000000 0.307078
O O12 0.937495 0.062506 0.729318
O O13 0.888328 0.000000 0.000000
O O14 0.864037 0.761909 0.500000
O O15 0.820404 0.820404 0.214493
#
# Coordination Sequence:
#
# PCOD9561862 Si02
#       6
#    16   8   8   8   8  16
#     4   9  17  29  46  68  93 121 152 185 223 268
#     4   9  15  24  40  62  88 116 148 185 220 258
#     4   8  12  17  28  51  84 117 143 169 208 257
#     4  10  19  31  49  69  87 114 154 194 231 270
#     4   9  18  30  42  62  95 127 149 174 214 265
#     4   9  18  32  48  67  92 118 146 185 229 271
#
# _framework density 20.667740999999999
#
# number of rings (size 3 to 8) (size 9 to 14) (size 15 to 20)
#    0.000    3.000    0.000    2.250    0.000    5.500 
#    0.000    3.750    0.000    0.750    0.000    5.250 
#    0.000    0.000    0.000   15.250    0.000   15.500 
#
# Total GULP energy -356430.743215 kJ/mol
# GULP energy per Si atom -5569.230363 kJ/mol
# Density = 2.062070 g / cm^3
# Si number density = 20.667741 Si / 1000 Ang^3
#
#
#
# Elastic Constant Matrix: (Units=GPa)
#
#
# Indices 1 2 3 4 5 6 
#
# 1 109.7420 49.8439 -2.5985 0.0000 0.0000 0.0000
# 2 49.8439 109.7420 -2.5985 0.0000 0.0000 0.0000
# 3 -2.5985 -2.5985 78.3270 0.0000 0.0000 0.0000
# 4 0.0000 0.0000 0.0000 -0.0611 0.0000 0.0000
# 5 0.0000 0.0000 0.0000 0.0000 -0.0611 0.0000
# 6 0.0000 0.0000 0.0000 0.0000 0.0000 83.0566
#
#
#
# Elastic Compliance Matrix: (Units=1/GPa)
#
#
# Indices 1 2 3 4 5 6 
#
# 1 0.011484 -0.005211 0.000208 0.000000 0.000000 0.000000
# 2 -0.005211 0.011484 0.000208 0.000000 0.000000 0.000000
# 3 0.000208 0.000208 0.012781 0.000000 0.000000 0.000000
# 4 0.000000 0.000000 0.000000-16.379865 0.000000 0.000000
# 5 0.000000 0.000000 0.000000 0.000000-16.379865 0.000000
# 6 0.000000 0.000000 0.000000 0.000000 0.000000 0.012040
#
#
# Mechanical properties :
#
#
# Convention : Reuss Voigt Hill
#
# Bulk Modulus (GPa) = 38.22745 43.01164 40.61954
# Shear Modulus (GPa) = -0.15293 33.46451 16.65579
#
# Velocity S-wave (km/s) = -0.27232 4.02825 2.84189
# Velocity P-wave (km/s) = 4.29389 6.51858 5.51948
#
# Compressibility (1/GPa) = 0.02615922
#
# Stress axis : x y z
#
# Youngs Moduli (GPa) = 87.07760 87.07760 78.24237
#
# Poissons Ratio (x) = 0.45376 -0.01628
# Poissons Ratio (y) = 0.45376 -0.01628
# Poissons Ratio (z) = -0.01812 -0.01812
#
# Static dielectric constant tensor:
#      x y z
#    x 1.758610 0.000000 0.000000 
#    y 0.000000 1.758610 0.000000 
#    z 0.000000 0.000000 1.830070 
# 
# From -- ./inp_files/1000.got.cif
#   From: 2010.05.17/outbox.cif.g08.bks.cpg/sg123_1_cif.got.tgz:1000.got - 2010.05.20 11:43:04.
