data_PCOD9561494
_publ_section_title
;
Structure prediction by ZEFSAII (Michael W. Deem and Ramdas Pophale) SiO2 
 PCOD9561494
Probable space group: I -4 2 D
;
_chemical_formula_sum "Si O2"
_cell_formula_units_Z 52
_cell_length_a 16.304193
_cell_length_b 16.304193
_cell_length_c 8.462616
_cell_angle_alpha 90.000000
_cell_angle_beta 90.000000
_cell_angle_gamma 90.000000
_cell_volume 2249.589364
_symmetry_space_group_name_H-M "I -4 2 D"
_symmetry_group_IT_number 122
_symmetry_cell_setting 'tetragonal'
loop_
_space_group_symop_operation_xyz
x,y,z
y,-x,-z
-x,-y,z
-y,x,-z
x,1/2-y,1/4-z
-x,1/2+y,1/4-z
-y,1/2-x,1/4+z
y,1/2+x,1/4+z
1/2+x,1/2+y,1/2+z
1/2+y,1/2-x,1/2-z
1/2-x,1/2-y,1/2+z
1/2-y,1/2+x,1/2-z
1/2+x,-y,3/4-z
1/2-x,y,3/4-z
1/2-y,-x,3/4+z
1/2+y,x,3/4+z
loop_
_atom_site_type_symbol
_atom_site_label
_atom_site_fract_x
_atom_site_fract_y
_atom_site_fract_z
Si Si1 0.851797 0.611972 0.375012
Si Si2 0.750000 0.328015 0.375000
Si Si3 0.424909 0.898302 0.283397
Si Si4 0.250000 0.363443 0.875000
Si Si5 0.000000 0.000000 0.000000
O O1 0.750000 0.597312 0.375000
O O2 0.868641 0.689023 0.255937
O O3 0.878968 0.624744 0.557782
O O4 0.915905 0.539438 0.326116
O O5 0.692145 0.271601 0.271354
O O6 0.521177 0.903024 0.314878
O O7 0.417562 0.826431 0.160817
#
# Coordination Sequence:
#
# PCOD9561494 Si02
#       5
#    16   8  16   8   4
#     4  12  28  53  79 124 170 219 294 354 436 535
#     4  12  26  49  77 118 168 218 280 356 428 522
#     4  11  27  48  76 114 159 213 279 351 421 507
#     4  12  24  47  75 114 150 216 268 332 422 502
#     4  12  32  48  86 120 168 236 270 364 436 508
#
# _framework density 23.11533
#
# number of rings (size 3 to 8) (size 9 to 14) (size 15 to 20)
#    0.000    0.308    4.615    1.846   10.769    3.692 
#    0.000    0.000    0.000    0.000    0.000    0.000 
#    0.000    0.000    0.000    0.000    0.000    0.000 
#
# Total GULP energy -144736.223684 kJ/mol
# GULP energy per Si atom -5566.777834 kJ/mol
# Density = 2.306272 g / cm^3
# Si number density = 23.115330 Si / 1000 Ang^3
#
#
#
# Elastic Constant Matrix: (Units=GPa)
#
#
# Indices 1 2 3 4 5 6 
#
# 1 266.3109 -96.5569 37.9606 0.0000 0.0000 0.0000
# 2 -96.5569 266.3109 37.9606 0.0000 0.0000 0.0000
# 3 37.9606 37.9606 111.3337 0.0000 0.0000 0.0000
# 4 0.0000 0.0000 0.0000 37.8720 0.0000 0.0000
# 5 0.0000 0.0000 0.0000 0.0000 37.8720 0.0000
# 6 0.0000 0.0000 0.0000 0.0000 0.0000 23.8486
#
#
#
# Elastic Compliance Matrix: (Units=1/GPa)
#
#
# Indices 1 2 3 4 5 6 
#
# 1 0.004853 0.002098 -0.002370 0.000000 0.000000 0.000000
# 2 0.002098 0.004853 -0.002370 0.000000 0.000000 0.000000
# 3 -0.002370 -0.002370 0.010598 0.000000 0.000000 0.000000
# 4 0.000000 0.000000 0.000000 0.026405 0.000000 0.000000
# 5 0.000000 0.000000 0.000000 0.000000 0.026405 0.000000
# 6 0.000000 0.000000 0.000000 0.000000 0.000000 0.041931
#
#
# Mechanical properties :
#
#
# Convention : Reuss Voigt Hill
#
# Bulk Modulus (GPa) = 66.57823 66.96489 66.77156
# Shear Modulus (GPa) = 39.89245 64.22460 52.05853
#
# Velocity S-wave (km/s) = 4.15878 5.27681 4.75080
# Velocity P-wave (km/s) = 7.20596 8.13383 7.68391
#
# Compressibility (1/GPa) = 0.01501992
#
# Stress axis : x y z
#
# Youngs Moduli (GPa) = 206.04429 206.04429 94.35616
#
# Poissons Ratio (x) = -0.43218 0.22362
# Poissons Ratio (y) = -0.43218 0.22362
# Poissons Ratio (z) = 0.48832 0.48832
#
# Static dielectric constant tensor:
#      x y z
#    x 1.894280 0.000000 0.000000 
#    y 0.000000 1.894280 0.000000 
#    z 0.000000 0.000000 1.888300 
# 
# From -- ./inp_files/2250.got.cif
#   From: 2010.05.17/outbox.cif.g08.bks.cpg/sg122_2_cif.got.tgz:2250.got - 2010.05.20 11:37:33.
