data_PCOD9561670
_publ_section_title
;
Structure prediction by ZEFSAII (Michael W. Deem and Ramdas Pophale) SiO2 
 PCOD9561670
Probable space group: P 4/M M M
;
_chemical_formula_sum "Si O2"
_cell_formula_units_Z 88
_cell_length_a 18.086532
_cell_length_b 18.086532
_cell_length_c 15.778011
_cell_angle_alpha 90.000000
_cell_angle_beta 90.000000
_cell_angle_gamma 90.000000
_cell_volume 5161.344609
_symmetry_space_group_name_H-M "P 4/M M M"
_symmetry_group_IT_number 123
_symmetry_cell_setting 'tetragonal'
loop_
_space_group_symop_operation_xyz
x,y,z
-y,x,z
-x,-y,z
y,-x,z
x,-y,-z
-x,y,-z
y,x,-z
-y,-x,-z
-x,-y,-z
y,-x,-z
x,y,-z
-y,x,-z
-x,y,z
x,-y,z
-y,-x,z
y,x,z
loop_
_atom_site_type_symbol
_atom_site_label
_atom_site_fract_x
_atom_site_fract_y
_atom_site_fract_z
Si Si1 0.084554 0.583970 0.727234
Si Si2 0.584240 0.297858 0.102257
Si Si3 0.086270 0.207236 0.151197
Si Si4 0.130773 0.367657 0.904541
Si Si5 0.912527 0.205685 0.500000
Si Si6 0.149253 0.267203 0.324857
O O1 0.102459 0.500000 0.703664
O O2 0.088027 0.592011 0.829203
O O3 0.139383 0.645921 0.691172
O O4 0.000000 0.600719 0.700513
O O5 0.500000 0.300123 0.134405
O O6 0.637470 0.362531 0.135040
O O7 0.619676 0.217349 0.115395
O O8 0.580479 0.306173 0.000000
O O9 0.138727 0.138727 0.128932
O O10 0.110825 0.281229 0.102001
O O11 0.101882 0.228385 0.249765
O O12 0.000000 0.192898 0.137800
O O13 0.116309 0.394449 0.000000
O O14 0.874885 0.125115 0.500000
O O15 0.883261 0.246056 0.584196
O O16 0.000000 0.202610 0.500000
O O17 0.230612 0.230612 0.317881
#
# Coordination Sequence:
#
# PCOD9561670 Si02
#       6
#    16  16  16  16   8  16
#     4  10  20  33  49  70  97 124 153 196 243 284
#     4   9  17  28  42  61  84 109 139 176 217 264
#     4  10  20  33  49  68  91 120 155 196 240 285
#     4  10  19  32  48  65  88 119 157 195 233 282
#     4  10  18  29  49  73  99 131 164 200 238 280
#     4   9  18  33  51  71  96 128 163 193 229 283
#
# _framework density 17.049821999999999
#
# number of rings (size 3 to 8) (size 9 to 14) (size 15 to 20)
#    0.000    2.364    0.000    4.364    0.000    4.818 
#    0.000    2.273    0.000    4.909    0.000    1.273 
#    0.000    0.364    0.000    0.000    0.000    5.091 
#
# Total GULP energy -490702.711479 kJ/mol
# GULP energy per Si atom -5576.167176 kJ/mol
# Density = 1.701102 g / cm^3
# Si number density = 17.049822 Si / 1000 Ang^3
#
#
#
# Elastic Constant Matrix: (Units=GPa)
#
#
# Indices 1 2 3 4 5 6 
#
# 1 99.5074 68.7829 7.9203 0.0000 0.0000 0.0000
# 2 68.7829 99.5081 7.9212 0.0000 0.0000 0.0000
# 3 7.9203 7.9212 53.1880 0.0000 0.0000 0.0000
# 4 0.0000 0.0000 0.0000 6.5206 0.0000 0.0000
# 5 0.0000 0.0000 0.0000 0.0000 6.5208 0.0000
# 6 0.0000 0.0000 0.0000 0.0000 0.0000 20.3212
#
#
#
# Elastic Compliance Matrix: (Units=1/GPa)
#
#
# Indices 1 2 3 4 5 6 
#
# 1 0.019287 -0.013260 -0.000897 0.000000 0.000000 0.000000
# 2 -0.013260 0.019287 -0.000898 0.000000 0.000000 0.000000
# 3 -0.000897 -0.000898 0.019069 0.000000 0.000000 0.000000
# 4 0.000000 0.000000 0.000000 0.153360 0.000000 0.000000
# 5 0.000000 0.000000 0.000000 0.000000 0.153355 0.000000
# 6 0.000000 0.000000 0.000000 0.000000 0.000000 0.049210
#
#
# Mechanical properties :
#
#
# Convention : Reuss Voigt Hill
#
# Bulk Modulus (GPa) = 36.32166 46.82805 41.57486
# Shear Modulus (GPa) = 11.04106 17.84446 14.44276
#
# Velocity S-wave (km/s) = 2.54751 3.23864 2.91364
# Velocity P-wave (km/s) = 5.47746 6.44283 5.97966
#
# Compressibility (1/GPa) = 0.02753178
#
# Stress axis : x y z
#
# Youngs Moduli (GPa) = 51.84894 51.84917 52.44240
#
# Poissons Ratio (x) = 0.68753 0.04705
# Poissons Ratio (y) = 0.68753 0.04708
# Poissons Ratio (z) = 0.04652 0.04655
#
# Static dielectric constant tensor:
#      x y z
#    x 1.586120 0.000000 0.000000 
#    y 0.000000 1.586120 0.000000 
#    z 0.000000 0.000000 1.582680 
# 
# From -- ./inp_files/4075.got.cif
#   From: 2010.05.17/outbox.cif.g08.bks.cpg/sg123_3_cif.got.tgz:4075.got - 2010.05.20 11:43:04.
