data_PCOD9561344
_publ_section_title
;
Structure prediction by ZEFSAII (Michael W. Deem and Ramdas Pophale) SiO2 
 PCOD9561344
Probable space group: I -4 2 D
;
_chemical_formula_sum "Si O2"
_cell_formula_units_Z 96
_cell_length_a 22.742334
_cell_length_b 22.742334
_cell_length_c 9.999477
_cell_angle_alpha 90.000000
_cell_angle_beta 90.000000
_cell_angle_gamma 90.000000
_cell_volume 5171.867055
_symmetry_space_group_name_H-M "I -4 2 D"
_symmetry_group_IT_number 122
_symmetry_cell_setting 'tetragonal'
loop_
_space_group_symop_operation_xyz
x,y,z
y,-x,-z
-x,-y,z
-y,x,-z
x,1/2-y,1/4-z
-x,1/2+y,1/4-z
-y,1/2-x,1/4+z
y,1/2+x,1/4+z
1/2+x,1/2+y,1/2+z
1/2+y,1/2-x,1/2-z
1/2-x,1/2-y,1/2+z
1/2-y,1/2+x,1/2-z
1/2+x,-y,3/4-z
1/2-x,y,3/4-z
1/2-y,-x,3/4+z
1/2+y,x,3/4+z
loop_
_atom_site_type_symbol
_atom_site_label
_atom_site_fract_x
_atom_site_fract_y
_atom_site_fract_z
Si Si1 0.637299 0.430848 0.594636
Si Si2 0.072068 0.260607 0.777707
Si Si3 0.933603 0.112673 0.351174
Si Si4 0.262241 0.429638 0.026422
Si Si5 0.430608 0.863595 0.881673
Si Si6 0.388573 0.569412 0.117212
O O1 0.704681 0.415529 0.629607
O O2 0.599659 0.407819 0.720020
O O3 0.611823 0.400286 0.463695
O O4 0.631365 0.501500 0.587593
O O5 0.093136 0.250000 0.625000
O O6 0.091862 0.322248 0.840171
O O7 0.000905 0.264851 0.768401
O O8 0.912497 0.176358 0.406025
O O9 0.919083 0.068918 0.472729
O O10 0.003317 0.114382 0.327456
O O11 0.205151 0.414585 0.113457
O O12 0.250000 0.408288 0.875000
O O13 0.423495 0.889273 0.031076
#
# Coordination Sequence:
#
# PCOD9561344 Si02
#       6
#    16  16  16  16  16  16
#     4  11  23  38  57  84 121 156 185 233 296 347
#     4   9  18  36  58  80 110 152 199 235 271 334
#     4  11  21  34  58  86 112 149 193 236 284 342
#     4   9  18  36  58  80 110 152 199 235 271 334
#     4  11  23  38  57  84 121 156 185 233 296 347
#     4  11  21  34  58  86 112 149 193 236 284 342
#
# _framework density 18.561962000000001
#
# number of rings (size 3 to 8) (size 9 to 14) (size 15 to 20)
#    0.000    1.667    3.333    2.000    0.000    5.333 
#    0.000    5.000    0.000    6.000    0.000    0.000 
#    0.000    0.000    0.000    0.000    0.000    0.000 
#
# Total GULP energy -267952.388712 kJ/mol
# GULP energy per Si atom -5582.341431 kJ/mol
# Density = 1.851971 g / cm^3
# Si number density = 18.561962 Si / 1000 Ang^3
#
#
#
# Elastic Constant Matrix: (Units=GPa)
#
#
# Indices 1 2 3 4 5 6 
#
# 1 53.7954 23.1237 -3.5481 0.0000 0.0000 0.0000
# 2 23.1237 53.7954 -3.5481 0.0000 0.0000 0.0000
# 3 -3.5481 -3.5481 40.7790 0.0000 0.0000 0.0000
# 4 0.0000 0.0000 0.0000 27.4394 0.0000 0.0000
# 5 0.0000 0.0000 0.0000 0.0000 27.4394 0.0000
# 6 0.0000 0.0000 0.0000 0.0000 0.0000 -27.6993
#
#
#
# Elastic Compliance Matrix: (Units=1/GPa)
#
#
# Indices 1 2 3 4 5 6 
#
# 1 0.022855 -0.009749 0.001140 0.000000 0.000000 0.000000
# 2 -0.009749 0.022855 0.001140 0.000000 0.000000 0.000000
# 3 0.001140 0.001140 0.024721 0.000000 0.000000 0.000000
# 4 0.000000 0.000000 0.000000 0.036444 0.000000 0.000000
# 5 0.000000 0.000000 0.000000 0.000000 0.036444 0.000000
# 6 0.000000 0.000000 0.000000 0.000000 0.000000 -0.036102
#
#
# Mechanical properties :
#
#
# Convention : Reuss Voigt Hill
#
# Bulk Modulus (GPa) = 18.02002 20.04721 19.03362
# Shear Modulus (GPa) = 35.54917 14.25871 24.90394
#
# Velocity S-wave (km/s) = 4.38100 2.77459 3.66685
# Velocity P-wave (km/s) = 5.94307 4.59218 5.31075
#
# Compressibility (1/GPa) = 0.05549383
#
# Stress axis : x y z
#
# Youngs Moduli (GPa) = 43.75478 43.75478 40.45168
#
# Poissons Ratio (x) = 0.42656 -0.04613
# Poissons Ratio (y) = 0.42656 -0.04613
# Poissons Ratio (z) = -0.04989 -0.04989
#
# Static dielectric constant tensor:
#      x y z
#    x 1.638540 0.000000 0.000000 
#    y 0.000000 1.638540 0.000000 
#    z 0.000000 0.000000 1.625180 
# 
# From -- ./inp_files/2902.got.cif
#   From: 2010.05.17/outbox.cif.g08.bks.cpg/sg122_2_cif.got.tgz:2902.got - 2010.05.20 11:37:33.
