data_PCOD9561024
_publ_section_title
;
Structure prediction by ZEFSAII (Michael W. Deem and Ramdas Pophale) SiO2 
 PCOD9561024
Probable space group: I -4 2 D
;
_chemical_formula_sum "Si O2"
_cell_formula_units_Z 96
_cell_length_a 14.349191
_cell_length_b 14.349191
_cell_length_c 21.305712
_cell_angle_alpha 90.000000
_cell_angle_beta 90.000000
_cell_angle_gamma 90.000000
_cell_volume 4386.830811
_symmetry_space_group_name_H-M "I -4 2 D"
_symmetry_group_IT_number 122
_symmetry_cell_setting 'tetragonal'
loop_
_space_group_symop_operation_xyz
x,y,z
y,-x,-z
-x,-y,z
-y,x,-z
x,1/2-y,1/4-z
-x,1/2+y,1/4-z
-y,1/2-x,1/4+z
y,1/2+x,1/4+z
1/2+x,1/2+y,1/2+z
1/2+y,1/2-x,1/2-z
1/2-x,1/2-y,1/2+z
1/2-y,1/2+x,1/2-z
1/2+x,-y,3/4-z
1/2-x,y,3/4-z
1/2-y,-x,3/4+z
1/2+y,x,3/4+z
loop_
_atom_site_type_symbol
_atom_site_label
_atom_site_fract_x
_atom_site_fract_y
_atom_site_fract_z
Si Si1 0.091127 0.659161 0.084751
Si Si2 0.275443 0.445898 0.756843
Si Si3 0.657191 0.765440 0.248091
Si Si4 0.167034 0.945450 0.721804
Si Si5 0.820685 0.987513 0.113901
Si Si6 0.701190 0.335755 0.438588
O O1 0.067625 0.750000 0.125000
O O2 0.104620 0.569493 0.128601
O O3 0.022889 0.642998 0.024981
O O4 0.194983 0.670073 0.056296
O O5 0.240326 0.549431 0.771028
O O6 0.196743 0.367223 0.764385
O O7 0.371261 0.414789 0.790892
O O8 0.306148 0.445670 0.683417
O O9 0.726297 0.721718 0.196652
O O10 0.217922 0.984416 0.660636
O O11 0.249490 0.885297 0.753933
O O12 0.853853 0.907321 0.067228
O O13 0.750000 0.367175 0.375000
#
# Coordination Sequence:
#
# PCOD9561024 Si02
#       6
#    16  16  16  16  16  16
#     4  11  23  39  64  93 131 173 216 269 326 389
#     4  10  23  43  68  93 129 169 219 272 332 393
#     4  10  21  40  67  90 126 173 211 276 330 384
#     4  11  23  41  65  93 136 174 214 272 329 394
#     4  11  23  40  66  94 128 169 221 264 322 403
#     4  11  20  43  63  91 133 174 214 264 329 392
#
# _framework density 21.883679999999998
#
# number of rings (size 3 to 8) (size 9 to 14) (size 15 to 20)
#    0.000    1.333    5.000    2.500    0.000    3.000 
#    0.000    4.167    7.333    0.000    0.000    0.000 
#    0.000    0.000    0.000    0.000    0.000    0.000 
#
# Total GULP energy -268157.063086 kJ/mol
# GULP energy per Si atom -5586.605481 kJ/mol
# Density = 2.183387 g / cm^3
# Si number density = 21.883680 Si / 1000 Ang^3
#
#
#
# Elastic Constant Matrix: (Units=GPa)
#
#
# Indices 1 2 3 4 5 6 
#
# 1 129.3284 49.2831 1.4977 0.0000 0.0000 0.0000
# 2 49.2831 129.3284 1.4977 0.0000 0.0000 0.0000
# 3 1.4977 1.4977 14.2109 0.0000 0.0000 0.0000
# 4 0.0000 0.0000 0.0000 30.7682 0.0000 0.0000
# 5 0.0000 0.0000 0.0000 0.0000 30.7682 0.0000
# 6 0.0000 0.0000 0.0000 0.0000 0.0000 4.5885
#
#
#
# Elastic Compliance Matrix: (Units=1/GPa)
#
#
# Indices 1 2 3 4 5 6 
#
# 1 0.009051 -0.003442 -0.000591 0.000000 0.000000 0.000000
# 2 -0.003442 0.009051 -0.000591 0.000000 0.000000 0.000000
# 3 -0.000591 -0.000591 0.070493 0.000000 0.000000 0.000000
# 4 0.000000 0.000000 0.000000 0.032501 0.000000 0.000000
# 5 0.000000 0.000000 0.000000 0.000000 0.032501 0.000000
# 6 0.000000 0.000000 0.000000 0.000000 0.000000 0.217934
#
#
# Mechanical properties :
#
#
# Convention : Reuss Voigt Hill
#
# Bulk Modulus (GPa) = 12.60305 41.93606 27.26955
# Shear Modulus (GPa) = 12.27814 27.93096 20.10455
#
# Velocity S-wave (km/s) = 2.37125 3.57646 3.03430
# Velocity P-wave (km/s) = 3.64262 6.02159 4.97636
#
# Compressibility (1/GPa) = 0.07934589
#
# Stress axis : x y z
#
# Youngs Moduli (GPa) = 110.48758 110.48758 14.18582
#
# Poissons Ratio (x) = 0.38031 0.00839
# Poissons Ratio (y) = 0.38031 0.00839
# Poissons Ratio (z) = 0.06531 0.06531
#
# Static dielectric constant tensor:
#      x y z
#    x 1.851000 0.000000 0.000000 
#    y 0.000000 1.851000 0.000000 
#    z 0.000000 0.000000 1.832870 
# 
# From -- ./inp_files/7279.got.cif
#   From: 2010.05.17/outbox.cif.g08.bks.cpg/sg122_4_cif.got.tgz:7279.got - 2010.05.20 11:37:33.
