data_PCOD9561661
_publ_section_title
;
Structure prediction by ZEFSAII (Michael W. Deem and Ramdas Pophale) SiO2 
 PCOD9561661
Probable space group: P 4/M M M
;
_chemical_formula_sum "Si O2"
_cell_formula_units_Z 120
_cell_length_a 28.791306
_cell_length_b 28.791306
_cell_length_c 7.602568
_cell_angle_alpha 90.000000
_cell_angle_beta 90.000000
_cell_angle_gamma 90.000000
_cell_volume 6302.067405
_symmetry_space_group_name_H-M "P 4/M M M"
_symmetry_group_IT_number 123
_symmetry_cell_setting 'tetragonal'
loop_
_space_group_symop_operation_xyz
x,y,z
-y,x,z
-x,-y,z
y,-x,z
x,-y,-z
-x,y,-z
y,x,-z
-y,-x,-z
-x,-y,-z
y,-x,-z
x,y,-z
-y,x,-z
-x,y,z
x,-y,z
-y,-x,z
y,x,z
loop_
_atom_site_type_symbol
_atom_site_label
_atom_site_fract_x
_atom_site_fract_y
_atom_site_fract_z
Si Si1 0.792016 0.053518 0.800431
Si Si2 0.642903 0.195192 0.707004
Si Si3 0.552987 0.628993 0.285069
Si Si4 0.551897 0.137978 0.213022
Si Si5 0.298217 0.110046 0.706746
Si Si6 0.052174 0.610365 0.787113
Si Si7 0.626014 0.297627 0.285817
Si Si8 0.944885 0.866961 0.500000
O O1 0.748227 0.087822 0.784147
O O2 0.833384 0.064274 0.666661
O O3 0.776445 0.000000 0.762692
O O4 0.809096 0.054924 0.000000
O O5 0.653837 0.199657 0.500000
O O6 0.592401 0.171764 0.723553
O O7 0.680983 0.158745 0.779628
O O8 0.637777 0.246631 0.782293
O O9 0.552654 0.628726 0.500000
O O10 0.500000 0.625379 0.225472
O O11 0.585999 0.585999 0.231647
O O12 0.578705 0.676596 0.229732
O O13 0.500000 0.148529 0.274477
O O14 0.569216 0.086757 0.266547
O O15 0.551929 0.139752 0.000000
O O16 0.289300 0.115997 0.500000
O O17 0.340928 0.074328 0.729074
O O18 0.000000 0.604901 0.723211
O O19 0.051566 0.611088 0.000000
O O20 0.623657 0.294917 0.500000
O O21 0.667200 0.332801 0.241336
O O22 0.911251 0.911251 0.500000
O O23 0.000000 0.879025 0.500000
#
# Coordination Sequence:
#
# PCOD9561661 Si02
#       8
#    16  16  16  16  16  16  16   8
#     4  10  20  35  58  86 116 152 189 227 274 325
#     4   9  18  30  46  67  92 121 162 208 256 304
#     4   8  13  20  31  50  77 108 142 183 234 294
#     4   9  18  31  44  60  86 120 156 199 252 302
#     4  10  18  29  46  71 105 134 170 217 269 321
#     4   9  17  28  43  64  88 120 164 209 255 309
#     4   8  14  26  42  59  81 110 146 187 230 279
#     4  10  22  41  64  92 124 156 191 229 269 317
#
# _framework density 19.041371000000002
#
# number of rings (size 3 to 8) (size 9 to 14) (size 15 to 20)
#    0.000    2.933    0.667    1.600    0.000    3.933 
#    0.000    4.000    0.000    0.400    0.000    5.600 
#    0.000    0.000    0.000    0.000    0.000    0.000 
#
# Total GULP energy -668951.271494 kJ/mol
# GULP energy per Si atom -5574.593929 kJ/mol
# Density = 1.899803 g / cm^3
# Si number density = 19.041371 Si / 1000 Ang^3
#
#
#
# Elastic Constant Matrix: (Units=GPa)
#
#
# Indices 1 2 3 4 5 6 
#
# 1 130.7619 62.4555 16.6781 0.0000 0.0000 0.0000
# 2 62.4555 130.7619 16.6781 0.0000 0.0000 0.0000
# 3 16.6781 16.6781 56.3505 0.0000 0.0000 0.0000
# 4 0.0000 0.0000 0.0000 -69.7472 0.0000 0.0000
# 5 0.0000 0.0000 0.0000 0.0000 -69.7472 0.0000
# 6 0.0000 0.0000 0.0000 0.0000 0.0000 12.2245
#
#
#
# Elastic Compliance Matrix: (Units=1/GPa)
#
#
# Indices 1 2 3 4 5 6 
#
# 1 0.010047 -0.004593 -0.001614 0.000000 0.000000 0.000000
# 2 -0.004593 0.010047 -0.001614 0.000000 0.000000 0.000000
# 3 -0.001614 -0.001614 0.018702 0.000000 0.000000 0.000000
# 4 0.000000 0.000000 0.000000 -0.014337 0.000000 0.000000
# 5 0.000000 0.000000 0.000000 0.000000 -0.014337 0.000000
# 6 0.000000 0.000000 0.000000 0.000000 0.000000 0.081803
#
#
# Mechanical properties :
#
#
# Convention : Reuss Voigt Hill
#
# Bulk Modulus (GPa) = 43.19113 56.61087 49.90100
# Shear Modulus (GPa) = 43.37116 -10.64982 16.36067
#
# Velocity S-wave (km/s) = 4.77774 -2.36752 2.93442
# Velocity P-wave (km/s) = 7.29162 4.72456 6.14366
#
# Compressibility (1/GPa) = 0.02315290
#
# Stress axis : x y z
#
# Youngs Moduli (GPa) = 99.53164 99.53164 53.47123
#
# Poissons Ratio (x) = 0.45713 0.08632
# Poissons Ratio (y) = 0.45713 0.08632
# Poissons Ratio (z) = 0.16067 0.16067
#
# Static dielectric constant tensor:
#      x y z
#    x 1.647360 0.000000 0.000000 
#    y 0.000000 1.647360 0.000000 
#    z 0.000000 0.000000 1.711900 
# 
# From -- ./inp_files/2011.got.cif
#   From: 2010.05.17/outbox.cif.g08.bks.cpg/sg123_2_cif.got.tgz:2011.got - 2010.05.20 11:43:04.
