data_PCOD9561898
_publ_section_title
;
Structure prediction by ZEFSAII (Michael W. Deem and Ramdas Pophale) SiO2 
 PCOD9561898
Probable space group: P 4/M M M
;
_chemical_formula_sum "Si O2"
_cell_formula_units_Z 104
_cell_length_a 17.922720
_cell_length_b 17.922720
_cell_length_c 18.960046
_cell_angle_alpha 90.000000
_cell_angle_beta 90.000000
_cell_angle_gamma 90.000000
_cell_volume 6090.419772
_symmetry_space_group_name_H-M "P 4/M M M"
_symmetry_group_IT_number 123
_symmetry_cell_setting 'tetragonal'
loop_
_space_group_symop_operation_xyz
x,y,z
-y,x,z
-x,-y,z
y,-x,z
x,-y,-z
-x,y,-z
y,x,-z
-y,-x,-z
-x,-y,-z
y,-x,-z
x,y,-z
-y,x,-z
-x,y,z
x,-y,z
-y,-x,z
y,x,z
loop_
_atom_site_type_symbol
_atom_site_label
_atom_site_fract_x
_atom_site_fract_y
_atom_site_fract_z
Si Si1 0.269009 0.850275 0.420827
Si Si2 0.300930 0.914787 0.857310
Si Si3 0.411175 0.411175 0.081144
Si Si4 0.202877 0.917852 0.280449
Si Si5 0.313243 0.686758 0.186782
Si Si6 0.414021 0.178712 0.783041
Si Si7 0.214732 0.214732 0.080378
Si Si8 0.414637 0.911476 0.363239
O O1 0.249577 0.875460 0.500000
O O2 0.232489 0.767511 0.413206
O O3 0.232790 0.897626 0.357719
O O4 0.356477 0.863978 0.409110
O O5 0.267027 0.915720 0.778056
O O6 0.376456 0.867229 0.847428
O O7 0.240550 0.869677 0.903352
O O8 0.312510 0.000000 0.879849
O O9 0.500000 0.398349 0.089106
O O10 0.365309 0.365309 0.138571
O O11 0.391077 0.391077 0.000000
O O12 0.143402 0.856599 0.259494
O O13 0.169836 0.000000 0.280920
O O14 0.363898 0.746972 0.228204
O O15 0.263310 0.736691 0.134452
O O16 0.500000 0.198411 0.797497
O O17 0.413011 0.125414 0.714468
O O18 0.232463 0.232463 0.000000
O O19 0.500000 0.907113 0.388830
O O20 0.394201 0.000000 0.360788
#
# Coordination Sequence:
#
# PCOD9561898 Si02
#       8
#    16  16   8  16   8  16   8  16
#     4  10  21  34  51  74 104 139 174 213 258 309
#     4  10  19  33  54  76  99 135 170 208 257 311
#     4   9  17  30  49  72 100 135 172 209 253 309
#     4  10  19  32  51  72  98 130 170 210 251 303
#     4  10  20  32  52  73 103 140 168 213 254 313
#     4  10  20  32  50  79 107 135 174 217 258 302
#     4  10  21  35  52  77 101 128 169 216 259 307
#     4  10  20  33  51  76 106 139 176 218 264 314
#
# _framework density 17.075998999999999
#
# number of rings (size 3 to 8) (size 9 to 14) (size 15 to 20)
#    0.000    2.077    2.308    1.846    1.077    2.923 
#    0.000    0.769    0.000    4.385    0.000    7.000 
#    0.000    0.308    0.000    1.692    0.000    0.000 
#
# Total GULP energy -579333.074424 kJ/mol
# GULP energy per Si atom -5570.510331 kJ/mol
# Density = 1.703713 g / cm^3
# Si number density = 17.075999 Si / 1000 Ang^3
#
#
#
# Elastic Constant Matrix: (Units=GPa)
#
#
# Indices 1 2 3 4 5 6 
#
# 1 87.6935 42.3367 4.4717 0.0000 0.0000 0.0000
# 2 42.3367 87.6935 4.4717 0.0000 0.0000 0.0000
# 3 4.4717 4.4717 32.3292 0.0000 0.0000 0.0000
# 4 0.0000 0.0000 0.0000 11.1017 0.0000 0.0000
# 5 0.0000 0.0000 0.0000 0.0000 11.1017 0.0000
# 6 0.0000 0.0000 0.0000 0.0000 0.0000 18.1333
#
#
#
# Elastic Compliance Matrix: (Units=1/GPa)
#
#
# Indices 1 2 3 4 5 6 
#
# 1 0.014906 -0.007142 -0.001074 0.000000 0.000000 0.000000
# 2 -0.007142 0.014906 -0.001074 0.000000 0.000000 0.000000
# 3 -0.001074 -0.001074 0.031229 0.000000 0.000000 0.000000
# 4 0.000000 0.000000 0.000000 0.090076 0.000000 0.000000
# 5 0.000000 0.000000 0.000000 0.000000 0.090076 0.000000
# 6 0.000000 0.000000 0.000000 0.000000 0.000000 0.055147
#
#
# Mechanical properties :
#
#
# Convention : Reuss Voigt Hill
#
# Bulk Modulus (GPa) = 23.55052 34.47514 29.01283
# Shear Modulus (GPa) = 15.19418 18.49640 16.84529
#
# Velocity S-wave (km/s) = 2.98618 3.29474 3.14425
# Velocity P-wave (km/s) = 5.07063 5.89125 5.49628
#
# Compressibility (1/GPa) = 0.04246190
#
# Stress axis : x y z
#
# Youngs Moduli (GPa) = 67.08751 67.08751 32.02160
#
# Poissons Ratio (x) = 0.47911 0.03439
# Poissons Ratio (y) = 0.47911 0.03439
# Poissons Ratio (z) = 0.07205 0.07205
#
# Static dielectric constant tensor:
#      x y z
#    x 1.600580 0.000000 0.000000 
#    y 0.000000 1.600580 0.000000 
#    z 0.000000 0.000000 1.573800 
# 
# From -- ./inp_files/5685.got.cif
#   From: 2010.05.17/outbox.cif.g08.bks.cpg/sg123_3_cif.got.tgz:5685.got - 2010.05.20 11:43:04.
