data_PCOD9561274
_publ_section_title
;
Structure prediction by ZEFSAII (Michael W. Deem and Ramdas Pophale) SiO2 
 PCOD9561274
Probable space group: I -4 2 D
;
_chemical_formula_sum "Si O2"
_cell_formula_units_Z 48
_cell_length_a 11.853074
_cell_length_b 11.853074
_cell_length_c 15.890876
_cell_angle_alpha 90.000000
_cell_angle_beta 90.000000
_cell_angle_gamma 90.000000
_cell_volume 2232.594396
_symmetry_space_group_name_H-M "I -4 2 D"
_symmetry_group_IT_number 122
_symmetry_cell_setting 'tetragonal'
loop_
_space_group_symop_operation_xyz
x,y,z
y,-x,-z
-x,-y,z
-y,x,-z
x,1/2-y,1/4-z
-x,1/2+y,1/4-z
-y,1/2-x,1/4+z
y,1/2+x,1/4+z
1/2+x,1/2+y,1/2+z
1/2+y,1/2-x,1/2-z
1/2-x,1/2-y,1/2+z
1/2-y,1/2+x,1/2-z
1/2+x,-y,3/4-z
1/2-x,y,3/4-z
1/2-y,-x,3/4+z
1/2+y,x,3/4+z
loop_
_atom_site_type_symbol
_atom_site_label
_atom_site_fract_x
_atom_site_fract_y
_atom_site_fract_z
Si Si1 0.491726 0.118473 0.900996
Si Si2 0.000000 0.000000 0.000000
Si Si3 0.000000 0.500000 0.750000
Si Si4 0.250000 0.283212 0.375000
Si Si5 0.342009 0.809340 0.299681
O O1 0.554022 0.088493 0.813277
O O2 0.364095 0.143464 0.873979
O O3 0.555710 0.221944 0.938702
O O4 0.500000 0.000000 0.951000
O O5 0.931674 0.597360 0.700624
O O6 0.226891 0.212485 0.460284
O O7 0.250000 0.803350 0.375000
#
# Coordination Sequence:
#
# PCOD9561274 Si02
#       5
#    16   4   4   8  16
#     4  10  24  45  75 110 147 187 244 309 365 439
#     4   8  20  44  66 112 136 182 244 304 358 428
#     4  12  28  52  70 116 148 202 248 292 374 456
#     4  12  26  48  76 114 146 198 246 304 374 442
#     4  12  28  50  77 107 150 197 247 307 370 442
#
# _framework density 21.499652000000001
#
# number of rings (size 3 to 8) (size 9 to 14) (size 15 to 20)
#    1.000    0.000    3.333    2.000    4.667    2.667 
#    6.000    0.000    0.000    0.000    0.000    0.000 
#    0.000    0.000    0.000    0.000    0.000    0.000 
#
# Total GULP energy -133613.228964 kJ/mol
# GULP energy per Si atom -5567.217873 kJ/mol
# Density = 2.145072 g / cm^3
# Si number density = 21.499652 Si / 1000 Ang^3
#
#
#
# Elastic Constant Matrix: (Units=GPa)
#
#
# Indices 1 2 3 4 5 6 
#
# 1 133.2898 59.0111 40.1098 0.0000 0.0000 0.0000
# 2 59.0111 133.2898 40.1098 0.0000 0.0000 0.0000
# 3 40.1098 40.1098 101.5383 0.0000 0.0000 0.0000
# 4 0.0000 0.0000 0.0000 25.1232 0.0000 0.0000
# 5 0.0000 0.0000 0.0000 0.0000 25.1232 0.0000
# 6 0.0000 0.0000 0.0000 0.0000 0.0000 35.8486
#
#
#
# Elastic Compliance Matrix: (Units=1/GPa)
#
#
# Indices 1 2 3 4 5 6 
#
# 1 0.009844 -0.003618 -0.002459 0.000000 0.000000 0.000000
# 2 -0.003618 0.009844 -0.002459 0.000000 0.000000 0.000000
# 3 -0.002459 -0.002459 0.011792 0.000000 0.000000 0.000000
# 4 0.000000 0.000000 0.000000 0.039804 0.000000 0.000000
# 5 0.000000 0.000000 0.000000 0.000000 0.039804 0.000000
# 6 0.000000 0.000000 0.000000 0.000000 0.000000 0.027895
#
#
# Mechanical properties :
#
#
# Convention : Reuss Voigt Hill
#
# Bulk Modulus (GPa) = 69.41528 71.84212 70.62870
# Shear Modulus (GPa) = 31.08296 32.47815 31.78055
#
# Velocity S-wave (km/s) = 3.80642 3.89091 3.84889
# Velocity P-wave (km/s) = 7.18855 7.32622 7.25771
#
# Compressibility (1/GPa) = 0.01440605
#
# Stress axis : x y z
#
# Youngs Moduli (GPa) = 101.57970 101.57970 84.80622
#
# Poissons Ratio (x) = 0.36755 0.20858
# Poissons Ratio (y) = 0.36755 0.20858
# Poissons Ratio (z) = 0.24983 0.24983
#
# Static dielectric constant tensor:
#      x y z
#    x 1.819870 0.000000 0.000000 
#    y 0.000000 1.819870 0.000000 
#    z 0.000000 0.000000 1.826940 
# 
# From -- ./inp_files/5982.got.cif
#   From: 2010.05.17/outbox.cif.g08.bks.cpg/sg122_3_cif.got.tgz:5982.got - 2010.05.20 11:37:33.
