data_PCOD9561093
_publ_section_title
;
Structure prediction by ZEFSAII (Michael W. Deem and Ramdas Pophale) SiO2 
 PCOD9561093
Probable space group: I -4 2 D
;
_chemical_formula_sum "Si O2"
_cell_formula_units_Z 96
_cell_length_a 20.004019
_cell_length_b 20.004019
_cell_length_c 12.563771
_cell_angle_alpha 90.000000
_cell_angle_beta 90.000000
_cell_angle_gamma 90.000000
_cell_volume 5027.528355
_symmetry_space_group_name_H-M "I -4 2 D"
_symmetry_group_IT_number 122
_symmetry_cell_setting 'tetragonal'
loop_
_space_group_symop_operation_xyz
x,y,z
y,-x,-z
-x,-y,z
-y,x,-z
x,1/2-y,1/4-z
-x,1/2+y,1/4-z
-y,1/2-x,1/4+z
y,1/2+x,1/4+z
1/2+x,1/2+y,1/2+z
1/2+y,1/2-x,1/2-z
1/2-x,1/2-y,1/2+z
1/2-y,1/2+x,1/2-z
1/2+x,-y,3/4-z
1/2-x,y,3/4-z
1/2-y,-x,3/4+z
1/2+y,x,3/4+z
loop_
_atom_site_type_symbol
_atom_site_label
_atom_site_fract_x
_atom_site_fract_y
_atom_site_fract_z
Si Si1 0.447835 0.594119 0.477747
Si Si2 0.201085 0.357068 0.281899
Si Si3 0.639948 0.904881 0.494797
Si Si4 0.950325 0.264376 0.861914
Si Si5 0.586290 0.755072 0.502565
Si Si6 0.539046 0.101193 0.232508
O O1 0.526334 0.585818 0.484203
O O2 0.421654 0.654042 0.551173
O O3 0.427455 0.605301 0.355458
O O4 0.250000 0.336096 0.375000
O O5 0.248276 0.386888 0.188663
O O6 0.145026 0.300867 0.258511
O O7 0.714164 0.933317 0.515227
O O8 0.624310 0.825941 0.487179
O O9 0.615162 0.936418 0.386230
O O10 0.952412 0.337754 0.813448
O O11 0.021389 0.250485 0.923664
O O12 0.562208 0.750000 0.625000
O O13 0.462047 0.080414 0.226733
#
# Coordination Sequence:
#
# PCOD9561093 Si02
#       6
#    16  16  16  16  16  16
#     4  10  22  39  64  98 130 163 212 283 347 389
#     4  11  24  38  65  97 127 172 228 272 342 411
#     4  11  24  43  69  97 141 177 227 284 343 417
#     4  11  24  42  72  98 136 185 224 288 347 409
#     4  12  23  46  67  99 138 179 223 295 349 406
#     4  11  25  45  68 100 138 190 237 277 342 413
#
# _framework density 19.09487
#
# number of rings (size 3 to 8) (size 9 to 14) (size 15 to 20)
#    0.000    1.000    5.000    3.000    2.333    6.667 
#    0.000    0.000    0.000    0.000    0.000    0.000 
#    0.000    0.000    0.000    0.000    0.000    0.000 
#
# Total GULP energy -267583.538959 kJ/mol
# GULP energy per Si atom -5574.657062 kJ/mol
# Density = 1.905141 g / cm^3
# Si number density = 19.094870 Si / 1000 Ang^3
#
#
#
# Elastic Constant Matrix: (Units=GPa)
#
#
# Indices 1 2 3 4 5 6 
#
# 1 109.6441 80.3820 48.2858 0.0000 0.0000 0.0000
# 2 80.3820 109.6441 48.2858 0.0000 0.0000 0.0000
# 3 48.2858 48.2858 74.7421 0.0000 0.0000 0.0000
# 4 0.0000 0.0000 0.0000 31.5630 0.0000 0.0000
# 5 0.0000 0.0000 0.0000 0.0000 31.5630 0.0000
# 6 0.0000 0.0000 0.0000 0.0000 0.0000 -143.7838
#
#
#
# Elastic Compliance Matrix: (Units=1/GPa)
#
#
# Indices 1 2 3 4 5 6 
#
# 1 0.021004 -0.013170 -0.005061 0.000000 0.000000 0.000000
# 2 -0.013170 0.021004 -0.005061 0.000000 0.000000 0.000000
# 3 -0.005061 -0.005061 0.019919 0.000000 0.000000 0.000000
# 4 0.000000 0.000000 0.000000 0.031683 0.000000 0.000000
# 5 0.000000 0.000000 0.000000 0.000000 0.031683 0.000000
# 6 0.000000 0.000000 0.000000 0.000000 0.000000 -0.006955
#
#
# Mechanical properties :
#
#
# Convention : Reuss Voigt Hill
#
# Bulk Modulus (GPa) = 65.17799 71.99305 68.58552
# Shear Modulus (GPa) = 29.40534 -8.32642 10.53946
#
# Velocity S-wave (km/s) = 3.92849 -2.09046 2.35192
# Velocity P-wave (km/s) = 7.40171 5.65314 6.58571
#
# Compressibility (1/GPa) = 0.01534260
#
# Stress axis : x y z
#
# Youngs Moduli (GPa) = 47.60936 47.60936 50.20319
#
# Poissons Ratio (x) = 0.62700 0.25410
# Poissons Ratio (y) = 0.62700 0.25410
# Poissons Ratio (z) = 0.24097 0.24097
#
# Static dielectric constant tensor:
#      x y z
#    x 1.704450 0.000000 0.000000 
#    y 0.000000 1.704450 0.000000 
#    z 0.000000 0.000000 1.658650 
# 
# From -- ./inp_files/4477.got.cif
#   From: 2010.05.17/outbox.cif.g08.bks.cpg/sg122_3_cif.got.tgz:4477.got - 2010.05.20 11:37:33.
