data_PCOD9561558
_publ_section_title
;
Structure prediction by ZEFSAII (Michael W. Deem and Ramdas Pophale) SiO2 
 PCOD9561558
Probable space group: I -4 2 D
;
_chemical_formula_sum "Si O2"
_cell_formula_units_Z 24
_cell_length_a 10.520031
_cell_length_b 10.520031
_cell_length_c 8.276734
_cell_angle_alpha 90.000000
_cell_angle_beta 90.000000
_cell_angle_gamma 90.000000
_cell_volume 915.994861
_symmetry_space_group_name_H-M "I -4 2 D"
_symmetry_group_IT_number 122
_symmetry_cell_setting 'tetragonal'
loop_
_space_group_symop_operation_xyz
x,y,z
y,-x,-z
-x,-y,z
-y,x,-z
x,1/2-y,1/4-z
-x,1/2+y,1/4-z
-y,1/2-x,1/4+z
y,1/2+x,1/4+z
1/2+x,1/2+y,1/2+z
1/2+y,1/2-x,1/2-z
1/2-x,1/2-y,1/2+z
1/2-y,1/2+x,1/2-z
1/2+x,-y,3/4-z
1/2-x,y,3/4-z
1/2-y,-x,3/4+z
1/2+y,x,3/4+z
loop_
_atom_site_type_symbol
_atom_site_label
_atom_site_fract_x
_atom_site_fract_y
_atom_site_fract_z
Si Si1 0.000000 0.000000 0.500000
Si Si2 0.745304 0.895431 0.568995
Si Si3 0.000000 0.500000 0.250000
O O1 0.035403 0.878138 0.391643
O O2 0.748508 0.750000 0.625000
O O3 0.750000 0.900435 0.375000
O O4 0.627410 0.965031 0.650719
#
# Coordination Sequence:
#
# PCOD9561558 Si02
#       3
#     4  16   4
#     4  12  26  48  80 122 166 212 272 338 410 492
#     4  12  28  52  84 123 169 223 283 349 422 500
#     4  12  30  56  88 126 174 226 280 348 422 502
#
# _framework density 26.201018999999999
#
# number of rings (size 3 to 8) (size 9 to 14) (size 15 to 20)
#    0.000    0.000    0.000    8.000    0.000   13.333 
#    0.000    0.000    0.000    0.000    0.000    0.000 
#    0.000    0.000    0.000    0.000    0.000    0.000 
#
# Total GULP energy -67453.330108 kJ/mol
# GULP energy per Si atom -5621.110842 kJ/mol
# Density = 2.614138 g / cm^3
# Si number density = 26.201019 Si / 1000 Ang^3
#
#
#
# Elastic Constant Matrix: (Units=GPa)
#
#
# Indices 1 2 3 4 5 6 
#
# 1 285.9029 133.5296 104.3883 0.0000 0.0000 0.0000
# 2 133.5296 285.9029 104.3883 0.0000 0.0000 0.0000
# 3 104.3883 104.3883 162.0100 0.0000 0.0000 0.0000
# 4 0.0000 0.0000 0.0000 39.0780 0.0000 0.0000
# 5 0.0000 0.0000 0.0000 0.0000 39.0780 0.0000
# 6 0.0000 0.0000 0.0000 0.0000 0.0000 68.5423
#
#
#
# Elastic Compliance Matrix: (Units=1/GPa)
#
#
# Indices 1 2 3 4 5 6 
#
# 1 0.005036 -0.001526 -0.002262 0.000000 0.000000 0.000000
# 2 -0.001526 0.005036 -0.002262 0.000000 0.000000 0.000000
# 3 -0.002262 -0.002262 0.009087 0.000000 0.000000 0.000000
# 4 0.000000 0.000000 0.000000 0.025590 0.000000 0.000000
# 5 0.000000 0.000000 0.000000 0.000000 0.025590 0.000000
# 6 0.000000 0.000000 0.000000 0.000000 0.000000 0.014590
#
#
# Mechanical properties :
#
#
# Convention : Reuss Voigt Hill
#
# Bulk Modulus (GPa) = 141.63401 157.60313 149.61857
# Shear Modulus (GPa) = 50.31133 55.44032 52.87583
#
# Velocity S-wave (km/s) = 4.38677 4.60495 4.49718
# Velocity P-wave (km/s) = 8.93489 9.41043 9.17574
#
# Compressibility (1/GPa) = 0.00706045
#
# Stress axis : x y z
#
# Youngs Moduli (GPa) = 198.55660 198.55660 110.04978
#
# Poissons Ratio (x) = 0.30309 0.24888
# Poissons Ratio (y) = 0.30309 0.24888
# Poissons Ratio (z) = 0.44904 0.44904
#
# Static dielectric constant tensor:
#      x y z
#    x 2.065410 0.000000 0.000000 
#    y 0.000000 2.065410 0.000000 
#    z 0.000000 0.000000 2.117250 
# 
# From -- ./inp_files/1585.got.cif
#   From: 2010.05.17/outbox.cif.g08.bks.cpg/sg122_1_cif.got.tgz:1585.got - 2010.05.20 11:37:33.
