data_PCOD9561611
_publ_section_title
;
Structure prediction by ZEFSAII (Michael W. Deem and Ramdas Pophale) SiO2 
 PCOD9561611
Probable space group: P 4/M M M
;
_chemical_formula_sum "Si O2"
_cell_formula_units_Z 80
_cell_length_a 17.849430
_cell_length_b 17.849430
_cell_length_c 16.426693
_cell_angle_alpha 90.000000
_cell_angle_beta 90.000000
_cell_angle_gamma 90.000000
_cell_volume 5233.579729
_symmetry_space_group_name_H-M "P 4/M M M"
_symmetry_group_IT_number 123
_symmetry_cell_setting 'tetragonal'
loop_
_space_group_symop_operation_xyz
x,y,z
-y,x,z
-x,-y,z
y,-x,z
x,-y,-z
-x,y,-z
y,x,-z
-y,-x,-z
-x,-y,-z
y,-x,-z
x,y,-z
-y,x,-z
-x,y,z
x,-y,z
-y,-x,z
y,x,z
loop_
_atom_site_type_symbol
_atom_site_label
_atom_site_fract_x
_atom_site_fract_y
_atom_site_fract_z
Si Si1 0.209924 0.584816 0.500000
Si Si2 0.412881 0.291426 0.672812
Si Si3 0.208204 0.086524 0.675523
Si Si4 0.863390 0.260306 0.500000
Si Si5 0.311394 0.810511 0.789209
Si Si6 0.912499 0.587563 0.097564
O O1 0.178703 0.500000 0.500000
O O2 0.259331 0.593361 0.581220
O O3 0.150028 0.651189 0.500000
O O4 0.500000 0.296778 0.693884
O O5 0.370051 0.370051 0.677115
O O6 0.369253 0.234941 0.732374
O O7 0.129131 0.129131 0.682972
O O8 0.234563 0.096037 0.582037
O O9 0.266086 0.131850 0.731937
O O10 0.204413 0.000000 0.697613
O O11 0.782658 0.217343 0.500000
O O12 0.250375 0.749626 0.820586
O O13 0.357075 0.856700 0.856226
O O14 0.897651 0.500000 0.118235
O O15 0.000000 0.602763 0.118240
O O16 0.905214 0.594832 0.000000
#
# Coordination Sequence:
#
# PCOD9561611 Si02
#       6
#     8  16  16   8  16  16
#     4  10  18  29  47  66  91 124 159 198 233 267
#     4  10  19  30  46  67  92 124 160 197 234 270
#     4  10  20  32  49  70  92 122 156 193 236 277
#     4  10  17  31  49  64  90 123 160 197 229 270
#     4  10  19  31  49  71  95 123 155 188 224 275
#     4   9  18  33  52  72  95 122 149 184 232 277
#
# _framework density 15.285904
#
# number of rings (size 3 to 8) (size 9 to 14) (size 15 to 20)
#    0.000    2.200    2.000    3.000    0.000    0.800 
#    0.000    0.000    0.000    6.000    0.000    0.000 
#    0.000    0.000    0.000   37.200    0.000    0.000 
#
# Total GULP energy -446079.938165 kJ/mol
# GULP energy per Si atom -5575.999227 kJ/mol
# Density = 1.525111 g / cm^3
# Si number density = 15.285904 Si / 1000 Ang^3
#
#
#
# Elastic Constant Matrix: (Units=GPa)
#
#
# Indices 1 2 3 4 5 6 
#
# 1 119.8008 64.0199 41.0436 0.0000 0.0000 0.0000
# 2 64.0199 119.7997 41.0435 0.0000 0.0000 0.0000
# 3 41.0436 41.0435 58.0335 0.0000 0.0000 0.0000
# 4 0.0000 0.0000 0.0000 22.5015 0.0000 0.0000
# 5 0.0000 0.0000 0.0000 0.0000 22.5016 0.0000
# 6 0.0000 0.0000 0.0000 0.0000 0.0000 19.8355
#
#
#
# Elastic Compliance Matrix: (Units=1/GPa)
#
#
# Indices 1 2 3 4 5 6 
#
# 1 0.012939 -0.004988 -0.005623 0.000000 0.000000 0.000000
# 2 -0.004988 0.012939 -0.005624 0.000000 0.000000 0.000000
# 3 -0.005623 -0.005624 0.025186 0.000000 0.000000 0.000000
# 4 0.000000 0.000000 0.000000 0.044442 0.000000 0.000000
# 5 0.000000 0.000000 0.000000 0.000000 0.044441 0.000000
# 6 0.000000 0.000000 0.000000 0.000000 0.000000 0.050415
#
#
# Mechanical properties :
#
#
# Convention : Reuss Voigt Hill
#
# Bulk Modulus (GPa) = 53.77954 65.53864 59.65909
# Shear Modulus (GPa) = 21.83118 23.06952 22.45035
#
# Velocity S-wave (km/s) = 3.78324 3.88906 3.83652
# Velocity P-wave (km/s) = 7.37175 7.94573 7.66412
#
# Compressibility (1/GPa) = 0.01859443
#
# Stress axis : x y z
#
# Youngs Moduli (GPa) = 77.28374 77.28294 39.70503
#
# Poissons Ratio (x) = 0.38549 0.22328
# Poissons Ratio (y) = 0.38550 0.22328
# Poissons Ratio (z) = 0.43460 0.43460
#
# Static dielectric constant tensor:
#      x y z
#    x 1.498950 0.000000 0.000000 
#    y 0.000000 1.498950 0.000000 
#    z 0.000000 0.000000 1.487630 
# 
# From -- ./inp_files/3953.got.cif
#   From: 2010.05.17/outbox.cif.g08.bks.cpg/sg123_2_cif.got.tgz:3953.got - 2010.05.20 11:43:04.
