data_PCOD9561834
_publ_section_title
;
Structure prediction by ZEFSAII (Michael W. Deem and Ramdas Pophale) SiO2 
 PCOD9561834
Probable space group: P 4/M M M
;
_chemical_formula_sum "Si O2"
_cell_formula_units_Z 112
_cell_length_a 20.301381
_cell_length_b 20.301381
_cell_length_c 18.869553
_cell_angle_alpha 90.000000
_cell_angle_beta 90.000000
_cell_angle_gamma 90.000000
_cell_volume 7777.012121
_symmetry_space_group_name_H-M "P 4/M M M"
_symmetry_group_IT_number 123
_symmetry_cell_setting 'tetragonal'
loop_
_space_group_symop_operation_xyz
x,y,z
-y,x,z
-x,-y,z
y,-x,z
x,-y,-z
-x,y,-z
y,x,-z
-y,-x,-z
-x,-y,-z
y,-x,-z
x,y,-z
-y,x,-z
-x,y,z
x,-y,z
-y,-x,z
y,x,z
loop_
_atom_site_type_symbol
_atom_site_label
_atom_site_fract_x
_atom_site_fract_y
_atom_site_fract_z
Si Si1 0.708583 0.500000 0.416464
Si Si2 0.134293 0.500000 0.584259
Si Si3 0.187395 0.579841 0.919496
Si Si4 0.366756 0.077886 0.651830
Si Si5 0.423172 0.311116 0.826475
Si Si6 0.421410 0.077929 0.195002
Si Si7 0.703712 0.186932 0.584351
Si Si8 0.280032 0.613787 0.324850
O O1 0.699617 0.500000 0.500000
O O2 0.787403 0.500000 0.398866
O O3 0.682685 0.435981 0.377031
O O4 0.129248 0.500000 0.500000
O O5 0.100444 0.565628 0.613726
O O6 0.187058 0.500000 0.921171
O O7 0.257504 0.598064 0.884933
O O8 0.126630 0.598075 0.868437
O O9 0.180319 0.603717 0.000000
O O10 0.379552 0.093348 0.734641
O O11 0.304516 0.114405 0.616269
O O12 0.360304 0.000000 0.644889
O O13 0.500000 0.330075 0.837177
O O14 0.374241 0.374241 0.826061
O O15 0.419916 0.271394 0.751138
O O16 0.500000 0.087708 0.210370
O O17 0.413617 0.000000 0.178215
O O18 0.689995 0.187827 0.500000
O O19 0.770554 0.229447 0.595028
O O20 0.645483 0.222753 0.628174
O O21 0.324562 0.675439 0.306958
#
# Coordination Sequence:
#
# PCOD9561834 Si02
#       8
#     8   8  16  16  16  16  16  16
#     4  11  20  29  44  62  82 110 144 186 231 273
#     4  11  21  28  39  64  91 120 148 178 219 265
#     4   9  18  30  46  67  86 106 134 171 211 255
#     4  11  20  30  44  64  91 121 149 180 218 263
#     4  10  20  33  49  65  82 108 142 186 240 290
#     4   9  17  29  45  65  91 121 143 163 200 251
#     4  10  20  32  44  60  85 117 154 192 225 263
#     4  10  19  31  46  62  79 108 147 187 230 275
#
# _framework density 14.401418
#
# number of rings (size 3 to 8) (size 9 to 14) (size 15 to 20)
#    0.000    2.000    2.857    1.929    0.000    3.000 
#    0.000    1.429    0.000    0.214    0.000    2.500 
#    0.000    0.286    0.000    1.571    0.000    0.000 
#
# Total GULP energy -623503.457235 kJ/mol
# GULP energy per Si atom -5566.995154 kJ/mol
# Density = 1.436864 g / cm^3
# Si number density = 14.401418 Si / 1000 Ang^3
#
#
#
# Elastic Constant Matrix: (Units=GPa)
#
#
# Indices 1 2 3 4 5 6 
#
# 1 58.8554 26.2324 41.3755 0.0000 0.0000 0.0000
# 2 26.2324 58.8554 41.3755 0.0000 0.0000 0.0000
# 3 41.3755 41.3755 95.3775 0.0000 0.0000 0.0000
# 4 0.0000 0.0000 0.0000 12.4787 0.0000 0.0000
# 5 0.0000 0.0000 0.0000 0.0000 12.4787 0.0000
# 6 0.0000 0.0000 0.0000 0.0000 0.0000 87.4870
#
#
#
# Elastic Compliance Matrix: (Units=1/GPa)
#
#
# Indices 1 2 3 4 5 6 
#
# 1 0.025491 -0.005162 -0.008819 0.000000 0.000000 0.000000
# 2 -0.005162 0.025491 -0.008819 0.000000 0.000000 0.000000
# 3 -0.008819 -0.008819 0.018136 0.000000 0.000000 0.000000
# 4 0.000000 0.000000 0.000000 0.080137 0.000000 0.000000
# 5 0.000000 0.000000 0.000000 0.000000 0.080137 0.000000
# 6 0.000000 0.000000 0.000000 0.000000 0.000000 0.011430
#
#
# Mechanical properties :
#
#
# Convention : Reuss Voigt Hill
#
# Bulk Modulus (GPa) = 42.51917 47.89502 45.20710
# Shear Modulus (GPa) = 16.99165 29.42920 23.21042
#
# Velocity S-wave (km/s) = 3.43863 4.52541 4.01892
# Velocity P-wave (km/s) = 6.73454 7.78685 7.27973
#
# Compressibility (1/GPa) = 0.02351880
#
# Stress axis : x y z
#
# Youngs Moduli (GPa) = 39.22905 39.22905 55.13834
#
# Poissons Ratio (x) = 0.20250 0.48627
# Poissons Ratio (y) = 0.20250 0.48627
# Poissons Ratio (z) = 0.34596 0.34596
#
# Static dielectric constant tensor:
#      x y z
#    x 1.499720 0.000000 0.000000 
#    y 0.000000 1.499720 0.000000 
#    z 0.000000 0.000000 1.497360 
# 
# From -- ./inp_files/5960.got.cif
#   From: 2010.05.17/outbox.cif.g08.bks.cpg/sg123_3_cif.got.tgz:5960.got - 2010.05.20 11:43:04.
