data_PCOD9561775
_publ_section_title
;
Structure prediction by ZEFSAII (Michael W. Deem and Ramdas Pophale) SiO2 
 PCOD9561775
Probable space group: P 4/M M M
;
_chemical_formula_sum "Si O2"
_cell_formula_units_Z 120
_cell_length_a 14.128456
_cell_length_b 14.128456
_cell_length_c 38.701274
_cell_angle_alpha 90.000000
_cell_angle_beta 90.000000
_cell_angle_gamma 90.000000
_cell_volume 7725.287815
_symmetry_space_group_name_H-M "P 4/M M M"
_symmetry_group_IT_number 123
_symmetry_cell_setting 'tetragonal'
loop_
_space_group_symop_operation_xyz
x,y,z
-y,x,z
-x,-y,z
y,-x,z
x,-y,-z
-x,y,-z
y,x,-z
-y,-x,-z
-x,-y,-z
y,-x,-z
x,y,-z
-y,x,-z
-x,y,z
x,-y,z
-y,-x,z
y,x,z
loop_
_atom_site_type_symbol
_atom_site_label
_atom_site_fract_x
_atom_site_fract_y
_atom_site_fract_z
Si Si1 0.887719 0.268774 0.092364
Si Si2 0.389724 0.111620 0.160963
Si Si3 0.232713 0.612241 0.770962
Si Si4 0.114653 0.391741 0.567637
Si Si5 0.268914 0.113163 0.634403
Si Si6 0.111500 0.610911 0.703037
Si Si7 0.765383 0.389689 0.041118
Si Si8 0.886016 0.269798 0.500000
O O1 0.827776 0.172225 0.091144
O O2 0.868773 0.322246 0.128621
O O3 0.846786 0.336993 0.062527
O O4 0.000000 0.254631 0.088912
O O5 0.500000 0.130028 0.151637
O O6 0.366152 0.172084 0.194733
O O7 0.382521 0.000000 0.169251
O O8 0.250718 0.500000 0.770790
O O9 0.327330 0.672671 0.771159
O O10 0.172419 0.634852 0.736656
O O11 0.149713 0.500000 0.566611
O O12 0.141441 0.336035 0.602325
O O13 0.139501 0.331299 0.533814
O O14 0.000000 0.396782 0.567867
O O15 0.173389 0.173389 0.633034
O O16 0.324315 0.132341 0.670067
O O17 0.251955 0.000000 0.632190
O O18 0.127482 0.500000 0.694352
O O19 0.000000 0.620711 0.711232
O O20 0.757776 0.500000 0.050488
O O21 0.668893 0.331108 0.048063
O O22 0.783484 0.383703 0.000000
O O23 0.826976 0.173025 0.500000
O O24 0.000000 0.254096 0.500000
#
# Coordination Sequence:
#
# PCOD9561775 Si02
#       8
#    16  16  16  16  16  16  16   8
#     4  10  20  33  49  69  94 124 158 196 235 275
#     4   9  17  30  49  71  91 113 146 188 233 278
#     4  10  19  30  45  65  91 121 150 182 221 268
#     4   9  17  30  47  65  86 114 149 190 229 256
#     4  10  19  30  45  66  93 122 149 178 215 265
#     4   9  17  30  48  68  88 112 147 192 234 263
#     4   9  18  32  50  73  99 125 154 189 230 277
#     4  10  19  30  45  67  96 126 153 181 216 265
#
# _framework density 15.533402000000001
#
# number of rings (size 3 to 8) (size 9 to 14) (size 15 to 20)
#    0.000    2.533    0.000    2.600    0.000    5.667 
#    0.000    1.333    0.000    2.400    0.000    3.733 
#    0.000   29.067    0.000    0.000    0.000    0.000 
#
# Total GULP energy -668914.133764 kJ/mol
# GULP energy per Si atom -5574.284448 kJ/mol
# Density = 1.549805 g / cm^3
# Si number density = 15.533402 Si / 1000 Ang^3
#
#
#
# Elastic Constant Matrix: (Units=GPa)
#
#
# Indices 1 2 3 4 5 6 
#
# 1 87.8012 62.0137 62.0322 0.0000 0.0000 0.0000
# 2 62.0137 87.8025 62.0324 0.0000 0.0000 0.0000
# 3 62.0322 62.0324 96.4068 0.0000 0.0000 0.0000
# 4 0.0000 0.0000 0.0000 16.5488 0.0000 0.0000
# 5 0.0000 0.0000 0.0000 0.0000 16.5485 0.0000
# 6 0.0000 0.0000 0.0000 0.0000 0.0000 20.8758
#
#
#
# Elastic Compliance Matrix: (Units=1/GPa)
#
#
# Indices 1 2 3 4 5 6 
#
# 1 0.026533 -0.012245 -0.009194 0.000000 0.000000 0.000000
# 2 -0.012245 0.026533 -0.009194 0.000000 0.000000 0.000000
# 3 -0.009194 -0.009194 0.022204 0.000000 0.000000 0.000000
# 4 0.000000 0.000000 0.000000 0.060427 0.000000 0.000000
# 5 0.000000 0.000000 0.000000 0.000000 0.060428 0.000000
# 6 0.000000 0.000000 0.000000 0.000000 0.000000 0.047902
#
#
# Mechanical properties :
#
#
# Convention : Reuss Voigt Hill
#
# Bulk Modulus (GPa) = 71.39925 71.57412 71.48668
# Shear Modulus (GPa) = 16.13107 16.52343 16.32725
#
# Velocity S-wave (km/s) = 3.22604 3.26503 3.24559
# Velocity P-wave (km/s) = 7.74217 7.77120 7.75670
#
# Compressibility (1/GPa) = 0.01400575
#
# Stress axis : x y z
#
# Youngs Moduli (GPa) = 37.68862 37.68938 45.03688
#
# Poissons Ratio (x) = 0.46149 0.41406
# Poissons Ratio (y) = 0.46148 0.41405
# Poissons Ratio (z) = 0.34650 0.34650
#
# Static dielectric constant tensor:
#      x y z
#    x 1.497300 0.000000 0.000000 
#    y 0.000000 1.497300 0.000000 
#    z 0.000000 0.000000 1.512500 
# 
# From -- ./inp_files/8842.got.cif
#   From: 2010.05.17/outbox.cif.g08.bks.cpg/sg123_5_cif.got.tgz:8842.got - 2010.05.20 11:43:04.
