data_PCOD9561659
_publ_section_title
;
Structure prediction by ZEFSAII (Michael W. Deem and Ramdas Pophale) SiO2 
 PCOD9561659
Probable space group: P 4/M M M
;
_chemical_formula_sum "Si O2"
_cell_formula_units_Z 96
_cell_length_a 20.393501
_cell_length_b 20.393501
_cell_length_c 14.864846
_cell_angle_alpha 90.000000
_cell_angle_beta 90.000000
_cell_angle_gamma 90.000000
_cell_volume 6182.213389
_symmetry_space_group_name_H-M "P 4/M M M"
_symmetry_group_IT_number 123
_symmetry_cell_setting 'tetragonal'
loop_
_space_group_symop_operation_xyz
x,y,z
-y,x,z
-x,-y,z
y,-x,z
x,-y,-z
-x,y,-z
y,x,-z
-y,-x,-z
-x,-y,-z
y,-x,-z
x,y,-z
-y,x,-z
-x,y,z
x,-y,z
-y,-x,z
y,x,z
loop_
_atom_site_type_symbol
_atom_site_label
_atom_site_fract_x
_atom_site_fract_y
_atom_site_fract_z
Si Si1 0.073565 0.422753 0.736645
Si Si2 0.181306 0.074865 0.109239
Si Si3 0.111520 0.669599 0.104382
Si Si4 0.810958 0.579651 0.602485
Si Si5 0.685586 0.575673 0.717886
Si Si6 0.626767 0.737777 0.900586
O O1 0.084966 0.500000 0.756338
O O2 0.078796 0.380797 0.827208
O O3 0.128816 0.400232 0.666215
O O4 0.000000 0.416639 0.699162
O O5 0.127053 0.127053 0.141050
O O6 0.255520 0.096315 0.131430
O O7 0.169359 0.000000 0.139025
O O8 0.178358 0.074983 0.000000
O O9 0.188979 0.654319 0.108657
O O10 0.090659 0.661290 0.000000
O O11 0.816592 0.602902 0.500000
O O12 0.812426 0.500000 0.600800
O O13 0.742022 0.597555 0.648299
O O14 0.668380 0.500000 0.700559
O O15 0.623538 0.623538 0.713483
O O16 0.718056 0.581853 0.816984
O O17 0.687642 0.687642 0.898129
O O18 0.595577 0.732141 0.000000
#
# Coordination Sequence:
#
# PCOD9561659 Si02
#       6
#    16  16  16  16  16  16
#     4  10  20  32  46  68  97 125 157 196 236 282
#     4   9  17  28  42  61  87 122 162 200 236 274
#     4  10  18  29  46  67  96 129 160 194 237 284
#     4   9  18  34  53  70  90 118 154 196 241 287
#     4  10  20  34  52  74  99 126 158 197 242 291
#     4   9  17  29  47  70  94 123 160 200 237 277
#
# _framework density 15.528420000000001
#
# number of rings (size 3 to 8) (size 9 to 14) (size 15 to 20)
#    0.000    2.500    1.667    1.000    0.000    4.667 
#    0.000    5.000    0.000    0.000    0.000    4.667 
#    0.000    0.000    0.000    0.000    0.000    0.167 
#
# Total GULP energy -534858.176129 kJ/mol
# GULP energy per Si atom -5571.439335 kJ/mol
# Density = 1.549308 g / cm^3
# Si number density = 15.528420 Si / 1000 Ang^3
#
#
#
# Elastic Constant Matrix: (Units=GPa)
#
#
# Indices 1 2 3 4 5 6 
#
# 1 87.0647 48.4945 41.0933 0.0000 0.0000 0.0000
# 2 48.4945 87.0647 41.0933 0.0000 0.0000 0.0000
# 3 41.0933 41.0933 81.4169 0.0000 0.0000 0.0000
# 4 0.0000 0.0000 0.0000 8.7170 0.0000 0.0000
# 5 0.0000 0.0000 0.0000 0.0000 8.7170 0.0000
# 6 0.0000 0.0000 0.0000 0.0000 0.0000 9.2478
#
#
#
# Elastic Compliance Matrix: (Units=1/GPa)
#
#
# Indices 1 2 3 4 5 6 
#
# 1 0.018278 -0.007649 -0.005365 0.000000 0.000000 0.000000
# 2 -0.007649 0.018278 -0.005365 0.000000 0.000000 0.000000
# 3 -0.005365 -0.005365 0.017698 0.000000 0.000000 0.000000
# 4 0.000000 0.000000 0.000000 0.114718 0.000000 0.000000
# 5 0.000000 0.000000 0.000000 0.000000 0.114718 0.000000
# 6 0.000000 0.000000 0.000000 0.000000 0.000000 0.108134
#
#
# Mechanical properties :
#
#
# Convention : Reuss Voigt Hill
#
# Bulk Modulus (GPa) = 57.15193 57.43426 57.29309
# Shear Modulus (GPa) = 11.50973 13.66070 12.58522
#
# Velocity S-wave (km/s) = 2.72546 2.96923 2.84995
# Velocity P-wave (km/s) = 6.84023 6.98727 6.91414
#
# Compressibility (1/GPa) = 0.01749722
#
# Stress axis : x y z
#
# Youngs Moduli (GPa) = 54.71008 54.71008 56.50300
#
# Poissons Ratio (x) = 0.41846 0.30314
# Poissons Ratio (y) = 0.41846 0.30314
# Poissons Ratio (z) = 0.29352 0.29352
#
# Static dielectric constant tensor:
#      x y z
#    x 1.516480 0.000000 0.000000 
#    y 0.000000 1.516480 0.000000 
#    z 0.000000 0.000000 1.515030 
# 
# From -- ./inp_files/4350.got.cif
#   From: 2010.05.17/outbox.cif.g08.bks.cpg/sg123_3_cif.got.tgz:4350.got - 2010.05.20 11:43:04.
