data_PCOD9561901
_publ_section_title
;
Structure prediction by ZEFSAII (Michael W. Deem and Ramdas Pophale) SiO2 
 PCOD9561901
Probable space group: P 4/M M M
;
_chemical_formula_sum "Si O2"
_cell_formula_units_Z 72
_cell_length_a 12.525638
_cell_length_b 12.525638
_cell_length_c 29.309714
_cell_angle_alpha 90.000000
_cell_angle_beta 90.000000
_cell_angle_gamma 90.000000
_cell_volume 4598.448139
_symmetry_space_group_name_H-M "P 4/M M M"
_symmetry_group_IT_number 123
_symmetry_cell_setting 'tetragonal'
loop_
_space_group_symop_operation_xyz
x,y,z
-y,x,z
-x,-y,z
y,-x,z
x,-y,-z
-x,y,-z
y,x,-z
-y,-x,-z
-x,-y,-z
y,-x,-z
x,y,-z
-y,x,-z
-x,y,z
x,-y,z
-y,-x,z
y,x,z
loop_
_atom_site_type_symbol
_atom_site_label
_atom_site_fract_x
_atom_site_fract_y
_atom_site_fract_z
Si Si1 0.500000 0.129921 0.114653
Si Si2 0.874567 0.300986 0.946936
Si Si3 0.303010 0.126696 0.282989
Si Si4 0.870489 0.500000 0.219017
Si Si5 0.370459 0.000000 0.447899
Si Si6 0.196963 0.373303 0.383856
O O1 0.605043 0.161300 0.086626
O O2 0.500000 0.167093 0.166852
O O3 0.500000 0.000000 0.115055
O O4 0.803416 0.196585 0.940212
O O5 0.000000 0.279381 0.939193
O O6 0.863525 0.335010 0.000000
O O7 0.197346 0.197346 0.276762
O O8 0.394016 0.160073 0.246823
O O9 0.348905 0.151051 0.333426
O O10 0.283507 0.000000 0.278674
O O11 0.000000 0.500000 0.218371
O O12 0.340035 0.894042 0.420038
O O13 0.500000 0.000000 0.448647
O O14 0.332302 0.000000 0.500000
O O15 0.216527 0.500000 0.388142
O O16 0.302607 0.302607 0.390089
#
# Coordination Sequence:
#
# PCOD9561901 Si02
#       6
#     8  16  16   8   8  16
#     4   9  17  30  47  69  94 126 168 205 242 290
#     4   9  17  29  47  71  99 131 165 204 249 295
#     4  10  19  32  51  74  99 129 164 202 246 296
#     4   9  18  31  50  70  93 128 164 204 248 292
#     4   9  18  32  52  75  99 131 169 206 243 295
#     4  10  19  32  52  75 102 134 168 208 250 295
#
# _framework density 15.657455000000001
#
# number of rings (size 3 to 8) (size 9 to 14) (size 15 to 20)
#    0.000    2.556    2.222    0.333    0.000    3.333 
#    0.000    1.111    0.000    1.000    0.000   13.222 
#    0.000    0.000    0.000    0.000    0.000    0.000 
#
# Total GULP energy -401153.078292 kJ/mol
# GULP energy per Si atom -5571.570532 kJ/mol
# Density = 1.562182 g / cm^3
# Si number density = 15.657455 Si / 1000 Ang^3
#
#
#
# Elastic Constant Matrix: (Units=GPa)
#
#
# Indices 1 2 3 4 5 6 
#
# 1 91.4600 60.9100 57.4701 0.0000 0.0000 0.0000
# 2 60.9100 91.4600 57.4701 0.0000 0.0000 0.0000
# 3 57.4701 57.4701 129.8164 0.0000 0.0000 0.0000
# 4 0.0000 0.0000 0.0000 10.8299 0.0000 0.0000
# 5 0.0000 0.0000 0.0000 0.0000 10.8299 0.0000
# 6 0.0000 0.0000 0.0000 0.0000 0.0000 10.3679
#
#
#
# Elastic Compliance Matrix: (Units=1/GPa)
#
#
# Indices 1 2 3 4 5 6 
#
# 1 0.021293 -0.011440 -0.004362 0.000000 0.000000 0.000000
# 2 -0.011440 0.021293 -0.004362 0.000000 0.000000 0.000000
# 3 -0.004362 -0.004362 0.011566 0.000000 0.000000 0.000000
# 4 0.000000 0.000000 0.000000 0.092337 0.000000 0.000000
# 5 0.000000 0.000000 0.000000 0.000000 0.092337 0.000000
# 6 0.000000 0.000000 0.000000 0.000000 0.000000 0.096452
#
#
# Mechanical properties :
#
#
# Convention : Reuss Voigt Hill
#
# Bulk Modulus (GPa) = 72.33871 73.82631 73.08251
# Shear Modulus (GPa) = 13.15046 15.53128 14.34087
#
# Velocity S-wave (km/s) = 2.90122 3.15293 3.02969
# Velocity P-wave (km/s) = 7.58445 7.77868 7.68218
#
# Compressibility (1/GPa) = 0.01382386
#
# Stress axis : x y z
#
# Youngs Moduli (GPa) = 46.96285 46.96285 86.46392
#
# Poissons Ratio (x) = 0.53725 0.37717
# Poissons Ratio (y) = 0.53725 0.37717
# Poissons Ratio (z) = 0.20486 0.20486
#
# Static dielectric constant tensor:
#      x y z
#    x 1.500690 0.000000 0.000000 
#    y 0.000000 1.500690 0.000000 
#    z 0.000000 0.000000 1.530490 
# 
# From -- ./inp_files/7911.got.cif
#   From: 2010.05.17/outbox.cif.g08.bks.cpg/sg123_4_cif.got.tgz:7911.got - 2010.05.20 11:43:04.
