data_PCOD9561051
_publ_section_title
;
Structure prediction by ZEFSAII (Michael W. Deem and Ramdas Pophale) SiO2 
 PCOD9561051
Probable space group: I -4 2 D
;
_chemical_formula_sum "Si O2"
_cell_formula_units_Z 48
_cell_length_a 19.817244
_cell_length_b 19.817244
_cell_length_c 5.731605
_cell_angle_alpha 90.000000
_cell_angle_beta 90.000000
_cell_angle_gamma 90.000000
_cell_volume 2250.934026
_symmetry_space_group_name_H-M "I -4 2 D"
_symmetry_group_IT_number 122
_symmetry_cell_setting 'tetragonal'
loop_
_space_group_symop_operation_xyz
x,y,z
y,-x,-z
-x,-y,z
-y,x,-z
x,1/2-y,1/4-z
-x,1/2+y,1/4-z
-y,1/2-x,1/4+z
y,1/2+x,1/4+z
1/2+x,1/2+y,1/2+z
1/2+y,1/2-x,1/2-z
1/2-x,1/2-y,1/2+z
1/2-y,1/2+x,1/2-z
1/2+x,-y,3/4-z
1/2-x,y,3/4-z
1/2-y,-x,3/4+z
1/2+y,x,3/4+z
loop_
_atom_site_type_symbol
_atom_site_label
_atom_site_fract_x
_atom_site_fract_y
_atom_site_fract_z
Si Si1 0.250000 0.030376 0.375000
Si Si2 0.711898 0.250000 0.625000
Si Si3 0.845515 0.897236 0.019759
Si Si4 0.030461 0.324908 0.009512
O O1 0.215277 0.077749 0.185294
O O2 0.192836 0.983938 0.491474
O O3 0.750000 0.252813 0.375000
O O4 0.664618 0.316165 0.627905
O O5 0.906873 0.870721 0.173834
O O6 0.858522 0.962532 0.861873
O O7 0.039439 0.250000 0.125000
#
# Coordination Sequence:
#
# PCOD9561051 Si02
#       4
#     8   8  16  16
#     4  10  21  44  68  98 147 188 240 300 366 463
#     4  12  25  44  76 110 143 182 250 312 372 453
#     4  11  23  45  65 103 138 187 243 302 370 443
#     4  10  23  43  67  96 139 188 237 304 366 444
#
# _framework density 21.324482
#
# number of rings (size 3 to 8) (size 9 to 14) (size 15 to 20)
#    0.000    1.333    5.000    2.000    0.000    6.000 
#   21.000    0.000    0.000    0.000    0.000    0.000 
#    0.000    0.000    0.000    0.000    0.000    0.000 
#
# Total GULP energy -134043.840379 kJ/mol
# GULP energy per Si atom -5585.160016 kJ/mol
# Density = 2.127595 g / cm^3
# Si number density = 21.324482 Si / 1000 Ang^3
#
#
#
# Elastic Constant Matrix: (Units=GPa)
#
#
# Indices 1 2 3 4 5 6 
#
# 1 97.4059 39.5057 26.5635 0.0000 0.0000 0.0000
# 2 39.5057 97.4059 26.5635 0.0000 0.0000 0.0000
# 3 26.5635 26.5635 78.5060 0.0000 0.0000 0.0000
# 4 0.0000 0.0000 0.0000 33.2695 0.0000 0.0000
# 5 0.0000 0.0000 0.0000 0.0000 33.2695 0.0000
# 6 0.0000 0.0000 0.0000 0.0000 0.0000 31.9078
#
#
#
# Elastic Compliance Matrix: (Units=1/GPa)
#
#
# Indices 1 2 3 4 5 6 
#
# 1 0.012840 -0.004432 -0.002845 0.000000 0.000000 0.000000
# 2 -0.004432 0.012840 -0.002845 0.000000 0.000000 0.000000
# 3 -0.002845 -0.002845 0.014663 0.000000 0.000000 0.000000
# 4 0.000000 0.000000 0.000000 0.030058 0.000000 0.000000
# 5 0.000000 0.000000 0.000000 0.000000 0.030058 0.000000
# 6 0.000000 0.000000 0.000000 0.000000 0.000000 0.031340
#
#
# Mechanical properties :
#
#
# Convention : Reuss Voigt Hill
#
# Bulk Modulus (GPa) = 49.75311 50.95370 50.35340
# Shear Modulus (GPa) = 31.49801 31.73504 31.61652
#
# Velocity S-wave (km/s) = 3.84745 3.86190 3.85468
# Velocity P-wave (km/s) = 6.56653 6.62058 6.59361
#
# Compressibility (1/GPa) = 0.02009925
#
# Stress axis : x y z
#
# Youngs Moduli (GPa) = 77.88455 77.88455 68.19834
#
# Poissons Ratio (x) = 0.34515 0.19402
# Poissons Ratio (y) = 0.34515 0.19402
# Poissons Ratio (z) = 0.22158 0.22158
#
# Static dielectric constant tensor:
#      x y z
#    x 1.767540 0.000000 0.000000 
#    y 0.000000 1.767540 0.000000 
#    z 0.000000 0.000000 1.858640 
# 
# From -- ./inp_files/720.got.cif
#   From: 2010.05.17/outbox.cif.g08.bks.cpg/sg122_1_cif.got.tgz:720.got - 2010.05.20 11:37:33.
