data_PCOD9561087
_publ_section_title
;
Structure prediction by ZEFSAII (Michael W. Deem and Ramdas Pophale) SiO2 
 PCOD9561087
Probable space group: I -4 2 D
;
_chemical_formula_sum "Si O2"
_cell_formula_units_Z 96
_cell_length_a 22.641184
_cell_length_b 22.641184
_cell_length_c 9.756500
_cell_angle_alpha 90.000000
_cell_angle_beta 90.000000
_cell_angle_gamma 90.000000
_cell_volume 5001.408377
_symmetry_space_group_name_H-M "I -4 2 D"
_symmetry_group_IT_number 122
_symmetry_cell_setting 'tetragonal'
loop_
_space_group_symop_operation_xyz
x,y,z
y,-x,-z
-x,-y,z
-y,x,-z
x,1/2-y,1/4-z
-x,1/2+y,1/4-z
-y,1/2-x,1/4+z
y,1/2+x,1/4+z
1/2+x,1/2+y,1/2+z
1/2+y,1/2-x,1/2-z
1/2-x,1/2-y,1/2+z
1/2-y,1/2+x,1/2-z
1/2+x,-y,3/4-z
1/2-x,y,3/4-z
1/2-y,-x,3/4+z
1/2+y,x,3/4+z
loop_
_atom_site_type_symbol
_atom_site_label
_atom_site_fract_x
_atom_site_fract_y
_atom_site_fract_z
Si Si1 0.612709 0.417467 0.614702
Si Si2 0.056952 0.242308 0.962543
Si Si3 0.916719 0.144337 0.384717
Si Si4 0.235442 0.440685 0.029922
Si Si5 0.445453 0.896651 0.927119
Si Si6 0.366443 0.554819 0.096356
O O1 0.682141 0.409976 0.578624
O O2 0.590371 0.370033 0.724898
O O3 0.576481 0.412886 0.474225
O O4 0.604512 0.483530 0.675978
O O5 0.079299 0.304482 0.904225
O O6 0.992966 0.235568 0.891602
O O7 0.051987 0.250000 0.125000
O O8 0.898325 0.210794 0.425884
O O9 0.882917 0.093546 0.466103
O O10 0.985282 0.140419 0.430602
O O11 0.168049 0.419914 0.033339
O O12 0.250000 0.461366 0.875000
O O13 0.417200 0.939497 0.039016
#
# Coordination Sequence:
#
# PCOD9561087 Si02
#       6
#    16  16  16  16  16  16
#     4  11  24  37  60  91 121 158 198 241 301 356
#     4  10  22  39  61  84 116 162 208 241 284 353
#     4  11  24  37  60  91 121 158 198 241 301 356
#     4  10  22  39  61  84 116 162 208 241 284 353
#     4  11  22  39  61  87 125 157 196 244 297 355
#     4  11  22  39  61  87 125 157 196 244 297 355
#
# _framework density 19.194593999999999
#
# number of rings (size 3 to 8) (size 9 to 14) (size 15 to 20)
#    0.000    1.333    3.333    2.000   14.000    4.000 
#    0.000    0.000    0.000    6.000    0.000    0.000 
#    0.000    0.000    0.000    0.000    0.000    0.000 
#
# Total GULP energy -267901.139554 kJ/mol
# GULP energy per Si atom -5581.273741 kJ/mol
# Density = 1.915091 g / cm^3
# Si number density = 19.194594 Si / 1000 Ang^3
#
#
#
# Elastic Constant Matrix: (Units=GPa)
#
#
# Indices 1 2 3 4 5 6 
#
# 1 55.3113 9.7240 -6.2307 0.0000 0.0000 0.0000
# 2 9.7240 55.3113 -6.2307 0.0000 0.0000 0.0000
# 3 -6.2307 -6.2307 46.8678 0.0000 0.0000 0.0000
# 4 0.0000 0.0000 0.0000 31.8042 0.0000 0.0000
# 5 0.0000 0.0000 0.0000 0.0000 31.8042 0.0000
# 6 0.0000 0.0000 0.0000 0.0000 0.0000 -6.3569
#
#
#
# Elastic Compliance Matrix: (Units=1/GPa)
#
#
# Indices 1 2 3 4 5 6 
#
# 1 0.018857 -0.003079 0.002098 0.000000 0.000000 0.000000
# 2 -0.003079 0.018857 0.002098 0.000000 0.000000 0.000000
# 3 0.002098 0.002098 0.021894 0.000000 0.000000 0.000000
# 4 0.000000 0.000000 0.000000 0.031442 0.000000 0.000000
# 5 0.000000 0.000000 0.000000 0.000000 0.031442 0.000000
# 6 0.000000 0.000000 0.000000 0.000000 0.000000 -0.157309
#
#
# Mechanical properties :
#
#
# Convention : Reuss Voigt Hill
#
# Bulk Modulus (GPa) = 16.17049 16.89062 16.53056
# Shear Modulus (GPa) = -304.23907 22.13213 -141.05347
#
# Velocity S-wave (km/s) = -12.60343 3.39933 -8.58170
# Velocity P-wave (km/s) = 14.26018 4.92199 9.46379
#
# Compressibility (1/GPa) = 0.06184103
#
# Stress axis : x y z
#
# Youngs Moduli (GPa) = 53.03051 53.03051 45.67394
#
# Poissons Ratio (x) = 0.16327 -0.09580
# Poissons Ratio (y) = 0.16327 -0.09580
# Poissons Ratio (z) = -0.11124 -0.11124
#
# Static dielectric constant tensor:
#      x y z
#    x 1.689400 0.000000 0.000000 
#    y 0.000000 1.689400 0.000000 
#    z 0.000000 0.000000 1.666200 
# 
# From -- ./inp_files/2901.got.cif
#   From: 2010.05.17/outbox.cif.g08.bks.cpg/sg122_2_cif.got.tgz:2901.got - 2010.05.20 11:37:33.
