data_PCOD9561784
_publ_section_title
;
Structure prediction by ZEFSAII (Michael W. Deem and Ramdas Pophale) SiO2 
 PCOD9561784
Probable space group: P 4/M M M
;
_chemical_formula_sum "Si O2"
_cell_formula_units_Z 96
_cell_length_a 17.961994
_cell_length_b 17.961994
_cell_length_c 18.901614
_cell_angle_alpha 90.000000
_cell_angle_beta 90.000000
_cell_angle_gamma 90.000000
_cell_volume 6098.288748
_symmetry_space_group_name_H-M "P 4/M M M"
_symmetry_group_IT_number 123
_symmetry_cell_setting 'tetragonal'
loop_
_space_group_symop_operation_xyz
x,y,z
-y,x,z
-x,-y,z
y,-x,z
x,-y,-z
-x,y,-z
y,x,-z
-y,-x,-z
-x,-y,-z
y,-x,-z
x,y,-z
-y,x,-z
-x,y,z
x,-y,z
-y,-x,z
y,x,z
loop_
_atom_site_type_symbol
_atom_site_label
_atom_site_fract_x
_atom_site_fract_y
_atom_site_fract_z
Si Si1 0.415600 0.215898 0.920149
Si Si2 0.586866 0.086788 0.584941
Si Si3 0.084833 0.794035 0.774733
Si Si4 0.413788 0.704280 0.774029
Si Si5 0.310453 0.189597 0.680033
Si Si6 0.138697 0.262634 0.920446
O O1 0.500000 0.185238 0.914737
O O2 0.407430 0.274069 0.856778
O O3 0.349786 0.156341 0.911863
O O4 0.407363 0.246969 0.000000
O O5 0.593114 0.092958 0.500000
O O6 0.500000 0.101760 0.603564
O O7 0.642593 0.143128 0.623218
O O8 0.602278 0.000000 0.603664
O O9 0.127678 0.872323 0.769430
O O10 0.132313 0.735865 0.728553
O O11 0.090301 0.767552 0.856263
O O12 0.000000 0.797778 0.751649
O O13 0.500000 0.705171 0.754269
O O14 0.374291 0.625710 0.761871
O O15 0.367279 0.764912 0.729879
O O16 0.250416 0.250416 0.651818
O O17 0.216999 0.216999 0.915288
O O18 0.109631 0.249587 0.000000
#
# Coordination Sequence:
#
# PCOD9561784 Si02
#       6
#    16  16  16  16  16  16
#     4   9  16  26  43  65  89 119 156 199 241 277
#     4   9  18  33  53  76 101 127 152 182 227 279
#     4  10  20  33  49  70  94 120 153 192 236 285
#     4  10  19  30  45  66  93 125 161 200 239 276
#     4  10  19  32  50  72  97 125 159 194 224 264
#     4   9  16  28  46  64  86 118 157 198 235 276
#
# _framework density 15.742122
#
# number of rings (size 3 to 8) (size 9 to 14) (size 15 to 20)
#    0.000    2.500    1.667    2.000    0.000    2.000 
#    0.000    0.000    0.000    1.500    0.000    7.000 
#    0.000    0.000    0.000   31.000    0.000    0.000 
#
# Total GULP energy -534743.774324 kJ/mol
# GULP energy per Si atom -5570.247649 kJ/mol
# Density = 1.570629 g / cm^3
# Si number density = 15.742122 Si / 1000 Ang^3
#
#
#
# Elastic Constant Matrix: (Units=GPa)
#
#
# Indices 1 2 3 4 5 6 
#
# 1 109.5596 58.2018 37.8993 0.0000 0.0000 0.0000
# 2 58.2018 109.5596 37.8993 0.0000 0.0000 0.0000
# 3 37.8993 37.8993 50.3350 0.0000 0.0000 0.0000
# 4 0.0000 0.0000 0.0000 20.2991 0.0000 0.0000
# 5 0.0000 0.0000 0.0000 0.0000 20.2991 0.0000
# 6 0.0000 0.0000 0.0000 0.0000 0.0000 15.4831
#
#
#
# Elastic Compliance Matrix: (Units=1/GPa)
#
#
# Indices 1 2 3 4 5 6 
#
# 1 0.014253 -0.005218 -0.006802 0.000000 0.000000 0.000000
# 2 -0.005218 0.014253 -0.006802 0.000000 0.000000 0.000000
# 3 -0.006802 -0.006802 0.030110 0.000000 0.000000 0.000000
# 4 0.000000 0.000000 0.000000 0.049263 0.000000 0.000000
# 5 0.000000 0.000000 0.000000 0.000000 0.049263 0.000000
# 6 0.000000 0.000000 0.000000 0.000000 0.000000 0.064587
#
#
# Mechanical properties :
#
#
# Convention : Reuss Voigt Hill
#
# Bulk Modulus (GPa) = 47.68773 59.71723 53.70248
# Shear Modulus (GPa) = 18.77122 20.24649 19.50885
#
# Velocity S-wave (km/s) = 3.45689 3.59016 3.52416
# Velocity P-wave (km/s) = 6.80384 7.42985 7.12373
#
# Compressibility (1/GPa) = 0.02096976
#
# Stress axis : x y z
#
# Youngs Moduli (GPa) = 70.16176 70.16176 33.21117
#
# Poissons Ratio (x) = 0.36614 0.22591
# Poissons Ratio (y) = 0.36614 0.22591
# Poissons Ratio (z) = 0.47726 0.47726
#
# Static dielectric constant tensor:
#      x y z
#    x 1.518280 0.000000 0.000000 
#    y 0.000000 1.518280 0.000000 
#    z 0.000000 0.000000 1.519690 
# 
# From -- ./inp_files/5470.got.cif
#   From: 2010.05.17/outbox.cif.g08.bks.cpg/sg123_3_cif.got.tgz:5470.got - 2010.05.20 11:43:04.
