data_PCOD9561970
_publ_section_title
;
Structure prediction by ZEFSAII (Michael W. Deem and Ramdas Pophale) SiO2 
 PCOD9561970
Probable space group: P 4/M M M
;
_chemical_formula_sum "Si O2"
_cell_formula_units_Z 48
_cell_length_a 13.989174
_cell_length_b 13.989174
_cell_length_c 15.492332
_cell_angle_alpha 90.000000
_cell_angle_beta 90.000000
_cell_angle_gamma 90.000000
_cell_volume 3031.802728
_symmetry_space_group_name_H-M "P 4/M M M"
_symmetry_group_IT_number 123
_symmetry_cell_setting 'tetragonal'
loop_
_space_group_symop_operation_xyz
x,y,z
-y,x,z
-x,-y,z
y,-x,z
x,-y,-z
-x,y,-z
y,x,-z
-y,-x,-z
-x,-y,-z
y,-x,-z
x,y,-z
-y,x,-z
-x,y,z
x,-y,z
-y,-x,z
y,x,z
loop_
_atom_site_type_symbol
_atom_site_label
_atom_site_fract_x
_atom_site_fract_y
_atom_site_fract_z
Si Si1 0.386086 0.769621 0.736154
Si Si2 0.888387 0.269032 0.602007
Si Si3 0.890138 0.616074 0.096895
O O1 0.500000 0.758326 0.734454
O O2 0.329524 0.670477 0.727765
O O3 0.349811 0.838758 0.659847
O O4 0.356312 0.820282 0.826112
O O5 0.880458 0.291202 0.500000
O O6 0.827853 0.172148 0.617398
O O7 0.000000 0.258446 0.623041
O O8 0.890903 0.500000 0.096245
O O9 0.000000 0.646357 0.113052
O O10 0.862490 0.647180 0.000000
#
# Coordination Sequence:
#
# PCOD9561970 Si02
#       3
#    16  16  16
#     4  10  20  32  46  65  91 124 162 202 238 272
#     4   9  18  32  50  73  98 121 147 182 227 281
#     4   8  14  26  45  67  88 111 143 185 232 279
#
# _framework density 15.832165
#
# number of rings (size 3 to 8) (size 9 to 14) (size 15 to 20)
#    0.000    3.000    0.000    2.000    0.000    4.000 
#    0.000    3.333    0.000    0.000    0.000    9.333 
#    0.000    0.000    0.000   31.000    0.000    2.000 
#
# Total GULP energy -267274.535725 kJ/mol
# GULP energy per Si atom -5568.219494 kJ/mol
# Density = 1.579613 g / cm^3
# Si number density = 15.832165 Si / 1000 Ang^3
#
#
#
# Elastic Constant Matrix: (Units=GPa)
#
#
# Indices 1 2 3 4 5 6 
#
# 1 93.3282 48.6253 53.7795 0.0000 0.0000 0.0000
# 2 48.6253 93.3282 53.7795 0.0000 0.0000 0.0000
# 3 53.7795 53.7795 72.7997 0.0000 0.0000 0.0000
# 4 0.0000 0.0000 0.0000 21.6168 0.0000 0.0000
# 5 0.0000 0.0000 0.0000 0.0000 21.6168 0.0000
# 6 0.0000 0.0000 0.0000 0.0000 0.0000 4.9775
#
#
#
# Elastic Compliance Matrix: (Units=1/GPa)
#
#
# Indices 1 2 3 4 5 6 
#
# 1 0.019185 -0.003184 -0.011820 0.000000 0.000000 0.000000
# 2 -0.003184 0.019185 -0.011820 0.000000 0.000000 0.000000
# 3 -0.011820 -0.011820 0.031201 0.000000 0.000000 0.000000
# 4 0.000000 0.000000 0.000000 0.046260 0.000000 0.000000
# 5 0.000000 0.000000 0.000000 0.000000 0.046260 0.000000
# 6 0.000000 0.000000 0.000000 0.000000 0.000000 0.200902
#
#
# Mechanical properties :
#
#
# Convention : Reuss Voigt Hill
#
# Bulk Modulus (GPa) = 62.81093 63.53607 63.17350
# Shear Modulus (GPa) = 11.84968 16.52702 14.18835
#
# Velocity S-wave (km/s) = 2.73876 3.23443 2.99686
# Velocity P-wave (km/s) = 7.05409 7.35981 7.20857
#
# Compressibility (1/GPa) = 0.01592080
#
# Stress axis : x y z
#
# Youngs Moduli (GPa) = 52.12282 52.12282 32.05065
#
# Poissons Ratio (x) = 0.16598 0.37885
# Poissons Ratio (y) = 0.16598 0.37885
# Poissons Ratio (z) = 0.61612 0.61612
#
# Static dielectric constant tensor:
#      x y z
#    x 1.512040 0.000000 0.000000 
#    y 0.000000 1.512040 0.000000 
#    z 0.000000 0.000000 1.545610 
# 
# From -- ./inp_files/2314.got.cif
#   From: 2010.05.17/outbox.cif.g08.bks.cpg/sg123_2_cif.got.tgz:2314.got - 2010.05.20 11:43:04.
