data_PCOD9561347
_publ_section_title
;
Structure prediction by ZEFSAII (Michael W. Deem and Ramdas Pophale) SiO2 
 PCOD9561347
Probable space group: I -4 2 D
;
_chemical_formula_sum "Si O2"
_cell_formula_units_Z 88
_cell_length_a 16.506096
_cell_length_b 16.506096
_cell_length_c 16.002713
_cell_angle_alpha 90.000000
_cell_angle_beta 90.000000
_cell_angle_gamma 90.000000
_cell_volume 4359.958443
_symmetry_space_group_name_H-M "I -4 2 D"
_symmetry_group_IT_number 122
_symmetry_cell_setting 'tetragonal'
loop_
_space_group_symop_operation_xyz
x,y,z
y,-x,-z
-x,-y,z
-y,x,-z
x,1/2-y,1/4-z
-x,1/2+y,1/4-z
-y,1/2-x,1/4+z
y,1/2+x,1/4+z
1/2+x,1/2+y,1/2+z
1/2+y,1/2-x,1/2-z
1/2-x,1/2-y,1/2+z
1/2-y,1/2+x,1/2-z
1/2+x,-y,3/4-z
1/2-x,y,3/4-z
1/2-y,-x,3/4+z
1/2+y,x,3/4+z
loop_
_atom_site_type_symbol
_atom_site_label
_atom_site_fract_x
_atom_site_fract_y
_atom_site_fract_z
Si Si1 0.000000 0.500000 0.056571
Si Si2 0.595868 0.556686 0.452278
Si Si3 0.298816 0.838185 0.614137
Si Si4 0.907298 0.613578 0.545294
Si Si5 0.970979 0.171433 0.577161
Si Si6 0.837732 0.033738 0.606558
O O1 0.006481 0.576550 0.118020
O O2 0.079573 0.512112 0.001833
O O3 0.603913 0.487698 0.522169
O O4 0.658846 0.624612 0.427681
O O5 0.261825 0.750000 0.625000
O O6 0.332643 0.858554 0.521057
O O7 0.234976 0.908134 0.633665
O O8 0.859989 0.533766 0.575332
O O9 0.942776 0.655719 0.627189
O O10 0.936598 0.250000 0.625000
O O11 0.914158 0.092555 0.586927
O O12 0.988564 0.185308 0.479750
#
# Coordination Sequence:
#
# PCOD9561347 Si02
#       6
#     8  16  16  16  16  16
#     4   8  15  32  57  90 108 142 202 264 271 356
#     4   8  17  36  62  84 114 160 213 248 296 361
#     4  11  25  41  60  93 132 163 203 269 327 365
#     4  11  21  38  65  90 123 164 220 249 305 389
#     4  12  23  40  63  92 128 165 209 260 319 384
#     4  12  24  39  65  93 125 170 206 265 322 376
#
# _framework density 20.183679000000001
#
# number of rings (size 3 to 8) (size 9 to 14) (size 15 to 20)
#    0.000    1.636    5.455    0.545    2.545    0.000 
#    0.000    0.000    0.000    0.000    0.000    0.000 
#    0.000    0.000    0.000    0.000    0.000    0.000 
#
# Total GULP energy -245158.420175 kJ/mol
# GULP energy per Si atom -5571.782277 kJ/mol
# Density = 2.013774 g / cm^3
# Si number density = 20.183679 Si / 1000 Ang^3
#
#
#
# Elastic Constant Matrix: (Units=GPa)
#
#
# Indices 1 2 3 4 5 6 
#
# 1 72.9365 23.3967 14.3622 0.0000 0.0000 0.0000
# 2 23.3967 72.9365 14.3622 0.0000 0.0000 0.0000
# 3 14.3622 14.3622 65.3222 0.0000 0.0000 0.0000
# 4 0.0000 0.0000 0.0000 17.1795 0.0000 0.0000
# 5 0.0000 0.0000 0.0000 0.0000 17.1795 0.0000
# 6 0.0000 0.0000 0.0000 0.0000 0.0000 28.9295
#
#
#
# Elastic Compliance Matrix: (Units=1/GPa)
#
#
# Indices 1 2 3 4 5 6 
#
# 1 0.015647 -0.004538 -0.002442 0.000000 0.000000 0.000000
# 2 -0.004538 0.015647 -0.002442 0.000000 0.000000 0.000000
# 3 -0.002442 -0.002442 0.016383 0.000000 0.000000 0.000000
# 4 0.000000 0.000000 0.000000 0.058209 0.000000 0.000000
# 5 0.000000 0.000000 0.000000 0.000000 0.058209 0.000000
# 6 0.000000 0.000000 0.000000 0.000000 0.000000 0.034567
#
#
# Mechanical properties :
#
#
# Convention : Reuss Voigt Hill
#
# Bulk Modulus (GPa) = 34.68530 35.04863 34.86697
# Shear Modulus (GPa) = 22.01485 23.26262 22.63874
#
# Velocity S-wave (km/s) = 3.30620 3.39860 3.35272
# Velocity P-wave (km/s) = 5.63886 5.72741 5.68330
#
# Compressibility (1/GPa) = 0.02883066
#
# Stress axis : x y z
#
# Youngs Moduli (GPa) = 63.90854 63.90854 61.03972
#
# Poissons Ratio (x) = 0.29004 0.14909
# Poissons Ratio (y) = 0.29004 0.14909
# Poissons Ratio (z) = 0.15610 0.15610
#
# Static dielectric constant tensor:
#      x y z
#    x 1.733940 0.000000 0.000000 
#    y 0.000000 1.733940 0.000000 
#    z 0.000000 0.000000 1.751310 
# 
# From -- ./inp_files/5376.got.cif
#   From: 2010.05.17/outbox.cif.g08.bks.cpg/sg122_3_cif.got.tgz:5376.got - 2010.05.20 11:37:33.
