data_PCOD9561708
_publ_section_title
;
Structure prediction by ZEFSAII (Michael W. Deem and Ramdas Pophale) SiO2 
 PCOD9561708
Probable space group: P 4/M M M
;
_chemical_formula_sum "Si O2"
_cell_formula_units_Z 96
_cell_length_a 23.928116
_cell_length_b 23.928116
_cell_length_c 9.419336
_cell_angle_alpha 90.000000
_cell_angle_beta 90.000000
_cell_angle_gamma 90.000000
_cell_volume 5393.085430
_symmetry_space_group_name_H-M "P 4/M M M"
_symmetry_group_IT_number 123
_symmetry_cell_setting 'tetragonal'
loop_
_space_group_symop_operation_xyz
x,y,z
-y,x,z
-x,-y,z
y,-x,z
x,-y,-z
-x,y,-z
y,x,-z
-y,-x,-z
-x,-y,-z
y,-x,-z
x,y,-z
-y,x,-z
-x,y,z
x,-y,z
-y,-x,z
y,x,z
loop_
_atom_site_type_symbol
_atom_site_label
_atom_site_fract_x
_atom_site_fract_y
_atom_site_fract_z
Si Si1 0.437005 0.656780 0.660793
Si Si2 0.174192 0.663982 0.330545
Si Si3 0.000000 0.246362 0.327903
Si Si4 0.000000 0.634928 0.165876
Si Si5 0.726089 0.366070 0.843522
Si Si6 0.215530 0.876638 0.672116
Si Si7 0.112952 0.565673 0.831006
O O1 0.429643 0.678912 0.500000
O O2 0.500000 0.637205 0.677101
O O3 0.394601 0.605400 0.675989
O O4 0.422766 0.705080 0.772097
O O5 0.172064 0.660174 0.500000
O O6 0.235595 0.666482 0.266716
O O7 0.143609 0.721781 0.287447
O O8 0.151548 0.607126 0.259408
O O9 0.942425 0.214345 0.287443
O O10 0.000000 0.252618 0.500000
O O11 0.000000 0.308753 0.260014
O O12 0.947147 0.594894 0.189855
O O13 0.000000 0.652330 0.000000
O O14 0.671288 0.328713 0.858957
O O15 0.751518 0.372675 0.000000
O O16 0.213350 0.874787 0.500000
O O17 0.166414 0.833587 0.721640
O O18 0.114153 0.500000 0.790694
O O19 0.125252 0.568421 0.000000
#
# Coordination Sequence:
#
# PCOD9561708 Si02
#       7
#    16  16   8   8  16  16  16
#     4   9  18  33  53  76 100 127 162 206 260 322
#     4  11  21  34  54  77 106 140 181 230 274 320
#     4  10  18  33  57  82 112 146 185 228 274 330
#     4  10  19  34  56  78 107 143 182 224 270 319
#     4  10  21  36  53  73  99 132 170 212 261 318
#     4   9  18  32  53  82 112 143 179 223 276 328
#     4  10  21  36  53  75 106 145 185 224 270 322
#
# _framework density 17.800571000000001
#
# number of rings (size 3 to 8) (size 9 to 14) (size 15 to 20)
#    0.000    2.167    1.667    1.750    0.000    4.167 
#    0.000    0.833    0.000    3.250    0.000    4.083 
#    0.000    0.000    0.000    0.750    0.000    0.833 
#
# Total GULP energy -534448.392039 kJ/mol
# GULP energy per Si atom -5567.170750 kJ/mol
# Density = 1.776006 g / cm^3
# Si number density = 17.800571 Si / 1000 Ang^3
#
#
#
# Elastic Constant Matrix: (Units=GPa)
#
#
# Indices 1 2 3 4 5 6 
#
# 1 96.7385 48.7434 34.6333 0.0000 0.0000 0.0000
# 2 48.7434 96.7385 34.6333 0.0000 0.0000 0.0000
# 3 34.6333 34.6333 42.8722 0.0000 0.0000 0.0000
# 4 0.0000 0.0000 0.0000 18.3864 0.0000 0.0000
# 5 0.0000 0.0000 0.0000 0.0000 18.3864 0.0000
# 6 0.0000 0.0000 0.0000 0.0000 0.0000 -4.5910
#
#
#
# Elastic Compliance Matrix: (Units=1/GPa)
#
#
# Indices 1 2 3 4 5 6 
#
# 1 0.016003 -0.004833 -0.009023 0.000000 0.000000 0.000000
# 2 -0.004833 0.016003 -0.009023 0.000000 0.000000 0.000000
# 3 -0.009023 -0.009023 0.037904 0.000000 0.000000 0.000000
# 4 0.000000 0.000000 0.000000 0.054388 0.000000 0.000000
# 5 0.000000 0.000000 0.000000 0.000000 0.054388 0.000000
# 6 0.000000 0.000000 0.000000 0.000000 0.000000 -0.217817
#
#
# Mechanical properties :
#
#
# Convention : Reuss Voigt Hill
#
# Bulk Modulus (GPa) = 41.40760 52.48544 46.94652
# Shear Modulus (GPa) = 340.67824 14.32563 177.50193
#
# Velocity S-wave (km/s) = 13.84925 2.83995 9.99667
# Velocity P-wave (km/s) = 16.70473 6.34847 12.63628
#
# Compressibility (1/GPa) = 0.02415016
#
# Stress axis : x y z
#
# Youngs Moduli (GPa) = 62.48966 62.48966 26.38271
#
# Poissons Ratio (x) = 0.30200 0.23806
# Poissons Ratio (y) = 0.30200 0.23806
# Poissons Ratio (z) = 0.56386 0.56386
#
# Static dielectric constant tensor:
#      x y z
#    x 1.658670 0.000000 0.000000 
#    y 0.000000 1.658670 0.000000 
#    z 0.000000 0.000000 1.635860 
# 
# From -- ./inp_files/1673.got.cif
#   From: 2010.05.17/outbox.cif.g08.bks.cpg/sg123_1_cif.got.tgz:1673.got - 2010.05.20 11:43:04.
