data_PCOD9561919
_publ_section_title
;
Structure prediction by ZEFSAII (Michael W. Deem and Ramdas Pophale) SiO2 
 PCOD9561919
Probable space group: P 4/M M M
;
_chemical_formula_sum "Si O2"
_cell_formula_units_Z 72
_cell_length_a 19.625228
_cell_length_b 19.625228
_cell_length_c 10.716908
_cell_angle_alpha 90.000000
_cell_angle_beta 90.000000
_cell_angle_gamma 90.000000
_cell_volume 4127.612551
_symmetry_space_group_name_H-M "P 4/M M M"
_symmetry_group_IT_number 123
_symmetry_cell_setting 'tetragonal'
loop_
_space_group_symop_operation_xyz
x,y,z
-y,x,z
-x,-y,z
y,-x,z
x,-y,-z
-x,y,-z
y,x,-z
-y,-x,-z
-x,-y,-z
y,-x,-z
x,y,-z
-y,x,-z
-x,y,z
x,-y,z
-y,-x,z
y,x,z
loop_
_atom_site_type_symbol
_atom_site_label
_atom_site_fract_x
_atom_site_fract_y
_atom_site_fract_z
Si Si1 0.922136 0.193095 0.500000
Si Si2 0.286348 0.500000 0.633827
Si Si3 0.251300 0.363451 0.263233
Si Si4 0.079521 0.316074 0.000000
Si Si5 0.794677 0.581587 0.000000
Si Si6 0.749937 0.862954 0.750642
Si Si7 0.500000 0.385804 0.134862
O O1 0.869800 0.130201 0.500000
O O2 0.906609 0.234563 0.627234
O O3 0.000000 0.170765 0.500000
O O4 0.321146 0.500000 0.500000
O O5 0.245832 0.570273 0.650487
O O6 0.338213 0.500000 0.747606
O O7 0.321433 0.321433 0.281425
O O8 0.244341 0.391260 0.122202
O O9 0.190442 0.310147 0.281617
O O10 0.097034 0.273163 0.874590
O O11 0.131733 0.380143 0.000000
O O12 0.000000 0.334933 0.000000
O O13 0.802890 0.500000 0.000000
O O14 0.816306 0.816306 0.778627
O O15 0.565144 0.434857 0.138758
O O16 0.500000 0.350156 0.000000
#
# Coordination Sequence:
#
# PCOD9561919 Si02
#       7
#     8   8  16   8   8  16   8
#     4  10  20  35  58  87 117 149 180 214 258 308
#     4  12  25  35  49  76 105 133 169 225 288 335
#     4  10  21  36  55  77 103 138 182 228 276 326
#     4  10  19  32  55  83 111 142 176 219 270 324
#     4  10  19  36  55  78 105 134 176 227 276 324
#     4   9  19  35  56  80 110 145 185 226 261 307
#     4   9  20  38  54  68  92 129 171 213 265 339
#
# _framework density 17.443497000000001
#
# number of rings (size 3 to 8) (size 9 to 14) (size 15 to 20)
#    0.000    2.111    1.111    2.333    3.111    4.778 
#    0.000    0.556    0.000    0.000    0.000    0.778 
#    0.000    8.000    0.000    0.000    0.000    0.000 
#
# Total GULP energy -401761.495320 kJ/mol
# GULP energy per Si atom -5580.020768 kJ/mol
# Density = 1.740380 g / cm^3
# Si number density = 17.443497 Si / 1000 Ang^3
#
#
#
# Elastic Constant Matrix: (Units=GPa)
#
#
# Indices 1 2 3 4 5 6 
#
# 1 82.0092 15.0075 33.2048 0.0000 0.0000 0.0000
# 2 15.0075 82.0071 33.2044 0.0000 0.0000 0.0000
# 3 33.2048 33.2044 115.4224 0.0000 0.0000 0.0000
# 4 0.0000 0.0000 0.0000 15.2610 0.0000 0.0000
# 5 0.0000 0.0000 0.0000 0.0000 15.2610 0.0000
# 6 0.0000 0.0000 0.0000 0.0000 0.0000 3.7466
#
#
#
# Elastic Compliance Matrix: (Units=1/GPa)
#
#
# Indices 1 2 3 4 5 6 
#
# 1 0.013880 -0.001045 -0.003692 0.000000 0.000000 0.000000
# 2 -0.001045 0.013880 -0.003692 0.000000 0.000000 0.000000
# 3 -0.003692 -0.003692 0.010788 0.000000 0.000000 0.000000
# 4 0.000000 0.000000 0.000000 0.065527 0.000000 0.000000
# 5 0.000000 0.000000 0.000000 0.000000 0.065527 0.000000
# 6 0.000000 0.000000 0.000000 0.000000 0.000000 0.266909
#
#
# Mechanical properties :
#
#
# Convention : Reuss Voigt Hill
#
# Bulk Modulus (GPa) = 46.10643 49.14136 47.62389
# Shear Modulus (GPa) = 10.85539 20.05518 15.45529
#
# Velocity S-wave (km/s) = 2.49734 3.39443 2.97984
# Velocity P-wave (km/s) = 5.89956 6.60271 6.26102
#
# Compressibility (1/GPa) = 0.02168895
#
# Stress axis : x y z
#
# Youngs Moduli (GPa) = 72.04612 72.04428 92.69322
#
# Poissons Ratio (x) = 0.07529 0.34226
# Poissons Ratio (y) = 0.07529 0.34226
# Poissons Ratio (z) = 0.26602 0.26602
#
# Static dielectric constant tensor:
#      x y z
#    x 1.596970 0.000000 0.000000 
#    y 0.000000 1.596970 0.000000 
#    z 0.000000 0.000000 1.596160 
# 
# From -- ./inp_files/1233.got.cif
#   From: 2010.05.17/outbox.cif.g08.bks.cpg/sg123_1_cif.got.tgz:1233.got - 2010.05.20 11:43:04.
