data_PCOD9561438
_publ_section_title
;
Structure prediction by ZEFSAII (Michael W. Deem and Ramdas Pophale) SiO2 
 PCOD9561438
Probable space group: I -4 2 D
;
_chemical_formula_sum "Si O2"
_cell_formula_units_Z 28
_cell_length_a 9.349305
_cell_length_b 9.349305
_cell_length_c 14.239644
_cell_angle_alpha 90.000000
_cell_angle_beta 90.000000
_cell_angle_gamma 90.000000
_cell_volume 1244.680219
_symmetry_space_group_name_H-M "I -4 2 D"
_symmetry_group_IT_number 122
_symmetry_cell_setting 'tetragonal'
loop_
_space_group_symop_operation_xyz
x,y,z
y,-x,-z
-x,-y,z
-y,x,-z
x,1/2-y,1/4-z
-x,1/2+y,1/4-z
-y,1/2-x,1/4+z
y,1/2+x,1/4+z
1/2+x,1/2+y,1/2+z
1/2+y,1/2-x,1/2-z
1/2-x,1/2-y,1/2+z
1/2-y,1/2+x,1/2-z
1/2+x,-y,3/4-z
1/2-x,y,3/4-z
1/2-y,-x,3/4+z
1/2+y,x,3/4+z
loop_
_atom_site_type_symbol
_atom_site_label
_atom_site_fract_x
_atom_site_fract_y
_atom_site_fract_z
Si Si1 0.710463 0.390625 0.982543
Si Si2 0.067168 0.750000 0.125000
Si Si3 0.500000 0.500000 0.500000
O O1 0.750000 0.363009 0.875000
O O2 0.560298 0.314522 0.005374
O O3 0.831674 0.337223 0.053663
O O4 0.977398 0.638129 0.185594
#
# Coordination Sequence:
#
# PCOD9561438 Si02
#       3
#    16   8   4
#     4  11  24  45  76 109 149 197 251 313 381 455
#     4  12  28  50  76 114 156 204 256 320 384 458
#     4  12  32  48  84 108 166 200 260 320 384 456
#
# _framework density 22.495736999999998
#
# number of rings (size 3 to 8) (size 9 to 14) (size 15 to 20)
#    0.000    0.571    2.857    3.429   12.000    4.571 
#    0.000    0.000    0.000    0.000    0.000    0.000 
#    0.000    0.000    0.000    0.000    0.000    0.000 
#
# Total GULP energy -78528.790380 kJ/mol
# GULP energy per Si atom -5609.199313 kJ/mol
# Density = 2.244454 g / cm^3
# Si number density = 22.495737 Si / 1000 Ang^3
#
#
#
# Elastic Constant Matrix: (Units=GPa)
#
#
# Indices 1 2 3 4 5 6 
#
# 1 55.4051 19.8870 32.0702 0.0000 0.0000 0.0000
# 2 19.8870 55.4051 32.0702 0.0000 0.0000 0.0000
# 3 32.0702 32.0702 157.7217 0.0000 0.0000 0.0000
# 4 0.0000 0.0000 0.0000 29.0275 0.0000 0.0000
# 5 0.0000 0.0000 0.0000 0.0000 29.0275 0.0000
# 6 0.0000 0.0000 0.0000 0.0000 0.0000 27.7288
#
#
#
# Elastic Compliance Matrix: (Units=1/GPa)
#
#
# Indices 1 2 3 4 5 6 
#
# 1 0.022109 -0.006045 -0.003266 0.000000 0.000000 0.000000
# 2 -0.006045 0.022109 -0.003266 0.000000 0.000000 0.000000
# 3 -0.003266 -0.003266 0.007669 0.000000 0.000000 0.000000
# 4 0.000000 0.000000 0.000000 0.034450 0.000000 0.000000
# 5 0.000000 0.000000 0.000000 0.000000 0.034450 0.000000
# 6 0.000000 0.000000 0.000000 0.000000 0.000000 0.036064
#
#
# Mechanical properties :
#
#
# Convention : Reuss Voigt Hill
#
# Bulk Modulus (GPa) = 37.40916 48.50966 42.95941
# Shear Modulus (GPa) = 26.18928 29.45706 27.82317
#
# Velocity S-wave (km/s) = 3.41572 3.62256 3.52066
# Velocity P-wave (km/s) = 5.67642 6.25364 5.97201
#
# Compressibility (1/GPa) = 0.02673142
#
# Stress axis : x y z
#
# Youngs Moduli (GPa) = 45.22957 45.22956 130.40141
#
# Poissons Ratio (x) = 0.27342 0.42594
# Poissons Ratio (y) = 0.27342 0.42594
# Poissons Ratio (z) = 0.14774 0.14774
#
# Static dielectric constant tensor:
#      x y z
#    x 1.799430 0.000000 0.000000 
#    y 0.000000 1.799430 0.000000 
#    z 0.000000 0.000000 1.771080 
# 
# From -- ./inp_files/1638.got.cif
#   From: 2010.05.17/outbox.cif.g08.bks.cpg/sg122_1_cif.got.tgz:1638.got - 2010.05.20 11:37:33.
