data_PCOD9561003
_publ_section_title
;
Structure prediction by ZEFSAII (Michael W. Deem and Ramdas Pophale) SiO2 
 PCOD9561003
Probable space group: I -4 2 D
;
_chemical_formula_sum "Si O2"
_cell_formula_units_Z 60
_cell_length_a 20.878445
_cell_length_b 20.878445
_cell_length_c 5.647592
_cell_angle_alpha 90.000000
_cell_angle_beta 90.000000
_cell_angle_gamma 90.000000
_cell_volume 2461.838811
_symmetry_space_group_name_H-M "I -4 2 D"
_symmetry_group_IT_number 122
_symmetry_cell_setting 'tetragonal'
loop_
_space_group_symop_operation_xyz
x,y,z
y,-x,-z
-x,-y,z
-y,x,-z
x,1/2-y,1/4-z
-x,1/2+y,1/4-z
-y,1/2-x,1/4+z
y,1/2+x,1/4+z
1/2+x,1/2+y,1/2+z
1/2+y,1/2-x,1/2-z
1/2-x,1/2-y,1/2+z
1/2-y,1/2+x,1/2-z
1/2+x,-y,3/4-z
1/2-x,y,3/4-z
1/2-y,-x,3/4+z
1/2+y,x,3/4+z
loop_
_atom_site_type_symbol
_atom_site_label
_atom_site_fract_x
_atom_site_fract_y
_atom_site_fract_z
Si Si1 0.609052 0.643770 0.660705
Si Si2 0.072341 0.115671 0.664229
Si Si3 0.500000 0.000000 0.250000
Si Si4 0.250000 0.003645 0.375000
Si Si5 0.250000 0.785474 0.875000
Si Si6 0.996611 0.250000 0.125000
O O1 0.609820 0.607667 0.409706
O O2 0.668748 0.690032 0.663624
O O3 0.544563 0.688438 0.644639
O O4 0.608459 0.608669 0.912926
O O5 0.041787 0.187006 0.647238
O O6 0.020786 0.059518 0.658655
O O7 0.249828 0.039773 0.625374
O O8 0.259327 0.750000 0.625000
#
# Coordination Sequence:
#
# PCOD9561003 Si02
#       6
#    16  16   4   8   8   8
#     4   9  18  35  57  86 133 180 213 282 366 425
#     4  10  21  38  62  90 132 179 241 288 366 425
#     4  12  28  42  68 110 136 190 264 322 340 434
#     4   8  14  31  56  79 110 166 208 266 340 424
#     4  11  20  33  66 112 138 178 253 306 355 438
#     4   7  12  24  50  81 100 150 219 238 301 412
#
# _framework density 24.372025000000001
#
# number of rings (size 3 to 8) (size 9 to 14) (size 15 to 20)
#    0.000    2.667    0.000    3.200    0.000    5.333 
#    0.000    0.000    8.800    0.000    0.000    0.000 
#    0.000    0.000    0.000    0.000    0.000    0.000 
#
# Total GULP energy -167495.495219 kJ/mol
# GULP energy per Si atom -5583.183174 kJ/mol
# Density = 2.431655 g / cm^3
# Si number density = 24.372025 Si / 1000 Ang^3
#
#
#
# Elastic Constant Matrix: (Units=GPa)
#
#
# Indices 1 2 3 4 5 6 
#
# 1 61.5642 38.1407 30.8978 0.0000 0.0000 0.0000
# 2 38.1407 61.5642 30.8978 0.0000 0.0000 0.0000
# 3 30.8978 30.8978 286.5715 0.0000 0.0000 0.0000
# 4 0.0000 0.0000 0.0000 166.5311 0.0000 0.0000
# 5 0.0000 0.0000 0.0000 0.0000 166.5311 0.0000
# 6 0.0000 0.0000 0.0000 0.0000 0.0000 19.2731
#
#
#
# Elastic Compliance Matrix: (Units=1/GPa)
#
#
# Indices 1 2 3 4 5 6 
#
# 1 0.026720 -0.015972 -0.001159 0.000000 0.000000 0.000000
# 2 -0.015972 0.026720 -0.001159 0.000000 0.000000 0.000000
# 3 -0.001159 -0.001159 0.003739 0.000000 0.000000 0.000000
# 4 0.000000 0.000000 0.000000 0.006005 0.000000 0.000000
# 5 0.000000 0.000000 0.000000 0.000000 0.006005 0.000000
# 6 0.000000 0.000000 0.000000 0.000000 0.000000 0.051886
#
#
# Mechanical properties :
#
#
# Convention : Reuss Voigt Hill
#
# Bulk Modulus (GPa) = 48.54419 67.73027 58.13723
# Shear Modulus (GPa) = 30.39120 91.11798 60.75459
#
# Velocity S-wave (km/s) = 3.53508 6.12107 4.99821
# Velocity P-wave (km/s) = 6.05174 8.82083 7.56408
#
# Compressibility (1/GPa) = 0.02059979
#
# Stress axis : x y z
#
# Youngs Moduli (GPa) = 37.42511 37.42511 267.42153
#
# Poissons Ratio (x) = 0.59776 0.30989
# Poissons Ratio (y) = 0.59776 0.30989
# Poissons Ratio (z) = 0.04337 0.04337
#
# Static dielectric constant tensor:
#      x y z
#    x 1.348900 0.000000 0.000000 
#    y 0.000000 1.348900 0.000000 
#    z 0.000000 0.000000 1.920150 
# 
# From -- ./inp_files/1046.got.cif
#   From: 2010.05.17/outbox.cif.g08.bks.cpg/sg122_1_cif.got.tgz:1046.got - 2010.05.20 11:37:33.
