data_PCOD9561019
_publ_section_title
;
Structure prediction by ZEFSAII (Michael W. Deem and Ramdas Pophale) SiO2 
 PCOD9561019
Probable space group: I -4 2 D
;
_chemical_formula_sum "Si O2"
_cell_formula_units_Z 112
_cell_length_a 14.258187
_cell_length_b 14.258187
_cell_length_c 27.209053
_cell_angle_alpha 90.000000
_cell_angle_beta 90.000000
_cell_angle_gamma 90.000000
_cell_volume 5531.488823
_symmetry_space_group_name_H-M "I -4 2 D"
_symmetry_group_IT_number 122
_symmetry_cell_setting 'tetragonal'
loop_
_space_group_symop_operation_xyz
x,y,z
y,-x,-z
-x,-y,z
-y,x,-z
x,1/2-y,1/4-z
-x,1/2+y,1/4-z
-y,1/2-x,1/4+z
y,1/2+x,1/4+z
1/2+x,1/2+y,1/2+z
1/2+y,1/2-x,1/2-z
1/2-x,1/2-y,1/2+z
1/2-y,1/2+x,1/2-z
1/2+x,-y,3/4-z
1/2-x,y,3/4-z
1/2-y,-x,3/4+z
1/2+y,x,3/4+z
loop_
_atom_site_type_symbol
_atom_site_label
_atom_site_fract_x
_atom_site_fract_y
_atom_site_fract_z
Si Si1 0.034719 0.601978 0.507786
Si Si2 0.761532 0.553192 0.597776
Si Si3 0.396874 0.673310 0.053614
Si Si4 0.394494 0.971375 0.383004
Si Si5 0.218983 0.645885 0.545099
Si Si6 0.405250 0.620674 0.490222
Si Si7 0.729120 0.994680 0.204659
O O1 0.145940 0.616915 0.501234
O O2 0.970941 0.677146 0.481040
O O3 0.000000 0.500000 0.495967
O O4 0.024123 0.619464 0.565823
O O5 0.862390 0.605589 0.601119
O O6 0.778423 0.444941 0.580584
O O7 0.683638 0.590034 0.559401
O O8 0.735266 0.553540 0.654986
O O9 0.487834 0.668774 0.089202
O O10 0.325106 0.757730 0.065172
O O11 0.341519 0.576605 0.058308
O O12 0.429114 0.683802 0.996741
O O13 0.500000 0.000000 0.367551
O O14 0.323003 0.660887 0.524474
O O15 0.509598 0.620434 0.514437
#
# Coordination Sequence:
#
# PCOD9561019 Si02
#       7
#    16  16  16  16  16  16  16
#     4  10  21  40  60  88 121 174 221 263 333 399
#     4  11  21  41  66  93 129 178 221 274 354 403
#     4  11  24  39  59  97 133 170 227 268 328 404
#     4  11  20  39  66  86 125 182 218 266 330 414
#     4  10  21  39  68  92 131 169 232 278 326 417
#     4   9  21  42  71 102 127 172 237 295 346 401
#     4  11  24  36  58  92 134 169 205 282 328 394
#
# _framework density 20.247713999999998
#
# number of rings (size 3 to 8) (size 9 to 14) (size 15 to 20)
#    0.000    1.571    4.286    0.857    2.000    5.143 
#    5.143    2.857    0.000    0.000    0.000    0.000 
#    0.000    0.000    0.000    0.000    0.000    0.000 
#
# Total GULP energy -312037.950199 kJ/mol
# GULP energy per Si atom -5572.106254 kJ/mol
# Density = 2.020163 g / cm^3
# Si number density = 20.247714 Si / 1000 Ang^3
#
#
#
# Elastic Constant Matrix: (Units=GPa)
#
#
# Indices 1 2 3 4 5 6 
#
# 1 99.7560 38.3485 48.3172 0.0000 0.0000 0.0000
# 2 38.3485 99.7560 48.3172 0.0000 0.0000 0.0000
# 3 48.3172 48.3172 98.0389 0.0000 0.0000 0.0000
# 4 0.0000 0.0000 0.0000 26.3514 0.0000 0.0000
# 5 0.0000 0.0000 0.0000 0.0000 26.3514 0.0000
# 6 0.0000 0.0000 0.0000 0.0000 0.0000 25.5466
#
#
#
# Elastic Compliance Matrix: (Units=1/GPa)
#
#
# Indices 1 2 3 4 5 6 
#
# 1 0.013668 -0.002616 -0.005447 0.000000 0.000000 0.000000
# 2 -0.002616 0.013668 -0.005447 0.000000 0.000000 0.000000
# 3 -0.005447 -0.005447 0.015569 0.000000 0.000000 0.000000
# 4 0.000000 0.000000 0.000000 0.037949 0.000000 0.000000
# 5 0.000000 0.000000 0.000000 0.000000 0.037949 0.000000
# 6 0.000000 0.000000 0.000000 0.000000 0.000000 0.039144
#
#
# Mechanical properties :
#
#
# Convention : Reuss Voigt Hill
#
# Bulk Modulus (GPa) = 62.95003 63.05741 63.00372
# Shear Modulus (GPa) = 26.27947 26.48777 26.38362
#
# Velocity S-wave (km/s) = 3.60654 3.62081 3.61368
# Velocity P-wave (km/s) = 6.96422 6.97789 6.97106
#
# Compressibility (1/GPa) = 0.01588562
#
# Stress axis : x y z
#
# Youngs Moduli (GPa) = 73.16122 73.16122 64.23044
#
# Poissons Ratio (x) = 0.19141 0.34986
# Poissons Ratio (y) = 0.19141 0.34986
# Poissons Ratio (z) = 0.39851 0.39851
#
# Static dielectric constant tensor:
#      x y z
#    x 1.789780 0.000000 0.000000 
#    y 0.000000 1.789780 0.000000 
#    z 0.000000 0.000000 1.747710 
# 
# From -- ./inp_files/8782.got.cif
#   From: 2010.05.17/outbox.cif.g08.bks.cpg/sg122_5_cif.got.tgz:8782.got - 2010.05.20 11:37:33.
