data_PCOD9561839
_publ_section_title
;
Structure prediction by ZEFSAII (Michael W. Deem and Ramdas Pophale) SiO2 
 PCOD9561839
Probable space group: P 4/M M M
;
_chemical_formula_sum "Si O2"
_cell_formula_units_Z 104
_cell_length_a 18.487673
_cell_length_b 18.487673
_cell_length_c 18.723049
_cell_angle_alpha 90.000000
_cell_angle_beta 90.000000
_cell_angle_gamma 90.000000
_cell_volume 6399.426801
_symmetry_space_group_name_H-M "P 4/M M M"
_symmetry_group_IT_number 123
_symmetry_cell_setting 'tetragonal'
loop_
_space_group_symop_operation_xyz
x,y,z
-y,x,z
-x,-y,z
y,-x,z
x,-y,-z
-x,y,-z
y,x,-z
-y,-x,-z
-x,-y,-z
y,-x,-z
x,y,-z
-y,x,-z
-x,y,z
x,-y,z
-y,-x,z
y,x,z
loop_
_atom_site_type_symbol
_atom_site_label
_atom_site_fract_x
_atom_site_fract_y
_atom_site_fract_z
Si Si1 0.311582 0.808774 0.083293
Si Si2 0.915531 0.701429 0.705881
Si Si3 0.084594 0.201723 0.158006
Si Si4 0.354928 0.170738 0.416018
Si Si5 0.500000 0.919255 0.414305
Si Si6 0.584118 0.825197 0.788283
Si Si7 0.297991 0.584919 0.669006
O O1 0.263354 0.736647 0.095073
O O2 0.259178 0.874419 0.107421
O O3 0.380047 0.809978 0.135311
O O4 0.329542 0.814012 0.000000
O O5 0.906787 0.767307 0.761302
O O6 0.865137 0.704295 0.635827
O O7 0.887047 0.632135 0.750632
O O8 0.000000 0.694392 0.686905
O O9 0.126574 0.126574 0.151176
O O10 0.000000 0.197427 0.142029
O O11 0.339514 0.164958 0.500000
O O12 0.427949 0.125078 0.397874
O O13 0.375486 0.251474 0.392696
O O14 0.500000 0.925560 0.500000
O O15 0.500000 0.000000 0.383420
O O16 0.500000 0.844533 0.792104
O O17 0.591145 0.754010 0.738370
O O18 0.307532 0.500000 0.653264
O O19 0.372016 0.627985 0.679577
#
# Coordination Sequence:
#
# PCOD9561839 Si02
#       7
#    16  16  16  16   8  16  16
#     4   9  17  30  49  71  96 126 155 184 226 281
#     4   9  18  30  46  68  96 127 154 186 229 281
#     4   9  18  33  51  71  95 123 157 196 236 278
#     4  10  19  31  46  68  95 121 155 194 237 288
#     4   9  16  26  42  64  91 119 144 180 229 278
#     4   9  18  31  47  69  95 123 158 195 230 271
#     4  10  20  34  50  66  89 121 158 204 248 285
#
# _framework density 16.251455
#
# number of rings (size 3 to 8) (size 9 to 14) (size 15 to 20)
#    0.000    2.692    0.769    0.923    1.077    6.154 
#    0.000    0.000    0.000    0.000    0.000    7.538 
#    0.000    0.000    0.000   17.692    0.000    0.000 
#
# Total GULP energy -579640.456468 kJ/mol
# GULP energy per Si atom -5573.465928 kJ/mol
# Density = 1.621447 g / cm^3
# Si number density = 16.251455 Si / 1000 Ang^3
#
#
#
# Elastic Constant Matrix: (Units=GPa)
#
#
# Indices 1 2 3 4 5 6 
#
# 1 47.0995 18.8944 8.5970 0.0000 0.0000 0.0000
# 2 18.8944 47.0995 8.5970 0.0000 0.0000 0.0000
# 3 8.5970 8.5970 79.9005 0.0000 0.0000 0.0000
# 4 0.0000 0.0000 0.0000 14.9899 0.0000 0.0000
# 5 0.0000 0.0000 0.0000 0.0000 14.9899 0.0000
# 6 0.0000 0.0000 0.0000 0.0000 0.0000 10.1998
#
#
#
# Elastic Compliance Matrix: (Units=1/GPa)
#
#
# Indices 1 2 3 4 5 6 
#
# 1 0.025522 -0.009932 -0.001677 0.000000 0.000000 0.000000
# 2 -0.009932 0.025522 -0.001677 0.000000 0.000000 0.000000
# 3 -0.001677 -0.001677 0.012877 0.000000 0.000000 0.000000
# 4 0.000000 0.000000 0.000000 0.066711 0.000000 0.000000
# 5 0.000000 0.000000 0.000000 0.000000 0.066711 0.000000
# 6 0.000000 0.000000 0.000000 0.000000 0.000000 0.098041
#
#
# Mechanical properties :
#
#
# Convention : Reuss Voigt Hill
#
# Bulk Modulus (GPa) = 26.77611 27.36405 27.07008
# Shear Modulus (GPa) = 14.95179 17.23667 16.09423
#
# Velocity S-wave (km/s) = 3.03649 3.26025 3.15036
# Velocity P-wave (km/s) = 5.36708 5.57197 5.47048
#
# Compressibility (1/GPa) = 0.03734673
#
# Stress axis : x y z
#
# Youngs Moduli (GPa) = 39.18139 39.18139 77.66064
#
# Poissons Ratio (x) = 0.38916 0.13027
# Poissons Ratio (y) = 0.38916 0.13027
# Poissons Ratio (z) = 0.06572 0.06572
#
# Static dielectric constant tensor:
#      x y z
#    x 1.544960 0.000000 0.000000 
#    y 0.000000 1.544960 0.000000 
#    z 0.000000 0.000000 1.551540 
# 
# From -- ./inp_files/5590.got.cif
#   From: 2010.05.17/outbox.cif.g08.bks.cpg/sg123_3_cif.got.tgz:5590.got - 2010.05.20 11:43:04.
