data_PCOD9561727
_publ_section_title
;
Structure prediction by ZEFSAII (Michael W. Deem and Ramdas Pophale) SiO2 
 PCOD9561727
Probable space group: P 4/M M M
;
_chemical_formula_sum "Si O2"
_cell_formula_units_Z 112
_cell_length_a 29.605342
_cell_length_b 29.605342
_cell_length_c 8.897196
_cell_angle_alpha 90.000000
_cell_angle_beta 90.000000
_cell_angle_gamma 90.000000
_cell_volume 7798.181207
_symmetry_space_group_name_H-M "P 4/M M M"
_symmetry_group_IT_number 123
_symmetry_cell_setting 'tetragonal'
loop_
_space_group_symop_operation_xyz
x,y,z
-y,x,z
-x,-y,z
y,-x,z
x,-y,-z
-x,y,-z
y,x,-z
-y,-x,-z
-x,-y,-z
y,-x,-z
x,y,-z
-y,x,-z
-x,y,z
x,-y,z
-y,-x,z
y,x,z
loop_
_atom_site_type_symbol
_atom_site_label
_atom_site_fract_x
_atom_site_fract_y
_atom_site_fract_z
Si Si1 0.185276 0.739501 0.679942
Si Si2 0.215327 0.648368 0.179605
Si Si3 0.947979 0.126269 0.318929
Si Si4 0.447044 0.226868 0.320748
Si Si5 0.613482 0.386519 0.323887
Si Si6 0.682324 0.682324 0.179284
Si Si7 0.117058 0.194412 0.171981
Si Si8 0.552789 0.321944 0.167026
O O1 0.186354 0.736587 0.500000
O O2 0.228598 0.771402 0.726040
O O3 0.187101 0.689800 0.751175
O O4 0.140785 0.765824 0.735366
O O5 0.205349 0.598294 0.247000
O O6 0.266601 0.666274 0.211304
O O7 0.210091 0.646105 0.000000
O O8 0.945808 0.130198 0.500000
O O9 0.916420 0.083581 0.276382
O O10 0.926093 0.170956 0.247087
O O11 0.000000 0.119996 0.275022
O O12 0.445202 0.221549 0.500000
O O13 0.500000 0.215414 0.274312
O O14 0.439651 0.278971 0.272845
O O15 0.608380 0.391621 0.500000
O O16 0.650900 0.349101 0.280258
O O17 0.570021 0.366994 0.243133
O O18 0.675939 0.675939 0.000000
O O19 0.154771 0.154771 0.170419
O O20 0.108459 0.207949 0.000000
O O21 0.500000 0.324901 0.150011
O O22 0.573021 0.314416 0.000000
#
# Coordination Sequence:
#
# PCOD9561727 Si02
#       8
#    16  16  16  16   8   8  16  16
#     4  10  19  29  43  62  85 111 141 177 217 262
#     4  11  20  30  44  60  83 110 137 169 205 248
#     4   9  17  29  45  65  90 121 159 203 249 292
#     4  10  20  32  44  59  80 104 132 165 199 237
#     4  12  22  30  46  63  79  96 114 146 185 227
#     4  10  20  30  40  58  83 107 130 158 193 237
#     4   9  17  29  44  61  84 114 149 187 229 277
#     4  10  20  33  47  60  75  95 118 144 178 225
#
# _framework density 14.362323
#
# number of rings (size 3 to 8) (size 9 to 14) (size 15 to 20)
#    0.000    2.000    2.143    2.786    0.000    5.000 
#    0.000    0.714    0.000    0.214    0.000    3.500 
#    0.000    0.000    0.000    0.000    0.000    0.714 
#
# Total GULP energy -623581.473099 kJ/mol
# GULP energy per Si atom -5567.691724 kJ/mol
# Density = 1.432963 g / cm^3
# Si number density = 14.362323 Si / 1000 Ang^3
#
#
#
# Elastic Constant Matrix: (Units=GPa)
#
#
# Indices 1 2 3 4 5 6 
#
# 1 55.7737 46.9201 22.2909 0.0000 0.0000 0.0000
# 2 46.9201 55.7731 22.2906 0.0000 0.0000 0.0000
# 3 22.2909 22.2906 49.2315 0.0000 0.0000 0.0000
# 4 0.0000 0.0000 0.0000 18.2724 0.0000 0.0000
# 5 0.0000 0.0000 0.0000 0.0000 18.2724 0.0000
# 6 0.0000 0.0000 0.0000 0.0000 0.0000 18.8199
#
#
#
# Elastic Compliance Matrix: (Units=1/GPa)
#
#
# Indices 1 2 3 4 5 6 
#
# 1 0.062536 -0.050416 -0.005488 0.000000 0.000000 0.000000
# 2 -0.050416 0.062536 -0.005487 0.000000 0.000000 0.000000
# 3 -0.005488 -0.005487 0.025282 0.000000 0.000000 0.000000
# 4 0.000000 0.000000 0.000000 0.054727 0.000000 0.000000
# 5 0.000000 0.000000 0.000000 0.000000 0.054727 0.000000
# 6 0.000000 0.000000 0.000000 0.000000 0.000000 0.053135
#
#
# Mechanical properties :
#
#
# Convention : Reuss Voigt Hill
#
# Bulk Modulus (GPa) = 36.26996 38.19794 37.23395
# Shear Modulus (GPa) = 11.23805 15.69139 13.46472
#
# Velocity S-wave (km/s) = 2.80030 3.30894 3.06519
# Velocity P-wave (km/s) = 5.98029 6.42281 6.20550
#
# Compressibility (1/GPa) = 0.02757102
#
# Stress axis : x y z
#
# Youngs Moduli (GPa) = 15.99078 15.99067 39.55461
#
# Poissons Ratio (x) = 0.80619 0.21707
# Poissons Ratio (y) = 0.80619 0.21705
# Poissons Ratio (z) = 0.08776 0.08775
#
# Static dielectric constant tensor:
#      x y z
#    x 1.493720 0.000000 0.000000 
#    y 0.000000 1.493720 0.000000 
#    z 0.000000 0.000000 1.486750 
# 
# From -- ./inp_files/2197.got.cif
#   From: 2010.05.17/outbox.cif.g08.bks.cpg/sg123_2_cif.got.tgz:2197.got - 2010.05.20 11:43:04.
