data_PCOD9561716
_publ_section_title
;
Structure prediction by ZEFSAII (Michael W. Deem and Ramdas Pophale) SiO2 
 PCOD9561716
Probable space group: P 4/M M M
;
_chemical_formula_sum "Si O2"
_cell_formula_units_Z 56
_cell_length_a 14.456593
_cell_length_b 14.456593
_cell_length_c 18.104373
_cell_angle_alpha 90.000000
_cell_angle_beta 90.000000
_cell_angle_gamma 90.000000
_cell_volume 3783.688696
_symmetry_space_group_name_H-M "P 4/M M M"
_symmetry_group_IT_number 123
_symmetry_cell_setting 'tetragonal'
loop_
_space_group_symop_operation_xyz
x,y,z
-y,x,z
-x,-y,z
y,-x,z
x,-y,-z
-x,y,-z
y,x,-z
-y,-x,-z
-x,-y,-z
y,-x,-z
x,y,-z
-y,x,-z
-x,y,z
x,-y,z
-y,-x,z
y,x,z
loop_
_atom_site_type_symbol
_atom_site_label
_atom_site_fract_x
_atom_site_fract_y
_atom_site_fract_z
Si Si1 0.110178 0.737680 0.217659
Si Si2 0.107745 0.607915 0.358988
Si Si3 0.887613 0.394254 0.916185
Si Si4 0.763041 0.608986 0.500000
O O1 0.169906 0.830095 0.222319
O O2 0.125372 0.674423 0.289941
O O3 0.140222 0.677956 0.146217
O O4 0.000000 0.755721 0.212253
O O5 0.119227 0.500000 0.337024
O O6 0.174428 0.626833 0.427662
O O7 0.000000 0.619025 0.381276
O O8 0.858247 0.500000 0.899995
O O9 0.000000 0.395169 0.915591
O O10 0.858834 0.370787 0.000000
O O11 0.738960 0.500000 0.500000
O O12 0.674523 0.674523 0.500000
#
# Coordination Sequence:
#
# PCOD9561716 Si02
#       4
#    16  16  16   8
#     4  10  19  29  42  61  87 118 147 174 206 248
#     4   9  17  30  48  67  84 105 139 183 225 255
#     4   8  14  26  44  63  81 103 135 177 220 252
#     4  10  19  30  45  65  90 116 139 167 206 257
#
# _framework density 14.800371
#
# number of rings (size 3 to 8) (size 9 to 14) (size 15 to 20)
#    0.000    2.857    0.000    3.000    0.000    6.143 
#    0.000    0.000    0.000    0.000    0.000    4.000 
#    0.000   15.429    0.000   12.571    0.000    1.143 
#
# Total GULP energy -311913.602971 kJ/mol
# GULP energy per Si atom -5569.885767 kJ/mol
# Density = 1.476668 g / cm^3
# Si number density = 14.800371 Si / 1000 Ang^3
#
#
#
# Elastic Constant Matrix: (Units=GPa)
#
#
# Indices 1 2 3 4 5 6 
#
# 1 75.0133 60.3691 65.8481 0.0000 0.0000 0.0000
# 2 60.3691 75.0133 65.8481 0.0000 0.0000 0.0000
# 3 65.8481 65.8481 104.7247 0.0000 0.0000 0.0000
# 4 0.0000 0.0000 0.0000 9.9756 0.0000 0.0000
# 5 0.0000 0.0000 0.0000 0.0000 9.9756 0.0000
# 6 0.0000 0.0000 0.0000 0.0000 0.0000 23.7202
#
#
#
# Elastic Compliance Matrix: (Units=1/GPa)
#
#
# Indices 1 2 3 4 5 6 
#
# 1 0.043654 -0.024633 -0.011959 0.000000 0.000000 0.000000
# 2 -0.024633 0.043654 -0.011959 0.000000 0.000000 0.000000
# 3 -0.011959 -0.011959 0.024588 0.000000 0.000000 0.000000
# 4 0.000000 0.000000 0.000000 0.100245 0.000000 0.000000
# 5 0.000000 0.000000 0.000000 0.000000 0.100245 0.000000
# 6 0.000000 0.000000 0.000000 0.000000 0.000000 0.042158
#
#
# Mechanical properties :
#
#
# Convention : Reuss Voigt Hill
#
# Bulk Modulus (GPa) = 67.60777 70.98688 69.29733
# Shear Modulus (GPa) = 10.95105 12.91334 11.93219
#
# Velocity S-wave (km/s) = 2.72309 2.95702 2.84246
# Velocity P-wave (km/s) = 7.46096 7.72824 7.59577
#
# Compressibility (1/GPa) = 0.01479120
#
# Stress axis : x y z
#
# Youngs Moduli (GPa) = 22.90766 22.90766 40.66950
#
# Poissons Ratio (x) = 0.56429 0.48639
# Poissons Ratio (y) = 0.56429 0.48639
# Poissons Ratio (z) = 0.27396 0.27396
#
# Static dielectric constant tensor:
#      x y z
#    x 1.471600 0.000000 0.000000 
#    y 0.000000 1.471600 0.000000 
#    z 0.000000 0.000000 1.492640 
# 
# From -- ./inp_files/3672.got.cif
#   From: 2010.05.17/outbox.cif.g08.bks.cpg/sg123_2_cif.got.tgz:3672.got - 2010.05.20 11:43:04.
