data_PCOD9561000
_publ_section_title
;
Structure prediction by ZEFSAII (Michael W. Deem and Ramdas Pophale) SiO2 
 PCOD9561000
Probable space group: I -4 2 D
;
_chemical_formula_sum "Si O2"
_cell_formula_units_Z 64
_cell_length_a 11.617366
_cell_length_b 11.617366
_cell_length_c 25.459665
_cell_angle_alpha 90.000000
_cell_angle_beta 90.000000
_cell_angle_gamma 90.000000
_cell_volume 3436.117675
_symmetry_space_group_name_H-M "I -4 2 D"
_symmetry_group_IT_number 122
_symmetry_cell_setting 'tetragonal'
loop_
_space_group_symop_operation_xyz
x,y,z
y,-x,-z
-x,-y,z
-y,x,-z
x,1/2-y,1/4-z
-x,1/2+y,1/4-z
-y,1/2-x,1/4+z
y,1/2+x,1/4+z
1/2+x,1/2+y,1/2+z
1/2+y,1/2-x,1/2-z
1/2-x,1/2-y,1/2+z
1/2-y,1/2+x,1/2-z
1/2+x,-y,3/4-z
1/2-x,y,3/4-z
1/2-y,-x,3/4+z
1/2+y,x,3/4+z
loop_
_atom_site_type_symbol
_atom_site_label
_atom_site_fract_x
_atom_site_fract_y
_atom_site_fract_z
Si Si1 0.750978 0.625184 0.043192
Si Si2 0.877069 0.440568 0.883351
Si Si3 0.111489 0.183406 0.750556
Si Si4 0.500588 0.130839 0.593402
O O1 0.664539 0.628019 0.092418
O O2 0.746078 0.504671 0.012934
O O3 0.877314 0.641646 0.065861
O O4 0.715338 0.728073 0.005101
O O5 0.750000 0.500641 0.875000
O O6 0.000000 0.500000 0.872847
O O7 0.878068 0.403038 0.944306
O O8 0.125481 0.095335 0.797749
O O9 0.519315 0.250000 0.625000
O O10 0.500000 0.000000 0.619007
#
# Coordination Sequence:
#
# PCOD9561000 Si02
#       4
#    16  16  16  16
#     4  10  22  39  64  87 128 160 202 258 316 371
#     4  10  21  38  60  92 123 163 204 254 316 376
#     4  10  22  40  62  90 125 164 200 261 312 371
#     4  10  21  44  62  87 126 168 211 258 312 372
#
# _framework density 18.625672999999999
#
# number of rings (size 3 to 8) (size 9 to 14) (size 15 to 20)
#    0.000    2.000    0.000    4.500    7.000    0.000 
#   22.500    0.000    0.000    0.000    0.000    0.000 
#    0.000    0.000    0.000    0.000    0.000    0.000 
#
# Total GULP energy -178270.368005 kJ/mol
# GULP energy per Si atom -5570.949000 kJ/mol
# Density = 1.858328 g / cm^3
# Si number density = 18.625673 Si / 1000 Ang^3
#
#
#
# Elastic Constant Matrix: (Units=GPa)
#
#
# Indices 1 2 3 4 5 6 
#
# 1 103.5145 64.0853 26.4814 0.0000 0.0000 0.0000
# 2 64.0853 103.5145 26.4814 0.0000 0.0000 0.0000
# 3 26.4814 26.4814 62.4959 0.0000 0.0000 0.0000
# 4 0.0000 0.0000 0.0000 26.6503 0.0000 0.0000
# 5 0.0000 0.0000 0.0000 0.0000 26.6503 0.0000
# 6 0.0000 0.0000 0.0000 0.0000 0.0000 29.4511
#
#
#
# Elastic Compliance Matrix: (Units=1/GPa)
#
#
# Indices 1 2 3 4 5 6 
#
# 1 0.016125 -0.009236 -0.002919 0.000000 0.000000 0.000000
# 2 -0.009236 0.016125 -0.002919 0.000000 0.000000 0.000000
# 3 -0.002919 -0.002919 0.018475 0.000000 0.000000 0.000000
# 4 0.000000 0.000000 0.000000 0.037523 0.000000 0.000000
# 5 0.000000 0.000000 0.000000 0.000000 0.037523 0.000000
# 6 0.000000 0.000000 0.000000 0.000000 0.000000 0.033955
#
#
# Mechanical properties :
#
#
# Convention : Reuss Voigt Hill
#
# Bulk Modulus (GPa) = 48.59893 55.95787 52.27840
# Shear Modulus (GPa) = 25.41496 26.71547 26.06521
#
# Velocity S-wave (km/s) = 3.69794 3.79137 3.74495
# Velocity P-wave (km/s) = 6.66199 7.01959 6.84312
#
# Compressibility (1/GPa) = 0.02057659
#
# Stress axis : x y z
#
# Youngs Moduli (GPa) = 62.01368 62.01368 54.12759
#
# Poissons Ratio (x) = 0.57278 0.15800
# Poissons Ratio (y) = 0.57278 0.15800
# Poissons Ratio (z) = 0.18102 0.18102
#
# Static dielectric constant tensor:
#      x y z
#    x 1.678650 0.000000 0.000000 
#    y 0.000000 1.678650 0.000000 
#    z 0.000000 0.000000 1.626470 
# 
# From -- ./inp_files/6907.got.cif
#   From: 2010.05.17/outbox.cif.g08.bks.cpg/sg122_4_cif.got.tgz:6907.got - 2010.05.20 11:37:33.
