data_PCOD9561439
_publ_section_title
;
Structure prediction by ZEFSAII (Michael W. Deem and Ramdas Pophale) SiO2 
 PCOD9561439
Probable space group: I -4 2 D
;
_chemical_formula_sum "Si O2"
_cell_formula_units_Z 64
_cell_length_a 15.107415
_cell_length_b 15.107415
_cell_length_c 13.185952
_cell_angle_alpha 90.000000
_cell_angle_beta 90.000000
_cell_angle_gamma 90.000000
_cell_volume 3009.482410
_symmetry_space_group_name_H-M "I -4 2 D"
_symmetry_group_IT_number 122
_symmetry_cell_setting 'tetragonal'
loop_
_space_group_symop_operation_xyz
x,y,z
y,-x,-z
-x,-y,z
-y,x,-z
x,1/2-y,1/4-z
-x,1/2+y,1/4-z
-y,1/2-x,1/4+z
y,1/2+x,1/4+z
1/2+x,1/2+y,1/2+z
1/2+y,1/2-x,1/2-z
1/2-x,1/2-y,1/2+z
1/2-y,1/2+x,1/2-z
1/2+x,-y,3/4-z
1/2-x,y,3/4-z
1/2-y,-x,3/4+z
1/2+y,x,3/4+z
loop_
_atom_site_type_symbol
_atom_site_label
_atom_site_fract_x
_atom_site_fract_y
_atom_site_fract_z
Si Si1 0.116527 0.203446 0.453400
Si Si2 0.680861 0.595393 0.286549
Si Si3 0.744453 0.568941 0.055060
Si Si4 0.061711 0.075878 0.273578
O O1 0.140560 0.306618 0.452819
O O2 0.196893 0.153433 0.506502
O O3 0.098199 0.152037 0.348656
O O4 0.016997 0.198876 0.498375
O O5 0.750000 0.587162 0.375000
O O6 0.722508 0.579940 0.174425
O O7 0.613326 0.514456 0.299007
O O8 0.848327 0.554244 0.035725
O O9 0.000000 0.000000 0.328069
#
# Coordination Sequence:
#
# PCOD9561439 Si02
#       4
#    16  16  16  16
#     4  11  25  41  70 103 137 181 231 293 355 421
#     4  11  25  45  68 100 140 184 238 282 355 427
#     4  11  25  42  71 102 139 183 228 297 357 428
#     4  11  24  46  69 102 141 182 239 291 364 427
#
# _framework density 21.266116
#
# number of rings (size 3 to 8) (size 9 to 14) (size 15 to 20)
#    0.000    1.000    2.500    3.000    7.000    8.000 
#    0.000    0.000    0.000    0.000    0.000    0.000 
#    0.000    0.000    0.000    0.000    0.000    0.000 
#
# Total GULP energy -178203.147775 kJ/mol
# GULP energy per Si atom -5568.848368 kJ/mol
# Density = 2.121771 g / cm^3
# Si number density = 21.266116 Si / 1000 Ang^3
#
#
#
# Elastic Constant Matrix: (Units=GPa)
#
#
# Indices 1 2 3 4 5 6 
#
# 1 150.4218 45.5520 31.5595 0.0000 0.0000 0.0000
# 2 45.5520 150.4218 31.5595 0.0000 0.0000 0.0000
# 3 31.5595 31.5595 49.4501 0.0000 0.0000 0.0000
# 4 0.0000 0.0000 0.0000 49.1409 0.0000 0.0000
# 5 0.0000 0.0000 0.0000 0.0000 49.1409 0.0000
# 6 0.0000 0.0000 0.0000 0.0000 0.0000 39.5318
#
#
#
# Elastic Compliance Matrix: (Units=1/GPa)
#
#
# Indices 1 2 3 4 5 6 
#
# 1 0.007979 -0.001556 -0.004099 0.000000 0.000000 0.000000
# 2 -0.001556 0.007979 -0.004099 0.000000 0.000000 0.000000
# 3 -0.004099 -0.004099 0.025455 0.000000 0.000000 0.000000
# 4 0.000000 0.000000 0.000000 0.020350 0.000000 0.000000
# 5 0.000000 0.000000 0.000000 0.000000 0.020350 0.000000
# 6 0.000000 0.000000 0.000000 0.000000 0.000000 0.025296
#
#
# Mechanical properties :
#
#
# Convention : Reuss Voigt Hill
#
# Bulk Modulus (GPa) = 45.65405 63.07064 54.36234
# Shear Modulus (GPa) = 37.25239 43.67090 40.46165
#
# Velocity S-wave (km/s) = 4.18990 4.53652 4.36665
# Velocity P-wave (km/s) = 6.70236 7.56057 7.14436
#
# Compressibility (1/GPa) = 0.02190386
#
# Stress axis : x y z
#
# Youngs Moduli (GPa) = 125.32406 125.32406 39.28541
#
# Poissons Ratio (x) = 0.19504 0.16104
# Poissons Ratio (y) = 0.19504 0.16104
# Poissons Ratio (z) = 0.51373 0.51373
#
# Static dielectric constant tensor:
#      x y z
#    x 1.892130 0.000000 0.000000 
#    y 0.000000 1.892130 0.000000 
#    z 0.000000 0.000000 1.758440 
# 
# From -- ./inp_files/5151.got.cif
#   From: 2010.05.17/outbox.cif.g08.bks.cpg/sg122_3_cif.got.tgz:5151.got - 2010.05.20 11:37:33.
