data_PCOD9561623
_publ_section_title
;
Structure prediction by ZEFSAII (Michael W. Deem and Ramdas Pophale) SiO2 
 PCOD9561623
Probable space group: P 4/M M M
;
_chemical_formula_sum "Si O2"
_cell_formula_units_Z 96
_cell_length_a 25.132766
_cell_length_b 25.132766
_cell_length_c 7.388375
_cell_angle_alpha 90.000000
_cell_angle_beta 90.000000
_cell_angle_gamma 90.000000
_cell_volume 4666.910858
_symmetry_space_group_name_H-M "P 4/M M M"
_symmetry_group_IT_number 123
_symmetry_cell_setting 'tetragonal'
loop_
_space_group_symop_operation_xyz
x,y,z
-y,x,z
-x,-y,z
y,-x,z
x,-y,-z
-x,y,-z
y,x,-z
-y,-x,-z
-x,-y,-z
y,-x,-z
x,y,-z
-y,x,-z
-x,y,z
x,-y,z
-y,-x,z
y,x,z
loop_
_atom_site_type_symbol
_atom_site_label
_atom_site_fract_x
_atom_site_fract_y
_atom_site_fract_z
Si Si1 0.234072 0.559768 0.279294
Si Si2 0.440840 0.938807 0.279428
Si Si3 0.852507 0.767887 0.784102
Si Si4 0.061121 0.852285 0.220656
Si Si5 0.852945 0.357688 0.716512
Si Si6 0.559271 0.644006 0.279396
O O1 0.233095 0.559649 0.500000
O O2 0.216707 0.500000 0.224808
O O3 0.197442 0.608124 0.217251
O O4 0.295069 0.567149 0.223448
O O5 0.440699 0.938079 0.500000
O O6 0.500000 0.919370 0.225464
O O7 0.391413 0.903659 0.217190
O O8 0.435812 0.000000 0.223659
O O9 0.800457 0.800457 0.717347
O O10 0.904573 0.800651 0.720420
O O11 0.852555 0.705061 0.750957
O O12 0.852754 0.773480 0.000000
O O13 0.096040 0.903961 0.273108
O O14 0.000000 0.852672 0.281943
O O15 0.059930 0.851934 0.000000
O O16 0.852951 0.362421 0.500000
O O17 0.560357 0.643974 0.500000
O O18 0.500000 0.627086 0.225469
O O19 0.604442 0.604442 0.215457
#
# Coordination Sequence:
#
# PCOD9561623 Si02
#       6
#    16  16  16  16  16  16
#     4   8  14  24  37  55  80 106 132 170 219 257
#     4   8  14  25  41  63  92 120 142 171 217 267
#     4   9  19  34  46  59  88 125 149 169 212 271
#     4   8  14  26  45  67  89 114 144 177 213 254
#     4  10  18  27  45  69  85 105 147 192 216 241
#     4   8  13  20  29  43  66  95 124 155 195 243
#
# _framework density 20.570350000000001
#
# number of rings (size 3 to 8) (size 9 to 14) (size 15 to 20)
#    0.000    3.500    0.000    3.000    0.000    4.000 
#    0.000    3.333    0.000    2.000    0.000    1.167 
#    0.000    0.000    0.000    3.667    0.000    3.667 
#
# Total GULP energy -535200.927202 kJ/mol
# GULP energy per Si atom -5575.009658 kJ/mol
# Density = 2.052353 g / cm^3
# Si number density = 20.570350 Si / 1000 Ang^3
#
#
#
# Elastic Constant Matrix: (Units=GPa)
#
#
# Indices 1 2 3 4 5 6 
#
# 1 203.3994 137.6816 4.5001 0.0000 0.0000 0.0000
# 2 137.6816 203.3994 4.5001 0.0000 0.0000 0.0000
# 3 4.5001 4.5001 68.3904 0.0000 0.0000 0.0000
# 4 0.0000 0.0000 0.0000 3.8015 0.0000 0.0000
# 5 0.0000 0.0000 0.0000 0.0000 3.8015 0.0000
# 6 0.0000 0.0000 0.0000 0.0000 0.0000 50.1639
#
#
#
# Elastic Compliance Matrix: (Units=1/GPa)
#
#
# Indices 1 2 3 4 5 6 
#
# 1 0.009077 -0.006140 -0.000193 0.000000 0.000000 0.000000
# 2 -0.006140 0.009077 -0.000193 0.000000 0.000000 0.000000
# 3 -0.000193 -0.000193 0.014647 0.000000 0.000000 0.000000
# 4 0.000000 0.000000 0.000000 0.263053 0.000000 0.000000
# 5 0.000000 0.000000 0.000000 0.000000 0.263053 0.000000
# 6 0.000000 0.000000 0.000000 0.000000 0.000000 0.019935
#
#
# Mechanical properties :
#
#
# Convention : Reuss Voigt Hill
#
# Bulk Modulus (GPa) = 50.63732 85.39475 68.01603
# Shear Modulus (GPa) = 8.35454 33.45387 20.90421
#
# Velocity S-wave (km/s) = 2.01749 4.03713 3.19129
# Velocity P-wave (km/s) = 5.48608 7.95832 6.83491
#
# Compressibility (1/GPa) = 0.01974828
#
# Stress axis : x y z
#
# Youngs Moduli (GPa) = 110.17136 110.17136 68.27162
#
# Poissons Ratio (x) = 0.67643 0.01319
# Poissons Ratio (y) = 0.67643 0.01319
# Poissons Ratio (z) = 0.02129 0.02129
#
# Static dielectric constant tensor:
#      x y z
#    x 1.717230 0.000000 0.000000 
#    y 0.000000 1.717230 0.000000 
#    z 0.000000 0.000000 1.833120 
# 
# From -- ./inp_files/1625.got.cif
#   From: 2010.05.17/outbox.cif.g08.bks.cpg/sg123_1_cif.got.tgz:1625.got - 2010.05.20 11:43:04.
