data_PCOD9561633
_publ_section_title
;
Structure prediction by ZEFSAII (Michael W. Deem and Ramdas Pophale) SiO2 
 PCOD9561633
Probable space group: P 4/M M M
;
_chemical_formula_sum "Si O2"
_cell_formula_units_Z 120
_cell_length_a 18.714735
_cell_length_b 18.714735
_cell_length_c 22.188076
_cell_angle_alpha 90.000000
_cell_angle_beta 90.000000
_cell_angle_gamma 90.000000
_cell_volume 7771.180719
_symmetry_space_group_name_H-M "P 4/M M M"
_symmetry_group_IT_number 123
_symmetry_cell_setting 'tetragonal'
loop_
_space_group_symop_operation_xyz
x,y,z
-y,x,z
-x,-y,z
y,-x,z
x,-y,-z
-x,y,-z
y,x,-z
-y,-x,-z
-x,-y,-z
y,-x,-z
x,y,-z
-y,x,-z
-x,y,z
x,-y,z
-y,-x,z
y,x,z
loop_
_atom_site_type_symbol
_atom_site_label
_atom_site_fract_x
_atom_site_fract_y
_atom_site_fract_z
Si Si1 0.918386 0.803491 0.761989
Si Si2 0.917056 0.640891 0.258891
Si Si3 0.703946 0.414175 0.301811
Si Si4 0.805341 0.316189 0.933336
Si Si5 0.207319 0.582905 0.181040
Si Si6 0.585861 0.845485 0.624802
Si Si7 0.081935 0.802008 0.092238
Si Si8 0.587156 0.916056 0.500000
O O1 0.863743 0.863743 0.740814
O O2 0.895387 0.724116 0.743456
O O3 0.918367 0.804084 0.834861
O O4 0.000000 0.816026 0.741982
O O5 0.868760 0.597021 0.212766
O O6 0.901203 0.611589 0.325001
O O7 0.000000 0.636772 0.243213
O O8 0.691244 0.500000 0.306340
O O9 0.634266 0.365735 0.310893
O O10 0.736442 0.400055 0.234781
O O11 0.766817 0.394288 0.349640
O O12 0.743879 0.256122 0.931441
O O13 0.790869 0.368938 0.878230
O O14 0.878612 0.271267 0.925566
O O15 0.804654 0.349856 0.000000
O O16 0.215910 0.500000 0.165799
O O17 0.500000 0.845792 0.624288
O O18 0.610453 0.872815 0.559623
O O19 0.131915 0.868086 0.071938
O O20 0.000000 0.806458 0.072014
O O21 0.500000 0.916727 0.500000
O O22 0.609067 0.000000 0.500000
#
# Coordination Sequence:
#
# PCOD9561633 Si02
#       8
#    16  16  16  16  16  16  16   8
#     4   9  17  28  44  65  88 116 149 186 229 272
#     4  10  18  28  44  67  94 122 153 187 224 274
#     4   9  18  32  50  72  96 122 153 191 236 284
#     4  10  20  33  49  66  86 117 152 185 227 278
#     4  10  20  32  48  69  91 117 149 188 232 275
#     4   9  18  30  45  69  97 127 161 194 231 271
#     4   9  17  30  46  65  88 114 148 188 230 275
#     4   9  16  28  47  68  95 131 165 196 229 264
#
# _framework density 15.441668999999999
#
# number of rings (size 3 to 8) (size 9 to 14) (size 15 to 20)
#    0.000    2.600    1.333    2.000    0.000    4.667 
#    0.000    1.667    0.000    0.000    0.000    3.733 
#    0.000    2.667    0.000   12.400    0.000    6.133 
#
# Total GULP energy -668446.008505 kJ/mol
# GULP energy per Si atom -5570.383404 kJ/mol
# Density = 1.540652 g / cm^3
# Si number density = 15.441669 Si / 1000 Ang^3
#
#
#
# Elastic Constant Matrix: (Units=GPa)
#
#
# Indices 1 2 3 4 5 6 
#
# 1 57.0375 34.5572 30.2808 0.0000 0.0000 0.0000
# 2 34.5572 57.0375 30.2808 0.0000 0.0000 0.0000
# 3 30.2808 30.2808 97.7050 0.0000 0.0000 0.0000
# 4 0.0000 0.0000 0.0000 22.1967 0.0000 0.0000
# 5 0.0000 0.0000 0.0000 0.0000 22.1967 0.0000
# 6 0.0000 0.0000 0.0000 0.0000 0.0000 22.7445
#
#
#
# Elastic Compliance Matrix: (Units=1/GPa)
#
#
# Indices 1 2 3 4 5 6 
#
# 1 0.029107 -0.015376 -0.004256 0.000000 0.000000 0.000000
# 2 -0.015376 0.029107 -0.004256 0.000000 0.000000 0.000000
# 3 -0.004256 -0.004256 0.012873 0.000000 0.000000 0.000000
# 4 0.000000 0.000000 0.000000 0.045052 0.000000 0.000000
# 5 0.000000 0.000000 0.000000 0.000000 0.045052 0.000000
# 6 0.000000 0.000000 0.000000 0.000000 0.000000 0.043967
#
#
# Mechanical properties :
#
#
# Convention : Reuss Voigt Hill
#
# Bulk Modulus (GPa) = 42.89451 44.66863 43.78157
# Shear Modulus (GPa) = 19.17889 21.20499 20.19194
#
# Velocity S-wave (km/s) = 3.52806 3.70973 3.62004
# Velocity P-wave (km/s) = 6.66596 6.88038 6.77402
#
# Compressibility (1/GPa) = 0.02331301
#
# Stress axis : x y z
#
# Youngs Moduli (GPa) = 34.35549 34.35549 77.68355
#
# Poissons Ratio (x) = 0.52825 0.33060
# Poissons Ratio (y) = 0.52825 0.33060
# Poissons Ratio (z) = 0.14621 0.14621
#
# Static dielectric constant tensor:
#      x y z
#    x 1.510600 0.000000 0.000000 
#    y 0.000000 1.510600 0.000000 
#    z 0.000000 0.000000 1.520810 
# 
# From -- ./inp_files/6770.got.cif
#   From: 2010.05.17/outbox.cif.g08.bks.cpg/sg123_4_cif.got.tgz:6770.got - 2010.05.20 11:43:04.
