data_PCOD9561117
_publ_section_title
;
Structure prediction by ZEFSAII (Michael W. Deem and Ramdas Pophale) SiO2 
 PCOD9561117
Probable space group: I -4 2 D
;
_chemical_formula_sum "Si O2"
_cell_formula_units_Z 96
_cell_length_a 27.740535
_cell_length_b 27.740535
_cell_length_c 5.361810
_cell_angle_alpha 90.000000
_cell_angle_beta 90.000000
_cell_angle_gamma 90.000000
_cell_volume 4126.112694
_symmetry_space_group_name_H-M "I -4 2 D"
_symmetry_group_IT_number 122
_symmetry_cell_setting 'tetragonal'
loop_
_space_group_symop_operation_xyz
x,y,z
y,-x,-z
-x,-y,z
-y,x,-z
x,1/2-y,1/4-z
-x,1/2+y,1/4-z
-y,1/2-x,1/4+z
y,1/2+x,1/4+z
1/2+x,1/2+y,1/2+z
1/2+y,1/2-x,1/2-z
1/2-x,1/2-y,1/2+z
1/2-y,1/2+x,1/2-z
1/2+x,-y,3/4-z
1/2-x,y,3/4-z
1/2-y,-x,3/4+z
1/2+y,x,3/4+z
loop_
_atom_site_type_symbol
_atom_site_label
_atom_site_fract_x
_atom_site_fract_y
_atom_site_fract_z
Si Si1 0.250000 0.495325 0.875000
Si Si2 0.087088 0.596960 0.053933
Si Si3 0.839507 0.342560 0.398091
Si Si4 0.250000 0.720880 0.375000
Si Si5 0.180787 0.428418 0.823532
Si Si6 0.632241 0.498757 0.575593
Si Si7 0.799578 0.440027 0.536590
O O1 0.225775 0.453968 0.689426
O O2 0.210658 0.536579 0.800902
O O3 0.073610 0.630216 0.819856
O O4 0.127610 0.629098 0.196917
O O5 0.106897 0.543221 0.013828
O O6 0.038502 0.595331 0.219328
O O7 0.795964 0.311265 0.296917
O O8 0.876044 0.311656 0.564831
O O9 0.815730 0.385227 0.558939
O O10 0.236755 0.750000 0.625000
O O11 0.172284 0.467045 0.045830
O O12 0.659329 0.469796 0.356864
O O13 0.750000 0.443391 0.375000
#
# Coordination Sequence:
#
# PCOD9561117 Si02
#       7
#     8  16  16   8  16  16  16
#     4  12  24  35  70 102 128 174 227 294 354 430
#     4  10  23  42  68  94 143 176 235 288 368 431
#     4  10  26  45  68  99 135 188 229 298 357 422
#     4  12  30  51  74 104 146 194 251 290 360 450
#     4  11  24  39  66 101 134 178 227 293 358 425
#     4  10  22  41  61  97 133 181 227 288 349 437
#     4  11  21  41  66  96 131 170 236 284 349 423
#
# _framework density 23.266449999999999
#
# number of rings (size 3 to 8) (size 9 to 14) (size 15 to 20)
#    0.000    1.333    4.167    0.000    5.833    2.333 
#    0.000    0.000    0.000    0.000    0.000    0.000 
#    0.000    0.000    0.000    0.000    0.000    0.000 
#
# Total GULP energy -267373.973972 kJ/mol
# GULP energy per Si atom -5570.291124 kJ/mol
# Density = 2.321349 g / cm^3
# Si number density = 23.266450 Si / 1000 Ang^3
#
#
#
# Elastic Constant Matrix: (Units=GPa)
#
#
# Indices 1 2 3 4 5 6 
#
# 1 120.3189 45.6487 12.9405 0.0000 0.0000 0.0000
# 2 45.6487 120.3189 12.9405 0.0000 0.0000 0.0000
# 3 12.9405 12.9405 28.8752 0.0000 0.0000 0.0000
# 4 0.0000 0.0000 0.0000 33.5037 0.0000 0.0000
# 5 0.0000 0.0000 0.0000 0.0000 33.5037 0.0000
# 6 0.0000 0.0000 0.0000 0.0000 0.0000 55.9848
#
#
#
# Elastic Compliance Matrix: (Units=1/GPa)
#
#
# Indices 1 2 3 4 5 6 
#
# 1 0.009935 -0.003457 -0.002903 0.000000 0.000000 0.000000
# 2 -0.003457 0.009935 -0.002903 0.000000 0.000000 0.000000
# 3 -0.002903 -0.002903 0.037234 0.000000 0.000000 0.000000
# 4 0.000000 0.000000 0.000000 0.029847 0.000000 0.000000
# 5 0.000000 0.000000 0.000000 0.000000 0.029847 0.000000
# 6 0.000000 0.000000 0.000000 0.000000 0.000000 0.017862
#
#
# Mechanical properties :
#
#
# Convention : Reuss Voigt Hill
#
# Bulk Modulus (GPa) = 25.92193 45.84137 35.88165
# Shear Modulus (GPa) = 30.11200 37.79734 33.95467
#
# Velocity S-wave (km/s) = 3.60144 4.03493 3.82433
# Velocity P-wave (km/s) = 5.33473 6.43841 5.91238
#
# Compressibility (1/GPa) = 0.03857737
#
# Stress axis : x y z
#
# Youngs Moduli (GPa) = 100.65316 100.65316 26.85726
#
# Poissons Ratio (x) = 0.34797 0.07797
# Poissons Ratio (y) = 0.34797 0.07797
# Poissons Ratio (z) = 0.29221 0.29221
#
# Static dielectric constant tensor:
#      x y z
#    x 1.570420 0.000000 0.000000 
#    y 0.000000 1.570420 0.000000 
#    z 0.000000 0.000000 1.813970 
# 
# From -- ./inp_files/1469.got.cif
#   From: 2010.05.17/outbox.cif.g08.bks.cpg/sg122_1_cif.got.tgz:1469.got - 2010.05.20 11:37:33.
