data_PCOD9561045
_publ_section_title
;
Structure prediction by ZEFSAII (Michael W. Deem and Ramdas Pophale) SiO2 
 PCOD9561045
Probable space group: I -4 2 D
;
_chemical_formula_sum "Si O2"
_cell_formula_units_Z 96
_cell_length_a 13.179945
_cell_length_b 13.179945
_cell_length_c 22.592388
_cell_angle_alpha 90.000000
_cell_angle_beta 90.000000
_cell_angle_gamma 90.000000
_cell_volume 3924.545187
_symmetry_space_group_name_H-M "I -4 2 D"
_symmetry_group_IT_number 122
_symmetry_cell_setting 'tetragonal'
loop_
_space_group_symop_operation_xyz
x,y,z
y,-x,-z
-x,-y,z
-y,x,-z
x,1/2-y,1/4-z
-x,1/2+y,1/4-z
-y,1/2-x,1/4+z
y,1/2+x,1/4+z
1/2+x,1/2+y,1/2+z
1/2+y,1/2-x,1/2-z
1/2-x,1/2-y,1/2+z
1/2-y,1/2+x,1/2-z
1/2+x,-y,3/4-z
1/2-x,y,3/4-z
1/2-y,-x,3/4+z
1/2+y,x,3/4+z
loop_
_atom_site_type_symbol
_atom_site_label
_atom_site_fract_x
_atom_site_fract_y
_atom_site_fract_z
Si Si1 0.576333 0.344019 0.161879
Si Si2 0.259665 0.568138 0.660018
Si Si3 0.779971 0.841411 0.212956
Si Si4 0.303974 0.969147 0.822232
Si Si5 0.662716 0.134481 0.466263
Si Si6 0.325595 0.472163 0.557985
O O1 0.535168 0.250000 0.125000
O O2 0.646986 0.401761 0.113658
O O3 0.642274 0.301279 0.216977
O O4 0.472918 0.380575 0.193364
O O5 0.262606 0.452164 0.684675
O O6 0.316623 0.627061 0.712765
O O7 0.319266 0.571174 0.597823
O O8 0.879114 0.777351 0.193262
O O9 0.681975 0.772153 0.198137
O O10 0.250000 0.027492 0.875000
O O11 0.404605 0.909315 0.839419
O O12 0.338714 0.019302 0.761642
O O13 0.583445 0.216832 0.443005
#
# Coordination Sequence:
#
# PCOD9561045 Si02
#       6
#    16  16  16  16  16  16
#     4  11  22  40  66  97 133 174 224 268 331 404
#     4  11  22  42  66  95 132 175 225 282 326 406
#     4  10  21  43  65  92 135 181 219 268 344 403
#     4  11  23  44  68  97 131 174 229 279 337 409
#     4  10  25  42  64  98 135 179 222 274 343 409
#     4  11  25  43  70  96 130 182 226 276 347 402
#
# _framework density 24.461434000000001
#
# number of rings (size 3 to 8) (size 9 to 14) (size 15 to 20)
#    0.000    1.333    5.000    0.000    2.333    2.333 
#    0.000    0.000    0.000    0.000    0.000    0.000 
#    0.000    0.000    0.000    0.000    0.000    0.000 
#
# Total GULP energy -267564.128030 kJ/mol
# GULP energy per Si atom -5574.252667 kJ/mol
# Density = 2.440576 g / cm^3
# Si number density = 24.461434 Si / 1000 Ang^3
#
#
#
# Elastic Constant Matrix: (Units=GPa)
#
#
# Indices 1 2 3 4 5 6 
#
# 1 42.9859 20.1314 15.3353 0.0000 0.0000 0.0000
# 2 20.1314 42.9859 15.3353 0.0000 0.0000 0.0000
# 3 15.3353 15.3353 122.4026 0.0000 0.0000 0.0000
# 4 0.0000 0.0000 0.0000 38.8696 0.0000 0.0000
# 5 0.0000 0.0000 0.0000 0.0000 38.8696 0.0000
# 6 0.0000 0.0000 0.0000 0.0000 0.0000 10.5960
#
#
#
# Elastic Compliance Matrix: (Units=1/GPa)
#
#
# Indices 1 2 3 4 5 6 
#
# 1 0.030313 -0.013442 -0.002114 0.000000 0.000000 0.000000
# 2 -0.013442 0.030313 -0.002114 0.000000 0.000000 0.000000
# 3 -0.002114 -0.002114 0.008699 0.000000 0.000000 0.000000
# 4 0.000000 0.000000 0.000000 0.025727 0.000000 0.000000
# 5 0.000000 0.000000 0.000000 0.000000 0.025727 0.000000
# 6 0.000000 0.000000 0.000000 0.000000 0.000000 0.094375
#
#
# Mechanical properties :
#
#
# Convention : Reuss Voigt Hill
#
# Bulk Modulus (GPa) = 29.42385 34.44202 31.93294
# Shear Modulus (GPa) = 19.09695 28.17188 23.63441
#
# Velocity S-wave (km/s) = 2.79713 3.39733 3.11173
# Velocity P-wave (km/s) = 4.74201 5.43138 5.09836
#
# Compressibility (1/GPa) = 0.03398603
#
# Stress axis : x y z
#
# Youngs Moduli (GPa) = 32.98931 32.98931 114.95074
#
# Poissons Ratio (x) = 0.44345 0.24296
# Poissons Ratio (y) = 0.44345 0.24296
# Poissons Ratio (z) = 0.06973 0.06973
#
# Static dielectric constant tensor:
#      x y z
#    x 1.965500 0.000000 0.000000 
#    y 0.000000 1.965500 0.000000 
#    z 0.000000 0.000000 2.028840 
# 
# From -- ./inp_files/7298.got.cif
#   From: 2010.05.17/outbox.cif.g08.bks.cpg/sg122_4_cif.got.tgz:7298.got - 2010.05.20 11:37:33.
