data_PCOD9561463
_publ_section_title
;
Structure prediction by ZEFSAII (Michael W. Deem and Ramdas Pophale) SiO2 
 PCOD9561463
Probable space group: I -4 2 D
;
_chemical_formula_sum "Si O2"
_cell_formula_units_Z 96
_cell_length_a 14.338600
_cell_length_b 14.338600
_cell_length_c 21.200569
_cell_angle_alpha 90.000000
_cell_angle_beta 90.000000
_cell_angle_gamma 90.000000
_cell_volume 4358.740523
_symmetry_space_group_name_H-M "I -4 2 D"
_symmetry_group_IT_number 122
_symmetry_cell_setting 'tetragonal'
loop_
_space_group_symop_operation_xyz
x,y,z
y,-x,-z
-x,-y,z
-y,x,-z
x,1/2-y,1/4-z
-x,1/2+y,1/4-z
-y,1/2-x,1/4+z
y,1/2+x,1/4+z
1/2+x,1/2+y,1/2+z
1/2+y,1/2-x,1/2-z
1/2-x,1/2-y,1/2+z
1/2-y,1/2+x,1/2-z
1/2+x,-y,3/4-z
1/2-x,y,3/4-z
1/2-y,-x,3/4+z
1/2+y,x,3/4+z
loop_
_atom_site_type_symbol
_atom_site_label
_atom_site_fract_x
_atom_site_fract_y
_atom_site_fract_z
Si Si1 0.621700 0.853289 0.683317
Si Si2 0.500000 0.000000 0.750000
Si Si3 0.550379 0.673662 0.915040
Si Si4 0.018387 0.817410 0.732060
Si Si5 0.401489 0.831390 0.444902
Si Si6 0.161440 0.547500 0.457434
Si Si7 0.344026 0.750000 0.125000
Si Si8 0.500000 0.000000 0.250000
O O1 0.582586 0.947584 0.713392
O O2 0.733239 0.854981 0.677455
O O3 0.567806 0.848848 0.616572
O O4 0.596716 0.760452 0.722614
O O5 0.505191 0.751196 0.959560
O O6 0.486413 0.657554 0.854006
O O7 0.653316 0.705010 0.893318
O O8 0.548351 0.578020 0.955791
O O9 0.071786 0.907280 0.759377
O O10 0.090777 0.771919 0.684443
O O11 0.923351 0.839124 0.694766
O O12 0.443914 0.827935 0.515683
#
# Coordination Sequence:
#
# PCOD9561463 Si02
#       8
#    16   4  16  16  16  16   8   4
#     4  11  26  46  76 102 147 186 242 295 373 429
#     4  12  24  48  74 108 140 192 232 302 356 448
#     4  12  26  45  70 103 144 189 239 298 361 433
#     4  12  27  44  72 102 145 189 241 300 361 435
#     4  12  26  45  73 108 141 192 238 305 361 440
#     4  11  25  48  69 105 141 187 236 301 359 439
#     4  12  26  44  66 102 146 188 242 294 356 442
#     4  12  24  44  66  96 140 192 232 282 368 428
#
# _framework density 22.024711
#
# number of rings (size 3 to 8) (size 9 to 14) (size 15 to 20)
#    0.000    0.333    6.667    1.500    4.667    1.333 
#    0.000    1.667    0.000    0.000    0.000    0.000 
#    0.000    0.000    0.000    0.000    0.000    0.000 
#
# Total GULP energy -268318.703477 kJ/mol
# GULP energy per Si atom -5589.972989 kJ/mol
# Density = 2.197458 g / cm^3
# Si number density = 22.024711 Si / 1000 Ang^3
#
#
#
# Elastic Constant Matrix: (Units=GPa)
#
#
# Indices 1 2 3 4 5 6 
#
# 1 52.1734 -18.8472 6.8337 0.0000 0.0000 0.0000
# 2 -18.8472 52.1734 6.8337 0.0000 0.0000 0.0000
# 3 6.8337 6.8337 67.5353 0.0000 0.0000 0.0000
# 4 0.0000 0.0000 0.0000 25.4561 0.0000 0.0000
# 5 0.0000 0.0000 0.0000 0.0000 25.4561 0.0000
# 6 0.0000 0.0000 0.0000 0.0000 0.0000 12.2874
#
#
#
# Elastic Compliance Matrix: (Units=1/GPa)
#
#
# Indices 1 2 3 4 5 6 
#
# 1 0.022693 0.008613 -0.003168 0.000000 0.000000 0.000000
# 2 0.008613 0.022693 -0.003168 0.000000 0.000000 0.000000
# 3 -0.003168 -0.003168 0.015448 0.000000 0.000000 0.000000
# 4 0.000000 0.000000 0.000000 0.039283 0.000000 0.000000
# 5 0.000000 0.000000 0.000000 0.000000 0.039283 0.000000
# 6 0.000000 0.000000 0.000000 0.000000 0.000000 0.081384
#
#
# Mechanical properties :
#
#
# Convention : Reuss Voigt Hill
#
# Bulk Modulus (GPa) = 15.29324 17.94692 16.62008
# Shear Modulus (GPa) = 21.00605 24.44406 22.72505
#
# Velocity S-wave (km/s) = 3.09163 3.33505 3.21565
# Velocity P-wave (km/s) = 4.43881 4.79545 4.62057
#
# Compressibility (1/GPa) = 0.06538836
#
# Stress axis : x y z
#
# Youngs Moduli (GPa) = 44.06652 44.06652 64.73273
#
# Poissons Ratio (x) = -0.37952 0.20505
# Poissons Ratio (y) = -0.37952 0.20505
# Poissons Ratio (z) = 0.13959 0.13959
#
# Static dielectric constant tensor:
#      x y z
#    x 1.851170 0.000000 0.000000 
#    y 0.000000 1.851170 0.000000 
#    z 0.000000 0.000000 1.818640 
# 
# From -- ./inp_files/7377.got.cif
#   From: 2010.05.17/outbox.cif.g08.bks.cpg/sg122_4_cif.got.tgz:7377.got - 2010.05.20 11:37:33.
