data_PCOD9561994
_publ_section_title
;
Structure prediction by ZEFSAII (Michael W. Deem and Ramdas Pophale) SiO2 
 PCOD9561994
Probable space group: P 4/M M M
;
_chemical_formula_sum "Si O2"
_cell_formula_units_Z 64
_cell_length_a 12.977603
_cell_length_b 12.977603
_cell_length_c 22.571712
_cell_angle_alpha 90.000000
_cell_angle_beta 90.000000
_cell_angle_gamma 90.000000
_cell_volume 3801.486646
_symmetry_space_group_name_H-M "P 4/M M M"
_symmetry_group_IT_number 123
_symmetry_cell_setting 'tetragonal'
loop_
_space_group_symop_operation_xyz
x,y,z
-y,x,z
-x,-y,z
y,-x,z
x,-y,-z
-x,y,-z
y,x,-z
-y,-x,-z
-x,-y,-z
y,-x,-z
x,y,-z
-y,x,-z
-x,y,z
x,-y,z
-y,-x,z
y,x,z
loop_
_atom_site_type_symbol
_atom_site_label
_atom_site_fract_x
_atom_site_fract_y
_atom_site_fract_z
Si Si1 0.875095 0.500000 0.432059
Si Si2 0.210353 0.379586 0.242327
Si Si3 0.125025 0.616864 0.000000
Si Si4 0.878528 0.293220 0.360819
Si Si5 0.877621 0.286784 0.874334
O O1 0.839630 0.500000 0.500000
O O2 0.845988 0.394085 0.398903
O O3 0.000000 0.500000 0.431811
O O4 0.221164 0.500000 0.254380
O O5 0.318203 0.318203 0.244018
O O6 0.139682 0.327213 0.292696
O O7 0.160838 0.360890 0.177987
O O8 0.154137 0.671764 0.938978
O O9 0.163207 0.500000 0.000000
O O10 0.000000 0.614084 0.000000
O O11 0.803934 0.196067 0.373198
O O12 0.000000 0.272000 0.371054
O O13 0.821609 0.178392 0.864086
O O14 0.000000 0.278209 0.872555
#
# Coordination Sequence:
#
# PCOD9561994 Si02
#       5
#     8  16   8  16  16
#     4   9  18  34  56  79 105 140 180 219 255 301
#     4  10  20  34  53  77 103 134 173 217 265 315
#     4   9  17  30  47  67  91 123 165 211 256 301
#     4  10  20  34  54  81 111 143 179 219 265 317
#     4  10  20  32  48  71  99 133 172 213 258 309
#
# _framework density 16.835519000000001
#
# number of rings (size 3 to 8) (size 9 to 14) (size 15 to 20)
#    0.000    2.250    1.250    1.875    0.000    3.750 
#    0.000    0.000    0.000    7.125    0.000    4.375 
#    0.000    9.000    0.000    0.000    0.000    0.000 
#
# Total GULP energy -356749.523613 kJ/mol
# GULP energy per Si atom -5574.211306 kJ/mol
# Density = 1.679720 g / cm^3
# Si number density = 16.835519 Si / 1000 Ang^3
#
#
#
# Elastic Constant Matrix: (Units=GPa)
#
#
# Indices 1 2 3 4 5 6 
#
# 1 88.0774 70.9842 24.7190 0.0000 0.0000 0.0000
# 2 70.9842 88.0774 24.7190 0.0000 0.0000 0.0000
# 3 24.7190 24.7190 96.2717 0.0000 0.0000 0.0000
# 4 0.0000 0.0000 0.0000 18.9206 0.0000 0.0000
# 5 0.0000 0.0000 0.0000 0.0000 18.9206 0.0000
# 6 0.0000 0.0000 0.0000 0.0000 0.0000 9.9811
#
#
#
# Elastic Compliance Matrix: (Units=1/GPa)
#
#
# Indices 1 2 3 4 5 6 
#
# 1 0.032667 -0.025835 -0.001754 0.000000 0.000000 0.000000
# 2 -0.025835 0.032667 -0.001754 0.000000 0.000000 0.000000
# 3 -0.001754 -0.001754 0.011288 0.000000 0.000000 0.000000
# 4 0.000000 0.000000 0.000000 0.052852 0.000000 0.000000
# 5 0.000000 0.000000 0.000000 0.000000 0.052852 0.000000
# 6 0.000000 0.000000 0.000000 0.000000 0.000000 0.100190
#
#
# Mechanical properties :
#
#
# Convention : Reuss Voigt Hill
#
# Bulk Modulus (GPa) = 55.75565 57.03010 56.39287
# Shear Modulus (GPa) = 14.40160 19.69809 17.04985
#
# Velocity S-wave (km/s) = 2.92795 3.42428 3.18580
# Velocity P-wave (km/s) = 6.67984 7.04150 6.86305
#
# Compressibility (1/GPa) = 0.01793540
#
# Stress axis : x y z
#
# Youngs Moduli (GPa) = 30.61150 30.61150 88.58879
#
# Poissons Ratio (x) = 0.79086 0.15541
# Poissons Ratio (y) = 0.79086 0.15541
# Poissons Ratio (z) = 0.05370 0.05370
#
# Static dielectric constant tensor:
#      x y z
#    x 1.552530 0.000000 0.000000 
#    y 0.000000 1.552530 0.000000 
#    z 0.000000 0.000000 1.582540 
# 
# From -- ./inp_files/7003.got.cif
#   From: 2010.05.17/outbox.cif.g08.bks.cpg/sg123_4_cif.got.tgz:7003.got - 2010.05.20 11:43:04.
