data_PCOD9561719
_publ_section_title
;
Structure prediction by ZEFSAII (Michael W. Deem and Ramdas Pophale) SiO2 
 PCOD9561719
Probable space group: P 4/M M M
;
_chemical_formula_sum "Si O2"
_cell_formula_units_Z 88
_cell_length_a 14.187276
_cell_length_b 14.187276
_cell_length_c 28.888460
_cell_angle_alpha 90.000000
_cell_angle_beta 90.000000
_cell_angle_gamma 90.000000
_cell_volume 5814.634571
_symmetry_space_group_name_H-M "P 4/M M M"
_symmetry_group_IT_number 123
_symmetry_cell_setting 'tetragonal'
loop_
_space_group_symop_operation_xyz
x,y,z
-y,x,z
-x,-y,z
y,-x,z
x,-y,-z
-x,y,-z
y,x,-z
-y,-x,-z
-x,-y,-z
y,-x,-z
x,y,-z
-y,x,-z
-x,y,z
x,-y,z
-y,-x,z
y,x,z
loop_
_atom_site_type_symbol
_atom_site_label
_atom_site_fract_x
_atom_site_fract_y
_atom_site_fract_z
Si Si1 0.268212 0.112545 0.320729
Si Si2 0.392104 0.114124 0.409669
Si Si3 0.891436 0.385417 0.051945
Si Si4 0.389934 0.889411 0.770796
Si Si5 0.730670 0.886406 0.500000
Si Si6 0.234678 0.612403 0.138666
O O1 0.173827 0.173827 0.322533
O O2 0.336222 0.140735 0.363284
O O3 0.323518 0.129987 0.272818
O O4 0.250160 0.000000 0.324231
O O5 0.500000 0.149138 0.411141
O O6 0.331189 0.138571 0.454816
O O7 0.397404 0.000000 0.409313
O O8 0.891644 0.500000 0.052252
O O9 0.824032 0.356030 0.093449
O O10 0.000000 0.356157 0.059641
O O11 0.862753 0.355923 0.000000
O O12 0.500000 0.874643 0.757895
O O13 0.368569 0.826381 0.815333
O O14 0.380294 0.000000 0.783054
O O15 0.826616 0.826616 0.500000
O O16 0.747043 0.000000 0.500000
O O17 0.248775 0.500000 0.135792
O O18 0.331264 0.668737 0.140857
#
# Coordination Sequence:
#
# PCOD9561719 Si02
#       6
#    16  16  16  16   8  16
#     4  10  19  30  45  66  93 121 146 174 211 262
#     4   9  17  30  47  65  86 114 149 189 226 252
#     4   8  14  26  44  63  81 103 135 177 221 257
#     4   9  17  30  48  67  85 108 143 189 234 263
#     4  10  19  30  45  67  96 126 153 181 216 265
#     4  10  19  29  42  61  87 118 148 177 211 256
#
# _framework density 15.134228
#
# number of rings (size 3 to 8) (size 9 to 14) (size 15 to 20)
#    0.000    2.727    0.000    3.000    0.000    6.273 
#    0.000    0.000    0.000    3.273    0.000    2.545 
#    0.000   29.818    0.000    8.000    0.000    0.727 
#
# Total GULP energy -490192.248812 kJ/mol
# GULP energy per Si atom -5570.366464 kJ/mol
# Density = 1.509978 g / cm^3
# Si number density = 15.134228 Si / 1000 Ang^3
#
#
#
# Elastic Constant Matrix: (Units=GPa)
#
#
# Indices 1 2 3 4 5 6 
#
# 1 65.4241 47.5033 58.4353 0.0000 0.0000 0.0000
# 2 47.5033 65.4241 58.4353 0.0000 0.0000 0.0000
# 3 58.4353 58.4353 126.4171 0.0000 0.0000 0.0000
# 4 0.0000 0.0000 0.0000 9.8125 0.0000 0.0000
# 5 0.0000 0.0000 0.0000 0.0000 9.8125 0.0000
# 6 0.0000 0.0000 0.0000 0.0000 0.0000 20.3281
#
#
#
# Elastic Compliance Matrix: (Units=1/GPa)
#
#
# Indices 1 2 3 4 5 6 
#
# 1 0.036389 -0.019412 -0.007847 0.000000 0.000000 0.000000
# 2 -0.019412 0.036389 -0.007847 0.000000 0.000000 0.000000
# 3 -0.007847 -0.007847 0.015165 0.000000 0.000000 0.000000
# 4 0.000000 0.000000 0.000000 0.101911 0.000000 0.000000
# 5 0.000000 0.000000 0.000000 0.000000 0.101911 0.000000
# 6 0.000000 0.000000 0.000000 0.000000 0.000000 0.049193
#
#
# Mechanical properties :
#
#
# Convention : Reuss Voigt Hill
#
# Bulk Modulus (GPa) = 56.40480 65.11257 60.75868
# Shear Modulus (GPa) = 11.98807 14.18337 13.08572
#
# Velocity S-wave (km/s) = 2.81751 3.06465 2.94367
# Velocity P-wave (km/s) = 6.92352 7.45919 7.19634
#
# Compressibility (1/GPa) = 0.01772899
#
# Stress axis : x y z
#
# Youngs Moduli (GPa) = 27.48098 27.48098 65.94129
#
# Poissons Ratio (x) = 0.53347 0.51746
# Poissons Ratio (y) = 0.53347 0.51746
# Poissons Ratio (z) = 0.21565 0.21565
#
# Static dielectric constant tensor:
#      x y z
#    x 1.484730 0.000000 0.000000 
#    y 0.000000 1.484730 0.000000 
#    z 0.000000 0.000000 1.509940 
# 
# From -- ./inp_files/7227.got.cif
#   From: 2010.05.17/outbox.cif.g08.bks.cpg/sg123_4_cif.got.tgz:7227.got - 2010.05.20 11:43:04.
