data_PCOD9561545
_publ_section_title
;
Structure prediction by ZEFSAII (Michael W. Deem and Ramdas Pophale) SiO2 
 PCOD9561545
Probable space group: I -4 2 D
;
_chemical_formula_sum "Si O2"
_cell_formula_units_Z 52
_cell_length_a 20.632377
_cell_length_b 20.632377
_cell_length_c 4.792348
_cell_angle_alpha 90.000000
_cell_angle_beta 90.000000
_cell_angle_gamma 90.000000
_cell_volume 2040.078489
_symmetry_space_group_name_H-M "I -4 2 D"
_symmetry_group_IT_number 122
_symmetry_cell_setting 'tetragonal'
loop_
_space_group_symop_operation_xyz
x,y,z
y,-x,-z
-x,-y,z
-y,x,-z
x,1/2-y,1/4-z
-x,1/2+y,1/4-z
-y,1/2-x,1/4+z
y,1/2+x,1/4+z
1/2+x,1/2+y,1/2+z
1/2+y,1/2-x,1/2-z
1/2-x,1/2-y,1/2+z
1/2-y,1/2+x,1/2-z
1/2+x,-y,3/4-z
1/2-x,y,3/4-z
1/2-y,-x,3/4+z
1/2+y,x,3/4+z
loop_
_atom_site_type_symbol
_atom_site_label
_atom_site_fract_x
_atom_site_fract_y
_atom_site_fract_z
Si Si1 0.462690 0.250000 0.125000
Si Si2 0.057171 0.868223 0.732499
Si Si3 0.000000 0.500000 0.750000
Si Si4 0.322313 0.369669 0.290778
Si Si5 0.750000 0.372667 0.375000
O O1 0.503591 0.311835 0.220920
O O2 0.420975 0.224377 0.385778
O O3 0.029993 0.937834 0.656255
O O4 0.113721 0.838904 0.527525
O O5 0.085571 0.871765 0.040630
O O6 0.250000 0.390629 0.375000
O O7 0.331300 0.299520 0.434698
#
# Coordination Sequence:
#
# PCOD9561545 Si02
#       5
#     8  16   4  16   8
#     4  12  24  49  72 104 149 202 246 306 398 478
#     4  12  26  47  73 105 150 199 247 313 392 466
#     4  12  28  46  76 118 152 190 264 326 376 454
#     4  12  25  48  72 105 147 197 251 309 391 469
#     4  12  26  41  74 108 137 188 256 318 368 460
#
# _framework density 25.489218000000001
#
# number of rings (size 3 to 8) (size 9 to 14) (size 15 to 20)
#    0.000    0.000    3.077    7.385    0.000    7.385 
#    0.000    0.000    0.000    0.000    0.000    0.000 
#    0.000    0.000    0.000    0.000    0.000    0.000 
#
# Total GULP energy -145533.537782 kJ/mol
# GULP energy per Si atom -5597.443761 kJ/mol
# Density = 2.543120 g / cm^3
# Si number density = 25.489218 Si / 1000 Ang^3
#
#
#
# Elastic Constant Matrix: (Units=GPa)
#
#
# Indices 1 2 3 4 5 6 
#
# 1 101.0894 21.7945 -4.1382 0.0000 0.0000 0.0000
# 2 21.7945 101.0894 -4.1382 0.0000 0.0000 0.0000
# 3 -4.1382 -4.1382 92.5762 0.0000 0.0000 0.0000
# 4 0.0000 0.0000 0.0000 22.4478 0.0000 0.0000
# 5 0.0000 0.0000 0.0000 0.0000 22.4478 0.0000
# 6 0.0000 0.0000 0.0000 0.0000 0.0000 30.8478
#
#
#
# Elastic Compliance Matrix: (Units=1/GPa)
#
#
# Indices 1 2 3 4 5 6 
#
# 1 0.010387 -0.002224 0.000365 0.000000 0.000000 0.000000
# 2 -0.002224 0.010387 0.000365 0.000000 0.000000 0.000000
# 3 0.000365 0.000365 0.010835 0.000000 0.000000 0.000000
# 4 0.000000 0.000000 0.000000 0.044548 0.000000 0.000000
# 5 0.000000 0.000000 0.000000 0.000000 0.044548 0.000000
# 6 0.000000 0.000000 0.000000 0.000000 0.000000 0.032417
#
#
# Mechanical properties :
#
#
# Convention : Reuss Voigt Hill
#
# Bulk Modulus (GPa) = 34.94226 35.75458 35.34842
# Shear Modulus (GPa) = 30.18415 33.89779 32.04097
#
# Velocity S-wave (km/s) = 3.44494 3.65072 3.54932
# Velocity P-wave (km/s) = 5.43709 5.64164 5.54031
#
# Compressibility (1/GPa) = 0.02861864
#
# Stress axis : x y z
#
# Youngs Moduli (GPa) = 96.27657 96.27657 92.29748
#
# Poissons Ratio (x) = 0.21416 -0.03368
# Poissons Ratio (y) = 0.21416 -0.03368
# Poissons Ratio (z) = -0.03513 -0.03513
#
# Static dielectric constant tensor:
#      x y z
#    x 2.029520 0.000000 0.000000 
#    y 0.000000 2.029520 0.000000 
#    z 0.000000 0.000000 2.024220 
# 
# From -- ./inp_files/866.got.cif
#   From: 2010.05.17/outbox.cif.g08.bks.cpg/sg122_1_cif.got.tgz:866.got - 2010.05.20 11:37:33.
