data_PCOD9561362
_publ_section_title
;
Structure prediction by ZEFSAII (Michael W. Deem and Ramdas Pophale) SiO2 
 PCOD9561362
Probable space group: I -4 2 D
;
_chemical_formula_sum "Si O2"
_cell_formula_units_Z 96
_cell_length_a 15.461173
_cell_length_b 15.461173
_cell_length_c 18.442049
_cell_angle_alpha 90.000000
_cell_angle_beta 90.000000
_cell_angle_gamma 90.000000
_cell_volume 4408.532542
_symmetry_space_group_name_H-M "I -4 2 D"
_symmetry_group_IT_number 122
_symmetry_cell_setting 'tetragonal'
loop_
_space_group_symop_operation_xyz
x,y,z
y,-x,-z
-x,-y,z
-y,x,-z
x,1/2-y,1/4-z
-x,1/2+y,1/4-z
-y,1/2-x,1/4+z
y,1/2+x,1/4+z
1/2+x,1/2+y,1/2+z
1/2+y,1/2-x,1/2-z
1/2-x,1/2-y,1/2+z
1/2-y,1/2+x,1/2-z
1/2+x,-y,3/4-z
1/2-x,y,3/4-z
1/2-y,-x,3/4+z
1/2+y,x,3/4+z
loop_
_atom_site_type_symbol
_atom_site_label
_atom_site_fract_x
_atom_site_fract_y
_atom_site_fract_z
Si Si1 0.373199 0.522197 0.463526
Si Si2 0.873307 0.726022 0.984847
Si Si3 0.063631 0.236917 0.833283
Si Si4 0.385824 0.449506 0.025512
Si Si5 0.057787 0.922500 0.809939
Si Si6 0.312629 0.234999 0.209693
O O1 0.430882 0.591685 0.508707
O O2 0.275550 0.544161 0.481933
O O3 0.393883 0.536868 0.379664
O O4 0.873294 0.749313 0.900633
O O5 0.885763 0.625795 0.002826
O O6 0.786043 0.758058 0.023328
O O7 0.118413 0.218292 0.760862
O O8 0.009648 0.326965 0.826646
O O9 0.998816 0.156895 0.840759
O O10 0.326881 0.365208 0.016635
O O11 0.408335 0.518308 0.960676
O O12 0.000000 0.000000 0.779060
O O13 0.329893 0.250000 0.125000
#
# Coordination Sequence:
#
# PCOD9561362 Si02
#       6
#    16  16  16  16  16  16
#     4  11  21  43  72  93 142 186 232 301 357 435
#     4  12  25  43  73 101 143 187 238 296 364 422
#     4  11  24  46  68 103 146 185 244 300 347 440
#     4   9  20  44  67  94 137 185 237 288 345 413
#     4  12  24  44  64 108 141 184 241 294 364 434
#     4  11  24  45  71 104 142 187 236 296 362 427
#
# _framework density 21.775953000000001
#
# number of rings (size 3 to 8) (size 9 to 14) (size 15 to 20)
#    0.000    1.000    5.000    2.000    0.000    2.667 
#   21.000    3.333    0.000    0.000    0.000    0.000 
#    0.000    0.000    0.000    0.000    0.000    0.000 
#
# Total GULP energy -267780.917970 kJ/mol
# GULP energy per Si atom -5578.769124 kJ/mol
# Density = 2.172639 g / cm^3
# Si number density = 21.775953 Si / 1000 Ang^3
#
#
#
# Elastic Constant Matrix: (Units=GPa)
#
#
# Indices 1 2 3 4 5 6 
#
# 1 65.1850 8.4098 19.3229 0.0000 0.0000 0.0000
# 2 8.4098 65.1850 19.3229 0.0000 0.0000 0.0000
# 3 19.3229 19.3229 86.8612 0.0000 0.0000 0.0000
# 4 0.0000 0.0000 0.0000 26.2776 0.0000 0.0000
# 5 0.0000 0.0000 0.0000 0.0000 26.2776 0.0000
# 6 0.0000 0.0000 0.0000 0.0000 0.0000 26.0234
#
#
#
# Elastic Compliance Matrix: (Units=1/GPa)
#
#
# Indices 1 2 3 4 5 6 
#
# 1 0.016499 -0.001114 -0.003423 0.000000 0.000000 0.000000
# 2 -0.001114 0.016499 -0.003423 0.000000 0.000000 0.000000
# 3 -0.003423 -0.003423 0.013035 0.000000 0.000000 0.000000
# 4 0.000000 0.000000 0.000000 0.038055 0.000000 0.000000
# 5 0.000000 0.000000 0.000000 0.000000 0.038055 0.000000
# 6 0.000000 0.000000 0.000000 0.000000 0.000000 0.038427
#
#
# Mechanical properties :
#
#
# Convention : Reuss Voigt Hill
#
# Bulk Modulus (GPa) = 33.20549 34.59359 33.89954
# Shear Modulus (GPa) = 26.80562 27.06076 26.93319
#
# Velocity S-wave (km/s) = 3.51233 3.52901 3.52068
# Velocity P-wave (km/s) = 5.63297 5.70314 5.66817
#
# Compressibility (1/GPa) = 0.03011551
#
# Stress axis : x y z
#
# Youngs Moduli (GPa) = 60.60892 60.60891 76.71444
#
# Poissons Ratio (x) = 0.06752 0.26256
# Poissons Ratio (y) = 0.06752 0.26256
# Poissons Ratio (z) = 0.20744 0.20744
#
# Static dielectric constant tensor:
#      x y z
#    x 1.811040 0.000000 0.000000 
#    y 0.000000 1.811040 0.000000 
#    z 0.000000 0.000000 1.779480 
# 
# From -- ./inp_files/7293.got.cif
#   From: 2010.05.17/outbox.cif.g08.bks.cpg/sg122_4_cif.got.tgz:7293.got - 2010.05.20 11:37:33.
