data_PCOD9561536
_publ_section_title
;
Structure prediction by ZEFSAII (Michael W. Deem and Ramdas Pophale) SiO2 
 PCOD9561536
Probable space group: I -4 2 D
;
_chemical_formula_sum "Si O2"
_cell_formula_units_Z 24
_cell_length_a 7.057485
_cell_length_b 7.057485
_cell_length_c 25.462577
_cell_angle_alpha 90.000000
_cell_angle_beta 90.000000
_cell_angle_gamma 90.000000
_cell_volume 1268.242442
_symmetry_space_group_name_H-M "I -4 2 D"
_symmetry_group_IT_number 122
_symmetry_cell_setting 'tetragonal'
loop_
_space_group_symop_operation_xyz
x,y,z
y,-x,-z
-x,-y,z
-y,x,-z
x,1/2-y,1/4-z
-x,1/2+y,1/4-z
-y,1/2-x,1/4+z
y,1/2+x,1/4+z
1/2+x,1/2+y,1/2+z
1/2+y,1/2-x,1/2-z
1/2-x,1/2-y,1/2+z
1/2-y,1/2+x,1/2-z
1/2+x,-y,3/4-z
1/2-x,y,3/4-z
1/2-y,-x,3/4+z
1/2+y,x,3/4+z
loop_
_atom_site_type_symbol
_atom_site_label
_atom_site_fract_x
_atom_site_fract_y
_atom_site_fract_z
Si Si1 0.840733 0.158481 0.820170
Si Si2 0.500000 0.500000 0.000000
Si Si3 0.500000 0.500000 0.500000
O O1 0.750000 0.225052 0.875000
O O2 0.929656 0.329249 0.786910
O O3 0.500000 0.000000 0.919086
O O4 0.674954 0.064317 0.785822
#
# Coordination Sequence:
#
# PCOD9561536 Si02
#       3
#    16   4   4
#     4  12  26  44  72 104 138 183 231 284 344 408
#     4  12  28  44  72 110 140 172 236 296 332 406
#     4  12  24  44  72  98 136 180 236 280 340 410
#
# _framework density 18.923825999999998
#
# number of rings (size 3 to 8) (size 9 to 14) (size 15 to 20)
#    0.000    0.000   10.000    0.000    0.000    8.000 
#    0.000    0.000    0.000    0.000    0.000    0.000 
#    0.000    0.000    0.000    0.000    0.000    0.000 
#
# Total GULP energy -67158.758688 kJ/mol
# GULP energy per Si atom -5596.563224 kJ/mol
# Density = 1.888075 g / cm^3
# Si number density = 18.923826 Si / 1000 Ang^3
#
#
#
# Elastic Constant Matrix: (Units=GPa)
#
#
# Indices 1 2 3 4 5 6 
#
# 1 110.9717 53.1058 53.2008 0.0000 0.0000 0.0000
# 2 53.1058 110.9717 53.2008 0.0000 0.0000 0.0000
# 3 53.2008 53.2008 139.3400 0.0000 0.0000 0.0000
# 4 0.0000 0.0000 0.0000 23.4579 0.0000 0.0000
# 5 0.0000 0.0000 0.0000 0.0000 23.4579 0.0000
# 6 0.0000 0.0000 0.0000 0.0000 0.0000 45.3804
#
#
#
# Elastic Compliance Matrix: (Units=1/GPa)
#
#
# Indices 1 2 3 4 5 6 
#
# 1 0.012691 -0.004591 -0.003093 0.000000 0.000000 0.000000
# 2 -0.004591 0.012691 -0.003093 0.000000 0.000000 0.000000
# 3 -0.003093 -0.003093 0.009538 0.000000 0.000000 0.000000
# 4 0.000000 0.000000 0.000000 0.042630 0.000000 0.000000
# 5 0.000000 0.000000 0.000000 0.000000 0.042630 0.000000
# 6 0.000000 0.000000 0.000000 0.000000 0.000000 0.022036
#
#
# Mechanical properties :
#
#
# Convention : Reuss Voigt Hill
#
# Bulk Modulus (GPa) = 74.80579 75.58871 75.19725
# Shear Modulus (GPa) = 29.72246 31.91098 30.81672
#
# Velocity S-wave (km/s) = 3.96743 4.11090 4.03980
# Velocity P-wave (km/s) = 7.78480 7.90968 7.84749
#
# Compressibility (1/GPa) = 0.01336795
#
# Stress axis : x y z
#
# Youngs Moduli (GPa) = 78.79724 78.79724 104.84018
#
# Poissons Ratio (x) = 0.36172 0.32424
# Poissons Ratio (y) = 0.36172 0.32424
# Poissons Ratio (z) = 0.24370 0.24370
#
# Static dielectric constant tensor:
#      x y z
#    x 1.641320 0.000000 0.000000 
#    y 0.000000 1.641320 0.000000 
#    z 0.000000 0.000000 1.628520 
# 
# From -- ./inp_files/8894.got.cif
#   From: 2010.05.17/outbox.cif.g08.bks.cpg/sg122_5_cif.got.tgz:8894.got - 2010.05.20 11:37:33.
