data_PCOD9561632
_publ_section_title
;
Structure prediction by ZEFSAII (Michael W. Deem and Ramdas Pophale) SiO2 
 PCOD9561632
Probable space group: P 4/M M M
;
_chemical_formula_sum "Si O2"
_cell_formula_units_Z 72
_cell_length_a 23.644411
_cell_length_b 23.644411
_cell_length_c 9.161403
_cell_angle_alpha 90.000000
_cell_angle_beta 90.000000
_cell_angle_gamma 90.000000
_cell_volume 5121.757210
_symmetry_space_group_name_H-M "P 4/M M M"
_symmetry_group_IT_number 123
_symmetry_cell_setting 'tetragonal'
loop_
_space_group_symop_operation_xyz
x,y,z
-y,x,z
-x,-y,z
y,-x,z
x,-y,-z
-x,y,-z
y,x,-z
-y,-x,-z
-x,-y,-z
y,-x,-z
x,y,-z
-y,x,-z
-x,y,z
x,-y,z
-y,-x,z
y,x,z
loop_
_atom_site_type_symbol
_atom_site_label
_atom_site_fract_x
_atom_site_fract_y
_atom_site_fract_z
Si Si1 0.350632 0.649369 0.673198
Si Si2 0.500000 0.931771 0.163516
Si Si3 0.433973 0.268221 0.175548
Si Si4 0.168329 0.344962 0.169624
Si Si5 0.934780 0.384733 0.326417
Si Si6 0.731754 0.731754 0.167249
O O1 0.356957 0.643044 0.500000
O O2 0.406536 0.676952 0.746142
O O3 0.303676 0.696325 0.716036
O O4 0.555990 0.917753 0.251783
O O5 0.500000 0.000000 0.152226
O O6 0.500000 0.907515 0.000000
O O7 0.500000 0.260094 0.213173
O O8 0.395013 0.213165 0.210843
O O9 0.429887 0.275486 0.000000
O O10 0.112738 0.343295 0.266547
O O11 0.204129 0.287345 0.180756
O O12 0.152937 0.354455 0.000000
O O13 0.932798 0.389915 0.500000
O O14 0.000000 0.371859 0.285097
O O15 0.714218 0.714218 0.000000
#
# Coordination Sequence:
#
# PCOD9561632 Si02
#       6
#     8   8  16  16  16   8
#     4  10  18  28  44  65  87 106 126 160 204 249
#     4   9  17  29  43  55  71 103 145 179 204 237
#     4   9  18  32  48  64  82 106 134 165 204 250
#     4   9  17  29  47  66  83 106 140 175 206 244
#     4  10  20  31  41  58  86 115 140 170 210 248
#     4   8  16  32  48  62  81 107 136 171 211 248
#
# _framework density 14.057675
#
# number of rings (size 3 to 8) (size 9 to 14) (size 15 to 20)
#    0.000    2.778    0.000    3.333    1.556    6.667 
#    0.000    0.000    0.000    0.333    0.000    2.333 
#    0.000    0.000    0.000    0.000    0.000    0.556 
#
# Total GULP energy -400829.265417 kJ/mol
# GULP energy per Si atom -5567.073131 kJ/mol
# Density = 1.402568 g / cm^3
# Si number density = 14.057675 Si / 1000 Ang^3
#
#
#
# Elastic Constant Matrix: (Units=GPa)
#
#
# Indices 1 2 3 4 5 6 
#
# 1 66.3310 34.0587 32.6375 0.0000 0.0000 0.0000
# 2 34.0587 66.3310 32.6377 0.0000 0.0000 0.0000
# 3 32.6375 32.6377 52.1724 0.0000 0.0000 0.0000
# 4 0.0000 0.0000 0.0000 17.3197 0.0000 0.0000
# 5 0.0000 0.0000 0.0000 0.0000 17.3199 0.0000
# 6 0.0000 0.0000 0.0000 0.0000 0.0000 14.4669
#
#
#
# Elastic Compliance Matrix: (Units=1/GPa)
#
#
# Indices 1 2 3 4 5 6 
#
# 1 0.023889 -0.007098 -0.010504 0.000000 0.000000 0.000000
# 2 -0.007098 0.023889 -0.010504 0.000000 0.000000 0.000000
# 3 -0.010504 -0.010504 0.032309 0.000000 0.000000 0.000000
# 4 0.000000 0.000000 0.000000 0.057738 0.000000 0.000000
# 5 0.000000 0.000000 0.000000 0.000000 0.057737 0.000000
# 6 0.000000 0.000000 0.000000 0.000000 0.000000 0.069123
#
#
# Mechanical properties :
#
#
# Convention : Reuss Voigt Hill
#
# Bulk Modulus (GPa) = 41.88425 42.61134 42.24779
# Shear Modulus (GPa) = 15.20430 15.52135 15.36282
#
# Velocity S-wave (km/s) = 3.29228 3.32643 3.30940
# Velocity P-wave (km/s) = 6.65668 6.71797 6.68740
#
# Compressibility (1/GPa) = 0.02387532
#
# Stress axis : x y z
#
# Youngs Moduli (GPa) = 41.86090 41.86070 30.95089
#
# Poissons Ratio (x) = 0.29711 0.32511
# Poissons Ratio (y) = 0.29711 0.32511
# Poissons Ratio (z) = 0.43970 0.43971
#
# Static dielectric constant tensor:
#      x y z
#    x 1.478290 0.000000 0.000000 
#    y 0.000000 1.478290 0.000000 
#    z 0.000000 0.000000 1.474700 
# 
# From -- ./inp_files/1383.got.cif
#   From: 2010.05.17/outbox.cif.g08.bks.cpg/sg123_1_cif.got.tgz:1383.got - 2010.05.20 11:43:04.
