data_PCOD9561748
_publ_section_title
;
Structure prediction by ZEFSAII (Michael W. Deem and Ramdas Pophale) SiO2 
 PCOD9561748
Probable space group: P 4/M M M
;
_chemical_formula_sum "Si O2"
_cell_formula_units_Z 96
_cell_length_a 21.103084
_cell_length_b 21.103084
_cell_length_c 13.090690
_cell_angle_alpha 90.000000
_cell_angle_beta 90.000000
_cell_angle_gamma 90.000000
_cell_volume 5829.809905
_symmetry_space_group_name_H-M "P 4/M M M"
_symmetry_group_IT_number 123
_symmetry_cell_setting 'tetragonal'
loop_
_space_group_symop_operation_xyz
x,y,z
-y,x,z
-x,-y,z
y,-x,z
x,-y,-z
-x,y,-z
y,x,-z
-y,-x,-z
-x,-y,-z
y,-x,-z
x,y,-z
-y,x,-z
-x,y,z
x,-y,z
-y,-x,z
y,x,z
loop_
_atom_site_type_symbol
_atom_site_label
_atom_site_fract_x
_atom_site_fract_y
_atom_site_fract_z
Si Si1 0.428233 0.674622 0.876441
Si Si2 0.071847 0.425105 0.825206
Si Si3 0.354631 0.802422 0.115865
Si Si4 0.073235 0.643397 0.614456
Si Si5 0.820792 0.925693 0.884899
Si Si6 0.255287 0.154427 0.275644
O O1 0.500000 0.666223 0.838392
O O2 0.378447 0.621553 0.839746
O O3 0.401866 0.745090 0.856608
O O4 0.430382 0.669226 0.000000
O O5 0.076711 0.500000 0.841868
O O6 0.129393 0.389302 0.879344
O O7 0.079170 0.407802 0.705053
O O8 0.000000 0.405018 0.855298
O O9 0.299646 0.805652 0.199011
O O10 0.331690 0.791187 0.000000
O O11 0.084980 0.619178 0.500000
O O12 0.120282 0.700536 0.642197
O O13 0.000000 0.665658 0.618550
O O14 0.885222 0.885222 0.878621
O O15 0.775177 0.898711 0.798191
O O16 0.831670 0.000000 0.872862
O O17 0.794471 0.914851 0.000000
O O18 0.199702 0.199702 0.315868
#
# Coordination Sequence:
#
# PCOD9561748 Si02
#       6
#    16  16  16  16  16  16
#     4   9  17  28  42  60  82 111 147 184 221 260
#     4   9  18  31  46  66  90 116 149 184 217 258
#     4  10  19  30  44  63  91 124 153 182 218 261
#     4   9  18  32  48  65  85 109 139 179 226 271
#     4   9  17  28  42  61  85 113 145 181 220 262
#     4  10  19  30  45  64  86 113 146 182 219 263
#
# _framework density 16.467089000000001
#
# number of rings (size 3 to 8) (size 9 to 14) (size 15 to 20)
#    0.000    2.667    0.000    2.000    0.000    4.667 
#    0.000    4.167    0.000    0.000    0.000    0.000 
#    0.000    0.000    0.000   15.500    0.000    3.167 
#
# Total GULP energy -534923.807040 kJ/mol
# GULP energy per Si atom -5572.122990 kJ/mol
# Density = 1.642961 g / cm^3
# Si number density = 16.467089 Si / 1000 Ang^3
#
#
#
# Elastic Constant Matrix: (Units=GPa)
#
#
# Indices 1 2 3 4 5 6 
#
# 1 59.5983 18.3188 0.0679 0.0000 0.0000 0.0000
# 2 18.3188 59.5983 0.0679 0.0000 0.0000 0.0000
# 3 0.0679 0.0679 32.4520 0.0000 0.0000 0.0000
# 4 0.0000 0.0000 0.0000 5.6716 0.0000 0.0000
# 5 0.0000 0.0000 0.0000 0.0000 5.6716 0.0000
# 6 0.0000 0.0000 0.0000 0.0000 0.0000 18.4816
#
#
#
# Elastic Compliance Matrix: (Units=1/GPa)
#
#
# Indices 1 2 3 4 5 6 
#
# 1 0.018530 -0.005695 -0.000027 0.000000 0.000000 0.000000
# 2 -0.005695 0.018530 -0.000027 0.000000 0.000000 0.000000
# 3 -0.000027 -0.000027 0.030815 0.000000 0.000000 0.000000
# 4 0.000000 0.000000 0.000000 0.176316 0.000000 0.000000
# 5 0.000000 0.000000 0.000000 0.000000 0.176316 0.000000
# 6 0.000000 0.000000 0.000000 0.000000 0.000000 0.054108
#
#
# Mechanical properties :
#
#
# Convention : Reuss Voigt Hill
#
# Bulk Modulus (GPa) = 17.73811 20.95088 19.34449
# Shear Modulus (GPa) = 9.90288 14.84458 12.37373
#
# Velocity S-wave (km/s) = 2.45495 3.00571 2.74418
# Velocity P-wave (km/s) = 4.33947 4.97958 4.67050
#
# Compressibility (1/GPa) = 0.05637581
#
# Stress axis : x y z
#
# Youngs Moduli (GPa) = 53.96761 53.96761 32.45189
#
# Poissons Ratio (x) = 0.30737 0.00087
# Poissons Ratio (y) = 0.30737 0.00087
# Poissons Ratio (z) = 0.00145 0.00145
#
# Static dielectric constant tensor:
#      x y z
#    x 1.555460 0.000000 0.000000 
#    y 0.000000 1.555460 0.000000 
#    z 0.000000 0.000000 1.544460 
# 
# From -- ./inp_files/3134.got.cif
#   From: 2010.05.17/outbox.cif.g08.bks.cpg/sg123_2_cif.got.tgz:3134.got - 2010.05.20 11:43:04.
