data_PCOD9561695
_publ_section_title
;
Structure prediction by ZEFSAII (Michael W. Deem and Ramdas Pophale) SiO2 
 PCOD9561695
Probable space group: P 4/M M M
;
_chemical_formula_sum "Si O2"
_cell_formula_units_Z 72
_cell_length_a 20.952122
_cell_length_b 20.952122
_cell_length_c 7.548908
_cell_angle_alpha 90.000000
_cell_angle_beta 90.000000
_cell_angle_gamma 90.000000
_cell_volume 3313.905814
_symmetry_space_group_name_H-M "P 4/M M M"
_symmetry_group_IT_number 123
_symmetry_cell_setting 'tetragonal'
loop_
_space_group_symop_operation_xyz
x,y,z
-y,x,z
-x,-y,z
y,-x,z
x,-y,-z
-x,y,-z
y,x,-z
-y,-x,-z
-x,-y,-z
y,-x,-z
x,y,-z
-y,x,-z
-x,y,z
x,-y,z
-y,-x,z
y,x,z
loop_
_atom_site_type_symbol
_atom_site_label
_atom_site_fract_x
_atom_site_fract_y
_atom_site_fract_z
Si Si1 0.569764 0.813786 0.795739
Si Si2 0.898400 0.324110 0.703894
Si Si3 0.332814 0.568145 0.286164
Si Si4 0.819893 0.074613 0.716374
Si Si5 0.000000 0.573070 0.283072
O O1 0.500000 0.836939 0.719299
O O2 0.637704 0.832468 0.711032
O O3 0.567750 0.738055 0.785410
O O4 0.571025 0.833127 0.000000
O O5 0.918289 0.316334 0.500000
O O6 0.905084 0.252269 0.776522
O O7 0.942075 0.381715 0.775910
O O8 0.328092 0.572285 0.500000
O O9 0.363562 0.500000 0.244058
O O10 0.373963 0.626038 0.218975
O O11 0.820825 0.076366 0.500000
O O12 0.874861 0.125140 0.773901
O O13 0.830623 0.000000 0.766990
O O14 0.000000 0.500000 0.219963
O O15 0.000000 0.569331 0.500000
#
# Coordination Sequence:
#
# PCOD9561695 Si02
#       5
#    16  16  16  16   8
#     4  10  21  35  50  72 105 143 179 215 259 313
#     4  10  18  31  51  75 103 135 176 220 259 305
#     4   9  18  33  53  76 101 131 170 216 264 313
#     4   9  17  30  49  75 106 137 170 213 264 318
#     4   9  16  26  45  71  96 128 170 213 257 303
#
# _framework density 21.72663
#
# number of rings (size 3 to 8) (size 9 to 14) (size 15 to 20)
#    0.000    2.556    1.111    1.333    0.000    4.000 
#    0.000    5.000    0.000    2.000    0.000    3.111 
#    0.000    0.000    0.000    2.000    0.000    2.222 
#
# Total GULP energy -400807.518770 kJ/mol
# GULP energy per Si atom -5566.771094 kJ/mol
# Density = 2.167718 g / cm^3
# Si number density = 21.726630 Si / 1000 Ang^3
#
#
#
# Elastic Constant Matrix: (Units=GPa)
#
#
# Indices 1 2 3 4 5 6 
#
# 1 155.5885 107.2492 10.4559 0.0000 0.0000 0.0000
# 2 107.2492 155.5885 10.4559 0.0000 0.0000 0.0000
# 3 10.4559 10.4559 52.8493 0.0000 0.0000 0.0000
# 4 0.0000 0.0000 0.0000 -23.3532 0.0000 0.0000
# 5 0.0000 0.0000 0.0000 0.0000 -23.3532 0.0000
# 6 0.0000 0.0000 0.0000 0.0000 0.0000 35.4462
#
#
#
# Elastic Compliance Matrix: (Units=1/GPa)
#
#
# Indices 1 2 3 4 5 6 
#
# 1 0.012276 -0.008411 -0.000765 0.000000 0.000000 0.000000
# 2 -0.008411 0.012276 -0.000765 0.000000 0.000000 0.000000
# 3 -0.000765 -0.000765 0.019224 0.000000 0.000000 0.000000
# 4 0.000000 0.000000 0.000000 -0.042821 0.000000 0.000000
# 5 0.000000 0.000000 0.000000 0.000000 -0.042821 0.000000
# 6 0.000000 0.000000 0.000000 0.000000 0.000000 0.028212
#
#
# Mechanical properties :
#
#
# Convention : Reuss Voigt Hill
#
# Bulk Modulus (GPa) = 41.84754 68.92755 55.38754
# Shear Modulus (GPa) = 352.27339 13.47230 182.87285
#
# Velocity S-wave (km/s) = 12.74720 2.49285 9.18437
# Velocity P-wave (km/s) = 15.36091 6.33084 11.74813
#
# Compressibility (1/GPa) = 0.02389627
#
# Stress axis : x y z
#
# Youngs Moduli (GPa) = 81.45786 81.45786 52.01737
#
# Poissons Ratio (x) = 0.68513 0.03978
# Poissons Ratio (y) = 0.68513 0.03978
# Poissons Ratio (z) = 0.06230 0.06230
#
# Static dielectric constant tensor:
#      x y z
#    x 1.891420 0.000000 0.000000 
#    y 0.000000 1.891420 0.000000 
#    z 0.000000 0.000000 1.847860 
# 
# From -- ./inp_files/1110.got.cif
#   From: 2010.05.17/outbox.cif.g08.bks.cpg/sg123_1_cif.got.tgz:1110.got - 2010.05.20 11:43:04.
