data_PCOD9561001
_publ_section_title
;
Structure prediction by ZEFSAII (Michael W. Deem and Ramdas Pophale) SiO2 
 PCOD9561001
Probable space group: I -4 2 D
;
_chemical_formula_sum "Si O2"
_cell_formula_units_Z 96
_cell_length_a 14.949682
_cell_length_b 14.949682
_cell_length_c 22.716799
_cell_angle_alpha 90.000000
_cell_angle_beta 90.000000
_cell_angle_gamma 90.000000
_cell_volume 5077.045375
_symmetry_space_group_name_H-M "I -4 2 D"
_symmetry_group_IT_number 122
_symmetry_cell_setting 'tetragonal'
loop_
_space_group_symop_operation_xyz
x,y,z
y,-x,-z
-x,-y,z
-y,x,-z
x,1/2-y,1/4-z
-x,1/2+y,1/4-z
-y,1/2-x,1/4+z
y,1/2+x,1/4+z
1/2+x,1/2+y,1/2+z
1/2+y,1/2-x,1/2-z
1/2-x,1/2-y,1/2+z
1/2-y,1/2+x,1/2-z
1/2+x,-y,3/4-z
1/2-x,y,3/4-z
1/2-y,-x,3/4+z
1/2+y,x,3/4+z
loop_
_atom_site_type_symbol
_atom_site_label
_atom_site_fract_x
_atom_site_fract_y
_atom_site_fract_z
Si Si1 0.880544 0.848268 0.176576
Si Si2 0.350061 0.595301 0.857577
Si Si3 0.792492 0.667903 0.195687
Si Si4 0.785260 0.915531 0.809797
Si Si5 0.533502 0.834775 0.987480
Si Si6 0.373963 0.540260 0.981196
O O1 0.811919 0.773741 0.202265
O O2 0.863310 0.857296 0.105902
O O3 0.979130 0.810454 0.190580
O O4 0.861897 0.943611 0.205022
O O5 0.250000 0.565325 0.875000
O O6 0.345405 0.696262 0.834594
O O7 0.380599 0.537902 0.802066
O O8 0.397121 0.588182 0.919530
O O9 0.783241 0.615193 0.257496
O O10 0.750000 0.894364 0.875000
O O11 0.878110 0.864845 0.796984
O O12 0.541534 0.728559 0.999431
O O13 0.438835 0.592365 0.025439
#
# Coordination Sequence:
#
# PCOD9561001 Si02
#       6
#    16  16  16  16  16  16
#     4  11  21  44  67  93 130 182 221 279 350 406
#     4   9  17  37  59  87 121 165 205 248 317 397
#     4  10  21  39  73  85 122 187 217 262 351 417
#     4  11  24  44  64 100 133 165 236 289 335 414
#     4  10  23  38  66  93 131 168 218 276 325 403
#     4  10  21  38  60  96 133 163 209 261 318 395
#
# _framework density 18.908636000000001
#
# number of rings (size 3 to 8) (size 9 to 14) (size 15 to 20)
#    0.000    1.833    3.333    1.500    4.667    1.333 
#   18.000    0.000    0.000    0.000    0.000    0.000 
#    0.000    0.000    0.000    0.000    0.000    0.000 
#
# Total GULP energy -267399.613554 kJ/mol
# GULP energy per Si atom -5570.825282 kJ/mol
# Density = 1.886560 g / cm^3
# Si number density = 18.908636 Si / 1000 Ang^3
#
#
#
# Elastic Constant Matrix: (Units=GPa)
#
#
# Indices 1 2 3 4 5 6 
#
# 1 89.5126 15.2004 48.2318 0.0000 0.0000 0.0000
# 2 15.2004 89.5126 48.2318 0.0000 0.0000 0.0000
# 3 48.2318 48.2318 128.8581 0.0000 0.0000 0.0000
# 4 0.0000 0.0000 0.0000 21.7149 0.0000 0.0000
# 5 0.0000 0.0000 0.0000 0.0000 21.7149 0.0000
# 6 0.0000 0.0000 0.0000 0.0000 0.0000 25.9263
#
#
#
# Elastic Compliance Matrix: (Units=1/GPa)
#
#
# Indices 1 2 3 4 5 6 
#
# 1 0.014016 0.000560 -0.005456 0.000000 0.000000 0.000000
# 2 0.000560 0.014016 -0.005456 0.000000 0.000000 0.000000
# 3 -0.005456 -0.005456 0.011845 0.000000 0.000000 0.000000
# 4 0.000000 0.000000 0.000000 0.046051 0.000000 0.000000
# 5 0.000000 0.000000 0.000000 0.000000 0.046051 0.000000
# 6 0.000000 0.000000 0.000000 0.000000 0.000000 0.038571
#
#
# Mechanical properties :
#
#
# Convention : Reuss Voigt Hill
#
# Bulk Modulus (GPa) = 52.15577 59.02350 55.58963
# Shear Modulus (GPa) = 25.29776 26.95250 26.12513
#
# Velocity S-wave (km/s) = 3.66169 3.77955 3.72109
# Velocity P-wave (km/s) = 6.74687 7.09433 6.92278
#
# Compressibility (1/GPa) = 0.01917333
#
# Stress axis : x y z
#
# Youngs Moduli (GPa) = 71.34543 71.34543 84.42597
#
# Poissons Ratio (x) = -0.03992 0.46061
# Poissons Ratio (y) = -0.03992 0.46061
# Poissons Ratio (z) = 0.38925 0.38925
#
# Static dielectric constant tensor:
#      x y z
#    x 1.673000 0.000000 0.000000 
#    y 0.000000 1.673000 0.000000 
#    z 0.000000 0.000000 1.736260 
# 
# From -- ./inp_files/7314.got.cif
#   From: 2010.05.17/outbox.cif.g08.bks.cpg/sg122_4_cif.got.tgz:7314.got - 2010.05.20 11:37:33.
