data_PCOD9561364
_publ_section_title
;
Structure prediction by ZEFSAII (Michael W. Deem and Ramdas Pophale) SiO2 
 PCOD9561364
Probable space group: I -4 2 D
;
_chemical_formula_sum "Si O2"
_cell_formula_units_Z 64
_cell_length_a 17.002890
_cell_length_b 17.002890
_cell_length_c 10.304193
_cell_angle_alpha 90.000000
_cell_angle_beta 90.000000
_cell_angle_gamma 90.000000
_cell_volume 2978.924353
_symmetry_space_group_name_H-M "I -4 2 D"
_symmetry_group_IT_number 122
_symmetry_cell_setting 'tetragonal'
loop_
_space_group_symop_operation_xyz
x,y,z
y,-x,-z
-x,-y,z
-y,x,-z
x,1/2-y,1/4-z
-x,1/2+y,1/4-z
-y,1/2-x,1/4+z
y,1/2+x,1/4+z
1/2+x,1/2+y,1/2+z
1/2+y,1/2-x,1/2-z
1/2-x,1/2-y,1/2+z
1/2-y,1/2+x,1/2-z
1/2+x,-y,3/4-z
1/2-x,y,3/4-z
1/2-y,-x,3/4+z
1/2+y,x,3/4+z
loop_
_atom_site_type_symbol
_atom_site_label
_atom_site_fract_x
_atom_site_fract_y
_atom_site_fract_z
Si Si1 0.994651 0.119678 0.462922
Si Si2 0.250000 0.923281 0.375000
Si Si3 0.250000 0.587056 0.375000
Si Si4 0.980251 0.094915 0.170240
Si Si5 0.157561 0.319257 0.372884
O O1 0.020044 0.196050 0.537962
O O2 0.933381 0.072505 0.550310
O O3 0.960819 0.118112 0.319663
O O4 0.289049 0.869871 0.486140
O O5 0.167817 0.538246 0.384859
O O6 0.258669 0.636606 0.507733
O O7 0.899684 0.110492 0.094772
O O8 0.000000 0.000000 0.161673
O O9 0.250000 0.335325 0.375000
#
# Coordination Sequence:
#
# PCOD9561364 Si02
#       5
#    16   8   8  16  16
#     4  11  21  44  70 104 139 183 251 304 365 459
#     4  12  23  44  72 101 140 196 238 307 382 444
#     4  12  29  48  74 115 148 200 260 313 400 472
#     4  12  25  46  77 108 150 200 254 320 386 467
#     4  12  27  48  70 105 154 195 251 318 385 461
#
# _framework density 21.484265000000001
#
# number of rings (size 3 to 8) (size 9 to 14) (size 15 to 20)
#    0.000    0.250    8.750    0.750    3.500    0.000 
#    6.750    0.000    0.000    0.000    0.000    0.000 
#    0.000    0.000    0.000    0.000    0.000    0.000 
#
# Total GULP energy -178404.734164 kJ/mol
# GULP energy per Si atom -5575.147943 kJ/mol
# Density = 2.143537 g / cm^3
# Si number density = 21.484265 Si / 1000 Ang^3
#
#
#
# Elastic Constant Matrix: (Units=GPa)
#
#
# Indices 1 2 3 4 5 6 
#
# 1 109.7919 80.3642 41.7609 0.0000 0.0000 0.0000
# 2 80.3642 109.7919 41.7609 0.0000 0.0000 0.0000
# 3 41.7609 41.7609 113.0897 0.0000 0.0000 0.0000
# 4 0.0000 0.0000 0.0000 -10.3723 0.0000 0.0000
# 5 0.0000 0.0000 0.0000 0.0000 -10.3723 0.0000
# 6 0.0000 0.0000 0.0000 0.0000 0.0000 -11.6053
#
#
#
# Elastic Compliance Matrix: (Units=1/GPa)
#
#
# Indices 1 2 3 4 5 6 
#
# 1 0.020129 -0.013852 -0.002318 0.000000 0.000000 0.000000
# 2 -0.013852 0.020129 -0.002318 0.000000 0.000000 0.000000
# 3 -0.002318 -0.002318 0.010554 0.000000 0.000000 0.000000
# 4 0.000000 0.000000 0.000000 -0.096411 0.000000 0.000000
# 5 0.000000 0.000000 0.000000 0.000000 -0.096411 0.000000
# 6 0.000000 0.000000 0.000000 0.000000 0.000000 -0.086167
#
#
# Mechanical properties :
#
#
# Convention : Reuss Voigt Hill
#
# Bulk Modulus (GPa) = 72.27171 73.38284 72.82727
# Shear Modulus (GPa) = -26.79711 4.78252 -11.00729
#
# Velocity S-wave (km/s) = -3.53553 1.49362 -2.26595
# Velocity P-wave (km/s) = 4.12865 6.09961 5.20821
#
# Compressibility (1/GPa) = 0.01383667
#
# Stress axis : x y z
#
# Youngs Moduli (GPa) = 49.67905 49.67905 94.74716
#
# Poissons Ratio (x) = 0.68817 0.21961
# Poissons Ratio (y) = 0.68817 0.21961
# Poissons Ratio (z) = 0.11515 0.11515
#
# Static dielectric constant tensor:
#      x y z
#    x 1.817660 0.000000 0.000000 
#    y 0.000000 1.817660 0.000000 
#    z 0.000000 0.000000 1.914120 
# 
# From -- ./inp_files/4104.got.cif
#   From: 2010.05.17/outbox.cif.g08.bks.cpg/sg122_3_cif.got.tgz:4104.got - 2010.05.20 11:37:33.
