data_PCOD9561041
_publ_section_title
;
Structure prediction by ZEFSAII (Michael W. Deem and Ramdas Pophale) SiO2 
 PCOD9561041
Probable space group: I -4 2 D
;
_chemical_formula_sum "Si O2"
_cell_formula_units_Z 116
_cell_length_a 18.803088
_cell_length_b 18.803088
_cell_length_c 17.559497
_cell_angle_alpha 90.000000
_cell_angle_beta 90.000000
_cell_angle_gamma 90.000000
_cell_volume 6208.267599
_symmetry_space_group_name_H-M "I -4 2 D"
_symmetry_group_IT_number 122
_symmetry_cell_setting 'tetragonal'
loop_
_space_group_symop_operation_xyz
x,y,z
y,-x,-z
-x,-y,z
-y,x,-z
x,1/2-y,1/4-z
-x,1/2+y,1/4-z
-y,1/2-x,1/4+z
y,1/2+x,1/4+z
1/2+x,1/2+y,1/2+z
1/2+y,1/2-x,1/2-z
1/2-x,1/2-y,1/2+z
1/2-y,1/2+x,1/2-z
1/2+x,-y,3/4-z
1/2-x,y,3/4-z
1/2-y,-x,3/4+z
1/2+y,x,3/4+z
loop_
_atom_site_type_symbol
_atom_site_label
_atom_site_fract_x
_atom_site_fract_y
_atom_site_fract_z
Si Si1 0.245595 0.432269 0.163380
Si Si2 0.622274 0.825715 0.085794
Si Si3 0.000000 0.500000 0.250000
Si Si4 0.859397 0.820757 0.086620
Si Si5 0.824916 0.825459 0.907629
Si Si6 0.064879 0.244583 0.442048
Si Si7 0.398823 0.941467 0.269180
Si Si8 0.342069 0.479239 0.438344
O O1 0.309492 0.376494 0.182340
O O2 0.180524 0.387452 0.128567
O O3 0.264896 0.489352 0.099425
O O4 0.210342 0.468804 0.238461
O O5 0.644711 0.750000 0.125000
O O6 0.576249 0.872605 0.145294
O O7 0.575629 0.798347 0.013844
O O8 0.074067 0.480228 0.291098
O O9 0.832932 0.750000 0.125000
O O10 0.943800 0.826470 0.095177
O O11 0.836929 0.821711 0.998044
O O12 0.750000 0.800674 0.875000
O O13 0.884704 0.778282 0.870557
O O14 0.831462 0.909285 0.887702
O O15 0.087402 0.166365 0.468942
O O16 0.474252 0.907485 0.246556
#
# Coordination Sequence:
#
# PCOD9561041 Si02
#       8
#    16  16   4  16  16  16  16  16
#     4  11  20  39  61  88 126 165 209 262 310 382
#     4  10  22  39  66  96 125 165 216 262 328 388
#     4  12  16  36  60  84 116 160 200 252 314 384
#     4  11  23  38  59  89 123 164 211 254 311 380
#     4  11  23  41  62  91 127 170 209 258 319 380
#     4  11  21  40  65  95 125 165 214 263 319 383
#     4  10  21  42  68  91 124 167 207 266 325 379
#     4  11  21  37  63  85 123 165 208 249 312 384
#
# _framework density 18.684761999999999
#
# number of rings (size 3 to 8) (size 9 to 14) (size 15 to 20)
#    0.000    1.241    5.517    2.483    0.000    1.103 
#    2.483    0.690    3.034    0.000    0.000    0.000 
#    0.000    0.000    0.000    0.000    0.000    0.000 
#
# Total GULP energy -323193.251204 kJ/mol
# GULP energy per Si atom -5572.297435 kJ/mol
# Density = 1.864223 g / cm^3
# Si number density = 18.684762 Si / 1000 Ang^3
#
#
#
# Elastic Constant Matrix: (Units=GPa)
#
#
# Indices 1 2 3 4 5 6 
#
# 1 95.3876 19.9375 20.2504 0.0000 0.0000 0.0000
# 2 19.9375 95.3876 20.2504 0.0000 0.0000 0.0000
# 3 20.2504 20.2504 38.8475 0.0000 0.0000 0.0000
# 4 0.0000 0.0000 0.0000 25.4164 0.0000 0.0000
# 5 0.0000 0.0000 0.0000 0.0000 25.4164 0.0000
# 6 0.0000 0.0000 0.0000 0.0000 0.0000 24.4364
#
#
#
# Elastic Compliance Matrix: (Units=1/GPa)
#
#
# Indices 1 2 3 4 5 6 
#
# 1 0.011934 -0.001320 -0.005533 0.000000 0.000000 0.000000
# 2 -0.001320 0.011934 -0.005533 0.000000 0.000000 0.000000
# 3 -0.005533 -0.005533 0.031510 0.000000 0.000000 0.000000
# 4 0.000000 0.000000 0.000000 0.039345 0.000000 0.000000
# 5 0.000000 0.000000 0.000000 0.000000 0.039345 0.000000
# 6 0.000000 0.000000 0.000000 0.000000 0.000000 0.040923
#
#
# Mechanical properties :
#
#
# Convention : Reuss Voigt Hill
#
# Bulk Modulus (GPa) = 32.67262 38.94438 35.80850
# Shear Modulus (GPa) = 23.81364 26.33281 25.07322
#
# Velocity S-wave (km/s) = 3.57388 3.75816 3.66718
# Velocity P-wave (km/s) = 5.87830 6.30237 6.09402
#
# Compressibility (1/GPa) = 0.03060667
#
# Stress axis : x y z
#
# Youngs Moduli (GPa) = 83.79397 83.79397 31.73583
#
# Poissons Ratio (x) = 0.11059 0.17559
# Poissons Ratio (y) = 0.11059 0.17559
# Poissons Ratio (z) = 0.46363 0.46363
#
# Static dielectric constant tensor:
#      x y z
#    x 1.622500 0.000000 0.000000 
#    y 0.000000 1.622500 0.000000 
#    z 0.000000 0.000000 1.717280 
# 
# From -- ./inp_files/6447.got.cif
#   From: 2010.05.17/outbox.cif.g08.bks.cpg/sg122_4_cif.got.tgz:6447.got - 2010.05.20 11:37:33.
