data_PCOD9561584
_publ_section_title
;
Structure prediction by ZEFSAII (Michael W. Deem and Ramdas Pophale) SiO2 
 PCOD9561584
Probable space group: I -4 2 D
;
_chemical_formula_sum "Si O2"
_cell_formula_units_Z 44
_cell_length_a 12.000000
_cell_length_b 12.000000
_cell_length_c 30.000000
_cell_angle_alpha 90.000000
_cell_angle_beta 90.000000
_cell_angle_gamma 90.000000
_cell_volume 4320.000000
_symmetry_space_group_name_H-M "I -4 2 D"
_symmetry_group_IT_number 122
_symmetry_cell_setting 'tetragonal'
loop_
_space_group_symop_operation_xyz
x,y,z
y,-x,-z
-x,-y,z
-y,x,-z
x,1/2-y,1/4-z
-x,1/2+y,1/4-z
-y,1/2-x,1/4+z
y,1/2+x,1/4+z
1/2+x,1/2+y,1/2+z
1/2+y,1/2-x,1/2-z
1/2-x,1/2-y,1/2+z
1/2-y,1/2+x,1/2-z
1/2+x,-y,3/4-z
1/2-x,y,3/4-z
1/2-y,-x,3/4+z
1/2+y,x,3/4+z
loop_
_atom_site_type_symbol
_atom_site_label
_atom_site_fract_x
_atom_site_fract_y
_atom_site_fract_z
Si Si1 0.815026 0.250252 0.332038
Si Si2 0.630206 0.490385 0.439862
Si Si3 0.250000 0.162639 0.875000
Si Si4 0.777671 0.880396 0.239652
Si Si5 0.118519 0.256296 0.452461
Si Si6 0.976515 0.182234 0.258796
O O1 0.750000 0.203646 0.375000
O O2 0.851847 0.377915 0.338903
O O3 0.720352 0.263240 0.294756
O O4 0.920058 0.191499 0.307601
O O5 0.500000 0.500000 0.446380
O O6 0.683480 0.588545 0.410722
O O7 0.698018 0.490750 0.486640
O O8 0.155535 0.228786 0.848262
O O9 0.697446 0.841311 0.279127
O O10 0.907475 0.884984 0.255072
O O11 0.737364 0.991100 0.215029
O O12 0.140976 0.375705 0.477168
#
# Coordination Sequence:
#
# PCOD9561584 Si02
#       6
#    16  16   8  16  16  16
#     4  10  21  34  53  89 124 164 205 259 318 389
#     4  10  21  30  52  86 129 167 198 246 328 391
#     4  10  22  36  54  96 126 168 214 270 320 382
#     4  10  22  40  62  88 123 167 212 265 320 388
#     4  10  22  39  63  91 125 166 218 258 325 383
#     4   9  21  37  56  88 125 166 207 253 320 402
#
# _framework density 10.185185000000001
#
# number of rings (size 3 to 8) (size 9 to 14) (size 15 to 20)
#    0.000    2.182    0.909    0.545   12.727    0.364 
#    0.000    0.000    8.000    0.000    0.000    0.000 
#    0.000    0.000    0.000    0.000    0.000    0.000 
#
# Total GULP energy -245297.934707 kJ/mol
# GULP energy per Si atom -5574.953062 kJ/mol
# Density = 1.016200 g / cm^3
# Si number density = 10.185185 Si / 1000 Ang^3
#
#
#
# Elastic Constant Matrix: (Units=GPa)
#
#
# Indices 1 2 3 4 5 6 
#
# 1 78.0488 11.3320 21.1111 0.0000 0.0000 0.0000
# 2 11.3320 78.0488 21.1111 0.0000 0.0000 0.0000
# 3 21.1111 21.1111 94.6979 0.0000 0.0000 0.0000
# 4 0.0000 0.0000 0.0000 23.1588 0.0000 0.0000
# 5 0.0000 0.0000 0.0000 0.0000 23.1588 0.0000
# 6 0.0000 0.0000 0.0000 0.0000 0.0000 -60.6392
#
#
#
# Elastic Compliance Matrix: (Units=1/GPa)
#
#
# Indices 1 2 3 4 5 6 
#
# 1 0.013747 -0.001242 -0.002788 0.000000 0.000000 0.000000
# 2 -0.001242 0.013747 -0.002788 0.000000 0.000000 0.000000
# 3 -0.002788 -0.002788 0.011803 0.000000 0.000000 0.000000
# 4 0.000000 0.000000 0.000000 0.043180 0.000000 0.000000
# 5 0.000000 0.000000 0.000000 0.000000 0.043180 0.000000
# 6 0.000000 0.000000 0.000000 0.000000 0.000000 -0.016491
#
#
# Mechanical properties :
#
#
# Convention : Reuss Voigt Hill
#
# Bulk Modulus (GPa) = 38.96844 39.76713 39.36778
# Shear Modulus (GPa) = 38.06492 10.28510 24.17501
#
# Velocity S-wave (km/s) = 4.32747 2.24945 3.44869
# Velocity P-wave (km/s) = 6.64385 5.12944 5.93515
#
# Compressibility (1/GPa) = 0.02566179
#
# Stress axis : x y z
#
# Youngs Moduli (GPa) = 72.74394 72.74394 84.72527
#
# Poissons Ratio (x) = 0.09034 0.23619
# Poissons Ratio (y) = 0.09034 0.23619
# Poissons Ratio (z) = 0.20279 0.20279
#
# Static dielectric constant tensor:
#      x y z
#    x 1.748670 0.000000 0.000000 
#    y 0.000000 1.748670 0.000000 
#    z 0.000000 0.000000 1.817280 
# 
# From -- ./inp_files/9521.got.cif
#   From: 2010.05.17/outbox.ucp.g08.bks.cvg/sg122_5_cif.got.tgz:9521.got - 2010.06.11 11:35:26.
