data_PCOD9561271
_publ_section_title
;
Structure prediction by ZEFSAII (Michael W. Deem and Ramdas Pophale) SiO2 
 PCOD9561271
Probable space group: I -4 2 D
;
_chemical_formula_sum "Si O2"
_cell_formula_units_Z 96
_cell_length_a 22.581690
_cell_length_b 22.581690
_cell_length_c 8.768875
_cell_angle_alpha 90.000000
_cell_angle_beta 90.000000
_cell_angle_gamma 90.000000
_cell_volume 4471.536309
_symmetry_space_group_name_H-M "I -4 2 D"
_symmetry_group_IT_number 122
_symmetry_cell_setting 'tetragonal'
loop_
_space_group_symop_operation_xyz
x,y,z
y,-x,-z
-x,-y,z
-y,x,-z
x,1/2-y,1/4-z
-x,1/2+y,1/4-z
-y,1/2-x,1/4+z
y,1/2+x,1/4+z
1/2+x,1/2+y,1/2+z
1/2+y,1/2-x,1/2-z
1/2-x,1/2-y,1/2+z
1/2-y,1/2+x,1/2-z
1/2+x,-y,3/4-z
1/2-x,y,3/4-z
1/2-y,-x,3/4+z
1/2+y,x,3/4+z
loop_
_atom_site_type_symbol
_atom_site_label
_atom_site_fract_x
_atom_site_fract_y
_atom_site_fract_z
Si Si1 0.250000 0.753848 0.875000
Si Si2 0.813103 0.135028 0.895546
Si Si3 0.932132 0.606286 0.381775
Si Si4 0.000000 0.500000 0.250000
Si Si5 0.309529 0.962431 0.331317
Si Si6 0.500000 0.000000 0.250000
Si Si7 0.621552 0.949733 0.131882
Si Si8 0.657788 0.671535 0.953528
O O1 0.208817 0.801681 0.967191
O O2 0.206704 0.713205 0.773946
O O3 0.750000 0.102103 0.875000
O O4 0.835393 0.153838 0.728165
O O5 0.857213 0.095713 0.992896
O O6 0.983653 0.560397 0.338107
O O7 0.952613 0.650545 0.517897
O O8 0.879002 0.567240 0.455530
O O9 0.250000 0.996061 0.375000
O O10 0.292224 0.899769 0.257733
O O11 0.343311 0.995546 0.197160
O O12 0.447277 0.033398 0.162436
O O13 0.645867 0.892782 0.222594
#
# Coordination Sequence:
#
# PCOD9561271 Si02
#       8
#     8  16  16   4  16   4  16  16
#     4  10  24  44  78 100 144 194 244 308 386 468
#     4  10  25  42  73 105 147 184 243 312 386 452
#     4  11  26  46  72 111 140 206 242 316 389 450
#     4  12  30  44  78 100 170 188 254 312 390 460
#     4  11  24  43  72  99 146 188 249 301 373 458
#     4  12  18  44  68 106 130 200 244 314 354 452
#     4  11  25  40  74 100 140 185 259 295 368 459
#     4  11  22  41  72 102 135 187 243 302 370 453
#
# _framework density 21.469131999999998
#
# number of rings (size 3 to 8) (size 9 to 14) (size 15 to 20)
#    0.500    0.667    4.167    2.000    7.000    1.333 
#    0.000    0.000    0.000    0.000    0.000    0.000 
#    0.000    0.000    0.000    0.000    0.000    0.000 
#
# Total GULP energy -267537.653129 kJ/mol
# GULP energy per Si atom -5573.701107 kJ/mol
# Density = 2.142027 g / cm^3
# Si number density = 21.469132 Si / 1000 Ang^3
#
#
#
# Elastic Constant Matrix: (Units=GPa)
#
#
# Indices 1 2 3 4 5 6 
#
# 1 95.8827 36.0368 37.4699 0.0000 0.0000 0.0000
# 2 36.0368 95.8827 37.4699 0.0000 0.0000 0.0000
# 3 37.4699 37.4699 84.3502 0.0000 0.0000 0.0000
# 4 0.0000 0.0000 0.0000 32.3865 0.0000 0.0000
# 5 0.0000 0.0000 0.0000 0.0000 32.3865 0.0000
# 6 0.0000 0.0000 0.0000 0.0000 0.0000 50.8740
#
#
#
# Elastic Compliance Matrix: (Units=1/GPa)
#
#
# Indices 1 2 3 4 5 6 
#
# 1 0.013424 -0.003285 -0.004504 0.000000 0.000000 0.000000
# 2 -0.003285 0.013424 -0.004504 0.000000 0.000000 0.000000
# 3 -0.004504 -0.004504 0.015857 0.000000 0.000000 0.000000
# 4 0.000000 0.000000 0.000000 0.030877 0.000000 0.000000
# 5 0.000000 0.000000 0.000000 0.000000 0.030877 0.000000
# 6 0.000000 0.000000 0.000000 0.000000 0.000000 0.019656
#
#
# Mechanical properties :
#
#
# Convention : Reuss Voigt Hill
#
# Bulk Modulus (GPa) = 55.19060 55.34096 55.26578
# Shear Modulus (GPa) = 32.31191 34.13866 33.22528
#
# Velocity S-wave (km/s) = 3.88369 3.99197 3.93820
# Velocity P-wave (km/s) = 6.77300 6.86154 6.81741
#
# Compressibility (1/GPa) = 0.01811903
#
# Stress axis : x y z
#
# Youngs Moduli (GPa) = 74.49204 74.49204 63.06462
#
# Poissons Ratio (x) = 0.24473 0.28404
# Poissons Ratio (y) = 0.24473 0.28404
# Poissons Ratio (z) = 0.33550 0.33550
#
# Static dielectric constant tensor:
#      x y z
#    x 1.834520 0.000000 0.000000 
#    y 0.000000 1.834520 0.000000 
#    z 0.000000 0.000000 1.825070 
# 
# From -- ./inp_files/2981.got.cif
#   From: 2010.05.17/outbox.cif.g08.bks.cpg/sg122_2_cif.got.tgz:2981.got - 2010.05.20 11:37:33.
