data_PCOD9561715
_publ_section_title
;
Structure prediction by ZEFSAII (Michael W. Deem and Ramdas Pophale) SiO2 
 PCOD9561715
Probable space group: P 4/M M M
;
_chemical_formula_sum "Si O2"
_cell_formula_units_Z 96
_cell_length_a 14.498204
_cell_length_b 14.498204
_cell_length_c 30.413808
_cell_angle_alpha 90.000000
_cell_angle_beta 90.000000
_cell_angle_gamma 90.000000
_cell_volume 6392.919157
_symmetry_space_group_name_H-M "P 4/M M M"
_symmetry_group_IT_number 123
_symmetry_cell_setting 'tetragonal'
loop_
_space_group_symop_operation_xyz
x,y,z
-y,x,z
-x,-y,z
y,-x,z
x,-y,-z
-x,y,-z
y,x,-z
-y,-x,-z
-x,-y,-z
y,-x,-z
x,y,-z
-y,x,-z
-x,y,z
x,-y,z
-y,-x,z
y,x,z
loop_
_atom_site_type_symbol
_atom_site_label
_atom_site_fract_x
_atom_site_fract_y
_atom_site_fract_z
Si Si1 0.758397 0.607267 0.552755
Si Si2 0.258733 0.106807 0.707882
Si Si3 0.238186 0.389181 0.129428
Si Si4 0.390647 0.106478 0.788607
Si Si5 0.894709 0.612040 0.950042
Si Si6 0.108763 0.738068 0.605559
O O1 0.770609 0.611251 0.500000
O O2 0.751947 0.500000 0.565522
O O3 0.666108 0.666108 0.563320
O O4 0.842172 0.660417 0.576216
O O5 0.173235 0.173235 0.715938
O O6 0.336824 0.126640 0.743742
O O7 0.288232 0.119010 0.657103
O O8 0.231762 0.000000 0.712672
O O9 0.252429 0.500000 0.128071
O O10 0.332244 0.332244 0.130736
O O11 0.176248 0.367535 0.172248
O O12 0.178458 0.360800 0.086698
O O13 0.500000 0.112491 0.780997
O O14 0.370518 0.000000 0.801592
O O15 0.895732 0.500000 0.949848
O O16 0.000000 0.641233 0.939839
O O17 0.872332 0.641036 0.000000
O O18 0.167487 0.832514 0.599166
O O19 0.000000 0.748881 0.596166
#
# Coordination Sequence:
#
# PCOD9561715 Si02
#       6
#    16  16  16  16  16  16
#     4   9  18  32  49  69  92 117 146 182 224 268
#     4   9  17  29  45  65  89 115 142 174 213 258
#     4  10  19  29  42  60  84 115 146 174 206 246
#     4   9  17  29  45  64  84 107 139 180 223 260
#     4   8  14  26  44  63  81 102 131 170 213 249
#     4   9  18  31  46  66  92 121 152 184 218 259
#
# _framework density 15.016613
#
# number of rings (size 3 to 8) (size 9 to 14) (size 15 to 20)
#    0.000    3.000    0.000    1.500    0.000    4.333 
#    0.000    5.000    0.000    0.000    0.000    4.667 
#    0.000    7.000    0.000    7.333    0.000    0.667 
#
# Total GULP energy -534443.550001 kJ/mol
# GULP energy per Si atom -5567.120313 kJ/mol
# Density = 1.498243 g / cm^3
# Si number density = 15.016613 Si / 1000 Ang^3
#
#
#
# Elastic Constant Matrix: (Units=GPa)
#
#
# Indices 1 2 3 4 5 6 
#
# 1 85.2538 53.6502 52.1955 0.0000 0.0000 0.0000
# 2 53.6502 85.2538 52.1955 0.0000 0.0000 0.0000
# 3 52.1955 52.1955 59.5432 0.0000 0.0000 0.0000
# 4 0.0000 0.0000 0.0000 20.7194 0.0000 0.0000
# 5 0.0000 0.0000 0.0000 0.0000 20.7194 0.0000
# 6 0.0000 0.0000 0.0000 0.0000 0.0000 16.8518
#
#
#
# Elastic Compliance Matrix: (Units=1/GPa)
#
#
# Indices 1 2 3 4 5 6 
#
# 1 0.026371 -0.005271 -0.018496 0.000000 0.000000 0.000000
# 2 -0.005271 0.026371 -0.018496 0.000000 0.000000 0.000000
# 3 -0.018496 -0.018496 0.049221 0.000000 0.000000 0.000000
# 4 0.000000 0.000000 0.000000 0.048264 0.000000 0.000000
# 5 0.000000 0.000000 0.000000 0.000000 0.048264 0.000000
# 6 0.000000 0.000000 0.000000 0.000000 0.000000 0.059341
#
#
# Mechanical properties :
#
#
# Convention : Reuss Voigt Hill
#
# Bulk Modulus (GPa) = 57.34893 60.68149 59.01521
# Shear Modulus (GPa) = 14.36085 16.45876 15.40980
#
# Velocity S-wave (km/s) = 3.09581 3.31424 3.20689
# Velocity P-wave (km/s) = 7.14507 7.42582 7.28680
#
# Compressibility (1/GPa) = 0.01743712
#
# Stress axis : x y z
#
# Youngs Moduli (GPa) = 37.92095 37.92095 20.31648
#
# Poissons Ratio (x) = 0.19989 0.37577
# Poissons Ratio (y) = 0.19989 0.37577
# Poissons Ratio (z) = 0.70137 0.70137
#
# Static dielectric constant tensor:
#      x y z
#    x 1.482610 0.000000 0.000000 
#    y 0.000000 1.482610 0.000000 
#    z 0.000000 0.000000 1.503120 
# 
# From -- ./inp_files/8577.got.cif
#   From: 2010.05.17/outbox.cif.g08.bks.cpg/sg123_5_cif.got.tgz:8577.got - 2010.05.20 11:43:04.
