data_PCOD9561420
_publ_section_title
;
Structure prediction by ZEFSAII (Michael W. Deem and Ramdas Pophale) SiO2 
 PCOD9561420
Probable space group: I -4 2 D
;
_chemical_formula_sum "Si O2"
_cell_formula_units_Z 88
_cell_length_a 11.454693
_cell_length_b 11.454693
_cell_length_c 25.861105
_cell_angle_alpha 90.000000
_cell_angle_beta 90.000000
_cell_angle_gamma 90.000000
_cell_volume 3393.235373
_symmetry_space_group_name_H-M "I -4 2 D"
_symmetry_group_IT_number 122
_symmetry_cell_setting 'tetragonal'
loop_
_space_group_symop_operation_xyz
x,y,z
y,-x,-z
-x,-y,z
-y,x,-z
x,1/2-y,1/4-z
-x,1/2+y,1/4-z
-y,1/2-x,1/4+z
y,1/2+x,1/4+z
1/2+x,1/2+y,1/2+z
1/2+y,1/2-x,1/2-z
1/2-x,1/2-y,1/2+z
1/2-y,1/2+x,1/2-z
1/2+x,-y,3/4-z
1/2-x,y,3/4-z
1/2-y,-x,3/4+z
1/2+y,x,3/4+z
loop_
_atom_site_type_symbol
_atom_site_label
_atom_site_fract_x
_atom_site_fract_y
_atom_site_fract_z
Si Si1 0.925182 0.745721 0.686990
Si Si2 0.168703 0.727280 0.259907
Si Si3 0.873077 0.647257 0.843392
Si Si4 0.500000 0.000000 0.074864
Si Si5 0.967534 0.631286 0.315029
Si Si6 0.892511 0.086621 0.182757
O O1 0.903593 0.750000 0.625000
O O2 0.805865 0.727864 0.717690
O O3 0.034455 0.659791 0.690737
O O4 0.966008 0.878528 0.702547
O O5 0.196480 0.614584 0.226070
O O6 0.092814 0.798558 0.217141
O O7 0.091355 0.694802 0.309557
O O8 0.750000 0.674858 0.875000
O O9 0.930515 0.751935 0.811192
O O10 0.961683 0.605351 0.887519
O O11 0.907060 0.614402 0.370227
O O12 0.000000 0.500000 0.300071
O O13 0.000000 0.000000 0.193246
#
# Coordination Sequence:
#
# PCOD9561420 Si02
#       6
#    16  16  16   8  16  16
#     4   9  21  38  66 105 132 187 250 301 388 455
#     4  12  22  45  69 103 147 198 254 313 398 483
#     4   9  18  41  64  92 135 185 232 308 374 443
#     4   8  16  36  66  89 126 182 232 283 394 424
#     4  11  23  47  68 102 152 204 248 323 405 476
#     4  11  26  44  69 108 143 198 264 314 387 487
#
# _framework density 25.933951
#
# number of rings (size 3 to 8) (size 9 to 14) (size 15 to 20)
#    0.000    2.182    1.818    2.727    1.273    1.455 
#   13.091    0.000    0.000    1.091    0.000    0.000 
#    0.000    0.000    0.000    0.000    0.000    0.000 
#
# Total GULP energy -245360.579230 kJ/mol
# GULP energy per Si atom -5576.376801 kJ/mol
# Density = 2.587492 g / cm^3
# Si number density = 25.933951 Si / 1000 Ang^3
#
#
#
# Elastic Constant Matrix: (Units=GPa)
#
#
# Indices 1 2 3 4 5 6 
#
# 1 101.1067 14.2257 12.8952 0.0000 0.0000 0.0000
# 2 14.2257 101.1067 12.8952 0.0000 0.0000 0.0000
# 3 12.8952 12.8952 82.2879 0.0000 0.0000 0.0000
# 4 0.0000 0.0000 0.0000 35.6859 0.0000 0.0000
# 5 0.0000 0.0000 0.0000 0.0000 35.6859 0.0000
# 6 0.0000 0.0000 0.0000 0.0000 0.0000 53.8909
#
#
#
# Elastic Compliance Matrix: (Units=1/GPa)
#
#
# Indices 1 2 3 4 5 6 
#
# 1 0.010248 -0.001262 -0.001408 0.000000 0.000000 0.000000
# 2 -0.001262 0.010248 -0.001408 0.000000 0.000000 0.000000
# 3 -0.001408 -0.001408 0.012594 0.000000 0.000000 0.000000
# 4 0.000000 0.000000 0.000000 0.028022 0.000000 0.000000
# 5 0.000000 0.000000 0.000000 0.000000 0.028022 0.000000
# 6 0.000000 0.000000 0.000000 0.000000 0.000000 0.018556
#
#
# Mechanical properties :
#
#
# Convention : Reuss Voigt Hill
#
# Bulk Modulus (GPa) = 40.10858 40.50372 40.30615
# Shear Modulus (GPa) = 40.27143 41.35155 40.81149
#
# Velocity S-wave (km/s) = 3.94489 3.99744 3.97125
# Velocity P-wave (km/s) = 6.02070 6.07931 6.05008
#
# Compressibility (1/GPa) = 0.02493232
#
# Stress axis : x y z
#
# Youngs Moduli (GPa) = 97.58261 97.58261 79.40432
#
# Poissons Ratio (x) = 0.12317 0.11181
# Poissons Ratio (y) = 0.12317 0.11181
# Poissons Ratio (z) = 0.13741 0.13741
#
# Static dielectric constant tensor:
#      x y z
#    x 2.110200 0.000000 0.000000 
#    y 0.000000 2.110200 0.000000 
#    z 0.000000 0.000000 2.156040 
# 
# From -- ./inp_files/9501.got.cif
#   From: 2010.05.17/outbox.cif.g08.bks.cpg/sg122_5_cif.got.tgz:9501.got - 2010.05.20 11:37:33.
