data_PCOD9561103
_publ_section_title
;
Structure prediction by ZEFSAII (Michael W. Deem and Ramdas Pophale) SiO2 
 PCOD9561103
Probable space group: I -4 2 D
;
_chemical_formula_sum "Si O2"
_cell_formula_units_Z 32
_cell_length_a 12.571040
_cell_length_b 12.571040
_cell_length_c 10.121781
_cell_angle_alpha 90.000000
_cell_angle_beta 90.000000
_cell_angle_gamma 90.000000
_cell_volume 1599.555646
_symmetry_space_group_name_H-M "I -4 2 D"
_symmetry_group_IT_number 122
_symmetry_cell_setting 'tetragonal'
loop_
_space_group_symop_operation_xyz
x,y,z
y,-x,-z
-x,-y,z
-y,x,-z
x,1/2-y,1/4-z
-x,1/2+y,1/4-z
-y,1/2-x,1/4+z
y,1/2+x,1/4+z
1/2+x,1/2+y,1/2+z
1/2+y,1/2-x,1/2-z
1/2-x,1/2-y,1/2+z
1/2-y,1/2+x,1/2-z
1/2+x,-y,3/4-z
1/2-x,y,3/4-z
1/2-y,-x,3/4+z
1/2+y,x,3/4+z
loop_
_atom_site_type_symbol
_atom_site_label
_atom_site_fract_x
_atom_site_fract_y
_atom_site_fract_z
Si Si1 0.487864 0.654777 0.441307
Si Si2 0.822019 0.176962 0.245839
O O1 0.569494 0.608389 0.551833
O O2 0.433703 0.766448 0.471102
O O3 0.559352 0.661218 0.311464
O O4 0.776757 0.250000 0.125000
O O5 0.750000 0.179125 0.375000
#
# Coordination Sequence:
#
# PCOD9561103 Si02
#       2
#    16  16
#     4   9  20  38  62  89 120 160 202 245 302 362
#     4  10  22  40  64  92 124 161 204 254 306 362
#
# _framework density 20.005555000000001
#
# number of rings (size 3 to 8) (size 9 to 14) (size 15 to 20)
#    0.000    2.500    0.000    0.000    0.000   34.000 
#    0.000    5.000    0.000    0.000    0.000    0.000 
#    0.000    0.000    0.000    0.000    0.000    0.000 
#
# Total GULP energy -89164.511127 kJ/mol
# GULP energy per Si atom -5572.781945 kJ/mol
# Density = 1.996002 g / cm^3
# Si number density = 20.005555 Si / 1000 Ang^3
#
#
#
# Elastic Constant Matrix: (Units=GPa)
#
#
# Indices 1 2 3 4 5 6 
#
# 1 94.7340 66.9913 79.6365 0.0000 0.0000 0.0000
# 2 66.9913 94.7340 79.6365 0.0000 0.0000 0.0000
# 3 79.6365 79.6365 144.7827 0.0000 0.0000 0.0000
# 4 0.0000 0.0000 0.0000 31.5880 0.0000 0.0000
# 5 0.0000 0.0000 0.0000 0.0000 31.5880 0.0000
# 6 0.0000 0.0000 0.0000 0.0000 0.0000 9.8847
#
#
#
# Elastic Compliance Matrix: (Units=1/GPa)
#
#
# Indices 1 2 3 4 5 6 
#
# 1 0.024769 -0.011277 -0.007421 0.000000 0.000000 0.000000
# 2 -0.011277 0.024769 -0.007421 0.000000 0.000000 0.000000
# 3 -0.007421 -0.007421 0.015071 0.000000 0.000000 0.000000
# 4 0.000000 0.000000 0.000000 0.031658 0.000000 0.000000
# 5 0.000000 0.000000 0.000000 0.000000 0.031658 0.000000
# 6 0.000000 0.000000 0.000000 0.000000 0.000000 0.101166
#
#
# Mechanical properties :
#
#
# Convention : Reuss Voigt Hill
#
# Bulk Modulus (GPa) = 80.83995 87.41989 84.12992
# Shear Modulus (GPa) = 17.51613 21.81123 19.66368
#
# Velocity S-wave (km/s) = 2.96220 3.30549 3.13854
# Velocity P-wave (km/s) = 7.22468 7.63944 7.43495
#
# Compressibility (1/GPa) = 0.01237012
#
# Stress axis : x y z
#
# Youngs Moduli (GPa) = 40.37351 40.37351 66.35378
#
# Poissons Ratio (x) = 0.45528 0.49242
# Poissons Ratio (y) = 0.45528 0.49242
# Poissons Ratio (z) = 0.29962 0.29962
#
# Static dielectric constant tensor:
#      x y z
#    x 1.737280 0.000000 0.000000 
#    y 0.000000 1.737280 0.000000 
#    z 0.000000 0.000000 1.727330 
# 
# From -- ./inp_files/3319.got.cif
#   From: 2010.05.17/outbox.cif.g08.bks.cpg/sg122_2_cif.got.tgz:3319.got - 2010.05.20 11:37:33.
