data_PCOD9561310
_publ_section_title
;
Structure prediction by ZEFSAII (Michael W. Deem and Ramdas Pophale) SiO2 
 PCOD9561310
Probable space group: I -4 2 D
;
_chemical_formula_sum "Si O2"
_cell_formula_units_Z 96
_cell_length_a 18.229513
_cell_length_b 18.229513
_cell_length_c 11.594854
_cell_angle_alpha 90.000000
_cell_angle_beta 90.000000
_cell_angle_gamma 90.000000
_cell_volume 3853.145579
_symmetry_space_group_name_H-M "I -4 2 D"
_symmetry_group_IT_number 122
_symmetry_cell_setting 'tetragonal'
loop_
_space_group_symop_operation_xyz
x,y,z
y,-x,-z
-x,-y,z
-y,x,-z
x,1/2-y,1/4-z
-x,1/2+y,1/4-z
-y,1/2-x,1/4+z
y,1/2+x,1/4+z
1/2+x,1/2+y,1/2+z
1/2+y,1/2-x,1/2-z
1/2-x,1/2-y,1/2+z
1/2-y,1/2+x,1/2-z
1/2+x,-y,3/4-z
1/2-x,y,3/4-z
1/2-y,-x,3/4+z
1/2+y,x,3/4+z
loop_
_atom_site_type_symbol
_atom_site_label
_atom_site_fract_x
_atom_site_fract_y
_atom_site_fract_z
Si Si1 0.131020 0.119158 0.737553
Si Si2 0.995072 0.376615 0.254262
Si Si3 0.750000 0.203152 0.875000
Si Si4 0.000000 0.000000 0.249013
Si Si5 0.770160 0.987832 0.611816
Si Si6 0.192498 0.750000 0.125000
Si Si7 0.352450 0.923463 0.956577
Si Si8 0.043718 0.250000 0.625000
O O1 0.066420 0.057682 0.722348
O O2 0.175899 0.145284 0.851818
O O3 0.094636 0.190689 0.684900
O O4 0.195103 0.086265 0.658563
O O5 0.930544 0.434728 0.227590
O O6 0.990532 0.313842 0.348523
O O7 0.014273 0.333220 0.137479
O O8 0.734363 0.240742 0.749283
O O9 0.680291 0.150593 0.904810
O O10 0.936040 0.940057 0.214460
O O11 0.812033 0.055193 0.675539
O O12 0.781850 0.994540 0.476740
#
# Coordination Sequence:
#
# PCOD9561310 Si02
#       8
#    16  16   8   8  16   8  16   8
#     4  11  29  53  80 117 167 215 281 346 422 508
#     4  11  25  42  78 123 161 196 261 346 420 489
#     4  12  27  51  84 121 181 224 288 342 429 507
#     4  10  26  46  84 124 156 204 273 359 430 492
#     4  11  27  47  78 115 159 214 271 345 416 498
#     4  12  30  53  85 123 169 234 282 350 418 517
#     4  11  24  46  78 120 159 205 267 343 413 498
#     4  12  29  54  77 112 168 222 274 336 417 514
#
# _framework density 24.914709999999999
#
# number of rings (size 3 to 8) (size 9 to 14) (size 15 to 20)
#    0.000    0.833    1.667    2.500   14.000    2.667 
#    0.000    5.833    0.000    0.000    0.000    0.000 
#    0.000    0.000    0.000    0.000    0.000    0.000 
#
# Total GULP energy -267628.550791 kJ/mol
# GULP energy per Si atom -5575.594808 kJ/mol
# Density = 2.485800 g / cm^3
# Si number density = 24.914710 Si / 1000 Ang^3
#
#
#
# Elastic Constant Matrix: (Units=GPa)
#
#
# Indices 1 2 3 4 5 6 
#
# 1 133.9556 53.7901 18.9189 0.0000 0.0000 0.0000
# 2 53.7901 133.9556 18.9189 0.0000 0.0000 0.0000
# 3 18.9189 18.9189 125.0367 0.0000 0.0000 0.0000
# 4 0.0000 0.0000 0.0000 27.3632 0.0000 0.0000
# 5 0.0000 0.0000 0.0000 0.0000 27.3632 0.0000
# 6 0.0000 0.0000 0.0000 0.0000 0.0000 44.7249
#
#
#
# Elastic Compliance Matrix: (Units=1/GPa)
#
#
# Indices 1 2 3 4 5 6 
#
# 1 0.008984 -0.003490 -0.000831 0.000000 0.000000 0.000000
# 2 -0.003490 0.008984 -0.000831 0.000000 0.000000 0.000000
# 3 -0.000831 -0.000831 0.008249 0.000000 0.000000 0.000000
# 4 0.000000 0.000000 0.000000 0.036545 0.000000 0.000000
# 5 0.000000 0.000000 0.000000 0.000000 0.036545 0.000000
# 6 0.000000 0.000000 0.000000 0.000000 0.000000 0.022359
#
#
# Mechanical properties :
#
#
# Convention : Reuss Voigt Hill
#
# Bulk Modulus (GPa) = 62.84597 64.02266 63.43431
# Shear Modulus (GPa) = 36.42286 39.97826 38.20056
#
# Velocity S-wave (km/s) = 3.82763 4.01010 3.91993
# Velocity P-wave (km/s) = 6.69429 6.86977 6.78260
#
# Compressibility (1/GPa) = 0.01591192
#
# Stress axis : x y z
#
# Youngs Moduli (GPa) = 111.30851 111.30851 121.22379
#
# Poissons Ratio (x) = 0.38848 0.10077
# Poissons Ratio (y) = 0.38848 0.10077
# Poissons Ratio (z) = 0.09253 0.09253
#
# Static dielectric constant tensor:
#      x y z
#    x 2.046930 0.000000 0.000000 
#    y 0.000000 2.046930 0.000000 
#    z 0.000000 0.000000 2.248830 
# 
# From -- ./inp_files/4522.got.cif
#   From: 2010.05.17/outbox.cif.g08.bks.cpg/sg122_3_cif.got.tgz:4522.got - 2010.05.20 11:37:33.
