data_PCOD9561008
_publ_section_title
;
Structure prediction by ZEFSAII (Michael W. Deem and Ramdas Pophale) SiO2 
 PCOD9561008
Probable space group: I -4 2 D
;
_chemical_formula_sum "Si O2"
_cell_formula_units_Z 96
_cell_length_a 23.008150
_cell_length_b 23.008150
_cell_length_c 8.075156
_cell_angle_alpha 90.000000
_cell_angle_beta 90.000000
_cell_angle_gamma 90.000000
_cell_volume 4274.785436
_symmetry_space_group_name_H-M "I -4 2 D"
_symmetry_group_IT_number 122
_symmetry_cell_setting 'tetragonal'
loop_
_space_group_symop_operation_xyz
x,y,z
y,-x,-z
-x,-y,z
-y,x,-z
x,1/2-y,1/4-z
-x,1/2+y,1/4-z
-y,1/2-x,1/4+z
y,1/2+x,1/4+z
1/2+x,1/2+y,1/2+z
1/2+y,1/2-x,1/2-z
1/2-x,1/2-y,1/2+z
1/2-y,1/2+x,1/2-z
1/2+x,-y,3/4-z
1/2-x,y,3/4-z
1/2-y,-x,3/4+z
1/2+y,x,3/4+z
loop_
_atom_site_type_symbol
_atom_site_label
_atom_site_fract_x
_atom_site_fract_y
_atom_site_fract_z
Si Si1 0.683156 0.887578 0.819938
Si Si2 0.933527 0.949106 0.419873
Si Si3 0.378057 0.665577 0.930038
Si Si4 0.352458 0.006313 0.591732
Si Si5 0.543006 0.250000 0.125000
Si Si6 0.750000 0.357129 0.875000
Si Si7 0.293197 0.600818 0.524942
O O1 0.750000 0.885710 0.875000
O O2 0.666145 0.939455 0.702182
O O3 0.660712 0.827459 0.742239
O O4 0.649814 0.895479 0.993744
O O5 0.888590 0.897059 0.456163
O O6 0.912767 0.979845 0.250233
O O7 0.999457 0.928037 0.441891
O O8 0.309401 0.676675 0.917352
O O9 0.414578 0.720466 0.991209
O O10 0.303161 0.006240 0.447286
O O11 0.341595 0.949185 0.699558
O O12 0.737768 0.391307 0.703437
O O13 0.250000 0.586723 0.375000
#
# Coordination Sequence:
#
# PCOD9561008 Si02
#       7
#    16  16  16  16   8   8  16
#     4  11  23  44  61  97 140 176 227 285 351 424
#     4  10  22  41  68  99 134 177 229 289 356 431
#     4  10  22  41  65  96 133 179 227 285 344 419
#     4  11  23  43  67  98 133 175 235 284 355 418
#     4  10  21  38  68  94 126 178 227 282 346 404
#     4  10  23  44  62 100 138 180 235 280 352 418
#     4  11  26  43  70 103 140 187 237 295 353 425
#
# _framework density 22.457267000000002
#
# number of rings (size 3 to 8) (size 9 to 14) (size 15 to 20)
#    0.000    1.500    1.667    3.000    4.667    2.667 
#   12.000    0.000    0.000    2.000    0.000    0.000 
#    0.000    0.000    0.000    0.000    0.000    0.000 
#
# Total GULP energy -267934.758703 kJ/mol
# GULP energy per Si atom -5581.974140 kJ/mol
# Density = 2.240615 g / cm^3
# Si number density = 22.457267 Si / 1000 Ang^3
#
#
#
# Elastic Constant Matrix: (Units=GPa)
#
#
# Indices 1 2 3 4 5 6 
#
# 1 76.2867 20.5323 18.7349 0.0000 0.0000 0.0000
# 2 20.5323 76.2867 18.7349 0.0000 0.0000 0.0000
# 3 18.7349 18.7349 65.3952 0.0000 0.0000 0.0000
# 4 0.0000 0.0000 0.0000 34.2805 0.0000 0.0000
# 5 0.0000 0.0000 0.0000 0.0000 34.2805 0.0000
# 6 0.0000 0.0000 0.0000 0.0000 0.0000 23.4248
#
#
#
# Elastic Compliance Matrix: (Units=1/GPa)
#
#
# Indices 1 2 3 4 5 6 
#
# 1 0.014776 -0.003160 -0.003328 0.000000 0.000000 0.000000
# 2 -0.003160 0.014776 -0.003328 0.000000 0.000000 0.000000
# 3 -0.003328 -0.003328 0.017198 0.000000 0.000000 0.000000
# 4 0.000000 0.000000 0.000000 0.029171 0.000000 0.000000
# 5 0.000000 0.000000 0.000000 0.000000 0.029171 0.000000
# 6 0.000000 0.000000 0.000000 0.000000 0.000000 0.042690
#
#
# Mechanical properties :
#
#
# Convention : Reuss Voigt Hill
#
# Bulk Modulus (GPa) = 36.87376 37.10811 36.99093
# Shear Modulus (GPa) = 28.33602 29.06161 28.69882
#
# Velocity S-wave (km/s) = 3.55600 3.60124 3.57869
# Velocity P-wave (km/s) = 5.77195 5.81822 5.79513
#
# Compressibility (1/GPa) = 0.02711956
#
# Stress axis : x y z
#
# Youngs Moduli (GPa) = 67.67655 67.67655 58.14464
#
# Poissons Ratio (x) = 0.21383 0.19350
# Poissons Ratio (y) = 0.21383 0.19350
# Poissons Ratio (z) = 0.22523 0.22523
#
# Static dielectric constant tensor:
#      x y z
#    x 1.848960 0.000000 0.000000 
#    y 0.000000 1.848960 0.000000 
#    z 0.000000 0.000000 1.856650 
# 
# From -- ./inp_files/2959.got.cif
#   From: 2010.05.17/outbox.cif.g08.bks.cpg/sg122_2_cif.got.tgz:2959.got - 2010.05.20 11:37:33.
