data_PCOD9561792
_publ_section_title
;
Structure prediction by ZEFSAII (Michael W. Deem and Ramdas Pophale) SiO2 
 PCOD9561792
Probable space group: P 4/M M M
;
_chemical_formula_sum "Si O2"
_cell_formula_units_Z 88
_cell_length_a 13.585942
_cell_length_b 13.585942
_cell_length_c 29.068072
_cell_angle_alpha 90.000000
_cell_angle_beta 90.000000
_cell_angle_gamma 90.000000
_cell_volume 5365.321362
_symmetry_space_group_name_H-M "P 4/M M M"
_symmetry_group_IT_number 123
_symmetry_cell_setting 'tetragonal'
loop_
_space_group_symop_operation_xyz
x,y,z
-y,x,z
-x,-y,z
y,-x,z
x,-y,-z
-x,y,-z
y,x,-z
-y,-x,-z
-x,-y,-z
y,-x,-z
x,y,-z
-y,x,-z
-x,y,z
x,-y,z
-y,-x,z
y,x,z
loop_
_atom_site_type_symbol
_atom_site_label
_atom_site_fract_x
_atom_site_fract_y
_atom_site_fract_z
Si Si1 0.119305 0.612139 0.906737
Si Si2 0.613621 0.119431 0.551120
Si Si3 0.723620 0.117721 0.355957
Si Si4 0.882324 0.722176 0.187538
Si Si5 0.780445 0.383641 0.727818
Si Si6 0.118282 0.723564 0.000000
O O1 0.155683 0.500000 0.904110
O O2 0.144973 0.673967 0.861521
O O3 0.000000 0.607998 0.907436
O O4 0.148244 0.664340 0.954181
O O5 0.645845 0.151925 0.500000
O O6 0.500000 0.150638 0.557894
O O7 0.680348 0.146851 0.594160
O O8 0.612911 0.000000 0.550530
O O9 0.826894 0.173107 0.348866
O O10 0.650322 0.158221 0.316947
O O11 0.731934 0.000000 0.353252
O O12 0.825270 0.825270 0.192340
O O13 0.842463 0.651853 0.227880
O O14 0.000000 0.732548 0.190267
O O15 0.764676 0.500000 0.728259
O O16 0.679681 0.320320 0.727776
O O17 0.172253 0.827748 0.000000
O O18 0.000000 0.733778 0.000000
#
# Coordination Sequence:
#
# PCOD9561792 Si02
#       6
#    16  16  16  16  16   8
#     4   9  17  30  48  68  91 122 160 202 245 283
#     4   8  14  26  45  67  89 116 154 200 246 287
#     4  10  20  32  47  69  97 130 167 204 242 287
#     4  10  20  33  50  74 103 134 167 200 236 283
#     4  10  21  36  54  76  99 124 158 200 247 297
#     4  10  19  30  45  67  96 128 161 197 240 295
#
# _framework density 16.401627000000001
#
# number of rings (size 3 to 8) (size 9 to 14) (size 15 to 20)
#    0.000    2.545    0.000    3.000    0.000    5.000 
#    0.000    0.000    0.000    6.545    0.000    2.545 
#    0.000   13.818    0.000   16.909    0.000    0.909 
#
# Total GULP energy -490458.193969 kJ/mol
# GULP energy per Si atom -5573.388568 kJ/mol
# Density = 1.636430 g / cm^3
# Si number density = 16.401627 Si / 1000 Ang^3
#
#
#
# Elastic Constant Matrix: (Units=GPa)
#
#
# Indices 1 2 3 4 5 6 
#
# 1 92.1976 59.7031 50.4267 0.0000 0.0000 0.0000
# 2 59.7031 92.1972 50.4266 0.0000 0.0000 0.0000
# 3 50.4267 50.4266 134.6683 0.0000 0.0000 0.0000
# 4 0.0000 0.0000 0.0000 19.7054 0.0000 0.0000
# 5 0.0000 0.0000 0.0000 0.0000 19.7060 0.0000
# 6 0.0000 0.0000 0.0000 0.0000 0.0000 6.1695
#
#
#
# Elastic Compliance Matrix: (Units=1/GPa)
#
#
# Indices 1 2 3 4 5 6 
#
# 1 0.019768 -0.011007 -0.003281 0.000000 0.000000 0.000000
# 2 -0.011007 0.019768 -0.003281 0.000000 0.000000 0.000000
# 3 -0.003281 -0.003281 0.009883 0.000000 0.000000 0.000000
# 4 0.000000 0.000000 0.000000 0.050747 0.000000 0.000000
# 5 0.000000 0.000000 0.000000 0.000000 0.050746 0.000000
# 6 0.000000 0.000000 0.000000 0.000000 0.000000 0.162089
#
#
# Mechanical properties :
#
#
# Convention : Reuss Voigt Hill
#
# Bulk Modulus (GPa) = 70.01527 71.13065 70.57296
# Shear Modulus (GPa) = 14.16841 19.68330 16.92585
#
# Velocity S-wave (km/s) = 2.94231 3.46798 3.21590
# Velocity P-wave (km/s) = 7.37045 7.71350 7.54392
#
# Compressibility (1/GPa) = 0.01428260
#
# Stress axis : x y z
#
# Youngs Moduli (GPa) = 50.58684 50.58660 101.18785
#
# Poissons Ratio (x) = 0.55678 0.33197
# Poissons Ratio (y) = 0.55679 0.33197
# Poissons Ratio (z) = 0.16596 0.16596
#
# Static dielectric constant tensor:
#      x y z
#    x 1.529700 0.000000 0.000000 
#    y 0.000000 1.529710 0.000000 
#    z 0.000000 0.000000 1.566610 
# 
# From -- ./inp_files/8497.got.cif
#   From: 2010.05.17/outbox.cif.g08.bks.cpg/sg123_5_cif.got.tgz:8497.got - 2010.05.20 11:43:04.
