data_PCOD9561092
_publ_section_title
;
Structure prediction by ZEFSAII (Michael W. Deem and Ramdas Pophale) SiO2 
 PCOD9561092
Probable space group: I -4 2 D
;
_chemical_formula_sum "Si O2"
_cell_formula_units_Z 48
_cell_length_a 13.850698
_cell_length_b 13.850698
_cell_length_c 10.058638
_cell_angle_alpha 90.000000
_cell_angle_beta 90.000000
_cell_angle_gamma 90.000000
_cell_volume 1929.667572
_symmetry_space_group_name_H-M "I -4 2 D"
_symmetry_group_IT_number 122
_symmetry_cell_setting 'tetragonal'
loop_
_space_group_symop_operation_xyz
x,y,z
y,-x,-z
-x,-y,z
-y,x,-z
x,1/2-y,1/4-z
-x,1/2+y,1/4-z
-y,1/2-x,1/4+z
y,1/2+x,1/4+z
1/2+x,1/2+y,1/2+z
1/2+y,1/2-x,1/2-z
1/2-x,1/2-y,1/2+z
1/2-y,1/2+x,1/2-z
1/2+x,-y,3/4-z
1/2-x,y,3/4-z
1/2-y,-x,3/4+z
1/2+y,x,3/4+z
loop_
_atom_site_type_symbol
_atom_site_label
_atom_site_fract_x
_atom_site_fract_y
_atom_site_fract_z
Si Si1 0.850695 0.112444 0.810674
Si Si2 0.906291 0.265562 0.986611
Si Si3 0.878315 0.605893 0.763256
O O1 0.750000 0.142937 0.875000
O O2 0.927376 0.161952 0.912500
O O3 0.865945 0.149107 0.662115
O O4 0.832014 0.997439 0.786784
O O5 0.858497 0.322871 0.866283
O O6 0.851277 0.250000 0.125000
O O7 0.868532 0.490136 0.756299
#
# Coordination Sequence:
#
# PCOD9561092 Si02
#       3
#    16  16  16
#     4  10  22  41  63  95 135 182 240 302 375 457
#     4  10  22  39  63  96 134 178 232 299 369 447
#     4   9  19  38  64  92 129 179 230 285 360 449
#
# _framework density 24.874749999999999
#
# number of rings (size 3 to 8) (size 9 to 14) (size 15 to 20)
#    0.000    2.333    0.000    1.000    0.000    8.000 
#    0.000   13.333    0.000    0.000    0.000    0.000 
#    0.000    0.000    0.000    0.000    0.000    0.000 
#
# Total GULP energy -133695.415850 kJ/mol
# GULP energy per Si atom -5570.642327 kJ/mol
# Density = 2.481813 g / cm^3
# Si number density = 24.874750 Si / 1000 Ang^3
#
#
#
# Elastic Constant Matrix: (Units=GPa)
#
#
# Indices 1 2 3 4 5 6 
#
# 1 -252.8522 332.3542 49.5463 0.0000 0.0000 0.0000
# 2 332.3542 -252.8522 49.5463 0.0000 0.0000 0.0000
# 3 49.5463 49.5463 328.2949 0.0000 0.0000 0.0000
# 4 0.0000 0.0000 0.0000 39.7091 0.0000 0.0000
# 5 0.0000 0.0000 0.0000 0.0000 39.7091 0.0000
# 6 0.0000 0.0000 0.0000 0.0000 0.0000 26.3974
#
#
#
# Elastic Compliance Matrix: (Units=1/GPa)
#
#
# Indices 1 2 3 4 5 6 
#
# 1 0.006892 0.008601 -0.002338 0.000000 0.000000 0.000000
# 2 0.008601 0.006892 -0.002338 0.000000 0.000000 0.000000
# 3 -0.002338 -0.002338 0.003752 0.000000 0.000000 0.000000
# 4 0.000000 0.000000 0.000000 0.025183 0.000000 0.000000
# 5 0.000000 0.000000 0.000000 0.000000 0.025183 0.000000
# 6 0.000000 0.000000 0.000000 0.000000 0.000000 0.037883
#
#
# Mechanical properties :
#
#
# Convention : Reuss Voigt Hill
#
# Bulk Modulus (GPa) = 39.39429 76.16491 57.77960
# Shear Modulus (GPa) = 46.99377 -19.42731 13.78323
#
# Velocity S-wave (km/s) = 4.35123 -2.79768 2.35650
# Velocity P-wave (km/s) = 6.41215 4.49998 5.53920
#
# Compressibility (1/GPa) = 0.02538439
#
# Stress axis : x y z
#
# Youngs Moduli (GPa) = 145.09803 145.09803 266.53970
#
# Poissons Ratio (x) = -1.24794 0.62321
# Poissons Ratio (y) = -1.24794 0.62321
# Poissons Ratio (z) = 0.33926 0.33926
#
# Static dielectric constant tensor:
#      x y z
#    x 2.093040 0.000000 0.000000 
#    y 0.000000 2.093040 0.000000 
#    z 0.000000 0.000000 1.965650 
# 
# From -- ./inp_files/2025.got.cif
#   From: 2010.05.17/outbox.cif.g08.bks.cpg/sg122_2_cif.got.tgz:2025.got - 2010.05.20 11:37:33.
