data_PCOD9561804
_publ_section_title
;
Structure prediction by ZEFSAII (Michael W. Deem and Ramdas Pophale) SiO2 
 PCOD9561804
Probable space group: P 4/M M M
;
_chemical_formula_sum "Si O2"
_cell_formula_units_Z 128
_cell_length_a 18.520947
_cell_length_b 18.520947
_cell_length_c 22.766702
_cell_angle_alpha 90.000000
_cell_angle_beta 90.000000
_cell_angle_gamma 90.000000
_cell_volume 7809.558831
_symmetry_space_group_name_H-M "P 4/M M M"
_symmetry_group_IT_number 123
_symmetry_cell_setting 'tetragonal'
loop_
_space_group_symop_operation_xyz
x,y,z
-y,x,z
-x,-y,z
y,-x,z
x,-y,-z
-x,y,-z
y,x,-z
-y,-x,-z
-x,-y,-z
y,-x,-z
x,y,-z
-y,x,-z
-x,y,z
x,-y,z
-y,-x,z
y,x,z
loop_
_atom_site_type_symbol
_atom_site_label
_atom_site_fract_x
_atom_site_fract_y
_atom_site_fract_z
Si Si1 0.687187 0.804638 0.135521
Si Si2 0.917311 0.415595 0.929235
Si Si3 0.191868 0.919238 0.827188
Si Si4 0.297145 0.585223 0.364058
Si Si5 0.803867 0.918654 0.685853
Si Si6 0.583599 0.787764 0.243931
Si Si7 0.361798 0.083369 0.320803
Si Si8 0.154279 0.413376 0.565761
O O1 0.736784 0.736784 0.113461
O O2 0.633656 0.851805 0.094377
O O3 0.744457 0.864727 0.156916
O O4 0.638861 0.778780 0.190617
O O5 0.907308 0.500000 0.912032
O O6 0.000000 0.394560 0.910245
O O7 0.916928 0.412477 0.000000
O O8 0.117681 0.882320 0.848098
O O9 0.188723 0.922288 0.756503
O O10 0.202854 0.000000 0.849692
O O11 0.310017 0.500000 0.372654
O O12 0.366804 0.633196 0.374268
O O13 0.268162 0.595102 0.297416
O O14 0.231625 0.608305 0.406836
O O15 0.862333 0.862333 0.663085
O O16 0.722032 0.894579 0.675666
O O17 0.813760 0.000000 0.662837
O O18 0.500000 0.783281 0.225150
O O19 0.598073 0.865359 0.274653
O O20 0.392769 0.095636 0.385640
O O21 0.365296 0.000000 0.302805
O O22 0.142623 0.385262 0.500000
O O23 0.155455 0.500000 0.563155
#
# Coordination Sequence:
#
# PCOD9561804 Si02
#       8
#    16  16  16  16  16  16  16  16
#     4  11  20  30  49  74 101 131 164 204 245 287
#     4   9  19  36  55  74 100 135 171 207 249 297
#     4   9  17  28  42  63  91 123 158 193 231 274
#     4   9  18  32  49  68  91 117 148 187 227 273
#     4   9  17  29  44  63  90 121 152 190 233 276
#     4  10  20  32  46  67  96 130 161 189 232 289
#     4  10  19  30  46  69  94 120 155 199 240 277
#     4   9  19  34  48  64  89 120 151 184 229 285
#
# _framework density 16.390170000000001
#
# number of rings (size 3 to 8) (size 9 to 14) (size 15 to 20)
#    0.000    2.500    1.250    2.625    0.000    4.625 
#    0.000    1.875    0.000    0.000    0.000    1.750 
#    0.000    2.250    0.000   19.875    0.000    0.250 
#
# Total GULP energy -712821.654784 kJ/mol
# GULP energy per Si atom -5568.919178 kJ/mol
# Density = 1.635287 g / cm^3
# Si number density = 16.390170 Si / 1000 Ang^3
#
#
#
# Elastic Constant Matrix: (Units=GPa)
#
#
# Indices 1 2 3 4 5 6 
#
# 1 56.5013 33.1780 6.5734 0.0000 0.0000 0.0000
# 2 33.1780 56.5013 6.5734 0.0000 0.0000 0.0000
# 3 6.5734 6.5734 27.0788 0.0000 0.0000 0.0000
# 4 0.0000 0.0000 0.0000 8.3379 0.0000 0.0000
# 5 0.0000 0.0000 0.0000 0.0000 8.3379 0.0000
# 6 0.0000 0.0000 0.0000 0.0000 0.0000 37.4695
#
#
#
# Elastic Compliance Matrix: (Units=1/GPa)
#
#
# Indices 1 2 3 4 5 6 
#
# 1 0.027219 -0.015657 -0.002807 0.000000 0.000000 0.000000
# 2 -0.015657 0.027219 -0.002807 0.000000 0.000000 0.000000
# 3 -0.002807 -0.002807 0.038292 0.000000 0.000000 0.000000
# 4 0.000000 0.000000 0.000000 0.119934 0.000000 0.000000
# 5 0.000000 0.000000 0.000000 0.000000 0.119934 0.000000
# 6 0.000000 0.000000 0.000000 0.000000 0.000000 0.026688
#
#
# Mechanical properties :
#
#
# Convention : Reuss Voigt Hill
#
# Bulk Modulus (GPa) = 19.92450 25.85900 22.89175
# Shear Modulus (GPa) = 11.94583 17.07951 14.51267
#
# Velocity S-wave (km/s) = 2.70263 3.23159 2.97888
# Velocity P-wave (km/s) = 4.68207 5.45304 5.08219
#
# Compressibility (1/GPa) = 0.05018947
#
# Stress axis : x y z
#
# Youngs Moduli (GPa) = 36.73912 36.73912 26.11517
#
# Poissons Ratio (x) = 0.57521 0.07330
# Poissons Ratio (y) = 0.57521 0.07330
# Poissons Ratio (z) = 0.10312 0.10312
#
# Static dielectric constant tensor:
#      x y z
#    x 1.558840 0.000000 0.000000 
#    y 0.000000 1.558840 0.000000 
#    z 0.000000 0.000000 1.549990 
# 
# From -- ./inp_files/7670.got.cif
#   From: 2010.05.17/outbox.cif.g08.bks.cpg/sg123_4_cif.got.tgz:7670.got - 2010.05.20 11:43:04.
