data_PCOD9561754
_publ_section_title
;
Structure prediction by ZEFSAII (Michael W. Deem and Ramdas Pophale) SiO2 
 PCOD9561754
Probable space group: P 4/M M M
;
_chemical_formula_sum "Si O2"
_cell_formula_units_Z 72
_cell_length_a 14.505787
_cell_length_b 14.505787
_cell_length_c 22.518597
_cell_angle_alpha 90.000000
_cell_angle_beta 90.000000
_cell_angle_gamma 90.000000
_cell_volume 4738.314912
_symmetry_space_group_name_H-M "P 4/M M M"
_symmetry_group_IT_number 123
_symmetry_cell_setting 'tetragonal'
loop_
_space_group_symop_operation_xyz
x,y,z
-y,x,z
-x,-y,z
y,-x,z
x,-y,-z
-x,y,-z
y,x,-z
-y,-x,-z
-x,-y,-z
y,-x,-z
x,y,-z
-y,x,-z
-x,y,z
x,-y,z
-y,-x,z
y,x,z
loop_
_atom_site_type_symbol
_atom_site_label
_atom_site_fract_x
_atom_site_fract_y
_atom_site_fract_z
Si Si1 0.741769 0.107199 0.928730
Si Si2 0.262471 0.110446 0.500000
Si Si3 0.606737 0.241405 0.280463
Si Si4 0.761738 0.608688 0.857887
Si Si5 0.606486 0.109426 0.610658
O O1 0.833963 0.166038 0.914364
O O2 0.657904 0.160426 0.897251
O O3 0.748118 0.000000 0.911416
O O4 0.729805 0.111077 0.000000
O O5 0.169963 0.169963 0.500000
O O6 0.323831 0.133355 0.442098
O O7 0.245994 0.000000 0.500000
O O8 0.500000 0.268451 0.287106
O O9 0.673287 0.326714 0.291561
O O10 0.618776 0.212368 0.211795
O O11 0.626562 0.162879 0.328584
O O12 0.751064 0.500000 0.870698
O O13 0.667368 0.667368 0.866679
O O14 0.500000 0.129568 0.593341
O O15 0.612716 0.000000 0.620483
#
# Coordination Sequence:
#
# PCOD9561754 Si02
#       5
#    16   8  16  16  16
#     4   9  18  32  49  69  92 117 146 182 224 269
#     4  10  19  30  45  63  84 112 143 175 212 253
#     4   9  17  29  45  65  89 116 145 177 213 254
#     4   9  18  31  46  66  92 121 153 187 221 259
#     4   9  17  29  45  65  87 110 139 176 216 256
#
# _framework density 15.195275000000001
#
# number of rings (size 3 to 8) (size 9 to 14) (size 15 to 20)
#    0.000    2.889    0.000    1.000    0.000    3.889 
#    0.000    6.667    0.000    0.000    0.000    3.111 
#    0.000   13.333    0.000    0.000    0.000    0.000 
#
# Total GULP energy -400957.967330 kJ/mol
# GULP energy per Si atom -5568.860657 kJ/mol
# Density = 1.516069 g / cm^3
# Si number density = 15.195275 Si / 1000 Ang^3
#
#
#
# Elastic Constant Matrix: (Units=GPa)
#
#
# Indices 1 2 3 4 5 6 
#
# 1 98.5956 62.2029 52.4979 0.0000 0.0000 0.0000
# 2 62.2029 98.5956 52.4979 0.0000 0.0000 0.0000
# 3 52.4979 52.4979 51.1803 0.0000 0.0000 0.0000
# 4 0.0000 0.0000 0.0000 25.6230 0.0000 0.0000
# 5 0.0000 0.0000 0.0000 0.0000 25.6230 0.0000
# 6 0.0000 0.0000 0.0000 0.0000 0.0000 19.9356
#
#
#
# Elastic Compliance Matrix: (Units=1/GPa)
#
#
# Indices 1 2 3 4 5 6 
#
# 1 0.023155 -0.004323 -0.019317 0.000000 0.000000 0.000000
# 2 -0.004323 0.023155 -0.019317 0.000000 0.000000 0.000000
# 3 -0.019317 -0.019317 0.059168 0.000000 0.000000 0.000000
# 4 0.000000 0.000000 0.000000 0.039028 0.000000 0.000000
# 5 0.000000 0.000000 0.000000 0.000000 0.039028 0.000000
# 6 0.000000 0.000000 0.000000 0.000000 0.000000 0.050162
#
#
# Mechanical properties :
#
#
# Convention : Reuss Voigt Hill
#
# Bulk Modulus (GPa) = 51.11503 64.75210 57.93357
# Shear Modulus (GPa) = 15.33125 19.64781 17.48953
#
# Velocity S-wave (km/s) = 3.17984 3.59976 3.39630
# Velocity P-wave (km/s) = 6.86976 7.74490 7.32042
#
# Compressibility (1/GPa) = 0.01956372
#
# Stress axis : x y z
#
# Youngs Moduli (GPa) = 43.18668 43.18668 16.90103
#
# Poissons Ratio (x) = 0.18669 0.32648
# Poissons Ratio (y) = 0.18669 0.32648
# Poissons Ratio (z) = 0.83425 0.83425
#
# Static dielectric constant tensor:
#      x y z
#    x 1.488410 0.000000 0.000000 
#    y 0.000000 1.488410 0.000000 
#    z 0.000000 0.000000 1.501610 
# 
# From -- ./inp_files/5119.got.cif
#   From: 2010.05.17/outbox.cif.g08.bks.cpg/sg123_3_cif.got.tgz:5119.got - 2010.05.20 11:43:04.
