data_PCOD9561055
_publ_section_title
;
Structure prediction by ZEFSAII (Michael W. Deem and Ramdas Pophale) SiO2 
 PCOD9561055
Probable space group: I -4 2 D
;
_chemical_formula_sum "Si O2"
_cell_formula_units_Z 80
_cell_length_a 11.787353
_cell_length_b 11.787353
_cell_length_c 22.319034
_cell_angle_alpha 90.000000
_cell_angle_beta 90.000000
_cell_angle_gamma 90.000000
_cell_volume 3101.044320
_symmetry_space_group_name_H-M "I -4 2 D"
_symmetry_group_IT_number 122
_symmetry_cell_setting 'tetragonal'
loop_
_space_group_symop_operation_xyz
x,y,z
y,-x,-z
-x,-y,z
-y,x,-z
x,1/2-y,1/4-z
-x,1/2+y,1/4-z
-y,1/2-x,1/4+z
y,1/2+x,1/4+z
1/2+x,1/2+y,1/2+z
1/2+y,1/2-x,1/2-z
1/2-x,1/2-y,1/2+z
1/2-y,1/2+x,1/2-z
1/2+x,-y,3/4-z
1/2-x,y,3/4-z
1/2-y,-x,3/4+z
1/2+y,x,3/4+z
loop_
_atom_site_type_symbol
_atom_site_label
_atom_site_fract_x
_atom_site_fract_y
_atom_site_fract_z
Si Si1 0.337481 0.097243 0.096251
Si Si2 0.937054 0.250000 0.125000
Si Si3 0.660825 0.603399 0.498483
Si Si4 0.156645 0.400893 0.735458
Si Si5 0.500000 0.500000 0.676966
Si Si6 0.427938 0.634207 0.207208
O O1 0.316798 0.387782 0.084245
O O2 0.457784 0.152163 0.079957
O O3 0.361183 0.966590 0.075730
O O4 0.235201 0.139785 0.055189
O O5 0.875265 0.224618 0.063318
O O6 0.988468 0.380660 0.110346
O O7 0.650691 0.465734 0.500542
O O8 0.147949 0.535380 0.747780
O O9 0.253487 0.359155 0.779978
O O10 0.597266 0.528823 0.726128
#
# Coordination Sequence:
#
# PCOD9561055 Si02
#       6
#    16   8  16  16   8  16
#     4  10  23  43  67  91 136 175 229 293 372 454
#     4  12  22  46  74 100 154 198 256 308 394 464
#     4  11  25  40  66 102 141 189 242 310 378 470
#     4  11  25  43  66  96 125 173 238 300 362 454
#     4  10  22  42  69 102 141 194 232 302 360 464
#     4  10  21  45  64  91 131 181 225 291 379 433
#
# _framework density 25.797758999999999
#
# number of rings (size 3 to 8) (size 9 to 14) (size 15 to 20)
#    0.000    1.600    4.000    3.600    5.600    4.800 
#    0.000    0.000    0.000    0.000    0.000    0.000 
#    0.000    0.000    0.000    0.000    0.000    0.000 
#
# Total GULP energy -223767.175578 kJ/mol
# GULP energy per Si atom -5594.179389 kJ/mol
# Density = 2.573904 g / cm^3
# Si number density = 25.797759 Si / 1000 Ang^3
#
#
#
# Elastic Constant Matrix: (Units=GPa)
#
#
# Indices 1 2 3 4 5 6 
#
# 1 154.6642 24.2565 51.8482 0.0000 0.0000 0.0000
# 2 24.2565 154.6642 51.8482 0.0000 0.0000 0.0000
# 3 51.8482 51.8482 149.3140 0.0000 0.0000 0.0000
# 4 0.0000 0.0000 0.0000 25.9151 0.0000 0.0000
# 5 0.0000 0.0000 0.0000 0.0000 25.9151 0.0000
# 6 0.0000 0.0000 0.0000 0.0000 0.0000 -28.7125
#
#
#
# Elastic Compliance Matrix: (Units=1/GPa)
#
#
# Indices 1 2 3 4 5 6 
#
# 1 0.007333 -0.000335 -0.002430 0.000000 0.000000 0.000000
# 2 -0.000335 0.007333 -0.002430 0.000000 0.000000 0.000000
# 3 -0.002430 -0.002430 0.008385 0.000000 0.000000 0.000000
# 4 0.000000 0.000000 0.000000 0.038587 0.000000 0.000000
# 5 0.000000 0.000000 0.000000 0.000000 0.038587 0.000000
# 6 0.000000 0.000000 0.000000 0.000000 0.000000 -0.034828
#
#
# Mechanical properties :
#
#
# Convention : Reuss Voigt Hill
#
# Bulk Modulus (GPa) = 78.98730 79.39422 79.19076
# Shear Modulus (GPa) = 62.49432 26.66952 44.58192
#
# Velocity S-wave (km/s) = 4.92720 3.21875 4.16159
# Velocity P-wave (km/s) = 7.94066 6.68253 7.33861
#
# Compressibility (1/GPa) = 0.01266026
#
# Stress axis : x y z
#
# Youngs Moduli (GPa) = 136.37419 136.37419 119.26457
#
# Poissons Ratio (x) = 0.04575 0.28978
# Poissons Ratio (y) = 0.04575 0.28978
# Poissons Ratio (z) = 0.33136 0.33136
#
# Static dielectric constant tensor:
#      x y z
#    x 2.155260 0.000000 0.000000 
#    y 0.000000 2.155260 0.000000 
#    z 0.000000 0.000000 1.937260 
# 
# From -- ./inp_files/9416.got.cif
#   From: 2010.05.17/outbox.cif.g08.bks.cpg/sg122_5_cif.got.tgz:9416.got - 2010.05.20 11:37:33.
