data_PCOD9561023
_publ_section_title
;
Structure prediction by ZEFSAII (Michael W. Deem and Ramdas Pophale) SiO2 
 PCOD9561023
Probable space group: I -4 2 D
;
_chemical_formula_sum "Si O2"
_cell_formula_units_Z 80
_cell_length_a 17.199174
_cell_length_b 17.199174
_cell_length_c 12.902481
_cell_angle_alpha 90.000000
_cell_angle_beta 90.000000
_cell_angle_gamma 90.000000
_cell_volume 3816.703372
_symmetry_space_group_name_H-M "I -4 2 D"
_symmetry_group_IT_number 122
_symmetry_cell_setting 'tetragonal'
loop_
_space_group_symop_operation_xyz
x,y,z
y,-x,-z
-x,-y,z
-y,x,-z
x,1/2-y,1/4-z
-x,1/2+y,1/4-z
-y,1/2-x,1/4+z
y,1/2+x,1/4+z
1/2+x,1/2+y,1/2+z
1/2+y,1/2-x,1/2-z
1/2-x,1/2-y,1/2+z
1/2-y,1/2+x,1/2-z
1/2+x,-y,3/4-z
1/2-x,y,3/4-z
1/2-y,-x,3/4+z
1/2+y,x,3/4+z
loop_
_atom_site_type_symbol
_atom_site_label
_atom_site_fract_x
_atom_site_fract_y
_atom_site_fract_z
Si Si1 0.984573 0.830972 0.076243
Si Si2 0.962876 0.368398 0.399795
Si Si3 0.713158 0.099145 0.258635
Si Si4 0.074321 0.798173 0.431371
Si Si5 0.620759 0.372629 0.713850
O O1 0.955002 0.750000 0.125000
O O2 0.935690 0.904079 0.118324
O O3 0.071689 0.842361 0.118068
O O4 0.992033 0.837303 0.953041
O O5 0.915451 0.294484 0.440510
O O6 0.033861 0.392272 0.474301
O O7 0.750000 0.091079 0.375000
O O8 0.638712 0.153996 0.256780
O O9 0.787026 0.135773 0.200192
O O10 0.690221 0.014362 0.217082
O O11 0.088639 0.827239 0.313798
#
# Coordination Sequence:
#
# PCOD9561023 Si02
#       5
#    16  16  16  16  16
#     4  12  23  39  62  95 128 166 212 260 316 385
#     4  11  23  40  64  95 128 164 210 263 319 380
#     4   9  21  42  65  90 127 164 208 267 317 377
#     4  10  21  44  65  91 126 164 213 263 321 385
#     4  10  21  40  65  88 125 166 208 259 316 376
#
# _framework density 20.960498000000001
#
# number of rings (size 3 to 8) (size 9 to 14) (size 15 to 20)
#    0.000    1.600    4.000    0.600    0.000    2.800 
#   18.000    1.000    0.000    0.000    0.000    0.000 
#    0.000    0.000    0.000    0.000    0.000    0.000 
#
# Total GULP energy -223314.777453 kJ/mol
# GULP energy per Si atom -5582.869436 kJ/mol
# Density = 2.091279 g / cm^3
# Si number density = 20.960498 Si / 1000 Ang^3
#
#
#
# Elastic Constant Matrix: (Units=GPa)
#
#
# Indices 1 2 3 4 5 6 
#
# 1 70.3736 46.2264 5.3436 0.0000 0.0000 0.0000
# 2 46.2264 70.3736 5.3436 0.0000 0.0000 0.0000
# 3 5.3436 5.3436 15.0415 0.0000 0.0000 0.0000
# 4 0.0000 0.0000 0.0000 30.1191 0.0000 0.0000
# 5 0.0000 0.0000 0.0000 0.0000 30.1191 0.0000
# 6 0.0000 0.0000 0.0000 0.0000 0.0000 31.6363
#
#
#
# Elastic Compliance Matrix: (Units=1/GPa)
#
#
# Indices 1 2 3 4 5 6 
#
# 1 0.025139 -0.016274 -0.003149 0.000000 0.000000 0.000000
# 2 -0.016274 0.025139 -0.003149 0.000000 0.000000 0.000000
# 3 -0.003149 -0.003149 0.068720 0.000000 0.000000 0.000000
# 4 0.000000 0.000000 0.000000 0.033201 0.000000 0.000000
# 5 0.000000 0.000000 0.000000 0.000000 0.033201 0.000000
# 6 0.000000 0.000000 0.000000 0.000000 0.000000 0.031609
#
#
# Mechanical properties :
#
#
# Convention : Reuss Voigt Hill
#
# Bulk Modulus (GPa) = 13.54042 29.95733 21.74887
# Shear Modulus (GPa) = 17.43540 24.96658 21.20099
#
# Velocity S-wave (km/s) = 2.88726 3.45501 3.18382
# Velocity P-wave (km/s) = 4.19393 5.49904 4.89022
#
# Compressibility (1/GPa) = 0.07385295
#
# Stress axis : x y z
#
# Youngs Moduli (GPa) = 39.77915 39.77915 14.55174
#
# Poissons Ratio (x) = 0.64736 0.04583
# Poissons Ratio (y) = 0.64736 0.04583
# Poissons Ratio (z) = 0.12528 0.12528
#
# Static dielectric constant tensor:
#      x y z
#    x 1.750030 0.000000 0.000000 
#    y 0.000000 1.750030 0.000000 
#    z 0.000000 0.000000 1.815520 
# 
# From -- ./inp_files/5296.got.cif
#   From: 2010.05.17/outbox.cif.g08.bks.cpg/sg122_3_cif.got.tgz:5296.got - 2010.05.20 11:37:33.
