data_PCOD9561909
_publ_section_title
;
Structure prediction by ZEFSAII (Michael W. Deem and Ramdas Pophale) SiO2 
 PCOD9561909
Probable space group: P 4/M M M
;
_chemical_formula_sum "Si O2"
_cell_formula_units_Z 112
_cell_length_a 15.997173
_cell_length_b 15.997173
_cell_length_c 24.594355
_cell_angle_alpha 90.000000
_cell_angle_beta 90.000000
_cell_angle_gamma 90.000000
_cell_volume 6293.930173
_symmetry_space_group_name_H-M "P 4/M M M"
_symmetry_group_IT_number 123
_symmetry_cell_setting 'tetragonal'
loop_
_space_group_symop_operation_xyz
x,y,z
-y,x,z
-x,-y,z
y,-x,z
x,-y,-z
-x,y,-z
y,x,-z
-y,-x,-z
-x,-y,-z
y,-x,-z
x,y,-z
-y,x,-z
-x,y,z
x,-y,z
-y,-x,z
y,x,z
loop_
_atom_site_type_symbol
_atom_site_label
_atom_site_fract_x
_atom_site_fract_y
_atom_site_fract_z
Si Si1 0.137412 0.407047 0.753947
Si Si2 0.773469 0.091442 0.584510
Si Si3 0.590110 0.727496 0.661760
Si Si4 0.903335 0.766604 0.065588
Si Si5 0.591957 0.852881 0.560265
Si Si6 0.407286 0.100138 0.123375
Si Si7 0.774033 0.091090 0.284196
O O1 0.099036 0.500000 0.742595
O O2 0.220165 0.405601 0.717310
O O3 0.146270 0.402915 0.818751
O O4 0.093675 0.321014 0.736761
O O5 0.832473 0.167528 0.565794
O O6 0.677954 0.096855 0.564754
O O7 0.770390 0.096495 0.650260
O O8 0.808006 0.000000 0.569905
O O9 0.500000 0.684707 0.659358
O O10 0.665165 0.665165 0.658787
O O11 0.595141 0.789608 0.610547
O O12 0.837779 0.837779 0.083657
O O13 0.881066 0.674517 0.088100
O O14 0.000000 0.784884 0.081698
O O15 0.901418 0.764022 0.000000
O O16 0.593201 0.813003 0.500000
O O17 0.500000 0.895741 0.564532
O O18 0.500000 0.116585 0.099054
O O19 0.404548 0.000000 0.134884
O O20 0.832397 0.167604 0.264889
O O21 0.810322 0.000000 0.269783
#
# Coordination Sequence:
#
# PCOD9561909 Si02
#       7
#    16  16  16  16  16  16  16
#     4  10  19  32  52  77 103 130 166 215 264 311
#     4  10  21  36  54  76 102 134 170 207 249 298
#     4  10  20  34  52  75 102 132 166 205 254 313
#     4   9  18  32  50  75 108 145 184 223 262 306
#     4  10  21  37  57  80 103 128 162 208 262 317
#     4   9  18  32  50  74 103 135 174 219 267 313
#     4  10  20  33  50  72 100 134 170 208 250 298
#
# _framework density 17.794924000000002
#
# number of rings (size 3 to 8) (size 9 to 14) (size 15 to 20)
#    0.000    2.286    1.429    1.286    0.000    4.571 
#    0.000    5.714    0.000    0.000    0.000    5.000 
#    0.000    0.286    0.000    1.571    0.000    1.286 
#
# Total GULP energy -623559.519239 kJ/mol
# GULP energy per Si atom -5567.495707 kJ/mol
# Density = 1.775442 g / cm^3
# Si number density = 17.794924 Si / 1000 Ang^3
#
#
#
# Elastic Constant Matrix: (Units=GPa)
#
#
# Indices 1 2 3 4 5 6 
#
# 1 107.6636 73.4559 26.3579 0.0000 0.0000 0.0000
# 2 73.4559 107.6636 26.3579 0.0000 0.0000 0.0000
# 3 26.3579 26.3579 32.6419 0.0000 0.0000 0.0000
# 4 0.0000 0.0000 0.0000 -486.4173 0.0000 0.0000
# 5 0.0000 0.0000 0.0000 0.0000 -486.4173 0.0000
# 6 0.0000 0.0000 0.0000 0.0000 0.0000 4.3155
#
#
#
# Elastic Compliance Matrix: (Units=1/GPa)
#
#
# Indices 1 2 3 4 5 6 
#
# 1 0.018225 -0.011008 -0.005828 0.000000 0.000000 0.000000
# 2 -0.011008 0.018225 -0.005828 0.000000 0.000000 0.000000
# 3 -0.005828 -0.005828 0.040048 0.000000 0.000000 0.000000
# 4 0.000000 0.000000 0.000000 -0.002056 0.000000 0.000000
# 5 0.000000 0.000000 0.000000 0.000000 -0.002056 0.000000
# 6 0.000000 0.000000 0.000000 0.000000 0.000000 0.231721
#
#
# Mechanical properties :
#
#
# Convention : Reuss Voigt Hill
#
# Bulk Modulus (GPa) = 32.08166 55.59030 43.83598
# Shear Modulus (GPa) = 13.89562 -185.58399 -85.84418
#
# Velocity S-wave (km/s) = 2.79745 -10.22335 -6.95310
# Velocity P-wave (km/s) = 5.33872 10.39464 6.30661
#
# Compressibility (1/GPa) = 0.03117046
#
# Stress axis : x y z
#
# Youngs Moduli (GPa) = 54.86859 54.86859 24.97024
#
# Poissons Ratio (x) = 0.60399 0.14553
# Poissons Ratio (y) = 0.60399 0.14553
# Poissons Ratio (z) = 0.31978 0.31978
#
# Static dielectric constant tensor:
#      x y z
#    x 1.617930 0.000000 0.000000 
#    y 0.000000 1.617930 0.000000 
#    z 0.000000 0.000000 1.611710 
# 
# From -- ./inp_files/7475.got.cif
#   From: 2010.05.17/outbox.cif.g08.bks.cpg/sg123_4_cif.got.tgz:7475.got - 2010.05.20 11:43:04.
