data_PCOD9561123
_publ_section_title
;
Structure prediction by ZEFSAII (Michael W. Deem and Ramdas Pophale) SiO2 
 PCOD9561123
Probable space group: I -4 2 D
;
_chemical_formula_sum "Si O2"
_cell_formula_units_Z 116
_cell_length_a 17.202526
_cell_length_b 17.202526
_cell_length_c 17.891282
_cell_angle_alpha 90.000000
_cell_angle_beta 90.000000
_cell_angle_gamma 90.000000
_cell_volume 5294.511633
_symmetry_space_group_name_H-M "I -4 2 D"
_symmetry_group_IT_number 122
_symmetry_cell_setting 'tetragonal'
loop_
_space_group_symop_operation_xyz
x,y,z
y,-x,-z
-x,-y,z
-y,x,-z
x,1/2-y,1/4-z
-x,1/2+y,1/4-z
-y,1/2-x,1/4+z
y,1/2+x,1/4+z
1/2+x,1/2+y,1/2+z
1/2+y,1/2-x,1/2-z
1/2-x,1/2-y,1/2+z
1/2-y,1/2+x,1/2-z
1/2+x,-y,3/4-z
1/2-x,y,3/4-z
1/2-y,-x,3/4+z
1/2+y,x,3/4+z
loop_
_atom_site_type_symbol
_atom_site_label
_atom_site_fract_x
_atom_site_fract_y
_atom_site_fract_z
Si Si1 0.962341 0.312675 0.922085
Si Si2 0.362884 0.736447 0.538144
Si Si3 0.670315 0.580781 0.681642
Si Si4 0.407860 0.519958 0.802106
Si Si5 0.410135 0.914125 0.776965
Si Si6 0.692548 0.234134 0.214831
Si Si7 0.000000 0.500000 0.750000
Si Si8 0.090609 0.111315 0.409561
O O1 0.939720 0.249748 0.860627
O O2 0.910227 0.390586 0.925685
O O3 0.051294 0.335252 0.904106
O O4 0.938825 0.271551 0.999023
O O5 0.368664 0.750000 0.625000
O O6 0.356947 0.645914 0.517775
O O7 0.281751 0.772774 0.510213
O O8 0.637219 0.508238 0.728863
O O9 0.608080 0.598291 0.614979
O O10 0.698985 0.648249 0.738602
O O11 0.500000 0.500000 0.791438
O O12 0.376165 0.464837 0.868204
O O13 0.497842 0.896438 0.747855
O O14 0.692062 0.250000 0.125000
O O15 0.649863 0.151084 0.214996
O O16 0.983204 0.576634 0.796813
#
# Coordination Sequence:
#
# PCOD9561123 Si02
#       8
#    16  16  16  16  16  16   4  16
#     4  10  23  42  66 102 132 184 243 288 362 435
#     4  10  25  44  67 101 145 185 235 300 368 438
#     4  11  24  44  70 103 144 188 237 302 375 438
#     4  10  22  41  67  99 136 181 243 286 358 446
#     4  10  25  47  72 105 139 184 249 307 373 444
#     4  11  24  43  66 101 147 191 236 296 376 442
#     4  12  20  40  64  96 144 168 234 284 356 420
#     4  11  22  41  64  99 138 184 229 297 349 437
#
# _framework density 21.909481
#
# number of rings (size 3 to 8) (size 9 to 14) (size 15 to 20)
#    0.000    1.517    3.448    0.828    5.793    6.621 
#    2.483    1.379    0.000    0.000    0.000    0.000 
#    0.000    0.000    0.000    0.000    0.000    0.000 
#
# Total GULP energy -323530.040761 kJ/mol
# GULP energy per Si atom -5578.104151 kJ/mol
# Density = 2.185961 g / cm^3
# Si number density = 21.909481 Si / 1000 Ang^3
#
#
#
# Elastic Constant Matrix: (Units=GPa)
#
#
# Indices 1 2 3 4 5 6 
#
# 1 85.5254 29.9419 36.4067 0.0000 0.0000 0.0000
# 2 29.9419 85.5254 36.4067 0.0000 0.0000 0.0000
# 3 36.4067 36.4067 102.2156 0.0000 0.0000 0.0000
# 4 0.0000 0.0000 0.0000 34.5297 0.0000 0.0000
# 5 0.0000 0.0000 0.0000 0.0000 34.5297 0.0000
# 6 0.0000 0.0000 0.0000 0.0000 0.0000 21.2714
#
#
#
# Elastic Compliance Matrix: (Units=1/GPa)
#
#
# Indices 1 2 3 4 5 6 
#
# 1 0.014580 -0.003411 -0.003978 0.000000 0.000000 0.000000
# 2 -0.003411 0.014580 -0.003978 0.000000 0.000000 0.000000
# 3 -0.003978 -0.003978 0.012617 0.000000 0.000000 0.000000
# 4 0.000000 0.000000 0.000000 0.028961 0.000000 0.000000
# 5 0.000000 0.000000 0.000000 0.000000 0.028961 0.000000
# 6 0.000000 0.000000 0.000000 0.000000 0.000000 0.047011
#
#
# Mechanical properties :
#
#
# Convention : Reuss Voigt Hill
#
# Bulk Modulus (GPa) = 52.51378 53.19746 52.85562
# Shear Modulus (GPa) = 28.44273 29.43355 28.93814
#
# Velocity S-wave (km/s) = 3.60695 3.66924 3.63823
# Velocity P-wave (km/s) = 6.43175 6.50264 6.46729
#
# Compressibility (1/GPa) = 0.01904262
#
# Stress axis : x y z
#
# Youngs Moduli (GPa) = 68.58710 68.58710 79.25757
#
# Poissons Ratio (x) = 0.23395 0.31530
# Poissons Ratio (y) = 0.23395 0.31530
# Poissons Ratio (z) = 0.27285 0.27285
#
# Static dielectric constant tensor:
#      x y z
#    x 1.816960 0.000000 0.000000 
#    y 0.000000 1.816960 0.000000 
#    z 0.000000 0.000000 1.852760 
# 
# From -- ./inp_files/6455.got.cif
#   From: 2010.05.17/outbox.cif.g08.bks.cpg/sg122_4_cif.got.tgz:6455.got - 2010.05.20 11:37:33.
