data_PCOD9561560
_publ_section_title
;
Structure prediction by ZEFSAII (Michael W. Deem and Ramdas Pophale) SiO2 
 PCOD9561560
Probable space group: I -4 2 D
;
_chemical_formula_sum "Si O2"
_cell_formula_units_Z 52
_cell_length_a 20.474236
_cell_length_b 20.474236
_cell_length_c 4.776266
_cell_angle_alpha 90.000000
_cell_angle_beta 90.000000
_cell_angle_gamma 90.000000
_cell_volume 2002.183673
_symmetry_space_group_name_H-M "I -4 2 D"
_symmetry_group_IT_number 122
_symmetry_cell_setting 'tetragonal'
loop_
_space_group_symop_operation_xyz
x,y,z
y,-x,-z
-x,-y,z
-y,x,-z
x,1/2-y,1/4-z
-x,1/2+y,1/4-z
-y,1/2-x,1/4+z
y,1/2+x,1/4+z
1/2+x,1/2+y,1/2+z
1/2+y,1/2-x,1/2-z
1/2-x,1/2-y,1/2+z
1/2-y,1/2+x,1/2-z
1/2+x,-y,3/4-z
1/2-x,y,3/4-z
1/2-y,-x,3/4+z
1/2+y,x,3/4+z
loop_
_atom_site_type_symbol
_atom_site_label
_atom_site_fract_x
_atom_site_fract_y
_atom_site_fract_z
Si Si1 0.500000 0.000000 0.750000
Si Si2 0.365306 0.250000 0.625000
Si Si3 0.110797 0.820036 0.757814
Si Si4 0.544878 0.750000 0.125000
Si Si5 0.865148 0.533667 0.550988
O O1 0.507318 0.066216 0.565976
O O2 0.323681 0.312292 0.705586
O O3 0.488315 0.187722 0.284979
O O4 0.096556 0.750000 0.625000
O O5 0.088846 0.874878 0.536920
O O6 0.068763 0.830297 0.037069
O O7 0.589803 0.723450 0.374225
#
# Coordination Sequence:
#
# PCOD9561560 Si02
#       5
#     4   8  16   8  16
#     4  12  32  58  84 134 176 238 292 390 424 542
#     4  12  28  51  84 122 161 210 288 350 430 510
#     4  12  28  53  83 122 165 223 281 359 429 534
#     4  12  26  53  82 124 167 230 278 354 434 546
#     4  12  28  54  84 121 172 225 292 345 451 518
#
# _framework density 25.971641999999999
#
# number of rings (size 3 to 8) (size 9 to 14) (size 15 to 20)
#    0.000    0.000    1.538    6.462    0.000    9.846 
#    0.000    3.077    0.000    0.000    0.000    0.000 
#    0.000    0.000    0.000    0.000    0.000    0.000 
#
# Total GULP energy -145641.140787 kJ/mol
# GULP energy per Si atom -5601.582338 kJ/mol
# Density = 2.591253 g / cm^3
# Si number density = 25.971642 Si / 1000 Ang^3
#
#
#
# Elastic Constant Matrix: (Units=GPa)
#
#
# Indices 1 2 3 4 5 6 
#
# 1 159.1331 88.7686 76.8468 0.0000 0.0000 0.0000
# 2 88.7686 159.1331 76.8468 0.0000 0.0000 0.0000
# 3 76.8468 76.8468 214.6642 0.0000 0.0000 0.0000
# 4 0.0000 0.0000 0.0000 90.7017 0.0000 0.0000
# 5 0.0000 0.0000 0.0000 0.0000 90.7017 0.0000
# 6 0.0000 0.0000 0.0000 0.0000 0.0000 94.1141
#
#
#
# Elastic Compliance Matrix: (Units=1/GPa)
#
#
# Indices 1 2 3 4 5 6 
#
# 1 0.009698 -0.004514 -0.001856 0.000000 0.000000 0.000000
# 2 -0.004514 0.009698 -0.001856 0.000000 0.000000 0.000000
# 3 -0.001856 -0.001856 0.005987 0.000000 0.000000 0.000000
# 4 0.000000 0.000000 0.000000 0.011025 0.000000 0.000000
# 5 0.000000 0.000000 0.000000 0.000000 0.011025 0.000000
# 6 0.000000 0.000000 0.000000 0.000000 0.000000 0.010625
#
#
# Mechanical properties :
#
#
# Convention : Reuss Voigt Hill
#
# Bulk Modulus (GPa) = 111.95231 113.09500 112.52365
# Shear Modulus (GPa) = 64.52628 74.46806 69.49717
#
# Velocity S-wave (km/s) = 4.98987 5.36051 5.17851
# Velocity P-wave (km/s) = 8.74057 9.05282 8.89807
#
# Compressibility (1/GPa) = 0.00893238
#
# Stress axis : x y z
#
# Youngs Moduli (GPa) = 103.11280 103.11280 167.02084
#
# Poissons Ratio (x) = 0.46541 0.30999
# Poissons Ratio (y) = 0.46541 0.30999
# Poissons Ratio (z) = 0.19138 0.19138
#
# Static dielectric constant tensor:
#      x y z
#    x 1.439060 0.000000 0.000000 
#    y 0.000000 1.439060 0.000000 
#    z 0.000000 0.000000 1.762650 
# 
# From -- ./inp_files/2236.got.cif
#   From: 2010.05.17/outbox.cif.g08.bks.cpg/sg122_2_cif.got.tgz:2236.got - 2010.05.20 11:37:33.
