data_PCOD9561747
_publ_section_title
;
Structure prediction by ZEFSAII (Michael W. Deem and Ramdas Pophale) SiO2 
 PCOD9561747
Probable space group: P 4/M M M
;
_chemical_formula_sum "Si O2"
_cell_formula_units_Z 64
_cell_length_a 12.815443
_cell_length_b 12.815443
_cell_length_c 24.233246
_cell_angle_alpha 90.000000
_cell_angle_beta 90.000000
_cell_angle_gamma 90.000000
_cell_volume 3979.961195
_symmetry_space_group_name_H-M "P 4/M M M"
_symmetry_group_IT_number 123
_symmetry_cell_setting 'tetragonal'
loop_
_space_group_symop_operation_xyz
x,y,z
-y,x,z
-x,-y,z
y,-x,z
x,-y,-z
-x,y,-z
y,x,-z
-y,-x,-z
-x,-y,-z
y,-x,-z
x,y,-z
-y,x,-z
-x,y,z
x,-y,z
-y,-x,z
y,x,z
loop_
_atom_site_type_symbol
_atom_site_label
_atom_site_fract_x
_atom_site_fract_y
_atom_site_fract_z
Si Si1 0.120836 0.500000 0.137897
Si Si2 0.671823 0.500000 0.933610
Si Si3 0.786710 0.624292 0.322195
Si Si4 0.292282 0.119146 0.787934
Si Si5 0.879194 0.626470 0.560250
O O1 0.214887 0.500000 0.094139
O O2 0.132800 0.396262 0.175272
O O3 0.000000 0.500000 0.116767
O O4 0.601277 0.601277 0.918298
O O5 0.681298 0.500000 0.000000
O O6 0.788505 0.500000 0.317778
O O7 0.672871 0.672871 0.312349
O O8 0.860099 0.672927 0.275248
O O9 0.822526 0.655861 0.383566
O O10 0.203374 0.203374 0.801970
O O11 0.256034 0.000000 0.794391
O O12 0.838027 0.660133 0.500000
O O13 0.877917 0.500000 0.559721
O O14 0.000000 0.658860 0.563711
#
# Coordination Sequence:
#
# PCOD9561747 Si02
#       5
#     8   8  16  16  16
#     4  10  19  32  52  76 104 134 167 207 243 288
#     4   9  18  33  53  77 107 141 172 204 242 282
#     4  10  19  30  44  62  89 122 156 198 244 292
#     4  10  20  33  50  72  97 128 164 203 249 294
#     4   8  14  25  42  61  78 102 142 192 242 290
#
# _framework density 16.080558
#
# number of rings (size 3 to 8) (size 9 to 14) (size 15 to 20)
#    0.000    2.625    1.250    2.625    0.000    2.250 
#    0.000    0.000    0.000    0.000    0.000    3.500 
#    0.000    0.000    0.000   46.500    0.000    1.250 
#
# Total GULP energy -356287.245769 kJ/mol
# GULP energy per Si atom -5566.988215 kJ/mol
# Density = 1.604396 g / cm^3
# Si number density = 16.080558 Si / 1000 Ang^3
#
#
#
# Elastic Constant Matrix: (Units=GPa)
#
#
# Indices 1 2 3 4 5 6 
#
# 1 95.7410 64.0166 34.8852 0.0000 0.0000 0.0000
# 2 64.0166 95.7410 34.8852 0.0000 0.0000 0.0000
# 3 34.8852 34.8852 59.1847 0.0000 0.0000 0.0000
# 4 0.0000 0.0000 0.0000 21.4006 0.0000 0.0000
# 5 0.0000 0.0000 0.0000 0.0000 21.4006 0.0000
# 6 0.0000 0.0000 0.0000 0.0000 0.0000 18.9707
#
#
#
# Elastic Compliance Matrix: (Units=1/GPa)
#
#
# Indices 1 2 3 4 5 6 
#
# 1 0.019975 -0.011546 -0.004969 0.000000 0.000000 0.000000
# 2 -0.011546 0.019975 -0.004969 0.000000 0.000000 0.000000
# 3 -0.004969 -0.004969 0.022753 0.000000 0.000000 0.000000
# 4 0.000000 0.000000 0.000000 0.046728 0.000000 0.000000
# 5 0.000000 0.000000 0.000000 0.000000 0.046728 0.000000
# 6 0.000000 0.000000 0.000000 0.000000 0.000000 0.052713
#
#
# Mechanical properties :
#
#
# Convention : Reuss Voigt Hill
#
# Bulk Modulus (GPa) = 50.66342 57.58230 54.12286
# Shear Modulus (GPa) = 19.34849 20.14636 19.74742
#
# Velocity S-wave (km/s) = 3.47251 3.54339 3.50813
# Velocity P-wave (km/s) = 6.90306 7.25446 7.08094
#
# Compressibility (1/GPa) = 0.01973811
#
# Stress axis : x y z
#
# Youngs Moduli (GPa) = 50.06150 50.06150 43.94933
#
# Poissons Ratio (x) = 0.57801 0.21836
# Poissons Ratio (y) = 0.57801 0.21836
# Poissons Ratio (z) = 0.24873 0.24873
#
# Static dielectric constant tensor:
#      x y z
#    x 1.528970 0.000000 0.000000 
#    y 0.000000 1.528970 0.000000 
#    z 0.000000 0.000000 1.544060 
# 
# From -- ./inp_files/7058.got.cif
#   From: 2010.05.17/outbox.cif.g08.bks.cpg/sg123_4_cif.got.tgz:7058.got - 2010.05.20 11:43:04.
