data_PCOD9561940
_publ_section_title
;
Structure prediction by ZEFSAII (Michael W. Deem and Ramdas Pophale) SiO2 
 PCOD9561940
Probable space group: P 4/M M M
;
_chemical_formula_sum "Si O2"
_cell_formula_units_Z 68
_cell_length_a 17.705800
_cell_length_b 17.705800
_cell_length_c 10.524963
_cell_angle_alpha 90.000000
_cell_angle_beta 90.000000
_cell_angle_gamma 90.000000
_cell_volume 3299.526998
_symmetry_space_group_name_H-M "P 4/M M M"
_symmetry_group_IT_number 123
_symmetry_cell_setting 'tetragonal'
loop_
_space_group_symop_operation_xyz
x,y,z
-y,x,z
-x,-y,z
y,-x,z
x,-y,-z
-x,y,-z
y,x,-z
-y,-x,-z
-x,-y,-z
y,-x,-z
x,y,-z
-y,x,-z
-x,y,z
x,-y,z
-y,-x,z
y,x,z
loop_
_atom_site_type_symbol
_atom_site_label
_atom_site_fract_x
_atom_site_fract_y
_atom_site_fract_z
Si Si1 0.210115 0.086614 0.727050
Si Si2 0.243787 0.415612 0.275889
Si Si3 0.217785 0.590413 0.000000
Si Si4 0.620216 0.083976 0.353839
Si Si5 0.912339 0.285140 0.000000
Si Si6 0.686799 0.686799 0.500000
O O1 0.147981 0.147981 0.689938
O O2 0.288918 0.093980 0.652187
O O3 0.183323 0.000000 0.712415
O O4 0.235102 0.098544 0.873660
O O5 0.272474 0.500000 0.302233
O O6 0.152586 0.415329 0.279196
O O7 0.269322 0.360997 0.387345
O O8 0.262265 0.394284 0.131064
O O9 0.145518 0.645648 0.000000
O O10 0.200267 0.500000 0.000000
O O11 0.595799 0.087167 0.500000
O O12 0.604004 0.000000 0.303430
O O13 0.000000 0.310289 0.000000
#
# Coordination Sequence:
#
# PCOD9561940 Si02
#       6
#    16  16   8  16   8   4
#     4  10  21  35  53  79 114 161 219 277 326 375
#     4  11  24  42  65  97 131 167 212 259 313 382
#     4  10  22  39  61  94 134 164 198 255 323 391
#     4  10  21  36  57  87 123 165 213 270 329 386
#     4  10  19  34  53  80 115 159 213 260 319 391
#     4  12  26  42  66  95 128 172 213 256 292 366
#
# _framework density 20.609013999999998
#
# number of rings (size 3 to 8) (size 9 to 14) (size 15 to 20)
#    0.000    1.647    3.529    0.706    1.647    1.882 
#    2.118    3.529    0.000    4.941    0.000    3.294 
#    0.000   11.294    0.000    0.000    0.000    0.000 
#
# Total GULP energy -378710.710560 kJ/mol
# GULP energy per Si atom -5569.275155 kJ/mol
# Density = 2.056211 g / cm^3
# Si number density = 20.609014 Si / 1000 Ang^3
#
#
#
# Elastic Constant Matrix: (Units=GPa)
#
#
# Indices 1 2 3 4 5 6 
#
# 1 56.4139 55.3252 15.0094 0.0000 0.0000 0.0000
# 2 55.3252 56.4139 15.0094 0.0000 0.0000 0.0000
# 3 15.0094 15.0094 123.1401 0.0000 0.0000 0.0000
# 4 0.0000 0.0000 0.0000 299.4850 0.0000 0.0000
# 5 0.0000 0.0000 0.0000 0.0000 299.4850 0.0000
# 6 0.0000 0.0000 0.0000 0.0000 0.0000 -6.8185
#
#
#
# Elastic Compliance Matrix: (Units=1/GPa)
#
#
# Indices 1 2 3 4 5 6 
#
# 1 0.463879 -0.454626 -0.001128 0.000000 0.000000 0.000000
# 2 -0.454626 0.463879 -0.001128 0.000000 0.000000 0.000000
# 3 -0.001128 -0.001128 0.008396 0.000000 0.000000 0.000000
# 4 0.000000 0.000000 0.000000 0.003339 0.000000 0.000000
# 5 0.000000 0.000000 0.000000 0.000000 0.003339 0.000000
# 6 0.000000 0.000000 0.000000 0.000000 0.000000 -0.146661
#
#
# Mechanical properties :
#
#
# Convention : Reuss Voigt Hill
#
# Bulk Modulus (GPa) = 44.66379 45.18397 44.92388
# Shear Modulus (GPa) = 2.91138 128.47193 65.69165
#
# Velocity S-wave (km/s) = 1.18985 7.90399 5.65194
# Velocity P-wave (km/s) = 4.85867 10.26009 8.02733
#
# Compressibility (1/GPa) = 0.02238950
#
# Stress axis : x y z
#
# Youngs Moduli (GPa) = 2.15574 2.15574 119.10783
#
# Poissons Ratio (x) = 0.98005 0.13433
# Poissons Ratio (y) = 0.98005 0.13433
# Poissons Ratio (z) = 0.00243 0.00243
#
# Static dielectric constant tensor:
#      x y z
#    x 1.734800 0.000000 0.000000 
#    y 0.000000 1.734800 0.000000 
#    z 0.000000 0.000000 1.768690 
# 
# From -- ./inp_files/2796.got.cif
#   From: 2010.05.17/outbox.cif.g08.bks.cpg/sg123_2_cif.got.tgz:2796.got - 2010.05.20 11:43:04.
