data_PCOD9561604
_publ_section_title
;
Structure prediction by ZEFSAII (Michael W. Deem and Ramdas Pophale) SiO2 
 PCOD9561604
Probable space group: P 4/M M M
;
_chemical_formula_sum "Si O2"
_cell_formula_units_Z 58
_cell_length_a 14.670762
_cell_length_b 14.670762
_cell_length_c 15.202599
_cell_angle_alpha 90.000000
_cell_angle_beta 90.000000
_cell_angle_gamma 90.000000
_cell_volume 3272.074502
_symmetry_space_group_name_H-M "P 4/M M M"
_symmetry_group_IT_number 123
_symmetry_cell_setting 'tetragonal'
loop_
_space_group_symop_operation_xyz
x,y,z
-y,x,z
-x,-y,z
y,-x,z
x,-y,-z
-x,y,-z
y,x,-z
-y,-x,-z
-x,-y,-z
y,-x,-z
x,y,-z
-y,x,-z
-x,y,z
x,-y,z
-y,-x,z
y,x,z
loop_
_atom_site_type_symbol
_atom_site_label
_atom_site_fract_x
_atom_site_fract_y
_atom_site_fract_z
Si Si1 0.895718 0.353940 0.102311
Si Si2 0.137623 0.137623 0.899732
Si Si3 0.000000 0.000000 0.823961
Si Si4 0.610768 0.897288 0.398787
Si Si5 0.244295 0.395851 0.748726
O O1 0.882548 0.244601 0.108430
O O2 0.821340 0.395465 0.166524
O O3 0.000000 0.377294 0.126838
O O4 0.882576 0.379077 0.000000
O O5 0.079113 0.079113 0.833245
O O6 0.110433 0.110433 0.000000
O O7 0.637673 0.880133 0.500000
O O8 0.500000 0.898229 0.396576
O O9 0.639133 0.819683 0.331133
O O10 0.640831 0.000000 0.374198
O O11 0.272847 0.500000 0.730418
O O12 0.328839 0.328839 0.761315
#
# Coordination Sequence:
#
# PCOD9561604 Si02
#       5
#    16   8   2  16  16
#     4  10  20  34  53  77 106 138 174 218 271 327
#     4  10  17  26  44  72 104 137 167 201 248 312
#     4  12  17  24  48  80 108 140 177 202 249 336
#     4   8  15  31  56  83 107 130 161 207 264 322
#     4  11  23  37  54  76 105 142 185 232 277 321
#
# _framework density 17.725757000000002
#
# number of rings (size 3 to 8) (size 9 to 14) (size 15 to 20)
#    0.000    2.207    2.759    2.276    0.000    3.034 
#    0.000    1.379    0.000    0.000    0.000    5.793 
#    0.000    0.000    0.000    7.862    0.000    1.241 
#
# Total GULP energy -323046.623874 kJ/mol
# GULP energy per Si atom -5569.769377 kJ/mol
# Density = 1.768541 g / cm^3
# Si number density = 17.725757 Si / 1000 Ang^3
#
#
#
# Elastic Constant Matrix: (Units=GPa)
#
#
# Indices 1 2 3 4 5 6 
#
# 1 85.7961 40.4129 35.0253 0.0000 0.0000 0.0000
# 2 40.4129 85.7961 35.0253 0.0000 0.0000 0.0000
# 3 35.0253 35.0253 61.0088 0.0000 0.0000 0.0000
# 4 0.0000 0.0000 0.0000 10.7469 0.0000 0.0000
# 5 0.0000 0.0000 0.0000 0.0000 10.7469 0.0000
# 6 0.0000 0.0000 0.0000 0.0000 0.0000 -13.7627
#
#
#
# Elastic Compliance Matrix: (Units=1/GPa)
#
#
# Indices 1 2 3 4 5 6 
#
# 1 0.016832 -0.005203 -0.006676 0.000000 0.000000 0.000000
# 2 -0.005203 0.016832 -0.006676 0.000000 0.000000 0.000000
# 3 -0.006676 -0.006676 0.024057 0.000000 0.000000 0.000000
# 4 0.000000 0.000000 0.000000 0.093050 0.000000 0.000000
# 5 0.000000 0.000000 0.000000 0.000000 0.093050 0.000000
# 6 0.000000 0.000000 0.000000 0.000000 0.000000 -0.072660
#
#
# Mechanical properties :
#
#
# Convention : Reuss Voigt Hill
#
# Bulk Modulus (GPa) = 48.52068 50.39200 49.45634
# Shear Modulus (GPa) = 23.24070 9.68873 16.46472
#
# Velocity S-wave (km/s) = 3.62488 2.34046 3.05102
# Velocity P-wave (km/s) = 6.70463 5.98282 6.35398
#
# Compressibility (1/GPa) = 0.02060977
#
# Stress axis : x y z
#
# Youngs Moduli (GPa) = 59.41153 59.41153 41.56851
#
# Poissons Ratio (x) = 0.30911 0.27752
# Poissons Ratio (y) = 0.30911 0.27752
# Poissons Ratio (z) = 0.39664 0.39664
#
# Static dielectric constant tensor:
#      x y z
#    x 1.616210 0.000000 0.000000 
#    y 0.000000 1.616210 0.000000 
#    z 0.000000 0.000000 1.623820 
# 
# From -- ./inp_files/3808.got.cif
#   From: 2010.05.17/outbox.cif.g08.bks.cpg/sg123_2_cif.got.tgz:3808.got - 2010.05.20 11:43:04.
