data_PCOD9561770
_publ_section_title
;
Structure prediction by ZEFSAII (Michael W. Deem and Ramdas Pophale) SiO2 
 PCOD9561770
Probable space group: P 4/M M M
;
_chemical_formula_sum "Si O2"
_cell_formula_units_Z 88
_cell_length_a 14.118355
_cell_length_b 14.118355
_cell_length_c 29.108810
_cell_angle_alpha 90.000000
_cell_angle_beta 90.000000
_cell_angle_gamma 90.000000
_cell_volume 5802.199363
_symmetry_space_group_name_H-M "P 4/M M M"
_symmetry_group_IT_number 123
_symmetry_cell_setting 'tetragonal'
loop_
_space_group_symop_operation_xyz
x,y,z
-y,x,z
-x,-y,z
y,-x,z
x,-y,-z
-x,y,-z
y,x,-z
-y,-x,-z
-x,-y,-z
y,-x,-z
x,y,-z
-y,x,-z
-x,y,z
x,-y,z
-y,-x,z
y,x,z
loop_
_atom_site_type_symbol
_atom_site_label
_atom_site_fract_x
_atom_site_fract_y
_atom_site_fract_z
Si Si1 0.886233 0.731203 0.769263
Si Si2 0.114709 0.608364 0.680301
Si Si3 0.611787 0.232157 0.948724
Si Si4 0.885375 0.391443 0.500000
Si Si5 0.610071 0.887147 0.859219
Si Si6 0.114182 0.270283 0.590141
O O1 0.827983 0.827983 0.766427
O O2 0.858795 0.664026 0.726488
O O3 0.862651 0.676802 0.816523
O O4 0.000000 0.745844 0.767595
O O5 0.149822 0.500000 0.678920
O O6 0.139583 0.669065 0.635397
O O7 0.000000 0.603246 0.680509
O O8 0.500000 0.252304 0.945805
O O9 0.673523 0.326478 0.944864
O O10 0.636392 0.163898 0.906589
O O11 0.629482 0.191375 0.000000
O O12 0.850176 0.500000 0.500000
O O13 0.860105 0.332865 0.454477
O O14 0.000000 0.396895 0.500000
O O15 0.500000 0.864001 0.848400
O O16 0.615137 0.000000 0.865639
O O17 0.173427 0.173427 0.589710
O O18 0.000000 0.254491 0.589952
#
# Coordination Sequence:
#
# PCOD9561770 Si02
#       6
#    16  16  16   8  16  16
#     4  10  19  30  45  65  90 118 145 174 210 256
#     4   9  17  30  47  65  86 113 146 185 223 252
#     4   9  17  28  42  61  85 112 141 174 213 259
#     4   9  17  30  47  65  87 117 153 195 235 260
#     4   9  17  29  45  64  85 110 142 181 221 255
#     4  10  19  30  45  67  96 126 153 181 215 262
#
# _framework density 15.166663
#
# number of rings (size 3 to 8) (size 9 to 14) (size 15 to 20)
#    0.000    2.636    0.000    2.455    0.000    5.273 
#    0.000    2.727    0.000    4.909    0.000    0.000 
#    0.000   39.273    0.000   16.909    0.000    0.364 
#
# Total GULP energy -490118.064147 kJ/mol
# GULP energy per Si atom -5569.523456 kJ/mol
# Density = 1.513214 g / cm^3
# Si number density = 15.166663 Si / 1000 Ang^3
#
#
#
# Elastic Constant Matrix: (Units=GPa)
#
#
# Indices 1 2 3 4 5 6 
#
# 1 61.5195 42.6175 53.2092 0.0000 0.0000 0.0000
# 2 42.6175 61.5195 53.2092 0.0000 0.0000 0.0000
# 3 53.2092 53.2092 148.0050 0.0000 0.0000 0.0000
# 4 0.0000 0.0000 0.0000 16.7070 0.0000 0.0000
# 5 0.0000 0.0000 0.0000 0.0000 16.7070 0.0000
# 6 0.0000 0.0000 0.0000 0.0000 0.0000 16.8066
#
#
#
# Elastic Compliance Matrix: (Units=1/GPa)
#
#
# Indices 1 2 3 4 5 6 
#
# 1 0.034042 -0.018862 -0.005457 0.000000 0.000000 0.000000
# 2 -0.018862 0.034042 -0.005457 0.000000 0.000000 0.000000
# 3 -0.005457 -0.005457 0.010680 0.000000 0.000000 0.000000
# 4 0.000000 0.000000 0.000000 0.059855 0.000000 0.000000
# 5 0.000000 0.000000 0.000000 0.000000 0.059855 0.000000
# 6 0.000000 0.000000 0.000000 0.000000 0.000000 0.059500
#
#
# Mechanical properties :
#
#
# Convention : Reuss Voigt Hill
#
# Bulk Modulus (GPa) = 52.05460 63.23510 57.64485
# Shear Modulus (GPa) = 15.43534 18.17799 16.80666
#
# Velocity S-wave (km/s) = 3.19363 3.46576 3.33247
# Velocity P-wave (km/s) = 6.92786 7.60259 7.27305
#
# Compressibility (1/GPa) = 0.01921060
#
# Stress axis : x y z
#
# Youngs Moduli (GPa) = 29.37560 29.37560 93.63003
#
# Poissons Ratio (x) = 0.55409 0.51095
# Poissons Ratio (y) = 0.55409 0.51095
# Poissons Ratio (z) = 0.16031 0.16031
#
# Static dielectric constant tensor:
#      x y z
#    x 1.485690 0.000000 0.000000 
#    y 0.000000 1.485690 0.000000 
#    z 0.000000 0.000000 1.515940 
# 
# From -- ./inp_files/7179.got.cif
#   From: 2010.05.17/outbox.cif.g08.bks.cpg/sg123_4_cif.got.tgz:7179.got - 2010.05.20 11:43:04.
