data_PCOD9561332
_publ_section_title
;
Structure prediction by ZEFSAII (Michael W. Deem and Ramdas Pophale) SiO2 
 PCOD9561332
Probable space group: I -4 2 D
;
_chemical_formula_sum "Si O2"
_cell_formula_units_Z 32
_cell_length_a 13.000935
_cell_length_b 13.000935
_cell_length_c 6.900750
_cell_angle_alpha 90.000000
_cell_angle_beta 90.000000
_cell_angle_gamma 90.000000
_cell_volume 1166.394513
_symmetry_space_group_name_H-M "I -4 2 D"
_symmetry_group_IT_number 122
_symmetry_cell_setting 'tetragonal'
loop_
_space_group_symop_operation_xyz
x,y,z
y,-x,-z
-x,-y,z
-y,x,-z
x,1/2-y,1/4-z
-x,1/2+y,1/4-z
-y,1/2-x,1/4+z
y,1/2+x,1/4+z
1/2+x,1/2+y,1/2+z
1/2+y,1/2-x,1/2-z
1/2-x,1/2-y,1/2+z
1/2-y,1/2+x,1/2-z
1/2+x,-y,3/4-z
1/2-x,y,3/4-z
1/2-y,-x,3/4+z
1/2+y,x,3/4+z
loop_
_atom_site_type_symbol
_atom_site_label
_atom_site_fract_x
_atom_site_fract_y
_atom_site_fract_z
Si Si1 0.363182 0.205558 0.865674
Si Si2 0.488289 0.377750 0.765056
O O1 0.250000 0.255066 0.875000
O O2 0.439773 0.298262 0.917044
O O3 0.415758 0.150673 0.672669
O O4 0.344895 0.104973 0.990991
O O5 0.500000 0.500000 0.790504
#
# Coordination Sequence:
#
# PCOD9561332 Si02
#       2
#    16  16
#     4  11  19  34  63  98 123 166 220 272 319 389
#     4  11  19  35  64  94 126 170 224 264 320 393
#
# _framework density 27.434971999999998
#
# number of rings (size 3 to 8) (size 9 to 14) (size 15 to 20)
#    0.000    1.000   10.000    0.000    0.000    0.000 
#    0.000    0.000   22.000    0.000    0.000    0.000 
#    0.000    0.000    0.000    0.000    0.000    0.000 
#
# Total GULP energy -89198.571233 kJ/mol
# GULP energy per Si atom -5574.910702 kJ/mol
# Density = 2.737253 g / cm^3
# Si number density = 27.434972 Si / 1000 Ang^3
#
#
#
# Elastic Constant Matrix: (Units=GPa)
#
#
# Indices 1 2 3 4 5 6 
#
# 1 275.6033 79.3496 36.0360 0.0000 0.0000 0.0000
# 2 79.3496 275.6033 36.0360 0.0000 0.0000 0.0000
# 3 36.0360 36.0360 102.6495 0.0000 0.0000 0.0000
# 4 0.0000 0.0000 0.0000 39.7910 0.0000 0.0000
# 5 0.0000 0.0000 0.0000 0.0000 39.7910 0.0000
# 6 0.0000 0.0000 0.0000 0.0000 0.0000 75.3853
#
#
#
# Elastic Compliance Matrix: (Units=1/GPa)
#
#
# Indices 1 2 3 4 5 6 
#
# 1 0.004064 -0.001031 -0.001065 0.000000 0.000000 0.000000
# 2 -0.001031 0.004064 -0.001065 0.000000 0.000000 0.000000
# 3 -0.001065 -0.001065 0.010490 0.000000 0.000000 0.000000
# 4 0.000000 0.000000 0.000000 0.025131 0.000000 0.000000
# 5 0.000000 0.000000 0.000000 0.000000 0.025131 0.000000
# 6 0.000000 0.000000 0.000000 0.000000 0.000000 0.013265
#
#
# Mechanical properties :
#
#
# Convention : Reuss Voigt Hill
#
# Bulk Modulus (GPa) = 81.32156 106.29991 93.81074
# Shear Modulus (GPa) = 54.01489 64.48908 59.25199
#
# Velocity S-wave (km/s) = 4.44197 4.85357 4.65233
# Velocity P-wave (km/s) = 7.48425 8.38092 7.94525
#
# Compressibility (1/GPa) = 0.01229686
#
# Stress axis : x y z
#
# Youngs Moduli (GPa) = 246.03423 246.03423 95.33254
#
# Poissons Ratio (x) = 0.25365 0.10152
# Poissons Ratio (y) = 0.25365 0.10152
# Poissons Ratio (z) = 0.26201 0.26201
#
# Static dielectric constant tensor:
#      x y z
#    x 2.183190 0.000000 0.000000 
#    y 0.000000 2.183190 0.000000 
#    z 0.000000 0.000000 2.459940 
# 
# From -- ./inp_files/1689.got.cif
#   From: 2010.05.17/outbox.cif.g08.bks.cpg/sg122_1_cif.got.tgz:1689.got - 2010.05.20 11:37:33.
