data_PCOD9561750
_publ_section_title
;
Structure prediction by ZEFSAII (Michael W. Deem and Ramdas Pophale) SiO2 
 PCOD9561750
Probable space group: P 4/M M M
;
_chemical_formula_sum "Si O2"
_cell_formula_units_Z 96
_cell_length_a 18.292893
_cell_length_b 18.292893
_cell_length_c 18.515622
_cell_angle_alpha 90.000000
_cell_angle_beta 90.000000
_cell_angle_gamma 90.000000
_cell_volume 6195.881374
_symmetry_space_group_name_H-M "P 4/M M M"
_symmetry_group_IT_number 123
_symmetry_cell_setting 'tetragonal'
loop_
_space_group_symop_operation_xyz
x,y,z
-y,x,z
-x,-y,z
y,-x,z
x,-y,-z
-x,y,-z
y,x,-z
-y,-x,-z
-x,-y,-z
y,-x,-z
x,y,-z
-y,x,-z
-x,y,z
x,-y,z
-y,-x,z
y,x,z
loop_
_atom_site_type_symbol
_atom_site_label
_atom_site_fract_x
_atom_site_fract_y
_atom_site_fract_z
Si Si1 0.914283 0.203367 0.583486
Si Si2 0.798780 0.917181 0.857227
Si Si3 0.415338 0.914304 0.775532
Si Si4 0.583391 0.583391 0.912073
Si Si5 0.700941 0.299060 0.087528
Si Si6 0.346020 0.135084 0.082678
Si Si7 0.842288 0.274693 0.281053
O O1 0.904765 0.226771 0.500000
O O2 0.875365 0.124636 0.590569
O O3 0.873674 0.254577 0.640615
O O4 0.000000 0.200016 0.599186
O O5 0.861979 0.861979 0.880154
O O6 0.729080 0.909695 0.909399
O O7 0.768467 0.889998 0.779450
O O8 0.823913 0.000000 0.852890
O O9 0.500000 0.903522 0.756742
O O10 0.402455 0.898040 0.860497
O O11 0.359020 0.859861 0.735739
O O12 0.396082 0.000000 0.761943
O O13 0.500000 0.600512 0.890590
O O14 0.642034 0.642034 0.886398
O O15 0.584653 0.584653 0.000000
O O16 0.782844 0.322613 0.107410
O O17 0.700620 0.299381 0.000000
O O18 0.371214 0.137121 0.000000
O O19 0.761024 0.238977 0.275212
#
# Coordination Sequence:
#
# PCOD9561750 Si02
#       7
#    16  16  16   8   8  16  16
#     4   9  16  25  40  65  95 126 159 192 226 264
#     4  10  19  30  45  63  83 111 147 183 222 266
#     4  10  21  34  48  68  91 116 147 186 235 280
#     4   8  14  25  40  58  80 103 124 147 184 239
#     4   9  17  28  45  62  81 106 136 170 208 257
#     4  10  19  32  47  64  84 110 143 181 225 272
#     4   9  17  31  50  67  87 119 156 187 219 264
#
# _framework density 15.494164
#
# number of rings (size 3 to 8) (size 9 to 14) (size 15 to 20)
#    0.000    2.583    0.833    3.250    1.167    2.667 
#    0.000    3.333    0.000    3.500    0.000    3.500 
#    0.000    0.333    0.000    0.000    0.000    0.000 
#
# Total GULP energy -534775.809073 kJ/mol
# GULP energy per Si atom -5570.581345 kJ/mol
# Density = 1.545890 g / cm^3
# Si number density = 15.494164 Si / 1000 Ang^3
#
#
#
# Elastic Constant Matrix: (Units=GPa)
#
#
# Indices 1 2 3 4 5 6 
#
# 1 83.5758 35.6862 15.9909 0.0000 0.0000 0.0000
# 2 35.6862 83.5758 15.9909 0.0000 0.0000 0.0000
# 3 15.9909 15.9909 46.3724 0.0000 0.0000 0.0000
# 4 0.0000 0.0000 0.0000 10.6513 0.0000 0.0000
# 5 0.0000 0.0000 0.0000 0.0000 10.6513 0.0000
# 6 0.0000 0.0000 0.0000 0.0000 0.0000 19.9006
#
#
#
# Elastic Compliance Matrix: (Units=1/GPa)
#
#
# Indices 1 2 3 4 5 6 
#
# 1 0.015060 -0.005821 -0.003186 0.000000 0.000000 0.000000
# 2 -0.005821 0.015060 -0.003186 0.000000 0.000000 0.000000
# 3 -0.003186 -0.003186 0.023762 0.000000 0.000000 0.000000
# 4 0.000000 0.000000 0.000000 0.093886 0.000000 0.000000
# 5 0.000000 0.000000 0.000000 0.000000 0.093886 0.000000
# 6 0.000000 0.000000 0.000000 0.000000 0.000000 0.050250
#
#
# Mechanical properties :
#
#
# Convention : Reuss Voigt Hill
#
# Bulk Modulus (GPa) = 33.90258 38.76222 36.33240
# Shear Modulus (GPa) = 15.33169 17.96436 16.64802
#
# Velocity S-wave (km/s) = 3.14907 3.40873 3.28147
# Velocity P-wave (km/s) = 5.92879 6.36900 6.15283
#
# Compressibility (1/GPa) = 0.02949628
#
# Stress axis : x y z
#
# Youngs Moduli (GPa) = 66.39968 66.39964 42.08418
#
# Poissons Ratio (x) = 0.38651 0.13408
# Poissons Ratio (y) = 0.38651 0.13408
# Poissons Ratio (z) = 0.21155 0.21155
#
# Static dielectric constant tensor:
#      x y z
#    x 1.526100 0.000000 0.000000 
#    y 0.000000 1.526100 0.000000 
#    z 0.000000 0.000000 1.524500 
# 
# From -- ./inp_files/6576.got.cif
#   From: 2010.05.17/outbox.cif.g08.bks.cpg/sg123_4_cif.got.tgz:6576.got - 2010.05.20 11:43:04.
