data_PCOD9561021
_publ_section_title
;
Structure prediction by ZEFSAII (Michael W. Deem and Ramdas Pophale) SiO2 
 PCOD9561021
Probable space group: I -4 2 D
;
_chemical_formula_sum "Si O2"
_cell_formula_units_Z 84
_cell_length_a 15.552050
_cell_length_b 15.552050
_cell_length_c 17.142022
_cell_angle_alpha 90.000000
_cell_angle_beta 90.000000
_cell_angle_gamma 90.000000
_cell_volume 4146.076736
_symmetry_space_group_name_H-M "I -4 2 D"
_symmetry_group_IT_number 122
_symmetry_cell_setting 'tetragonal'
loop_
_space_group_symop_operation_xyz
x,y,z
y,-x,-z
-x,-y,z
-y,x,-z
x,1/2-y,1/4-z
-x,1/2+y,1/4-z
-y,1/2-x,1/4+z
y,1/2+x,1/4+z
1/2+x,1/2+y,1/2+z
1/2+y,1/2-x,1/2-z
1/2-x,1/2-y,1/2+z
1/2-y,1/2+x,1/2-z
1/2+x,-y,3/4-z
1/2-x,y,3/4-z
1/2-y,-x,3/4+z
1/2+y,x,3/4+z
loop_
_atom_site_type_symbol
_atom_site_label
_atom_site_fract_x
_atom_site_fract_y
_atom_site_fract_z
Si Si1 0.532034 0.089635 0.529034
Si Si2 0.750000 0.041700 0.875000
Si Si3 0.790735 0.104971 0.175023
Si Si4 0.125805 0.571751 0.242953
Si Si5 0.000000 0.500000 0.750000
Si Si6 0.574565 0.615073 0.876227
Si Si7 0.191234 0.750000 0.625000
O O1 0.511030 0.176016 0.577974
O O2 0.633880 0.081831 0.517187
O O3 0.484045 0.096722 0.447339
O O4 0.500000 0.000000 0.568503
O O5 0.694238 0.092354 0.810788
O O6 0.835352 0.099391 0.089796
O O7 0.705369 0.048200 0.167458
O O8 0.753269 0.201076 0.185749
O O9 0.112912 0.467936 0.243957
O O10 0.067999 0.456660 0.808065
O O11 0.671018 0.633942 0.846407
#
# Coordination Sequence:
#
# PCOD9561021 Si02
#       7
#    16   8  16  16   4  16   8
#     4  12  23  41  68 104 139 189 235 290 356 442
#     4  12  21  36  64  94 141 182 230 271 344 442
#     4  10  21  40  63  96 142 177 222 287 350 416
#     4  11  22  35  58  98 137 181 223 273 340 415
#     4  12  24  52  72  96 128 178 252 300 336 428
#     4  10  24  44  71  99 132 182 237 292 358 415
#     4   8  21  44  64  96 135 178 216 293 350 412
#
# _framework density 20.260117000000001
#
# number of rings (size 3 to 8) (size 9 to 14) (size 15 to 20)
#    1.143    0.190    4.762    1.714    0.000    1.524 
#    0.000    0.000    0.000    0.000    0.000    0.000 
#    0.000    0.000    0.000    0.000    0.000    0.000 
#
# Total GULP energy -233901.859894 kJ/mol
# GULP energy per Si atom -5569.091902 kJ/mol
# Density = 2.021400 g / cm^3
# Si number density = 20.260117 Si / 1000 Ang^3
#
#
#
# Elastic Constant Matrix: (Units=GPa)
#
#
# Indices 1 2 3 4 5 6 
#
# 1 104.1786 15.4366 25.4820 0.0000 0.0000 0.0000
# 2 15.4366 104.1786 25.4820 0.0000 0.0000 0.0000
# 3 25.4820 25.4820 68.7327 0.0000 0.0000 0.0000
# 4 0.0000 0.0000 0.0000 24.8887 0.0000 0.0000
# 5 0.0000 0.0000 0.0000 0.0000 24.8887 0.0000
# 6 0.0000 0.0000 0.0000 0.0000 0.0000 26.4430
#
#
#
# Elastic Compliance Matrix: (Units=1/GPa)
#
#
# Indices 1 2 3 4 5 6 
#
# 1 0.010599 -0.000670 -0.003681 0.000000 0.000000 0.000000
# 2 -0.000670 0.010599 -0.003681 0.000000 0.000000 0.000000
# 3 -0.003681 -0.003681 0.017278 0.000000 0.000000 0.000000
# 4 0.000000 0.000000 0.000000 0.040179 0.000000 0.000000
# 5 0.000000 0.000000 0.000000 0.000000 0.040179 0.000000
# 6 0.000000 0.000000 0.000000 0.000000 0.000000 0.037817
#
#
# Mechanical properties :
#
#
# Convention : Reuss Voigt Hill
#
# Bulk Modulus (GPa) = 44.61935 45.54344 45.08140
# Shear Modulus (GPa) = 27.74928 29.29001 28.51965
#
# Velocity S-wave (km/s) = 3.70489 3.80636 3.75597
# Velocity P-wave (km/s) = 6.35395 6.46885 6.41166
#
# Compressibility (1/GPa) = 0.02241180
#
# Stress axis : x y z
#
# Youngs Moduli (GPa) = 94.35270 94.35270 57.87569
#
# Poissons Ratio (x) = 0.06323 0.21303
# Poissons Ratio (y) = 0.06323 0.21303
# Poissons Ratio (z) = 0.34730 0.34730
#
# Static dielectric constant tensor:
#      x y z
#    x 1.748560 0.000000 0.000000 
#    y 0.000000 1.748560 0.000000 
#    z 0.000000 0.000000 1.711850 
# 
# From -- ./inp_files/6271.got.cif
#   From: 2010.05.17/outbox.cif.g08.bks.cpg/sg122_4_cif.got.tgz:6271.got - 2010.05.20 11:37:33.
