data_PCOD9561787
_publ_section_title
;
Structure prediction by ZEFSAII (Michael W. Deem and Ramdas Pophale) SiO2 
 PCOD9561787
Probable space group: P 4/M M M
;
_chemical_formula_sum "Si O2"
_cell_formula_units_Z 88
_cell_length_a 13.836576
_cell_length_b 13.836576
_cell_length_c 28.242232
_cell_angle_alpha 90.000000
_cell_angle_beta 90.000000
_cell_angle_gamma 90.000000
_cell_volume 5406.998910
_symmetry_space_group_name_H-M "P 4/M M M"
_symmetry_group_IT_number 123
_symmetry_cell_setting 'tetragonal'
loop_
_space_group_symop_operation_xyz
x,y,z
-y,x,z
-x,-y,z
y,-x,z
x,-y,-z
-x,y,-z
y,x,-z
-y,-x,-z
-x,-y,-z
y,-x,-z
x,y,-z
-y,x,-z
-x,y,z
x,-y,z
-y,-x,z
y,x,z
loop_
_atom_site_type_symbol
_atom_site_label
_atom_site_fract_x
_atom_site_fract_y
_atom_site_fract_z
Si Si1 0.110115 0.617530 0.000000
Si Si2 0.614405 0.225022 0.632639
Si Si3 0.387308 0.885977 0.811547
Si Si4 0.384659 0.771063 0.092986
Si Si5 0.884984 0.273375 0.285066
Si Si6 0.887470 0.729589 0.443610
O O1 0.165806 0.646108 0.952402
O O2 0.107418 0.500000 0.000000
O O3 0.000000 0.652085 0.000000
O O4 0.500000 0.238447 0.635262
O O5 0.675006 0.324995 0.633205
O O6 0.655012 0.160808 0.676022
O O7 0.646762 0.166616 0.585735
O O8 0.500000 0.865752 0.799515
O O9 0.361653 0.825835 0.858116
O O10 0.320336 0.866911 0.766468
O O11 0.381027 0.000000 0.822810
O O12 0.500000 0.759194 0.090785
O O13 0.329545 0.670455 0.091613
O O14 0.826965 0.173036 0.289134
O O15 0.000000 0.263438 0.291761
O O16 0.881777 0.712754 0.500000
O O17 0.828137 0.828137 0.433246
O O18 0.000000 0.736853 0.430366
#
# Coordination Sequence:
#
# PCOD9561787 Si02
#       6
#     8  16  16  16  16  16
#     4   9  17  30  47  65  85 111 147 191 233 268
#     4  10  21  36  53  73  97 125 160 202 245 290
#     4   9  17  30  49  71  93 120 157 200 241 276
#     4  10  19  30  45  66  94 125 154 186 225 272
#     4  10  20  33  50  73 100 129 161 197 238 286
#     4   9  18  32  50  74 103 133 165 200 238 282
#
# _framework density 16.275202
#
# number of rings (size 3 to 8) (size 9 to 14) (size 15 to 20)
#    0.000    2.455    0.000    2.455    0.000    5.455 
#    0.000    1.818    0.000    4.909    0.000    5.091 
#    0.000   13.818    0.000    0.000    0.000    0.000 
#
# Total GULP energy -490708.268185 kJ/mol
# GULP energy per Si atom -5576.230320 kJ/mol
# Density = 1.623816 g / cm^3
# Si number density = 16.275202 Si / 1000 Ang^3
#
#
#
# Elastic Constant Matrix: (Units=GPa)
#
#
# Indices 1 2 3 4 5 6 
#
# 1 108.8235 66.7945 54.8901 0.0000 0.0000 0.0000
# 2 66.7945 108.8235 54.8901 0.0000 0.0000 0.0000
# 3 54.8901 54.8901 76.9789 0.0000 0.0000 0.0000
# 4 0.0000 0.0000 0.0000 20.2228 0.0000 0.0000
# 5 0.0000 0.0000 0.0000 0.0000 20.2228 0.0000
# 6 0.0000 0.0000 0.0000 0.0000 0.0000 15.3081
#
#
#
# Elastic Compliance Matrix: (Units=1/GPa)
#
#
# Indices 1 2 3 4 5 6 
#
# 1 0.017033 -0.006760 -0.007325 0.000000 0.000000 0.000000
# 2 -0.006760 0.017033 -0.007325 0.000000 0.000000 0.000000
# 3 -0.007325 -0.007325 0.023437 0.000000 0.000000 0.000000
# 4 0.000000 0.000000 0.000000 0.049449 0.000000 0.000000
# 5 0.000000 0.000000 0.000000 0.000000 0.049449 0.000000
# 6 0.000000 0.000000 0.000000 0.000000 0.000000 0.065325
#
#
# Mechanical properties :
#
#
# Convention : Reuss Voigt Hill
#
# Bulk Modulus (GPa) = 68.10898 71.97504 70.04201
# Shear Modulus (GPa) = 18.55679 19.02080 18.78880
#
# Velocity S-wave (km/s) = 3.38033 3.42233 3.40140
# Velocity P-wave (km/s) = 7.56139 7.74185 7.65215
#
# Compressibility (1/GPa) = 0.01468235
#
# Stress axis : x y z
#
# Youngs Moduli (GPa) = 58.70868 58.70868 42.66668
#
# Poissons Ratio (x) = 0.39686 0.31255
# Poissons Ratio (y) = 0.39686 0.31255
# Poissons Ratio (z) = 0.43007 0.43007
#
# Static dielectric constant tensor:
#      x y z
#    x 1.524400 0.000000 0.000000 
#    y 0.000000 1.524400 0.000000 
#    z 0.000000 0.000000 1.552840 
# 
# From -- ./inp_files/8455.got.cif
#   From: 2010.05.17/outbox.cif.g08.bks.cpg/sg123_5_cif.got.tgz:8455.got - 2010.05.20 11:43:04.
