data_PCOD9561118
_publ_section_title
;
Structure prediction by ZEFSAII (Michael W. Deem and Ramdas Pophale) SiO2 
 PCOD9561118
Probable space group: I -4 2 D
;
_chemical_formula_sum "Si O2"
_cell_formula_units_Z 96
_cell_length_a 19.701779
_cell_length_b 19.701779
_cell_length_c 11.395591
_cell_angle_alpha 90.000000
_cell_angle_beta 90.000000
_cell_angle_gamma 90.000000
_cell_volume 4423.313694
_symmetry_space_group_name_H-M "I -4 2 D"
_symmetry_group_IT_number 122
_symmetry_cell_setting 'tetragonal'
loop_
_space_group_symop_operation_xyz
x,y,z
y,-x,-z
-x,-y,z
-y,x,-z
x,1/2-y,1/4-z
-x,1/2+y,1/4-z
-y,1/2-x,1/4+z
y,1/2+x,1/4+z
1/2+x,1/2+y,1/2+z
1/2+y,1/2-x,1/2-z
1/2-x,1/2-y,1/2+z
1/2-y,1/2+x,1/2-z
1/2+x,-y,3/4-z
1/2-x,y,3/4-z
1/2-y,-x,3/4+z
1/2+y,x,3/4+z
loop_
_atom_site_type_symbol
_atom_site_label
_atom_site_fract_x
_atom_site_fract_y
_atom_site_fract_z
Si Si1 0.390376 0.754398 0.994963
Si Si2 0.892110 0.921944 0.126132
Si Si3 0.458272 0.199411 0.295851
Si Si4 0.501150 0.922558 0.431006
Si Si5 0.649885 0.364454 0.841619
Si Si6 0.832052 0.073626 0.093574
O O1 0.395493 0.832328 0.959470
O O2 0.466829 0.722251 0.997791
O O3 0.352200 0.710595 0.895827
O O4 0.360363 0.750000 0.125000
O O5 0.964796 0.918881 0.190527
O O6 0.871451 0.001262 0.109268
O O7 0.893330 0.873319 0.012815
O O8 0.454936 0.124237 0.347536
O O9 0.409198 0.191473 0.184830
O O10 0.444498 0.251706 0.404237
O O11 0.426821 0.892405 0.417763
O O12 0.500000 0.000000 0.395252
O O13 0.670226 0.377661 0.707644
#
# Coordination Sequence:
#
# PCOD9561118 Si02
#       6
#    16  16  16  16  16  16
#     4  10  22  41  64  95 134 179 224 285 346 410
#     4  11  23  41  66  96 141 177 228 279 349 411
#     4  10  23  39  64  97 139 172 220 287 357 403
#     4  11  23  37  65 105 126 163 225 295 343 404
#     4  11  22  38  67  95 129 174 231 276 347 408
#     4  11  23  41  65  96 138 189 222 284 341 418
#
# _framework density 21.703185999999999
#
# number of rings (size 3 to 8) (size 9 to 14) (size 15 to 20)
#    0.000    1.333    1.667    4.500    4.667    1.333 
#    0.000    5.000   18.333    0.000    0.000    0.000 
#    0.000    0.000    0.000    0.000    0.000    0.000 
#
# Total GULP energy -267742.688621 kJ/mol
# GULP energy per Si atom -5577.972680 kJ/mol
# Density = 2.165379 g / cm^3
# Si number density = 21.703186 Si / 1000 Ang^3
#
#
#
# Elastic Constant Matrix: (Units=GPa)
#
#
# Indices 1 2 3 4 5 6 
#
# 1 80.4143 11.1212 40.2927 0.0000 0.0000 0.0000
# 2 11.1212 80.4143 40.2927 0.0000 0.0000 0.0000
# 3 40.2927 40.2927 104.3811 0.0000 0.0000 0.0000
# 4 0.0000 0.0000 0.0000 59.5816 0.0000 0.0000
# 5 0.0000 0.0000 0.0000 0.0000 59.5816 0.0000
# 6 0.0000 0.0000 0.0000 0.0000 0.0000 11.3301
#
#
#
# Elastic Compliance Matrix: (Units=1/GPa)
#
#
# Indices 1 2 3 4 5 6 
#
# 1 0.015490 0.001059 -0.006388 0.000000 0.000000 0.000000
# 2 0.001059 0.015490 -0.006388 0.000000 0.000000 0.000000
# 3 -0.006388 -0.006388 0.014512 0.000000 0.000000 0.000000
# 4 0.000000 0.000000 0.000000 0.016784 0.000000 0.000000
# 5 0.000000 0.000000 0.000000 0.000000 0.016784 0.000000
# 6 0.000000 0.000000 0.000000 0.000000 0.000000 0.088260
#
#
# Mechanical properties :
#
#
# Convention : Reuss Voigt Hill
#
# Bulk Modulus (GPa) = 45.33685 49.84699 47.59192
# Shear Modulus (GPa) = 25.23892 37.66554 31.45223
#
# Velocity S-wave (km/s) = 3.41385 4.17043 3.81096
# Velocity P-wave (km/s) = 6.03937 6.79761 6.42968
#
# Compressibility (1/GPa) = 0.02205711
#
# Stress axis : x y z
#
# Youngs Moduli (GPa) = 64.55788 64.55788 68.90856
#
# Poissons Ratio (x) = -0.06834 0.44019
# Poissons Ratio (y) = -0.06834 0.44019
# Poissons Ratio (z) = 0.41239 0.41239
#
# Static dielectric constant tensor:
#      x y z
#    x 1.840510 0.000000 0.000000 
#    y 0.000000 1.840510 0.000000 
#    z 0.000000 0.000000 1.822560 
# 
# From -- ./inp_files/4439.got.cif
#   From: 2010.05.17/outbox.cif.g08.bks.cpg/sg122_3_cif.got.tgz:4439.got - 2010.05.20 11:37:33.
