data_PCOD9561392
_publ_section_title
;
Structure prediction by ZEFSAII (Michael W. Deem and Ramdas Pophale) SiO2 
 PCOD9561392
Probable space group: I -4 2 D
;
_chemical_formula_sum "Si O2"
_cell_formula_units_Z 96
_cell_length_a 13.964321
_cell_length_b 13.964321
_cell_length_c 18.368220
_cell_angle_alpha 90.000000
_cell_angle_beta 90.000000
_cell_angle_gamma 90.000000
_cell_volume 3581.844430
_symmetry_space_group_name_H-M "I -4 2 D"
_symmetry_group_IT_number 122
_symmetry_cell_setting 'tetragonal'
loop_
_space_group_symop_operation_xyz
x,y,z
y,-x,-z
-x,-y,z
-y,x,-z
x,1/2-y,1/4-z
-x,1/2+y,1/4-z
-y,1/2-x,1/4+z
y,1/2+x,1/4+z
1/2+x,1/2+y,1/2+z
1/2+y,1/2-x,1/2-z
1/2-x,1/2-y,1/2+z
1/2-y,1/2+x,1/2-z
1/2+x,-y,3/4-z
1/2-x,y,3/4-z
1/2-y,-x,3/4+z
1/2+y,x,3/4+z
loop_
_atom_site_type_symbol
_atom_site_label
_atom_site_fract_x
_atom_site_fract_y
_atom_site_fract_z
Si Si1 0.147739 0.245496 0.470124
Si Si2 0.940887 0.724803 0.315194
Si Si3 0.500000 0.000000 0.912290
Si Si4 0.645137 0.375429 0.415601
Si Si5 0.500000 0.500000 0.093101
Si Si6 0.201226 0.051718 0.453272
Si Si7 0.877527 0.930321 0.719944
O O1 0.128878 0.260431 0.383921
O O2 0.217466 0.156472 0.486406
O O3 0.185751 0.338985 0.511421
O O4 0.043599 0.229468 0.506012
O O5 0.898336 0.661089 0.251064
O O6 0.048023 0.691519 0.342183
O O7 0.968865 0.823997 0.275707
O O8 0.406476 0.971048 0.867425
O O9 0.539724 0.923165 0.969700
O O10 0.750000 0.357945 0.375000
O O11 0.553995 0.414219 0.054478
O O12 0.426314 0.438854 0.141936
O O13 0.250000 0.050026 0.375000
#
# Coordination Sequence:
#
# PCOD9561392 Si02
#       7
#    16  16   8  16   8  16  16
#     4  12  27  46  73 114 148 194 256 318 384 458
#     4  12  27  46  73 114 148 194 256 318 384 458
#     4  11  22  49  76  98 147 211 246 308 387 457
#     4  12  26  47  78 108 150 202 262 313 389 474
#     4  11  22  49  76  98 147 211 246 308 387 457
#     4  12  26  47  78 108 150 202 262 313 389 474
#     4  11  24  46  74 100 152 195 242 316 390 439
#
# _framework density 26.801835000000001
#
# number of rings (size 3 to 8) (size 9 to 14) (size 15 to 20)
#    0.000    0.333    6.667    2.000    0.000    4.000 
#    0.000    0.000    0.000    0.000    0.000    0.000 
#    0.000    0.000    0.000    0.000    0.000    0.000 
#
# Total GULP energy -268273.102262 kJ/mol
# GULP energy per Si atom -5589.022964 kJ/mol
# Density = 2.674083 g / cm^3
# Si number density = 26.801835 Si / 1000 Ang^3
#
#
#
# Elastic Constant Matrix: (Units=GPa)
#
#
# Indices 1 2 3 4 5 6 
#
# 1 106.7529 7.5306 22.3256 0.0000 0.0000 0.0000
# 2 7.5306 106.7529 22.3256 0.0000 0.0000 0.0000
# 3 22.3256 22.3256 86.7751 0.0000 0.0000 0.0000
# 4 0.0000 0.0000 0.0000 37.3267 0.0000 0.0000
# 5 0.0000 0.0000 0.0000 0.0000 37.3267 0.0000
# 6 0.0000 0.0000 0.0000 0.0000 0.0000 37.6063
#
#
#
# Elastic Compliance Matrix: (Units=1/GPa)
#
#
# Indices 1 2 3 4 5 6 
#
# 1 0.009903 -0.000175 -0.002503 0.000000 0.000000 0.000000
# 2 -0.000175 0.009903 -0.002503 0.000000 0.000000 0.000000
# 3 -0.002503 -0.002503 0.012812 0.000000 0.000000 0.000000
# 4 0.000000 0.000000 0.000000 0.026791 0.000000 0.000000
# 5 0.000000 0.000000 0.000000 0.000000 0.026791 0.000000
# 6 0.000000 0.000000 0.000000 0.000000 0.000000 0.026591
#
#
# Mechanical properties :
#
#
# Convention : Reuss Voigt Hill
#
# Bulk Modulus (GPa) = 44.93045 44.96052 44.94549
# Shear Modulus (GPa) = 38.29327 38.99186 38.64256
#
# Velocity S-wave (km/s) = 3.78399 3.81835 3.80121
# Velocity P-wave (km/s) = 5.99097 6.02091 6.00596
#
# Compressibility (1/GPa) = 0.02225662
#
# Stress axis : x y z
#
# Youngs Moduli (GPa) = 100.97732 100.97731 78.05237
#
# Poissons Ratio (x) = 0.01769 0.19535
# Poissons Ratio (y) = 0.01769 0.19535
# Poissons Ratio (z) = 0.25273 0.25273
#
# Static dielectric constant tensor:
#      x y z
#    x 2.291740 0.000000 0.000000 
#    y 0.000000 2.291740 0.000000 
#    z 0.000000 0.000000 2.146340 
# 
# From -- ./inp_files/7349.got.cif
#   From: 2010.05.17/outbox.cif.g08.bks.cpg/sg122_4_cif.got.tgz:7349.got - 2010.05.20 11:37:33.
