data_PCOD9561765
_publ_section_title
;
Structure prediction by ZEFSAII (Michael W. Deem and Ramdas Pophale) SiO2 
 PCOD9561765
Probable space group: P 4/M M M
;
_chemical_formula_sum "Si O2"
_cell_formula_units_Z 104
_cell_length_a 14.092367
_cell_length_b 14.092367
_cell_length_c 33.765583
_cell_angle_alpha 90.000000
_cell_angle_beta 90.000000
_cell_angle_gamma 90.000000
_cell_volume 6705.669462
_symmetry_space_group_name_H-M "P 4/M M M"
_symmetry_group_IT_number 123
_symmetry_cell_setting 'tetragonal'
loop_
_space_group_symop_operation_xyz
x,y,z
-y,x,z
-x,-y,z
y,-x,z
x,-y,-z
-x,y,-z
y,x,-z
-y,-x,-z
-x,-y,-z
y,-x,-z
x,y,-z
-y,x,-z
-x,y,z
x,-y,z
-y,-x,z
y,x,z
loop_
_atom_site_type_symbol
_atom_site_label
_atom_site_fract_x
_atom_site_fract_y
_atom_site_fract_z
Si Si1 0.889264 0.266469 0.952832
Si Si2 0.768884 0.612140 0.258492
Si Si3 0.388008 0.768399 0.349097
Si Si4 0.613964 0.232256 0.500000
Si Si5 0.107491 0.614928 0.183897
Si Si6 0.613385 0.230431 0.106859
Si Si7 0.107590 0.384875 0.423750
O O1 0.830006 0.169995 0.944784
O O2 0.836167 0.348608 0.928559
O O3 0.000000 0.259311 0.941990
O O4 0.883646 0.284065 0.000000
O O5 0.748850 0.500000 0.253192
O O6 0.674715 0.674715 0.253403
O O7 0.802666 0.625191 0.303832
O O8 0.845011 0.641842 0.225566
O O9 0.500000 0.748589 0.354323
O O10 0.326026 0.673975 0.353961
O O11 0.358194 0.843497 0.382378
O O12 0.500000 0.244604 0.500000
O O13 0.669032 0.330969 0.500000
O O14 0.641525 0.172310 0.461067
O O15 0.102696 0.500000 0.183716
O O16 0.175360 0.640137 0.147372
O O17 0.000000 0.650765 0.179332
O O18 0.500000 0.242951 0.105419
O O19 0.671395 0.328606 0.105120
O O20 0.103501 0.500000 0.424190
O O21 0.000000 0.349718 0.427310
#
# Coordination Sequence:
#
# PCOD9561765 Si02
#       7
#    16  16  16   8  16  16  16
#     4   9  18  32  50  73  99 126 158 196 237 281
#     4   9  17  28  42  62  89 120 152 184 218 259
#     4   9  17  28  42  62  89 119 149 181 216 258
#     4  10  19  30  45  65  90 118 145 173 206 249
#     4   9  17  29  45  64  86 114 148 185 227 272
#     4  10  20  33  49  69  94 124 158 195 234 279
#     4   9  17  29  44  61  83 113 147 181 217 254
#
# _framework density 15.509264999999999
#
# number of rings (size 3 to 8) (size 9 to 14) (size 15 to 20)
#    0.000    2.769    0.000    1.615    0.000    3.462 
#    0.000    6.154    0.000    5.538    0.000    2.154 
#    0.000   15.385    0.000   13.538    0.000    1.231 
#
# Total GULP energy -579169.086597 kJ/mol
# GULP energy per Si atom -5568.933525 kJ/mol
# Density = 1.547397 g / cm^3
# Si number density = 15.509265 Si / 1000 Ang^3
#
#
#
# Elastic Constant Matrix: (Units=GPa)
#
#
# Indices 1 2 3 4 5 6 
#
# 1 83.3651 47.1081 49.5075 0.0000 0.0000 0.0000
# 2 47.1081 83.3628 49.5069 0.0000 0.0000 0.0000
# 3 49.5075 49.5069 82.2967 0.0000 0.0000 0.0000
# 4 0.0000 0.0000 0.0000 20.8527 0.0000 0.0000
# 5 0.0000 0.0000 0.0000 0.0000 20.8530 0.0000
# 6 0.0000 0.0000 0.0000 0.0000 0.0000 3.6133
#
#
#
# Elastic Compliance Matrix: (Units=1/GPa)
#
#
# Indices 1 2 3 4 5 6 
#
# 1 0.020842 -0.006740 -0.008484 0.000000 0.000000 0.000000
# 2 -0.006740 0.020843 -0.008484 0.000000 0.000000 0.000000
# 3 -0.008484 -0.008484 0.022358 0.000000 0.000000 0.000000
# 4 0.000000 0.000000 0.000000 0.047955 0.000000 0.000000
# 5 0.000000 0.000000 0.000000 0.000000 0.047955 0.000000
# 6 0.000000 0.000000 0.000000 0.000000 0.000000 0.276757
#
#
# Mechanical properties :
#
#
# Convention : Reuss Voigt Hill
#
# Bulk Modulus (GPa) = 60.13701 60.14108 60.13904
# Shear Modulus (GPa) = 10.21103 15.92394 13.06748
#
# Velocity S-wave (km/s) = 2.56868 3.20775 2.90584
# Velocity P-wave (km/s) = 6.90337 7.25129 7.07947
#
# Compressibility (1/GPa) = 0.01662869
#
# Stress axis : x y z
#
# Youngs Moduli (GPa) = 47.98006 47.97875 44.72605
#
# Poissons Ratio (x) = 0.32335 0.37944
# Poissons Ratio (y) = 0.32336 0.37945
# Poissons Ratio (z) = 0.40705 0.40704
#
# Static dielectric constant tensor:
#      x y z
#    x 1.497700 0.000000 0.000000 
#    y 0.000000 1.497700 0.000000 
#    z 0.000000 0.000000 1.534690 
# 
# From -- ./inp_files/8733.got.cif
#   From: 2010.05.17/outbox.cif.g08.bks.cpg/sg123_5_cif.got.tgz:8733.got - 2010.05.20 11:43:04.
