data_PCOD9561875
_publ_section_title
;
Structure prediction by ZEFSAII (Michael W. Deem and Ramdas Pophale) SiO2 
 PCOD9561875
Probable space group: P 4/M M M
;
_chemical_formula_sum "Si O2"
_cell_formula_units_Z 112
_cell_length_a 17.776847
_cell_length_b 17.776847
_cell_length_c 20.857362
_cell_angle_alpha 90.000000
_cell_angle_beta 90.000000
_cell_angle_gamma 90.000000
_cell_volume 6591.266143
_symmetry_space_group_name_H-M "P 4/M M M"
_symmetry_group_IT_number 123
_symmetry_cell_setting 'tetragonal'
loop_
_space_group_symop_operation_xyz
x,y,z
-y,x,z
-x,-y,z
y,-x,z
x,-y,-z
-x,y,-z
y,x,-z
-y,-x,-z
-x,-y,-z
y,-x,-z
x,y,-z
-y,x,-z
-x,y,z
x,-y,z
-y,-x,z
y,x,z
loop_
_atom_site_type_symbol
_atom_site_label
_atom_site_fract_x
_atom_site_fract_y
_atom_site_fract_z
Si Si1 0.912097 0.790460 0.101603
Si Si2 0.328494 0.199385 0.570915
Si Si3 0.793126 0.334545 0.071141
Si Si4 0.088920 0.788641 0.380385
Si Si5 0.808738 0.586132 0.796393
Si Si6 0.724913 0.913430 0.240530
Si Si7 0.710837 0.586210 0.325759
O O1 0.863940 0.863940 0.083254
O O2 0.868131 0.717489 0.074957
O O3 0.906467 0.778222 0.178509
O O4 0.000000 0.793675 0.084075
O O5 0.363038 0.200696 0.500000
O O6 0.263214 0.263214 0.572789
O O7 0.283356 0.122370 0.582524
O O8 0.384654 0.222496 0.627522
O O9 0.724650 0.275351 0.078987
O O10 0.791808 0.391673 0.130232
O O11 0.788635 0.368325 0.000000
O O12 0.138041 0.861960 0.397674
O O13 0.104759 0.768165 0.305815
O O14 0.000000 0.798888 0.389519
O O15 0.836902 0.500000 0.792605
O O16 0.864415 0.650988 0.771392
O O17 0.738728 0.591379 0.747684
O O18 0.701289 0.000000 0.244950
O O19 0.693634 0.500000 0.340471
O O20 0.640269 0.640269 0.335736
#
# Coordination Sequence:
#
# PCOD9561875 Si02
#       7
#    16  16  16  16  16  16  16
#     4   9  17  28  44  66  92 124 163 206 252 302
#     4   9  18  33  53  75 101 136 176 213 248 298
#     4   9  18  32  49  68  94 130 166 200 242 296
#     4  10  19  31  50  75 104 139 177 217 260 304
#     4  10  19  31  51  77 101 127 162 206 252 298
#     4   9  17  30  47  68  96 131 167 205 253 307
#     4  10  20  34  54  80 107 135 168 208 255 307
#
# _framework density 16.992183000000001
#
# number of rings (size 3 to 8) (size 9 to 14) (size 15 to 20)
#    0.000    2.571    1.429    0.857    0.000    3.000 
#    0.000    0.000    0.000    3.000    0.000   11.000 
#    0.000    0.000    0.000   13.286    0.000    0.000 
#
# Total GULP energy -623993.066900 kJ/mol
# GULP energy per Si atom -5571.366669 kJ/mol
# Density = 1.695351 g / cm^3
# Si number density = 16.992183 Si / 1000 Ang^3
#
#
#
# Elastic Constant Matrix: (Units=GPa)
#
#
# Indices 1 2 3 4 5 6 
#
# 1 69.8898 58.0854 18.8691 0.0000 0.0000 0.0000
# 2 58.0854 69.8898 18.8691 0.0000 0.0000 0.0000
# 3 18.8691 18.8691 81.5805 0.0000 0.0000 0.0000
# 4 0.0000 0.0000 0.0000 11.0930 0.0000 0.0000
# 5 0.0000 0.0000 0.0000 0.0000 11.0930 0.0000
# 6 0.0000 0.0000 0.0000 0.0000 0.0000 14.2720
#
#
#
# Elastic Compliance Matrix: (Units=1/GPa)
#
#
# Indices 1 2 3 4 5 6 
#
# 1 0.046550 -0.038164 -0.001940 0.000000 0.000000 0.000000
# 2 -0.038164 0.046550 -0.001940 0.000000 0.000000 0.000000
# 3 -0.001940 -0.001940 0.013155 0.000000 0.000000 0.000000
# 4 0.000000 0.000000 0.000000 0.090147 0.000000 0.000000
# 5 0.000000 0.000000 0.000000 0.000000 0.090147 0.000000
# 6 0.000000 0.000000 0.000000 0.000000 0.000000 0.070067
#
#
# Mechanical properties :
#
#
# Convention : Reuss Voigt Hill
#
# Bulk Modulus (GPa) = 45.10900 45.88972 45.49936
# Shear Modulus (GPa) = 11.15839 15.66068 13.40953
#
# Velocity S-wave (km/s) = 2.56535 3.03915 2.81225
# Velocity P-wave (km/s) = 5.94805 6.27537 6.11390
#
# Compressibility (1/GPa) = 0.02216853
#
# Stress axis : x y z
#
# Youngs Moduli (GPa) = 21.48221 21.48221 76.01622
#
# Poissons Ratio (x) = 0.81985 0.14744
# Poissons Ratio (y) = 0.81985 0.14744
# Poissons Ratio (z) = 0.04167 0.04167
#
# Static dielectric constant tensor:
#      x y z
#    x 1.554960 0.000000 0.000000 
#    y 0.000000 1.554960 0.000000 
#    z 0.000000 0.000000 1.610270 
# 
# From -- ./inp_files/6677.got.cif
#   From: 2010.05.17/outbox.cif.g08.bks.cpg/sg123_4_cif.got.tgz:6677.got - 2010.05.20 11:43:04.
