data_PCOD9561132
_publ_section_title
;
Structure prediction by ZEFSAII (Michael W. Deem and Ramdas Pophale) SiO2 
 PCOD9561132
Probable space group: I -4 2 D
;
_chemical_formula_sum "Si O2"
_cell_formula_units_Z 96
_cell_length_a 14.636703
_cell_length_b 14.636703
_cell_length_c 22.337169
_cell_angle_alpha 90.000000
_cell_angle_beta 90.000000
_cell_angle_gamma 90.000000
_cell_volume 4785.360395
_symmetry_space_group_name_H-M "I -4 2 D"
_symmetry_group_IT_number 122
_symmetry_cell_setting 'tetragonal'
loop_
_space_group_symop_operation_xyz
x,y,z
y,-x,-z
-x,-y,z
-y,x,-z
x,1/2-y,1/4-z
-x,1/2+y,1/4-z
-y,1/2-x,1/4+z
y,1/2+x,1/4+z
1/2+x,1/2+y,1/2+z
1/2+y,1/2-x,1/2-z
1/2-x,1/2-y,1/2+z
1/2-y,1/2+x,1/2-z
1/2+x,-y,3/4-z
1/2-x,y,3/4-z
1/2-y,-x,3/4+z
1/2+y,x,3/4+z
loop_
_atom_site_type_symbol
_atom_site_label
_atom_site_fract_x
_atom_site_fract_y
_atom_site_fract_z
Si Si1 0.322390 0.676824 0.973533
Si Si2 0.522708 0.232289 0.192502
Si Si3 0.902135 0.004573 0.220809
Si Si4 0.647991 0.344315 0.365645
Si Si5 0.207448 0.348223 0.439005
Si Si6 0.140902 0.444331 0.241885
O O1 0.307745 0.578941 0.943824
O O2 0.339541 0.751328 0.922136
O O3 0.406346 0.672664 0.019718
O O4 0.235493 0.707550 0.013541
O O5 0.553313 0.250000 0.125000
O O6 0.515162 0.325418 0.230330
O O7 0.903284 0.922834 0.172757
O O8 0.880431 0.101756 0.189346
O O9 0.000000 0.000000 0.251317
O O10 0.750000 0.382585 0.375000
O O11 0.598496 0.330356 0.428642
O O12 0.250000 0.320535 0.375000
O O13 0.275324 0.426191 0.463782
O O14 0.110953 0.549883 0.237797
#
# Coordination Sequence:
#
# PCOD9561132 Si02
#       6
#    16  16  16  16  16  16
#     4  10  22  42  65  99 123 175 220 264 335 392
#     4  10  22  43  67  90 134 166 216 278 323 395
#     4  10  25  40  62 100 126 164 223 265 321 394
#     4  11  22  42  66  88 131 172 213 263 325 395
#     4  11  23  41  65  92 135 171 212 273 328 386
#     4  11  26  40  62 100 131 174 223 265 329 397
#
# _framework density 20.061185999999999
#
# number of rings (size 3 to 8) (size 9 to 14) (size 15 to 20)
#    0.000    1.500    1.667    2.000    9.333    0.333 
#    3.000    1.667    0.000    0.000    0.000    0.000 
#    0.000    0.000    0.000    0.000    0.000    0.000 
#
# Total GULP energy -268141.942847 kJ/mol
# GULP energy per Si atom -5586.290476 kJ/mol
# Density = 2.001553 g / cm^3
# Si number density = 20.061186 Si / 1000 Ang^3
#
#
#
# Elastic Constant Matrix: (Units=GPa)
#
#
# Indices 1 2 3 4 5 6 
#
# 1 85.8417 13.3932 23.0557 0.0000 0.0000 0.0000
# 2 13.3932 85.8417 23.0557 0.0000 0.0000 0.0000
# 3 23.0557 23.0557 102.3093 0.0000 0.0000 0.0000
# 4 0.0000 0.0000 0.0000 17.6911 0.0000 0.0000
# 5 0.0000 0.0000 0.0000 0.0000 17.6911 0.0000
# 6 0.0000 0.0000 0.0000 0.0000 0.0000 22.8044
#
#
#
# Elastic Compliance Matrix: (Units=1/GPa)
#
#
# Indices 1 2 3 4 5 6 
#
# 1 0.012529 -0.001274 -0.002537 0.000000 0.000000 0.000000
# 2 -0.001274 0.012529 -0.002537 0.000000 0.000000 0.000000
# 3 -0.002537 -0.002537 0.010918 0.000000 0.000000 0.000000
# 4 0.000000 0.000000 0.000000 0.056526 0.000000 0.000000
# 5 0.000000 0.000000 0.000000 0.000000 0.056526 0.000000
# 6 0.000000 0.000000 0.000000 0.000000 0.000000 0.043851
#
#
# Mechanical properties :
#
#
# Convention : Reuss Voigt Hill
#
# Bulk Modulus (GPa) = 42.94994 43.66689 43.30841
# Shear Modulus (GPa) = 23.43756 25.93652 24.68704
#
# Velocity S-wave (km/s) = 3.42175 3.59955 3.51178
# Velocity P-wave (km/s) = 6.08828 6.25218 6.17078
#
# Compressibility (1/GPa) = 0.02328292
#
# Stress axis : x y z
#
# Youngs Moduli (GPa) = 79.81279 79.81279 91.59600
#
# Poissons Ratio (x) = 0.10165 0.23233
# Poissons Ratio (y) = 0.10165 0.23233
# Poissons Ratio (z) = 0.20245 0.20245
#
# Static dielectric constant tensor:
#      x y z
#    x 1.712070 0.000000 0.000000 
#    y 0.000000 1.712070 0.000000 
#    z 0.000000 0.000000 1.693220 
# 
# From -- ./inp_files/7282.got.cif
#   From: 2010.05.17/outbox.cif.g08.bks.cpg/sg122_4_cif.got.tgz:7282.got - 2010.05.20 11:37:33.
