data_PCOD9561232
_publ_section_title
;
Structure prediction by ZEFSAII (Michael W. Deem and Ramdas Pophale) SiO2 
 PCOD9561232
Probable space group: I -4 2 D
;
_chemical_formula_sum "Si O2"
_cell_formula_units_Z 72
_cell_length_a 11.265350
_cell_length_b 11.265350
_cell_length_c 24.640708
_cell_angle_alpha 90.000000
_cell_angle_beta 90.000000
_cell_angle_gamma 90.000000
_cell_volume 3127.105697
_symmetry_space_group_name_H-M "I -4 2 D"
_symmetry_group_IT_number 122
_symmetry_cell_setting 'tetragonal'
loop_
_space_group_symop_operation_xyz
x,y,z
y,-x,-z
-x,-y,z
-y,x,-z
x,1/2-y,1/4-z
-x,1/2+y,1/4-z
-y,1/2-x,1/4+z
y,1/2+x,1/4+z
1/2+x,1/2+y,1/2+z
1/2+y,1/2-x,1/2-z
1/2-x,1/2-y,1/2+z
1/2-y,1/2+x,1/2-z
1/2+x,-y,3/4-z
1/2-x,y,3/4-z
1/2-y,-x,3/4+z
1/2+y,x,3/4+z
loop_
_atom_site_type_symbol
_atom_site_label
_atom_site_fract_x
_atom_site_fract_y
_atom_site_fract_z
Si Si1 0.580489 0.356892 0.034222
Si Si2 0.925976 0.254351 0.927805
Si Si3 0.144257 0.260814 0.990427
Si Si4 0.500000 0.000000 0.114192
Si Si5 0.942050 0.870642 0.153586
O O1 0.556610 0.406095 0.093887
O O2 0.457049 0.348945 0.000750
O O3 0.651804 0.237132 0.036384
O O4 0.835060 0.214003 0.973983
O O5 0.940125 0.394302 0.919122
O O6 0.886413 0.189072 0.872817
O O7 0.054195 0.207133 0.947193
O O8 0.068236 0.336876 0.033665
O O9 0.993241 0.750000 0.125000
O O10 0.000000 0.000000 0.145976
#
# Coordination Sequence:
#
# PCOD9561232 Si02
#       5
#    16  16  16   8  16
#     4   9  20  42  69 100 142 178 223 292 358 422
#     4  11  27  45  71 102 139 190 236 296 359 437
#     4  11  26  44  73 101 145 186 234 298 360 432
#     4  10  23  46  68 104 136 182 242 289 362 442
#     4  10  24  48  72 104 146 190 244 303 360 436
#
# _framework density 23.024484999999999
#
# number of rings (size 3 to 8) (size 9 to 14) (size 15 to 20)
#    0.000    2.000    0.000    2.667   10.889    2.667 
#    4.000    0.000    0.000    0.000    0.000    0.000 
#    0.000    0.000    0.000    0.000    0.000    0.000 
#
# Total GULP energy -201354.498749 kJ/mol
# GULP energy per Si atom -5593.180521 kJ/mol
# Density = 2.297208 g / cm^3
# Si number density = 23.024485 Si / 1000 Ang^3
#
#
#
# Elastic Constant Matrix: (Units=GPa)
#
#
# Indices 1 2 3 4 5 6 
#
# 1 98.1185 37.7429 19.5529 0.0000 0.0000 0.0000
# 2 37.7429 98.1185 19.5529 0.0000 0.0000 0.0000
# 3 19.5529 19.5529 63.5437 0.0000 0.0000 0.0000
# 4 0.0000 0.0000 0.0000 12.7624 0.0000 0.0000
# 5 0.0000 0.0000 0.0000 0.0000 12.7624 0.0000
# 6 0.0000 0.0000 0.0000 0.0000 0.0000 34.3729
#
#
#
# Elastic Compliance Matrix: (Units=1/GPa)
#
#
# Indices 1 2 3 4 5 6 
#
# 1 0.012319 -0.004244 -0.002485 0.000000 0.000000 0.000000
# 2 -0.004244 0.012319 -0.002485 0.000000 0.000000 0.000000
# 3 -0.002485 -0.002485 0.017267 0.000000 0.000000 0.000000
# 4 0.000000 0.000000 0.000000 0.078355 0.000000 0.000000
# 5 0.000000 0.000000 0.000000 0.000000 0.078355 0.000000
# 6 0.000000 0.000000 0.000000 0.000000 0.000000 0.029093
#
#
# Mechanical properties :
#
#
# Convention : Reuss Voigt Hill
#
# Bulk Modulus (GPa) = 42.59297 45.94202 44.26749
# Shear Modulus (GPa) = 19.68806 24.17501 21.93154
#
# Velocity S-wave (km/s) = 2.92737 3.24384 3.08966
# Velocity P-wave (km/s) = 5.47404 5.83325 5.65650
#
# Compressibility (1/GPa) = 0.02347805
#
# Stress axis : x y z
#
# Youngs Moduli (GPa) = 81.17320 81.17320 57.91561
#
# Poissons Ratio (x) = 0.34447 0.14392
# Poissons Ratio (y) = 0.34447 0.14392
# Poissons Ratio (z) = 0.20171 0.20171
#
# Static dielectric constant tensor:
#      x y z
#    x 1.873870 0.000000 0.000000 
#    y 0.000000 1.873870 0.000000 
#    z 0.000000 0.000000 1.807020 
# 
# From -- ./inp_files/8631.got.cif
#   From: 2010.05.17/outbox.cif.g08.bks.cpg/sg122_5_cif.got.tgz:8631.got - 2010.05.20 11:37:33.
