data_PCOD9561184
_publ_section_title
;
Structure prediction by ZEFSAII (Michael W. Deem and Ramdas Pophale) SiO2 
 PCOD9561184
Probable space group: I -4 2 D
;
_chemical_formula_sum "Si O2"
_cell_formula_units_Z 88
_cell_length_a 16.052871
_cell_length_b 16.052871
_cell_length_c 15.963694
_cell_angle_alpha 90.000000
_cell_angle_beta 90.000000
_cell_angle_gamma 90.000000
_cell_volume 4113.758815
_symmetry_space_group_name_H-M "I -4 2 D"
_symmetry_group_IT_number 122
_symmetry_cell_setting 'tetragonal'
loop_
_space_group_symop_operation_xyz
x,y,z
y,-x,-z
-x,-y,z
-y,x,-z
x,1/2-y,1/4-z
-x,1/2+y,1/4-z
-y,1/2-x,1/4+z
y,1/2+x,1/4+z
1/2+x,1/2+y,1/2+z
1/2+y,1/2-x,1/2-z
1/2-x,1/2-y,1/2+z
1/2-y,1/2+x,1/2-z
1/2+x,-y,3/4-z
1/2-x,y,3/4-z
1/2-y,-x,3/4+z
1/2+y,x,3/4+z
loop_
_atom_site_type_symbol
_atom_site_label
_atom_site_fract_x
_atom_site_fract_y
_atom_site_fract_z
Si Si1 0.750000 0.035811 0.375000
Si Si2 0.000000 0.000000 0.500000
Si Si3 0.750000 0.188173 0.875000
Si Si4 0.603083 0.406685 0.286505
Si Si5 0.829416 0.723073 0.491587
Si Si6 0.124511 0.396019 0.842475
Si Si7 0.000000 0.000000 0.000000
Si Si8 0.411077 0.919531 0.597871
O O1 0.707000 0.096989 0.440933
O O2 0.814500 0.974446 0.419119
O O3 0.963846 0.927195 0.441948
O O4 0.672886 0.133100 0.905190
O O5 0.721637 0.246135 0.796753
O O6 0.618867 0.380629 0.191385
O O7 0.603541 0.506604 0.295054
O O8 0.510568 0.380289 0.316415
O O9 0.842076 0.815517 0.455114
O O10 0.849195 0.657540 0.418073
O O11 0.939009 0.946192 0.940624
#
# Coordination Sequence:
#
# PCOD9561184 Si02
#       8
#     8   4   8  16  16  16   4  16
#     4  11  22  42  59  98 146 172 223 282 334 425
#     4  12  24  38  68 108 140 186 236 268 368 426
#     4  11  26  46  67 108 140 184 227 300 344 419
#     4  10  23  44  71  93 139 178 238 283 349 413
#     4  11  25  40  71 100 143 182 226 283 355 413
#     4  12  23  40  66 103 138 186 225 283 346 429
#     4   8  20  42  76  96 128 174 260 292 332 406
#     4  10  22  46  70  98 129 185 229 296 344 415
#
# _framework density 21.391628000000001
#
# number of rings (size 3 to 8) (size 9 to 14) (size 15 to 20)
#    0.000    1.455    3.636    2.182    0.000    4.364 
#    0.000    6.364    0.000    0.000    0.000    0.000 
#    0.000    0.000    0.000    0.000    0.000    0.000 
#
# Total GULP energy -245914.160575 kJ/mol
# GULP energy per Si atom -5588.958195 kJ/mol
# Density = 2.134294 g / cm^3
# Si number density = 21.391628 Si / 1000 Ang^3
#
#
#
# Elastic Constant Matrix: (Units=GPa)
#
#
# Indices 1 2 3 4 5 6 
#
# 1 80.2763 51.6390 26.7122 0.0000 0.0000 0.0000
# 2 51.6390 80.2763 26.7122 0.0000 0.0000 0.0000
# 3 26.7122 26.7122 80.3499 0.0000 0.0000 0.0000
# 4 0.0000 0.0000 0.0000 -11.3124 0.0000 0.0000
# 5 0.0000 0.0000 0.0000 0.0000 -11.3124 0.0000
# 6 0.0000 0.0000 0.0000 0.0000 0.0000 24.7674
#
#
#
# Elastic Compliance Matrix: (Units=1/GPa)
#
#
# Indices 1 2 3 4 5 6 
#
# 1 0.021840 -0.013080 -0.002912 0.000000 0.000000 0.000000
# 2 -0.013080 0.021840 -0.002912 0.000000 0.000000 0.000000
# 3 -0.002912 -0.002912 0.014382 0.000000 0.000000 0.000000
# 4 0.000000 0.000000 0.000000 -0.088398 0.000000 0.000000
# 5 0.000000 0.000000 0.000000 0.000000 -0.088398 0.000000
# 6 0.000000 0.000000 0.000000 0.000000 0.000000 0.040376
#
#
# Mechanical properties :
#
#
# Convention : Reuss Voigt Hill
#
# Bulk Modulus (GPa) = 49.37546 50.11435 49.74490
# Shear Modulus (GPa) = -147.92708 9.48446 -69.22131
#
# Velocity S-wave (km/s) = -8.32478 2.10793 -5.69467
# Velocity P-wave (km/s) = 8.32291 5.42240 4.46478
#
# Compressibility (1/GPa) = 0.02025298
#
# Stress axis : x y z
#
# Youngs Moduli (GPa) = 45.78804 45.78804 69.53171
#
# Poissons Ratio (x) = 0.59889 0.20250
# Poissons Ratio (y) = 0.59889 0.20250
# Poissons Ratio (z) = 0.13335 0.13335
#
# Static dielectric constant tensor:
#      x y z
#    x 1.788060 0.000000 0.000000 
#    y 0.000000 1.788060 0.000000 
#    z 0.000000 0.000000 1.819200 
# 
# From -- ./inp_files/5446.got.cif
#   From: 2010.05.17/outbox.cif.g08.bks.cpg/sg122_3_cif.got.tgz:5446.got - 2010.05.20 11:37:33.
