data_PCOD9561501
_publ_section_title
;
Structure prediction by ZEFSAII (Michael W. Deem and Ramdas Pophale) SiO2 
 PCOD9561501
Probable space group: I -4 2 D
;
_chemical_formula_sum "Si O2"
_cell_formula_units_Z 40
_cell_length_a 17.306262
_cell_length_b 17.306262
_cell_length_c 5.102082
_cell_angle_alpha 90.000000
_cell_angle_beta 90.000000
_cell_angle_gamma 90.000000
_cell_volume 1528.107765
_symmetry_space_group_name_H-M "I -4 2 D"
_symmetry_group_IT_number 122
_symmetry_cell_setting 'tetragonal'
loop_
_space_group_symop_operation_xyz
x,y,z
y,-x,-z
-x,-y,z
-y,x,-z
x,1/2-y,1/4-z
-x,1/2+y,1/4-z
-y,1/2-x,1/4+z
y,1/2+x,1/4+z
1/2+x,1/2+y,1/2+z
1/2+y,1/2-x,1/2-z
1/2-x,1/2-y,1/2+z
1/2-y,1/2+x,1/2-z
1/2+x,-y,3/4-z
1/2-x,y,3/4-z
1/2-y,-x,3/4+z
1/2+y,x,3/4+z
loop_
_atom_site_type_symbol
_atom_site_label
_atom_site_fract_x
_atom_site_fract_y
_atom_site_fract_z
Si Si1 0.940429 0.750000 0.125000
Si Si2 0.620856 0.528643 0.518916
Si Si3 0.888375 0.250000 0.625000
Si Si4 0.250000 0.834277 0.375000
O O1 0.886785 0.737696 0.371966
O O2 0.996711 0.679816 0.053450
O O3 0.579600 0.447883 0.599160
O O4 0.677904 0.566990 0.734558
O O5 0.827251 0.214984 0.416809
#
# Coordination Sequence:
#
# PCOD9561501 Si02
#       4
#     8  16   8   8
#     4  12  27  55  85 126 175 234 292 378 453 547
#     4  11  27  54  85 124 180 235 303 374 462 540
#     4  12  27  53  95 131 182 236 312 380 455 555
#     4  12  28  52  90 129 171 234 300 374 446 548
#
# _framework density 26.176168000000001
#
# number of rings (size 3 to 8) (size 9 to 14) (size 15 to 20)
#    0.000    0.400    4.000    2.400    5.600    0.000 
#    0.000    0.000    0.000    0.000    0.000    0.000 
#    0.000    0.000    0.000    0.000    0.000    0.000 
#
# Total GULP energy -111936.550269 kJ/mol
# GULP energy per Si atom -5596.827513 kJ/mol
# Density = 2.611659 g / cm^3
# Si number density = 26.176168 Si / 1000 Ang^3
#
#
#
# Elastic Constant Matrix: (Units=GPa)
#
#
# Indices 1 2 3 4 5 6 
#
# 1 223.1598 128.4671 74.4076 0.0000 0.0000 0.0000
# 2 128.4671 223.1598 74.4076 0.0000 0.0000 0.0000
# 3 74.4076 74.4076 156.0859 0.0000 0.0000 0.0000
# 4 0.0000 0.0000 0.0000 -73.6332 0.0000 0.0000
# 5 0.0000 0.0000 0.0000 0.0000 -73.6332 0.0000
# 6 0.0000 0.0000 0.0000 0.0000 0.0000 81.2238
#
#
#
# Elastic Compliance Matrix: (Units=1/GPa)
#
#
# Indices 1 2 3 4 5 6 
#
# 1 0.007062 -0.003499 -0.001698 0.000000 0.000000 0.000000
# 2 -0.003499 0.007062 -0.001698 0.000000 0.000000 0.000000
# 3 -0.001698 -0.001698 0.008026 0.000000 0.000000 0.000000
# 4 0.000000 0.000000 0.000000 -0.013581 0.000000 0.000000
# 5 0.000000 0.000000 0.000000 0.000000 -0.013581 0.000000
# 6 0.000000 0.000000 0.000000 0.000000 0.000000 0.012312
#
#
# Mechanical properties :
#
#
# Convention : Reuss Voigt Hill
#
# Bulk Modulus (GPa) = 119.64724 128.55225 124.09974
# Shear Modulus (GPa) = 209.41167 8.46636 108.93902
#
# Velocity S-wave (km/s) = 8.95403 1.80039 6.45817
# Velocity P-wave (km/s) = 12.35747 7.31703 10.15495
#
# Compressibility (1/GPa) = 0.00835790
#
# Stress axis : x y z
#
# Youngs Moduli (GPa) = 141.61116 141.61116 124.59522
#
# Poissons Ratio (x) = 0.49548 0.21161
# Poissons Ratio (y) = 0.49548 0.21161
# Poissons Ratio (z) = 0.24051 0.24051
#
# Static dielectric constant tensor:
#      x y z
#    x 2.211890 0.000000 0.000000 
#    y 0.000000 2.211890 0.000000 
#    z 0.000000 0.000000 2.040380 
# 
# From -- ./inp_files/457.got.cif
#   From: 2010.05.17/outbox.cif.g08.bks.cpg/sg122_1_cif.got.tgz:457.got - 2010.05.20 11:37:33.
