data_PCOD9561150
_publ_section_title
;
Structure prediction by ZEFSAII (Michael W. Deem and Ramdas Pophale) SiO2 
 PCOD9561150
Probable space group: I -4 2 D
;
_chemical_formula_sum "Si O2"
_cell_formula_units_Z 96
_cell_length_a 19.104734
_cell_length_b 19.104734
_cell_length_c 10.278069
_cell_angle_alpha 90.000000
_cell_angle_beta 90.000000
_cell_angle_gamma 90.000000
_cell_volume 3751.401256
_symmetry_space_group_name_H-M "I -4 2 D"
_symmetry_group_IT_number 122
_symmetry_cell_setting 'tetragonal'
loop_
_space_group_symop_operation_xyz
x,y,z
y,-x,-z
-x,-y,z
-y,x,-z
x,1/2-y,1/4-z
-x,1/2+y,1/4-z
-y,1/2-x,1/4+z
y,1/2+x,1/4+z
1/2+x,1/2+y,1/2+z
1/2+y,1/2-x,1/2-z
1/2-x,1/2-y,1/2+z
1/2-y,1/2+x,1/2-z
1/2+x,-y,3/4-z
1/2-x,y,3/4-z
1/2-y,-x,3/4+z
1/2+y,x,3/4+z
loop_
_atom_site_type_symbol
_atom_site_label
_atom_site_fract_x
_atom_site_fract_y
_atom_site_fract_z
Si Si1 0.813263 0.879522 0.647433
Si Si2 0.023931 0.710401 0.487520
Si Si3 0.369655 0.304122 0.379884
Si Si4 0.913130 0.439711 0.295515
Si Si5 0.500512 0.416534 0.825085
Si Si6 0.851339 0.366475 0.624747
O O1 0.753446 0.937628 0.627928
O O2 0.813498 0.828903 0.771337
O O3 0.884517 0.923793 0.660391
O O4 0.819602 0.845669 0.504713
O O5 0.016111 0.750000 0.625000
O O6 0.083765 0.655156 0.532665
O O7 0.944942 0.697299 0.443608
O O8 0.381586 0.361253 0.492023
O O9 0.360870 0.225809 0.434294
O O10 0.914280 0.506740 0.198138
O O11 0.895425 0.476167 0.430400
O O12 0.500000 0.500000 0.843516
O O13 0.445550 0.373893 0.913342
#
# Coordination Sequence:
#
# PCOD9561150 Si02
#       6
#    16  16  16  16  16  16
#     4  11  23  41  70 102 138 182 234 296 361 425
#     4  10  22  43  67 103 146 176 234 301 358 427
#     4  12  23  43  74  99 140 189 239 292 361 443
#     4  11  21  41  66 101 139 178 228 298 359 414
#     4  12  23  39  66 105 135 173 233 291 364 420
#     4  11  25  40  70 104 138 185 228 300 364 423
#
# _framework density 25.590437999999999
#
# number of rings (size 3 to 8) (size 9 to 14) (size 15 to 20)
#    0.000    0.833    5.000    3.500    4.667    0.667 
#    0.000    0.000   40.333    0.000    0.000    0.000 
#    0.000    0.000    0.000    0.000    0.000    0.000 
#
# Total GULP energy -268469.710655 kJ/mol
# GULP energy per Si atom -5593.118972 kJ/mol
# Density = 2.553219 g / cm^3
# Si number density = 25.590438 Si / 1000 Ang^3
#
#
#
# Elastic Constant Matrix: (Units=GPa)
#
#
# Indices 1 2 3 4 5 6 
#
# 1 65.0854 -14.8408 6.0377 0.0000 0.0000 0.0000
# 2 -14.8408 65.0854 6.0377 0.0000 0.0000 0.0000
# 3 6.0377 6.0377 85.9575 0.0000 0.0000 0.0000
# 4 0.0000 0.0000 0.0000 36.5722 0.0000 0.0000
# 5 0.0000 0.0000 0.0000 0.0000 36.5722 0.0000
# 6 0.0000 0.0000 0.0000 0.0000 0.0000 32.1974
#
#
#
# Elastic Compliance Matrix: (Units=1/GPa)
#
#
# Indices 1 2 3 4 5 6 
#
# 1 0.016378 0.003866 -0.001422 0.000000 0.000000 0.000000
# 2 0.003866 0.016378 -0.001422 0.000000 0.000000 0.000000
# 3 -0.001422 -0.001422 0.011833 0.000000 0.000000 0.000000
# 4 0.000000 0.000000 0.000000 0.027343 0.000000 0.000000
# 5 0.000000 0.000000 0.000000 0.000000 0.027343 0.000000
# 6 0.000000 0.000000 0.000000 0.000000 0.000000 0.031058
#
#
# Mechanical properties :
#
#
# Convention : Reuss Voigt Hill
#
# Bulk Modulus (GPa) = 21.44344 23.39971 22.42157
# Shear Modulus (GPa) = 34.76230 35.66126 35.21178
#
# Velocity S-wave (km/s) = 3.68966 3.73706 3.71344
# Velocity P-wave (km/s) = 5.15258 5.27111 5.21218
#
# Compressibility (1/GPa) = 0.04663431
#
# Stress axis : x y z
#
# Youngs Moduli (GPa) = 61.05762 61.05762 84.50645
#
# Poissons Ratio (x) = -0.23607 0.12017
# Poissons Ratio (y) = -0.23607 0.12017
# Poissons Ratio (z) = 0.08682 0.08682
#
# Static dielectric constant tensor:
#      x y z
#    x 2.070210 0.000000 0.000000 
#    y 0.000000 2.070210 0.000000 
#    z 0.000000 0.000000 2.041980 
# 
# From -- ./inp_files/4475.got.cif
#   From: 2010.05.17/outbox.cif.g08.bks.cpg/sg122_3_cif.got.tgz:4475.got - 2010.05.20 11:37:33.
