data_PCOD9561926
_publ_section_title
;
Structure prediction by ZEFSAII (Michael W. Deem and Ramdas Pophale) SiO2 
 PCOD9561926
Probable space group: P 4/M M M
;
_chemical_formula_sum "Si O2"
_cell_formula_units_Z 72
_cell_length_a 19.444133
_cell_length_b 19.444133
_cell_length_c 10.616559
_cell_angle_alpha 90.000000
_cell_angle_beta 90.000000
_cell_angle_gamma 90.000000
_cell_volume 4013.848199
_symmetry_space_group_name_H-M "P 4/M M M"
_symmetry_group_IT_number 123
_symmetry_cell_setting 'tetragonal'
loop_
_space_group_symop_operation_xyz
x,y,z
-y,x,z
-x,-y,z
y,-x,z
x,-y,-z
-x,y,-z
y,x,-z
-y,-x,-z
-x,-y,-z
y,-x,-z
x,y,-z
-y,x,-z
-x,y,z
x,-y,z
-y,-x,z
y,x,z
loop_
_atom_site_type_symbol
_atom_site_label
_atom_site_fract_x
_atom_site_fract_y
_atom_site_fract_z
Si Si1 0.422949 0.916877 0.000000
Si Si2 0.305567 0.581453 0.143090
Si Si3 0.774307 0.662072 0.358522
Si Si4 0.183360 0.074991 0.151269
Si Si5 0.920898 0.337769 0.250876
O O1 0.382850 0.901013 0.128219
O O2 0.500000 0.887908 0.000000
O O3 0.427050 0.000000 0.000000
O O4 0.312933 0.500000 0.159673
O O5 0.377901 0.622100 0.151343
O O6 0.257798 0.614533 0.249865
O O7 0.278720 0.593975 0.000000
O O8 0.755681 0.639229 0.500000
O O9 0.737109 0.737109 0.341535
O O10 0.856748 0.659310 0.345068
O O11 0.135551 0.135551 0.198953
O O12 0.259124 0.076995 0.205997
O O13 0.152491 0.000000 0.178485
O O14 0.189231 0.080866 0.000000
O O15 0.000000 0.356228 0.290533
#
# Coordination Sequence:
#
# PCOD9561926 Si02
#       5
#     8  16  16  16  16
#     4   9  18  32  49  72 101 129 161 212 271 318
#     4   9  19  36  59  87 115 144 179 217 261 316
#     4  10  22  38  54  77 111 147 182 223 273 325
#     4   9  16  26  42  67  99 132 168 212 262 318
#     4  10  19  33  52  74 100 135 183 227 269 318
#
# _framework density 17.937898000000001
#
# number of rings (size 3 to 8) (size 9 to 14) (size 15 to 20)
#    0.000    2.556    1.111    0.667    1.556    2.222 
#    0.000    2.222    0.000    0.000    0.000    7.778 
#    0.000    0.000    0.000   20.667    0.000    0.222 
#
# Total GULP energy -400994.432604 kJ/mol
# GULP energy per Si atom -5569.367120 kJ/mol
# Density = 1.789707 g / cm^3
# Si number density = 17.937898 Si / 1000 Ang^3
#
#
#
# Elastic Constant Matrix: (Units=GPa)
#
#
# Indices 1 2 3 4 5 6 
#
# 1 93.5206 27.9552 48.4638 0.0000 0.0000 0.0000
# 2 27.9552 93.5206 48.4638 0.0000 0.0000 0.0000
# 3 48.4638 48.4638 92.2522 0.0000 0.0000 0.0000
# 4 0.0000 0.0000 0.0000 17.4626 0.0000 0.0000
# 5 0.0000 0.0000 0.0000 0.0000 17.4626 0.0000
# 6 0.0000 0.0000 0.0000 0.0000 0.0000 8.5633
#
#
#
# Elastic Compliance Matrix: (Units=1/GPa)
#
#
# Indices 1 2 3 4 5 6 
#
# 1 0.014713 -0.000539 -0.007446 0.000000 0.000000 0.000000
# 2 -0.000539 0.014713 -0.007446 0.000000 0.000000 0.000000
# 3 -0.007446 -0.007446 0.018663 0.000000 0.000000 0.000000
# 4 0.000000 0.000000 0.000000 0.057265 0.000000 0.000000
# 5 0.000000 0.000000 0.000000 0.000000 0.057265 0.000000
# 6 0.000000 0.000000 0.000000 0.000000 0.000000 0.116778
#
#
# Mechanical properties :
#
#
# Convention : Reuss Voigt Hill
#
# Bulk Modulus (GPa) = 58.05068 58.78435 58.41751
# Shear Modulus (GPa) = 15.82276 18.99172 17.40724
#
# Velocity S-wave (km/s) = 2.97321 3.25737 3.11853
# Velocity P-wave (km/s) = 6.64973 6.85489 6.75309
#
# Compressibility (1/GPa) = 0.01722633
#
# Stress axis : x y z
#
# Youngs Moduli (GPa) = 67.96913 67.96913 53.58206
#
# Poissons Ratio (x) = 0.03666 0.39896
# Poissons Ratio (y) = 0.03666 0.39896
# Poissons Ratio (z) = 0.50608 0.50608
#
# Static dielectric constant tensor:
#      x y z
#    x 1.626970 0.000000 0.000000 
#    y 0.000000 1.626970 0.000000 
#    z 0.000000 0.000000 1.604470 
# 
# From -- ./inp_files/2710.got.cif
#   From: 2010.05.17/outbox.cif.g08.bks.cpg/sg123_2_cif.got.tgz:2710.got - 2010.05.20 11:43:04.
