data_PCOD9561710
_publ_section_title
;
Structure prediction by ZEFSAII (Michael W. Deem and Ramdas Pophale) SiO2 
 PCOD9561710
Probable space group: P 4/M M M
;
_chemical_formula_sum "Si O2"
_cell_formula_units_Z 120
_cell_length_a 28.944598
_cell_length_b 28.944598
_cell_length_c 7.441196
_cell_angle_alpha 90.000000
_cell_angle_beta 90.000000
_cell_angle_gamma 90.000000
_cell_volume 6234.157762
_symmetry_space_group_name_H-M "P 4/M M M"
_symmetry_group_IT_number 123
_symmetry_cell_setting 'tetragonal'
loop_
_space_group_symop_operation_xyz
x,y,z
-y,x,z
-x,-y,z
y,-x,z
x,-y,-z
-x,y,-z
y,x,-z
-y,-x,-z
-x,-y,-z
y,-x,-z
x,y,-z
-y,x,-z
-x,y,z
x,-y,z
-y,-x,z
y,x,z
loop_
_atom_site_type_symbol
_atom_site_label
_atom_site_fract_x
_atom_site_fract_y
_atom_site_fract_z
Si Si1 0.054971 0.869034 0.000000
Si Si2 0.875122 0.291476 0.299730
Si Si3 0.770670 0.553802 0.279633
Si Si4 0.303119 0.623955 0.706767
Si Si5 0.887862 0.812361 0.283325
Si Si6 0.049688 0.553773 0.216583
Si Si7 0.861267 0.390036 0.707757
Si Si8 0.773233 0.698160 0.205136
O O1 0.073917 0.840637 0.172854
O O2 0.082224 0.917777 0.000000
O O3 0.000000 0.873347 0.000000
O O4 0.896006 0.293036 0.500000
O O5 0.887903 0.241333 0.223530
O O6 0.880641 0.341909 0.210727
O O7 0.819678 0.291800 0.306948
O O8 0.770785 0.554624 0.500000
O O9 0.774494 0.500000 0.226371
O O10 0.722674 0.578365 0.219310
O O11 0.815321 0.584299 0.220097
O O12 0.315132 0.613984 0.500000
O O13 0.347109 0.652892 0.785118
O O14 0.260830 0.660476 0.711576
O O15 0.894460 0.813741 0.500000
O O16 0.839389 0.839389 0.246676
O O17 0.049820 0.500000 0.264305
O O18 0.095667 0.576164 0.288735
O O19 0.000000 0.573758 0.275003
O O20 0.051415 0.556864 0.000000
O O21 0.849769 0.379222 0.500000
O O22 0.744666 0.744666 0.198804
O O23 0.783445 0.683734 0.000000
#
# Coordination Sequence:
#
# PCOD9561710 Si02
#       8
#     8  16  16  16  16  16  16  16
#     4  10  22  41  66  94 122 150 185 227 269 321
#     4  10  19  32  49  71 101 136 174 208 244 293
#     4   9  16  27  43  65  93 122 155 200 253 303
#     4   9  16  28  44  61  86 123 163 198 241 299
#     4   9  19  36  58  84 116 154 188 219 259 308
#     4   9  19  36  53  66  84 114 153 200 256 309
#     4  10  19  31  48  71  95 122 159 205 255 301
#     4  10  19  27  40  65  95 126 159 199 241 280
#
# _framework density 19.248792000000002
#
# number of rings (size 3 to 8) (size 9 to 14) (size 15 to 20)
#    0.000    2.533    1.333    1.600    0.933    3.267 
#    0.000    1.333    0.000    2.800    0.000    1.867 
#    0.000    0.267    0.000    3.733    0.000    0.000 
#
# Total GULP energy -668044.215446 kJ/mol
# GULP energy per Si atom -5567.035129 kJ/mol
# Density = 1.920498 g / cm^3
# Si number density = 19.248792 Si / 1000 Ang^3
#
#
#
# Elastic Constant Matrix: (Units=GPa)
#
#
# Indices 1 2 3 4 5 6 
#
# 1 127.2449 51.4220 13.9118 0.0000 0.0000 0.0000
# 2 51.4220 127.2445 13.9118 0.0000 0.0000 0.0000
# 3 13.9118 13.9118 64.8246 0.0000 0.0000 0.0000
# 4 0.0000 0.0000 0.0000 41.3907 0.0000 0.0000
# 5 0.0000 0.0000 0.0000 0.0000 41.3958 0.0000
# 6 0.0000 0.0000 0.0000 0.0000 0.0000 21.7175
#
#
#
# Elastic Compliance Matrix: (Units=1/GPa)
#
#
# Indices 1 2 3 4 5 6 
#
# 1 0.009490 -0.003699 -0.001243 0.000000 0.000000 0.000000
# 2 -0.003699 0.009490 -0.001243 0.000000 0.000000 0.000000
# 3 -0.001243 -0.001243 0.015960 0.000000 0.000000 0.000000
# 4 0.000000 0.000000 0.000000 0.024160 0.000000 0.000000
# 5 0.000000 0.000000 0.000000 0.000000 0.024157 0.000000
# 6 0.000000 0.000000 0.000000 0.000000 0.000000 0.046046
#
#
# Mechanical properties :
#
#
# Convention : Reuss Voigt Hill
#
# Bulk Modulus (GPa) = 44.30670 53.08945 48.69807
# Shear Modulus (GPa) = 33.51346 36.90538 35.20942
#
# Velocity S-wave (km/s) = 4.17714 4.38343 4.28153
# Velocity P-wave (km/s) = 6.80680 7.29793 7.05664
#
# Compressibility (1/GPa) = 0.02256995
#
# Stress axis : x y z
#
# Youngs Moduli (GPa) = 105.37870 105.37835 62.65809
#
# Poissons Ratio (x) = 0.38980 0.07786
# Poissons Ratio (y) = 0.38980 0.07786
# Poissons Ratio (z) = 0.13095 0.13095
#
# Static dielectric constant tensor:
#      x y z
#    x 1.692110 0.000000 0.000000 
#    y 0.000000 1.692120 0.000000 
#    z 0.000000 0.000000 1.816890 
# 
# From -- ./inp_files/2031.got.cif
#   From: 2010.05.17/outbox.cif.g08.bks.cpg/sg123_2_cif.got.tgz:2031.got - 2010.05.20 11:43:04.
