data_PCOD9561800
_publ_section_title
;
Structure prediction by ZEFSAII (Michael W. Deem and Ramdas Pophale) SiO2 
 PCOD9561800
Probable space group: P 4/M M M
;
_chemical_formula_sum "Si O2"
_cell_formula_units_Z 76
_cell_length_a 12.592124
_cell_length_b 12.592124
_cell_length_c 30.334335
_cell_angle_alpha 90.000000
_cell_angle_beta 90.000000
_cell_angle_gamma 90.000000
_cell_volume 4809.860293
_symmetry_space_group_name_H-M "P 4/M M M"
_symmetry_group_IT_number 123
_symmetry_cell_setting 'tetragonal'
loop_
_space_group_symop_operation_xyz
x,y,z
-y,x,z
-x,-y,z
y,-x,z
x,-y,-z
-x,y,-z
y,x,-z
-y,-x,-z
-x,-y,-z
y,-x,-z
x,y,-z
-y,x,-z
-x,y,z
x,-y,z
-y,-x,z
y,x,z
loop_
_atom_site_type_symbol
_atom_site_label
_atom_site_fract_x
_atom_site_fract_y
_atom_site_fract_z
Si Si1 0.815190 0.000000 0.500000
Si Si2 0.000000 0.623861 0.428434
Si Si3 0.793210 0.376224 0.176090
Si Si4 0.000000 0.621892 0.114659
Si Si5 0.628295 0.119599 0.271877
Si Si6 0.175595 0.000000 0.052780
Si Si7 0.792165 0.377002 0.632587
O O1 0.728141 0.000000 0.540078
O O2 0.896330 0.103671 0.500000
O O3 0.103937 0.630483 0.397737
O O4 0.000000 0.500000 0.446893
O O5 0.761593 0.500000 0.176313
O O6 0.699474 0.300527 0.160478
O O7 0.824457 0.345193 0.226089
O O8 0.896832 0.366170 0.145662
O O9 0.000000 0.500000 0.097425
O O10 0.000000 0.713734 0.078329
O O11 0.500000 0.112496 0.271864
O O12 0.654602 0.176264 0.317528
O O13 0.671409 0.000000 0.272035
O O14 0.102768 0.102768 0.063737
O O15 0.191247 0.000000 0.000000
O O16 0.757930 0.500000 0.633225
O O17 0.699981 0.300020 0.616456
#
# Coordination Sequence:
#
# PCOD9561800 Si02
#       7
#     4   8  16   8  16   8  16
#     4  11  23  38  56  78 103 125 150 196 250 285
#     4  10  20  36  56  76  97 127 164 193 227 285
#     4  10  19  30  46  68  95 127 162 199 237 277
#     4  10  19  31  48  70  95 124 160 195 231 280
#     4   9  15  28  46  66  92 124 164 199 229 269
#     4   9  18  33  52  72  94 120 150 190 243 294
#     4  10  19  31  50  74  99 128 161 197 236 278
#
# _framework density 15.800874
#
# number of rings (size 3 to 8) (size 9 to 14) (size 15 to 20)
#    0.000    2.263    2.105    2.368    0.000    0.632 
#    0.000    0.000    0.000    3.789    0.000    1.474 
#    0.000    7.579    0.000   19.579    0.000    0.000 
#
# Total GULP energy -423172.881967 kJ/mol
# GULP energy per Si atom -5568.064236 kJ/mol
# Density = 1.576491 g / cm^3
# Si number density = 15.800874 Si / 1000 Ang^3
#
#
#
# Elastic Constant Matrix: (Units=GPa)
#
#
# Indices 1 2 3 4 5 6 
#
# 1 114.4792 78.7484 42.6639 0.0000 0.0000 0.0000
# 2 78.7484 114.4791 42.6639 0.0000 0.0000 0.0000
# 3 42.6639 42.6639 66.3335 0.0000 0.0000 0.0000
# 4 0.0000 0.0000 0.0000 -68.2433 0.0000 0.0000
# 5 0.0000 0.0000 0.0000 0.0000 -68.3232 0.0000
# 6 0.0000 0.0000 0.0000 0.0000 0.0000 26.9724
#
#
#
# Elastic Compliance Matrix: (Units=1/GPa)
#
#
# Indices 1 2 3 4 5 6 
#
# 1 0.017608 -0.010379 -0.004649 0.000000 0.000000 0.000000
# 2 -0.010379 0.017608 -0.004649 0.000000 0.000000 0.000000
# 3 -0.004649 -0.004649 0.021056 0.000000 0.000000 0.000000
# 4 0.000000 0.000000 0.000000 -0.014653 0.000000 0.000000
# 5 0.000000 0.000000 0.000000 0.000000 -0.014636 0.000000
# 6 0.000000 0.000000 0.000000 0.000000 0.000000 0.037075
#
#
# Mechanical properties :
#
#
# Convention : Reuss Voigt Hill
#
# Bulk Modulus (GPa) = 59.11560 69.27158 64.19359
# Shear Modulus (GPa) = 45.85078 -13.17111 16.33984
#
# Velocity S-wave (km/s) = 5.39267 -2.89029 3.21925
# Velocity P-wave (km/s) = 8.73319 5.72688 7.38464
#
# Compressibility (1/GPa) = 0.01691601
#
# Stress axis : x y z
#
# Youngs Moduli (GPa) = 56.79357 56.79351 47.49350
#
# Poissons Ratio (x) = 0.58949 0.22080
# Poissons Ratio (y) = 0.58949 0.22080
# Poissons Ratio (z) = 0.26403 0.26403
#
# Static dielectric constant tensor:
#      x y z
#    x 1.518850 0.000000 0.000000 
#    y 0.000000 1.518850 0.000000 
#    z 0.000000 0.000000 1.522740 
# 
# From -- ./inp_files/8430.got.cif
#   From: 2010.05.17/outbox.cif.g08.bks.cpg/sg123_5_cif.got.tgz:8430.got - 2010.05.20 11:43:04.
