data_PCOD9561337
_publ_section_title
;
Structure prediction by ZEFSAII (Michael W. Deem and Ramdas Pophale) SiO2 
 PCOD9561337
Probable space group: I -4 2 D
;
_chemical_formula_sum "Si O2"
_cell_formula_units_Z 56
_cell_length_a 13.736871
_cell_length_b 13.736871
_cell_length_c 14.352406
_cell_angle_alpha 90.000000
_cell_angle_beta 90.000000
_cell_angle_gamma 90.000000
_cell_volume 2708.322333
_symmetry_space_group_name_H-M "I -4 2 D"
_symmetry_group_IT_number 122
_symmetry_cell_setting 'tetragonal'
loop_
_space_group_symop_operation_xyz
x,y,z
y,-x,-z
-x,-y,z
-y,x,-z
x,1/2-y,1/4-z
-x,1/2+y,1/4-z
-y,1/2-x,1/4+z
y,1/2+x,1/4+z
1/2+x,1/2+y,1/2+z
1/2+y,1/2-x,1/2-z
1/2-x,1/2-y,1/2+z
1/2-y,1/2+x,1/2-z
1/2+x,-y,3/4-z
1/2-x,y,3/4-z
1/2-y,-x,3/4+z
1/2+y,x,3/4+z
loop_
_atom_site_type_symbol
_atom_site_label
_atom_site_fract_x
_atom_site_fract_y
_atom_site_fract_z
Si Si1 0.003621 0.356279 0.127019
Si Si2 0.353701 0.716496 0.324501
Si Si3 0.052892 0.182192 0.912110
Si Si4 0.802251 0.250000 0.625000
O O1 0.954712 0.250000 0.125000
O O2 0.098564 0.353142 0.063376
O O3 0.047438 0.356460 0.231687
O O4 0.919967 0.433148 0.107593
O O5 0.250000 0.741156 0.375000
O O6 0.452039 0.734039 0.383975
O O7 0.358752 0.762743 0.222476
O O8 0.150580 0.241801 0.892171
#
# Coordination Sequence:
#
# PCOD9561337 Si02
#       4
#    16  16  16   8
#     4  11  20  36  66 104 128 170 238 306 359 383
#     4  11  24  41  64 100 137 178 231 287 359 420
#     4  12  22  40  68  99 138 178 236 303 347 407
#     4  12  24  44  64  96 142 188 230 276 358 436
#
# _framework density 20.677009000000002
#
# number of rings (size 3 to 8) (size 9 to 14) (size 15 to 20)
#    0.000    0.571   10.000    0.857    0.000    0.000 
#    2.571    0.000    0.000    0.000    0.000    0.000 
#    0.000    0.000    0.000    0.000    0.000    0.000 
#
# Total GULP energy -156022.518746 kJ/mol
# GULP energy per Si atom -5572.232812 kJ/mol
# Density = 2.062995 g / cm^3
# Si number density = 20.677009 Si / 1000 Ang^3
#
#
#
# Elastic Constant Matrix: (Units=GPa)
#
#
# Indices 1 2 3 4 5 6 
#
# 1 90.6633 9.8796 22.0556 0.0000 0.0000 0.0000
# 2 9.8796 90.6633 22.0556 0.0000 0.0000 0.0000
# 3 22.0556 22.0556 101.0028 0.0000 0.0000 0.0000
# 4 0.0000 0.0000 0.0000 20.3771 0.0000 0.0000
# 5 0.0000 0.0000 0.0000 0.0000 20.3771 0.0000
# 6 0.0000 0.0000 0.0000 0.0000 0.0000 8.6782
#
#
#
# Elastic Compliance Matrix: (Units=1/GPa)
#
#
# Indices 1 2 3 4 5 6 
#
# 1 0.011689 -0.000689 -0.002402 0.000000 0.000000 0.000000
# 2 -0.000689 0.011689 -0.002402 0.000000 0.000000 0.000000
# 3 -0.002402 -0.002402 0.010950 0.000000 0.000000 0.000000
# 4 0.000000 0.000000 0.000000 0.049075 0.000000 0.000000
# 5 0.000000 0.000000 0.000000 0.000000 0.049075 0.000000
# 6 0.000000 0.000000 0.000000 0.000000 0.000000 0.115231
#
#
# Mechanical properties :
#
#
# Convention : Reuss Voigt Hill
#
# Bulk Modulus (GPa) = 42.84225 43.36787 43.10506
# Shear Modulus (GPa) = 18.76341 25.10907 21.93624
#
# Velocity S-wave (km/s) = 3.01566 3.48853 3.26068
# Velocity P-wave (km/s) = 5.73501 6.10294 5.92184
#
# Compressibility (1/GPa) = 0.02334144
#
# Stress axis : x y z
#
# Youngs Moduli (GPa) = 85.54844 85.54845 91.32635
#
# Poissons Ratio (x) = 0.05898 0.21936
# Poissons Ratio (y) = 0.05898 0.21936
# Poissons Ratio (z) = 0.20549 0.20549
#
# Static dielectric constant tensor:
#      x y z
#    x 1.813670 0.000000 0.000000 
#    y 0.000000 1.813670 0.000000 
#    z 0.000000 0.000000 1.784830 
# 
# From -- ./inp_files/3901.got.cif
#   From: 2010.05.17/outbox.cif.g08.bks.cpg/sg122_2_cif.got.tgz:3901.got - 2010.05.20 11:37:33.
