data_PCOD9561639
_publ_section_title
;
Structure prediction by ZEFSAII (Michael W. Deem and Ramdas Pophale) SiO2 
 PCOD9561639
Probable space group: P 4/M M M
;
_chemical_formula_sum "Si O2"
_cell_formula_units_Z 112
_cell_length_a 18.056160
_cell_length_b 18.056160
_cell_length_c 20.909225
_cell_angle_alpha 90.000000
_cell_angle_beta 90.000000
_cell_angle_gamma 90.000000
_cell_volume 6816.928281
_symmetry_space_group_name_H-M "P 4/M M M"
_symmetry_group_IT_number 123
_symmetry_cell_setting 'tetragonal'
loop_
_space_group_symop_operation_xyz
x,y,z
-y,x,z
-x,-y,z
y,-x,z
x,-y,-z
-x,y,-z
y,x,-z
-y,-x,-z
-x,-y,-z
y,-x,-z
x,y,-z
-y,x,-z
-x,y,z
x,-y,z
-y,-x,z
y,x,z
loop_
_atom_site_type_symbol
_atom_site_label
_atom_site_fract_x
_atom_site_fract_y
_atom_site_fract_z
Si Si1 0.082709 0.738310 0.242203
Si Si2 0.204721 0.914603 0.100734
Si Si3 0.290612 0.415488 0.669575
Si Si4 0.675040 0.197916 0.428116
Si Si5 0.350834 0.224609 0.208604
Si Si6 0.914150 0.206290 0.615786
Si Si7 0.328672 0.797929 0.069141
O O1 0.088004 0.787221 0.178007
O O2 0.146998 0.678021 0.236528
O O3 0.090957 0.784154 0.307247
O O4 0.000000 0.705219 0.242748
O O5 0.133617 0.866384 0.081473
O O6 0.277353 0.870993 0.076324
O O7 0.201937 0.000000 0.080987
O O8 0.308348 0.500000 0.654740
O O9 0.360993 0.360993 0.662203
O O10 0.226139 0.384036 0.623327
O O11 0.261580 0.407016 0.742291
O O12 0.644841 0.195000 0.500000
O O13 0.739527 0.260473 0.426310
O O14 0.718738 0.122859 0.411403
O O15 0.278831 0.278831 0.208409
O O16 0.373574 0.212367 0.134878
O O17 0.863023 0.136978 0.596079
O O18 0.000000 0.198246 0.598027
O O19 0.269853 0.730147 0.068103
O O20 0.367094 0.799281 0.000000
#
# Coordination Sequence:
#
# PCOD9561639 Si02
#       7
#    16  16  16  16  16  16  16
#     4   9  15  24  41  63  87 118 160 208 253 290
#     4   9  16  23  32  49  77 114 155 199 247 296
#     4  10  20  34  55  81 106 130 154 184 225 277
#     4   9  18  33  52  72  95 128 170 206 234 275
#     4   9  15  27  47  67  92 124 162 200 235 281
#     4  10  18  28  45  68  97 132 171 215 258 297
#     4   8  14  24  39  59  81 108 148 200 245 272
#
# _framework density 16.429687999999999
#
# number of rings (size 3 to 8) (size 9 to 14) (size 15 to 20)
#    0.000    2.857    1.429    2.143    0.000    1.286 
#    0.000    0.000    0.000    4.714    0.000    7.000 
#    0.000    0.000    0.000   12.714    0.000    0.857 
#
# Total GULP energy -623522.080141 kJ/mol
# GULP energy per Si atom -5567.161430 kJ/mol
# Density = 1.639229 g / cm^3
# Si number density = 16.429688 Si / 1000 Ang^3
#
#
#
# Elastic Constant Matrix: (Units=GPa)
#
#
# Indices 1 2 3 4 5 6 
#
# 1 56.3272 32.4093 25.2128 0.0000 0.0000 0.0000
# 2 32.4093 56.3272 25.2128 0.0000 0.0000 0.0000
# 3 25.2128 25.2128 91.8298 0.0000 0.0000 0.0000
# 4 0.0000 0.0000 0.0000 5.5708 0.0000 0.0000
# 5 0.0000 0.0000 0.0000 0.0000 5.5708 0.0000
# 6 0.0000 0.0000 0.0000 0.0000 0.0000 7.0128
#
#
#
# Elastic Compliance Matrix: (Units=1/GPa)
#
#
# Indices 1 2 3 4 5 6 
#
# 1 0.027581 -0.014229 -0.003666 0.000000 0.000000 0.000000
# 2 -0.014229 0.027581 -0.003666 0.000000 0.000000 0.000000
# 3 -0.003666 -0.003666 0.012903 0.000000 0.000000 0.000000
# 4 0.000000 0.000000 0.000000 0.179507 0.000000 0.000000
# 5 0.000000 0.000000 0.000000 0.000000 0.179507 0.000000
# 6 0.000000 0.000000 0.000000 0.000000 0.000000 0.142596
#
#
# Mechanical properties :
#
#
# Convention : Reuss Voigt Hill
#
# Bulk Modulus (GPa) = 40.09028 41.12821 40.60925
# Shear Modulus (GPa) = 8.05009 11.74085 9.89547
#
# Velocity S-wave (km/s) = 2.21593 2.67612 2.45683
# Velocity P-wave (km/s) = 5.56788 5.88524 5.72876
#
# Compressibility (1/GPa) = 0.02494370
#
# Stress axis : x y z
#
# Youngs Moduli (GPa) = 36.25660 36.25660 77.50233
#
# Poissons Ratio (x) = 0.51588 0.28413
# Poissons Ratio (y) = 0.51588 0.28413
# Poissons Ratio (z) = 0.13292 0.13292
#
# Static dielectric constant tensor:
#      x y z
#    x 1.530960 0.000000 0.000000 
#    y 0.000000 1.530960 0.000000 
#    z 0.000000 0.000000 1.607790 
# 
# From -- ./inp_files/6676.got.cif
#   From: 2010.05.17/outbox.cif.g08.bks.cpg/sg123_4_cif.got.tgz:6676.got - 2010.05.20 11:43:04.
