data_PCOD9561486
_publ_section_title
;
Structure prediction by ZEFSAII (Michael W. Deem and Ramdas Pophale) SiO2 
 PCOD9561486
Probable space group: I -4 2 D
;
_chemical_formula_sum "Si O2"
_cell_formula_units_Z 72
_cell_length_a 19.016371
_cell_length_b 19.016371
_cell_length_c 8.048782
_cell_angle_alpha 90.000000
_cell_angle_beta 90.000000
_cell_angle_gamma 90.000000
_cell_volume 2910.619590
_symmetry_space_group_name_H-M "I -4 2 D"
_symmetry_group_IT_number 122
_symmetry_cell_setting 'tetragonal'
loop_
_space_group_symop_operation_xyz
x,y,z
y,-x,-z
-x,-y,z
-y,x,-z
x,1/2-y,1/4-z
-x,1/2+y,1/4-z
-y,1/2-x,1/4+z
y,1/2+x,1/4+z
1/2+x,1/2+y,1/2+z
1/2+y,1/2-x,1/2-z
1/2-x,1/2-y,1/2+z
1/2-y,1/2+x,1/2-z
1/2+x,-y,3/4-z
1/2-x,y,3/4-z
1/2-y,-x,3/4+z
1/2+y,x,3/4+z
loop_
_atom_site_type_symbol
_atom_site_label
_atom_site_fract_x
_atom_site_fract_y
_atom_site_fract_z
Si Si1 0.750000 0.653145 0.875000
Si Si2 0.526979 0.298534 0.316899
Si Si3 0.626344 0.759141 0.927966
Si Si4 0.079911 0.665920 0.116778
Si Si5 0.113087 0.018961 0.519416
O O1 0.743992 0.599723 0.719320
O O2 0.818818 0.701757 0.889132
O O3 0.542408 0.354914 0.460569
O O4 0.575826 0.055669 0.210632
O O5 0.512297 0.165016 0.111049
O O6 0.633262 0.750000 0.125000
O O7 0.543537 0.755413 0.886153
O O8 0.648773 0.837650 0.879262
O O9 0.070445 0.750000 0.125000
O O10 0.046014 0.635535 0.950826
#
# Coordination Sequence:
#
# PCOD9561486 Si02
#       5
#     8  16  16  16  16
#     4  12  28  48  88 120 162 226 274 336 432 484
#     4  12  27  50  80 122 168 211 277 348 412 493
#     4  12  26  51  80 119 171 211 274 350 403 501
#     4  12  27  48  79 120 160 217 276 336 413 493
#     4  11  26  49  80 118 167 222 275 336 420 500
#
# _framework density 24.737003000000001
#
# number of rings (size 3 to 8) (size 9 to 14) (size 15 to 20)
#    0.000    0.222    4.444    4.000    3.111    0.000 
#    0.000    2.222    0.000    0.667    0.000    0.000 
#    0.000    0.000    0.000    0.000    0.000    0.000 
#
# Total GULP energy -201498.789214 kJ/mol
# GULP energy per Si atom -5597.188589 kJ/mol
# Density = 2.468070 g / cm^3
# Si number density = 24.737003 Si / 1000 Ang^3
#
#
#
# Elastic Constant Matrix: (Units=GPa)
#
#
# Indices 1 2 3 4 5 6 
#
# 1 152.3755 75.4491 55.2441 0.0000 0.0000 0.0000
# 2 75.4491 152.3755 55.2441 0.0000 0.0000 0.0000
# 3 55.2441 55.2441 137.2470 0.0000 0.0000 0.0000
# 4 0.0000 0.0000 0.0000 35.4708 0.0000 0.0000
# 5 0.0000 0.0000 0.0000 0.0000 35.4708 0.0000
# 6 0.0000 0.0000 0.0000 0.0000 0.0000 1010.8346
#
#
#
# Elastic Compliance Matrix: (Units=1/GPa)
#
#
# Indices 1 2 3 4 5 6 
#
# 1 0.009227 -0.003773 -0.002195 0.000000 0.000000 0.000000
# 2 -0.003773 0.009227 -0.002195 0.000000 0.000000 0.000000
# 3 -0.002195 -0.002195 0.009053 0.000000 0.000000 0.000000
# 4 0.000000 0.000000 0.000000 0.028192 0.000000 0.000000
# 5 0.000000 0.000000 0.000000 0.000000 0.028192 0.000000
# 6 0.000000 0.000000 0.000000 0.000000 0.000000 0.000989
#
#
# Mechanical properties :
#
#
# Convention : Reuss Voigt Hill
#
# Bulk Modulus (GPa) = 89.44421 90.43033 89.93727
# Shear Modulus (GPa) = 47.64899 233.42596 140.53748
#
# Velocity S-wave (km/s) = 4.39364 9.72460 7.54559
# Velocity P-wave (km/s) = 7.87244 12.75643 10.59957
#
# Compressibility (1/GPa) = 0.01118015
#
# Stress axis : x y z
#
# Youngs Moduli (GPa) = 108.38080 108.38080 110.45521
#
# Poissons Ratio (x) = 0.40889 0.24249
# Poissons Ratio (y) = 0.40889 0.24249
# Poissons Ratio (z) = 0.23793 0.23793
#
# Static dielectric constant tensor:
#      x y z
#    x 2.022320 0.000000 0.000000 
#    y 0.000000 2.022320 0.000000 
#    z 0.000000 0.000000 1.297780 
# 
# From -- ./inp_files/4332.got.cif
#   From: 2010.05.17/outbox.cif.g08.bks.cpg/sg122_3_cif.got.tgz:4332.got - 2010.05.20 11:37:33.
