data_PCOD9561505
_publ_section_title
;
Structure prediction by ZEFSAII (Michael W. Deem and Ramdas Pophale) SiO2 
 PCOD9561505
Probable space group: I -4 2 D
;
_chemical_formula_sum "Si O2"
_cell_formula_units_Z 24
_cell_length_a 7.030719
_cell_length_b 7.030719
_cell_length_c 18.028864
_cell_angle_alpha 90.000000
_cell_angle_beta 90.000000
_cell_angle_gamma 90.000000
_cell_volume 891.184950
_symmetry_space_group_name_H-M "I -4 2 D"
_symmetry_group_IT_number 122
_symmetry_cell_setting 'tetragonal'
loop_
_space_group_symop_operation_xyz
x,y,z
y,-x,-z
-x,-y,z
-y,x,-z
x,1/2-y,1/4-z
-x,1/2+y,1/4-z
-y,1/2-x,1/4+z
y,1/2+x,1/4+z
1/2+x,1/2+y,1/2+z
1/2+y,1/2-x,1/2-z
1/2-x,1/2-y,1/2+z
1/2-y,1/2+x,1/2-z
1/2+x,-y,3/4-z
1/2-x,y,3/4-z
1/2-y,-x,3/4+z
1/2+y,x,3/4+z
loop_
_atom_site_type_symbol
_atom_site_label
_atom_site_fract_x
_atom_site_fract_y
_atom_site_fract_z
Si Si1 0.934287 0.250000 0.125000
Si Si2 0.726017 0.655113 0.751604
O O1 0.782489 0.352550 0.180095
O O2 0.083140 0.168523 0.183980
O O3 0.762289 0.434061 0.769607
#
# Coordination Sequence:
#
# PCOD9561505 Si02
#       2
#     8  16
#     4  12  28  52  86 124 168 226 282 352 430 502
#     4  11  28  51  80 124 174 219 283 360 418 516
#
# _framework density 26.930433000000001
#
# number of rings (size 3 to 8) (size 9 to 14) (size 15 to 20)
#    0.000    0.667    0.000    4.000   18.667    0.000 
#    0.000    0.000    0.000    0.000    0.000    0.000 
#    0.000    0.000    0.000    0.000    0.000    0.000 
#
# Total GULP energy -67097.073962 kJ/mol
# GULP energy per Si atom -5591.422830 kJ/mol
# Density = 2.686914 g / cm^3
# Si number density = 26.930433 Si / 1000 Ang^3
#
#
#
# Elastic Constant Matrix: (Units=GPa)
#
#
# Indices 1 2 3 4 5 6 
#
# 1 169.4289 94.9551 104.4960 0.0000 0.0000 0.0000
# 2 94.9551 169.4289 104.4960 0.0000 0.0000 0.0000
# 3 104.4960 104.4960 226.7602 0.0000 0.0000 0.0000
# 4 0.0000 0.0000 0.0000 11.8480 0.0000 0.0000
# 5 0.0000 0.0000 0.0000 0.0000 11.8480 0.0000
# 6 0.0000 0.0000 0.0000 0.0000 0.0000 38.2342
#
#
#
# Elastic Compliance Matrix: (Units=1/GPa)
#
#
# Indices 1 2 3 4 5 6 
#
# 1 0.009689 -0.003739 -0.002742 0.000000 0.000000 0.000000
# 2 -0.003739 0.009689 -0.002742 0.000000 0.000000 0.000000
# 3 -0.002742 -0.002742 0.006937 0.000000 0.000000 0.000000
# 4 0.000000 0.000000 0.000000 0.084403 0.000000 0.000000
# 5 0.000000 0.000000 0.000000 0.000000 0.084403 0.000000
# 6 0.000000 0.000000 0.000000 0.000000 0.000000 0.026155
#
#
# Mechanical properties :
#
#
# Convention : Reuss Voigt Hill
#
# Bulk Modulus (GPa) = 127.07684 130.39024 128.73354
# Shear Modulus (GPa) = 20.63203 29.83077 25.23140
#
# Velocity S-wave (km/s) = 2.77090 3.33182 3.06422
# Velocity P-wave (km/s) = 7.58463 7.95763 7.77337
#
# Compressibility (1/GPa) = 0.00786925
#
# Stress axis : x y z
#
# Youngs Moduli (GPa) = 103.21398 103.21398 144.15756
#
# Poissons Ratio (x) = 0.38591 0.39524
# Poissons Ratio (y) = 0.38591 0.39524
# Poissons Ratio (z) = 0.28299 0.28299
#
# Static dielectric constant tensor:
#      x y z
#    x 2.229390 0.000000 0.000000 
#    y 0.000000 2.229390 0.000000 
#    z 0.000000 0.000000 2.079080 
# 
# From -- ./inp_files/4675.got.cif
#   From: 2010.05.17/outbox.cif.g08.bks.cpg/sg122_3_cif.got.tgz:4675.got - 2010.05.20 11:37:33.
