data_PCOD9561591
_publ_section_title
;
Structure prediction by ZEFSAII (Michael W. Deem and Ramdas Pophale) SiO2 
 PCOD9561591
Probable space group: I -4 2 D
;
_chemical_formula_sum "Si O2"
_cell_formula_units_Z 48
_cell_length_a 15.000000
_cell_length_b 15.000000
_cell_length_c 21.000000
_cell_angle_alpha 90.000000
_cell_angle_beta 90.000000
_cell_angle_gamma 90.000000
_cell_volume 4725.000000
_symmetry_space_group_name_H-M "I -4 2 D"
_symmetry_group_IT_number 122
_symmetry_cell_setting 'tetragonal'
loop_
_space_group_symop_operation_xyz
x,y,z
y,-x,-z
-x,-y,z
-y,x,-z
x,1/2-y,1/4-z
-x,1/2+y,1/4-z
-y,1/2-x,1/4+z
y,1/2+x,1/4+z
1/2+x,1/2+y,1/2+z
1/2+y,1/2-x,1/2-z
1/2-x,1/2-y,1/2+z
1/2-y,1/2+x,1/2-z
1/2+x,-y,3/4-z
1/2-x,y,3/4-z
1/2-y,-x,3/4+z
1/2+y,x,3/4+z
loop_
_atom_site_type_symbol
_atom_site_label
_atom_site_fract_x
_atom_site_fract_y
_atom_site_fract_z
Si Si1 0.474641 0.732459 0.951267
Si Si2 0.652937 0.250000 0.125000
Si Si3 0.250000 0.503573 0.375000
Si Si4 0.759544 0.574201 0.514809
Si Si5 0.600179 0.044500 0.092500
Si Si6 0.057698 0.595571 0.363085
Si Si7 0.830594 0.774509 0.502335
O O1 0.507959 0.653475 0.904251
O O2 0.471102 0.831921 0.918481
O O3 0.371391 0.703568 0.968637
O O4 0.559958 0.732521 0.000659
O O5 0.603282 0.155934 0.098426
O O6 0.713158 0.209417 0.181218
O O7 0.251130 0.444636 0.439555
O O8 0.159600 0.563129 0.373807
O O9 0.835169 0.501891 0.538696
O O10 0.664452 0.556511 0.551741
O O11 0.792057 0.677884 0.526877
O O12 0.500000 0.000000 0.088683
O O13 0.000000 0.500000 0.359802
#
# Coordination Sequence:
#
# PCOD9561591 Si02
#       7
#    16   8   8  16  16  16  16
#     4  10  25  44  71 108 142 197 241 302 374 446
#     4  10  25  44  69  98 144 192 241 300 375 442
#     4  12  27  44  77  98 146 194 235 310 367 438
#     4  11  27  44  71 109 142 190 249 302 370 446
#     4  10  25  45  71 105 144 187 243 299 373 442
#     4  11  26  48  70 102 145 189 250 304 371 450
#     4  11  24  44  72 104 149 187 250 302 371 446
#
# _framework density 10.15873
#
# number of rings (size 3 to 8) (size 9 to 14) (size 15 to 20)
#    0.000    1.333    0.000    2.500   14.000    4.000 
#    0.000    0.000    0.000    0.000    0.000    0.000 
#    0.000    0.000    0.000    0.000    0.000    0.000 
#
# Total GULP energy -267428.552060 kJ/mol
# GULP energy per Si atom -5571.428168 kJ/mol
# Density = 1.013561 g / cm^3
# Si number density = 10.158730 Si / 1000 Ang^3
#
#
#
# Elastic Constant Matrix: (Units=GPa)
#
#
# Indices 1 2 3 4 5 6 
#
# 1 199.1621 63.7022 33.8553 0.0000 0.0000 0.0000
# 2 63.7022 199.1621 33.8553 0.0000 0.0000 0.0000
# 3 33.8553 33.8553 72.9529 0.0000 0.0000 0.0000
# 4 0.0000 0.0000 0.0000 34.7231 0.0000 0.0000
# 5 0.0000 0.0000 0.0000 0.0000 34.7231 0.0000
# 6 0.0000 0.0000 0.0000 0.0000 0.0000 52.0408
#
#
#
# Elastic Compliance Matrix: (Units=1/GPa)
#
#
# Indices 1 2 3 4 5 6 
#
# 1 0.005851 -0.001531 -0.002005 0.000000 0.000000 0.000000
# 2 -0.001531 0.005851 -0.002005 0.000000 0.000000 0.000000
# 3 -0.002005 -0.002005 0.015569 0.000000 0.000000 0.000000
# 4 0.000000 0.000000 0.000000 0.028799 0.000000 0.000000
# 5 0.000000 0.000000 0.000000 0.000000 0.028799 0.000000
# 6 0.000000 0.000000 0.000000 0.000000 0.000000 0.019216
#
#
# Mechanical properties :
#
#
# Convention : Reuss Voigt Hill
#
# Bulk Modulus (GPa) = 61.76848 81.56695 71.66771
# Shear Modulus (GPa) = 41.47167 46.95504 44.21335
#
# Velocity S-wave (km/s) = 4.52285 4.81257 4.66996
# Velocity P-wave (km/s) = 7.59885 8.43294 8.02674
#
# Compressibility (1/GPa) = 0.01618949
#
# Stress axis : x y z
#
# Youngs Moduli (GPa) = 170.89639 170.89639 64.23218
#
# Poissons Ratio (x) = 0.26160 0.12879
# Poissons Ratio (y) = 0.26160 0.12879
# Poissons Ratio (z) = 0.34267 0.34267
#
# Static dielectric constant tensor:
#      x y z
#    x 1.733460 0.000000 0.000000 
#    y 0.000000 1.733460 0.000000 
#    z 0.000000 0.000000 1.822580 
# 
# From -- ./inp_files/7342.got.cif
#   From: 2010.05.17/outbox.ucp.g08.bks.cvg/sg122_4_cif.got.tgz:7342.got - 2010.06.11 11:35:26.
