data_PCOD9561386
_publ_section_title
;
Structure prediction by ZEFSAII (Michael W. Deem and Ramdas Pophale) SiO2 
 PCOD9561386
Probable space group: I -4 2 D
;
_chemical_formula_sum "Si O2"
_cell_formula_units_Z 96
_cell_length_a 23.084842
_cell_length_b 23.084842
_cell_length_c 8.809701
_cell_angle_alpha 90.000000
_cell_angle_beta 90.000000
_cell_angle_gamma 90.000000
_cell_volume 4694.777145
_symmetry_space_group_name_H-M "I -4 2 D"
_symmetry_group_IT_number 122
_symmetry_cell_setting 'tetragonal'
loop_
_space_group_symop_operation_xyz
x,y,z
y,-x,-z
-x,-y,z
-y,x,-z
x,1/2-y,1/4-z
-x,1/2+y,1/4-z
-y,1/2-x,1/4+z
y,1/2+x,1/4+z
1/2+x,1/2+y,1/2+z
1/2+y,1/2-x,1/2-z
1/2-x,1/2-y,1/2+z
1/2-y,1/2+x,1/2-z
1/2+x,-y,3/4-z
1/2-x,y,3/4-z
1/2-y,-x,3/4+z
1/2+y,x,3/4+z
loop_
_atom_site_type_symbol
_atom_site_label
_atom_site_fract_x
_atom_site_fract_y
_atom_site_fract_z
Si Si1 0.409041 0.993570 0.225504
Si Si2 0.087763 0.194614 0.914962
Si Si3 0.285106 0.131250 0.531360
Si Si4 0.188750 0.011118 0.296052
Si Si5 0.205836 0.793693 0.245916
Si Si6 0.414741 0.170976 0.489369
O O1 0.452459 0.950569 0.318096
O O2 0.359054 0.022336 0.327105
O O3 0.375393 0.953978 0.101141
O O4 0.044693 0.168885 0.793513
O O5 0.152553 0.184107 0.853294
O O6 0.076901 0.264095 0.925154
O O7 0.073626 0.170828 0.080920
O O8 0.250000 0.127953 0.375000
O O9 0.245812 0.160045 0.661375
O O10 0.345287 0.162014 0.489486
O O11 0.302309 0.065070 0.565978
O O12 0.250000 0.999058 0.375000
O O13 0.250000 0.815054 0.375000
O O14 0.235126 0.750000 0.125000
#
# Coordination Sequence:
#
# PCOD9561386 Si02
#       6
#    16  16  16  16  16  16
#     4  11  24  45  72  95 125 177 238 286 335 401
#     4  11  24  40  65  92 137 177 209 265 345 406
#     4  11  24  41  64  96 133 166 218 274 322 400
#     4  11  23  42  66  97 127 171 220 274 336 398
#     4  12  23  39  63  99 136 177 214 262 335 412
#     4  11  22  45  62  94 137 174 216 276 330 403
#
# _framework density 20.448255
#
# number of rings (size 3 to 8) (size 9 to 14) (size 15 to 20)
#    0.000    0.833    5.000    3.000    2.333    0.000 
#    6.000    0.000    0.000    2.000    0.000    0.000 
#    0.000    0.000    0.000    0.000    0.000    0.000 
#
# Total GULP energy -267814.497545 kJ/mol
# GULP energy per Si atom -5579.468699 kJ/mol
# Density = 2.040171 g / cm^3
# Si number density = 20.448255 Si / 1000 Ang^3
#
#
#
# Elastic Constant Matrix: (Units=GPa)
#
#
# Indices 1 2 3 4 5 6 
#
# 1 86.7057 6.0099 23.4014 0.0000 0.0000 0.0000
# 2 6.0099 86.7057 23.4014 0.0000 0.0000 0.0000
# 3 23.4014 23.4014 67.2304 0.0000 0.0000 0.0000
# 4 0.0000 0.0000 0.0000 24.5984 0.0000 0.0000
# 5 0.0000 0.0000 0.0000 0.0000 24.5984 0.0000
# 6 0.0000 0.0000 0.0000 0.0000 0.0000 28.5512
#
#
#
# Elastic Compliance Matrix: (Units=1/GPa)
#
#
# Indices 1 2 3 4 5 6 
#
# 1 0.012739 0.000346 -0.004555 0.000000 0.000000 0.000000
# 2 0.000346 0.012739 -0.004555 0.000000 0.000000 0.000000
# 3 -0.004555 -0.004555 0.018045 0.000000 0.000000 0.000000
# 4 0.000000 0.000000 0.000000 0.040653 0.000000 0.000000
# 5 0.000000 0.000000 0.000000 0.000000 0.040653 0.000000
# 6 0.000000 0.000000 0.000000 0.000000 0.000000 0.035025
#
#
# Mechanical properties :
#
#
# Convention : Reuss Voigt Hill
#
# Bulk Modulus (GPa) = 38.46690 38.47412 38.47051
# Shear Modulus (GPa) = 26.87541 28.07155 27.47348
#
# Velocity S-wave (km/s) = 3.62928 3.70916 3.66944
# Velocity P-wave (km/s) = 6.03447 6.09919 6.06692
#
# Compressibility (1/GPa) = 0.02599638
#
# Stress axis : x y z
#
# Youngs Moduli (GPa) = 78.50211 78.50211 55.41741
#
# Poissons Ratio (x) = -0.02718 0.25240
# Poissons Ratio (y) = -0.02718 0.25240
# Poissons Ratio (z) = 0.35754 0.35754
#
# Static dielectric constant tensor:
#      x y z
#    x 1.763750 0.000000 0.000000 
#    y 0.000000 1.763750 0.000000 
#    z 0.000000 0.000000 1.802830 
# 
# From -- ./inp_files/2893.got.cif
#   From: 2010.05.17/outbox.cif.g08.bks.cpg/sg122_2_cif.got.tgz:2893.got - 2010.05.20 11:37:33.
