data_PCOD9561906
_publ_section_title
;
Structure prediction by ZEFSAII (Michael W. Deem and Ramdas Pophale) SiO2 
 PCOD9561906
Probable space group: P 4/M M M
;
_chemical_formula_sum "Si O2"
_cell_formula_units_Z 80
_cell_length_a 12.712890
_cell_length_b 12.712890
_cell_length_c 31.417721
_cell_angle_alpha 90.000000
_cell_angle_beta 90.000000
_cell_angle_gamma 90.000000
_cell_volume 5077.655791
_symmetry_space_group_name_H-M "P 4/M M M"
_symmetry_group_IT_number 123
_symmetry_cell_setting 'tetragonal'
loop_
_space_group_symop_operation_xyz
x,y,z
-y,x,z
-x,-y,z
y,-x,z
x,-y,-z
-x,y,-z
y,x,-z
-y,-x,-z
-x,-y,-z
y,-x,-z
x,y,-z
-y,x,-z
-x,y,z
x,-y,z
-y,-x,z
y,x,z
loop_
_atom_site_type_symbol
_atom_site_label
_atom_site_fract_x
_atom_site_fract_y
_atom_site_fract_z
Si Si1 0.701979 0.874689 0.000000
Si Si2 0.623276 0.796226 0.602197
Si Si3 0.376725 0.796245 0.297249
Si Si4 0.000000 0.372126 0.548817
Si Si5 0.623601 0.201932 0.909308
Si Si6 0.000000 0.627626 0.853729
Si Si7 0.627891 0.000000 0.243812
O O1 0.641592 0.837483 0.042358
O O2 0.813267 0.813267 0.000000
O O3 0.713014 0.000000 0.000000
O O4 0.500000 0.774959 0.593504
O O5 0.695511 0.695511 0.593813
O O6 0.631711 0.822414 0.652474
O O7 0.658762 0.895211 0.574155
O O8 0.500000 0.774916 0.288566
O O9 0.304446 0.695555 0.288861
O O10 0.341318 0.895241 0.269198
O O11 0.000000 0.500000 0.548724
O O12 0.000000 0.336353 0.500000
O O13 0.500000 0.223474 0.902435
O O14 0.696858 0.303143 0.902286
O O15 0.658057 0.105499 0.878915
O O16 0.000000 0.663992 0.804969
O O17 0.000000 0.500000 0.853543
O O18 0.500000 0.000000 0.243636
#
# Coordination Sequence:
#
# PCOD9561906 Si02
#       7
#     8  16  16   8  16   8   8
#     4  10  19  32  52  76 102 133 168 205 244 286
#     4   9  17  29  46  69  96 124 155 192 234 281
#     4   9  17  29  47  71  97 125 156 192 235 282
#     4   9  17  29  45  64  88 122 162 198 231 273
#     4  10  20  33  51  75 101 130 162 197 239 286
#     4   9  18  32  50  69  92 125 165 202 232 275
#     4   9  17  30  48  69  92 123 162 199 233 273
#
# _framework density 15.755300999999999
#
# number of rings (size 3 to 8) (size 9 to 14) (size 15 to 20)
#    0.000    2.700    1.000    0.900    0.000    4.700 
#    0.000    2.000    0.000    2.700    0.000   13.300 
#    0.000    0.000    0.000    0.000    0.000    0.000 
#
# Total GULP energy -445729.512111 kJ/mol
# GULP energy per Si atom -5571.618901 kJ/mol
# Density = 1.571944 g / cm^3
# Si number density = 15.755301 Si / 1000 Ang^3
#
#
#
# Elastic Constant Matrix: (Units=GPa)
#
#
# Indices 1 2 3 4 5 6 
#
# 1 95.8835 63.5697 59.7191 0.0000 0.0000 0.0000
# 2 63.5697 95.8835 59.7191 0.0000 0.0000 0.0000
# 3 59.7191 59.7191 95.3232 0.0000 0.0000 0.0000
# 4 0.0000 0.0000 0.0000 13.6334 0.0000 0.0000
# 5 0.0000 0.0000 0.0000 0.0000 13.6334 0.0000
# 6 0.0000 0.0000 0.0000 0.0000 0.0000 2.8114
#
#
#
# Elastic Compliance Matrix: (Units=1/GPa)
#
#
# Indices 1 2 3 4 5 6 
#
# 1 0.021382 -0.009565 -0.007403 0.000000 0.000000 0.000000
# 2 -0.009565 0.021382 -0.007403 0.000000 0.000000 0.000000
# 3 -0.007403 -0.007403 0.019766 0.000000 0.000000 0.000000
# 4 0.000000 0.000000 0.000000 0.073349 0.000000 0.000000
# 5 0.000000 0.000000 0.000000 0.000000 0.073349 0.000000
# 6 0.000000 0.000000 0.000000 0.000000 0.000000 0.355689
#
#
# Mechanical properties :
#
#
# Convention : Reuss Voigt Hill
#
# Bulk Modulus (GPa) = 72.52849 72.56736 72.54793
# Shear Modulus (GPa) = 8.08726 12.95444 10.52085
#
# Velocity S-wave (km/s) = 2.26808 2.87056 2.58692
# Velocity P-wave (km/s) = 7.27964 7.55949 7.42088
#
# Compressibility (1/GPa) = 0.01378769
#
# Stress axis : x y z
#
# Youngs Moduli (GPa) = 46.76911 46.76911 50.59065
#
# Poissons Ratio (x) = 0.44734 0.37452
# Poissons Ratio (y) = 0.44734 0.37452
# Poissons Ratio (z) = 0.34623 0.34623
#
# Static dielectric constant tensor:
#      x y z
#    x 1.505020 0.000000 0.000000 
#    y 0.000000 1.505020 0.000000 
#    z 0.000000 0.000000 1.532090 
# 
# From -- ./inp_files/8414.got.cif
#   From: 2010.05.17/outbox.cif.g08.bks.cpg/sg123_5_cif.got.tgz:8414.got - 2010.05.20 11:43:04.
