data_PCOD9561100
_publ_section_title
;
Structure prediction by ZEFSAII (Michael W. Deem and Ramdas Pophale) SiO2 
 PCOD9561100
Probable space group: I -4 2 D
;
_chemical_formula_sum "Si O2"
_cell_formula_units_Z 108
_cell_length_a 29.199521
_cell_length_b 29.199521
_cell_length_c 5.305166
_cell_angle_alpha 90.000000
_cell_angle_beta 90.000000
_cell_angle_gamma 90.000000
_cell_volume 4523.248335
_symmetry_space_group_name_H-M "I -4 2 D"
_symmetry_group_IT_number 122
_symmetry_cell_setting 'tetragonal'
loop_
_space_group_symop_operation_xyz
x,y,z
y,-x,-z
-x,-y,z
-y,x,-z
x,1/2-y,1/4-z
-x,1/2+y,1/4-z
-y,1/2-x,1/4+z
y,1/2+x,1/4+z
1/2+x,1/2+y,1/2+z
1/2+y,1/2-x,1/2-z
1/2-x,1/2-y,1/2+z
1/2-y,1/2+x,1/2-z
1/2+x,-y,3/4-z
1/2-x,y,3/4-z
1/2-y,-x,3/4+z
1/2+y,x,3/4+z
loop_
_atom_site_type_symbol
_atom_site_label
_atom_site_fract_x
_atom_site_fract_y
_atom_site_fract_z
Si Si1 0.627799 0.899628 0.519977
Si Si2 0.750000 0.577876 0.375000
Si Si3 0.903810 0.033313 0.566114
Si Si4 0.500000 0.500000 0.000000
Si Si5 0.829604 0.518321 0.344209
Si Si6 0.432470 0.337783 0.350974
Si Si7 0.221767 0.848272 0.133961
Si Si8 0.210084 0.343438 0.041228
O O1 0.587283 0.916127 0.343999
O O2 0.648722 0.942961 0.663128
O O3 0.598376 0.867308 0.706709
O O4 0.665867 0.865819 0.401378
O O5 0.790214 0.546317 0.483644
O O6 0.767607 0.611775 0.162481
O O7 0.875535 0.038932 0.307113
O O8 0.867640 0.006486 0.738757
O O9 0.951453 0.008503 0.629380
O O10 0.807875 0.474218 0.207612
O O11 0.393101 0.303972 0.252156
O O12 0.250000 0.830176 0.375000
O O13 0.250000 0.861028 0.875000
O O14 0.187516 0.810317 0.015966
O O15 0.250000 0.321128 0.875000
#
# Coordination Sequence:
#
# PCOD9561100 Si02
#       8
#    16   8  16   4  16  16  16  16
#     4   9  21  41  63  96 136 189 240 301 375 437
#     4  10  24  42  68  98 140 186 242 306 380 458
#     4  11  23  40  67  93 148 192 250 310 376 447
#     4  12  24  36  62 108 136 202 256 308 378 444
#     4  10  22  40  64 101 140 184 250 310 374 441
#     4  10  23  40  69 100 138 195 244 309 375 448
#     4  11  28  49  80 112 150 194 247 312 382 463
#     4  10  24  45  74 101 141 189 240 299 376 457
#
# _framework density 23.876646999999998
#
# number of rings (size 3 to 8) (size 9 to 14) (size 15 to 20)
#    0.000    1.778    0.000    1.778    9.333    7.111 
#    1.333    3.704    0.000    0.000    0.000    0.000 
#    0.000    0.000    0.000    0.000    0.000    0.000 
#
# Total GULP energy -300784.262959 kJ/mol
# GULP energy per Si atom -5570.078944 kJ/mol
# Density = 2.382230 g / cm^3
# Si number density = 23.876647 Si / 1000 Ang^3
#
#
#
# Elastic Constant Matrix: (Units=GPa)
#
#
# Indices 1 2 3 4 5 6 
#
# 1 20.8544 143.0400 14.2628 0.0000 0.0000 0.0000
# 2 143.0400 20.8544 14.2628 0.0000 0.0000 0.0000
# 3 14.2628 14.2628 31.2322 0.0000 0.0000 0.0000
# 4 0.0000 0.0000 0.0000 18.5412 0.0000 0.0000
# 5 0.0000 0.0000 0.0000 0.0000 18.5412 0.0000
# 6 0.0000 0.0000 0.0000 0.0000 0.0000 81.7621
#
#
#
# Elastic Compliance Matrix: (Units=1/GPa)
#
#
# Indices 1 2 3 4 5 6 
#
# 1 -0.000778 0.007406 -0.003027 0.000000 0.000000 0.000000
# 2 0.007406 -0.000778 -0.003027 0.000000 0.000000 0.000000
# 3 -0.003027 -0.003027 0.034783 0.000000 0.000000 0.000000
# 4 0.000000 0.000000 0.000000 0.053934 0.000000 0.000000
# 5 0.000000 0.000000 0.000000 0.000000 0.053934 0.000000
# 6 0.000000 0.000000 0.000000 0.000000 0.000000 0.012231
#
#
# Mechanical properties :
#
#
# Convention : Reuss Voigt Hill
#
# Bulk Modulus (GPa) = 27.83058 46.23024 37.03041
# Shear Modulus (GPa) = 30.75072 17.19393 23.97232
#
# Velocity S-wave (km/s) = 3.59262 2.68641 3.17204
# Velocity P-wave (km/s) = 5.37499 5.38763 5.38131
#
# Compressibility (1/GPa) = 0.03593169
#
# Stress axis : x y z
#
# Youngs Moduli (GPa) = -1285.39199 -1285.39199 28.74981
#
# Poissons Ratio (x) = 9.51999 0.08702
# Poissons Ratio (y) = 9.51999 0.08702
# Poissons Ratio (z) = -3.89081 -3.89081
#
# Static dielectric constant tensor:
#      x y z
#    x 2.020490 0.000000 0.000000 
#    y 0.000000 2.020490 0.000000 
#    z 0.000000 0.000000 1.936230 
# 
# From -- ./inp_files/1553.got.cif
#   From: 2010.05.17/outbox.cif.g08.bks.cpg/sg122_1_cif.got.tgz:1553.got - 2010.05.20 11:37:33.
