data_PCOD9561985
_publ_section_title
;
Structure prediction by ZEFSAII (Michael W. Deem and Ramdas Pophale) SiO2 
 PCOD9561985
Probable space group: P 4/M M M
;
_chemical_formula_sum "Si O2"
_cell_formula_units_Z 56
_cell_length_a 13.451900
_cell_length_b 13.451900
_cell_length_c 18.495302
_cell_angle_alpha 90.000000
_cell_angle_beta 90.000000
_cell_angle_gamma 90.000000
_cell_volume 3346.791732
_symmetry_space_group_name_H-M "P 4/M M M"
_symmetry_group_IT_number 123
_symmetry_cell_setting 'tetragonal'
loop_
_space_group_symop_operation_xyz
x,y,z
-y,x,z
-x,-y,z
y,-x,z
x,-y,-z
-x,y,-z
y,x,-z
-y,-x,-z
-x,-y,-z
y,-x,-z
x,y,-z
-y,x,-z
-x,y,z
x,-y,z
-y,-x,z
y,x,z
loop_
_atom_site_type_symbol
_atom_site_label
_atom_site_fract_x
_atom_site_fract_y
_atom_site_fract_z
Si Si1 0.118757 0.721586 0.272305
Si Si2 0.282491 0.117727 0.000000
Si Si3 0.385046 0.879368 0.580019
Si Si4 0.782572 0.382663 0.138060
O O1 0.174018 0.825983 0.260226
O O2 0.148676 0.679680 0.351068
O O3 0.159174 0.647528 0.210902
O O4 0.000000 0.729589 0.268415
O O5 0.343264 0.153187 0.070404
O O6 0.179396 0.179396 0.000000
O O7 0.267800 0.000000 0.000000
O O8 0.350877 0.846649 0.500000
O O9 0.500000 0.848110 0.589269
O O10 0.385341 0.000000 0.579184
O O11 0.766886 0.500000 0.133654
O O12 0.680265 0.319736 0.137268
#
# Coordination Sequence:
#
# PCOD9561985 Si02
#       4
#    16   8  16  16
#     4  10  20  32  47  69  97 130 168 207 246 291
#     4  10  21  36  54  78 106 136 171 206 240 282
#     4   8  14  26  45  67  89 116 154 200 247 291
#     4  10  21  36  54  77 102 128 162 203 248 299
#
# _framework density 16.732444000000001
#
# number of rings (size 3 to 8) (size 9 to 14) (size 15 to 20)
#    0.000    2.571    0.000    3.000    0.000    5.286 
#    0.000    0.000    0.000    7.714    0.000    4.000 
#    0.000    0.000    0.000   26.571    0.000    1.429 
#
# Total GULP energy -312162.434160 kJ/mol
# GULP energy per Si atom -5574.329181 kJ/mol
# Density = 1.669436 g / cm^3
# Si number density = 16.732444 Si / 1000 Ang^3
#
#
#
# Elastic Constant Matrix: (Units=GPa)
#
#
# Indices 1 2 3 4 5 6 
#
# 1 96.6433 79.3149 52.2103 0.0000 0.0000 0.0000
# 2 79.3149 96.6433 52.2103 0.0000 0.0000 0.0000
# 3 52.2103 52.2103 128.1531 0.0000 0.0000 0.0000
# 4 0.0000 0.0000 0.0000 21.6406 0.0000 0.0000
# 5 0.0000 0.0000 0.0000 0.0000 21.6406 0.0000
# 6 0.0000 0.0000 0.0000 0.0000 0.0000 5.3893
#
#
#
# Elastic Compliance Matrix: (Units=1/GPa)
#
#
# Indices 1 2 3 4 5 6 
#
# 1 0.032602 -0.025107 -0.003054 0.000000 0.000000 0.000000
# 2 -0.025107 0.032602 -0.003054 0.000000 0.000000 0.000000
# 3 -0.003054 -0.003054 0.010291 0.000000 0.000000 0.000000
# 4 0.000000 0.000000 0.000000 0.046209 0.000000 0.000000
# 5 0.000000 0.000000 0.000000 0.000000 0.046209 0.000000
# 6 0.000000 0.000000 0.000000 0.000000 0.000000 0.185553
#
#
# Mechanical properties :
#
#
# Convention : Reuss Voigt Hill
#
# Bulk Modulus (GPa) = 76.52630 76.54561 76.53596
# Shear Modulus (GPa) = 11.89766 18.91439 15.40602
#
# Velocity S-wave (km/s) = 2.66945 3.36579 3.03764
# Velocity P-wave (km/s) = 7.43881 7.80710 7.62518
#
# Compressibility (1/GPa) = 0.01306740
#
# Stress axis : x y z
#
# Youngs Moduli (GPa) = 30.67295 30.67295 97.16946
#
# Poissons Ratio (x) = 0.77010 0.29672
# Poissons Ratio (y) = 0.77010 0.29672
# Poissons Ratio (z) = 0.09366 0.09366
#
# Static dielectric constant tensor:
#      x y z
#    x 1.539250 0.000000 0.000000 
#    y 0.000000 1.539250 0.000000 
#    z 0.000000 0.000000 1.584730 
# 
# From -- ./inp_files/6101.got.cif
#   From: 2010.05.17/outbox.cif.g08.bks.cpg/sg123_4_cif.got.tgz:6101.got - 2010.05.20 11:43:04.
