data_PCOD9561930
_publ_section_title
;
Structure prediction by ZEFSAII (Michael W. Deem and Ramdas Pophale) SiO2 
 PCOD9561930
Probable space group: P 4/M M M
;
_chemical_formula_sum "Si O2"
_cell_formula_units_Z 104
_cell_length_a 17.567555
_cell_length_b 17.567555
_cell_length_c 19.739804
_cell_angle_alpha 90.000000
_cell_angle_beta 90.000000
_cell_angle_gamma 90.000000
_cell_volume 6092.078347
_symmetry_space_group_name_H-M "P 4/M M M"
_symmetry_group_IT_number 123
_symmetry_cell_setting 'tetragonal'
loop_
_space_group_symop_operation_xyz
x,y,z
-y,x,z
-x,-y,z
y,-x,z
x,-y,-z
-x,y,-z
y,x,-z
-y,-x,-z
-x,-y,-z
y,-x,-z
x,y,-z
-y,x,-z
-x,y,z
x,-y,z
-y,-x,z
y,x,z
loop_
_atom_site_type_symbol
_atom_site_label
_atom_site_fract_x
_atom_site_fract_y
_atom_site_fract_z
Si Si1 0.000000 0.416744 0.418550
Si Si2 0.412881 0.707182 0.400136
Si Si3 0.211607 0.909084 0.299895
Si Si4 0.142887 0.686692 0.421884
Si Si5 0.414169 0.294931 0.237081
Si Si6 0.091236 0.413552 0.919806
Si Si7 0.297381 0.172868 0.178528
O O1 0.076252 0.372226 0.402283
O O2 0.000000 0.500000 0.387537
O O3 0.000000 0.422928 0.500000
O O4 0.500000 0.715034 0.423985
O O5 0.369928 0.630073 0.421628
O O6 0.358623 0.777795 0.419080
O O7 0.415916 0.706263 0.318554
O O8 0.128681 0.871320 0.291010
O O9 0.248752 0.869304 0.366139
O O10 0.261652 0.883033 0.235051
O O11 0.210868 0.000000 0.307303
O O12 0.131589 0.712459 0.500000
O O13 0.500000 0.287670 0.211596
O O14 0.373359 0.373359 0.215859
O O15 0.359049 0.227502 0.214346
O O16 0.114375 0.500000 0.898238
O O17 0.129935 0.345334 0.878798
O O18 0.000000 0.409165 0.911166
O O19 0.107373 0.407244 0.000000
O O20 0.228617 0.228617 0.154743
#
# Coordination Sequence:
#
# PCOD9561930 Si02
#       7
#     8  16  16  16  16  16  16
#     4   9  18  32  50  74 103 129 158 206 263 318
#     4  10  20  34  51  72 100 135 176 219 263 311
#     4  11  23  39  58  80 105 134 171 215 268 327
#     4  11  21  36  56  77 102 135 174 218 272 327
#     4   9  17  29  46  69  99 134 171 212 254 296
#     4   9  18  33  53  78 110 145 176 208 250 302
#     4  10  19  33  54  78 106 137 172 217 259 302
#
# _framework density 17.071349999999999
#
# number of rings (size 3 to 8) (size 9 to 14) (size 15 to 20)
#    0.000    2.077    2.308    2.308    0.000    2.923 
#    0.000    1.538    0.000    0.000    0.000    2.154 
#    0.000    0.000    0.000   28.615    0.000    0.154 
#
# Total GULP energy -579771.527621 kJ/mol
# GULP energy per Si atom -5574.726227 kJ/mol
# Density = 1.703249 g / cm^3
# Si number density = 17.071350 Si / 1000 Ang^3
#
#
#
# Elastic Constant Matrix: (Units=GPa)
#
#
# Indices 1 2 3 4 5 6 
#
# 1 104.2433 69.9591 41.2632 0.0000 0.0000 0.0000
# 2 69.9591 104.2433 41.2632 0.0000 0.0000 0.0000
# 3 41.2632 41.2632 69.4009 0.0000 0.0000 0.0000
# 4 0.0000 0.0000 0.0000 -7.4204 0.0000 0.0000
# 5 0.0000 0.0000 0.0000 0.0000 -7.4204 0.0000
# 6 0.0000 0.0000 0.0000 0.0000 0.0000 -20.5725
#
#
#
# Elastic Compliance Matrix: (Units=1/GPa)
#
#
# Indices 1 2 3 4 5 6 
#
# 1 0.018580 -0.010588 -0.004751 0.000000 0.000000 0.000000
# 2 -0.010588 0.018580 -0.004751 0.000000 0.000000 0.000000
# 3 -0.004751 -0.004751 0.020059 0.000000 0.000000 0.000000
# 4 0.000000 0.000000 0.000000 -0.134764 0.000000 0.000000
# 5 0.000000 0.000000 0.000000 0.000000 -0.134764 0.000000
# 6 0.000000 0.000000 0.000000 0.000000 0.000000 -0.048609
#
#
# Mechanical properties :
#
#
# Convention : Reuss Voigt Hill
#
# Bulk Modulus (GPa) = 58.69836 64.76207 61.73021
# Shear Modulus (GPa) = -23.24966 1.27748 -10.98609
#
# Velocity S-wave (km/s) = -3.69441 0.86599 -2.53956
# Velocity P-wave (km/s) = 4.03244 6.24647 5.25733
#
# Compressibility (1/GPa) = 0.01703625
#
# Stress axis : x y z
#
# Youngs Moduli (GPa) = 53.82235 53.82235 49.85296
#
# Poissons Ratio (x) = 0.56989 0.23687
# Poissons Ratio (y) = 0.56989 0.23687
# Poissons Ratio (z) = 0.25573 0.25573
#
# Static dielectric constant tensor:
#      x y z
#    x 1.589140 0.000000 0.000000 
#    y 0.000000 1.589140 0.000000 
#    z 0.000000 0.000000 1.568240 
# 
# From -- ./inp_files/5610.got.cif
#   From: 2010.05.17/outbox.cif.g08.bks.cpg/sg123_3_cif.got.tgz:5610.got - 2010.05.20 11:43:04.
