data_PCOD9561298
_publ_section_title
;
Structure prediction by ZEFSAII (Michael W. Deem and Ramdas Pophale) SiO2 
 PCOD9561298
Probable space group: I -4 2 D
;
_chemical_formula_sum "Si O2"
_cell_formula_units_Z 100
_cell_length_a 12.869631
_cell_length_b 12.869631
_cell_length_c 26.002517
_cell_angle_alpha 90.000000
_cell_angle_beta 90.000000
_cell_angle_gamma 90.000000
_cell_volume 4306.729338
_symmetry_space_group_name_H-M "I -4 2 D"
_symmetry_group_IT_number 122
_symmetry_cell_setting 'tetragonal'
loop_
_space_group_symop_operation_xyz
x,y,z
y,-x,-z
-x,-y,z
-y,x,-z
x,1/2-y,1/4-z
-x,1/2+y,1/4-z
-y,1/2-x,1/4+z
y,1/2+x,1/4+z
1/2+x,1/2+y,1/2+z
1/2+y,1/2-x,1/2-z
1/2-x,1/2-y,1/2+z
1/2-y,1/2+x,1/2-z
1/2+x,-y,3/4-z
1/2-x,y,3/4-z
1/2-y,-x,3/4+z
1/2+y,x,3/4+z
loop_
_atom_site_type_symbol
_atom_site_label
_atom_site_fract_x
_atom_site_fract_y
_atom_site_fract_z
Si Si1 0.066533 0.896215 0.382355
Si Si2 0.004179 0.671751 0.077256
Si Si3 0.760172 0.693226 0.571177
Si Si4 0.964318 0.155496 0.992691
Si Si5 0.406077 0.304476 0.014074
Si Si6 0.500000 0.000000 0.250000
Si Si7 0.824133 0.501563 0.069907
O O1 0.146032 0.920494 0.429127
O O2 0.016558 0.783009 0.397403
O O3 0.092976 0.926619 0.520755
O O4 0.000000 0.000000 0.375778
O O5 0.996778 0.750000 0.125000
O O6 0.017009 0.741860 0.025906
O O7 0.901550 0.599716 0.072233
O O8 0.103858 0.596704 0.084149
O O9 0.739579 0.750000 0.625000
O O10 0.675538 0.610680 0.555209
O O11 0.788566 0.763668 0.521937
O O12 0.867146 0.630967 0.581892
O O13 0.069886 0.100291 0.975273
O O14 0.476970 0.218795 0.987445
#
# Coordination Sequence:
#
# PCOD9561298 Si02
#       7
#    16  16  16  16  16   4  16
#     4  11  24  42  72 109 151 194 241 318 395 486
#     4  11  28  48  73 104 144 199 264 324 379 470
#     4  10  25  44  71 103 151 196 249 314 395 466
#     4  11  27  46  72 105 142 195 255 324 387 453
#     4  11  20  41  66 103 138 191 243 291 380 472
#     4  12  20  36  68 100 148 184 236 296 376 484
#     4  11  25  44  75 104 143 204 254 307 394 478
#
# _framework density 23.219474000000002
#
# number of rings (size 3 to 8) (size 9 to 14) (size 15 to 20)
#    0.000    1.120    4.000    0.000    8.960    2.560 
#    0.000    4.000    0.000    0.000    0.000    0.000 
#    0.000    0.000    0.000    0.000    0.000    0.000 
#
# Total GULP energy -278659.216301 kJ/mol
# GULP energy per Si atom -5573.184326 kJ/mol
# Density = 2.316663 g / cm^3
# Si number density = 23.219474 Si / 1000 Ang^3
#
#
#
# Elastic Constant Matrix: (Units=GPa)
#
#
# Indices 1 2 3 4 5 6 
#
# 1 158.1381 87.7207 38.2611 0.0000 0.0000 0.0000
# 2 87.7207 158.1381 38.2611 0.0000 0.0000 0.0000
# 3 38.2611 38.2611 56.7618 0.0000 0.0000 0.0000
# 4 0.0000 0.0000 0.0000 30.4771 0.0000 0.0000
# 5 0.0000 0.0000 0.0000 0.0000 30.4771 0.0000
# 6 0.0000 0.0000 0.0000 0.0000 0.0000 51.6742
#
#
#
# Elastic Compliance Matrix: (Units=1/GPa)
#
#
# Indices 1 2 3 4 5 6 
#
# 1 0.009674 -0.004527 -0.003470 0.000000 0.000000 0.000000
# 2 -0.004527 0.009674 -0.003470 0.000000 0.000000 0.000000
# 3 -0.003470 -0.003470 0.022295 0.000000 0.000000 0.000000
# 4 0.000000 0.000000 0.000000 0.032811 0.000000 0.000000
# 5 0.000000 0.000000 0.000000 0.000000 0.032811 0.000000
# 6 0.000000 0.000000 0.000000 0.000000 0.000000 0.019352
#
#
# Mechanical properties :
#
#
# Convention : Reuss Voigt Hill
#
# Bulk Modulus (GPa) = 53.44416 77.94706 65.69561
# Shear Modulus (GPa) = 32.09503 36.44536 34.27020
#
# Velocity S-wave (km/s) = 3.72189 3.96612 3.84594
# Velocity P-wave (km/s) = 6.44491 7.39027 6.93372
#
# Compressibility (1/GPa) = 0.01871112
#
# Stress axis : x y z
#
# Youngs Moduli (GPa) = 103.36825 103.36825 44.85326
#
# Poissons Ratio (x) = 0.46794 0.15562
# Poissons Ratio (y) = 0.46794 0.15562
# Poissons Ratio (z) = 0.35864 0.35864
#
# Static dielectric constant tensor:
#      x y z
#    x 1.966130 0.000000 0.000000 
#    y 0.000000 1.966130 0.000000 
#    z 0.000000 0.000000 1.944540 
# 
# From -- ./inp_files/8035.got.cif
#   From: 2010.05.17/outbox.cif.g08.bks.cpg/sg122_5_cif.got.tgz:8035.got - 2010.05.20 11:37:33.
