data_PCOD9561582
_publ_section_title
;
Structure prediction by ZEFSAII (Michael W. Deem and Ramdas Pophale) SiO2 
 PCOD9561582
Probable space group: I -4 2 D
;
_chemical_formula_sum "Si O2"
_cell_formula_units_Z 60
_cell_length_a 21.000000
_cell_length_b 21.000000
_cell_length_c 15.000000
_cell_angle_alpha 90.000000
_cell_angle_beta 90.000000
_cell_angle_gamma 90.000000
_cell_volume 6615.000000
_symmetry_space_group_name_H-M "I -4 2 D"
_symmetry_group_IT_number 122
_symmetry_cell_setting 'tetragonal'
loop_
_space_group_symop_operation_xyz
x,y,z
y,-x,-z
-x,-y,z
-y,x,-z
x,1/2-y,1/4-z
-x,1/2+y,1/4-z
-y,1/2-x,1/4+z
y,1/2+x,1/4+z
1/2+x,1/2+y,1/2+z
1/2+y,1/2-x,1/2-z
1/2-x,1/2-y,1/2+z
1/2-y,1/2+x,1/2-z
1/2+x,-y,3/4-z
1/2-x,y,3/4-z
1/2-y,-x,3/4+z
1/2+y,x,3/4+z
loop_
_atom_site_type_symbol
_atom_site_label
_atom_site_fract_x
_atom_site_fract_y
_atom_site_fract_z
Si Si1 0.633482 0.679091 0.320933
Si Si2 0.238373 0.763682 0.473072
Si Si3 0.676678 0.362102 0.468726
Si Si4 0.250000 0.975738 0.875000
Si Si5 0.602809 0.224230 0.917239
Si Si6 0.898915 0.998765 0.539900
Si Si7 0.517520 0.747005 0.019502
Si Si8 0.167972 0.051259 0.718316
O O1 0.694178 0.724206 0.295321
O O2 0.631285 0.660765 0.425977
O O3 0.574214 0.721688 0.288043
O O4 0.637262 0.613596 0.264616
O O5 0.250000 0.794339 0.375000
O O6 0.270651 0.694179 0.470125
O O7 0.162947 0.751578 0.473302
O O8 0.704732 0.428123 0.431737
O O9 0.625732 0.334178 0.396532
O O10 0.205682 0.013522 0.800342
O O11 0.578048 0.276990 0.847026
O O12 0.545606 0.215296 0.986681
O O13 0.882078 0.983530 0.646994
O O14 0.938825 0.941273 0.490343
O O15 0.827790 0.008128 0.502187
O O16 0.528972 0.750000 0.125000
#
# Coordination Sequence:
#
# PCOD9561582 Si02
#       8
#    16  16  16   8  16  16  16  16
#     4  12  23  37  65  96 129 176 222 271 354 410
#     4  10  19  36  63  92 130 162 209 286 338 401
#     4  11  21  39  62  95 130 168 216 276 336 409
#     4  12  24  42  60 100 134 172 224 272 350 420
#     4  10  21  41  58  94 129 165 211 274 338 398
#     4  10  23  44  65  89 128 178 230 278 337 415
#     4  11  25  38  61  96 130 168 219 283 340 411
#     4  11  23  40  67  91 130 179 217 274 343 421
#
# _framework density 9.0702949999999998
#
# number of rings (size 3 to 8) (size 9 to 14) (size 15 to 20)
#    0.000    1.200    4.667    4.000    3.733    2.133 
#    0.000    0.000    0.000    0.000    0.000    1.867 
#    0.000    0.000    0.000    0.000    0.000    0.000 
#
# Total GULP energy -334225.181441 kJ/mol
# GULP energy per Si atom -5570.419691 kJ/mol
# Density = 0.904965 g / cm^3
# Si number density = 9.070295 Si / 1000 Ang^3
#
#
#
# Elastic Constant Matrix: (Units=GPa)
#
#
# Indices 1 2 3 4 5 6 
#
# 1 106.7594 35.4707 30.6550 0.0000 0.0000 0.0000
# 2 35.4707 106.7594 30.6550 0.0000 0.0000 0.0000
# 3 30.6550 30.6550 110.4224 0.0000 0.0000 0.0000
# 4 0.0000 0.0000 0.0000 41.1692 0.0000 0.0000
# 5 0.0000 0.0000 0.0000 0.0000 41.1692 0.0000
# 6 0.0000 0.0000 0.0000 0.0000 0.0000 35.1510
#
#
#
# Elastic Compliance Matrix: (Units=1/GPa)
#
#
# Indices 1 2 3 4 5 6 
#
# 1 0.011007 -0.003020 -0.002217 0.000000 0.000000 0.000000
# 2 -0.003020 0.011007 -0.002217 0.000000 0.000000 0.000000
# 3 -0.002217 -0.002217 0.010287 0.000000 0.000000 0.000000
# 4 0.000000 0.000000 0.000000 0.024290 0.000000 0.000000
# 5 0.000000 0.000000 0.000000 0.000000 0.024290 0.000000
# 6 0.000000 0.000000 0.000000 0.000000 0.000000 0.028449
#
#
# Mechanical properties :
#
#
# Convention : Reuss Voigt Hill
#
# Bulk Modulus (GPa) = 57.49907 57.50030 57.49968
# Shear Modulus (GPa) = 38.45062 38.64190 38.54626
#
# Velocity S-wave (km/s) = 4.60890 4.62035 4.61462
# Velocity P-wave (km/s) = 7.75163 7.76075 7.75619
#
# Compressibility (1/GPa) = 0.01739159
#
# Stress axis : x y z
#
# Youngs Moduli (GPa) = 90.85088 90.85088 97.20817
#
# Poissons Ratio (x) = 0.27441 0.21553
# Poissons Ratio (y) = 0.27441 0.21553
# Poissons Ratio (z) = 0.20144 0.20144
#
# Static dielectric constant tensor:
#      x y z
#    x 1.642650 0.000000 0.000000 
#    y 0.000000 1.642650 0.000000 
#    z 0.000000 0.000000 1.664550 
# 
# From -- ./inp_files/5591.got.cif
#   From: 2010.05.17/outbox.ucp.g08.bks.cvg/sg122_3_cif.got.tgz:5591.got - 2010.06.11 11:35:26.
