data_PCOD9561252
_publ_section_title
;
Structure prediction by ZEFSAII (Michael W. Deem and Ramdas Pophale) SiO2 
 PCOD9561252
Probable space group: I -4 2 D
;
_chemical_formula_sum "Si O2"
_cell_formula_units_Z 64
_cell_length_a 12.950041
_cell_length_b 12.950041
_cell_length_c 18.059676
_cell_angle_alpha 90.000000
_cell_angle_beta 90.000000
_cell_angle_gamma 90.000000
_cell_volume 3028.671992
_symmetry_space_group_name_H-M "I -4 2 D"
_symmetry_group_IT_number 122
_symmetry_cell_setting 'tetragonal'
loop_
_space_group_symop_operation_xyz
x,y,z
y,-x,-z
-x,-y,z
-y,x,-z
x,1/2-y,1/4-z
-x,1/2+y,1/4-z
-y,1/2-x,1/4+z
y,1/2+x,1/4+z
1/2+x,1/2+y,1/2+z
1/2+y,1/2-x,1/2-z
1/2-x,1/2-y,1/2+z
1/2-y,1/2+x,1/2-z
1/2+x,-y,3/4-z
1/2-x,y,3/4-z
1/2-y,-x,3/4+z
1/2+y,x,3/4+z
loop_
_atom_site_type_symbol
_atom_site_label
_atom_site_fract_x
_atom_site_fract_y
_atom_site_fract_z
Si Si1 0.000000 0.500000 0.250000
Si Si2 0.169314 0.464661 0.129573
Si Si3 0.750000 0.205102 0.375000
Si Si4 0.059573 0.127931 0.360717
Si Si5 0.646412 0.456980 0.782371
Si Si6 0.500000 0.000000 0.250000
O O1 0.086792 0.456265 0.194592
O O2 0.226315 0.353799 0.118207
O O3 0.251062 0.555233 0.149152
O O4 0.130768 0.507217 0.051040
O O5 0.733115 0.126146 0.444394
O O6 0.957651 0.094252 0.314416
O O7 0.153611 0.063706 0.328046
O O8 0.036992 0.090008 0.444372
#
# Coordination Sequence:
#
# PCOD9561252 Si02
#       6
#     4  16   8  16  16   4
#     4  12  28  50  64 104 144 218 256 276 344 430
#     4  11  25  42  72  95 144 193 238 299 342 437
#     4  10  24  42  68 110 136 172 242 296 376 426
#     4   9  20  37  64  93 128 174 217 289 363 414
#     4   9  20  39  63  97 130 171 223 290 361 418
#     4   8  16  34  64  96 132 154 208 292 376 430
#
# _framework density 21.131374999999998
#
# number of rings (size 3 to 8) (size 9 to 14) (size 15 to 20)
#    0.000    2.500    0.000    1.500   14.000    0.000 
#    0.000    0.000    0.000    0.000    0.000    0.000 
#    0.000    0.000    0.000    0.000    0.000    0.000 
#
# Total GULP energy -178230.442239 kJ/mol
# GULP energy per Si atom -5569.701320 kJ/mol
# Density = 2.108328 g / cm^3
# Si number density = 21.131375 Si / 1000 Ang^3
#
#
#
# Elastic Constant Matrix: (Units=GPa)
#
#
# Indices 1 2 3 4 5 6 
#
# 1 80.9309 25.0067 54.8222 0.0000 0.0000 0.0000
# 2 25.0067 80.9309 54.8222 0.0000 0.0000 0.0000
# 3 54.8222 54.8222 159.9977 0.0000 0.0000 0.0000
# 4 0.0000 0.0000 0.0000 39.8702 0.0000 0.0000
# 5 0.0000 0.0000 0.0000 0.0000 39.8702 0.0000
# 6 0.0000 0.0000 0.0000 0.0000 0.0000 33.8285
#
#
#
# Elastic Compliance Matrix: (Units=1/GPa)
#
#
# Indices 1 2 3 4 5 6 
#
# 1 0.016254 -0.001627 -0.005012 0.000000 0.000000 0.000000
# 2 -0.001627 0.016254 -0.005012 0.000000 0.000000 0.000000
# 3 -0.005012 -0.005012 0.009685 0.000000 0.000000 0.000000
# 4 0.000000 0.000000 0.000000 0.025081 0.000000 0.000000
# 5 0.000000 0.000000 0.000000 0.000000 0.025081 0.000000
# 6 0.000000 0.000000 0.000000 0.000000 0.000000 0.029561
#
#
# Mechanical properties :
#
#
# Convention : Reuss Voigt Hill
#
# Bulk Modulus (GPa) = 52.93554 65.68463 59.31009
# Shear Modulus (GPa) = 33.00008 35.19432 34.09720
#
# Velocity S-wave (km/s) = 3.95608 4.08548 4.02130
# Velocity P-wave (km/s) = 6.78030 7.30796 7.04907
#
# Compressibility (1/GPa) = 0.01889090
#
# Stress axis : x y z
#
# Youngs Moduli (GPa) = 61.52338 61.52338 103.25722
#
# Poissons Ratio (x) = 0.10012 0.51750
# Poissons Ratio (y) = 0.10012 0.51750
# Poissons Ratio (z) = 0.30834 0.30834
#
# Static dielectric constant tensor:
#      x y z
#    x 1.831220 0.000000 0.000000 
#    y 0.000000 1.831220 0.000000 
#    z 0.000000 0.000000 1.753790 
# 
# From -- ./inp_files/6109.got.cif
#   From: 2010.05.17/outbox.cif.g08.bks.cpg/sg122_4_cif.got.tgz:6109.got - 2010.05.20 11:37:33.
