data_PCOD9561007
_publ_section_title
;
Structure prediction by ZEFSAII (Michael W. Deem and Ramdas Pophale) SiO2 
 PCOD9561007
Probable space group: I -4 2 D
;
_chemical_formula_sum "Si O2"
_cell_formula_units_Z 36
_cell_length_a 14.153692
_cell_length_b 14.153692
_cell_length_c 7.034369
_cell_angle_alpha 90.000000
_cell_angle_beta 90.000000
_cell_angle_gamma 90.000000
_cell_volume 1409.174019
_symmetry_space_group_name_H-M "I -4 2 D"
_symmetry_group_IT_number 122
_symmetry_cell_setting 'tetragonal'
loop_
_space_group_symop_operation_xyz
x,y,z
y,-x,-z
-x,-y,z
-y,x,-z
x,1/2-y,1/4-z
-x,1/2+y,1/4-z
-y,1/2-x,1/4+z
y,1/2+x,1/4+z
1/2+x,1/2+y,1/2+z
1/2+y,1/2-x,1/2-z
1/2-x,1/2-y,1/2+z
1/2-y,1/2+x,1/2-z
1/2+x,-y,3/4-z
1/2-x,y,3/4-z
1/2-y,-x,3/4+z
1/2+y,x,3/4+z
loop_
_atom_site_type_symbol
_atom_site_label
_atom_site_fract_x
_atom_site_fract_y
_atom_site_fract_z
Si Si1 0.677499 0.090269 0.618231
Si Si2 0.500000 0.000000 0.750000
Si Si3 0.752596 0.608415 0.650464
O O1 0.659037 0.156223 0.437421
O O2 0.657490 0.164190 0.790520
O O3 0.586963 0.022700 0.618646
O O4 0.755493 0.006668 0.634802
O O5 0.750000 0.624199 0.875000
#
# Coordination Sequence:
#
# PCOD9561007 Si02
#       3
#    16   4  16
#     4   9  20  37  60  94 125 164 221 273 321 405
#     4   8  16  36  62  88 120 154 216 284 298 376
#     4  10  21  38  66  91 131 172 214 276 336 396
#
# _framework density 25.546880999999999
#
# number of rings (size 3 to 8) (size 9 to 14) (size 15 to 20)
#    0.000    2.667    0.000    0.000    0.000   14.222 
#    0.000    2.222  107.556    0.000    0.000    0.000 
#    0.000    0.000    0.000    0.000    0.000    0.000 
#
# Total GULP energy -100429.478862 kJ/mol
# GULP energy per Si atom -5579.415492 kJ/mol
# Density = 2.548873 g / cm^3
# Si number density = 25.546881 Si / 1000 Ang^3
#
#
#
# Elastic Constant Matrix: (Units=GPa)
#
#
# Indices 1 2 3 4 5 6 
#
# 1 142.3919 36.2655 32.5405 0.0000 0.0000 0.0000
# 2 36.2655 142.3919 32.5405 0.0000 0.0000 0.0000
# 3 32.5405 32.5405 198.5236 0.0000 0.0000 0.0000
# 4 0.0000 0.0000 0.0000 9.1924 0.0000 0.0000
# 5 0.0000 0.0000 0.0000 0.0000 9.1924 0.0000
# 6 0.0000 0.0000 0.0000 0.0000 0.0000 -2.8433
#
#
#
# Elastic Compliance Matrix: (Units=1/GPa)
#
#
# Indices 1 2 3 4 5 6 
#
# 1 0.007688 -0.001735 -0.000976 0.000000 0.000000 0.000000
# 2 -0.001735 0.007688 -0.000976 0.000000 0.000000 0.000000
# 3 -0.000976 -0.000976 0.005357 0.000000 0.000000 0.000000
# 4 0.000000 0.000000 0.000000 0.108785 0.000000 0.000000
# 5 0.000000 0.000000 0.000000 0.000000 0.108785 0.000000
# 6 0.000000 0.000000 0.000000 0.000000 0.000000 -0.351709
#
#
# Mechanical properties :
#
#
# Convention : Reuss Voigt Hill
#
# Bulk Modulus (GPa) = 74.85243 76.22228 75.53736
# Shear Modulus (GPa) = -49.22208 28.57236 -10.32486
#
# Velocity S-wave (km/s) = -4.39422 3.34792 -2.01254
# Velocity P-wave (km/s) = 1.90212 6.69670 4.92259
#
# Compressibility (1/GPa) = 0.01335962
#
# Stress axis : x y z
#
# Youngs Moduli (GPa) = 130.07727 130.07727 186.66974
#
# Poissons Ratio (x) = 0.22568 0.18214
# Poissons Ratio (y) = 0.22568 0.18214
# Poissons Ratio (z) = 0.12692 0.12692
#
# Static dielectric constant tensor:
#      x y z
#    x 2.088290 0.000000 0.000000 
#    y 0.000000 2.088290 0.000000 
#    z 0.000000 0.000000 2.053010 
# 
# From -- ./inp_files/1791.got.cif
#   From: 2010.05.17/outbox.cif.g08.bks.cpg/sg122_1_cif.got.tgz:1791.got - 2010.05.20 11:37:33.
