data_PCOD9561073
_publ_section_title
;
Structure prediction by ZEFSAII (Michael W. Deem and Ramdas Pophale) SiO2 
 PCOD9561073
Probable space group: I -4 2 D
;
_chemical_formula_sum "Si O2"
_cell_formula_units_Z 88
_cell_length_a 14.793243
_cell_length_b 14.793243
_cell_length_c 18.436566
_cell_angle_alpha 90.000000
_cell_angle_beta 90.000000
_cell_angle_gamma 90.000000
_cell_volume 4034.658812
_symmetry_space_group_name_H-M "I -4 2 D"
_symmetry_group_IT_number 122
_symmetry_cell_setting 'tetragonal'
loop_
_space_group_symop_operation_xyz
x,y,z
y,-x,-z
-x,-y,z
-y,x,-z
x,1/2-y,1/4-z
-x,1/2+y,1/4-z
-y,1/2-x,1/4+z
y,1/2+x,1/4+z
1/2+x,1/2+y,1/2+z
1/2+y,1/2-x,1/2-z
1/2-x,1/2-y,1/2+z
1/2-y,1/2+x,1/2-z
1/2+x,-y,3/4-z
1/2-x,y,3/4-z
1/2-y,-x,3/4+z
1/2+y,x,3/4+z
loop_
_atom_site_type_symbol
_atom_site_label
_atom_site_fract_x
_atom_site_fract_y
_atom_site_fract_z
Si Si1 0.677375 0.912141 0.030608
Si Si2 0.110315 0.502273 0.050816
Si Si3 0.287945 0.031728 0.277629
Si Si4 0.041476 0.399359 0.854838
Si Si5 0.034294 0.633595 0.279619
Si Si6 0.250000 0.636193 0.875000
O O1 0.772875 0.933043 0.998128
O O2 0.689043 0.832595 0.090020
O O3 0.642668 0.004188 0.070129
O O4 0.605525 0.875099 0.973523
O O5 0.135725 0.480742 0.133586
O O6 0.000000 0.500000 0.044788
O O7 0.182969 0.450055 0.997387
O O8 0.343329 0.012653 0.205234
O O9 0.287439 0.934778 0.316814
O O10 0.352616 0.093371 0.330012
O O11 0.000000 0.500000 0.854552
O O12 0.105164 0.556828 0.260046
#
# Coordination Sequence:
#
# PCOD9561073 Si02
#       6
#    16  16  16  16  16   8
#     4  11  24  42  72 104 148 185 235 296 365 452
#     4  11  24  46  70  99 137 192 241 291 365 433
#     4  11  21  35  66 102 143 184 225 283 363 447
#     4  12  19  37  68 105 143 183 218 286 377 445
#     4  11  24  50  71  93 130 186 253 311 358 410
#     4  10  22  38  60 104 148 186 224 278 350 446
#
# _framework density 21.811012999999999
#
# number of rings (size 3 to 8) (size 9 to 14) (size 15 to 20)
#    0.000    0.909    7.273    0.545    2.545    0.727 
#    3.273    0.000    4.000    0.000    0.000    0.000 
#    0.000    0.000    0.000    0.000    0.000    0.000 
#
# Total GULP energy -245246.573031 kJ/mol
# GULP energy per Si atom -5573.785751 kJ/mol
# Density = 2.176137 g / cm^3
# Si number density = 21.811013 Si / 1000 Ang^3
#
#
#
# Elastic Constant Matrix: (Units=GPa)
#
#
# Indices 1 2 3 4 5 6 
#
# 1 108.8584 -2.2239 -4.0139 0.0000 0.0000 0.0000
# 2 -2.2239 108.8584 -4.0139 0.0000 0.0000 0.0000
# 3 -4.0139 -4.0139 52.5163 0.0000 0.0000 0.0000
# 4 0.0000 0.0000 0.0000 28.7340 0.0000 0.0000
# 5 0.0000 0.0000 0.0000 0.0000 28.7340 0.0000
# 6 0.0000 0.0000 0.0000 0.0000 0.0000 28.4996
#
#
#
# Elastic Compliance Matrix: (Units=1/GPa)
#
#
# Indices 1 2 3 4 5 6 
#
# 1 0.009217 0.000215 0.000721 0.000000 0.000000 0.000000
# 2 0.000215 0.009217 0.000721 0.000000 0.000000 0.000000
# 3 0.000721 0.000721 0.019152 0.000000 0.000000 0.000000
# 4 0.000000 0.000000 0.000000 0.034802 0.000000 0.000000
# 5 0.000000 0.000000 0.000000 0.000000 0.034802 0.000000
# 6 0.000000 0.000000 0.000000 0.000000 0.000000 0.035088
#
#
# Mechanical properties :
#
#
# Convention : Reuss Voigt Hill
#
# Bulk Modulus (GPa) = 24.45004 27.74776 26.09890
# Shear Modulus (GPa) = 32.76577 35.89253 34.32915
#
# Velocity S-wave (km/s) = 3.88010 4.06102 3.97159
# Velocity P-wave (km/s) = 5.59534 5.89395 5.74659
#
# Compressibility (1/GPa) = 0.04089973
#
# Stress axis : x y z
#
# Youngs Moduli (GPa) = 108.49266 108.49265 52.21409
#
# Poissons Ratio (x) = -0.02331 -0.03764
# Poissons Ratio (y) = -0.02331 -0.03764
# Poissons Ratio (z) = -0.07821 -0.07821
#
# Static dielectric constant tensor:
#      x y z
#    x 1.818860 0.000000 0.000000 
#    y 0.000000 1.818860 0.000000 
#    z 0.000000 0.000000 5.173150 
# 
# From -- ./inp_files/7212.got.cif
#   From: 2010.05.17/outbox.cif.g08.bks.cpg/sg122_4_cif.got.tgz:7212.got - 2010.05.20 11:37:33.
