data_PCOD9561733
_publ_section_title
;
Structure prediction by ZEFSAII (Michael W. Deem and Ramdas Pophale) SiO2 
 PCOD9561733
Probable space group: P 4/M M M
;
_chemical_formula_sum "Si O2"
_cell_formula_units_Z 104
_cell_length_a 27.637591
_cell_length_b 27.637591
_cell_length_c 8.000063
_cell_angle_alpha 90.000000
_cell_angle_beta 90.000000
_cell_angle_gamma 90.000000
_cell_volume 6110.739612
_symmetry_space_group_name_H-M "P 4/M M M"
_symmetry_group_IT_number 123
_symmetry_cell_setting 'tetragonal'
loop_
_space_group_symop_operation_xyz
x,y,z
-y,x,z
-x,-y,z
y,-x,z
x,-y,-z
-x,y,-z
y,x,-z
-y,-x,-z
-x,-y,-z
y,-x,-z
x,y,-z
-y,x,-z
-x,y,z
x,-y,z
-y,-x,z
y,x,z
loop_
_atom_site_type_symbol
_atom_site_label
_atom_site_fract_x
_atom_site_fract_y
_atom_site_fract_z
Si Si1 0.555478 0.000000 0.204898
Si Si2 0.368562 0.290538 0.699615
Si Si3 0.947245 0.262689 0.701507
Si Si4 0.370758 0.918585 0.798119
Si Si5 0.184725 0.660402 0.800919
Si Si6 0.156206 0.232814 0.700111
Si Si7 0.554858 0.367230 0.798677
O O1 0.585682 0.952723 0.259801
O O2 0.500000 0.000000 0.260127
O O3 0.555263 0.000000 0.000000
O O4 0.366903 0.291040 0.500000
O O5 0.323642 0.323642 0.762839
O O6 0.363053 0.235725 0.757120
O O7 0.416949 0.318076 0.755294
O O8 0.947147 0.258580 0.500000
O O9 0.940620 0.319229 0.744663
O O10 0.898877 0.236158 0.765702
O O11 0.000000 0.246313 0.763196
O O12 0.369187 0.862664 0.741343
O O13 0.372216 0.918886 0.000000
O O14 0.180229 0.714813 0.731031
O O15 0.181234 0.664411 0.000000
O O16 0.153279 0.226669 0.500000
O O17 0.190297 0.190297 0.768018
O O18 0.500000 0.368820 0.735495
O O19 0.588691 0.411310 0.736485
O O20 0.553216 0.370782 0.000000
#
# Coordination Sequence:
#
# PCOD9561733 Si02
#       7
#     8  16  16  16  16  16  16
#     4   9  16  28  47  65  81 105 139 179 218 257
#     4  10  20  33  49  68  92 124 157 185 217 262
#     4   9  16  26  42  62  83 110 143 178 216 259
#     4   9  17  29  45  64  85 109 142 181 221 265
#     4  10  19  29  44  67  91 116 148 186 225 266
#     4   9  17  28  41  60  88 118 146 178 219 267
#     4   9  18  33  53  76  99 121 146 179 220 265
#
# _framework density 17.019216
#
# number of rings (size 3 to 8) (size 9 to 14) (size 15 to 20)
#    0.000    2.692    0.769    1.385    0.000    4.154 
#    0.000    1.538    0.000    3.692    0.000    2.154 
#    0.000    0.308    0.000    4.308    0.000    0.000 
#
# Total GULP energy -579612.832230 kJ/mol
# GULP energy per Si atom -5573.200310 kJ/mol
# Density = 1.698048 g / cm^3
# Si number density = 17.019216 Si / 1000 Ang^3
#
#
#
# Elastic Constant Matrix: (Units=GPa)
#
#
# Indices 1 2 3 4 5 6 
#
# 1 158.5712 83.8452 5.2169 0.0000 0.0000 0.0000
# 2 83.8452 158.5712 5.2169 0.0000 0.0000 0.0000
# 3 5.2169 5.2169 10.2466 0.0000 0.0000 0.0000
# 4 0.0000 0.0000 0.0000 12.9086 0.0000 0.0000
# 5 0.0000 0.0000 0.0000 0.0000 12.9086 0.0000
# 6 0.0000 0.0000 0.0000 0.0000 0.0000 21.0369
#
#
#
# Elastic Compliance Matrix: (Units=1/GPa)
#
#
# Indices 1 2 3 4 5 6 
#
# 1 0.008800 -0.004582 -0.002147 0.000000 0.000000 0.000000
# 2 -0.004582 0.008800 -0.002147 0.000000 0.000000 0.000000
# 3 -0.002147 -0.002147 0.099780 0.000000 0.000000 0.000000
# 4 0.000000 0.000000 0.000000 0.077468 0.000000 0.000000
# 5 0.000000 0.000000 0.000000 0.000000 0.077468 0.000000
# 6 0.000000 0.000000 0.000000 0.000000 0.000000 0.047535
#
#
# Mechanical properties :
#
#
# Convention : Reuss Voigt Hill
#
# Bulk Modulus (GPa) = 10.03757 57.32746 33.68252
# Shear Modulus (GPa) = 13.48388 24.91147 19.19767
#
# Velocity S-wave (km/s) = 2.81779 3.83002 3.36221
# Velocity P-wave (km/s) = 4.06167 7.30177 5.90817
#
# Compressibility (1/GPa) = 0.09962566
#
# Stress axis : x y z
#
# Youngs Moduli (GPa) = 113.63771 113.63771 10.02207
#
# Poissons Ratio (x) = 0.52073 0.02152
# Poissons Ratio (y) = 0.52073 0.02152
# Poissons Ratio (z) = 0.24402 0.24402
#
# Static dielectric constant tensor:
#      x y z
#    x 1.581020 0.000000 0.000000 
#    y 0.000000 1.581020 0.000000 
#    z 0.000000 0.000000 1.613450 
# 
# From -- ./inp_files/1929.got.cif
#   From: 2010.05.17/outbox.cif.g08.bks.cpg/sg123_1_cif.got.tgz:1929.got - 2010.05.20 11:43:04.
