data_PCOD9561434
_publ_section_title
;
Structure prediction by ZEFSAII (Michael W. Deem and Ramdas Pophale) SiO2 
 PCOD9561434
Probable space group: I -4 2 D
;
_chemical_formula_sum "Si O2"
_cell_formula_units_Z 100
_cell_length_a 13.359840
_cell_length_b 13.359840
_cell_length_c 24.384235
_cell_angle_alpha 90.000000
_cell_angle_beta 90.000000
_cell_angle_gamma 90.000000
_cell_volume 4352.228105
_symmetry_space_group_name_H-M "I -4 2 D"
_symmetry_group_IT_number 122
_symmetry_cell_setting 'tetragonal'
loop_
_space_group_symop_operation_xyz
x,y,z
y,-x,-z
-x,-y,z
-y,x,-z
x,1/2-y,1/4-z
-x,1/2+y,1/4-z
-y,1/2-x,1/4+z
y,1/2+x,1/4+z
1/2+x,1/2+y,1/2+z
1/2+y,1/2-x,1/2-z
1/2-x,1/2-y,1/2+z
1/2-y,1/2+x,1/2-z
1/2+x,-y,3/4-z
1/2-x,y,3/4-z
1/2-y,-x,3/4+z
1/2+y,x,3/4+z
loop_
_atom_site_type_symbol
_atom_site_label
_atom_site_fract_x
_atom_site_fract_y
_atom_site_fract_z
Si Si1 0.500000 0.500000 0.500000
Si Si2 0.663815 0.675392 0.959837
Si Si3 0.000000 0.000000 0.272739
Si Si4 0.134825 0.388976 0.436399
Si Si5 0.250000 0.549476 0.375000
Si Si6 0.185668 0.545373 0.821912
Si Si7 0.960445 0.350145 0.345441
Si Si8 0.129957 0.998587 0.631375
O O1 0.595885 0.512459 0.538981
O O2 0.699431 0.787651 0.945838
O O3 0.712651 0.565882 0.951036
O O4 0.577124 0.664616 0.914805
O O5 0.620051 0.685176 0.020736
O O6 0.922334 0.063509 0.236809
O O7 0.049136 0.077544 0.315464
O O8 0.213259 0.476127 0.423383
O O9 0.051965 0.378937 0.387273
O O10 0.149389 0.610487 0.362487
O O11 0.250000 0.569582 0.875000
O O12 0.077321 0.561265 0.849016
O O13 0.952486 0.230913 0.345320
#
# Coordination Sequence:
#
# PCOD9561434 Si02
#       8
#     4  16   8  16   8  16  16  16
#     4  12  22  48  68 100 132 198 248 308 390 448
#     4  11  24  45  70 103 152 188 245 308 371 456
#     4  12  21  44  69 103 140 187 246 302 376 464
#     4  11  25  45  69 104 142 192 243 312 375 451
#     4  12  22  50  72  94 148 192 240 316 388 428
#     4  12  24  45  72 108 148 199 247 311 391 455
#     4  11  26  45  69 102 141 189 248 313 377 455
#     4  11  25  42  70 103 141 190 239 305 380 447
#
# _framework density 22.976735000000001
#
# number of rings (size 3 to 8) (size 9 to 14) (size 15 to 20)
#    0.000    0.640    6.400    0.960    4.480    0.000 
#    0.000    0.000    0.000    0.000    0.000    0.000 
#    0.000    0.000    0.000    0.000    0.000    0.000 
#
# Total GULP energy -278981.458131 kJ/mol
# GULP energy per Si atom -5579.629163 kJ/mol
# Density = 2.292444 g / cm^3
# Si number density = 22.976735 Si / 1000 Ang^3
#
#
#
# Elastic Constant Matrix: (Units=GPa)
#
#
# Indices 1 2 3 4 5 6 
#
# 1 65.4324 6.1787 17.8018 0.0000 0.0000 0.0000
# 2 6.1787 65.4324 17.8018 0.0000 0.0000 0.0000
# 3 17.8018 17.8018 141.4308 0.0000 0.0000 0.0000
# 4 0.0000 0.0000 0.0000 52.7276 0.0000 0.0000
# 5 0.0000 0.0000 0.0000 0.0000 52.7276 0.0000
# 6 0.0000 0.0000 0.0000 0.0000 0.0000 -21.7263
#
#
#
# Elastic Compliance Matrix: (Units=1/GPa)
#
#
# Indices 1 2 3 4 5 6 
#
# 1 0.015887 -0.000990 -0.001875 0.000000 0.000000 0.000000
# 2 -0.000990 0.015887 -0.001875 0.000000 0.000000 0.000000
# 3 -0.001875 -0.001875 0.007543 0.000000 0.000000 0.000000
# 4 0.000000 0.000000 0.000000 0.018965 0.000000 0.000000
# 5 0.000000 0.000000 0.000000 0.000000 0.018965 0.000000
# 6 0.000000 0.000000 0.000000 0.000000 0.000000 -0.046027
#
#
# Mechanical properties :
#
#
# Convention : Reuss Voigt Hill
#
# Bulk Modulus (GPa) = 33.51699 39.54001 36.52850
# Shear Modulus (GPa) = 98.72712 32.11335 65.42024
#
# Velocity S-wave (km/s) = 6.56213 3.74257 5.34174
# Velocity P-wave (km/s) = 8.48731 5.99348 7.34698
#
# Compressibility (1/GPa) = 0.02983562
#
# Stress axis : x y z
#
# Youngs Moduli (GPa) = 62.94633 62.94633 132.58009
#
# Poissons Ratio (x) = 0.06232 0.24859
# Poissons Ratio (y) = 0.06232 0.24859
# Poissons Ratio (z) = 0.11803 0.11803
#
# Static dielectric constant tensor:
#      x y z
#    x 1.925880 0.000000 0.000000 
#    y 0.000000 1.925880 0.000000 
#    z 0.000000 0.000000 1.904920 
# 
# From -- ./inp_files/8095.got.cif
#   From: 2010.05.17/outbox.cif.g08.bks.cpg/sg122_5_cif.got.tgz:8095.got - 2010.05.20 11:37:33.
