data_PCOD9561625
_publ_section_title
;
Structure prediction by ZEFSAII (Michael W. Deem and Ramdas Pophale) SiO2 
 PCOD9561625
Probable space group: P 4/M M M
;
_chemical_formula_sum "Si O2"
_cell_formula_units_Z 48
_cell_length_a 17.778597
_cell_length_b 17.778597
_cell_length_c 7.391587
_cell_angle_alpha 90.000000
_cell_angle_beta 90.000000
_cell_angle_gamma 90.000000
_cell_volume 2336.321815
_symmetry_space_group_name_H-M "P 4/M M M"
_symmetry_group_IT_number 123
_symmetry_cell_setting 'tetragonal'
loop_
_space_group_symop_operation_xyz
x,y,z
-y,x,z
-x,-y,z
y,-x,z
x,-y,-z
-x,y,-z
y,x,-z
-y,-x,-z
-x,-y,-z
y,-x,-z
x,y,-z
-y,x,-z
-x,y,z
x,-y,z
-y,-x,z
y,x,z
loop_
_atom_site_type_symbol
_atom_site_label
_atom_site_fract_x
_atom_site_fract_y
_atom_site_fract_z
Si Si1 0.916038 0.204046 0.220501
Si Si2 0.379582 0.500000 0.716226
Si Si3 0.201443 0.500000 0.216285
Si Si4 0.623376 0.084695 0.779417
O O1 0.852198 0.147802 0.284035
O O2 0.904840 0.290289 0.276325
O O3 0.000000 0.180408 0.274370
O O4 0.914502 0.203983 0.000000
O O5 0.426466 0.426466 0.781320
O O6 0.385977 0.500000 0.500000
O O7 0.290573 0.500000 0.750961
O O8 0.153221 0.571511 0.282376
O O9 0.194444 0.500000 0.000000
O O10 0.598818 0.000000 0.725110
O O11 0.622040 0.084470 0.000000
#
# Coordination Sequence:
#
# PCOD9561625 Si02
#       4
#    16   8   8  16
#     4   8  13  20  29  43  68 104 142 176 208 243
#     4   9  20  39  55  64  84 120 151 176 221 286
#     4  10  18  27  47  75  92 108 144 189 220 250
#     4   8  14  24  37  57  89 122 144 169 215 268
#
# _framework density 20.545114000000002
#
# number of rings (size 3 to 8) (size 9 to 14) (size 15 to 20)
#    0.000    3.500    0.000    3.000    0.000    4.333 
#    0.000    5.833    0.000    2.000    0.000    0.000 
#    0.000    0.000    0.000    0.000    0.000    0.000 
#
# Total GULP energy -267587.823864 kJ/mol
# GULP energy per Si atom -5574.746331 kJ/mol
# Density = 2.049835 g / cm^3
# Si number density = 20.545114 Si / 1000 Ang^3
#
#
#
# Elastic Constant Matrix: (Units=GPa)
#
#
# Indices 1 2 3 4 5 6 
#
# 1 189.2536 140.0711 4.7373 0.0000 0.0000 0.0000
# 2 140.0711 189.2536 4.7373 0.0000 0.0000 0.0000
# 3 4.7373 4.7373 68.3034 0.0000 0.0000 0.0000
# 4 0.0000 0.0000 0.0000 23.8026 0.0000 0.0000
# 5 0.0000 0.0000 0.0000 0.0000 23.8026 0.0000
# 6 0.0000 0.0000 0.0000 0.0000 0.0000 101.2989
#
#
#
# Elastic Compliance Matrix: (Units=1/GPa)
#
#
# Indices 1 2 3 4 5 6 
#
# 1 0.011688 -0.008645 -0.000211 0.000000 0.000000 0.000000
# 2 -0.008645 0.011688 -0.000211 0.000000 0.000000 0.000000
# 3 -0.000211 -0.000211 0.014670 0.000000 0.000000 0.000000
# 4 0.000000 0.000000 0.000000 0.042012 0.000000 0.000000
# 5 0.000000 0.000000 0.000000 0.000000 0.042012 0.000000
# 6 0.000000 0.000000 0.000000 0.000000 0.000000 0.009872
#
#
# Mechanical properties :
#
#
# Convention : Reuss Voigt Hill
#
# Bulk Modulus (GPa) = 50.22368 82.87798 66.55083
# Shear Modulus (GPa) = 31.90563 49.59846 40.75204
#
# Velocity S-wave (km/s) = 3.94503 4.91870 4.45853
# Velocity P-wave (km/s) = 6.72679 8.52557 7.67903
#
# Compressibility (1/GPa) = 0.01991093
#
# Stress axis : x y z
#
# Youngs Moduli (GPa) = 85.56137 85.56137 68.16706
#
# Poissons Ratio (x) = 0.73967 0.01438
# Poissons Ratio (y) = 0.73967 0.01438
# Poissons Ratio (z) = 0.01806 0.01806
#
# Static dielectric constant tensor:
#      x y z
#    x 1.712810 0.000000 0.000000 
#    y 0.000000 1.712810 0.000000 
#    z 0.000000 0.000000 1.799530 
# 
# From -- ./inp_files/431.got.cif
#   From: 2010.05.17/outbox.cif.g08.bks.cpg/sg123_1_cif.got.tgz:431.got - 2010.05.20 11:43:04.
