data_PCOD9561462
_publ_section_title
;
Structure prediction by ZEFSAII (Michael W. Deem and Ramdas Pophale) SiO2 
 PCOD9561462
Probable space group: I -4 2 D
;
_chemical_formula_sum "Si O2"
_cell_formula_units_Z 72
_cell_length_a 10.740778
_cell_length_b 10.740778
_cell_length_c 30.746983
_cell_angle_alpha 90.000000
_cell_angle_beta 90.000000
_cell_angle_gamma 90.000000
_cell_volume 3547.104541
_symmetry_space_group_name_H-M "I -4 2 D"
_symmetry_group_IT_number 122
_symmetry_cell_setting 'tetragonal'
loop_
_space_group_symop_operation_xyz
x,y,z
y,-x,-z
-x,-y,z
-y,x,-z
x,1/2-y,1/4-z
-x,1/2+y,1/4-z
-y,1/2-x,1/4+z
y,1/2+x,1/4+z
1/2+x,1/2+y,1/2+z
1/2+y,1/2-x,1/2-z
1/2-x,1/2-y,1/2+z
1/2-y,1/2+x,1/2-z
1/2+x,-y,3/4-z
1/2-x,y,3/4-z
1/2-y,-x,3/4+z
1/2+y,x,3/4+z
loop_
_atom_site_type_symbol
_atom_site_label
_atom_site_fract_x
_atom_site_fract_y
_atom_site_fract_z
Si Si1 0.143534 0.963902 0.063995
Si Si2 0.500000 0.500000 0.302066
Si Si3 0.125155 0.633127 0.771788
Si Si4 0.625259 0.264354 0.738448
Si Si5 0.772920 0.890787 0.143501
O O1 0.145033 0.817685 0.054611
O O2 0.227058 0.014689 0.103115
O O3 0.000000 0.000000 0.071997
O O4 0.191833 0.032013 0.020370
O O5 0.398008 0.429033 0.273535
O O6 0.425069 0.600648 0.330661
O O7 0.160006 0.491560 0.759791
O O8 0.242422 0.719230 0.761428
O O9 0.091552 0.662339 0.821609
O O10 0.774610 0.750000 0.125000
#
# Coordination Sequence:
#
# PCOD9561462 Si02
#       5
#    16   8  16  16  16
#     4  12  23  40  73 109 144 175 237 307 362 433
#     4  12  26  40  72 103 138 190 229 292 366 446
#     4  11  25  48  67  91 138 196 234 291 370 435
#     4  12  23  44  71 104 138 189 232 291 371 447
#     4  12  24  43  68 104 138 179 239 305 361 431
#
# _framework density 20.298245000000001
#
# number of rings (size 3 to 8) (size 9 to 14) (size 15 to 20)
#    0.000    0.222    7.778    2.667    0.000    0.000 
#    0.000    6.667    0.000    0.000    0.000    0.000 
#    0.000    0.000    0.000    0.000    0.000    0.000 
#
# Total GULP energy -201259.401406 kJ/mol
# GULP energy per Si atom -5590.538928 kJ/mol
# Density = 2.025205 g / cm^3
# Si number density = 20.298245 Si / 1000 Ang^3
#
#
#
# Elastic Constant Matrix: (Units=GPa)
#
#
# Indices 1 2 3 4 5 6 
#
# 1 99.7184 21.6054 42.6092 0.0000 0.0000 0.0000
# 2 21.6054 99.7184 42.6092 0.0000 0.0000 0.0000
# 3 42.6092 42.6092 122.1821 0.0000 0.0000 0.0000
# 4 0.0000 0.0000 0.0000 35.7724 0.0000 0.0000
# 5 0.0000 0.0000 0.0000 0.0000 35.7724 0.0000
# 6 0.0000 0.0000 0.0000 0.0000 0.0000 25.1622
#
#
#
# Elastic Compliance Matrix: (Units=1/GPa)
#
#
# Indices 1 2 3 4 5 6 
#
# 1 0.011859 -0.000943 -0.003807 0.000000 0.000000 0.000000
# 2 -0.000943 0.011859 -0.003807 0.000000 0.000000 0.000000
# 3 -0.003807 -0.003807 0.010840 0.000000 0.000000 0.000000
# 4 0.000000 0.000000 0.000000 0.027955 0.000000 0.000000
# 5 0.000000 0.000000 0.000000 0.000000 0.027955 0.000000
# 6 0.000000 0.000000 0.000000 0.000000 0.000000 0.039742
#
#
# Mechanical properties :
#
#
# Convention : Reuss Voigt Hill
#
# Bulk Modulus (GPa) = 57.32364 59.47407 58.39885
# Shear Modulus (GPa) = 32.65040 33.66108 33.15574
#
# Velocity S-wave (km/s) = 4.01500 4.07667 4.04595
# Velocity P-wave (km/s) = 7.05660 7.17793 7.11753
#
# Compressibility (1/GPa) = 0.01744481
#
# Stress axis : x y z
#
# Youngs Moduli (GPa) = 84.32278 84.32277 92.25318
#
# Poissons Ratio (x) = 0.07950 0.35120
# Poissons Ratio (y) = 0.07950 0.35120
# Poissons Ratio (z) = 0.32101 0.32101
#
# Static dielectric constant tensor:
#      x y z
#    x 1.714620 0.000000 0.000000 
#    y 0.000000 1.714620 0.000000 
#    z 0.000000 0.000000 1.731810 
# 
# From -- ./inp_files/8653.got.cif
#   From: 2010.05.17/outbox.cif.g08.bks.cpg/sg122_5_cif.got.tgz:8653.got - 2010.05.20 11:37:33.
