data_PCOD9561077
_publ_section_title
;
Structure prediction by ZEFSAII (Michael W. Deem and Ramdas Pophale) SiO2 
 PCOD9561077
Probable space group: I -4 2 D
;
_chemical_formula_sum "Si O2"
_cell_formula_units_Z 112
_cell_length_a 15.016191
_cell_length_b 15.016191
_cell_length_c 22.823859
_cell_angle_alpha 90.000000
_cell_angle_beta 90.000000
_cell_angle_gamma 90.000000
_cell_volume 5146.460491
_symmetry_space_group_name_H-M "I -4 2 D"
_symmetry_group_IT_number 122
_symmetry_cell_setting 'tetragonal'
loop_
_space_group_symop_operation_xyz
x,y,z
y,-x,-z
-x,-y,z
-y,x,-z
x,1/2-y,1/4-z
-x,1/2+y,1/4-z
-y,1/2-x,1/4+z
y,1/2+x,1/4+z
1/2+x,1/2+y,1/2+z
1/2+y,1/2-x,1/2-z
1/2-x,1/2-y,1/2+z
1/2-y,1/2+x,1/2-z
1/2+x,-y,3/4-z
1/2-x,y,3/4-z
1/2-y,-x,3/4+z
1/2+y,x,3/4+z
loop_
_atom_site_type_symbol
_atom_site_label
_atom_site_fract_x
_atom_site_fract_y
_atom_site_fract_z
Si Si1 0.210846 0.891368 0.311796
Si Si2 0.582866 0.444815 0.389822
Si Si3 0.008794 0.600439 0.898123
Si Si4 0.448580 0.147691 0.520546
Si Si5 0.694039 0.315412 0.459415
Si Si6 0.090208 0.722556 0.182348
Si Si7 0.356141 0.978529 0.230847
O O1 0.250000 0.915818 0.375000
O O2 0.222541 0.785752 0.300510
O O3 0.265504 0.947853 0.263591
O O4 0.105469 0.899700 0.321510
O O5 0.500000 0.500000 0.414962
O O6 0.572609 0.437469 0.319903
O O7 0.616199 0.351508 0.416344
O O8 0.663502 0.511013 0.406029
O O9 0.994286 0.657198 0.839098
O O10 0.000000 0.500000 0.875771
O O11 0.943921 0.621510 0.952797
O O12 0.375618 0.219156 0.540728
O O13 0.543198 0.197015 0.532864
O O14 0.650748 0.328539 0.522799
O O15 0.144345 0.750000 0.125000
O O16 0.430400 0.900934 0.243571
#
# Coordination Sequence:
#
# PCOD9561077 Si02
#       7
#    16  16  16  16  16  16  16
#     4  12  24  43  72 104 136 186 240 294 364 436
#     4  10  22  38  63  89 124 182 229 273 345 421
#     4  12  24  45  71 102 142 183 236 295 362 441
#     4  10  22  43  57  95 134 174 221 292 354 409
#     4  11  23  40  64  96 138 175 233 293 346 428
#     4   9  20  37  58  83 128 166 215 274 333 405
#     4  11  23  48  75 101 140 186 234 299 362 433
#
# _framework density 21.762529000000001
#
# number of rings (size 3 to 8) (size 9 to 14) (size 15 to 20)
#    0.000    1.286    4.286    2.571    4.000    2.286 
#    5.143    1.429    0.000    0.000    0.000    0.000 
#    0.000    0.000    0.000    0.000    0.000    0.000 
#
# Total GULP energy -312275.760640 kJ/mol
# GULP energy per Si atom -5576.352869 kJ/mol
# Density = 2.171300 g / cm^3
# Si number density = 21.762529 Si / 1000 Ang^3
#
#
#
# Elastic Constant Matrix: (Units=GPa)
#
#
# Indices 1 2 3 4 5 6 
#
# 1 60.8572 11.5871 28.6971 0.0000 0.0000 0.0000
# 2 11.5871 60.8572 28.6971 0.0000 0.0000 0.0000
# 3 28.6971 28.6971 150.6363 0.0000 0.0000 0.0000
# 4 0.0000 0.0000 0.0000 33.8740 0.0000 0.0000
# 5 0.0000 0.0000 0.0000 0.0000 33.8740 0.0000
# 6 0.0000 0.0000 0.0000 0.0000 0.0000 24.0314
#
#
#
# Elastic Compliance Matrix: (Units=1/GPa)
#
#
# Indices 1 2 3 4 5 6 
#
# 1 0.018277 -0.002019 -0.003097 0.000000 0.000000 0.000000
# 2 -0.002019 0.018277 -0.003097 0.000000 0.000000 0.000000
# 3 -0.003097 -0.003097 0.007819 0.000000 0.000000 0.000000
# 4 0.000000 0.000000 0.000000 0.029521 0.000000 0.000000
# 5 0.000000 0.000000 0.000000 0.000000 0.029521 0.000000
# 6 0.000000 0.000000 0.000000 0.000000 0.000000 0.041612
#
#
# Mechanical properties :
#
#
# Convention : Reuss Voigt Hill
#
# Bulk Modulus (GPa) = 35.78477 45.59037 40.68757
# Shear Modulus (GPa) = 29.27931 31.91386 30.59658
#
# Velocity S-wave (km/s) = 3.67195 3.83359 3.75364
# Velocity P-wave (km/s) = 5.86997 6.37101 6.12562
#
# Compressibility (1/GPa) = 0.02794485
#
# Stress axis : x y z
#
# Youngs Moduli (GPa) = 54.71400 54.71400 127.90096
#
# Poissons Ratio (x) = 0.11049 0.39613
# Poissons Ratio (y) = 0.11049 0.39613
# Poissons Ratio (z) = 0.16946 0.16946
#
# Static dielectric constant tensor:
#      x y z
#    x 1.784450 0.000000 0.000000 
#    y 0.000000 1.784450 0.000000 
#    z 0.000000 0.000000 1.853550 
# 
# From -- ./inp_files/8138.got.cif
#   From: 2010.05.17/outbox.cif.g08.bks.cpg/sg122_5_cif.got.tgz:8138.got - 2010.05.20 11:37:33.
