data_PCOD9561099
_publ_section_title
;
Structure prediction by ZEFSAII (Michael W. Deem and Ramdas Pophale) SiO2 
 PCOD9561099
Probable space group: I -4 2 D
;
_chemical_formula_sum "Si O2"
_cell_formula_units_Z 72
_cell_length_a 13.893543
_cell_length_b 13.893543
_cell_length_c 16.874409
_cell_angle_alpha 90.000000
_cell_angle_beta 90.000000
_cell_angle_gamma 90.000000
_cell_volume 3257.276232
_symmetry_space_group_name_H-M "I -4 2 D"
_symmetry_group_IT_number 122
_symmetry_cell_setting 'tetragonal'
loop_
_space_group_symop_operation_xyz
x,y,z
y,-x,-z
-x,-y,z
-y,x,-z
x,1/2-y,1/4-z
-x,1/2+y,1/4-z
-y,1/2-x,1/4+z
y,1/2+x,1/4+z
1/2+x,1/2+y,1/2+z
1/2+y,1/2-x,1/2-z
1/2-x,1/2-y,1/2+z
1/2-y,1/2+x,1/2-z
1/2+x,-y,3/4-z
1/2-x,y,3/4-z
1/2-y,-x,3/4+z
1/2+y,x,3/4+z
loop_
_atom_site_type_symbol
_atom_site_label
_atom_site_fract_x
_atom_site_fract_y
_atom_site_fract_z
Si Si1 0.910698 0.367279 0.765975
Si Si2 0.250000 0.078525 0.375000
Si Si3 0.429727 0.259601 0.541342
Si Si4 0.959245 0.395363 0.500820
Si Si5 0.708412 0.928329 0.648798
O O1 0.873498 0.475946 0.758811
O O2 0.864317 0.308149 0.692692
O O3 0.904705 0.306384 0.848116
O O4 0.326056 0.018418 0.426596
O O5 0.485042 0.250000 0.625000
O O6 0.394304 0.156090 0.510801
O O7 0.345245 0.333298 0.567171
O O8 0.502270 0.287698 0.473272
O O9 0.988010 0.353867 0.416075
O O10 0.000000 0.500000 0.515642
#
# Coordination Sequence:
#
# PCOD9561099 Si02
#       5
#    16   8  16  16  16
#     4  10  22  42  69  98 135 188 234 289 357 431
#     4  10  22  40  62  98 130 178 230 288 342 428
#     4  10  23  42  66 102 136 182 234 296 358 438
#     4  10  23  43  68  98 141 184 234 293 365 442
#     4  10  23  42  66 104 137 181 236 297 363 433
#
# _framework density 22.104357
#
# number of rings (size 3 to 8) (size 9 to 14) (size 15 to 20)
#    0.000    2.000    0.000    1.333   12.444    0.000 
#   12.000    0.000    0.000    0.000    0.000    0.000 
#    0.000    0.000    0.000    0.000    0.000    0.000 
#
# Total GULP energy -200592.105842 kJ/mol
# GULP energy per Si atom -5572.002940 kJ/mol
# Density = 2.205405 g / cm^3
# Si number density = 22.104357 Si / 1000 Ang^3
#
#
#
# Elastic Constant Matrix: (Units=GPa)
#
#
# Indices 1 2 3 4 5 6 
#
# 1 106.4433 29.3674 76.1743 0.0000 0.0000 0.0000
# 2 29.3674 106.4433 76.1743 0.0000 0.0000 0.0000
# 3 76.1743 76.1743 207.2997 0.0000 0.0000 0.0000
# 4 0.0000 0.0000 0.0000 30.3212 0.0000 0.0000
# 5 0.0000 0.0000 0.0000 0.0000 30.3212 0.0000
# 6 0.0000 0.0000 0.0000 0.0000 0.0000 13.5613
#
#
#
# Elastic Compliance Matrix: (Units=1/GPa)
#
#
# Indices 1 2 3 4 5 6 
#
# 1 0.012751 -0.000224 -0.004603 0.000000 0.000000 0.000000
# 2 -0.000224 0.012751 -0.004603 0.000000 0.000000 0.000000
# 3 -0.004603 -0.004603 0.008207 0.000000 0.000000 0.000000
# 4 0.000000 0.000000 0.000000 0.032980 0.000000 0.000000
# 5 0.000000 0.000000 0.000000 0.000000 0.032980 0.000000
# 6 0.000000 0.000000 0.000000 0.000000 0.000000 0.073739
#
#
# Mechanical properties :
#
#
# Convention : Reuss Voigt Hill
#
# Bulk Modulus (GPa) = 67.34880 87.06870 77.20875
# Shear Modulus (GPa) = 25.35285 30.73878 28.04582
#
# Velocity S-wave (km/s) = 3.39036 3.73315 3.56587
# Velocity P-wave (km/s) = 6.77206 7.61953 7.20826
#
# Compressibility (1/GPa) = 0.01484807
#
# Stress axis : x y z
#
# Youngs Moduli (GPa) = 78.42821 78.42821 121.84959
#
# Poissons Ratio (x) = 0.01754 0.56089
# Poissons Ratio (y) = 0.01754 0.56089
# Poissons Ratio (z) = 0.36101 0.36101
#
# Static dielectric constant tensor:
#      x y z
#    x 1.867560 0.000000 0.000000 
#    y 0.000000 1.867560 0.000000 
#    z 0.000000 0.000000 1.901380 
# 
# From -- ./inp_files/6130.got.cif
#   From: 2010.05.17/outbox.cif.g08.bks.cpg/sg122_4_cif.got.tgz:6130.got - 2010.05.20 11:37:33.
