data_PCOD9561278
_publ_section_title
;
Structure prediction by ZEFSAII (Michael W. Deem and Ramdas Pophale) SiO2 
 PCOD9561278
Probable space group: I -4 2 D
;
_chemical_formula_sum "Si O2"
_cell_formula_units_Z 88
_cell_length_a 11.368825
_cell_length_b 11.368825
_cell_length_c 29.574653
_cell_angle_alpha 90.000000
_cell_angle_beta 90.000000
_cell_angle_gamma 90.000000
_cell_volume 3822.529279
_symmetry_space_group_name_H-M "I -4 2 D"
_symmetry_group_IT_number 122
_symmetry_cell_setting 'tetragonal'
loop_
_space_group_symop_operation_xyz
x,y,z
y,-x,-z
-x,-y,z
-y,x,-z
x,1/2-y,1/4-z
-x,1/2+y,1/4-z
-y,1/2-x,1/4+z
y,1/2+x,1/4+z
1/2+x,1/2+y,1/2+z
1/2+y,1/2-x,1/2-z
1/2-x,1/2-y,1/2+z
1/2-y,1/2+x,1/2-z
1/2+x,-y,3/4-z
1/2-x,y,3/4-z
1/2-y,-x,3/4+z
1/2+y,x,3/4+z
loop_
_atom_site_type_symbol
_atom_site_label
_atom_site_fract_x
_atom_site_fract_y
_atom_site_fract_z
Si Si1 0.725823 0.084800 0.037000
Si Si2 0.000000 0.000000 0.332755
Si Si3 0.367175 0.810581 0.528971
Si Si4 0.824404 0.446779 0.762300
Si Si5 0.628306 0.444662 0.630671
Si Si6 0.815827 0.866231 0.604317
O O1 0.593132 0.079245 0.055606
O O2 0.773802 0.207427 0.019011
O O3 0.811625 0.068776 0.081057
O O4 0.725623 0.984365 0.998294
O O5 0.918645 0.085126 0.362549
O O6 0.304306 0.925218 0.507733
O O7 0.381096 0.838397 0.582542
O O8 0.876834 0.577268 0.767290
O O9 0.830605 0.382890 0.809740
O O10 0.500000 0.500000 0.625212
O O11 0.717275 0.537375 0.653450
O O12 0.759056 0.750000 0.625000
#
# Coordination Sequence:
#
# PCOD9561278 Si02
#       6
#    16   8  16  16  16  16
#     4  11  29  48  77 109 150 202 256 317 391 472
#     4  10  24  46  69 106 144 188 250 313 386 462
#     4  12  28  47  77 110 151 203 255 319 386 473
#     4  11  23  40  68 105 146 188 246 313 385 463
#     4  11  27  51  75 108 151 198 261 314 398 471
#     4  11  24  42  72 107 146 195 244 320 393 465
#
# _framework density 23.021405999999999
#
# number of rings (size 3 to 8) (size 9 to 14) (size 15 to 20)
#    0.000    0.909    1.818    3.818   14.000    1.455 
#    0.000    0.000    0.000    0.000    0.000    0.000 
#    0.000    0.000    0.000    0.000    0.000    0.000 
#
# Total GULP energy -245868.688335 kJ/mol
# GULP energy per Si atom -5587.924735 kJ/mol
# Density = 2.296901 g / cm^3
# Si number density = 23.021406 Si / 1000 Ang^3
#
#
#
# Elastic Constant Matrix: (Units=GPa)
#
#
# Indices 1 2 3 4 5 6 
#
# 1 116.0145 36.1735 46.6811 0.0000 0.0000 0.0000
# 2 36.1735 116.0145 46.6811 0.0000 0.0000 0.0000
# 3 46.6811 46.6811 115.2717 0.0000 0.0000 0.0000
# 4 0.0000 0.0000 0.0000 62.0507 0.0000 0.0000
# 5 0.0000 0.0000 0.0000 0.0000 62.0507 0.0000
# 6 0.0000 0.0000 0.0000 0.0000 0.0000 18.8621
#
#
#
# Elastic Compliance Matrix: (Units=1/GPa)
#
#
# Indices 1 2 3 4 5 6 
#
# 1 0.010634 -0.001891 -0.003541 0.000000 0.000000 0.000000
# 2 -0.001891 0.010634 -0.003541 0.000000 0.000000 0.000000
# 3 -0.003541 -0.003541 0.011543 0.000000 0.000000 0.000000
# 4 0.000000 0.000000 0.000000 0.016116 0.000000 0.000000
# 5 0.000000 0.000000 0.000000 0.000000 0.016116 0.000000
# 6 0.000000 0.000000 0.000000 0.000000 0.000000 0.053016
#
#
# Mechanical properties :
#
#
# Convention : Reuss Voigt Hill
#
# Bulk Modulus (GPa) = 67.26659 67.37469 67.32064
# Shear Modulus (GPa) = 35.47153 43.11038 39.29096
#
# Velocity S-wave (km/s) = 3.92957 4.33207 4.13572
# Velocity P-wave (km/s) = 7.06196 7.37239 7.21884
#
# Compressibility (1/GPa) = 0.01486622
#
# Stress axis : x y z
#
# Youngs Moduli (GPa) = 94.03922 94.03922 86.63439
#
# Poissons Ratio (x) = 0.17783 0.30673
# Poissons Ratio (y) = 0.17783 0.30673
# Poissons Ratio (z) = 0.33295 0.33295
#
# Static dielectric constant tensor:
#      x y z
#    x 1.835580 0.000000 0.000000 
#    y 0.000000 1.835580 0.000000 
#    z 0.000000 0.000000 1.911420 
# 
# From -- ./inp_files/9489.got.cif
#   From: 2010.05.17/outbox.cif.g08.bks.cpg/sg122_5_cif.got.tgz:9489.got - 2010.05.20 11:37:33.
