data_PCOD9561573
_publ_section_title
;
Structure prediction by ZEFSAII (Michael W. Deem and Ramdas Pophale) SiO2 
 PCOD9561573
Probable space group: I -4 2 D
;
_chemical_formula_sum "Si O2"
_cell_formula_units_Z 48
_cell_length_a 13.014758
_cell_length_b 13.014758
_cell_length_c 10.559222
_cell_angle_alpha 90.000000
_cell_angle_beta 90.000000
_cell_angle_gamma 90.000000
_cell_volume 1788.562476
_symmetry_space_group_name_H-M "I -4 2 D"
_symmetry_group_IT_number 122
_symmetry_cell_setting 'tetragonal'
loop_
_space_group_symop_operation_xyz
x,y,z
y,-x,-z
-x,-y,z
-y,x,-z
x,1/2-y,1/4-z
-x,1/2+y,1/4-z
-y,1/2-x,1/4+z
y,1/2+x,1/4+z
1/2+x,1/2+y,1/2+z
1/2+y,1/2-x,1/2-z
1/2-x,1/2-y,1/2+z
1/2-y,1/2+x,1/2-z
1/2+x,-y,3/4-z
1/2-x,y,3/4-z
1/2-y,-x,3/4+z
1/2+y,x,3/4+z
loop_
_atom_site_type_symbol
_atom_site_label
_atom_site_fract_x
_atom_site_fract_y
_atom_site_fract_z
Si Si1 0.144235 0.304780 0.817849
Si Si2 0.894259 0.052151 0.804714
Si Si3 0.929369 0.247275 0.352856
O O1 0.250000 0.258867 0.875000
O O2 0.039585 0.239724 0.823369
O O3 0.113862 0.393563 0.920274
O O4 0.326356 0.356791 0.064250
O O5 0.876005 0.141882 0.906466
O O6 0.811258 0.966255 0.771233
O O7 0.000000 0.000000 0.835101
#
# Coordination Sequence:
#
# PCOD9561573 Si02
#       3
#    16  16  16
#     4   8  15  24  38  61  95 132 156 204 278 339
#     4   9  17  26  43  65 100 130 164 215 278 335
#     4   9  16  26  39  66  98 131 165 211 283 338
#
# _framework density 26.837192000000002
#
# number of rings (size 3 to 8) (size 9 to 14) (size 15 to 20)
#    2.000    1.333    0.000    2.000    0.000    0.000 
#    0.000    0.000    0.000    0.000    0.000    9.333 
#    0.000    0.000    0.000    0.000    0.000    0.000 
#
# Total GULP energy -133952.268552 kJ/mol
# GULP energy per Si atom -5581.344523 kJ/mol
# Density = 2.677611 g / cm^3
# Si number density = 26.837192 Si / 1000 Ang^3
#
#
#
# Elastic Constant Matrix: (Units=GPa)
#
#
# Indices 1 2 3 4 5 6 
#
# 1 119.5417 31.6428 52.1937 0.0000 0.0000 0.0000
# 2 31.6428 119.5417 52.1937 0.0000 0.0000 0.0000
# 3 52.1937 52.1937 82.2355 0.0000 0.0000 0.0000
# 4 0.0000 0.0000 0.0000 29.5657 0.0000 0.0000
# 5 0.0000 0.0000 0.0000 0.0000 29.5657 0.0000
# 6 0.0000 0.0000 0.0000 0.0000 0.0000 28.4035
#
#
#
# Elastic Compliance Matrix: (Units=1/GPa)
#
#
# Indices 1 2 3 4 5 6 
#
# 1 0.011575 0.000199 -0.007473 0.000000 0.000000 0.000000
# 2 0.000199 0.011575 -0.007473 0.000000 0.000000 0.000000
# 3 -0.007473 -0.007473 0.021646 0.000000 0.000000 0.000000
# 4 0.000000 0.000000 0.000000 0.033823 0.000000 0.000000
# 5 0.000000 0.000000 0.000000 0.000000 0.033823 0.000000
# 6 0.000000 0.000000 0.000000 0.000000 0.000000 0.035207
#
#
# Mechanical properties :
#
#
# Convention : Reuss Voigt Hill
#
# Bulk Modulus (GPa) = 65.34734 65.93104 65.63919
# Shear Modulus (GPa) = 27.43558 29.85956 28.64757
#
# Velocity S-wave (km/s) = 3.20081 3.33921 3.27074
# Velocity P-wave (km/s) = 6.16949 6.28391 6.22696
#
# Compressibility (1/GPa) = 0.01530284
#
# Stress axis : x y z
#
# Youngs Moduli (GPa) = 86.38957 86.38957 46.19765
#
# Poissons Ratio (x) = -0.01717 0.34523
# Poissons Ratio (y) = -0.01717 0.34523
# Poissons Ratio (z) = 0.64558 0.64558
#
# Static dielectric constant tensor:
#      x y z
#    x 2.159820 0.000000 0.000000 
#    y 0.000000 2.159820 0.000000 
#    z 0.000000 0.000000 2.003340 
# 
# From -- ./inp_files/5011.got.cif
#   From: 2010.05.17/outbox.cif.g08.bks.cpg/sg122_3_cif.got.tgz:5011.got - 2010.05.20 11:37:33.
