data_PCOD9561148
_publ_section_title
;
Structure prediction by ZEFSAII (Michael W. Deem and Ramdas Pophale) SiO2 
 PCOD9561148
Probable space group: I -4 2 D
;
_chemical_formula_sum "Si O2"
_cell_formula_units_Z 56
_cell_length_a 11.029828
_cell_length_b 11.029828
_cell_length_c 20.480824
_cell_angle_alpha 90.000000
_cell_angle_beta 90.000000
_cell_angle_gamma 90.000000
_cell_volume 2491.637770
_symmetry_space_group_name_H-M "I -4 2 D"
_symmetry_group_IT_number 122
_symmetry_cell_setting 'tetragonal'
loop_
_space_group_symop_operation_xyz
x,y,z
y,-x,-z
-x,-y,z
-y,x,-z
x,1/2-y,1/4-z
-x,1/2+y,1/4-z
-y,1/2-x,1/4+z
y,1/2+x,1/4+z
1/2+x,1/2+y,1/2+z
1/2+y,1/2-x,1/2-z
1/2-x,1/2-y,1/2+z
1/2-y,1/2+x,1/2-z
1/2+x,-y,3/4-z
1/2-x,y,3/4-z
1/2-y,-x,3/4+z
1/2+y,x,3/4+z
loop_
_atom_site_type_symbol
_atom_site_label
_atom_site_fract_x
_atom_site_fract_y
_atom_site_fract_z
Si Si1 0.053109 0.810116 0.394107
Si Si2 0.500000 0.500000 0.786736
Si Si3 0.108493 0.246081 0.744576
Si Si4 0.845111 0.895203 0.027552
O O1 0.165585 0.873990 0.432093
O O2 0.090194 0.686005 0.355360
O O3 0.942377 0.816235 0.444102
O O4 0.006595 0.884791 0.332740
O O5 0.632468 0.486953 0.754804
O O6 0.240851 0.189372 0.751876
O O7 0.976323 0.842554 0.010239
#
# Coordination Sequence:
#
# PCOD9561148 Si02
#       4
#    16   8  16  16
#     4  11  24  45  72 103 144 182 242 311 347 446
#     4  10  22  43  64 104 135 182 232 288 362 420
#     4  11  25  44  74 102 137 191 241 303 368 416
#     4  10  24  47  64 103 146 191 234 286 364 446
#
# _framework density 22.475178
#
# number of rings (size 3 to 8) (size 9 to 14) (size 15 to 20)
#    0.000    1.429    0.000    5.143    8.000    3.429 
#   10.286    0.000    0.000    0.000    0.000    0.000 
#    0.000    0.000    0.000    0.000    0.000    0.000 
#
# Total GULP energy -155934.372768 kJ/mol
# GULP energy per Si atom -5569.084742 kJ/mol
# Density = 2.242402 g / cm^3
# Si number density = 22.475178 Si / 1000 Ang^3
#
#
#
# Elastic Constant Matrix: (Units=GPa)
#
#
# Indices 1 2 3 4 5 6 
#
# 1 64.5219 21.2031 1.2823 0.0000 0.0000 0.0000
# 2 21.2031 64.5219 1.2823 0.0000 0.0000 0.0000
# 3 1.2823 1.2823 80.2320 0.0000 0.0000 0.0000
# 4 0.0000 0.0000 0.0000 15.8092 0.0000 0.0000
# 5 0.0000 0.0000 0.0000 0.0000 15.8092 0.0000
# 6 0.0000 0.0000 0.0000 0.0000 0.0000 42.9322
#
#
#
# Elastic Compliance Matrix: (Units=1/GPa)
#
#
# Indices 1 2 3 4 5 6 
#
# 1 0.017378 -0.005707 -0.000187 0.000000 0.000000 0.000000
# 2 -0.005707 0.017378 -0.000187 0.000000 0.000000 0.000000
# 3 -0.000187 -0.000187 0.012470 0.000000 0.000000 0.000000
# 4 0.000000 0.000000 0.000000 0.063254 0.000000 0.000000
# 5 0.000000 0.000000 0.000000 0.000000 0.063254 0.000000
# 6 0.000000 0.000000 0.000000 0.000000 0.000000 0.023293
#
#
# Mechanical properties :
#
#
# Convention : Reuss Voigt Hill
#
# Bulk Modulus (GPa) = 28.51827 28.53461 28.52644
# Shear Modulus (GPa) = 22.63726 27.27733 24.95729
#
# Velocity S-wave (km/s) = 3.17710 3.48755 3.33594
# Velocity P-wave (km/s) = 5.11615 5.37968 5.24957
#
# Compressibility (1/GPa) = 0.03506524
#
# Stress axis : x y z
#
# Youngs Moduli (GPa) = 57.54493 57.54494 80.19359
#
# Poissons Ratio (x) = 0.32841 0.01496
# Poissons Ratio (y) = 0.32841 0.01496
# Poissons Ratio (z) = 0.01073 0.01073
#
# Static dielectric constant tensor:
#      x y z
#    x 1.964640 0.000000 0.000000 
#    y 0.000000 1.964640 0.000000 
#    z 0.000000 0.000000 1.824160 
# 
# From -- ./inp_files/6812.got.cif
#   From: 2010.05.17/outbox.cif.g08.bks.cpg/sg122_4_cif.got.tgz:6812.got - 2010.05.20 11:37:33.
