data_PCOD9561523
_publ_section_title
;
Structure prediction by ZEFSAII (Michael W. Deem and Ramdas Pophale) SiO2 
 PCOD9561523
Probable space group: I -4 2 D
;
_chemical_formula_sum "Si O2"
_cell_formula_units_Z 64
_cell_length_a 10.965146
_cell_length_b 10.965146
_cell_length_c 22.137391
_cell_angle_alpha 90.000000
_cell_angle_beta 90.000000
_cell_angle_gamma 90.000000
_cell_volume 2661.676518
_symmetry_space_group_name_H-M "I -4 2 D"
_symmetry_group_IT_number 122
_symmetry_cell_setting 'tetragonal'
loop_
_space_group_symop_operation_xyz
x,y,z
y,-x,-z
-x,-y,z
-y,x,-z
x,1/2-y,1/4-z
-x,1/2+y,1/4-z
-y,1/2-x,1/4+z
y,1/2+x,1/4+z
1/2+x,1/2+y,1/2+z
1/2+y,1/2-x,1/2-z
1/2-x,1/2-y,1/2+z
1/2-y,1/2+x,1/2-z
1/2+x,-y,3/4-z
1/2-x,y,3/4-z
1/2-y,-x,3/4+z
1/2+y,x,3/4+z
loop_
_atom_site_type_symbol
_atom_site_label
_atom_site_fract_x
_atom_site_fract_y
_atom_site_fract_z
Si Si1 0.614552 0.092168 0.163835
Si Si2 0.092968 0.246543 0.189032
Si Si3 0.285277 0.047559 0.052635
Si Si4 0.699572 0.986079 0.491262
O O1 0.568674 0.225133 0.184959
O O2 0.500000 0.000000 0.163975
O O3 0.688557 0.054219 0.103335
O O4 0.703009 0.056852 0.218597
O O5 0.023673 0.250000 0.125000
O O6 0.203113 0.339746 0.176639
O O7 0.143732 0.118087 0.215226
O O8 0.007677 0.282340 0.244593
O O9 0.414815 0.103584 0.032165
#
# Coordination Sequence:
#
# PCOD9561523 Si02
#       4
#    16  16  16  16
#     4  12  22  42  77 114 151 196 248 330 399 456
#     4  12  27  51  74 106 155 200 259 316 385 475
#     4  12  29  48  74 112 153 207 255 324 391 477
#     4  12  23  48  76 114 152 197 256 323 400 457
#
# _framework density 24.044995
#
# number of rings (size 3 to 8) (size 9 to 14) (size 15 to 20)
#    0.000    0.000    7.500    2.250    0.000    5.500 
#    4.500    0.000    0.000    0.000    0.000    0.000 
#    0.000    0.000    0.000    0.000    0.000    0.000 
#
# Total GULP energy -179041.755716 kJ/mol
# GULP energy per Si atom -5595.054866 kJ/mol
# Density = 2.399027 g / cm^3
# Si number density = 24.044995 Si / 1000 Ang^3
#
#
#
# Elastic Constant Matrix: (Units=GPa)
#
#
# Indices 1 2 3 4 5 6 
#
# 1 76.6367 10.0086 37.8576 0.0000 0.0000 0.0000
# 2 10.0086 76.6367 37.8576 0.0000 0.0000 0.0000
# 3 37.8576 37.8576 220.8688 0.0000 0.0000 0.0000
# 4 0.0000 0.0000 0.0000 29.0364 0.0000 0.0000
# 5 0.0000 0.0000 0.0000 0.0000 29.0364 0.0000
# 6 0.0000 0.0000 0.0000 0.0000 0.0000 31.6692
#
#
#
# Elastic Compliance Matrix: (Units=1/GPa)
#
#
# Indices 1 2 3 4 5 6 
#
# 1 0.014292 -0.000717 -0.002327 0.000000 0.000000 0.000000
# 2 -0.000717 0.014292 -0.002327 0.000000 0.000000 0.000000
# 3 -0.002327 -0.002327 0.005325 0.000000 0.000000 0.000000
# 4 0.000000 0.000000 0.000000 0.034440 0.000000 0.000000
# 5 0.000000 0.000000 0.000000 0.000000 0.034440 0.000000
# 6 0.000000 0.000000 0.000000 0.000000 0.000000 0.031576
#
#
# Mechanical properties :
#
#
# Convention : Reuss Voigt Hill
#
# Bulk Modulus (GPa) = 43.16419 60.62111 51.89265
# Shear Modulus (GPa) = 32.71667 37.17631 34.94649
#
# Velocity S-wave (km/s) = 3.69269 3.93633 3.81646
# Velocity P-wave (km/s) = 6.01429 6.77686 6.40693
#
# Compressibility (1/GPa) = 0.02316735
#
# Stress axis : x y z
#
# Youngs Moduli (GPa) = 69.97123 69.97123 187.78681
#
# Poissons Ratio (x) = 0.05017 0.43693
# Poissons Ratio (y) = 0.05017 0.43693
# Poissons Ratio (z) = 0.16280 0.16280
#
# Static dielectric constant tensor:
#      x y z
#    x 1.989950 0.000000 0.000000 
#    y 0.000000 1.989950 0.000000 
#    z 0.000000 0.000000 1.956550 
# 
# From -- ./inp_files/6911.got.cif
#   From: 2010.05.17/outbox.cif.g08.bks.cpg/sg122_4_cif.got.tgz:6911.got - 2010.05.20 11:37:33.
