data_PCOD9561038
_publ_section_title
;
Structure prediction by ZEFSAII (Michael W. Deem and Ramdas Pophale) SiO2 
 PCOD9561038
Probable space group: I -4 2 D
;
_chemical_formula_sum "Si O2"
_cell_formula_units_Z 72
_cell_length_a 12.025291
_cell_length_b 12.025291
_cell_length_c 23.814960
_cell_angle_alpha 90.000000
_cell_angle_beta 90.000000
_cell_angle_gamma 90.000000
_cell_volume 3443.824773
_symmetry_space_group_name_H-M "I -4 2 D"
_symmetry_group_IT_number 122
_symmetry_cell_setting 'tetragonal'
loop_
_space_group_symop_operation_xyz
x,y,z
y,-x,-z
-x,-y,z
-y,x,-z
x,1/2-y,1/4-z
-x,1/2+y,1/4-z
-y,1/2-x,1/4+z
y,1/2+x,1/4+z
1/2+x,1/2+y,1/2+z
1/2+y,1/2-x,1/2-z
1/2-x,1/2-y,1/2+z
1/2-y,1/2+x,1/2-z
1/2+x,-y,3/4-z
1/2-x,y,3/4-z
1/2-y,-x,3/4+z
1/2+y,x,3/4+z
loop_
_atom_site_type_symbol
_atom_site_label
_atom_site_fract_x
_atom_site_fract_y
_atom_site_fract_z
Si Si1 0.100971 0.336035 0.177130
Si Si2 0.447105 0.113959 0.970406
Si Si3 0.976972 0.759418 0.372827
Si Si4 0.684926 0.852795 0.796067
Si Si5 0.500000 0.000000 0.079069
O O1 0.102106 0.250000 0.125000
O O2 0.186228 0.433924 0.161740
O O3 0.143145 0.296544 0.238335
O O4 0.973385 0.368079 0.189581
O O5 0.490094 0.218580 0.936275
O O6 0.314635 0.118179 0.962033
O O7 0.500000 0.000000 0.944580
O O8 0.482123 0.102008 0.035033
O O9 0.858966 0.724009 0.346118
O O10 0.991602 0.888915 0.364148
#
# Coordination Sequence:
#
# PCOD9561038 Si02
#       5
#    16  16  16  16   8
#     4  12  23  36  61 100 131 166 212 271 347 403
#     4  10  21  42  64  95 137 170 210 281 343 393
#     4  12  23  38  66  89 135 178 219 270 339 399
#     4  12  22  39  62 101 133 164 220 279 343 412
#     4  10  24  44  60 102 136 172 228 284 330 398
#
# _framework density 20.906987000000001
#
# number of rings (size 3 to 8) (size 9 to 14) (size 15 to 20)
#    0.667    0.000    4.444    5.333    3.111    0.000 
#    0.000    2.222    0.000    0.000    0.000    0.000 
#    0.000    0.000    0.000    0.000    0.000    0.000 
#
# Total GULP energy -200911.048777 kJ/mol
# GULP energy per Si atom -5580.862466 kJ/mol
# Density = 2.085940 g / cm^3
# Si number density = 20.906987 Si / 1000 Ang^3
#
#
#
# Elastic Constant Matrix: (Units=GPa)
#
#
# Indices 1 2 3 4 5 6 
#
# 1 103.8957 21.3381 46.3990 0.0000 0.0000 0.0000
# 2 21.3381 103.8957 46.3990 0.0000 0.0000 0.0000
# 3 46.3990 46.3990 96.5747 0.0000 0.0000 0.0000
# 4 0.0000 0.0000 0.0000 16.1753 0.0000 0.0000
# 5 0.0000 0.0000 0.0000 0.0000 16.1753 0.0000
# 6 0.0000 0.0000 0.0000 0.0000 0.0000 7.3042
#
#
#
# Elastic Compliance Matrix: (Units=1/GPa)
#
#
# Indices 1 2 3 4 5 6 
#
# 1 0.012256 0.000143 -0.005957 0.000000 0.000000 0.000000
# 2 0.000143 0.012256 -0.005957 0.000000 0.000000 0.000000
# 3 -0.005957 -0.005957 0.016079 0.000000 0.000000 0.000000
# 4 0.000000 0.000000 0.000000 0.061823 0.000000 0.000000
# 5 0.000000 0.000000 0.000000 0.000000 0.061823 0.000000
# 6 0.000000 0.000000 0.000000 0.000000 0.000000 0.136908
#
#
# Mechanical properties :
#
#
# Convention : Reuss Voigt Hill
#
# Bulk Modulus (GPa) = 58.65538 59.18205 58.91872
# Shear Modulus (GPa) = 15.13459 20.61296 17.87377
#
# Velocity S-wave (km/s) = 2.69346 3.14337 2.92707
# Velocity P-wave (km/s) = 6.14730 6.44540 6.29811
#
# Compressibility (1/GPa) = 0.01704873
#
# Stress axis : x y z
#
# Youngs Moduli (GPa) = 81.59223 81.59223 62.19303
#
# Poissons Ratio (x) = -0.01169 0.37050
# Poissons Ratio (y) = -0.01169 0.37050
# Poissons Ratio (z) = 0.48607 0.48607
#
# Static dielectric constant tensor:
#      x y z
#    x 1.755380 0.000000 0.000000 
#    y 0.000000 1.755380 0.000000 
#    z 0.000000 0.000000 1.785060 
# 
# From -- ./inp_files/8598.got.cif
#   From: 2010.05.17/outbox.cif.g08.bks.cpg/sg122_5_cif.got.tgz:8598.got - 2010.05.20 11:37:33.
