data_PCOD9561734
_publ_section_title
;
Structure prediction by ZEFSAII (Michael W. Deem and Ramdas Pophale) SiO2 
 PCOD9561734
Probable space group: P 4/M M M
;
_chemical_formula_sum "Si O2"
_cell_formula_units_Z 112
_cell_length_a 15.931297
_cell_length_b 15.931297
_cell_length_c 26.760433
_cell_angle_alpha 90.000000
_cell_angle_beta 90.000000
_cell_angle_gamma 90.000000
_cell_volume 6791.964455
_symmetry_space_group_name_H-M "P 4/M M M"
_symmetry_group_IT_number 123
_symmetry_cell_setting 'tetragonal'
loop_
_space_group_symop_operation_xyz
x,y,z
-y,x,z
-x,-y,z
y,-x,z
x,-y,-z
-x,y,-z
y,x,-z
-y,-x,-z
-x,-y,-z
y,-x,-z
x,y,-z
-y,x,-z
-x,y,z
x,-y,z
-y,-x,z
y,x,z
loop_
_atom_site_type_symbol
_atom_site_label
_atom_site_fract_x
_atom_site_fract_y
_atom_site_fract_z
Si Si1 0.592409 0.267932 0.305051
Si Si2 0.096032 0.764570 0.442134
Si Si3 0.650070 0.782093 0.803269
Si Si4 0.904594 0.768560 0.939776
Si Si5 0.407904 0.903017 0.113494
Si Si6 0.094856 0.347173 0.347579
Si Si7 0.225982 0.906029 0.254022
O O1 0.500000 0.302936 0.315784
O O2 0.668592 0.331409 0.318447
O O3 0.601402 0.250408 0.245625
O O4 0.601421 0.177027 0.331552
O O5 0.107076 0.738547 0.500000
O O6 0.162403 0.837598 0.431323
O O7 0.105972 0.689487 0.402927
O O8 0.000000 0.795383 0.436730
O O9 0.704262 0.704262 0.824394
O O10 0.597662 0.834111 0.843028
O O11 0.716610 0.848878 0.781140
O O12 0.834825 0.834825 0.921473
O O13 0.889801 0.674232 0.920299
O O14 0.000000 0.792894 0.925017
O O15 0.901712 0.768090 0.000000
O O16 0.500000 0.895991 0.088728
O O17 0.402407 0.000000 0.132466
O O18 0.095592 0.269668 0.308361
O O19 0.000000 0.384883 0.343270
O O20 0.135776 0.864225 0.257294
O O21 0.224144 0.000000 0.235156
#
# Coordination Sequence:
#
# PCOD9561734 Si02
#       7
#    16  16  16  16  16  16  16
#     4  10  20  33  50  71  94 120 150 186 228 274
#     4   9  16  25  39  60  87 120 155 190 228 270
#     4   9  17  30  46  63  86 116 149 185 224 266
#     4   9  18  32  49  69  93 122 156 192 229 268
#     4  10  19  29  44  67  94 123 153 187 227 270
#     4   9  17  30  46  64  88 116 148 185 224 267
#     4   9  16  25  38  56  81 115 151 187 225 263
#
# _framework density 16.490074
#
# number of rings (size 3 to 8) (size 9 to 14) (size 15 to 20)
#    0.000    2.714    0.000    3.429    0.000    1.714 
#    0.000    2.857    0.000    3.000    0.000    4.000 
#    0.000    2.571    0.000    9.286    0.000    0.286 
#
# Total GULP energy -623493.826407 kJ/mol
# GULP energy per Si atom -5566.909164 kJ/mol
# Density = 1.645254 g / cm^3
# Si number density = 16.490074 Si / 1000 Ang^3
#
#
#
# Elastic Constant Matrix: (Units=GPa)
#
#
# Indices 1 2 3 4 5 6 
#
# 1 86.4368 53.1096 18.9382 0.0000 0.0000 0.0000
# 2 53.1096 86.4368 18.9382 0.0000 0.0000 0.0000
# 3 18.9382 18.9382 20.3518 0.0000 0.0000 0.0000
# 4 0.0000 0.0000 0.0000 6.0780 0.0000 0.0000
# 5 0.0000 0.0000 0.0000 0.0000 6.0780 0.0000
# 6 0.0000 0.0000 0.0000 0.0000 0.0000 11.1349
#
#
#
# Elastic Compliance Matrix: (Units=1/GPa)
#
#
# Indices 1 2 3 4 5 6 
#
# 1 0.019797 -0.010209 -0.008922 0.000000 0.000000 0.000000
# 2 -0.010209 0.019797 -0.008922 0.000000 0.000000 0.000000
# 3 -0.008922 -0.008922 0.065740 0.000000 0.000000 0.000000
# 4 0.000000 0.000000 0.000000 0.164528 0.000000 0.000000
# 5 0.000000 0.000000 0.000000 0.000000 0.164528 0.000000
# 6 0.000000 0.000000 0.000000 0.000000 0.000000 0.089808
#
#
# Mechanical properties :
#
#
# Convention : Reuss Voigt Hill
#
# Bulk Modulus (GPa) = 20.31357 41.68859 31.00108
# Shear Modulus (GPa) = 8.37926 11.47412 9.92669
#
# Velocity S-wave (km/s) = 2.25664 2.64070 2.45619
# Velocity P-wave (km/s) = 4.37439 5.88504 5.18502
#
# Compressibility (1/GPa) = 0.04922817
#
# Stress axis : x y z
#
# Youngs Moduli (GPa) = 50.51370 50.51370 15.21151
#
# Poissons Ratio (x) = 0.51569 0.13571
# Poissons Ratio (y) = 0.51569 0.13571
# Poissons Ratio (z) = 0.45067 0.45067
#
# Static dielectric constant tensor:
#      x y z
#    x 1.561390 0.000000 0.000000 
#    y 0.000000 1.561390 0.000000 
#    z 0.000000 0.000000 1.558320 
# 
# From -- ./inp_files/8176.got.cif
#   From: 2010.05.17/outbox.cif.g08.bks.cpg/sg123_5_cif.got.tgz:8176.got - 2010.05.20 11:43:04.
