data_PCOD9561094
_publ_section_title
;
Structure prediction by ZEFSAII (Michael W. Deem and Ramdas Pophale) SiO2 
 PCOD9561094
Probable space group: I -4 2 D
;
_chemical_formula_sum "Si O2"
_cell_formula_units_Z 112
_cell_length_a 15.366564
_cell_length_b 15.366564
_cell_length_c 20.486674
_cell_angle_alpha 90.000000
_cell_angle_beta 90.000000
_cell_angle_gamma 90.000000
_cell_volume 4837.544742
_symmetry_space_group_name_H-M "I -4 2 D"
_symmetry_group_IT_number 122
_symmetry_cell_setting 'tetragonal'
loop_
_space_group_symop_operation_xyz
x,y,z
y,-x,-z
-x,-y,z
-y,x,-z
x,1/2-y,1/4-z
-x,1/2+y,1/4-z
-y,1/2-x,1/4+z
y,1/2+x,1/4+z
1/2+x,1/2+y,1/2+z
1/2+y,1/2-x,1/2-z
1/2-x,1/2-y,1/2+z
1/2-y,1/2+x,1/2-z
1/2+x,-y,3/4-z
1/2-x,y,3/4-z
1/2-y,-x,3/4+z
1/2+y,x,3/4+z
loop_
_atom_site_type_symbol
_atom_site_label
_atom_site_fract_x
_atom_site_fract_y
_atom_site_fract_z
Si Si1 0.090503 0.649376 0.897955
Si Si2 0.405569 0.403542 0.487398
Si Si3 0.201255 0.358337 0.948455
Si Si4 0.718859 0.784799 0.691962
Si Si5 0.068211 0.624867 0.752186
Si Si6 0.904980 0.013809 0.239584
Si Si7 0.268924 0.576917 0.628049
O O1 0.178197 0.687731 0.927338
O O2 0.111798 0.633017 0.822708
O O3 0.009595 0.716038 0.892194
O O4 0.071232 0.572006 0.947237
O O5 0.392964 0.504190 0.474473
O O6 0.332223 0.368127 0.533690
O O7 0.407070 0.345393 0.423657
O O8 0.156230 0.301546 0.888266
O O9 0.217912 0.285137 0.002113
O O10 0.292322 0.415763 0.954720
O O11 0.131654 0.424405 0.979867
O O12 0.679328 0.750000 0.625000
O O13 0.107443 0.533055 0.728358
O O14 0.826428 0.055949 0.194310
O O15 0.000000 0.000000 0.204838
#
# Coordination Sequence:
#
# PCOD9561094 Si02
#       7
#    16  16  16  16  16  16  16
#     4  12  25  49  74 110 158 202 268 325 405 503
#     4  10  22  39  66 102 144 194 249 320 390 477
#     4  11  25  47  76 115 158 209 268 340 406 488
#     4  11  22  42  73  98 144 204 257 324 397 486
#     4  11  27  50  82 114 156 212 271 347 416 485
#     4  12  27  46  82 116 162 221 262 340 420 487
#     4  11  24  47  74 114 157 200 278 324 392 505
#
# _framework density 23.152239000000002
#
# number of rings (size 3 to 8) (size 9 to 14) (size 15 to 20)
#    0.000    0.857    5.714    0.000    6.000    0.000 
#    0.000    9.286    0.000    0.000    0.000    0.000 
#    0.000    0.000    0.000    0.000    0.000    0.000 
#
# Total GULP energy -312115.410582 kJ/mol
# GULP energy per Si atom -5573.489475 kJ/mol
# Density = 2.309954 g / cm^3
# Si number density = 23.152239 Si / 1000 Ang^3
#
#
#
# Elastic Constant Matrix: (Units=GPa)
#
#
# Indices 1 2 3 4 5 6 
#
# 1 104.4373 53.4078 20.7080 0.0000 0.0000 0.0000
# 2 53.4078 104.4373 20.7080 0.0000 0.0000 0.0000
# 3 20.7080 20.7080 58.8617 0.0000 0.0000 0.0000
# 4 0.0000 0.0000 0.0000 30.7694 0.0000 0.0000
# 5 0.0000 0.0000 0.0000 0.0000 30.7694 0.0000
# 6 0.0000 0.0000 0.0000 0.0000 0.0000 63.7772
#
#
#
# Elastic Compliance Matrix: (Units=1/GPa)
#
#
# Indices 1 2 3 4 5 6 
#
# 1 0.013288 -0.006308 -0.002455 0.000000 0.000000 0.000000
# 2 -0.006308 0.013288 -0.002455 0.000000 0.000000 0.000000
# 3 -0.002455 -0.002455 0.018717 0.000000 0.000000 0.000000
# 4 0.000000 0.000000 0.000000 0.032500 0.000000 0.000000
# 5 0.000000 0.000000 0.000000 0.000000 0.032500 0.000000
# 6 0.000000 0.000000 0.000000 0.000000 0.000000 0.015680
#
#
# Mechanical properties :
#
#
# Convention : Reuss Voigt Hill
#
# Bulk Modulus (GPa) = 43.75602 50.82042 47.28822
# Shear Modulus (GPa) = 32.04535 36.59070 34.31803
#
# Velocity S-wave (km/s) = 3.72441 3.97979 3.85421
# Velocity P-wave (km/s) = 6.11843 6.56631 6.34632
#
# Compressibility (1/GPa) = 0.02285400
#
# Stress axis : x y z
#
# Youngs Moduli (GPa) = 75.25556 75.25556 53.42824
#
# Poissons Ratio (x) = 0.47475 0.13119
# Poissons Ratio (y) = 0.47475 0.13119
# Poissons Ratio (z) = 0.18479 0.18479
#
# Static dielectric constant tensor:
#      x y z
#    x 1.909730 0.000000 0.000000 
#    y 0.000000 1.909730 0.000000 
#    z 0.000000 0.000000 1.814670 
# 
# From -- ./inp_files/8102.got.cif
#   From: 2010.05.17/outbox.cif.g08.bks.cpg/sg122_5_cif.got.tgz:8102.got - 2010.05.20 11:37:33.
