data_PCOD9561374
_publ_section_title
;
Structure prediction by ZEFSAII (Michael W. Deem and Ramdas Pophale) SiO2 
 PCOD9561374
Probable space group: I -4 2 D
;
_chemical_formula_sum "Si O2"
_cell_formula_units_Z 96
_cell_length_a 22.738205
_cell_length_b 22.738205
_cell_length_c 9.095927
_cell_angle_alpha 90.000000
_cell_angle_beta 90.000000
_cell_angle_gamma 90.000000
_cell_volume 4702.830449
_symmetry_space_group_name_H-M "I -4 2 D"
_symmetry_group_IT_number 122
_symmetry_cell_setting 'tetragonal'
loop_
_space_group_symop_operation_xyz
x,y,z
y,-x,-z
-x,-y,z
-y,x,-z
x,1/2-y,1/4-z
-x,1/2+y,1/4-z
-y,1/2-x,1/4+z
y,1/2+x,1/4+z
1/2+x,1/2+y,1/2+z
1/2+y,1/2-x,1/2-z
1/2-x,1/2-y,1/2+z
1/2-y,1/2+x,1/2-z
1/2+x,-y,3/4-z
1/2-x,y,3/4-z
1/2-y,-x,3/4+z
1/2+y,x,3/4+z
loop_
_atom_site_type_symbol
_atom_site_label
_atom_site_fract_x
_atom_site_fract_y
_atom_site_fract_z
Si Si1 0.517443 0.073669 0.650880
Si Si2 0.312256 0.616811 0.414232
Si Si3 0.517089 0.779540 0.895715
Si Si4 0.421158 0.408928 0.829858
Si Si5 0.014129 0.159470 0.568121
Si Si6 0.687380 0.914675 0.796841
O O1 0.471903 0.067366 0.790756
O O2 0.475390 0.062721 0.512317
O O3 0.548148 0.135748 0.624671
O O4 0.250000 0.645686 0.375000
O O5 0.291463 0.559747 0.508233
O O6 0.354598 0.599273 0.276503
O O7 0.352013 0.659996 0.510600
O O8 0.453202 0.802550 0.849253
O O9 0.507799 0.713206 0.952763
O O10 0.542510 0.814203 0.034883
O O11 0.371071 0.454820 0.874621
O O12 0.446255 0.386385 0.983259
O O13 0.750000 0.912731 0.875000
#
# Coordination Sequence:
#
# PCOD9561374 Si02
#       6
#    16  16  16  16  16  16
#     4  11  22  39  69 105 146 186 237 298 351 437
#     4  12  24  47  76  99 138 195 256 294 347 440
#     4  11  22  44  70 101 138 187 244 292 365 429
#     4  12  24  44  65 106 146 188 228 291 361 437
#     4  11  26  41  64 103 149 184 223 295 370 431
#     4  12  23  41  73 108 131 183 252 304 351 420
#
# _framework density 20.413239000000001
#
# number of rings (size 3 to 8) (size 9 to 14) (size 15 to 20)
#    0.000    0.500    6.667    1.500    0.000    7.000 
#    0.000    1.667    3.667    0.000    0.000    0.000 
#    0.000    0.000    0.000    0.000    0.000    0.000 
#
# Total GULP energy -267816.886118 kJ/mol
# GULP energy per Si atom -5579.518461 kJ/mol
# Density = 2.036678 g / cm^3
# Si number density = 20.413239 Si / 1000 Ang^3
#
#
#
# Elastic Constant Matrix: (Units=GPa)
#
#
# Indices 1 2 3 4 5 6 
#
# 1 117.4095 52.5030 45.9371 0.0000 0.0000 0.0000
# 2 52.5030 117.4095 45.9371 0.0000 0.0000 0.0000
# 3 45.9371 45.9371 82.1312 0.0000 0.0000 0.0000
# 4 0.0000 0.0000 0.0000 38.9554 0.0000 0.0000
# 5 0.0000 0.0000 0.0000 0.0000 38.9554 0.0000
# 6 0.0000 0.0000 0.0000 0.0000 0.0000 20.3122
#
#
#
# Elastic Compliance Matrix: (Units=1/GPa)
#
#
# Indices 1 2 3 4 5 6 
#
# 1 0.011922 -0.003485 -0.004719 0.000000 0.000000 0.000000
# 2 -0.003485 0.011922 -0.004719 0.000000 0.000000 0.000000
# 3 -0.004719 -0.004719 0.017454 0.000000 0.000000 0.000000
# 4 0.000000 0.000000 0.000000 0.025670 0.000000 0.000000
# 5 0.000000 0.000000 0.000000 0.000000 0.025670 0.000000
# 6 0.000000 0.000000 0.000000 0.000000 0.000000 0.049232
#
#
# Mechanical properties :
#
#
# Convention : Reuss Voigt Hill
#
# Bulk Modulus (GPa) = 64.71387 67.30049 66.00718
# Shear Modulus (GPa) = 28.92402 31.14948 30.03675
#
# Velocity S-wave (km/s) = 3.76829 3.91057 3.84009
# Velocity P-wave (km/s) = 7.12068 7.30963 7.21577
#
# Compressibility (1/GPa) = 0.01545264
#
# Stress axis : x y z
#
# Youngs Moduli (GPa) = 83.87948 83.87948 57.29241
#
# Poissons Ratio (x) = 0.29231 0.27036
# Poissons Ratio (y) = 0.29231 0.27036
# Poissons Ratio (z) = 0.39582 0.39582
#
# Static dielectric constant tensor:
#      x y z
#    x 1.789750 0.000000 0.000000 
#    y 0.000000 1.789750 0.000000 
#    z 0.000000 0.000000 1.743920 
# 
# From -- ./inp_files/2906.got.cif
#   From: 2010.05.17/outbox.cif.g08.bks.cpg/sg122_2_cif.got.tgz:2906.got - 2010.05.20 11:37:33.
