data_PCOD9561165
_publ_section_title
;
Structure prediction by ZEFSAII (Michael W. Deem and Ramdas Pophale) SiO2 
 PCOD9561165
Probable space group: I -4 2 D
;
_chemical_formula_sum "Si O2"
_cell_formula_units_Z 60
_cell_length_a 11.333018
_cell_length_b 11.333018
_cell_length_c 22.373445
_cell_angle_alpha 90.000000
_cell_angle_beta 90.000000
_cell_angle_gamma 90.000000
_cell_volume 2873.584800
_symmetry_space_group_name_H-M "I -4 2 D"
_symmetry_group_IT_number 122
_symmetry_cell_setting 'tetragonal'
loop_
_space_group_symop_operation_xyz
x,y,z
y,-x,-z
-x,-y,z
-y,x,-z
x,1/2-y,1/4-z
-x,1/2+y,1/4-z
-y,1/2-x,1/4+z
y,1/2+x,1/4+z
1/2+x,1/2+y,1/2+z
1/2+y,1/2-x,1/2-z
1/2-x,1/2-y,1/2+z
1/2-y,1/2+x,1/2-z
1/2+x,-y,3/4-z
1/2-x,y,3/4-z
1/2-y,-x,3/4+z
1/2+y,x,3/4+z
loop_
_atom_site_type_symbol
_atom_site_label
_atom_site_fract_x
_atom_site_fract_y
_atom_site_fract_z
Si Si1 0.500000 0.000000 0.250000
Si Si2 0.462537 0.735442 0.222785
Si Si3 0.376102 0.689908 0.729621
Si Si4 0.274504 0.645602 0.305217
Si Si5 0.750000 0.788547 0.375000
O O1 0.514369 0.124498 0.214845
O O2 0.580129 0.660754 0.229490
O O3 0.386835 0.721100 0.283344
O O4 0.377546 0.687056 0.170808
O O5 0.510888 0.697377 0.711253
O O6 0.333512 0.805315 0.765533
O O7 0.296478 0.678949 0.669537
O O8 0.250000 0.657604 0.375000
#
# Coordination Sequence:
#
# PCOD9561165 Si02
#       5
#     4  16  16  16   8
#     4  12  20  44  68  96 140 168 232 292 336 418
#     4  11  24  44  71 103 139 181 229 293 354 407
#     4  11  24  46  67 107 137 183 236 284 355 419
#     4  11  25  45  72 100 139 184 235 284 350 426
#     4  10  22  44  70  96 146 174 228 296 338 420
#
# _framework density 20.879843999999999
#
# number of rings (size 3 to 8) (size 9 to 14) (size 15 to 20)
#    0.000    1.067    6.667    0.800    1.867    4.800 
#   14.400    0.000    0.000    0.000    0.000    0.000 
#    0.000    0.000    0.000    0.000    0.000    0.000 
#
# Total GULP energy -167407.481404 kJ/mol
# GULP energy per Si atom -5580.249380 kJ/mol
# Density = 2.083232 g / cm^3
# Si number density = 20.879844 Si / 1000 Ang^3
#
#
#
# Elastic Constant Matrix: (Units=GPa)
#
#
# Indices 1 2 3 4 5 6 
#
# 1 113.9455 27.9472 47.2124 0.0000 0.0000 0.0000
# 2 27.9472 113.9455 47.2124 0.0000 0.0000 0.0000
# 3 47.2124 47.2124 104.0403 0.0000 0.0000 0.0000
# 4 0.0000 0.0000 0.0000 17.6750 0.0000 0.0000
# 5 0.0000 0.0000 0.0000 0.0000 17.6750 0.0000
# 6 0.0000 0.0000 0.0000 0.0000 0.0000 21.3798
#
#
#
# Elastic Compliance Matrix: (Units=1/GPa)
#
#
# Indices 1 2 3 4 5 6 
#
# 1 0.010862 -0.000766 -0.004582 0.000000 0.000000 0.000000
# 2 -0.000766 0.010862 -0.004582 0.000000 0.000000 0.000000
# 3 -0.004582 -0.004582 0.013770 0.000000 0.000000 0.000000
# 4 0.000000 0.000000 0.000000 0.056577 0.000000 0.000000
# 5 0.000000 0.000000 0.000000 0.000000 0.056577 0.000000
# 6 0.000000 0.000000 0.000000 0.000000 0.000000 0.046773
#
#
# Mechanical properties :
#
#
# Convention : Reuss Voigt Hill
#
# Bulk Modulus (GPa) = 63.95423 64.07506 64.01464
# Shear Modulus (GPa) = 22.67651 25.31657 23.99654
#
# Velocity S-wave (km/s) = 3.29910 3.48586 3.39376
# Velocity P-wave (km/s) = 6.72371 6.85243 6.78837
#
# Compressibility (1/GPa) = 0.01563618
#
# Stress axis : x y z
#
# Youngs Moduli (GPa) = 92.06117 92.06117 72.62201
#
# Poissons Ratio (x) = 0.07050 0.33273
# Poissons Ratio (y) = 0.07050 0.33273
# Poissons Ratio (z) = 0.42180 0.42180
#
# Static dielectric constant tensor:
#      x y z
#    x 1.768080 0.000000 0.000000 
#    y 0.000000 1.768080 0.000000 
#    z 0.000000 0.000000 1.772430 
# 
# From -- ./inp_files/6969.got.cif
#   From: 2010.05.17/outbox.cif.g08.bks.cpg/sg122_4_cif.got.tgz:6969.got - 2010.05.20 11:37:33.
