data_PCOD9561283
_publ_section_title
;
Structure prediction by ZEFSAII (Michael W. Deem and Ramdas Pophale) SiO2 
 PCOD9561283
Probable space group: I -4 2 D
;
_chemical_formula_sum "Si O2"
_cell_formula_units_Z 64
_cell_length_a 13.559433
_cell_length_b 13.559433
_cell_length_c 16.240335
_cell_angle_alpha 90.000000
_cell_angle_beta 90.000000
_cell_angle_gamma 90.000000
_cell_volume 2985.919139
_symmetry_space_group_name_H-M "I -4 2 D"
_symmetry_group_IT_number 122
_symmetry_cell_setting 'tetragonal'
loop_
_space_group_symop_operation_xyz
x,y,z
y,-x,-z
-x,-y,z
-y,x,-z
x,1/2-y,1/4-z
-x,1/2+y,1/4-z
-y,1/2-x,1/4+z
y,1/2+x,1/4+z
1/2+x,1/2+y,1/2+z
1/2+y,1/2-x,1/2-z
1/2-x,1/2-y,1/2+z
1/2-y,1/2+x,1/2-z
1/2+x,-y,3/4-z
1/2-x,y,3/4-z
1/2-y,-x,3/4+z
1/2+y,x,3/4+z
loop_
_atom_site_type_symbol
_atom_site_label
_atom_site_fract_x
_atom_site_fract_y
_atom_site_fract_z
Si Si1 0.551886 0.723751 0.750334
Si Si2 0.748385 0.452802 0.679629
Si Si3 0.241695 0.156187 0.473614
Si Si4 0.537034 0.394092 0.607495
O O1 0.523536 0.696566 0.843371
O O2 0.671123 0.731227 0.749393
O O3 0.525512 0.639628 0.686112
O O4 0.490439 0.816336 0.714166
O O5 0.740083 0.553112 0.730438
O O6 0.800553 0.367945 0.733296
O O7 0.648063 0.405067 0.641505
O O8 0.250000 0.142489 0.375000
O O9 0.500000 0.500000 0.583911
#
# Coordination Sequence:
#
# PCOD9561283 Si02
#       4
#    16  16  16  16
#     4  10  25  42  66 102 141 176 235 292 359 435
#     4  11  25  44  71  99 139 193 236 294 361 430
#     4  10  24  48  66 100 140 181 242 293 352 434
#     4  11  24  42  69 105 140 181 231 299 364 431
#
# _framework density 21.433935000000002
#
# number of rings (size 3 to 8) (size 9 to 14) (size 15 to 20)
#    0.000    1.500    2.500    0.000   14.000    2.500 
#    4.500    0.000    0.000    0.000    0.000    0.000 
#    0.000    0.000    0.000    0.000    0.000    0.000 
#
# Total GULP energy -178585.692405 kJ/mol
# GULP energy per Si atom -5580.802888 kJ/mol
# Density = 2.138515 g / cm^3
# Si number density = 21.433935 Si / 1000 Ang^3
#
#
#
# Elastic Constant Matrix: (Units=GPa)
#
#
# Indices 1 2 3 4 5 6 
#
# 1 116.1118 63.3416 29.6539 0.0000 0.0000 0.0000
# 2 63.3416 116.1118 29.6539 0.0000 0.0000 0.0000
# 3 29.6539 29.6539 69.4532 0.0000 0.0000 0.0000
# 4 0.0000 0.0000 0.0000 26.6843 0.0000 0.0000
# 5 0.0000 0.0000 0.0000 0.0000 26.6843 0.0000
# 6 0.0000 0.0000 0.0000 0.0000 0.0000 32.0583
#
#
#
# Elastic Compliance Matrix: (Units=1/GPa)
#
#
# Indices 1 2 3 4 5 6 
#
# 1 0.012719 -0.006231 -0.002770 0.000000 0.000000 0.000000
# 2 -0.006231 0.012719 -0.002770 0.000000 0.000000 0.000000
# 3 -0.002770 -0.002770 0.016764 0.000000 0.000000 0.000000
# 4 0.000000 0.000000 0.000000 0.037475 0.000000 0.000000
# 5 0.000000 0.000000 0.000000 0.000000 0.037475 0.000000
# 6 0.000000 0.000000 0.000000 0.000000 0.000000 0.031193
#
#
# Mechanical properties :
#
#
# Convention : Reuss Voigt Hill
#
# Bulk Modulus (GPa) = 53.59307 60.77507 57.18407
# Shear Modulus (GPa) = 28.07289 29.02053 28.54671
#
# Velocity S-wave (km/s) = 3.62296 3.68360 3.65341
# Velocity P-wave (km/s) = 6.52374 6.81968 6.67335
#
# Compressibility (1/GPa) = 0.01865913
#
# Stress axis : x y z
#
# Youngs Moduli (GPa) = 78.62225 78.62225 59.65285
#
# Poissons Ratio (x) = 0.48990 0.16525
# Poissons Ratio (y) = 0.48990 0.16525
# Poissons Ratio (z) = 0.21779 0.21779
#
# Static dielectric constant tensor:
#      x y z
#    x 1.867670 0.000000 0.000000 
#    y 0.000000 1.867670 0.000000 
#    z 0.000000 0.000000 1.777330 
# 
# From -- ./inp_files/5142.got.cif
#   From: 2010.05.17/outbox.cif.g08.bks.cpg/sg122_3_cif.got.tgz:5142.got - 2010.05.20 11:37:33.
