data_PCOD9561758
_publ_section_title
;
Structure prediction by ZEFSAII (Michael W. Deem and Ramdas Pophale) SiO2 
 PCOD9561758
Probable space group: P 4/M M M
;
_chemical_formula_sum "Si O2"
_cell_formula_units_Z 96
_cell_length_a 14.570977
_cell_length_b 14.570977
_cell_length_c 30.897264
_cell_angle_alpha 90.000000
_cell_angle_beta 90.000000
_cell_angle_gamma 90.000000
_cell_volume 6559.902266
_symmetry_space_group_name_H-M "P 4/M M M"
_symmetry_group_IT_number 123
_symmetry_cell_setting 'tetragonal'
loop_
_space_group_symop_operation_xyz
x,y,z
-y,x,z
-x,-y,z
y,-x,z
x,-y,-z
-x,y,-z
y,x,-z
-y,-x,-z
-x,-y,-z
y,-x,-z
x,y,-z
-y,x,-z
-x,y,z
x,-y,z
-y,-x,z
y,x,z
loop_
_atom_site_type_symbol
_atom_site_label
_atom_site_fract_x
_atom_site_fract_y
_atom_site_fract_z
Si Si1 0.106863 0.393231 0.581835
Si Si2 0.260321 0.108354 0.076616
Si Si3 0.738318 0.892148 0.500000
Si Si4 0.106230 0.608752 0.744343
Si Si5 0.238085 0.608800 0.663928
Si Si6 0.395822 0.888718 0.000000
Si Si7 0.106836 0.258785 0.823861
O O1 0.117625 0.500000 0.568176
O O2 0.124030 0.325024 0.542142
O O3 0.174944 0.376306 0.621611
O O4 0.000000 0.382615 0.595437
O O5 0.170336 0.170336 0.070143
O O6 0.291013 0.120163 0.126522
O O7 0.240563 0.000000 0.070073
O O8 0.337951 0.136884 0.042496
O O9 0.824758 0.824758 0.500000
O O10 0.764586 0.000000 0.500000
O O11 0.112893 0.500000 0.752534
O O12 0.175761 0.631457 0.705769
O O13 0.126075 0.664794 0.787880
O O14 0.000000 0.627652 0.731595
O O15 0.260530 0.500000 0.665661
O O16 0.326791 0.673210 0.662649
O O17 0.500000 0.854053 0.000000
O O18 0.400301 0.000000 0.000000
O O19 0.172679 0.172679 0.816875
O O20 0.000000 0.232401 0.819869
#
# Coordination Sequence:
#
# PCOD9561758 Si02
#       7
#    16  16   8  16  16   8  16
#     4   9  17  30  48  68  87 108 139 179 218 251
#     4   9  17  28  42  61  85 112 140 169 202 243
#     4  10  19  30  45  65  90 118 145 173 206 247
#     4   9  17  29  45  64  84 108 141 179 215 248
#     4  10  19  30  45  64  87 114 141 172 211 255
#     4   9  17  28  41  57  79 107 137 169 205 242
#     4   9  17  28  42  61  85 112 140 170 204 244
#
# _framework density 14.634365000000001
#
# number of rings (size 3 to 8) (size 9 to 14) (size 15 to 20)
#    0.000    2.750    0.000    2.000    0.000    4.250 
#    0.000    5.000    0.000    1.500    0.000    0.000 
#    0.000   20.667    0.000   12.333    0.000    1.000 
#
# Total GULP energy -534732.191215 kJ/mol
# GULP energy per Si atom -5570.126992 kJ/mol
# Density = 1.460106 g / cm^3
# Si number density = 14.634365 Si / 1000 Ang^3
#
#
#
# Elastic Constant Matrix: (Units=GPa)
#
#
# Indices 1 2 3 4 5 6 
#
# 1 82.4380 65.8356 71.2880 0.0000 0.0000 0.0000
# 2 65.8356 82.4380 71.2880 0.0000 0.0000 0.0000
# 3 71.2880 71.2880 110.1752 0.0000 0.0000 0.0000
# 4 0.0000 0.0000 0.0000 20.8297 0.0000 0.0000
# 5 0.0000 0.0000 0.0000 0.0000 20.8297 0.0000
# 6 0.0000 0.0000 0.0000 0.0000 0.0000 25.1372
#
#
#
# Elastic Compliance Matrix: (Units=1/GPa)
#
#
# Indices 1 2 3 4 5 6 
#
# 1 0.039041 -0.021191 -0.011550 0.000000 0.000000 0.000000
# 2 -0.021191 0.039041 -0.011550 0.000000 0.000000 0.000000
# 3 -0.011550 -0.011550 0.024023 0.000000 0.000000 0.000000
# 4 0.000000 0.000000 0.000000 0.048008 0.000000 0.000000
# 5 0.000000 0.000000 0.000000 0.000000 0.048008 0.000000
# 6 0.000000 0.000000 0.000000 0.000000 0.000000 0.039782
#
#
# Mechanical properties :
#
#
# Convention : Reuss Voigt Hill
#
# Bulk Modulus (GPa) = 73.94234 76.87494 75.40864
# Shear Modulus (GPa) = 15.10599 17.80194 16.45397
#
# Velocity S-wave (km/s) = 3.21632 3.49154 3.35675
# Velocity P-wave (km/s) = 8.02677 8.30054 8.16481
#
# Compressibility (1/GPa) = 0.01352405
#
# Stress axis : x y z
#
# Youngs Moduli (GPa) = 25.61384 25.61384 41.62654
#
# Poissons Ratio (x) = 0.54278 0.48079
# Poissons Ratio (y) = 0.54278 0.48079
# Poissons Ratio (z) = 0.29584 0.29584
#
# Static dielectric constant tensor:
#      x y z
#    x 1.463740 0.000000 0.000000 
#    y 0.000000 1.463740 0.000000 
#    z 0.000000 0.000000 1.483700 
# 
# From -- ./inp_files/8664.got.cif
#   From: 2010.05.17/outbox.cif.g08.bks.cpg/sg123_5_cif.got.tgz:8664.got - 2010.05.20 11:43:04.
