data_PCOD9561706
_publ_section_title
;
Structure prediction by ZEFSAII (Michael W. Deem and Ramdas Pophale) SiO2 
 PCOD9561706
Probable space group: P 4/M M M
;
_chemical_formula_sum "Si O2"
_cell_formula_units_Z 104
_cell_length_a 20.688948
_cell_length_b 20.688948
_cell_length_c 16.240602
_cell_angle_alpha 90.000000
_cell_angle_beta 90.000000
_cell_angle_gamma 90.000000
_cell_volume 6951.506602
_symmetry_space_group_name_H-M "P 4/M M M"
_symmetry_group_IT_number 123
_symmetry_cell_setting 'tetragonal'
loop_
_space_group_symop_operation_xyz
x,y,z
-y,x,z
-x,-y,z
y,-x,z
x,-y,-z
-x,y,-z
y,x,-z
-y,-x,-z
-x,-y,-z
y,-x,-z
x,y,-z
-y,x,-z
-x,y,z
x,-y,z
-y,-x,z
y,x,z
loop_
_atom_site_type_symbol
_atom_site_label
_atom_site_fract_x
_atom_site_fract_y
_atom_site_fract_z
Si Si1 0.875783 0.227059 0.692705
Si Si2 0.679700 0.783071 0.402123
Si Si3 0.628484 0.000000 0.405409
Si Si4 0.868226 0.573470 0.672180
Si Si5 0.077683 0.570663 0.854287
Si Si6 0.215400 0.000000 0.595870
Si Si7 0.077292 0.713165 0.140451
Si Si8 0.184731 0.922059 0.000000
O O1 0.828054 0.171947 0.724224
O O2 0.837365 0.268446 0.624725
O O3 0.894628 0.272650 0.769123
O O4 0.937026 0.196448 0.647275
O O5 0.668970 0.785228 0.500000
O O6 0.714724 0.714724 0.381616
O O7 0.616090 0.806797 0.354516
O O8 0.602687 0.065613 0.365050
O O9 0.608212 0.000000 0.500000
O O10 0.706083 0.000000 0.401581
O O11 0.860701 0.500000 0.642962
O O12 0.882456 0.571719 0.769440
O O13 0.089814 0.500000 0.894602
O O14 0.092579 0.640890 0.892726
O O15 0.000000 0.571572 0.836964
O O16 0.195758 0.000000 0.500000
O O17 0.000000 0.715648 0.149229
O O18 0.094956 0.770337 0.078347
O O19 0.119682 0.880319 0.000000
O O20 0.173740 0.000000 0.000000
#
# Coordination Sequence:
#
# PCOD9561706 Si02
#       8
#    16  16   8  16  16   8  16   8
#     4  11  20  31  48  65  84 117 155 191 236 281
#     4  10  20  31  41  59  89 122 157 192 224 267
#     4  11  19  26  35  56  88 116 144 182 224 263
#     4  11  19  28  42  62  88 119 153 187 226 269
#     4   9  16  27  44  66  94 124 149 176 214 263
#     4  11  20  31  46  63  87 115 152 197 232 276
#     4  10  18  33  52  70  92 115 145 185 230 283
#     4  10  22  37  55  77  95 113 147 201 256 298
#
# _framework density 14.960785
#
# number of rings (size 3 to 8) (size 9 to 14) (size 15 to 20)
#    0.000    1.692    4.615    1.615    0.000    2.538 
#    0.000    0.385    0.000    2.538    0.000    0.538 
#    0.000    0.308    0.000    1.692    0.000    0.000 
#
# Total GULP energy -579300.001884 kJ/mol
# GULP energy per Si atom -5570.192326 kJ/mol
# Density = 1.492673 g / cm^3
# Si number density = 14.960785 Si / 1000 Ang^3
#
#
#
# Elastic Constant Matrix: (Units=GPa)
#
#
# Indices 1 2 3 4 5 6 
#
# 1 64.3002 28.5511 12.6653 0.0000 0.0000 0.0000
# 2 28.5511 64.2966 12.6651 0.0000 0.0000 0.0000
# 3 12.6653 12.6651 36.9263 0.0000 0.0000 0.0000
# 4 0.0000 0.0000 0.0000 11.3818 0.0000 0.0000
# 5 0.0000 0.0000 0.0000 0.0000 11.3818 0.0000
# 6 0.0000 0.0000 0.0000 0.0000 0.0000 15.7105
#
#
#
# Elastic Compliance Matrix: (Units=1/GPa)
#
#
# Indices 1 2 3 4 5 6 
#
# 1 0.019927 -0.008046 -0.004075 0.000000 0.000000 0.000000
# 2 -0.008046 0.019929 -0.004075 0.000000 0.000000 0.000000
# 3 -0.004075 -0.004075 0.029877 0.000000 0.000000 0.000000
# 4 0.000000 0.000000 0.000000 0.087860 0.000000 0.000000
# 5 0.000000 0.000000 0.000000 0.000000 0.087859 0.000000
# 6 0.000000 0.000000 0.000000 0.000000 0.000000 0.063652
#
#
# Mechanical properties :
#
#
# Convention : Reuss Voigt Hill
#
# Bulk Modulus (GPa) = 26.78162 30.36513 28.57337
# Shear Modulus (GPa) = 14.12656 15.13760 14.63208
#
# Velocity S-wave (km/s) = 3.07618 3.18436 3.13074
# Velocity P-wave (km/s) = 5.52786 5.81900 5.67530
#
# Compressibility (1/GPa) = 0.03733905
#
# Stress axis : x y z
#
# Youngs Moduli (GPa) = 50.18208 50.17916 33.47111
#
# Poissons Ratio (x) = 0.40375 0.13640
# Poissons Ratio (y) = 0.40377 0.13641
# Poissons Ratio (z) = 0.20450 0.20450
#
# Static dielectric constant tensor:
#      x y z
#    x 1.508430 0.000000 0.000000 
#    y 0.000000 1.508430 0.000000 
#    z 0.000000 0.000000 1.518540 
# 
# From -- ./inp_files/4558.got.cif
#   From: 2010.05.17/outbox.cif.g08.bks.cpg/sg123_3_cif.got.tgz:4558.got - 2010.05.20 11:43:04.
