data_PCOD9561011
_publ_section_title
;
Structure prediction by ZEFSAII (Michael W. Deem and Ramdas Pophale) SiO2 
 PCOD9561011
Probable space group: I -4 2 D
;
_chemical_formula_sum "Si O2"
_cell_formula_units_Z 120
_cell_length_a 14.902080
_cell_length_b 14.902080
_cell_length_c 29.865335
_cell_angle_alpha 90.000000
_cell_angle_beta 90.000000
_cell_angle_gamma 90.000000
_cell_volume 6632.254325
_symmetry_space_group_name_H-M "I -4 2 D"
_symmetry_group_IT_number 122
_symmetry_cell_setting 'tetragonal'
loop_
_space_group_symop_operation_xyz
x,y,z
y,-x,-z
-x,-y,z
-y,x,-z
x,1/2-y,1/4-z
-x,1/2+y,1/4-z
-y,1/2-x,1/4+z
y,1/2+x,1/4+z
1/2+x,1/2+y,1/2+z
1/2+y,1/2-x,1/2-z
1/2-x,1/2-y,1/2+z
1/2-y,1/2+x,1/2-z
1/2+x,-y,3/4-z
1/2-x,y,3/4-z
1/2-y,-x,3/4+z
1/2+y,x,3/4+z
loop_
_atom_site_type_symbol
_atom_site_label
_atom_site_fract_x
_atom_site_fract_y
_atom_site_fract_z
Si Si1 0.565049 0.241441 0.287974
Si Si2 0.750000 0.110494 0.375000
Si Si3 0.750634 0.911172 0.639144
Si Si4 0.951982 0.910912 0.212868
Si Si5 0.854527 0.454068 0.363351
Si Si6 0.439130 0.614080 0.522986
Si Si7 0.227998 0.598879 0.777320
Si Si8 0.793207 0.912624 0.736021
O O1 0.540054 0.244435 0.341179
O O2 0.590472 0.345621 0.278189
O O3 0.480556 0.212926 0.257938
O O4 0.649248 0.174519 0.279205
O O5 0.831653 0.178346 0.367206
O O6 0.765519 0.060511 0.421767
O O7 0.650596 0.872889 0.647276
O O8 0.779440 0.952231 0.686220
O O9 0.969087 0.905784 0.159724
O O10 0.006963 0.830243 0.234165
O O11 0.000000 0.000000 0.230993
O O12 0.750000 0.465328 0.375000
O O13 0.881777 0.518745 0.322539
O O14 0.523102 0.611896 0.488370
O O15 0.383118 0.700338 0.509108
O O16 0.324415 0.644395 0.766410
#
# Coordination Sequence:
#
# PCOD9561011 Si02
#       8
#    16   8  16  16  16  16  16  16
#     4  10  22  39  64  88 113 151 195 248 300 351
#     4   8  16  32  60  84 106 144 194 248 272 346
#     4   9  18  33  58  82 110 149 197 236 285 341
#     4  11  23  37  58  87 119 154 195 241 290 348
#     4  11  20  34  56  82 111 154 199 236 284 341
#     4  11  24  35  50  83 117 157 191 237 285 336
#     4  10  21  39  62  89 115 147 198 245 302 349
#     4  11  21  37  58  82 120 153 196 239 283 348
#
# _framework density 18.093395000000001
#
# number of rings (size 3 to 8) (size 9 to 14) (size 15 to 20)
#    0.000    1.733    4.667    0.000    5.600    0.267 
#    0.000    1.333    0.000    1.600    0.000    0.000 
#    0.000    0.000    0.000    0.000    0.000    0.000 
#
# Total GULP energy -334288.241762 kJ/mol
# GULP energy per Si atom -5571.470696 kJ/mol
# Density = 1.805221 g / cm^3
# Si number density = 18.093395 Si / 1000 Ang^3
#
#
#
# Elastic Constant Matrix: (Units=GPa)
#
#
# Indices 1 2 3 4 5 6 
#
# 1 62.0057 13.4850 30.6235 0.0000 0.0000 0.0000
# 2 13.4850 62.0057 30.6235 0.0000 0.0000 0.0000
# 3 30.6235 30.6235 104.7828 0.0000 0.0000 0.0000
# 4 0.0000 0.0000 0.0000 25.6168 0.0000 0.0000
# 5 0.0000 0.0000 0.0000 0.0000 25.6168 0.0000
# 6 0.0000 0.0000 0.0000 0.0000 0.0000 97.5165
#
#
#
# Elastic Compliance Matrix: (Units=1/GPa)
#
#
# Indices 1 2 3 4 5 6 
#
# 1 0.018987 -0.001623 -0.005075 0.000000 0.000000 0.000000
# 2 -0.001623 0.018987 -0.005075 0.000000 0.000000 0.000000
# 3 -0.005075 -0.005075 0.012510 0.000000 0.000000 0.000000
# 4 0.000000 0.000000 0.000000 0.039037 0.000000 0.000000
# 5 0.000000 0.000000 0.000000 0.000000 0.039037 0.000000
# 6 0.000000 0.000000 0.000000 0.000000 0.000000 0.010255
#
#
# Mechanical properties :
#
#
# Convention : Reuss Voigt Hill
#
# Bulk Modulus (GPa) = 37.12133 42.02870 39.57501
# Shear Modulus (GPa) = 29.18239 40.02084 34.60161
#
# Velocity S-wave (km/s) = 4.02042 4.70819 4.37783
# Velocity P-wave (km/s) = 6.48943 7.26879 6.89014
#
# Compressibility (1/GPa) = 0.02693869
#
# Stress axis : x y z
#
# Youngs Moduli (GPa) = 52.66807 52.66807 79.93738
#
# Poissons Ratio (x) = 0.08548 0.40566
# Poissons Ratio (y) = 0.08548 0.40566
# Poissons Ratio (z) = 0.26728 0.26728
#
# Static dielectric constant tensor:
#      x y z
#    x 1.639830 0.000000 0.000000 
#    y 0.000000 1.639830 0.000000 
#    z 0.000000 0.000000 1.654840 
# 
# From -- ./inp_files/9732.got.cif
#   From: 2010.05.17/outbox.cif.g08.bks.cpg/sg122_5_cif.got.tgz:9732.got - 2010.05.20 11:37:33.
