data_PCOD9561398
_publ_section_title
;
Structure prediction by ZEFSAII (Michael W. Deem and Ramdas Pophale) SiO2 
 PCOD9561398
Probable space group: I -4 2 D
;
_chemical_formula_sum "Si O2"
_cell_formula_units_Z 52
_cell_length_a 21.879935
_cell_length_b 21.879935
_cell_length_c 4.812145
_cell_angle_alpha 90.000000
_cell_angle_beta 90.000000
_cell_angle_gamma 90.000000
_cell_volume 2303.725662
_symmetry_space_group_name_H-M "I -4 2 D"
_symmetry_group_IT_number 122
_symmetry_cell_setting 'tetragonal'
loop_
_space_group_symop_operation_xyz
x,y,z
y,-x,-z
-x,-y,z
-y,x,-z
x,1/2-y,1/4-z
-x,1/2+y,1/4-z
-y,1/2-x,1/4+z
y,1/2+x,1/4+z
1/2+x,1/2+y,1/2+z
1/2+y,1/2-x,1/2-z
1/2-x,1/2-y,1/2+z
1/2-y,1/2+x,1/2-z
1/2+x,-y,3/4-z
1/2-x,y,3/4-z
1/2-y,-x,3/4+z
1/2+y,x,3/4+z
loop_
_atom_site_type_symbol
_atom_site_label
_atom_site_fract_x
_atom_site_fract_y
_atom_site_fract_z
Si Si1 0.500000 0.000000 0.250000
Si Si2 0.896304 0.708641 0.901057
Si Si3 0.527062 0.315542 0.564274
Si Si4 0.618197 0.569954 0.938777
O O1 0.448596 0.043569 0.390335
O O2 0.904727 0.750000 0.625000
O O3 0.870537 0.641538 0.849984
O O4 0.860827 0.750000 0.125000
O O5 0.959654 0.691507 0.059514
O O6 0.557491 0.250000 0.625000
O O7 0.531522 0.333716 0.244314
O O8 0.558492 0.369319 0.737458
#
# Coordination Sequence:
#
# PCOD9561398 Si02
#       4
#     4  16  16  16
#     4  12  28  38  64 110 140 162 200 262 376 378
#     4  11  23  41  65  92 130 176 223 257 322 399
#     4  11  24  41  65  91 129 178 221 253 319 396
#     4  12  25  41  66  96 139 164 207 281 321 400
#
# _framework density 22.572129
#
# number of rings (size 3 to 8) (size 9 to 14) (size 15 to 20)
#    0.000    0.615    3.077    6.462    4.308    1.231 
#    0.000    0.000    0.000   18.462    0.000    0.000 
#    0.000    0.000    0.000    0.000    0.000    0.000 
#
# Total GULP energy -145050.521637 kJ/mol
# GULP energy per Si atom -5578.866217 kJ/mol
# Density = 2.252075 g / cm^3
# Si number density = 22.572129 Si / 1000 Ang^3
#
#
#
# Elastic Constant Matrix: (Units=GPa)
#
#
# Indices 1 2 3 4 5 6 
#
# 1 66.5429 -17.9779 0.9063 0.0000 0.0000 0.0000
# 2 -17.9779 66.5429 0.9063 0.0000 0.0000 0.0000
# 3 0.9063 0.9063 71.8770 0.0000 0.0000 0.0000
# 4 0.0000 0.0000 0.0000 26.3094 0.0000 0.0000
# 5 0.0000 0.0000 0.0000 0.0000 26.3094 0.0000
# 6 0.0000 0.0000 0.0000 0.0000 0.0000 11.9823
#
#
#
# Elastic Compliance Matrix: (Units=1/GPa)
#
#
# Indices 1 2 3 4 5 6 
#
# 1 0.016216 0.004385 -0.000260 0.000000 0.000000 0.000000
# 2 0.004385 0.016216 -0.000260 0.000000 0.000000 0.000000
# 3 -0.000260 -0.000260 0.013919 0.000000 0.000000 0.000000
# 4 0.000000 0.000000 0.000000 0.038009 0.000000 0.000000
# 5 0.000000 0.000000 0.000000 0.000000 0.038009 0.000000
# 6 0.000000 0.000000 0.000000 0.000000 0.000000 0.083457
#
#
# Mechanical properties :
#
#
# Convention : Reuss Voigt Hill
#
# Bulk Modulus (GPa) = 18.49061 19.18136 18.83598
# Shear Modulus (GPa) = 23.13494 27.66208 25.39851
#
# Velocity S-wave (km/s) = 3.20493 3.50451 3.35806
# Velocity P-wave (km/s) = 4.68028 4.98916 4.83718
#
# Compressibility (1/GPa) = 0.05408152
#
# Stress axis : x y z
#
# Youngs Moduli (GPa) = 61.66730 61.66730 71.84320
#
# Poissons Ratio (x) = -0.27039 0.01866
# Poissons Ratio (y) = -0.27039 0.01866
# Poissons Ratio (z) = 0.01602 0.01602
#
# Static dielectric constant tensor:
#      x y z
#    x 1.910240 0.000000 0.000000 
#    y 0.000000 1.910240 0.000000 
#    z 0.000000 0.000000 1.835330 
# 
# From -- ./inp_files/858.got.cif
#   From: 2010.05.17/outbox.cif.g08.bks.cpg/sg122_1_cif.got.tgz:858.got - 2010.05.20 11:37:33.
