data_PCOD9561315
_publ_section_title
;
Structure prediction by ZEFSAII (Michael W. Deem and Ramdas Pophale) SiO2 
 PCOD9561315
Probable space group: I -4 2 D
;
_chemical_formula_sum "Si O2"
_cell_formula_units_Z 48
_cell_length_a 8.066026
_cell_length_b 8.066026
_cell_length_c 26.525168
_cell_angle_alpha 90.000000
_cell_angle_beta 90.000000
_cell_angle_gamma 90.000000
_cell_volume 1725.747999
_symmetry_space_group_name_H-M "I -4 2 D"
_symmetry_group_IT_number 122
_symmetry_cell_setting 'tetragonal'
loop_
_space_group_symop_operation_xyz
x,y,z
y,-x,-z
-x,-y,z
-y,x,-z
x,1/2-y,1/4-z
-x,1/2+y,1/4-z
-y,1/2-x,1/4+z
y,1/2+x,1/4+z
1/2+x,1/2+y,1/2+z
1/2+y,1/2-x,1/2-z
1/2-x,1/2-y,1/2+z
1/2-y,1/2+x,1/2-z
1/2+x,-y,3/4-z
1/2-x,y,3/4-z
1/2-y,-x,3/4+z
1/2+y,x,3/4+z
loop_
_atom_site_type_symbol
_atom_site_label
_atom_site_fract_x
_atom_site_fract_y
_atom_site_fract_z
Si Si1 0.288056 0.116415 0.926240
Si Si2 0.891832 0.166768 0.418684
Si Si3 0.842703 0.122112 0.740799
O O1 0.250000 0.027147 0.875000
O O2 0.474204 0.182767 0.919543
O O3 0.243483 0.997474 0.971858
O O4 0.171342 0.273944 0.936626
O O5 0.750000 0.165357 0.375000
O O6 0.832281 0.203641 0.476821
O O7 0.000000 0.000000 0.415793
O O8 0.000000 0.000000 0.732912
#
# Coordination Sequence:
#
# PCOD9561315 Si02
#       3
#    16  16  16
#     4  11  26  48  79 113 157 214 278 344 421 506
#     4  11  26  47  77 112 157 210 274 342 420 505
#     4  10  26  49  78 114 165 211 272 346 427 500
#
# _framework density 27.814026999999999
#
# number of rings (size 3 to 8) (size 9 to 14) (size 15 to 20)
#    0.000    1.333    0.000    2.000   14.000    2.000 
#    0.000    1.667    0.000    0.000    0.000    0.000 
#    0.000    0.000    0.000    0.000    0.000    0.000 
#
# Total GULP energy -133985.183947 kJ/mol
# GULP energy per Si atom -5582.715998 kJ/mol
# Density = 2.775072 g / cm^3
# Si number density = 27.814027 Si / 1000 Ang^3
#
#
#
# Elastic Constant Matrix: (Units=GPa)
#
#
# Indices 1 2 3 4 5 6 
#
# 1 136.3571 70.7289 50.4057 0.0000 0.0000 0.0000
# 2 70.7289 136.3571 50.4057 0.0000 0.0000 0.0000
# 3 50.4057 50.4057 110.0992 0.0000 0.0000 0.0000
# 4 0.0000 0.0000 0.0000 44.2064 0.0000 0.0000
# 5 0.0000 0.0000 0.0000 0.0000 44.2064 0.0000
# 6 0.0000 0.0000 0.0000 0.0000 0.0000 38.2117
#
#
#
# Elastic Compliance Matrix: (Units=1/GPa)
#
#
# Indices 1 2 3 4 5 6 
#
# 1 0.010726 -0.004512 -0.002845 0.000000 0.000000 0.000000
# 2 -0.004512 0.010726 -0.002845 0.000000 0.000000 0.000000
# 3 -0.002845 -0.002845 0.011688 0.000000 0.000000 0.000000
# 4 0.000000 0.000000 0.000000 0.022621 0.000000 0.000000
# 5 0.000000 0.000000 0.000000 0.000000 0.022621 0.000000
# 6 0.000000 0.000000 0.000000 0.000000 0.000000 0.026170
#
#
# Mechanical properties :
#
#
# Convention : Reuss Voigt Hill
#
# Bulk Modulus (GPa) = 78.51818 80.65489 79.58653
# Shear Modulus (GPa) = 38.69998 39.40978 39.05488
#
# Velocity S-wave (km/s) = 3.73417 3.76826 3.75126
# Velocity P-wave (km/s) = 6.84712 6.92776 6.88756
#
# Compressibility (1/GPa) = 0.01273590
#
# Stress axis : x y z
#
# Youngs Moduli (GPa) = 93.23514 93.23514 85.56118
#
# Poissons Ratio (x) = 0.42066 0.24340
# Poissons Ratio (y) = 0.42066 0.24340
# Poissons Ratio (z) = 0.26524 0.26524
#
# Static dielectric constant tensor:
#      x y z
#    x 2.345510 0.000000 0.000000 
#    y 0.000000 2.345510 0.000000 
#    z 0.000000 0.000000 2.265920 
# 
# From -- ./inp_files/9104.got.cif
#   From: 2010.05.17/outbox.cif.g08.bks.cpg/sg122_5_cif.got.tgz:9104.got - 2010.05.20 11:37:33.
