data_PCOD9561096
_publ_section_title
;
Structure prediction by ZEFSAII (Michael W. Deem and Ramdas Pophale) SiO2 
 PCOD9561096
Probable space group: I -4 2 D
;
_chemical_formula_sum "Si O2"
_cell_formula_units_Z 56
_cell_length_a 9.836540
_cell_length_b 9.836540
_cell_length_c 23.948897
_cell_angle_alpha 90.000000
_cell_angle_beta 90.000000
_cell_angle_gamma 90.000000
_cell_volume 2317.235861
_symmetry_space_group_name_H-M "I -4 2 D"
_symmetry_group_IT_number 122
_symmetry_cell_setting 'tetragonal'
loop_
_space_group_symop_operation_xyz
x,y,z
y,-x,-z
-x,-y,z
-y,x,-z
x,1/2-y,1/4-z
-x,1/2+y,1/4-z
-y,1/2-x,1/4+z
y,1/2+x,1/4+z
1/2+x,1/2+y,1/2+z
1/2+y,1/2-x,1/2-z
1/2-x,1/2-y,1/2+z
1/2-y,1/2+x,1/2-z
1/2+x,-y,3/4-z
1/2-x,y,3/4-z
1/2-y,-x,3/4+z
1/2+y,x,3/4+z
loop_
_atom_site_type_symbol
_atom_site_label
_atom_site_fract_x
_atom_site_fract_y
_atom_site_fract_z
Si Si1 0.750000 0.504193 0.375000
Si Si2 0.660479 0.016843 0.990451
Si Si3 0.098064 0.741666 0.890639
Si Si4 0.916847 0.182590 0.475173
O O1 0.724212 0.561218 0.313220
O O2 0.877476 0.402539 0.365008
O O3 0.672966 0.181319 0.983367
O O4 0.500000 0.000000 0.988073
O O5 0.708811 0.965057 0.050279
O O6 0.250000 0.686194 0.875000
O O7 0.017692 0.690382 0.836741
O O8 0.045718 0.169385 0.515998
#
# Coordination Sequence:
#
# PCOD9561096 Si02
#       4
#     8  16  16  16
#     4   8  22  46  56  94 136 158 224 288 322 404
#     4  11  22  40  69  91 126 181 217 271 345 395
#     4   9  20  42  65  91 136 163 218 286 311 402
#     4  10  22  40  62 100 138 171 219 272 333 400
#
# _framework density 24.166723999999999
#
# number of rings (size 3 to 8) (size 9 to 14) (size 15 to 20)
#    0.857    1.429    0.000    1.714    4.000    1.143 
#   10.286    0.000    0.000    0.000    0.000    0.000 
#    0.000    0.000    0.000    0.000    0.000    0.000 
#
# Total GULP energy -156095.281159 kJ/mol
# GULP energy per Si atom -5574.831470 kJ/mol
# Density = 2.411172 g / cm^3
# Si number density = 24.166724 Si / 1000 Ang^3
#
#
#
# Elastic Constant Matrix: (Units=GPa)
#
#
# Indices 1 2 3 4 5 6 
#
# 1 64.9308 14.6619 44.4209 0.0000 0.0000 0.0000
# 2 14.6619 64.9308 44.4209 0.0000 0.0000 0.0000
# 3 44.4209 44.4209 277.9569 0.0000 0.0000 0.0000
# 4 0.0000 0.0000 0.0000 40.2503 0.0000 0.0000
# 5 0.0000 0.0000 0.0000 0.0000 40.2503 0.0000
# 6 0.0000 0.0000 0.0000 0.0000 0.0000 19.3931
#
#
#
# Elastic Compliance Matrix: (Units=1/GPa)
#
#
# Indices 1 2 3 4 5 6 
#
# 1 0.017592 -0.002301 -0.002444 0.000000 0.000000 0.000000
# 2 -0.002301 0.017592 -0.002444 0.000000 0.000000 0.000000
# 3 -0.002444 -0.002444 0.004379 0.000000 0.000000 0.000000
# 4 0.000000 0.000000 0.000000 0.024845 0.000000 0.000000
# 5 0.000000 0.000000 0.000000 0.000000 0.024845 0.000000
# 6 0.000000 0.000000 0.000000 0.000000 0.000000 0.051565
#
#
# Mechanical properties :
#
#
# Convention : Reuss Voigt Hill
#
# Bulk Modulus (GPa) = 39.70291 68.31399 54.00845
# Shear Modulus (GPa) = 30.56431 40.26640 35.41536
#
# Velocity S-wave (km/s) = 3.56016 4.08633 3.83229
# Velocity P-wave (km/s) = 5.77616 7.11290 6.47909
#
# Compressibility (1/GPa) = 0.02518707
#
# Stress axis : x y z
#
# Youngs Moduli (GPa) = 56.84272 56.84272 228.37405
#
# Poissons Ratio (x) = 0.13077 0.55810
# Poissons Ratio (y) = 0.13077 0.55810
# Poissons Ratio (z) = 0.13891 0.13891
#
# Static dielectric constant tensor:
#      x y z
#    x 2.008170 0.000000 0.000000 
#    y 0.000000 2.008170 0.000000 
#    z 0.000000 0.000000 1.990820 
# 
# From -- ./inp_files/6827.got.cif
#   From: 2010.05.17/outbox.cif.g08.bks.cpg/sg122_4_cif.got.tgz:6827.got - 2010.05.20 11:37:33.
