data_PCOD9561885
_publ_section_title
;
Structure prediction by ZEFSAII (Michael W. Deem and Ramdas Pophale) SiO2 
 PCOD9561885
Probable space group: P 4/M M M
;
_chemical_formula_sum "Si O2"
_cell_formula_units_Z 80
_cell_length_a 23.582763
_cell_length_b 23.582763
_cell_length_c 8.775937
_cell_angle_alpha 90.000000
_cell_angle_beta 90.000000
_cell_angle_gamma 90.000000
_cell_volume 4880.708496
_symmetry_space_group_name_H-M "P 4/M M M"
_symmetry_group_IT_number 123
_symmetry_cell_setting 'tetragonal'
loop_
_space_group_symop_operation_xyz
x,y,z
-y,x,z
-x,-y,z
y,-x,z
x,-y,-z
-x,y,-z
y,x,-z
-y,-x,-z
-x,-y,-z
y,-x,-z
x,y,-z
-y,x,-z
-x,y,z
x,-y,z
-y,-x,z
y,x,z
loop_
_atom_site_type_symbol
_atom_site_label
_atom_site_fract_x
_atom_site_fract_y
_atom_site_fract_z
Si Si1 0.061445 0.685132 0.183261
Si Si2 0.722169 0.185401 0.815572
Si Si3 0.589898 0.500000 0.814263
Si Si4 0.397768 0.215301 0.676615
Si Si5 0.435949 0.914643 0.677581
Si Si6 0.716802 0.500000 0.182245
O O1 0.119056 0.717110 0.235658
O O2 0.063405 0.619198 0.234261
O O3 0.000000 0.708442 0.234378
O O4 0.062720 0.686542 0.000000
O O5 0.776564 0.223437 0.767696
O O6 0.663633 0.212713 0.755458
O O7 0.721475 0.185567 0.000000
O O8 0.554732 0.554732 0.766225
O O9 0.653007 0.500000 0.759581
O O10 0.590638 0.500000 0.000000
O O11 0.390811 0.230807 0.500000
O O12 0.426257 0.152941 0.682070
O O13 0.442912 0.254468 0.758918
O O14 0.432652 0.932048 0.500000
O O15 0.500000 0.928264 0.732616
O O16 0.718516 0.500000 0.000000
#
# Coordination Sequence:
#
# PCOD9561885 Si02
#       6
#    16  16   8  16  16   8
#     4   9  18  31  46  67  93 119 150 192 237 276
#     4   9  18  33  51  70  93 123 159 196 233 280
#     4   8  16  32  49  62  78 101 131 171 220 273
#     4  10  19  32  47  66  94 124 154 189 231 275
#     4   9  17  30  45  61  86 122 158 187 218 263
#     4  11  20  29  48  74  93 115 148 189 236 282
#
# _framework density 16.391062999999999
#
# number of rings (size 3 to 8) (size 9 to 14) (size 15 to 20)
#    0.000    2.700    1.000    1.200    0.000    3.200 
#    0.000    4.000    0.000    1.800    0.000    2.800 
#    0.000    0.400    0.000    5.600    0.000    0.000 
#
# Total GULP energy -445501.981465 kJ/mol
# GULP energy per Si atom -5568.774768 kJ/mol
# Density = 1.635376 g / cm^3
# Si number density = 16.391063 Si / 1000 Ang^3
#
#
#
# Elastic Constant Matrix: (Units=GPa)
#
#
# Indices 1 2 3 4 5 6 
#
# 1 122.5335 69.5535 20.4849 0.0000 0.0000 0.0000
# 2 69.5535 122.5335 20.4849 0.0000 0.0000 0.0000
# 3 20.4849 20.4849 15.4070 0.0000 0.0000 0.0000
# 4 0.0000 0.0000 0.0000 3.8498 0.0000 0.0000
# 5 0.0000 0.0000 0.0000 0.0000 3.8498 0.0000
# 6 0.0000 0.0000 0.0000 0.0000 0.0000 37.3304
#
#
#
# Elastic Compliance Matrix: (Units=1/GPa)
#
#
# Indices 1 2 3 4 5 6 
#
# 1 0.013071 -0.005804 -0.009662 0.000000 0.000000 0.000000
# 2 -0.005804 0.013071 -0.009662 0.000000 0.000000 0.000000
# 3 -0.009662 -0.009662 0.090598 0.000000 0.000000 0.000000
# 4 0.000000 0.000000 0.000000 0.259753 0.000000 0.000000
# 5 0.000000 0.000000 0.000000 0.000000 0.259753 0.000000
# 6 0.000000 0.000000 0.000000 0.000000 0.000000 0.026788
#
#
# Mechanical properties :
#
#
# Convention : Reuss Voigt Hill
#
# Bulk Modulus (GPa) = 15.04116 53.50229 34.27173
# Shear Modulus (GPa) = 6.79857 19.00271 12.90064
#
# Velocity S-wave (km/s) = 2.03881 3.40859 2.80849
# Velocity P-wave (km/s) = 3.83910 6.94286 5.60990
#
# Compressibility (1/GPa) = 0.06648424
#
# Stress axis : x y z
#
# Youngs Moduli (GPa) = 76.50600 76.50600 11.03782
#
# Poissons Ratio (x) = 0.44405 0.10664
# Poissons Ratio (y) = 0.44405 0.10664
# Poissons Ratio (z) = 0.73918 0.73918
#
# Static dielectric constant tensor:
#      x y z
#    x 1.560940 0.000000 0.000000 
#    y 0.000000 1.560940 0.000000 
#    z 0.000000 0.000000 1.551600 
# 
# From -- ./inp_files/1511.got.cif
#   From: 2010.05.17/outbox.cif.g08.bks.cpg/sg123_1_cif.got.tgz:1511.got - 2010.05.20 11:43:04.
