data_PCOD9561246
_publ_section_title
;
Structure prediction by ZEFSAII (Michael W. Deem and Ramdas Pophale) SiO2 
 PCOD9561246
Probable space group: I -4 2 D
;
_chemical_formula_sum "Si O2"
_cell_formula_units_Z 88
_cell_length_a 17.032322
_cell_length_b 17.032322
_cell_length_c 14.102450
_cell_angle_alpha 90.000000
_cell_angle_beta 90.000000
_cell_angle_gamma 90.000000
_cell_volume 4091.120642
_symmetry_space_group_name_H-M "I -4 2 D"
_symmetry_group_IT_number 122
_symmetry_cell_setting 'tetragonal'
loop_
_space_group_symop_operation_xyz
x,y,z
y,-x,-z
-x,-y,z
-y,x,-z
x,1/2-y,1/4-z
-x,1/2+y,1/4-z
-y,1/2-x,1/4+z
y,1/2+x,1/4+z
1/2+x,1/2+y,1/2+z
1/2+y,1/2-x,1/2-z
1/2-x,1/2-y,1/2+z
1/2-y,1/2+x,1/2-z
1/2+x,-y,3/4-z
1/2-x,y,3/4-z
1/2-y,-x,3/4+z
1/2+y,x,3/4+z
loop_
_atom_site_type_symbol
_atom_site_label
_atom_site_fract_x
_atom_site_fract_y
_atom_site_fract_z
Si Si1 0.500000 0.500000 0.216283
Si Si2 0.071632 0.152178 0.325455
Si Si3 0.603334 0.103961 0.607147
Si Si4 0.305242 0.330557 0.664041
Si Si5 0.699864 0.975981 0.728938
Si Si6 0.681897 0.757516 0.295337
O O1 0.567295 0.461513 0.154155
O O2 0.452531 0.443032 0.286804
O O3 0.141018 0.140161 0.249423
O O4 0.108604 0.193423 0.416475
O O5 0.009791 0.212016 0.277690
O O6 0.549413 0.161098 0.671510
O O7 0.667716 0.152776 0.546747
O O8 0.648155 0.045728 0.681241
O O9 0.343034 0.250000 0.625000
O O10 0.301458 0.397435 0.585594
O O11 0.222567 0.300079 0.706916
O O12 0.750000 0.758293 0.375000
#
# Coordination Sequence:
#
# PCOD9561246 Si02
#       6
#     8  16  16  16  16  16
#     4  12  24  37  62  95 140 172 208 258 336 391
#     4  10  24  41  62  94 131 166 210 264 323 386
#     4  11  23  38  62 101 131 170 205 267 332 401
#     4  11  22  41  64  95 123 168 215 264 320 390
#     4  11  22  41  65  95 134 167 211 266 335 391
#     4   9  21  42  64  87 124 169 219 261 307 375
#
# _framework density 21.510000000000002
#
# number of rings (size 3 to 8) (size 9 to 14) (size 15 to 20)
#    0.000    1.455    1.818    4.364    7.636    0.000 
#    0.000    3.636    0.000    0.000    0.000    0.000 
#    0.000    0.000    0.000    0.000    0.000    0.000 
#
# Total GULP energy -245946.445665 kJ/mol
# GULP energy per Si atom -5589.691947 kJ/mol
# Density = 2.146104 g / cm^3
# Si number density = 21.510000 Si / 1000 Ang^3
#
#
#
# Elastic Constant Matrix: (Units=GPa)
#
#
# Indices 1 2 3 4 5 6 
#
# 1 103.2840 26.2185 0.4636 0.0000 0.0000 0.0000
# 2 26.2185 103.2840 0.4636 0.0000 0.0000 0.0000
# 3 0.4636 0.4636 19.7787 0.0000 0.0000 0.0000
# 4 0.0000 0.0000 0.0000 12.3268 0.0000 0.0000
# 5 0.0000 0.0000 0.0000 0.0000 12.3268 0.0000
# 6 0.0000 0.0000 0.0000 0.0000 0.0000 29.5445
#
#
#
# Elastic Compliance Matrix: (Units=1/GPa)
#
#
# Indices 1 2 3 4 5 6 
#
# 1 0.010350 -0.002626 -0.000181 0.000000 0.000000 0.000000
# 2 -0.002626 0.010350 -0.000181 0.000000 0.000000 0.000000
# 3 -0.000181 -0.000181 0.050568 0.000000 0.000000 0.000000
# 4 0.000000 0.000000 0.000000 0.081124 0.000000 0.000000
# 5 0.000000 0.000000 0.000000 0.000000 0.081124 0.000000
# 6 0.000000 0.000000 0.000000 0.000000 0.000000 0.033847
#
#
# Mechanical properties :
#
#
# Convention : Reuss Voigt Hill
#
# Bulk Modulus (GPa) = 15.31625 31.18201 23.24913
# Shear Modulus (GPa) = 16.94324 24.11968 20.53146
#
# Velocity S-wave (km/s) = 2.80963 3.35225 3.09286
# Velocity P-wave (km/s) = 4.20254 5.43244 4.85658
#
# Compressibility (1/GPa) = 0.06529011
#
# Stress axis : x y z
#
# Youngs Moduli (GPa) = 96.62244 96.62244 19.77538
#
# Poissons Ratio (x) = 0.25377 0.00358
# Poissons Ratio (y) = 0.25377 0.00358
# Poissons Ratio (z) = 0.01749 0.01749
#
# Static dielectric constant tensor:
#      x y z
#    x 1.795040 0.000000 0.000000 
#    y 0.000000 1.795040 0.000000 
#    z 0.000000 0.000000 1.776800 
# 
# From -- ./inp_files/5370.got.cif
#   From: 2010.05.17/outbox.cif.g08.bks.cpg/sg122_3_cif.got.tgz:5370.got - 2010.05.20 11:37:33.
