data_PCOD9561022
_publ_section_title
;
Structure prediction by ZEFSAII (Michael W. Deem and Ramdas Pophale) SiO2 
 PCOD9561022
Probable space group: I -4 2 D
;
_chemical_formula_sum "Si O2"
_cell_formula_units_Z 72
_cell_length_a 22.365364
_cell_length_b 22.365364
_cell_length_c 7.958428
_cell_angle_alpha 90.000000
_cell_angle_beta 90.000000
_cell_angle_gamma 90.000000
_cell_volume 3980.881345
_symmetry_space_group_name_H-M "I -4 2 D"
_symmetry_group_IT_number 122
_symmetry_cell_setting 'tetragonal'
loop_
_space_group_symop_operation_xyz
x,y,z
y,-x,-z
-x,-y,z
-y,x,-z
x,1/2-y,1/4-z
-x,1/2+y,1/4-z
-y,1/2-x,1/4+z
y,1/2+x,1/4+z
1/2+x,1/2+y,1/2+z
1/2+y,1/2-x,1/2-z
1/2-x,1/2-y,1/2+z
1/2-y,1/2+x,1/2-z
1/2+x,-y,3/4-z
1/2-x,y,3/4-z
1/2-y,-x,3/4+z
1/2+y,x,3/4+z
loop_
_atom_site_type_symbol
_atom_site_label
_atom_site_fract_x
_atom_site_fract_y
_atom_site_fract_z
Si Si1 0.227879 0.419158 0.647362
Si Si2 0.250000 0.183897 0.375000
Si Si3 0.750000 0.339169 0.375000
Si Si4 0.334547 0.929129 0.671175
Si Si5 0.750000 0.027843 0.375000
Si Si6 0.436564 0.659761 0.551373
O O1 0.212793 0.361172 0.755269
O O2 0.218342 0.480628 0.748543
O O3 0.298047 0.411932 0.598977
O O4 0.193923 0.424430 0.474294
O O5 0.295269 0.222460 0.485067
O O6 0.703583 0.383024 0.467065
O O7 0.297989 0.937472 0.493659
O O8 0.400777 0.901156 0.672040
O O9 0.340493 0.993480 0.759291
#
# Coordination Sequence:
#
# PCOD9561022 Si02
#       6
#    16   8   8  16   8  16
#     4   9  19  41  59  85 122 163 197 249 320 365
#     4  11  24  36  59  93 130 154 199 260 312 370
#     4  12  26  37  61  99 129 158 210 256 318 378
#     4  11  23  40  63  94 122 168 208 256 311 377
#     4   9  20  37  62  88 119 162 211 250 302 372
#     4  10  21  40  64  87 125 164 207 254 309 373
#
# _framework density 18.086448000000001
#
# number of rings (size 3 to 8) (size 9 to 14) (size 15 to 20)
#    0.000    1.778    2.222    2.667    6.222    0.444 
#    0.000    0.000    0.000    0.000    0.000    0.000 
#    0.000    0.000    0.000    0.000    0.000    0.000 
#
# Total GULP energy -200549.205511 kJ/mol
# GULP energy per Si atom -5570.811264 kJ/mol
# Density = 1.804528 g / cm^3
# Si number density = 18.086448 Si / 1000 Ang^3
#
#
#
# Elastic Constant Matrix: (Units=GPa)
#
#
# Indices 1 2 3 4 5 6 
#
# 1 96.6233 73.3030 56.0387 0.0000 0.0000 0.0000
# 2 73.3030 96.6233 56.0387 0.0000 0.0000 0.0000
# 3 56.0387 56.0387 112.1910 0.0000 0.0000 0.0000
# 4 0.0000 0.0000 0.0000 31.3440 0.0000 0.0000
# 5 0.0000 0.0000 0.0000 0.0000 31.3440 0.0000
# 6 0.0000 0.0000 0.0000 0.0000 0.0000 19.2483
#
#
#
# Elastic Compliance Matrix: (Units=1/GPa)
#
#
# Indices 1 2 3 4 5 6 
#
# 1 0.025829 -0.017052 -0.004384 0.000000 0.000000 0.000000
# 2 -0.017052 0.025829 -0.004384 0.000000 0.000000 0.000000
# 3 -0.004384 -0.004384 0.013293 0.000000 0.000000 0.000000
# 4 0.000000 0.000000 0.000000 0.031904 0.000000 0.000000
# 5 0.000000 0.000000 0.000000 0.000000 0.031904 0.000000
# 6 0.000000 0.000000 0.000000 0.000000 0.000000 0.051953
#
#
# Mechanical properties :
#
#
# Convention : Reuss Voigt Hill
#
# Bulk Modulus (GPa) = 75.12941 75.13317 75.13129
# Shear Modulus (GPa) = 21.11602 24.39107 22.75354
#
# Velocity S-wave (km/s) = 3.42058 3.67629 3.55074
# Velocity P-wave (km/s) = 7.56504 7.72344 7.64465
#
# Compressibility (1/GPa) = 0.01331037
#
# Stress axis : x y z
#
# Youngs Moduli (GPa) = 38.71668 38.71668 75.22978
#
# Poissons Ratio (x) = 0.66021 0.32978
# Poissons Ratio (y) = 0.66021 0.32978
# Poissons Ratio (z) = 0.16972 0.16972
#
# Static dielectric constant tensor:
#      x y z
#    x 1.647500 0.000000 0.000000 
#    y 0.000000 1.647500 0.000000 
#    z 0.000000 0.000000 1.633870 
# 
# From -- ./inp_files/2703.got.cif
#   From: 2010.05.17/outbox.cif.g08.bks.cpg/sg122_2_cif.got.tgz:2703.got - 2010.05.20 11:37:33.
