data_PCOD9561284
_publ_section_title
;
Structure prediction by ZEFSAII (Michael W. Deem and Ramdas Pophale) SiO2 
 PCOD9561284
Probable space group: I -4 2 D
;
_chemical_formula_sum "Si O2"
_cell_formula_units_Z 72
_cell_length_a 14.858285
_cell_length_b 14.858285
_cell_length_c 15.691576
_cell_angle_alpha 90.000000
_cell_angle_beta 90.000000
_cell_angle_gamma 90.000000
_cell_volume 3464.207785
_symmetry_space_group_name_H-M "I -4 2 D"
_symmetry_group_IT_number 122
_symmetry_cell_setting 'tetragonal'
loop_
_space_group_symop_operation_xyz
x,y,z
y,-x,-z
-x,-y,z
-y,x,-z
x,1/2-y,1/4-z
-x,1/2+y,1/4-z
-y,1/2-x,1/4+z
y,1/2+x,1/4+z
1/2+x,1/2+y,1/2+z
1/2+y,1/2-x,1/2-z
1/2-x,1/2-y,1/2+z
1/2-y,1/2+x,1/2-z
1/2+x,-y,3/4-z
1/2-x,y,3/4-z
1/2-y,-x,3/4+z
1/2+y,x,3/4+z
loop_
_atom_site_type_symbol
_atom_site_label
_atom_site_fract_x
_atom_site_fract_y
_atom_site_fract_z
Si Si1 0.445530 0.841446 0.018558
Si Si2 0.989069 0.361058 0.715918
Si Si3 0.376618 0.244572 0.727244
Si Si4 0.683648 0.560388 0.453249
Si Si5 0.000000 0.000000 0.139248
O O1 0.475735 0.866361 0.114084
O O2 0.483776 0.741756 0.003897
O O3 0.336822 0.839129 0.014261
O O4 0.476798 0.915221 0.949759
O O5 0.909368 0.418799 0.758266
O O6 0.380123 0.250000 0.625000
O O7 0.325168 0.153901 0.749357
O O8 0.479459 0.227310 0.757051
O O9 0.750000 0.576141 0.375000
O O10 0.587548 0.525207 0.416933
#
# Coordination Sequence:
#
# PCOD9561284 Si02
#       5
#    16  16  16  16   8
#     4  11  25  43  71 105 135 181 231 281 340 409
#     4  10  24  48  70  99 140 183 229 286 337 402
#     4  11  24  45  64 100 137 175 227 278 342 405
#     4  11  24  42  69  97 134 183 219 282 338 406
#     4  12  22  45  69 100 140 176 226 280 343 404
#
# _framework density 20.783971000000001
#
# number of rings (size 3 to 8) (size 9 to 14) (size 15 to 20)
#    0.000    1.111    4.444    2.667    6.222    0.000 
#    8.000    0.000    0.000    0.000    0.000    0.000 
#    0.000    0.000    0.000    0.000    0.000    0.000 
#
# Total GULP energy -201376.288257 kJ/mol
# GULP energy per Si atom -5593.785785 kJ/mol
# Density = 2.073667 g / cm^3
# Si number density = 20.783971 Si / 1000 Ang^3
#
#
#
# Elastic Constant Matrix: (Units=GPa)
#
#
# Indices 1 2 3 4 5 6 
#
# 1 106.9733 12.0954 35.9745 0.0000 0.0000 0.0000
# 2 12.0954 106.9733 35.9745 0.0000 0.0000 0.0000
# 3 35.9745 35.9745 65.5003 0.0000 0.0000 0.0000
# 4 0.0000 0.0000 0.0000 24.3555 0.0000 0.0000
# 5 0.0000 0.0000 0.0000 0.0000 24.3555 0.0000
# 6 0.0000 0.0000 0.0000 0.0000 0.0000 11.8519
#
#
#
# Elastic Compliance Matrix: (Units=1/GPa)
#
#
# Indices 1 2 3 4 5 6 
#
# 1 0.011555 0.001015 -0.006904 0.000000 0.000000 0.000000
# 2 0.001015 0.011555 -0.006904 0.000000 0.000000 0.000000
# 3 -0.006904 -0.006904 0.022851 0.000000 0.000000 0.000000
# 4 0.000000 0.000000 0.000000 0.041059 0.000000 0.000000
# 5 0.000000 0.000000 0.000000 0.000000 0.041059 0.000000
# 6 0.000000 0.000000 0.000000 0.000000 0.000000 0.084374
#
#
# Mechanical properties :
#
#
# Convention : Reuss Voigt Hill
#
# Bulk Modulus (GPa) = 49.07830 49.72619 49.40224
# Shear Modulus (GPa) = 20.42236 25.13940 22.78088
#
# Velocity S-wave (km/s) = 3.13805 3.48164 3.31430
# Velocity P-wave (km/s) = 6.06585 6.33559 6.20219
#
# Compressibility (1/GPa) = 0.02037560
#
# Stress axis : x y z
#
# Youngs Moduli (GPa) = 86.54187 86.54187 43.76217
#
# Poissons Ratio (x) = -0.08786 0.30213
# Poissons Ratio (y) = -0.08786 0.30213
# Poissons Ratio (z) = 0.59748 0.59748
#
# Static dielectric constant tensor:
#      x y z
#    x 1.749960 0.000000 0.000000 
#    y 0.000000 1.749960 0.000000 
#    z 0.000000 0.000000 1.732670 
# 
# From -- ./inp_files/6116.got.cif
#   From: 2010.05.17/outbox.cif.g08.bks.cpg/sg122_4_cif.got.tgz:6116.got - 2010.05.20 11:37:33.
