data_PCOD9561631
_publ_section_title
;
Structure prediction by ZEFSAII (Michael W. Deem and Ramdas Pophale) SiO2 
 PCOD9561631
Probable space group: P 4/M M M
;
_chemical_formula_sum "Si O2"
_cell_formula_units_Z 80
_cell_length_a 23.625984
_cell_length_b 23.625984
_cell_length_c 7.430408
_cell_angle_alpha 90.000000
_cell_angle_beta 90.000000
_cell_angle_gamma 90.000000
_cell_volume 4147.558042
_symmetry_space_group_name_H-M "P 4/M M M"
_symmetry_group_IT_number 123
_symmetry_cell_setting 'tetragonal'
loop_
_space_group_symop_operation_xyz
x,y,z
-y,x,z
-x,-y,z
y,-x,z
x,-y,-z
-x,y,-z
y,x,-z
-y,-x,-z
-x,-y,-z
y,-x,-z
x,y,-z
-y,x,-z
-x,y,z
x,-y,z
-y,-x,z
y,x,z
loop_
_atom_site_type_symbol
_atom_site_label
_atom_site_fract_x
_atom_site_fract_y
_atom_site_fract_z
Si Si1 0.500000 0.273157 0.707864
Si Si2 0.935732 0.715639 0.219249
Si Si3 0.622925 0.154577 0.221116
Si Si4 0.715045 0.624379 0.784617
Si Si5 0.844909 0.064129 0.780504
Si Si6 0.500000 0.855132 0.798939
O O1 0.500000 0.257256 0.500000
O O2 0.559558 0.302962 0.746415
O O3 0.500000 0.213573 0.811665
O O4 0.887803 0.672098 0.278201
O O5 0.924064 0.780297 0.274574
O O6 0.000000 0.700955 0.274466
O O7 0.935415 0.715060 0.000000
O O8 0.631213 0.219864 0.279105
O O9 0.561194 0.132806 0.283149
O O10 0.621330 0.155224 0.000000
O O11 0.671122 0.671122 0.715320
O O12 0.717025 0.630284 0.000000
O O13 0.889594 0.110407 0.718170
O O14 0.859383 0.000000 0.726162
O O15 0.845321 0.064895 0.000000
O O16 0.500000 0.879879 0.000000
#
# Coordination Sequence:
#
# PCOD9561631 Si02
#       6
#     8  16  16  16  16   8
#     4  10  18  28  44  64  88 115 138 167 209 253
#     4   8  13  20  29  44  69  97 123 158 207 253
#     4   8  13  22  36  52  72  99 129 160 195 238
#     4   9  17  29  45  64  85 110 141 175 209 246
#     4   8  13  19  25  34  51  79 116 156 196 237
#     4   8  14  26  41  56  77 105 138 173 204 239
#
# _framework density 19.288457999999999
#
# number of rings (size 3 to 8) (size 9 to 14) (size 15 to 20)
#    0.000    3.600    0.000    3.300    0.000    1.400 
#    0.000    5.500    0.000    3.300    0.000    2.100 
#    0.000   25.600    0.000    0.000    0.000    0.000 
#
# Total GULP energy -445612.828659 kJ/mol
# GULP energy per Si atom -5570.160358 kJ/mol
# Density = 1.924456 g / cm^3
# Si number density = 19.288458 Si / 1000 Ang^3
#
#
#
# Elastic Constant Matrix: (Units=GPa)
#
#
# Indices 1 2 3 4 5 6 
#
# 1 154.5429 130.5309 3.2545 0.0000 0.0000 0.0000
# 2 130.5309 154.5429 3.2545 0.0000 0.0000 0.0000
# 3 3.2545 3.2545 65.3208 0.0000 0.0000 0.0000
# 4 0.0000 0.0000 0.0000 -20.6311 0.0000 0.0000
# 5 0.0000 0.0000 0.0000 0.0000 -20.6311 0.0000
# 6 0.0000 0.0000 0.0000 0.0000 0.0000 -7.3705
#
#
#
# Elastic Compliance Matrix: (Units=1/GPa)
#
#
# Indices 1 2 3 4 5 6 
#
# 1 0.022579 -0.019067 -0.000175 0.000000 0.000000 0.000000
# 2 -0.019067 0.022579 -0.000175 0.000000 0.000000 0.000000
# 3 -0.000175 -0.000175 0.015326 0.000000 0.000000 0.000000
# 4 0.000000 0.000000 0.000000 -0.048470 0.000000 0.000000
# 5 0.000000 0.000000 0.000000 0.000000 -0.048470 0.000000
# 6 0.000000 0.000000 0.000000 0.000000 0.000000 -0.135675
#
#
# Mechanical properties :
#
#
# Convention : Reuss Voigt Hill
#
# Bulk Modulus (GPa) = 46.18868 72.05403 59.12136
# Shear Modulus (GPa) = -39.65696 6.09789 -16.77953
#
# Velocity S-wave (km/s) = -4.53923 1.77997 -2.95265
# Velocity P-wave (km/s) = 1.86400 6.45457 4.36961
#
# Compressibility (1/GPa) = 0.02165033
#
# Stress axis : x y z
#
# Youngs Moduli (GPa) = 44.28913 44.28913 65.24650
#
# Poissons Ratio (x) = 0.84446 0.01142
# Poissons Ratio (y) = 0.84446 0.01142
# Poissons Ratio (z) = 0.00775 0.00775
#
# Static dielectric constant tensor:
#      x y z
#    x 1.660890 0.000000 0.000000 
#    y 0.000000 1.660890 0.000000 
#    z 0.000000 0.000000 1.713910 
# 
# From -- ./inp_files/1455.got.cif
#   From: 2010.05.17/outbox.cif.g08.bks.cpg/sg123_1_cif.got.tgz:1455.got - 2010.05.20 11:43:04.
