data_PCOD9561071
_publ_section_title
;
Structure prediction by ZEFSAII (Michael W. Deem and Ramdas Pophale) SiO2 
 PCOD9561071
Probable space group: I -4 2 D
;
_chemical_formula_sum "Si O2"
_cell_formula_units_Z 76
_cell_length_a 13.133171
_cell_length_b 13.133171
_cell_length_c 22.244598
_cell_angle_alpha 90.000000
_cell_angle_beta 90.000000
_cell_angle_gamma 90.000000
_cell_volume 3836.752279
_symmetry_space_group_name_H-M "I -4 2 D"
_symmetry_group_IT_number 122
_symmetry_cell_setting 'tetragonal'
loop_
_space_group_symop_operation_xyz
x,y,z
y,-x,-z
-x,-y,z
-y,x,-z
x,1/2-y,1/4-z
-x,1/2+y,1/4-z
-y,1/2-x,1/4+z
y,1/2+x,1/4+z
1/2+x,1/2+y,1/2+z
1/2+y,1/2-x,1/2-z
1/2-x,1/2-y,1/2+z
1/2-y,1/2+x,1/2-z
1/2+x,-y,3/4-z
1/2-x,y,3/4-z
1/2-y,-x,3/4+z
1/2+y,x,3/4+z
loop_
_atom_site_type_symbol
_atom_site_label
_atom_site_fract_x
_atom_site_fract_y
_atom_site_fract_z
Si Si1 0.170091 0.536208 0.522890
Si Si2 0.968360 0.840982 0.739378
Si Si3 0.500000 0.500000 0.500000
Si Si4 0.556794 0.281196 0.366034
Si Si5 0.324182 0.528575 0.422551
Si Si6 0.364754 0.250000 0.125000
O O1 0.117005 0.429398 0.502893
O O2 0.234185 0.513989 0.582300
O O3 0.245956 0.574851 0.471132
O O4 0.074510 0.609035 0.532001
O O5 0.928993 0.771102 0.685281
O O6 0.996115 0.794332 0.804057
O O7 0.405396 0.464179 0.459892
O O8 0.607060 0.387136 0.389003
O O9 0.652204 0.205006 0.361471
O O10 0.250000 0.475404 0.375000
#
# Coordination Sequence:
#
# PCOD9561071 Si02
#       6
#    16  16   4  16  16   8
#     4  10  22  38  58  90 121 163 210 256 314 386
#     4  10  22  40  63  85 123 163 210 262 321 381
#     4  12  28  40  64 108 132 172 232 266 332 416
#     4  11  21  39  61  88 122 164 205 264 318 377
#     4  12  23  38  65  91 135 170 209 268 326 391
#     4  10  22  40  64  88 118 158 216 266 320 386
#
# _framework density 19.808419000000001
#
# number of rings (size 3 to 8) (size 9 to 14) (size 15 to 20)
#    0.000    1.263    5.263    0.000    2.947    1.684 
#    0.000    0.000    2.316    0.000    0.000    0.000 
#    0.000    0.000    0.000    0.000    0.000    0.000 
#
# Total GULP energy -212119.361822 kJ/mol
# GULP energy per Si atom -5582.088469 kJ/mol
# Density = 1.976333 g / cm^3
# Si number density = 19.808419 Si / 1000 Ang^3
#
#
#
# Elastic Constant Matrix: (Units=GPa)
#
#
# Indices 1 2 3 4 5 6 
#
# 1 56.0769 2.5692 45.0870 0.0000 0.0000 0.0000
# 2 2.5692 56.0769 45.0870 0.0000 0.0000 0.0000
# 3 45.0870 45.0870 151.0128 0.0000 0.0000 0.0000
# 4 0.0000 0.0000 0.0000 33.7911 0.0000 0.0000
# 5 0.0000 0.0000 0.0000 0.0000 33.7911 0.0000
# 6 0.0000 0.0000 0.0000 0.0000 0.0000 10.1253
#
#
#
# Elastic Compliance Matrix: (Units=1/GPa)
#
#
# Indices 1 2 3 4 5 6 
#
# 1 0.025106 0.006417 -0.009411 0.000000 0.000000 0.000000
# 2 0.006417 0.025106 -0.009411 0.000000 0.000000 0.000000
# 3 -0.009411 -0.009411 0.012242 0.000000 0.000000 0.000000
# 4 0.000000 0.000000 0.000000 0.029594 0.000000 0.000000
# 5 0.000000 0.000000 0.000000 0.000000 0.029594 0.000000
# 6 0.000000 0.000000 0.000000 0.000000 0.000000 0.098763
#
#
# Mechanical properties :
#
#
# Convention : Reuss Voigt Hill
#
# Bulk Modulus (GPa) = 26.56689 49.85034 38.20862
# Shear Modulus (GPa) = 19.39770 26.90304 23.15037
#
# Velocity S-wave (km/s) = 3.13272 3.68932 3.42235
# Velocity P-wave (km/s) = 5.15036 6.58552 5.91165
#
# Compressibility (1/GPa) = 0.03764083
#
# Stress axis : x y z
#
# Youngs Moduli (GPa) = 39.83162 39.83162 81.68729
#
# Poissons Ratio (x) = -0.25559 0.76880
# Poissons Ratio (y) = -0.25559 0.76880
# Poissons Ratio (z) = 0.37487 0.37487
#
# Static dielectric constant tensor:
#      x y z
#    x 1.690900 0.000000 0.000000 
#    y 0.000000 1.690900 0.000000 
#    z 0.000000 0.000000 1.716710 
# 
# From -- ./inp_files/7101.got.cif
#   From: 2010.05.17/outbox.cif.g08.bks.cpg/sg122_4_cif.got.tgz:7101.got - 2010.05.20 11:37:33.
