data_PCOD9561927
_publ_section_title
;
Structure prediction by ZEFSAII (Michael W. Deem and Ramdas Pophale) SiO2 
 PCOD9561927
Probable space group: P 4/M M M
;
_chemical_formula_sum "Si O2"
_cell_formula_units_Z 120
_cell_length_a 27.395868
_cell_length_b 27.395868
_cell_length_c 8.882542
_cell_angle_alpha 90.000000
_cell_angle_beta 90.000000
_cell_angle_gamma 90.000000
_cell_volume 6666.646078
_symmetry_space_group_name_H-M "P 4/M M M"
_symmetry_group_IT_number 123
_symmetry_cell_setting 'tetragonal'
loop_
_space_group_symop_operation_xyz
x,y,z
-y,x,z
-x,-y,z
y,-x,z
x,-y,-z
-x,y,-z
y,x,-z
-y,-x,-z
-x,-y,-z
y,-x,-z
x,y,-z
-y,x,-z
-x,y,z
x,-y,z
-y,-x,z
y,x,z
loop_
_atom_site_type_symbol
_atom_site_label
_atom_site_fract_x
_atom_site_fract_y
_atom_site_fract_z
Si Si1 0.231677 0.556649 0.818128
Si Si2 0.277344 0.805551 0.828998
Si Si3 0.766698 0.901608 0.678078
Si Si4 0.410193 0.877280 0.818847
Si Si5 0.053559 0.665680 0.320806
Si Si6 0.943748 0.864865 0.181810
Si Si7 0.500000 0.055328 0.816590
Si Si8 0.269147 0.349533 0.680098
O O1 0.239048 0.500000 0.774812
O O2 0.176991 0.573884 0.772768
O O3 0.268110 0.596241 0.747668
O O4 0.234205 0.559133 0.000000
O O5 0.234733 0.765268 0.836114
O O6 0.254582 0.851654 0.745607
O O7 0.321370 0.778418 0.744493
O O8 0.292296 0.818102 0.000000
O O9 0.774339 0.895883 0.500000
O O10 0.723467 0.940596 0.702616
O O11 0.816377 0.918382 0.755021
O O12 0.361252 0.900809 0.754305
O O13 0.452570 0.914654 0.770269
O O14 0.407700 0.877256 0.000000
O O15 0.055735 0.656938 0.500000
O O16 0.000000 0.649193 0.264654
O O17 0.911714 0.911714 0.226755
O O18 0.000000 0.867748 0.231510
O O19 0.943281 0.862304 0.000000
O O20 0.500000 0.000000 0.762004
O O21 0.500000 0.054404 0.000000
O O22 0.266337 0.351159 0.500000
O O23 0.316040 0.316040 0.721751
#
# Coordination Sequence:
#
# PCOD9561927 Si02
#       8
#    16  16  16  16  16  16   8  16
#     4  10  20  35  55  80 110 142 180 227 276 327
#     4  10  20  34  53  78 108 141 176 216 264 317
#     4  11  22  36  55  78 106 139 173 213 263 319
#     4  10  19  33  52  75 100 131 176 226 272 317
#     4  10  22  37  49  66  97 133 170 215 265 314
#     4  10  22  40  61  84 108 133 164 205 255 317
#     4   9  16  28  47  69  95 129 173 225 274 315
#     4  10  21  36  54  79 112 149 189 230 272 323
#
# _framework density 18.000057000000002
#
# number of rings (size 3 to 8) (size 9 to 14) (size 15 to 20)
#    0.000    1.933    0.667    3.200    0.000    9.200 
#    0.000    1.000    0.000    1.200    0.000    0.933 
#    0.000    0.267    0.000    2.933    0.000    2.133 
#
# Total GULP energy -670077.477599 kJ/mol
# GULP energy per Si atom -5583.978980 kJ/mol
# Density = 1.795909 g / cm^3
# Si number density = 18.000057 Si / 1000 Ang^3
#
#
#
# Elastic Constant Matrix: (Units=GPa)
#
#
# Indices 1 2 3 4 5 6 
#
# 1 120.7794 57.9254 32.7035 0.0000 0.0000 0.0000
# 2 57.9254 120.7794 32.7035 0.0000 0.0000 0.0000
# 3 32.7035 32.7035 25.4014 0.0000 0.0000 0.0000
# 4 0.0000 0.0000 0.0000 -64.6521 0.0000 0.0000
# 5 0.0000 0.0000 0.0000 0.0000 -64.6521 0.0000
# 6 0.0000 0.0000 0.0000 0.0000 0.0000 16.9787
#
#
#
# Elastic Compliance Matrix: (Units=1/GPa)
#
#
# Indices 1 2 3 4 5 6 
#
# 1 0.013246 -0.002664 -0.013625 0.000000 0.000000 0.000000
# 2 -0.002664 0.013246 -0.013625 0.000000 0.000000 0.000000
# 3 -0.013625 -0.013625 0.074450 0.000000 0.000000 0.000000
# 4 0.000000 0.000000 0.000000 -0.015467 0.000000 0.000000
# 5 0.000000 0.000000 0.000000 0.000000 -0.015467 0.000000
# 6 0.000000 0.000000 0.000000 0.000000 0.000000 0.058897
#
#
# Mechanical properties :
#
#
# Convention : Reuss Voigt Hill
#
# Bulk Modulus (GPa) = 24.32090 57.06945 40.69517
# Shear Modulus (GPa) = 24.69902 -12.88992 5.90455
#
# Velocity S-wave (km/s) = 3.70829 -2.67892 1.81312
# Velocity P-wave (km/s) = 5.64589 4.71224 5.20006
#
# Compressibility (1/GPa) = 0.04111690
#
# Stress axis : x y z
#
# Youngs Moduli (GPa) = 75.49332 75.49332 13.43175
#
# Poissons Ratio (x) = 0.20109 0.18300
# Poissons Ratio (y) = 0.20109 0.18300
# Poissons Ratio (z) = 1.02857 1.02857
#
# Static dielectric constant tensor:
#      x y z
#    x 1.625720 0.000000 0.000000 
#    y 0.000000 1.625720 0.000000 
#    z 0.000000 0.000000 1.607260 
# 
# From -- ./inp_files/2018.got.cif
#   From: 2010.05.17/outbox.cif.g08.bks.cpg/sg123_2_cif.got.tgz:2018.got - 2010.05.20 11:43:04.
