data_PCOD9561738
_publ_section_title
;
Structure prediction by ZEFSAII (Michael W. Deem and Ramdas Pophale) SiO2 
 PCOD9561738
Probable space group: P 4/M M M
;
_chemical_formula_sum "Si O2"
_cell_formula_units_Z 80
_cell_length_a 23.984346
_cell_length_b 23.984346
_cell_length_c 7.503637
_cell_angle_alpha 90.000000
_cell_angle_beta 90.000000
_cell_angle_gamma 90.000000
_cell_volume 4316.458578
_symmetry_space_group_name_H-M "P 4/M M M"
_symmetry_group_IT_number 123
_symmetry_cell_setting 'tetragonal'
loop_
_space_group_symop_operation_xyz
x,y,z
-y,x,z
-x,-y,z
y,-x,z
x,-y,-z
-x,y,-z
y,x,-z
-y,-x,-z
-x,-y,-z
y,-x,-z
x,y,-z
-y,x,-z
-x,y,z
x,-y,z
-y,-x,z
y,x,z
loop_
_atom_site_type_symbol
_atom_site_label
_atom_site_fract_x
_atom_site_fract_y
_atom_site_fract_z
Si Si1 0.769735 0.622741 0.291844
Si Si2 0.320593 0.937874 0.787414
Si Si3 0.739430 0.828215 0.783713
Si Si4 0.437253 0.121389 0.715285
Si Si5 0.347863 0.652138 0.705169
Si Si6 0.436863 0.436863 0.784717
O O1 0.764834 0.607052 0.500000
O O2 0.792934 0.685544 0.275209
O O3 0.817228 0.581745 0.217930
O O4 0.708236 0.626782 0.212171
O O5 0.277219 0.890563 0.721702
O O6 0.384657 0.918031 0.759324
O O7 0.312488 0.000000 0.714855
O O8 0.312897 0.940066 0.000000
O O9 0.795368 0.795368 0.725713
O O10 0.740196 0.828756 0.000000
O O11 0.438965 0.122793 0.500000
O O12 0.500000 0.106503 0.776319
O O13 0.332844 0.667157 0.500000
O O14 0.394192 0.605809 0.705902
O O15 0.500000 0.424106 0.731968
O O16 0.434102 0.434102 0.000000
#
# Coordination Sequence:
#
# PCOD9561738 Si02
#       6
#    16  16  16  16   8   8
#     4   9  17  29  44  65  90 112 136 170 214 260
#     4   9  18  31  45  63  88 115 144 181 220 253
#     4   9  16  27  45  66  86 112 143 174 209 251
#     4   9  18  31  45  61  85 118 151 181 212 250
#     4  10  19  29  47  72  90 106 132 170 217 267
#     4   9  20  38  52  60  76 104 136 170 212 263
#
# _framework density 18.533711
#
# number of rings (size 3 to 8) (size 9 to 14) (size 15 to 20)
#    0.000    2.900    1.000    0.300    0.000    3.200 
#    0.000    4.500    0.000    0.000    0.000    0.000 
#    0.000    0.400    0.000    5.600    0.000    0.000 
#
# Total GULP energy -445568.228477 kJ/mol
# GULP energy per Si atom -5569.602856 kJ/mol
# Density = 1.849153 g / cm^3
# Si number density = 18.533711 Si / 1000 Ang^3
#
#
#
# Elastic Constant Matrix: (Units=GPa)
#
#
# Indices 1 2 3 4 5 6 
#
# 1 348.4395 -175.8645 -2.9629 0.0000 0.0000 0.0000
# 2 -175.8645 348.4471 -2.9611 0.0000 0.0000 0.0000
# 3 -2.9629 -2.9611 49.7146 0.0000 0.0000 0.0000
# 4 0.0000 0.0000 0.0000 9.5443 0.0000 0.0000
# 5 0.0000 0.0000 0.0000 0.0000 9.5445 0.0000
# 6 0.0000 0.0000 0.0000 0.0000 0.0000 16.6076
#
#
#
# Elastic Compliance Matrix: (Units=1/GPa)
#
#
# Indices 1 2 3 4 5 6 
#
# 1 0.003857 0.001950 0.000346 0.000000 0.000000 0.000000
# 2 0.001950 0.003857 0.000346 0.000000 0.000000 0.000000
# 3 0.000346 0.000346 0.020156 0.000000 0.000000 0.000000
# 4 0.000000 0.000000 0.000000 0.104774 0.000000 0.000000
# 5 0.000000 0.000000 0.000000 0.000000 0.104773 0.000000
# 6 0.000000 0.000000 0.000000 0.000000 0.000000 0.060213
#
#
# Mechanical properties :
#
#
# Convention : Reuss Voigt Hill
#
# Bulk Modulus (GPa) = 30.16366 42.55824 36.36095
# Shear Modulus (GPa) = 16.48000 69.03193 42.75596
#
# Velocity S-wave (km/s) = 2.98516 6.10963 4.80826
# Velocity P-wave (km/s) = 5.30961 8.53127 7.10544
#
# Compressibility (1/GPa) = 0.03315248
#
# Stress axis : x y z
#
# Youngs Moduli (GPa) = 259.27915 259.28503 49.61289
#
# Poissons Ratio (x) = -0.50548 -0.01717
# Poissons Ratio (y) = -0.50547 -0.01716
# Poissons Ratio (z) = -0.08971 -0.08969
#
# Static dielectric constant tensor:
#      x y z
#    x 1.649570 0.000000 0.000000 
#    y 0.000000 1.649570 0.000000 
#    z 0.000000 0.000000 1.726260 
# 
# From -- ./inp_files/1448.got.cif
#   From: 2010.05.17/outbox.cif.g08.bks.cpg/sg123_1_cif.got.tgz:1448.got - 2010.05.20 11:43:04.
