data_PCOD9561190
_publ_section_title
;
Structure prediction by ZEFSAII (Michael W. Deem and Ramdas Pophale) SiO2 
 PCOD9561190
Probable space group: I -4 2 D
;
_chemical_formula_sum "Si O2"
_cell_formula_units_Z 108
_cell_length_a 15.705105
_cell_length_b 15.705105
_cell_length_c 17.918483
_cell_angle_alpha 90.000000
_cell_angle_beta 90.000000
_cell_angle_gamma 90.000000
_cell_volume 4419.599621
_symmetry_space_group_name_H-M "I -4 2 D"
_symmetry_group_IT_number 122
_symmetry_cell_setting 'tetragonal'
loop_
_space_group_symop_operation_xyz
x,y,z
y,-x,-z
-x,-y,z
-y,x,-z
x,1/2-y,1/4-z
-x,1/2+y,1/4-z
-y,1/2-x,1/4+z
y,1/2+x,1/4+z
1/2+x,1/2+y,1/2+z
1/2+y,1/2-x,1/2-z
1/2-x,1/2-y,1/2+z
1/2-y,1/2+x,1/2-z
1/2+x,-y,3/4-z
1/2-x,y,3/4-z
1/2-y,-x,3/4+z
1/2+y,x,3/4+z
loop_
_atom_site_type_symbol
_atom_site_label
_atom_site_fract_x
_atom_site_fract_y
_atom_site_fract_z
Si Si1 0.424712 0.264729 0.508938
Si Si2 0.189653 0.014458 0.309782
Si Si3 0.000000 0.000000 0.370939
Si Si4 0.645842 0.823086 0.980669
Si Si5 0.231629 0.331164 0.028396
Si Si6 0.541329 0.181102 0.390510
Si Si7 0.353655 0.409634 0.427960
Si Si8 0.500000 0.500000 0.500000
O O1 0.365223 0.195768 0.548195
O O2 0.462218 0.228715 0.430317
O O3 0.354286 0.337451 0.491308
O O4 0.506108 0.300076 0.553179
O O5 0.250000 0.977979 0.375000
O O6 0.221685 0.108278 0.292819
O O7 0.410563 0.016802 0.421631
O O8 0.203551 0.952624 0.239330
O O9 0.983782 0.094468 0.404448
O O10 0.703525 0.744360 0.007417
O O11 0.654744 0.901414 0.037962
O O12 0.662816 0.863676 0.899953
O O13 0.266567 0.391951 0.092355
O O14 0.450613 0.439414 0.442789
#
# Coordination Sequence:
#
# PCOD9561190 Si02
#       8
#    16  16   8  16  16  16  16   4
#     4  11  24  47  74 114 153 213 265 335 395 496
#     4  11  25  46  77 110 147 204 265 331 409 485
#     4  10  22  49  75 100 153 195 256 334 394 488
#     4  11  25  47  73 108 156 206 259 336 398 494
#     4  12  26  46  78 112 157 208 264 337 408 487
#     4  11  24  47  72 113 154 207 270 328 409 485
#     4  10  23  45  74 108 159 200 270 325 404 475
#     4   8  20  46  72 116 150 212 270 336 388 492
#
# _framework density 24.436602000000001
#
# number of rings (size 3 to 8) (size 9 to 14) (size 15 to 20)
#    0.000    1.185    1.481    4.000    2.074    5.333 
#   16.000    0.741    3.259    0.000    0.000    0.000 
#    0.000    0.000    0.000    0.000    0.000    0.000 
#
# Total GULP energy -301481.239953 kJ/mol
# GULP energy per Si atom -5582.985925 kJ/mol
# Density = 2.438098 g / cm^3
# Si number density = 24.436602 Si / 1000 Ang^3
#
#
#
# Elastic Constant Matrix: (Units=GPa)
#
#
# Indices 1 2 3 4 5 6 
#
# 1 118.7876 54.0312 33.8779 0.0000 0.0000 0.0000
# 2 54.0312 118.7876 33.8779 0.0000 0.0000 0.0000
# 3 33.8779 33.8779 87.6342 0.0000 0.0000 0.0000
# 4 0.0000 0.0000 0.0000 34.3621 0.0000 0.0000
# 5 0.0000 0.0000 0.0000 0.0000 34.3621 0.0000
# 6 0.0000 0.0000 0.0000 0.0000 0.0000 49.3943
#
#
#
# Elastic Compliance Matrix: (Units=1/GPa)
#
#
# Indices 1 2 3 4 5 6 
#
# 1 0.011131 -0.004311 -0.002637 0.000000 0.000000 0.000000
# 2 -0.004311 0.011131 -0.002637 0.000000 0.000000 0.000000
# 3 -0.002637 -0.002637 0.013450 0.000000 0.000000 0.000000
# 4 0.000000 0.000000 0.000000 0.029102 0.000000 0.000000
# 5 0.000000 0.000000 0.000000 0.000000 0.029102 0.000000
# 6 0.000000 0.000000 0.000000 0.000000 0.000000 0.020245
#
#
# Mechanical properties :
#
#
# Convention : Reuss Voigt Hill
#
# Bulk Modulus (GPa) = 60.44633 63.19817 61.82225
# Shear Modulus (GPa) = 36.01160 37.18518 36.59839
#
# Velocity S-wave (km/s) = 3.84301 3.90513 3.87419
# Velocity P-wave (km/s) = 6.66943 6.80085 6.73546
#
# Compressibility (1/GPa) = 0.01654360
#
# Stress axis : x y z
#
# Youngs Moduli (GPa) = 89.83687 89.83687 74.35198
#
# Poissons Ratio (x) = 0.38730 0.19603
# Poissons Ratio (y) = 0.38730 0.19603
# Poissons Ratio (z) = 0.23686 0.23686
#
# Static dielectric constant tensor:
#      x y z
#    x 2.022970 0.000000 0.000000 
#    y 0.000000 2.022970 0.000000 
#    z 0.000000 0.000000 1.973380 
# 
# From -- ./inp_files/8153.got.cif
#   From: 2010.05.17/outbox.cif.g08.bks.cpg/sg122_5_cif.got.tgz:8153.got - 2010.05.20 11:37:33.
