data_PCOD9561971
_publ_section_title
;
Structure prediction by ZEFSAII (Michael W. Deem and Ramdas Pophale) SiO2 
 PCOD9561971
Probable space group: P 4/M M M
;
_chemical_formula_sum "Si O2"
_cell_formula_units_Z 96
_cell_length_a 24.966980
_cell_length_b 24.966980
_cell_length_c 7.555171
_cell_angle_alpha 90.000000
_cell_angle_beta 90.000000
_cell_angle_gamma 90.000000
_cell_volume 4709.516525
_symmetry_space_group_name_H-M "P 4/M M M"
_symmetry_group_IT_number 123
_symmetry_cell_setting 'tetragonal'
loop_
_space_group_symop_operation_xyz
x,y,z
-y,x,z
-x,-y,z
y,-x,z
x,-y,-z
-x,y,-z
y,x,-z
-y,-x,-z
-x,-y,-z
y,-x,-z
x,y,-z
-y,x,-z
-x,y,z
x,-y,z
-y,-x,z
y,x,z
loop_
_atom_site_type_symbol
_atom_site_label
_atom_site_fract_x
_atom_site_fract_y
_atom_site_fract_z
Si Si1 0.737237 0.179555 0.284272
Si Si2 0.437659 0.352493 0.210440
Si Si3 0.056530 0.418696 0.790238
Si Si4 0.253490 0.358687 0.302174
Si Si5 0.292466 0.940272 0.713585
Si Si6 0.443068 0.828597 0.212678
O O1 0.731305 0.178743 0.500000
O O2 0.794724 0.205277 0.242709
O O3 0.693282 0.223736 0.218879
O O4 0.729942 0.117765 0.224603
O O5 0.500000 0.345535 0.276509
O O6 0.404810 0.404810 0.279290
O O7 0.395689 0.302306 0.231291
O O8 0.442788 0.358918 0.000000
O O9 0.060504 0.354950 0.765314
O O10 0.110908 0.442922 0.722263
O O11 0.000000 0.436392 0.713647
O O12 0.055467 0.430419 0.000000
O O13 0.269134 0.344661 0.500000
O O14 0.203717 0.398055 0.305097
O O15 0.288380 0.940245 0.500000
O O16 0.272041 0.000000 0.772552
O O17 0.500000 0.802215 0.243141
O O18 0.433544 0.828374 0.000000
#
# Coordination Sequence:
#
# PCOD9561971 Si02
#       6
#    16  16  16  16  16  16
#     4   9  17  29  46  70  98 125 155 194 237 280
#     4  10  22  40  60  80 101 125 154 192 241 296
#     4   9  17  29  45  64  88 120 158 199 241 282
#     4  11  21  34  52  74  99 130 162 194 238 290
#     4   9  16  28  47  68  91 122 159 197 237 281
#     4  10  20  32  46  65  92 126 164 205 243 282
#
# _framework density 20.384259
#
# number of rings (size 3 to 8) (size 9 to 14) (size 15 to 20)
#    0.000    2.333    1.667    1.500    0.000    4.167 
#    0.000    2.500    0.000    1.500    0.000    4.667 
#    0.000    0.333    0.000    4.667    0.000    0.000 
#
# Total GULP energy -534432.115406 kJ/mol
# GULP energy per Si atom -5567.001202 kJ/mol
# Density = 2.033786 g / cm^3
# Si number density = 20.384259 Si / 1000 Ang^3
#
#
#
# Elastic Constant Matrix: (Units=GPa)
#
#
# Indices 1 2 3 4 5 6 
#
# 1 115.2358 111.8840 10.0064 0.0000 0.0000 0.0000
# 2 111.8840 115.2358 10.0064 0.0000 0.0000 0.0000
# 3 10.0064 10.0064 40.2948 0.0000 0.0000 0.0000
# 4 0.0000 0.0000 0.0000 7.8789 0.0000 0.0000
# 5 0.0000 0.0000 0.0000 0.0000 7.8789 0.0000
# 6 0.0000 0.0000 0.0000 0.0000 0.0000 2.4567
#
#
#
# Elastic Compliance Matrix: (Units=1/GPa)
#
#
# Indices 1 2 3 4 5 6 
#
# 1 0.151424 -0.146923 -0.001118 0.000000 0.000000 0.000000
# 2 -0.146923 0.151424 -0.001118 0.000000 0.000000 0.000000
# 3 -0.001118 -0.001118 0.025372 0.000000 0.000000 0.000000
# 4 0.000000 0.000000 0.000000 0.126922 0.000000 0.000000
# 5 0.000000 0.000000 0.000000 0.000000 0.126922 0.000000
# 6 0.000000 0.000000 0.000000 0.000000 0.000000 0.407056
#
#
# Mechanical properties :
#
#
# Convention : Reuss Voigt Hill
#
# Bulk Modulus (GPa) = 33.44056 59.39556 46.41806
# Shear Modulus (GPa) = 3.85385 12.90085 8.37735
#
# Velocity S-wave (km/s) = 1.37648 2.51845 2.02944
# Velocity P-wave (km/s) = 4.35511 6.13661 5.32095
#
# Compressibility (1/GPa) = 0.02990380
#
# Stress axis : x y z
#
# Youngs Moduli (GPa) = 6.60397 6.60397 39.41313
#
# Poissons Ratio (x) = 0.97027 0.04406
# Poissons Ratio (y) = 0.97027 0.04406
# Poissons Ratio (z) = 0.00738 0.00738
#
# Static dielectric constant tensor:
#      x y z
#    x 1.738970 0.000000 0.000000 
#    y 0.000000 1.738970 0.000000 
#    z 0.000000 0.000000 1.779110 
# 
# From -- ./inp_files/1565.got.cif
#   From: 2010.05.17/outbox.cif.g08.bks.cpg/sg123_1_cif.got.tgz:1565.got - 2010.05.20 11:43:04.
