data_PCOD9561905
_publ_section_title
;
Structure prediction by ZEFSAII (Michael W. Deem and Ramdas Pophale) SiO2 
 PCOD9561905
Probable space group: P 4/M M M
;
_chemical_formula_sum "Si O2"
_cell_formula_units_Z 56
_cell_length_a 12.754678
_cell_length_b 12.754678
_cell_length_c 21.426303
_cell_angle_alpha 90.000000
_cell_angle_beta 90.000000
_cell_angle_gamma 90.000000
_cell_volume 3485.669773
_symmetry_space_group_name_H-M "P 4/M M M"
_symmetry_group_IT_number 123
_symmetry_cell_setting 'tetragonal'
loop_
_space_group_symop_operation_xyz
x,y,z
-y,x,z
-x,-y,z
y,-x,z
x,-y,-z
-x,y,-z
y,x,-z
-y,-x,-z
-x,-y,-z
y,-x,-z
x,y,-z
-y,x,-z
-x,y,z
x,-y,z
-y,-x,z
y,x,z
loop_
_atom_site_type_symbol
_atom_site_label
_atom_site_fract_x
_atom_site_fract_y
_atom_site_fract_z
Si Si1 0.878932 0.500000 0.342328
Si Si2 0.500000 0.327215 0.575017
Si Si3 0.878839 0.703278 0.000000
Si Si4 0.293412 0.119470 0.743109
Si Si5 0.622030 0.205355 0.128732
O O1 0.785480 0.500000 0.392388
O O2 0.866954 0.603673 0.299683
O O3 0.000000 0.500000 0.366404
O O4 0.601653 0.398348 0.591967
O O5 0.500000 0.316378 0.500000
O O6 0.850663 0.639982 0.937451
O O7 0.805690 0.805690 0.000000
O O8 0.000000 0.731058 0.000000
O O9 0.204206 0.204206 0.727841
O O10 0.329223 0.139243 0.814458
O O11 0.256081 0.000000 0.736066
O O12 0.500000 0.221653 0.140219
O O13 0.686045 0.313956 0.126752
#
# Coordination Sequence:
#
# PCOD9561905 Si02
#       5
#     8   8   8  16  16
#     4  10  19  32  52  75 103 134 166 207 245 284
#     4   9  18  33  53  77 106 137 166 200 242 288
#     4  10  21  34  50  70  90 120 159 202 254 304
#     4  10  20  33  50  72  99 131 166 206 251 296
#     4  10  20  34  50  70  96 124 160 204 249 300
#
# _framework density 16.06578
#
# number of rings (size 3 to 8) (size 9 to 14) (size 15 to 20)
#    0.000    2.143    1.429    2.571    0.000    3.286 
#    0.000    0.000    0.000    7.714    0.000    0.000 
#    0.000    0.000    0.000   26.571    0.000    0.000 
#
# Total GULP energy -312345.987249 kJ/mol
# GULP energy per Si atom -5577.606915 kJ/mol
# Density = 1.602921 g / cm^3
# Si number density = 16.065780 Si / 1000 Ang^3
#
#
#
# Elastic Constant Matrix: (Units=GPa)
#
#
# Indices 1 2 3 4 5 6 
#
# 1 128.4123 53.0410 36.4847 0.0000 0.0000 0.0000
# 2 53.0410 128.4123 36.4847 0.0000 0.0000 0.0000
# 3 36.4847 36.4847 55.4905 0.0000 0.0000 0.0000
# 4 0.0000 0.0000 0.0000 20.7121 0.0000 0.0000
# 5 0.0000 0.0000 0.0000 0.0000 20.7121 0.0000
# 6 0.0000 0.0000 0.0000 0.0000 0.0000 13.7027
#
#
#
# Elastic Compliance Matrix: (Units=1/GPa)
#
#
# Indices 1 2 3 4 5 6 
#
# 1 0.010380 -0.002888 -0.004926 0.000000 0.000000 0.000000
# 2 -0.002888 0.010380 -0.004926 0.000000 0.000000 0.000000
# 3 -0.004926 -0.004926 0.024499 0.000000 0.000000 0.000000
# 4 0.000000 0.000000 0.000000 0.048281 0.000000 0.000000
# 5 0.000000 0.000000 0.000000 0.000000 0.048281 0.000000
# 6 0.000000 0.000000 0.000000 0.000000 0.000000 0.072978
#
#
# Mechanical properties :
#
#
# Convention : Reuss Voigt Hill
#
# Bulk Modulus (GPa) = 50.55898 62.70398 56.63148
# Shear Modulus (GPa) = 20.25351 23.44569 21.84960
#
# Velocity S-wave (km/s) = 3.55443 3.82430 3.69183
# Velocity P-wave (km/s) = 6.95583 7.65602 7.31431
#
# Compressibility (1/GPa) = 0.01977888
#
# Stress axis : x y z
#
# Youngs Moduli (GPa) = 96.34084 96.34084 40.81854
#
# Poissons Ratio (x) = 0.27822 0.20107
# Poissons Ratio (y) = 0.27822 0.20107
# Poissons Ratio (z) = 0.47457 0.47457
#
# Static dielectric constant tensor:
#      x y z
#    x 1.520380 0.000000 0.000000 
#    y 0.000000 1.520380 0.000000 
#    z 0.000000 0.000000 1.527760 
# 
# From -- ./inp_files/6135.got.cif
#   From: 2010.05.17/outbox.cif.g08.bks.cpg/sg123_4_cif.got.tgz:6135.got - 2010.05.20 11:43:04.
