data_PCOD9561768
_publ_section_title
;
Structure prediction by ZEFSAII (Michael W. Deem and Ramdas Pophale) SiO2 
 PCOD9561768
Probable space group: P 4/M M M
;
_chemical_formula_sum "Si O2"
_cell_formula_units_Z 72
_cell_length_a 14.369002
_cell_length_b 14.369002
_cell_length_c 23.295961
_cell_angle_alpha 90.000000
_cell_angle_beta 90.000000
_cell_angle_gamma 90.000000
_cell_volume 4809.875565
_symmetry_space_group_name_H-M "P 4/M M M"
_symmetry_group_IT_number 123
_symmetry_cell_setting 'tetragonal'
loop_
_space_group_symop_operation_xyz
x,y,z
-y,x,z
-x,-y,z
y,-x,z
x,-y,-z
-x,y,-z
y,x,-z
-y,-x,-z
-x,-y,-z
y,-x,-z
x,y,-z
-y,x,-z
-x,y,z
x,-y,z
-y,-x,z
y,x,z
loop_
_atom_site_type_symbol
_atom_site_label
_atom_site_fract_x
_atom_site_fract_y
_atom_site_fract_z
Si Si1 0.612785 0.105732 0.829389
Si Si2 0.108466 0.608740 0.610694
Si Si3 0.609538 0.763344 0.066577
Si Si4 0.610899 0.235110 0.722038
Si Si5 0.109601 0.264114 0.500000
O O1 0.500000 0.100942 0.827997
O O2 0.637633 0.156920 0.888648
O O3 0.639282 0.170306 0.775797
O O4 0.647801 0.000000 0.825373
O O5 0.118301 0.500000 0.594188
O O6 0.176033 0.626647 0.664046
O O7 0.127960 0.673769 0.556456
O O8 0.000000 0.621892 0.627907
O O9 0.500000 0.742500 0.075579
O O10 0.672859 0.672859 0.076206
O O11 0.620705 0.792013 0.000000
O O12 0.500000 0.254011 0.726489
O O13 0.672238 0.327763 0.721821
O O14 0.174609 0.174609 0.500000
O O15 0.000000 0.240544 0.500000
#
# Coordination Sequence:
#
# PCOD9561768 Si02
#       5
#    16  16  16  16   8
#     4   9  17  29  44  61  82 110 144 181 219 253
#     4   9  17  30  48  68  88 112 145 184 223 258
#     4   9  17  28  42  62  89 119 148 177 210 253
#     4  10  19  30  45  65  90 118 145 174 209 253
#     4  10  19  30  45  65  90 118 147 181 220 263
#
# _framework density 14.969201999999999
#
# number of rings (size 3 to 8) (size 9 to 14) (size 15 to 20)
#    0.000    2.667    0.000    2.333    0.000    5.000 
#    0.000    3.333    0.000    4.000    0.000    0.000 
#    0.000   27.556    0.000    9.778    0.000    0.889 
#
# Total GULP energy -401147.124098 kJ/mol
# GULP energy per Si atom -5571.487835 kJ/mol
# Density = 1.493513 g / cm^3
# Si number density = 14.969202 Si / 1000 Ang^3
#
#
#
# Elastic Constant Matrix: (Units=GPa)
#
#
# Indices 1 2 3 4 5 6 
#
# 1 81.8921 60.6371 65.4730 0.0000 0.0000 0.0000
# 2 60.6371 81.8921 65.4730 0.0000 0.0000 0.0000
# 3 65.4730 65.4730 104.7787 0.0000 0.0000 0.0000
# 4 0.0000 0.0000 0.0000 18.4908 0.0000 0.0000
# 5 0.0000 0.0000 0.0000 0.0000 18.4908 0.0000
# 6 0.0000 0.0000 0.0000 0.0000 0.0000 19.9552
#
#
#
# Elastic Compliance Matrix: (Units=1/GPa)
#
#
# Indices 1 2 3 4 5 6 
#
# 1 0.031760 -0.015287 -0.010294 0.000000 0.000000 0.000000
# 2 -0.015287 0.031760 -0.010294 0.000000 0.000000 0.000000
# 3 -0.010294 -0.010294 0.022408 0.000000 0.000000 0.000000
# 4 0.000000 0.000000 0.000000 0.054081 0.000000 0.000000
# 5 0.000000 0.000000 0.000000 0.000000 0.054081 0.000000
# 6 0.000000 0.000000 0.000000 0.000000 0.000000 0.050112
#
#
# Mechanical properties :
#
#
# Convention : Reuss Voigt Hill
#
# Bulk Modulus (GPa) = 70.52083 72.41436 71.46760
# Shear Modulus (GPa) = 15.59193 16.51935 16.05564
#
# Velocity S-wave (km/s) = 3.23088 3.32558 3.27858
# Velocity P-wave (km/s) = 7.81863 7.95152 7.88535
#
# Compressibility (1/GPa) = 0.01418021
#
# Stress axis : x y z
#
# Youngs Moduli (GPa) = 31.48571 31.48571 44.62656
#
# Poissons Ratio (x) = 0.48133 0.45937
# Poissons Ratio (y) = 0.48133 0.45937
# Poissons Ratio (z) = 0.32410 0.32410
#
# Static dielectric constant tensor:
#      x y z
#    x 1.476430 0.000000 0.000000 
#    y 0.000000 1.476430 0.000000 
#    z 0.000000 0.000000 1.500530 
# 
# From -- ./inp_files/6293.got.cif
#   From: 2010.05.17/outbox.cif.g08.bks.cpg/sg123_4_cif.got.tgz:6293.got - 2010.05.20 11:43:04.
