data_PCOD9561265
_publ_section_title
;
Structure prediction by ZEFSAII (Michael W. Deem and Ramdas Pophale) SiO2 
 PCOD9561265
Probable space group: I -4 2 D
;
_chemical_formula_sum "Si O2"
_cell_formula_units_Z 68
_cell_length_a 16.814069
_cell_length_b 16.814069
_cell_length_c 10.686771
_cell_angle_alpha 90.000000
_cell_angle_beta 90.000000
_cell_angle_gamma 90.000000
_cell_volume 3021.288196
_symmetry_space_group_name_H-M "I -4 2 D"
_symmetry_group_IT_number 122
_symmetry_cell_setting 'tetragonal'
loop_
_space_group_symop_operation_xyz
x,y,z
y,-x,-z
-x,-y,z
-y,x,-z
x,1/2-y,1/4-z
-x,1/2+y,1/4-z
-y,1/2-x,1/4+z
y,1/2+x,1/4+z
1/2+x,1/2+y,1/2+z
1/2+y,1/2-x,1/2-z
1/2-x,1/2-y,1/2+z
1/2-y,1/2+x,1/2-z
1/2+x,-y,3/4-z
1/2-x,y,3/4-z
1/2-y,-x,3/4+z
1/2+y,x,3/4+z
loop_
_atom_site_type_symbol
_atom_site_label
_atom_site_fract_x
_atom_site_fract_y
_atom_site_fract_z
Si Si1 0.827082 0.631607 0.622599
Si Si2 0.308252 0.250000 0.625000
Si Si3 0.000000 0.500000 0.250000
Si Si4 0.519439 0.786474 0.240597
Si Si5 0.250000 0.077885 0.875000
Si Si6 0.330785 0.556183 0.544171
O O1 0.753259 0.683707 0.678032
O O2 0.832372 0.541533 0.671978
O O3 0.907632 0.669495 0.674750
O O4 0.803552 0.626317 0.474871
O O5 0.366281 0.300665 0.533016
O O6 0.076551 0.537397 0.180557
O O7 0.470762 0.750000 0.125000
O O8 0.552395 0.718239 0.329478
O O9 0.301809 0.018627 0.789872
#
# Coordination Sequence:
#
# PCOD9561265 Si02
#       6
#    16   8   4  16   8  16
#     4  11  25  45  75 103 149 195 249 313 380 451
#     4  11  24  44  76 103 142 200 250 313 362 470
#     4  12  24  44  76 100 146 196 240 320 352 462
#     4  11  26  45  71 111 145 194 244 315 379 455
#     4   9  22  48  70 103 144 196 254 303 370 472
#     4  10  24  44  69 107 142 190 254 305 381 436
#
# _framework density 22.506955000000001
#
# number of rings (size 3 to 8) (size 9 to 14) (size 15 to 20)
#    0.000    1.412    1.176    2.824    9.882    0.471 
#    4.235    0.000    0.000    0.000    0.000    0.000 
#    0.000    0.000    0.000    0.000    0.000    0.000 
#
# Total GULP energy -189576.223904 kJ/mol
# GULP energy per Si atom -5575.771291 kJ/mol
# Density = 2.245573 g / cm^3
# Si number density = 22.506955 Si / 1000 Ang^3
#
#
#
# Elastic Constant Matrix: (Units=GPa)
#
#
# Indices 1 2 3 4 5 6 
#
# 1 136.8777 69.2150 61.8489 0.0000 0.0000 0.0000
# 2 69.2150 136.8777 61.8489 0.0000 0.0000 0.0000
# 3 61.8489 61.8489 137.1125 0.0000 0.0000 0.0000
# 4 0.0000 0.0000 0.0000 32.0816 0.0000 0.0000
# 5 0.0000 0.0000 0.0000 0.0000 32.0816 0.0000
# 6 0.0000 0.0000 0.0000 0.0000 0.0000 8.1874
#
#
#
# Elastic Compliance Matrix: (Units=1/GPa)
#
#
# Indices 1 2 3 4 5 6 
#
# 1 0.010716 -0.004063 -0.003001 0.000000 0.000000 0.000000
# 2 -0.004063 0.010716 -0.003001 0.000000 0.000000 0.000000
# 3 -0.003001 -0.003001 0.010001 0.000000 0.000000 0.000000
# 4 0.000000 0.000000 0.000000 0.031170 0.000000 0.000000
# 5 0.000000 0.000000 0.000000 0.000000 0.031170 0.000000
# 6 0.000000 0.000000 0.000000 0.000000 0.000000 0.122138
#
#
# Mechanical properties :
#
#
# Convention : Reuss Voigt Hill
#
# Bulk Modulus (GPa) = 88.47296 88.52148 88.49722
# Shear Modulus (GPa) = 20.84970 29.00047 24.92508
#
# Velocity S-wave (km/s) = 3.04693 3.59348 3.33143
# Velocity P-wave (km/s) = 7.19534 7.52553 7.36228
#
# Compressibility (1/GPa) = 0.01130289
#
# Stress axis : x y z
#
# Youngs Moduli (GPa) = 93.31498 93.31498 99.99046
#
# Poissons Ratio (x) = 0.37912 0.30010
# Poissons Ratio (y) = 0.37912 0.30010
# Poissons Ratio (z) = 0.28007 0.28007
#
# Static dielectric constant tensor:
#      x y z
#    x 1.888720 0.000000 0.000000 
#    y 0.000000 1.888720 0.000000 
#    z 0.000000 0.000000 1.830850 
# 
# From -- ./inp_files/4227.got.cif
#   From: 2010.05.17/outbox.cif.g08.bks.cpg/sg122_3_cif.got.tgz:4227.got - 2010.05.20 11:37:33.
