data_PCOD9561308
_publ_section_title
;
Structure prediction by ZEFSAII (Michael W. Deem and Ramdas Pophale) SiO2 
 PCOD9561308
Probable space group: I -4 2 D
;
_chemical_formula_sum "Si O2"
_cell_formula_units_Z 68
_cell_length_a 11.704955
_cell_length_b 11.704955
_cell_length_c 21.508590
_cell_angle_alpha 90.000000
_cell_angle_beta 90.000000
_cell_angle_gamma 90.000000
_cell_volume 2946.805270
_symmetry_space_group_name_H-M "I -4 2 D"
_symmetry_group_IT_number 122
_symmetry_cell_setting 'tetragonal'
loop_
_space_group_symop_operation_xyz
x,y,z
y,-x,-z
-x,-y,z
-y,x,-z
x,1/2-y,1/4-z
-x,1/2+y,1/4-z
-y,1/2-x,1/4+z
y,1/2+x,1/4+z
1/2+x,1/2+y,1/2+z
1/2+y,1/2-x,1/2-z
1/2-x,1/2-y,1/2+z
1/2-y,1/2+x,1/2-z
1/2+x,-y,3/4-z
1/2-x,y,3/4-z
1/2-y,-x,3/4+z
1/2+y,x,3/4+z
loop_
_atom_site_type_symbol
_atom_site_label
_atom_site_fract_x
_atom_site_fract_y
_atom_site_fract_z
Si Si1 0.048819 0.795852 0.406584
Si Si2 0.625874 0.212097 0.031741
Si Si3 0.343409 0.347765 0.332021
Si Si4 0.000000 0.500000 0.508621
Si Si5 0.000000 0.500000 0.750000
Si Si6 0.250000 0.936384 0.375000
O O1 0.119265 0.721542 0.457476
O O2 0.140975 0.856557 0.363250
O O3 0.946720 0.717411 0.382145
O O4 0.999867 0.892512 0.453083
O O5 0.744125 0.267988 0.052730
O O6 0.520848 0.273999 0.067755
O O7 0.584505 0.083158 0.046558
O O8 0.250000 0.410350 0.375000
O O9 0.412750 0.424944 0.283504
#
# Coordination Sequence:
#
# PCOD9561308 Si02
#       6
#    16  16  16   8   4   8
#     4  11  21  37  61  99 141 170 215 283 349 423
#     4  11  22  41  64 100 133 170 226 284 345 415
#     4  11  23  44  64  95 128 180 231 276 327 414
#     4  10  26  45  64  92 146 176 216 291 334 396
#     4  12  16  34  56  88 148 160 192 286 344 400
#     4  12  22  36  70 108 134 182 214 276 380 418
#
# _framework density 23.075838000000001
#
# number of rings (size 3 to 8) (size 9 to 14) (size 15 to 20)
#    0.000    0.941    5.882    1.412    3.294    0.000 
#    8.471    0.000    0.000    0.000    0.000    0.000 
#    0.000    0.000    0.000    0.000    0.000    0.000 
#
# Total GULP energy -189666.198930 kJ/mol
# GULP energy per Si atom -5578.417616 kJ/mol
# Density = 2.302332 g / cm^3
# Si number density = 23.075838 Si / 1000 Ang^3
#
#
#
# Elastic Constant Matrix: (Units=GPa)
#
#
# Indices 1 2 3 4 5 6 
#
# 1 104.3123 32.5399 12.6852 0.0000 0.0000 0.0000
# 2 32.5399 104.3123 12.6852 0.0000 0.0000 0.0000
# 3 12.6852 12.6852 43.3545 0.0000 0.0000 0.0000
# 4 0.0000 0.0000 0.0000 36.1769 0.0000 0.0000
# 5 0.0000 0.0000 0.0000 0.0000 36.1769 0.0000
# 6 0.0000 0.0000 0.0000 0.0000 0.0000 47.2689
#
#
#
# Elastic Compliance Matrix: (Units=1/GPa)
#
#
# Indices 1 2 3 4 5 6 
#
# 1 0.010830 -0.003103 -0.002261 0.000000 0.000000 0.000000
# 2 -0.003103 0.010830 -0.002261 0.000000 0.000000 0.000000
# 3 -0.002261 -0.002261 0.024389 0.000000 0.000000 0.000000
# 4 0.000000 0.000000 0.000000 0.027642 0.000000 0.000000
# 5 0.000000 0.000000 0.000000 0.000000 0.027642 0.000000
# 6 0.000000 0.000000 0.000000 0.000000 0.000000 0.021156
#
#
# Mechanical properties :
#
#
# Convention : Reuss Voigt Hill
#
# Bulk Modulus (GPa) = 32.46913 40.86664 36.66788
# Shear Modulus (GPa) = 33.78320 36.86247 35.32283
#
# Velocity S-wave (km/s) = 3.83039 4.00115 3.91670
# Velocity P-wave (km/s) = 5.80204 6.25250 6.03147
#
# Compressibility (1/GPa) = 0.03079849
#
# Stress axis : x y z
#
# Youngs Moduli (GPa) = 92.33964 92.33964 41.00283
#
# Poissons Ratio (x) = 0.28656 0.09269
# Poissons Ratio (y) = 0.28656 0.09269
# Poissons Ratio (z) = 0.20875 0.20875
#
# Static dielectric constant tensor:
#      x y z
#    x 1.960930 0.000000 0.000000 
#    y 0.000000 1.960930 0.000000 
#    z 0.000000 0.000000 1.906210 
# 
# From -- ./inp_files/8678.got.cif
#   From: 2010.05.17/outbox.cif.g08.bks.cpg/sg122_5_cif.got.tgz:8678.got - 2010.05.20 11:37:33.
