data_PCOD9561318
_publ_section_title
;
Structure prediction by ZEFSAII (Michael W. Deem and Ramdas Pophale) SiO2 
 PCOD9561318
Probable space group: I -4 2 D
;
_chemical_formula_sum "Si O2"
_cell_formula_units_Z 28
_cell_length_a 7.469532
_cell_length_b 7.469532
_cell_length_c 17.078800
_cell_angle_alpha 90.000000
_cell_angle_beta 90.000000
_cell_angle_gamma 90.000000
_cell_volume 952.893001
_symmetry_space_group_name_H-M "I -4 2 D"
_symmetry_group_IT_number 122
_symmetry_cell_setting 'tetragonal'
loop_
_space_group_symop_operation_xyz
x,y,z
y,-x,-z
-x,-y,z
-y,x,-z
x,1/2-y,1/4-z
-x,1/2+y,1/4-z
-y,1/2-x,1/4+z
y,1/2+x,1/4+z
1/2+x,1/2+y,1/2+z
1/2+y,1/2-x,1/2-z
1/2-x,1/2-y,1/2+z
1/2-y,1/2+x,1/2-z
1/2+x,-y,3/4-z
1/2-x,y,3/4-z
1/2-y,-x,3/4+z
1/2+y,x,3/4+z
loop_
_atom_site_type_symbol
_atom_site_label
_atom_site_fract_x
_atom_site_fract_y
_atom_site_fract_z
Si Si1 0.656199 0.127251 0.034847
Si Si2 0.500000 0.000000 0.250000
Si Si3 0.000000 0.000000 0.871620
O O1 0.839457 0.071656 0.074798
O O2 0.500000 0.000000 0.067030
O O3 0.606439 0.164237 0.208818
O O4 0.640967 0.084139 0.941884
#
# Coordination Sequence:
#
# PCOD9561318 Si02
#       3
#    16   4   8
#     4  10  28  58  92 141 195 260 328 424 499 618
#     4  12  28  58  92 154 200 260 336 434 524 602
#     4  10  26  63  93 135 198 255 338 406 514 596
#
# _framework density 29.384201999999998
#
# number of rings (size 3 to 8) (size 9 to 14) (size 15 to 20)
#    1.714    0.000    0.000    0.000    4.000    6.857 
#   20.571    0.000    0.000    0.000    0.000    0.000 
#    0.000    0.000    0.000    0.000    0.000    0.000 
#
# Total GULP energy -78617.101224 kJ/mol
# GULP energy per Si atom -5615.507230 kJ/mol
# Density = 2.931732 g / cm^3
# Si number density = 29.384202 Si / 1000 Ang^3
#
#
#
# Elastic Constant Matrix: (Units=GPa)
#
#
# Indices 1 2 3 4 5 6 
#
# 1 301.8799 139.8820 138.5960 0.0000 0.0000 0.0000
# 2 139.8820 301.8799 138.5960 0.0000 0.0000 0.0000
# 3 138.5960 138.5960 250.7488 0.0000 0.0000 0.0000
# 4 0.0000 0.0000 0.0000 60.1051 0.0000 0.0000
# 5 0.0000 0.0000 0.0000 0.0000 60.1051 0.0000
# 6 0.0000 0.0000 0.0000 0.0000 0.0000 85.0817
#
#
#
# Elastic Compliance Matrix: (Units=1/GPa)
#
#
# Indices 1 2 3 4 5 6 
#
# 1 0.004819 -0.001354 -0.001916 0.000000 0.000000 0.000000
# 2 -0.001354 0.004819 -0.001916 0.000000 0.000000 0.000000
# 3 -0.001916 -0.001916 0.006106 0.000000 0.000000 0.000000
# 4 0.000000 0.000000 0.000000 0.016638 0.000000 0.000000
# 5 0.000000 0.000000 0.000000 0.000000 0.016638 0.000000
# 6 0.000000 0.000000 0.000000 0.000000 0.000000 0.011753
#
#
# Mechanical properties :
#
#
# Convention : Reuss Voigt Hill
#
# Bulk Modulus (GPa) = 186.05845 187.62853 186.84349
# Shear Modulus (GPa) = 68.55548 70.22067 69.38807
#
# Velocity S-wave (km/s) = 4.83543 4.89380 4.86470
# Velocity P-wave (km/s) = 9.72789 9.79411 9.76106
#
# Compressibility (1/GPa) = 0.00537466
#
# Stress axis : x y z
#
# Youngs Moduli (GPa) = 207.50070 207.50070 163.78405
#
# Poissons Ratio (x) = 0.28088 0.31373
# Poissons Ratio (y) = 0.28088 0.31373
# Poissons Ratio (z) = 0.39748 0.39748
#
# Static dielectric constant tensor:
#      x y z
#    x 2.241180 0.000000 0.000000 
#    y 0.000000 2.241180 0.000000 
#    z 0.000000 0.000000 2.424590 
# 
# From -- ./inp_files/4757.got.cif
#   From: 2010.05.17/outbox.cif.g08.bks.cpg/sg122_3_cif.got.tgz:4757.got - 2010.05.20 11:37:33.
