data_PCOD9561992
_publ_section_title
;
Structure prediction by ZEFSAII (Michael W. Deem and Ramdas Pophale) SiO2 
 PCOD9561992
Probable space group: P 4/M M M
;
_chemical_formula_sum "Si O2"
_cell_formula_units_Z 120
_cell_length_a 18.653442
_cell_length_b 18.653442
_cell_length_c 20.117116
_cell_angle_alpha 90.000000
_cell_angle_beta 90.000000
_cell_angle_gamma 90.000000
_cell_volume 6999.768586
_symmetry_space_group_name_H-M "P 4/M M M"
_symmetry_group_IT_number 123
_symmetry_cell_setting 'tetragonal'
loop_
_space_group_symop_operation_xyz
x,y,z
-y,x,z
-x,-y,z
y,-x,z
x,-y,-z
-x,y,-z
y,x,-z
-y,-x,-z
-x,-y,-z
y,-x,-z
x,y,-z
-y,x,-z
-x,y,z
x,-y,z
-y,-x,z
y,x,z
loop_
_atom_site_type_symbol
_atom_site_label
_atom_site_fract_x
_atom_site_fract_y
_atom_site_fract_z
Si Si1 0.416937 0.693837 0.500000
Si Si2 0.083090 0.798818 0.280787
Si Si3 0.580836 0.224234 0.259442
Si Si4 0.268868 0.917881 0.575605
Si Si5 0.135353 0.415139 0.075704
Si Si6 0.297693 0.583256 0.882396
Si Si7 0.221904 0.333815 0.610874
Si Si8 0.354094 0.917411 0.207807
O O1 0.500000 0.695434 0.500000
O O2 0.385507 0.614494 0.500000
O O3 0.384901 0.734702 0.562785
O O4 0.140295 0.859706 0.262877
O O5 0.089825 0.782419 0.360095
O O6 0.096166 0.724839 0.239601
O O7 0.000000 0.819399 0.268637
O O8 0.500000 0.234195 0.284697
O O9 0.590183 0.274557 0.195232
O O10 0.639237 0.236125 0.315546
O O11 0.592678 0.141913 0.237637
O O12 0.240707 0.905162 0.500000
O O13 0.330553 0.860466 0.590317
O O14 0.294172 0.000000 0.577517
O O15 0.122866 0.500000 0.092114
O O16 0.221580 0.404352 0.080978
O O17 0.096977 0.364027 0.129035
O O18 0.112243 0.403309 0.000000
O O19 0.318994 0.500000 0.894263
O O20 0.359562 0.640438 0.898529
O O21 0.254592 0.254592 0.601589
O O22 0.371804 0.000000 0.222653
#
# Coordination Sequence:
#
# PCOD9561992 Si02
#       8
#     8  16  16  16  16  16  16  16
#     4  10  22  37  53  75  99 129 174 226 274 320
#     4  10  21  36  55  79 107 139 176 221 269 319
#     4  10  20  32  48  71 100 134 167 208 258 306
#     4  10  20  34  53  78 109 139 173 218 267 319
#     4   9  19  35  53  75 106 142 175 211 260 313
#     4   9  18  32  49  71  99 130 167 209 253 303
#     4  11  20  32  53  75  97 132 175 217 260 313
#     4  10  20  33  51  78 107 136 174 214 253 306
#
# _framework density 17.143424
#
# number of rings (size 3 to 8) (size 9 to 14) (size 15 to 20)
#    0.000    2.133    2.000    2.400    0.000    4.867 
#    0.000    0.667    0.000    1.600    0.000    5.600 
#    0.000    0.000    0.000    2.933    0.000    0.000 
#
# Total GULP energy -668556.299359 kJ/mol
# GULP energy per Si atom -5571.302495 kJ/mol
# Density = 1.710441 g / cm^3
# Si number density = 17.143424 Si / 1000 Ang^3
#
#
#
# Elastic Constant Matrix: (Units=GPa)
#
#
# Indices 1 2 3 4 5 6 
#
# 1 56.6291 27.4418 9.6856 0.0000 0.0000 0.0000
# 2 27.4418 56.6315 9.6854 0.0000 0.0000 0.0000
# 3 9.6856 9.6854 81.8220 0.0000 0.0000 0.0000
# 4 0.0000 0.0000 0.0000 15.9495 0.0000 0.0000
# 5 0.0000 0.0000 0.0000 0.0000 15.9500 0.0000
# 6 0.0000 0.0000 0.0000 0.0000 0.0000 17.9677
#
#
#
# Elastic Compliance Matrix: (Units=1/GPa)
#
#
# Indices 1 2 3 4 5 6 
#
# 1 0.023245 -0.011016 -0.001448 0.000000 0.000000 0.000000
# 2 -0.011016 0.023244 -0.001447 0.000000 0.000000 0.000000
# 3 -0.001448 -0.001447 0.012564 0.000000 0.000000 0.000000
# 4 0.000000 0.000000 0.000000 0.062698 0.000000 0.000000
# 5 0.000000 0.000000 0.000000 0.000000 0.062696 0.000000
# 6 0.000000 0.000000 0.000000 0.000000 0.000000 0.055655
#
#
# Mechanical properties :
#
#
# Convention : Reuss Voigt Hill
#
# Bulk Modulus (GPa) = 32.01990 32.07869 32.04930
# Shear Modulus (GPa) = 17.96404 19.85809 18.91106
#
# Velocity S-wave (km/s) = 3.24059 3.40715 3.32491
# Velocity P-wave (km/s) = 5.72015 5.85071 5.78580
#
# Compressibility (1/GPa) = 0.03123058
#
# Stress axis : x y z
#
# Youngs Moduli (GPa) = 43.02074 43.02269 79.59041
#
# Poissons Ratio (x) = 0.47394 0.11521
# Poissons Ratio (y) = 0.47392 0.11520
# Poissons Ratio (z) = 0.06228 0.06227
#
# Static dielectric constant tensor:
#      x y z
#    x 1.568030 0.000000 0.000000 
#    y 0.000000 1.568030 0.000000 
#    z 0.000000 0.000000 1.612330 
# 
# From -- ./inp_files/6856.got.cif
#   From: 2010.05.17/outbox.cif.g08.bks.cpg/sg123_4_cif.got.tgz:6856.got - 2010.05.20 11:43:04.
