data_PCOD9561776
_publ_section_title
;
Structure prediction by ZEFSAII (Michael W. Deem and Ramdas Pophale) SiO2 
 PCOD9561776
Probable space group: P 4/M M M
;
_chemical_formula_sum "Si O2"
_cell_formula_units_Z 56
_cell_length_a 14.123626
_cell_length_b 14.123626
_cell_length_c 17.738834
_cell_angle_alpha 90.000000
_cell_angle_beta 90.000000
_cell_angle_gamma 90.000000
_cell_volume 3538.486044
_symmetry_space_group_name_H-M "P 4/M M M"
_symmetry_group_IT_number 123
_symmetry_cell_setting 'tetragonal'
loop_
_space_group_symop_operation_xyz
x,y,z
-y,x,z
-x,-y,z
y,-x,z
x,-y,-z
-x,y,-z
y,x,-z
-y,-x,-z
-x,-y,-z
y,-x,-z
x,y,-z
-y,x,-z
-x,y,z
x,-y,z
-y,-x,z
y,x,z
loop_
_atom_site_type_symbol
_atom_site_label
_atom_site_fract_x
_atom_site_fract_y
_atom_site_fract_z
Si Si1 0.232614 0.387821 0.000000
Si Si2 0.765498 0.610356 0.589684
Si Si3 0.887682 0.268835 0.701718
Si Si4 0.389661 0.111672 0.148564
O O1 0.172079 0.366005 0.074860
O O2 0.251143 0.500000 0.000000
O O3 0.327024 0.327024 0.000000
O O4 0.783775 0.616423 0.500000
O O5 0.757796 0.500000 0.610054
O O6 0.668964 0.668964 0.604753
O O7 0.846838 0.662960 0.636559
O O8 0.827758 0.172243 0.699012
O O9 0.868615 0.322289 0.780814
O O10 0.000000 0.254703 0.694272
O O11 0.500000 0.130075 0.168808
O O12 0.382382 0.000000 0.130569
#
# Coordination Sequence:
#
# PCOD9561776 Si02
#       4
#     8  16  16  16
#     4  10  19  30  45  65  92 124 153 183 220 265
#     4   9  18  32  50  73  99 125 154 189 230 277
#     4  10  20  33  49  69  94 124 158 196 236 278
#     4   9  17  30  49  71  91 113 147 191 236 278
#
# _framework density 15.825976000000001
#
# number of rings (size 3 to 8) (size 9 to 14) (size 15 to 20)
#    0.000    2.571    0.000    2.143    0.000    4.714 
#    0.000    2.857    0.000    0.000    0.000    8.000 
#    0.000   10.286    0.000    0.000    0.000    0.000 
#
# Total GULP energy -312204.187474 kJ/mol
# GULP energy per Si atom -5575.074776 kJ/mol
# Density = 1.578996 g / cm^3
# Si number density = 15.825976 Si / 1000 Ang^3
#
#
#
# Elastic Constant Matrix: (Units=GPa)
#
#
# Indices 1 2 3 4 5 6 
#
# 1 108.3710 72.4660 62.2831 0.0000 0.0000 0.0000
# 2 72.4660 108.3710 62.2831 0.0000 0.0000 0.0000
# 3 62.2831 62.2831 70.9610 0.0000 0.0000 0.0000
# 4 0.0000 0.0000 0.0000 22.7568 0.0000 0.0000
# 5 0.0000 0.0000 0.0000 0.0000 22.7568 0.0000
# 6 0.0000 0.0000 0.0000 0.0000 0.0000 18.4631
#
#
#
# Elastic Compliance Matrix: (Units=1/GPa)
#
#
# Indices 1 2 3 4 5 6 
#
# 1 0.020918 -0.006933 -0.012275 0.000000 0.000000 0.000000
# 2 -0.006933 0.020918 -0.012275 0.000000 0.000000 0.000000
# 3 -0.012275 -0.012275 0.035640 0.000000 0.000000 0.000000
# 4 0.000000 0.000000 0.000000 0.043943 0.000000 0.000000
# 5 0.000000 0.000000 0.000000 0.000000 0.043943 0.000000
# 6 0.000000 0.000000 0.000000 0.000000 0.000000 0.054162
#
#
# Mechanical properties :
#
#
# Convention : Reuss Voigt Hill
#
# Bulk Modulus (GPa) = 68.91536 75.75192 72.33364
# Shear Modulus (GPa) = 17.40180 18.84008 18.12094
#
# Velocity S-wave (km/s) = 3.31958 3.45404 3.38747
# Velocity P-wave (km/s) = 7.63761 7.99229 7.81696
#
# Compressibility (1/GPa) = 0.01451055
#
# Stress axis : x y z
#
# Youngs Moduli (GPa) = 47.80524 47.80524 28.05847
#
# Poissons Ratio (x) = 0.33143 0.34442
# Poissons Ratio (y) = 0.33143 0.34442
# Poissons Ratio (z) = 0.58681 0.58681
#
# Static dielectric constant tensor:
#      x y z
#    x 1.506960 0.000000 0.000000 
#    y 0.000000 1.506960 0.000000 
#    z 0.000000 0.000000 1.519710 
# 
# From -- ./inp_files/3710.got.cif
#   From: 2010.05.17/outbox.cif.g08.bks.cpg/sg123_2_cif.got.tgz:3710.got - 2010.05.20 11:43:04.
