data_PCOD9561487
_publ_section_title
;
Structure prediction by ZEFSAII (Michael W. Deem and Ramdas Pophale) SiO2 
 PCOD9561487
Probable space group: I -4 2 D
;
_chemical_formula_sum "Si O2"
_cell_formula_units_Z 56
_cell_length_a 16.927113
_cell_length_b 16.927113
_cell_length_c 7.208305
_cell_angle_alpha 90.000000
_cell_angle_beta 90.000000
_cell_angle_gamma 90.000000
_cell_volume 2065.375121
_symmetry_space_group_name_H-M "I -4 2 D"
_symmetry_group_IT_number 122
_symmetry_cell_setting 'tetragonal'
loop_
_space_group_symop_operation_xyz
x,y,z
y,-x,-z
-x,-y,z
-y,x,-z
x,1/2-y,1/4-z
-x,1/2+y,1/4-z
-y,1/2-x,1/4+z
y,1/2+x,1/4+z
1/2+x,1/2+y,1/2+z
1/2+y,1/2-x,1/2-z
1/2-x,1/2-y,1/2+z
1/2-y,1/2+x,1/2-z
1/2+x,-y,3/4-z
1/2-x,y,3/4-z
1/2-y,-x,3/4+z
1/2+y,x,3/4+z
loop_
_atom_site_type_symbol
_atom_site_label
_atom_site_fract_x
_atom_site_fract_y
_atom_site_fract_z
Si Si1 0.105413 0.311325 0.417772
Si Si2 0.902963 0.075360 0.528455
Si Si3 0.191355 0.750000 0.625000
Si Si4 0.425036 0.816303 0.861740
O O1 0.088152 0.333255 0.631622
O O2 0.173093 0.247069 0.370678
O O3 0.141866 0.388144 0.315540
O O4 0.016707 0.293531 0.341371
O O5 0.912977 0.122748 0.717879
O O6 0.983676 0.094657 0.421265
O O7 0.134119 0.750749 0.443942
#
# Coordination Sequence:
#
# PCOD9561487 Si02
#       4
#    16  16   8  16
#     4  11  26  50  83 121 167 216 281 342 419 498
#     4   9  20  41  76 119 160 210 272 335 401 481
#     4  12  30  52  80 122 166 218 274 342 420 498
#     4  11  26  49  81 117 164 219 275 342 416 493
#
# _framework density 27.113719
#
# number of rings (size 3 to 8) (size 9 to 14) (size 15 to 20)
#    0.000    1.429    0.000    2.571    8.000    7.429 
#    5.143    0.000    0.000    0.857    0.000    0.000 
#    0.000    0.000    0.000    0.000    0.000    0.000 
#
# Total GULP energy -156862.052211 kJ/mol
# GULP energy per Si atom -5602.216150 kJ/mol
# Density = 2.705201 g / cm^3
# Si number density = 27.113719 Si / 1000 Ang^3
#
#
#
# Elastic Constant Matrix: (Units=GPa)
#
#
# Indices 1 2 3 4 5 6 
#
# 1 211.0965 85.2632 36.5212 0.0000 0.0000 0.0000
# 2 85.2632 211.0965 36.5212 0.0000 0.0000 0.0000
# 3 36.5212 36.5212 105.9648 0.0000 0.0000 0.0000
# 4 0.0000 0.0000 0.0000 50.4726 0.0000 0.0000
# 5 0.0000 0.0000 0.0000 0.0000 50.4726 0.0000
# 6 0.0000 0.0000 0.0000 0.0000 0.0000 38.6905
#
#
#
# Elastic Compliance Matrix: (Units=1/GPa)
#
#
# Indices 1 2 3 4 5 6 
#
# 1 0.005817 -0.002130 -0.001271 0.000000 0.000000 0.000000
# 2 -0.002130 0.005817 -0.001271 0.000000 0.000000 0.000000
# 3 -0.001271 -0.001271 0.010313 0.000000 0.000000 0.000000
# 4 0.000000 0.000000 0.000000 0.019813 0.000000 0.000000
# 5 0.000000 0.000000 0.000000 0.000000 0.019813 0.000000
# 6 0.000000 0.000000 0.000000 0.000000 0.000000 0.025846
#
#
# Mechanical properties :
#
#
# Convention : Reuss Voigt Hill
#
# Bulk Modulus (GPa) = 79.33665 93.86322 86.59993
# Shear Modulus (GPa) = 49.52261 52.58394 51.05328
#
# Velocity S-wave (km/s) = 4.27837 4.40862 4.34398
# Velocity P-wave (km/s) = 7.33008 7.78512 7.56103
#
# Compressibility (1/GPa) = 0.01260451
#
# Stress axis : x y z
#
# Youngs Moduli (GPa) = 171.90196 171.90196 96.96357
#
# Poissons Ratio (x) = 0.36611 0.12323
# Poissons Ratio (y) = 0.36611 0.12323
# Poissons Ratio (z) = 0.21847 0.21847
#
# Static dielectric constant tensor:
#      x y z
#    x 2.218590 0.000000 0.000000 
#    y 0.000000 2.218590 0.000000 
#    z 0.000000 0.000000 2.062590 
# 
# From -- ./inp_files/2303.got.cif
#   From: 2010.05.17/outbox.cif.g08.bks.cpg/sg122_2_cif.got.tgz:2303.got - 2010.05.20 11:37:33.
