data_PCOD9561260
_publ_section_title
;
Structure prediction by ZEFSAII (Michael W. Deem and Ramdas Pophale) SiO2 
 PCOD9561260
Probable space group: I -4 2 D
;
_chemical_formula_sum "Si O2"
_cell_formula_units_Z 72
_cell_length_a 13.943137
_cell_length_b 13.943137
_cell_length_c 18.926110
_cell_angle_alpha 90.000000
_cell_angle_beta 90.000000
_cell_angle_gamma 90.000000
_cell_volume 3679.445285
_symmetry_space_group_name_H-M "I -4 2 D"
_symmetry_group_IT_number 122
_symmetry_cell_setting 'tetragonal'
loop_
_space_group_symop_operation_xyz
x,y,z
y,-x,-z
-x,-y,z
-y,x,-z
x,1/2-y,1/4-z
-x,1/2+y,1/4-z
-y,1/2-x,1/4+z
y,1/2+x,1/4+z
1/2+x,1/2+y,1/2+z
1/2+y,1/2-x,1/2-z
1/2-x,1/2-y,1/2+z
1/2-y,1/2+x,1/2-z
1/2+x,-y,3/4-z
1/2-x,y,3/4-z
1/2-y,-x,3/4+z
1/2+y,x,3/4+z
loop_
_atom_site_type_symbol
_atom_site_label
_atom_site_fract_x
_atom_site_fract_y
_atom_site_fract_z
Si Si1 0.637536 0.750000 0.125000
Si Si2 0.300094 0.921515 0.526287
Si Si3 0.694916 0.533698 0.146898
Si Si4 0.500000 0.000000 0.468336
Si Si5 0.025621 0.852446 0.013309
Si Si6 0.250000 0.146405 0.875000
O O1 0.581641 0.749832 0.199465
O O2 0.691092 0.648207 0.133605
O O3 0.303673 0.815677 0.564269
O O4 0.240841 0.985677 0.579437
O O5 0.406340 0.967738 0.513588
O O6 0.591905 0.489770 0.167221
O O7 0.760829 0.511972 0.214617
O O8 0.080260 0.824791 0.083758
O O9 0.927054 0.906499 0.027765
#
# Coordination Sequence:
#
# PCOD9561260 Si02
#       6
#     8  16  16   8  16   8
#     4  10  24  45  59  98 130 174 230 271 325 406
#     4  11  25  43  70  97 136 177 228 285 342 411
#     4  11  24  43  69  94 134 182 224 277 340 404
#     4  10  24  44  63 101 134 172 228 276 344 397
#     4  11  24  40  67 104 136 170 213 272 351 408
#     4  12  22  43  69 104 136 164 224 273 343 430
#
# _framework density 19.568168
#
# number of rings (size 3 to 8) (size 9 to 14) (size 15 to 20)
#    0.000    1.111    6.667    0.000    3.111    8.000 
#    0.000    2.222    0.000    0.000    0.000    0.000 
#    0.000    0.000    0.000    0.000    0.000    0.000 
#
# Total GULP energy -200661.167038 kJ/mol
# GULP energy per Si atom -5573.921307 kJ/mol
# Density = 1.952363 g / cm^3
# Si number density = 19.568168 Si / 1000 Ang^3
#
#
#
# Elastic Constant Matrix: (Units=GPa)
#
#
# Indices 1 2 3 4 5 6 
#
# 1 75.4055 13.3859 12.4713 0.0000 0.0000 0.0000
# 2 13.3859 75.4055 12.4713 0.0000 0.0000 0.0000
# 3 12.4713 12.4713 105.0914 0.0000 0.0000 0.0000
# 4 0.0000 0.0000 0.0000 -15.1021 0.0000 0.0000
# 5 0.0000 0.0000 0.0000 0.0000 -15.1021 0.0000
# 6 0.0000 0.0000 0.0000 0.0000 0.0000 -7.4327
#
#
#
# Elastic Compliance Matrix: (Units=1/GPa)
#
#
# Indices 1 2 3 4 5 6 
#
# 1 0.013887 -0.002237 -0.001383 0.000000 0.000000 0.000000
# 2 -0.002237 0.013887 -0.001383 0.000000 0.000000 0.000000
# 3 -0.001383 -0.001383 0.009844 0.000000 0.000000 0.000000
# 4 0.000000 0.000000 0.000000 -0.066216 0.000000 0.000000
# 5 0.000000 0.000000 0.000000 0.000000 -0.066216 0.000000
# 6 0.000000 0.000000 0.000000 0.000000 0.000000 -0.134540
#
#
# Mechanical properties :
#
#
# Convention : Reuss Voigt Hill
#
# Bulk Modulus (GPa) = 36.21256 36.95106 36.58181
# Shear Modulus (GPa) = -23.79316 6.97751 -8.40782
#
# Velocity S-wave (km/s) = -3.49078 1.89037 -2.07509
# Velocity P-wave (km/s) = 1.51614 4.86712 3.60469
#
# Compressibility (1/GPa) = 0.02761473
#
# Stress axis : x y z
#
# Youngs Moduli (GPa) = 72.00802 72.00802 101.58799
#
# Poissons Ratio (x) = 0.16105 0.14046
# Poissons Ratio (y) = 0.16105 0.14046
# Poissons Ratio (z) = 0.09956 0.09956
#
# Static dielectric constant tensor:
#      x y z
#    x 1.719050 0.000000 0.000000 
#    y 0.000000 1.719050 0.000000 
#    z 0.000000 0.000000 1.736640 
# 
# From -- ./inp_files/6168.got.cif
#   From: 2010.05.17/outbox.cif.g08.bks.cpg/sg122_4_cif.got.tgz:6168.got - 2010.05.20 11:37:33.
