data_PCOD9561126
_publ_section_title
;
Structure prediction by ZEFSAII (Michael W. Deem and Ramdas Pophale) SiO2 
 PCOD9561126
Probable space group: I -4 2 D
;
_chemical_formula_sum "Si O2"
_cell_formula_units_Z 112
_cell_length_a 14.966410
_cell_length_b 14.966410
_cell_length_c 23.620677
_cell_angle_alpha 90.000000
_cell_angle_beta 90.000000
_cell_angle_gamma 90.000000
_cell_volume 5290.876420
_symmetry_space_group_name_H-M "I -4 2 D"
_symmetry_group_IT_number 122
_symmetry_cell_setting 'tetragonal'
loop_
_space_group_symop_operation_xyz
x,y,z
y,-x,-z
-x,-y,z
-y,x,-z
x,1/2-y,1/4-z
-x,1/2+y,1/4-z
-y,1/2-x,1/4+z
y,1/2+x,1/4+z
1/2+x,1/2+y,1/2+z
1/2+y,1/2-x,1/2-z
1/2-x,1/2-y,1/2+z
1/2-y,1/2+x,1/2-z
1/2+x,-y,3/4-z
1/2-x,y,3/4-z
1/2-y,-x,3/4+z
1/2+y,x,3/4+z
loop_
_atom_site_type_symbol
_atom_site_label
_atom_site_fract_x
_atom_site_fract_y
_atom_site_fract_z
Si Si1 0.930286 0.580355 0.570050
Si Si2 0.161656 0.230067 0.188214
Si Si3 0.537898 0.746969 0.260554
Si Si4 0.160128 0.365171 0.687095
Si Si5 0.850814 0.845114 0.860950
Si Si6 0.081748 0.379841 0.266033
Si Si7 0.992955 0.607859 0.037832
O O1 0.971107 0.665147 0.535088
O O2 0.880332 0.612161 0.625902
O O3 0.867253 0.533955 0.523093
O O4 0.000000 0.500000 0.583953
O O5 0.131002 0.250000 0.125000
O O6 0.266248 0.212519 0.186075
O O7 0.136984 0.310303 0.229058
O O8 0.106427 0.143230 0.207466
O O9 0.448847 0.786962 0.287395
O O10 0.583623 0.828556 0.227672
O O11 0.600280 0.712029 0.312183
O O12 0.750000 0.814702 0.875000
O O13 0.907407 0.852186 0.918589
O O14 0.848137 0.944616 0.834811
O O15 0.118556 0.479532 0.255070
O O16 0.000000 0.500000 0.043598
#
# Coordination Sequence:
#
# PCOD9561126 Si02
#       7
#    16  16  16  16  16  16  16
#     4  10  23  47  74 101 140 189 236 297 372 444
#     4  12  25  41  68 103 140 189 238 306 361 426
#     4  11  27  48  72 107 141 187 242 303 368 445
#     4  12  27  47  74 104 142 182 246 308 368 437
#     4  11  23  44  67  99 145 193 240 302 357 444
#     4  11  26  42  67 106 149 195 247 295 362 438
#     4  10  22  41  69  98 142 190 242 284 370 438
#
# _framework density 21.168516
#
# number of rings (size 3 to 8) (size 9 to 14) (size 15 to 20)
#    0.000    1.000    0.000    6.857   10.000    2.286 
#    2.571    0.000    0.000    0.000    0.000    0.000 
#    0.000    0.000    0.000    0.000    0.000    0.000 
#
# Total GULP energy -313176.194985 kJ/mol
# GULP energy per Si atom -5592.432053 kJ/mol
# Density = 2.112034 g / cm^3
# Si number density = 21.168516 Si / 1000 Ang^3
#
#
#
# Elastic Constant Matrix: (Units=GPa)
#
#
# Indices 1 2 3 4 5 6 
#
# 1 96.3158 41.9842 56.1250 0.0000 0.0000 0.0000
# 2 41.9842 96.3158 56.1250 0.0000 0.0000 0.0000
# 3 56.1250 56.1250 169.2698 0.0000 0.0000 0.0000
# 4 0.0000 0.0000 0.0000 29.9988 0.0000 0.0000
# 5 0.0000 0.0000 0.0000 0.0000 29.9988 0.0000
# 6 0.0000 0.0000 0.0000 0.0000 0.0000 37.2768
#
#
#
# Elastic Compliance Matrix: (Units=1/GPa)
#
#
# Indices 1 2 3 4 5 6 
#
# 1 0.014149 -0.004256 -0.003280 0.000000 0.000000 0.000000
# 2 -0.004256 0.014149 -0.003280 0.000000 0.000000 0.000000
# 3 -0.003280 -0.003280 0.008083 0.000000 0.000000 0.000000
# 4 0.000000 0.000000 0.000000 0.033335 0.000000 0.000000
# 5 0.000000 0.000000 0.000000 0.000000 0.033335 0.000000
# 6 0.000000 0.000000 0.000000 0.000000 0.000000 0.026826
#
#
# Mechanical properties :
#
#
# Convention : Reuss Voigt Hill
#
# Bulk Modulus (GPa) = 67.80536 74.48553 71.14545
# Shear Modulus (GPa) = 31.96385 33.29935 32.63160
#
# Velocity S-wave (km/s) = 3.89005 3.97049 3.93047
# Velocity P-wave (km/s) = 7.23031 7.50220 7.36751
#
# Compressibility (1/GPa) = 0.01474810
#
# Stress axis : x y z
#
# Youngs Moduli (GPa) = 70.67499 70.67499 123.71633
#
# Poissons Ratio (x) = 0.30081 0.40582
# Poissons Ratio (y) = 0.30081 0.40582
# Poissons Ratio (z) = 0.23183 0.23183
#
# Static dielectric constant tensor:
#      x y z
#    x 1.769970 0.000000 0.000000 
#    y 0.000000 1.769970 0.000000 
#    z 0.000000 0.000000 1.754000 
# 
# From -- ./inp_files/8105.got.cif
#   From: 2010.05.17/outbox.cif.g08.bks.cpg/sg122_5_cif.got.tgz:8105.got - 2010.05.20 11:37:33.
