data_PCOD9561728
_publ_section_title
;
Structure prediction by ZEFSAII (Michael W. Deem and Ramdas Pophale) SiO2 
 PCOD9561728
Probable space group: P 4/M M M
;
_chemical_formula_sum "Si O2"
_cell_formula_units_Z 72
_cell_length_a 20.549912
_cell_length_b 20.549912
_cell_length_c 7.221254
_cell_angle_alpha 90.000000
_cell_angle_beta 90.000000
_cell_angle_gamma 90.000000
_cell_volume 3049.527500
_symmetry_space_group_name_H-M "P 4/M M M"
_symmetry_group_IT_number 123
_symmetry_cell_setting 'tetragonal'
loop_
_space_group_symop_operation_xyz
x,y,z
-y,x,z
-x,-y,z
y,-x,z
x,-y,-z
-x,y,-z
y,x,-z
-y,-x,-z
-x,-y,-z
y,-x,-z
x,y,-z
-y,x,-z
-x,y,z
x,-y,z
-y,-x,z
y,x,z
loop_
_atom_site_type_symbol
_atom_site_label
_atom_site_fract_x
_atom_site_fract_y
_atom_site_fract_z
Si Si1 0.175399 0.928890 0.225342
Si Si2 0.500000 0.750656 0.203240
Si Si3 0.680547 0.893802 0.775478
Si Si4 0.249692 0.354824 0.225467
Si Si5 0.604640 0.500000 0.722829
Si Si6 0.000000 0.424408 0.774590
O O1 0.129541 0.870460 0.287623
O O2 0.250298 0.922109 0.283810
O O3 0.150340 0.000000 0.278665
O O4 0.176231 0.926522 0.000000
O O5 0.429233 0.760449 0.290601
O O6 0.500000 0.673185 0.186078
O O7 0.500000 0.783801 0.000000
O O8 0.679150 0.817951 0.725060
O O9 0.618516 0.937048 0.717143
O O10 0.679063 0.895983 0.000000
O O11 0.312647 0.312647 0.285727
O O12 0.254368 0.358518 0.000000
O O13 0.562592 0.562592 0.772911
O O14 0.612020 0.500000 0.500000
O O15 0.000000 0.500000 0.714587
O O16 0.000000 0.425948 0.000000
#
# Coordination Sequence:
#
# PCOD9561728 Si02
#       6
#    16   8  16  16   8   8
#     4   9  15  22  31  42  57  81 117 160 201 243
#     4  10  19  29  43  63  88 112 141 182 222 256
#     4   9  15  24  34  45  63  91 124 158 198 249
#     4   9  17  26  36  52  74 101 131 164 207 256
#     4   9  18  32  48  64  83 111 146 180 218 267
#     4   9  16  22  32  46  61  83 117 155 196 244
#
# _framework density 23.610215
#
# number of rings (size 3 to 8) (size 9 to 14) (size 15 to 20)
#    0.000    2.889    1.111    1.667    1.556    4.222 
#    0.000    1.667    0.000    0.000    0.000    0.000 
#    0.000    0.000    0.000    2.000    0.000    2.444 
#
# Total GULP energy -401953.478678 kJ/mol
# GULP energy per Si atom -5582.687204 kJ/mol
# Density = 2.355648 g / cm^3
# Si number density = 23.610215 Si / 1000 Ang^3
#
#
#
# Elastic Constant Matrix: (Units=GPa)
#
#
# Indices 1 2 3 4 5 6 
#
# 1 150.0638 61.8731 0.2635 0.0000 0.0000 0.0000
# 2 61.8731 150.0638 0.2635 0.0000 0.0000 0.0000
# 3 0.2635 0.2635 108.8848 0.0000 0.0000 0.0000
# 4 0.0000 0.0000 0.0000 -17.6500 0.0000 0.0000
# 5 0.0000 0.0000 0.0000 0.0000 -17.6500 0.0000
# 6 0.0000 0.0000 0.0000 0.0000 0.0000 62.0608
#
#
#
# Elastic Compliance Matrix: (Units=1/GPa)
#
#
# Indices 1 2 3 4 5 6 
#
# 1 0.008029 -0.003310 -0.000011 0.000000 0.000000 0.000000
# 2 -0.003310 0.008029 -0.000011 0.000000 0.000000 0.000000
# 3 -0.000011 -0.000011 0.009184 0.000000 0.000000 0.000000
# 4 0.000000 0.000000 0.000000 -0.056657 0.000000 0.000000
# 5 0.000000 0.000000 0.000000 0.000000 -0.056657 0.000000
# 6 0.000000 0.000000 0.000000 0.000000 0.000000 0.016113
#
#
# Mechanical properties :
#
#
# Convention : Reuss Voigt Hill
#
# Bulk Modulus (GPa) = 53.83514 59.31251 56.57383
# Shear Modulus (GPa) = -84.60031 28.45963 -28.07034
#
# Velocity S-wave (km/s) = -5.99248 3.47565 -3.45179
# Velocity P-wave (km/s) = 5.00287 6.42518 2.85081
#
# Compressibility (1/GPa) = 0.01857523
#
# Stress axis : x y z
#
# Youngs Moduli (GPa) = 124.55248 124.55248 108.88413
#
# Poissons Ratio (x) = 0.41231 0.00124
# Poissons Ratio (y) = 0.41231 0.00124
# Poissons Ratio (z) = 0.00142 0.00142
#
# Static dielectric constant tensor:
#      x y z
#    x 1.859620 0.000000 0.000000 
#    y 0.000000 1.859620 0.000000 
#    z 0.000000 0.000000 1.924930 
# 
# From -- ./inp_files/1164.got.cif
#   From: 2010.05.17/outbox.cif.g08.bks.cpg/sg123_1_cif.got.tgz:1164.got - 2010.05.20 11:43:04.
