data_PCOD9561746
_publ_section_title
;
Structure prediction by ZEFSAII (Michael W. Deem and Ramdas Pophale) SiO2 
 PCOD9561746
Probable space group: P 4/M M M
;
_chemical_formula_sum "Si O2"
_cell_formula_units_Z 88
_cell_length_a 25.783658
_cell_length_b 25.783658
_cell_length_c 7.616745
_cell_angle_alpha 90.000000
_cell_angle_beta 90.000000
_cell_angle_gamma 90.000000
_cell_volume 5063.589377
_symmetry_space_group_name_H-M "P 4/M M M"
_symmetry_group_IT_number 123
_symmetry_cell_setting 'tetragonal'
loop_
_space_group_symop_operation_xyz
x,y,z
-y,x,z
-x,-y,z
y,-x,z
x,-y,-z
-x,y,-z
y,x,-z
-y,-x,-z
-x,-y,-z
y,-x,-z
x,y,-z
-y,x,-z
-x,y,z
x,-y,z
-y,-x,z
y,x,z
loop_
_atom_site_type_symbol
_atom_site_label
_atom_site_fract_x
_atom_site_fract_y
_atom_site_fract_z
Si Si1 0.941455 0.722907 0.702325
Si Si2 0.000000 0.439273 0.698198
Si Si3 0.207175 0.440619 0.214855
Si Si4 0.613415 0.101686 0.800012
Si Si5 0.665379 0.251657 0.789950
Si Si6 0.750169 0.166794 0.712339
O O1 0.946317 0.739332 0.500000
O O2 0.918462 0.664711 0.704617
O O3 0.891980 0.752837 0.781464
O O4 0.000000 0.724183 0.778696
O O5 0.051570 0.422497 0.795349
O O6 0.000000 0.500000 0.682646
O O7 0.000000 0.416384 0.500000
O O8 0.216107 0.500000 0.273465
O O9 0.150622 0.418788 0.269314
O O10 0.245682 0.394027 0.271566
O O11 0.207646 0.442039 0.000000
O O12 0.628781 0.114140 0.000000
O O13 0.701109 0.298892 0.720254
O O14 0.697509 0.198592 0.755058
O O15 0.663147 0.257421 0.000000
O O16 0.752220 0.164571 0.500000
O O17 0.796757 0.203244 0.775313
#
# Coordination Sequence:
#
# PCOD9561746 Si02
#       6
#    16   8  16  16  16  16
#     4  10  19  30  44  61  85 112 139 174 213 252
#     4  11  23  35  43  53  75 109 147 187 224 249
#     4   9  17  28  41  59  83 107 134 172 214 250
#     4  11  20  30  44  60  78 107 145 180 212 247
#     4   9  16  27  44  63  81 103 136 175 212 251
#     4   9  17  29  45  63  83 108 138 172 211 255
#
# _framework density 17.378976999999999
#
# number of rings (size 3 to 8) (size 9 to 14) (size 15 to 20)
#    0.000    2.273    2.727    1.364    0.000    1.455 
#    0.000    0.000    0.000    1.636    0.000    0.000 
#    0.000    0.727    0.000   10.182    0.000    0.000 
#
# Total GULP energy -490184.337941 kJ/mol
# GULP energy per Si atom -5570.276568 kJ/mol
# Density = 1.733942 g / cm^3
# Si number density = 17.378977 Si / 1000 Ang^3
#
#
#
# Elastic Constant Matrix: (Units=GPa)
#
#
# Indices 1 2 3 4 5 6 
#
# 1 116.3876 71.0929 2.4252 0.0000 0.0000 0.0000
# 2 71.0929 116.3876 2.4252 0.0000 0.0000 0.0000
# 3 2.4252 2.4252 41.7706 0.0000 0.0000 0.0000
# 4 0.0000 0.0000 0.0000 9.1231 0.0000 0.0000
# 5 0.0000 0.0000 0.0000 0.0000 9.1231 0.0000
# 6 0.0000 0.0000 0.0000 0.0000 0.0000 24.9156
#
#
#
# Elastic Compliance Matrix: (Units=1/GPa)
#
#
# Indices 1 2 3 4 5 6 
#
# 1 0.013710 -0.008368 -0.000310 0.000000 0.000000 0.000000
# 2 -0.008368 0.013710 -0.000310 0.000000 0.000000 0.000000
# 3 -0.000310 -0.000310 0.023976 0.000000 0.000000 0.000000
# 4 0.000000 0.000000 0.000000 0.109611 0.000000 0.000000
# 5 0.000000 0.000000 0.000000 0.000000 0.109611 0.000000
# 6 0.000000 0.000000 0.000000 0.000000 0.000000 0.040135
#
#
# Mechanical properties :
#
#
# Convention : Reuss Voigt Hill
#
# Bulk Modulus (GPa) = 29.92262 47.38135 38.65198
# Shear Modulus (GPa) = 14.71150 21.87255 18.29203
#
# Velocity S-wave (km/s) = 2.91264 3.55147 3.24780
# Velocity P-wave (km/s) = 5.34476 6.64380 6.02936
#
# Compressibility (1/GPa) = 0.03341953
#
# Stress axis : x y z
#
# Youngs Moduli (GPa) = 72.94063 72.94063 41.70787
#
# Poissons Ratio (x) = 0.61036 0.01294
# Poissons Ratio (y) = 0.61036 0.01294
# Poissons Ratio (z) = 0.02262 0.02262
#
# Static dielectric constant tensor:
#      x y z
#    x 1.617590 0.000000 0.000000 
#    y 0.000000 1.617590 0.000000 
#    z 0.000000 0.000000 1.730800 
# 
# From -- ./inp_files/1819.got.cif
#   From: 2010.05.17/outbox.cif.g08.bks.cpg/sg123_1_cif.got.tgz:1819.got - 2010.05.20 11:43:04.
