data_PCOD9561699
_publ_section_title
;
Structure prediction by ZEFSAII (Michael W. Deem and Ramdas Pophale) SiO2 
 PCOD9561699
Probable space group: P 4/M M M
;
_chemical_formula_sum "Si O2"
_cell_formula_units_Z 56
_cell_length_a 18.415303
_cell_length_b 18.415303
_cell_length_c 7.349398
_cell_angle_alpha 90.000000
_cell_angle_beta 90.000000
_cell_angle_gamma 90.000000
_cell_volume 2492.352724
_symmetry_space_group_name_H-M "P 4/M M M"
_symmetry_group_IT_number 123
_symmetry_cell_setting 'tetragonal'
loop_
_space_group_symop_operation_xyz
x,y,z
-y,x,z
-x,-y,z
y,-x,z
x,-y,-z
-x,y,-z
y,x,-z
-y,-x,-z
-x,-y,-z
y,-x,-z
x,y,-z
-y,x,-z
-x,y,z
x,-y,z
-y,-x,z
y,x,z
loop_
_atom_site_type_symbol
_atom_site_label
_atom_site_fract_x
_atom_site_fract_y
_atom_site_fract_z
Si Si1 0.416562 0.297559 0.777770
Si Si2 0.805676 0.917724 0.222270
Si Si3 0.000000 0.416912 0.281816
Si Si4 0.338675 0.848290 0.788938
O O1 0.500000 0.306145 0.718696
O O2 0.362546 0.362546 0.723482
O O3 0.383472 0.220006 0.715483
O O4 0.418023 0.297120 0.000000
O O5 0.881563 0.881563 0.272429
O O6 0.740296 0.866735 0.287989
O O7 0.796143 0.000000 0.284077
O O8 0.802083 0.919114 0.000000
O O9 0.925209 0.380195 0.219773
O O10 0.000000 0.500000 0.221850
O O11 0.000000 0.414078 0.500000
O O12 0.326811 0.829637 0.000000
#
# Coordination Sequence:
#
# PCOD9561699 Si02
#       4
#    16  16   8  16
#     4   9  17  28  45  72 104 137 172 211 254 300
#     4   9  16  26  43  70 101 130 162 203 248 288
#     4  11  23  35  49  73 104 133 160 200 255 307
#     4  10  18  32  52  75 100 130 170 208 247 297
#
# _framework density 22.468730999999998
#
# number of rings (size 3 to 8) (size 9 to 14) (size 15 to 20)
#    0.000    2.429    1.429    2.143    0.000    6.286 
#    0.000    2.857    0.000    3.429    0.000    0.000 
#    0.000    1.143    0.000    6.000    0.000    5.714 
#
# Total GULP energy -312795.901475 kJ/mol
# GULP energy per Si atom -5585.641098 kJ/mol
# Density = 2.241759 g / cm^3
# Si number density = 22.468731 Si / 1000 Ang^3
#
#
#
# Elastic Constant Matrix: (Units=GPa)
#
#
# Indices 1 2 3 4 5 6 
#
# 1 157.4185 141.7042 -2.0341 0.0000 0.0000 0.0000
# 2 141.7042 157.4185 -2.0341 0.0000 0.0000 0.0000
# 3 -2.0341 -2.0341 85.2540 0.0000 0.0000 0.0000
# 4 0.0000 0.0000 0.0000 -42.8842 0.0000 0.0000
# 5 0.0000 0.0000 0.0000 0.0000 -42.8842 0.0000
# 6 0.0000 0.0000 0.0000 0.0000 0.0000 33.6847
#
#
#
# Elastic Compliance Matrix: (Units=1/GPa)
#
#
# Indices 1 2 3 4 5 6 
#
# 1 0.033490 -0.030146 0.000080 0.000000 0.000000 0.000000
# 2 -0.030146 0.033490 0.000080 0.000000 0.000000 0.000000
# 3 0.000080 0.000080 0.011733 0.000000 0.000000 0.000000
# 4 0.000000 0.000000 0.000000 -0.023319 0.000000 0.000000
# 5 0.000000 0.000000 0.000000 0.000000 -0.023319 0.000000
# 6 0.000000 0.000000 0.000000 0.000000 0.000000 0.029687
#
#
# Mechanical properties :
#
#
# Convention : Reuss Voigt Hill
#
# Bulk Modulus (GPa) = 53.35889 75.04031 64.19960
# Shear Modulus (GPa) = 39.06765 7.08030 23.07397
#
# Velocity S-wave (km/s) = 4.17436 1.77708 3.20806
# Velocity P-wave (km/s) = 6.85809 6.13847 6.50823
#
# Compressibility (1/GPa) = 0.01874102
#
# Stress axis : x y z
#
# Youngs Moduli (GPa) = 29.85956 29.85956 85.22634
#
# Poissons Ratio (x) = 0.90014 -0.00680
# Poissons Ratio (y) = 0.90014 -0.00680
# Poissons Ratio (z) = -0.00238 -0.00238
#
# Static dielectric constant tensor:
#      x y z
#    x 1.803880 0.000000 0.000000 
#    y 0.000000 1.803880 0.000000 
#    z 0.000000 0.000000 1.854220 
# 
# From -- ./inp_files/589.got.cif
#   From: 2010.05.17/outbox.cif.g08.bks.cpg/sg123_1_cif.got.tgz:589.got - 2010.05.20 11:43:04.
