data_PCOD9561914
_publ_section_title
;
Structure prediction by ZEFSAII (Michael W. Deem and Ramdas Pophale) SiO2 
 PCOD9561914
Probable space group: P 4/M M M
;
_chemical_formula_sum "Si O2"
_cell_formula_units_Z 64
_cell_length_a 13.089363
_cell_length_b 13.089363
_cell_length_c 22.630951
_cell_angle_alpha 90.000000
_cell_angle_beta 90.000000
_cell_angle_gamma 90.000000
_cell_volume 3877.393056
_symmetry_space_group_name_H-M "P 4/M M M"
_symmetry_group_IT_number 123
_symmetry_cell_setting 'tetragonal'
loop_
_space_group_symop_operation_xyz
x,y,z
-y,x,z
-x,-y,z
y,-x,z
x,-y,-z
-x,y,-z
y,x,-z
-y,-x,-z
-x,-y,-z
y,-x,-z
x,y,-z
-y,x,-z
-x,y,z
x,-y,z
-y,-x,z
y,x,z
loop_
_atom_site_type_symbol
_atom_site_label
_atom_site_fract_x
_atom_site_fract_y
_atom_site_fract_z
Si Si1 0.286564 0.879496 0.114791
Si Si2 0.615505 0.876645 0.238639
Si Si3 0.788814 0.617185 0.000000
Si Si4 0.500000 0.876307 0.567694
Si Si5 0.123153 0.289847 0.364534
O O1 0.181818 0.818183 0.107121
O O2 0.338533 0.844151 0.176019
O O3 0.269553 0.000000 0.117933
O O4 0.356274 0.852777 0.058665
O O5 0.500000 0.837675 0.246808
O O6 0.683767 0.855612 0.295809
O O7 0.609115 0.000000 0.236105
O O8 0.759003 0.500000 0.000000
O O9 0.691342 0.691342 0.000000
O O10 0.500000 0.840670 0.500000
O O11 0.605934 0.848696 0.600279
O O12 0.500000 0.000000 0.567832
O O13 0.193522 0.193522 0.382053
O O14 0.000000 0.272148 0.371592
#
# Coordination Sequence:
#
# PCOD9561914 Si02
#       5
#    16  16   8   8  16
#     4  10  20  32  48  72 101 134 170 207 250 300
#     4   9  16  29  49  72  98 131 173 215 251 291
#     4  10  21  36  52  72  96 124 163 210 260 310
#     4   9  18  34  54  75 101 136 178 215 247 295
#     4  10  19  32  52  79 109 139 173 213 259 311
#
# _framework density 16.505936999999999
#
# number of rings (size 3 to 8) (size 9 to 14) (size 15 to 20)
#    0.000    2.375    1.250    1.875    0.000    3.125 
#    0.000    0.000    0.000    7.125    0.000    4.375 
#    0.000    0.000    0.000    0.000    0.000    0.000 
#
# Total GULP energy -356546.090960 kJ/mol
# GULP energy per Si atom -5571.032671 kJ/mol
# Density = 1.646837 g / cm^3
# Si number density = 16.505937 Si / 1000 Ang^3
#
#
#
# Elastic Constant Matrix: (Units=GPa)
#
#
# Indices 1 2 3 4 5 6 
#
# 1 83.5231 43.0300 30.4357 0.0000 0.0000 0.0000
# 2 43.0300 83.5231 30.4357 0.0000 0.0000 0.0000
# 3 30.4357 30.4357 110.7731 0.0000 0.0000 0.0000
# 4 0.0000 0.0000 0.0000 13.2507 0.0000 0.0000
# 5 0.0000 0.0000 0.0000 0.0000 13.2507 0.0000
# 6 0.0000 0.0000 0.0000 0.0000 0.0000 9.8485
#
#
#
# Elastic Compliance Matrix: (Units=1/GPa)
#
#
# Indices 1 2 3 4 5 6 
#
# 1 0.016900 -0.007795 -0.002502 0.000000 0.000000 0.000000
# 2 -0.007795 0.016900 -0.002502 0.000000 0.000000 0.000000
# 3 -0.002502 -0.002502 0.010402 0.000000 0.000000 0.000000
# 4 0.000000 0.000000 0.000000 0.075468 0.000000 0.000000
# 5 0.000000 0.000000 0.000000 0.000000 0.075468 0.000000
# 6 0.000000 0.000000 0.000000 0.000000 0.000000 0.101538
#
#
# Mechanical properties :
#
#
# Convention : Reuss Voigt Hill
#
# Bulk Modulus (GPa) = 53.74717 53.95803 53.85260
# Shear Modulus (GPa) = 15.22184 18.86452 17.04318
#
# Velocity S-wave (km/s) = 3.04008 3.38434 3.21682
# Velocity P-wave (km/s) = 6.70491 6.93056 6.81867
#
# Compressibility (1/GPa) = 0.01860563
#
# Stress axis : x y z
#
# Youngs Moduli (GPa) = 59.17043 59.17043 96.13363
#
# Poissons Ratio (x) = 0.46125 0.24050
# Poissons Ratio (y) = 0.46125 0.24050
# Poissons Ratio (z) = 0.14803 0.14803
#
# Static dielectric constant tensor:
#      x y z
#    x 1.540860 0.000000 0.000000 
#    y 0.000000 1.540860 0.000000 
#    z 0.000000 0.000000 1.578920 
# 
# From -- ./inp_files/7005.got.cif
#   From: 2010.05.17/outbox.cif.g08.bks.cpg/sg123_4_cif.got.tgz:7005.got - 2010.05.20 11:43:04.
