data_PCOD9561655
_publ_section_title
;
Structure prediction by ZEFSAII (Michael W. Deem and Ramdas Pophale) SiO2 
 PCOD9561655
Probable space group: P 4/M M M
;
_chemical_formula_sum "Si O2"
_cell_formula_units_Z 112
_cell_length_a 19.490224
_cell_length_b 19.490224
_cell_length_c 21.242412
_cell_angle_alpha 90.000000
_cell_angle_beta 90.000000
_cell_angle_gamma 90.000000
_cell_volume 8069.330226
_symmetry_space_group_name_H-M "P 4/M M M"
_symmetry_group_IT_number 123
_symmetry_cell_setting 'tetragonal'
loop_
_space_group_symop_operation_xyz
x,y,z
-y,x,z
-x,-y,z
y,-x,z
x,-y,-z
-x,y,-z
y,x,-z
-y,-x,-z
-x,-y,-z
y,-x,-z
x,y,-z
-y,x,-z
-x,y,z
x,-y,z
-y,-x,z
y,x,z
loop_
_atom_site_type_symbol
_atom_site_label
_atom_site_fract_x
_atom_site_fract_y
_atom_site_fract_z
Si Si1 0.784139 0.582770 0.688724
Si Si2 0.078292 0.654800 0.884803
Si Si3 0.922606 0.581741 0.750005
Si Si4 0.191663 0.921273 0.924753
Si Si5 0.581364 0.305971 0.427644
Si Si6 0.788748 0.581937 0.930674
Si Si7 0.582294 0.305577 0.188357
O O1 0.785108 0.500000 0.685929
O O2 0.862069 0.603649 0.703311
O O3 0.749124 0.605467 0.623994
O O4 0.737618 0.600734 0.749110
O O5 0.083189 0.624076 0.814551
O O6 0.089335 0.736398 0.889378
O O7 0.138026 0.618028 0.923230
O O8 0.000000 0.641688 0.907329
O O9 0.913444 0.500000 0.764558
O O10 0.000000 0.590145 0.725287
O O11 0.133766 0.866234 0.907702
O O12 0.169061 0.000000 0.913912
O O13 0.205117 0.914615 0.000000
O O14 0.591134 0.282957 0.500000
O O15 0.500000 0.318682 0.418876
O O16 0.624948 0.375053 0.418802
O O17 0.798880 0.500000 0.926189
O O18 0.739238 0.601204 0.873106
O O19 0.759804 0.597574 0.000000
O O20 0.500000 0.315884 0.188083
O O21 0.624182 0.375819 0.188157
#
# Coordination Sequence:
#
# PCOD9561655 Si02
#       7
#    16  16  16  16  16  16  16
#     4   9  16  29  46  63  85 110 138 173 209 249
#     4  10  18  29  45  64  86 108 132 167 210 254
#     4   9  16  27  45  65  85 112 142 169 202 248
#     4   9  18  31  44  58  77 101 130 165 205 249
#     4   9  17  28  43  64  89 117 146 177 216 257
#     4  10  20  32  44  60  83 109 137 171 213 260
#     4  10  20  33  47  62  80 106 142 182 222 261
#
# _framework density 13.879714
#
# number of rings (size 3 to 8) (size 9 to 14) (size 15 to 20)
#    0.000    2.571    1.429    1.286    0.000    3.000 
#    0.000    2.143    0.000    3.000    0.000    5.000 
#    0.000    0.000    0.000    0.000    0.000    0.000 
#
# Total GULP energy -623698.775117 kJ/mol
# GULP energy per Si atom -5568.739064 kJ/mol
# Density = 1.384812 g / cm^3
# Si number density = 13.879714 Si / 1000 Ang^3
#
#
#
# Elastic Constant Matrix: (Units=GPa)
#
#
# Indices 1 2 3 4 5 6 
#
# 1 60.9521 42.8226 43.1147 0.0000 0.0000 0.0000
# 2 42.8226 60.9521 43.1147 0.0000 0.0000 0.0000
# 3 43.1147 43.1147 86.8046 0.0000 0.0000 0.0000
# 4 0.0000 0.0000 0.0000 15.1293 0.0000 0.0000
# 5 0.0000 0.0000 0.0000 0.0000 15.1293 0.0000
# 6 0.0000 0.0000 0.0000 0.0000 0.0000 18.6368
#
#
#
# Elastic Compliance Matrix: (Units=1/GPa)
#
#
# Indices 1 2 3 4 5 6 
#
# 1 0.035783 -0.019375 -0.008150 0.000000 0.000000 0.000000
# 2 -0.019375 0.035783 -0.008150 0.000000 0.000000 0.000000
# 3 -0.008150 -0.008150 0.019616 0.000000 0.000000 0.000000
# 4 0.000000 0.000000 0.000000 0.066097 0.000000 0.000000
# 5 0.000000 0.000000 0.000000 0.000000 0.066097 0.000000
# 6 0.000000 0.000000 0.000000 0.000000 0.000000 0.053657
#
#
# Mechanical properties :
#
#
# Convention : Reuss Voigt Hill
#
# Bulk Modulus (GPa) = 50.42039 51.86808 51.14423
# Shear Modulus (GPa) = 14.08476 15.08955 14.58716
#
# Velocity S-wave (km/s) = 3.18901 3.30080 3.24538
# Velocity P-wave (km/s) = 7.06861 7.20957 7.13944
#
# Compressibility (1/GPa) = 0.01983325
#
# Stress axis : x y z
#
# Youngs Moduli (GPa) = 27.94597 27.94597 50.97940
#
# Poissons Ratio (x) = 0.54146 0.41546
# Poissons Ratio (y) = 0.54146 0.41546
# Poissons Ratio (z) = 0.22775 0.22775
#
# Static dielectric constant tensor:
#      x y z
#    x 1.452390 0.000000 0.000000 
#    y 0.000000 1.452390 0.000000 
#    z 0.000000 0.000000 1.461080 
# 
# From -- ./inp_files/5895.got.cif
#   From: 2010.05.17/outbox.cif.g08.bks.cpg/sg123_3_cif.got.tgz:5895.got - 2010.05.20 11:43:04.
