data_PCOD9561446
_publ_section_title
;
Structure prediction by ZEFSAII (Michael W. Deem and Ramdas Pophale) SiO2 
 PCOD9561446
Probable space group: I -4 2 D
;
_chemical_formula_sum "Si O2"
_cell_formula_units_Z 32
_cell_length_a 12.092741
_cell_length_b 12.092741
_cell_length_c 8.084830
_cell_angle_alpha 90.000000
_cell_angle_beta 90.000000
_cell_angle_gamma 90.000000
_cell_volume 1182.280142
_symmetry_space_group_name_H-M "I -4 2 D"
_symmetry_group_IT_number 122
_symmetry_cell_setting 'tetragonal'
loop_
_space_group_symop_operation_xyz
x,y,z
y,-x,-z
-x,-y,z
-y,x,-z
x,1/2-y,1/4-z
-x,1/2+y,1/4-z
-y,1/2-x,1/4+z
y,1/2+x,1/4+z
1/2+x,1/2+y,1/2+z
1/2+y,1/2-x,1/2-z
1/2-x,1/2-y,1/2+z
1/2-y,1/2+x,1/2-z
1/2+x,-y,3/4-z
1/2-x,y,3/4-z
1/2-y,-x,3/4+z
1/2+y,x,3/4+z
loop_
_atom_site_type_symbol
_atom_site_label
_atom_site_fract_x
_atom_site_fract_y
_atom_site_fract_z
Si Si1 0.455648 0.358596 0.403858
Si Si2 0.418081 0.118025 0.353008
O O1 0.371502 0.459124 0.441089
O O2 0.391096 0.244562 0.384251
O O3 0.539888 0.376859 0.250780
O O4 0.549931 0.124385 0.307803
#
# Coordination Sequence:
#
# PCOD9561446 Si02
#       2
#    16  16
#     4  11  24  47  73 104 143 185 235 291 348 416
#     4  11  24  47  73 104 143 185 235 291 348 416
#
# _framework density 27.066341000000001
#
# number of rings (size 3 to 8) (size 9 to 14) (size 15 to 20)
#    0.000    1.000    0.000    9.000    0.000    0.000 
#    0.000   70.000    0.000    0.000    0.000    0.000 
#    0.000    0.000    0.000    0.000    0.000    0.000 
#
# Total GULP energy -89231.092869 kJ/mol
# GULP energy per Si atom -5576.943304 kJ/mol
# Density = 2.700474 g / cm^3
# Si number density = 27.066341 Si / 1000 Ang^3
#
#
#
# Elastic Constant Matrix: (Units=GPa)
#
#
# Indices 1 2 3 4 5 6 
#
# 1 148.1230 -14.4949 27.6122 0.0000 0.0000 0.0000
# 2 -14.4949 148.1230 27.6122 0.0000 0.0000 0.0000
# 3 27.6122 27.6122 132.5692 0.0000 0.0000 0.0000
# 4 0.0000 0.0000 0.0000 32.4858 0.0000 0.0000
# 5 0.0000 0.0000 0.0000 0.0000 32.4858 0.0000
# 6 0.0000 0.0000 0.0000 0.0000 0.0000 -15.8506
#
#
#
# Elastic Compliance Matrix: (Units=1/GPa)
#
#
# Indices 1 2 3 4 5 6 
#
# 1 0.007169 0.001019 -0.001706 0.000000 0.000000 0.000000
# 2 0.001019 0.007169 -0.001706 0.000000 0.000000 0.000000
# 3 -0.001706 -0.001706 0.008254 0.000000 0.000000 0.000000
# 4 0.000000 0.000000 0.000000 0.030783 0.000000 0.000000
# 5 0.000000 0.000000 0.000000 0.000000 0.030783 0.000000
# 6 0.000000 0.000000 0.000000 0.000000 0.000000 -0.063089
#
#
# Mechanical properties :
#
#
# Convention : Reuss Voigt Hill
#
# Bulk Modulus (GPa) = 56.15370 56.69714 56.42542
# Shear Modulus (GPa) = 157.29896 35.69660 96.49778
#
# Velocity S-wave (km/s) = 7.63166 3.63555 5.97743
# Velocity P-wave (km/s) = 9.92210 6.21417 8.27840
#
# Compressibility (1/GPa) = 0.01780827
#
# Stress axis : x y z
#
# Youngs Moduli (GPa) = 139.49267 139.49267 121.15788
#
# Poissons Ratio (x) = -0.14221 0.20663
# Poissons Ratio (y) = -0.14221 0.20663
# Poissons Ratio (z) = 0.23790 0.23790
#
# Static dielectric constant tensor:
#      x y z
#    x 2.160840 0.000000 0.000000 
#    y 0.000000 2.160840 0.000000 
#    z 0.000000 0.000000 2.303090 
# 
# From -- ./inp_files/1695.got.cif
#   From: 2010.05.17/outbox.cif.g08.bks.cpg/sg122_1_cif.got.tgz:1695.got - 2010.05.20 11:37:33.
