data_PCOD9561076
_publ_section_title
;
Structure prediction by ZEFSAII (Michael W. Deem and Ramdas Pophale) SiO2 
 PCOD9561076
Probable space group: I -4 2 D
;
_chemical_formula_sum "Si O2"
_cell_formula_units_Z 96
_cell_length_a 21.060447
_cell_length_b 21.060447
_cell_length_c 11.207222
_cell_angle_alpha 90.000000
_cell_angle_beta 90.000000
_cell_angle_gamma 90.000000
_cell_volume 4970.878455
_symmetry_space_group_name_H-M "I -4 2 D"
_symmetry_group_IT_number 122
_symmetry_cell_setting 'tetragonal'
loop_
_space_group_symop_operation_xyz
x,y,z
y,-x,-z
-x,-y,z
-y,x,-z
x,1/2-y,1/4-z
-x,1/2+y,1/4-z
-y,1/2-x,1/4+z
y,1/2+x,1/4+z
1/2+x,1/2+y,1/2+z
1/2+y,1/2-x,1/2-z
1/2-x,1/2-y,1/2+z
1/2-y,1/2+x,1/2-z
1/2+x,-y,3/4-z
1/2-x,y,3/4-z
1/2-y,-x,3/4+z
1/2+y,x,3/4+z
loop_
_atom_site_type_symbol
_atom_site_label
_atom_site_fract_x
_atom_site_fract_y
_atom_site_fract_z
Si Si1 0.835756 0.090742 0.459832
Si Si2 0.207005 0.865241 0.208581
Si Si3 0.752717 0.611576 0.505471
Si Si4 0.003390 0.923072 0.168117
Si Si5 0.122423 0.608469 0.252657
Si Si6 0.851294 0.963531 0.591885
O O1 0.821365 0.094126 0.318624
O O2 0.782160 0.133776 0.522843
O O3 0.906852 0.114780 0.478601
O O4 0.830697 0.020745 0.509719
O O5 0.173918 0.796521 0.229727
O O6 0.184135 0.894521 0.083312
O O7 0.750000 0.579429 0.375000
O O8 0.681179 0.622890 0.546739
O O9 0.790969 0.568264 0.595220
O O10 0.012898 0.897450 0.301684
O O11 0.942498 0.890083 0.105683
O O12 0.063966 0.902252 0.089159
O O13 0.000000 0.000000 0.164305
#
# Coordination Sequence:
#
# PCOD9561076 Si02
#       6
#    16  16  16  16  16  16
#     4  10  22  38  63  87 123 168 208 250 305 386
#     4   9  20  41  66  86 115 169 211 248 319 380
#     4   9  18  38  65  87 116 165 204 256 318 376
#     4  12  23  36  59  97 132 161 207 264 323 381
#     4  11  20  38  66  92 123 163 204 269 322 376
#     4  11  24  39  61  92 127 171 209 258 310 381
#
# _framework density 19.312481999999999
#
# number of rings (size 3 to 8) (size 9 to 14) (size 15 to 20)
#    0.000    1.667    6.667    0.000    4.667    0.000 
#    0.000    0.000   51.333    0.000    0.000    0.000 
#    0.000    0.000    0.000    0.000    0.000    0.000 
#
# Total GULP energy -267783.272432 kJ/mol
# GULP energy per Si atom -5578.818176 kJ/mol
# Density = 1.926853 g / cm^3
# Si number density = 19.312482 Si / 1000 Ang^3
#
#
#
# Elastic Constant Matrix: (Units=GPa)
#
#
# Indices 1 2 3 4 5 6 
#
# 1 101.9959 27.5349 42.6386 0.0000 0.0000 0.0000
# 2 27.5349 101.9959 42.6386 0.0000 0.0000 0.0000
# 3 42.6386 42.6386 47.7592 0.0000 0.0000 0.0000
# 4 0.0000 0.0000 0.0000 9.9712 0.0000 0.0000
# 5 0.0000 0.0000 0.0000 0.0000 9.9712 0.0000
# 6 0.0000 0.0000 0.0000 0.0000 0.0000 7.1413
#
#
#
# Elastic Compliance Matrix: (Units=1/GPa)
#
#
# Indices 1 2 3 4 5 6 
#
# 1 0.016079 0.002649 -0.016720 0.000000 0.000000 0.000000
# 2 0.002649 0.016079 -0.016720 0.000000 0.000000 0.000000
# 3 -0.016720 -0.016720 0.050793 0.000000 0.000000 0.000000
# 4 0.000000 0.000000 0.000000 0.100288 0.000000 0.000000
# 5 0.000000 0.000000 0.000000 0.000000 0.100288 0.000000
# 6 0.000000 0.000000 0.000000 0.000000 0.000000 0.140030
#
#
# Mechanical properties :
#
#
# Convention : Reuss Voigt Hill
#
# Bulk Modulus (GPa) = 46.79689 53.04169 49.91929
# Shear Modulus (GPa) = 10.15720 14.67935 12.41828
#
# Velocity S-wave (km/s) = 2.29583 2.75998 2.53853
# Velocity P-wave (km/s) = 5.59569 6.13850 5.87337
#
# Compressibility (1/GPa) = 0.02136894
#
# Stress axis : x y z
#
# Youngs Moduli (GPa) = 62.19382 62.19382 19.68792
#
# Poissons Ratio (x) = -0.16475 0.32918
# Poissons Ratio (y) = -0.16475 0.32918
# Poissons Ratio (z) = 1.03987 1.03987
#
# Static dielectric constant tensor:
#      x y z
#    x 1.706240 0.000000 0.000000 
#    y 0.000000 1.706240 0.000000 
#    z 0.000000 0.000000 1.674950 
# 
# From -- ./inp_files/4481.got.cif
#   From: 2010.05.17/outbox.cif.g08.bks.cpg/sg122_3_cif.got.tgz:4481.got - 2010.05.20 11:37:33.
