data_PCOD9561028
_publ_section_title
;
Structure prediction by ZEFSAII (Michael W. Deem and Ramdas Pophale) SiO2 
 PCOD9561028
Probable space group: I -4 2 D
;
_chemical_formula_sum "Si O2"
_cell_formula_units_Z 96
_cell_length_a 14.387303
_cell_length_b 14.387303
_cell_length_c 22.722608
_cell_angle_alpha 90.000000
_cell_angle_beta 90.000000
_cell_angle_gamma 90.000000
_cell_volume 4703.454600
_symmetry_space_group_name_H-M "I -4 2 D"
_symmetry_group_IT_number 122
_symmetry_cell_setting 'tetragonal'
loop_
_space_group_symop_operation_xyz
x,y,z
y,-x,-z
-x,-y,z
-y,x,-z
x,1/2-y,1/4-z
-x,1/2+y,1/4-z
-y,1/2-x,1/4+z
y,1/2+x,1/4+z
1/2+x,1/2+y,1/2+z
1/2+y,1/2-x,1/2-z
1/2-x,1/2-y,1/2+z
1/2-y,1/2+x,1/2-z
1/2+x,-y,3/4-z
1/2-x,y,3/4-z
1/2-y,-x,3/4+z
1/2+y,x,3/4+z
loop_
_atom_site_type_symbol
_atom_site_label
_atom_site_fract_x
_atom_site_fract_y
_atom_site_fract_z
Si Si1 0.914749 0.857592 0.168811
Si Si2 0.354855 0.610661 0.857932
Si Si3 0.814917 0.672994 0.196426
Si Si4 0.780973 0.877901 0.811279
Si Si5 0.523252 0.841738 0.990369
Si Si6 0.366798 0.470660 0.024136
O O1 0.840459 0.782263 0.194076
O O2 0.890474 0.868619 0.099409
O O3 0.014705 0.812315 0.180865
O O4 0.902587 0.954309 0.201472
O O5 0.250000 0.582974 0.875000
O O6 0.346576 0.715218 0.832853
O O7 0.383419 0.544046 0.804491
O O8 0.421524 0.615905 0.913598
O O9 0.799834 0.635992 0.262496
O O10 0.750000 0.843264 0.875000
O O11 0.875307 0.829493 0.789028
O O12 0.477658 0.740097 0.992605
O O13 0.410966 0.573177 0.022067
#
# Coordination Sequence:
#
# PCOD9561028 Si02
#       6
#    16  16  16  16  16  16
#     4  11  21  46  69  97 140 186 232 285 354 422
#     4  11  19  41  66  98 129 180 223 270 346 414
#     4  10  21  40  75  90 133 190 220 278 367 409
#     4  11  25  44  67 108 136 173 241 294 342 431
#     4  11  24  41  73  97 139 181 224 291 343 415
#     4  11  23  41  66  97 139 175 228 279 339 420
#
# _framework density 20.410530000000001
#
# number of rings (size 3 to 8) (size 9 to 14) (size 15 to 20)
#    0.000    1.167    6.667    0.500    2.333    1.333 
#   12.000    0.833    0.000    0.000    0.000    0.000 
#    0.000    0.000    0.000    0.000    0.000    0.000 
#
# Total GULP energy -267946.693588 kJ/mol
# GULP energy per Si atom -5582.222783 kJ/mol
# Density = 2.036407 g / cm^3
# Si number density = 20.410530 Si / 1000 Ang^3
#
#
#
# Elastic Constant Matrix: (Units=GPa)
#
#
# Indices 1 2 3 4 5 6 
#
# 1 74.8555 -0.8371 35.0966 0.0000 0.0000 0.0000
# 2 -0.8371 74.8555 35.0966 0.0000 0.0000 0.0000
# 3 35.0966 35.0966 154.9956 0.0000 0.0000 0.0000
# 4 0.0000 0.0000 0.0000 33.2124 0.0000 0.0000
# 5 0.0000 0.0000 0.0000 0.0000 33.2124 0.0000
# 6 0.0000 0.0000 0.0000 0.0000 0.0000 29.0021
#
#
#
# Elastic Compliance Matrix: (Units=1/GPa)
#
#
# Indices 1 2 3 4 5 6 
#
# 1 0.015208 0.001997 -0.003896 0.000000 0.000000 0.000000
# 2 0.001997 0.015208 -0.003896 0.000000 0.000000 0.000000
# 3 -0.003896 -0.003896 0.008216 0.000000 0.000000 0.000000
# 4 0.000000 0.000000 0.000000 0.030109 0.000000 0.000000
# 5 0.000000 0.000000 0.000000 0.000000 0.030109 0.000000
# 6 0.000000 0.000000 0.000000 0.000000 0.000000 0.034480
#
#
# Mechanical properties :
#
#
# Convention : Reuss Voigt Hill
#
# Bulk Modulus (GPa) = 36.97920 49.26877 43.12399
# Shear Modulus (GPa) = 32.48133 34.77539 33.62836
#
# Velocity S-wave (km/s) = 3.99356 4.13218 4.06347
# Velocity P-wave (km/s) = 6.27868 6.85258 6.57190
#
# Compressibility (1/GPa) = 0.02704223
#
# Stress axis : x y z
#
# Youngs Moduli (GPa) = 65.75513 65.75513 121.71276
#
# Poissons Ratio (x) = -0.13129 0.47416
# Poissons Ratio (y) = -0.13129 0.47416
# Poissons Ratio (z) = 0.25616 0.25616
#
# Static dielectric constant tensor:
#      x y z
#    x 1.744390 0.000000 0.000000 
#    y 0.000000 1.744390 0.000000 
#    z 0.000000 0.000000 1.751710 
# 
# From -- ./inp_files/7313.got.cif
#   From: 2010.05.17/outbox.cif.g08.bks.cpg/sg122_4_cif.got.tgz:7313.got - 2010.05.20 11:37:33.
