data_PCOD9561818
_publ_section_title
;
Structure prediction by ZEFSAII (Michael W. Deem and Ramdas Pophale) SiO2 
 PCOD9561818
Probable space group: P 4/M M M
;
_chemical_formula_sum "Si O2"
_cell_formula_units_Z 96
_cell_length_a 25.044370
_cell_length_b 25.044370
_cell_length_c 7.468764
_cell_angle_alpha 90.000000
_cell_angle_beta 90.000000
_cell_angle_gamma 90.000000
_cell_volume 4684.561657
_symmetry_space_group_name_H-M "P 4/M M M"
_symmetry_group_IT_number 123
_symmetry_cell_setting 'tetragonal'
loop_
_space_group_symop_operation_xyz
x,y,z
-y,x,z
-x,-y,z
y,-x,z
x,-y,-z
-x,y,-z
y,x,-z
-y,-x,-z
-x,-y,-z
y,-x,-z
x,y,-z
-y,x,-z
-x,y,z
x,-y,z
-y,-x,z
y,x,z
loop_
_atom_site_type_symbol
_atom_site_label
_atom_site_fract_x
_atom_site_fract_y
_atom_site_fract_z
Si Si1 0.059805 0.732558 0.218758
Si Si2 0.350921 0.145469 0.210365
Si Si3 0.144791 0.940338 0.218281
Si Si4 0.352590 0.733505 0.215080
Si Si5 0.438293 0.059093 0.715914
Si Si6 0.560529 0.353873 0.285728
O O1 0.106970 0.695077 0.285849
O O2 0.068172 0.793928 0.271339
O O3 0.000000 0.716063 0.275708
O O4 0.059698 0.730680 0.000000
O O5 0.354032 0.205634 0.283365
O O6 0.403790 0.109397 0.225095
O O7 0.339207 0.151744 0.000000
O O8 0.104724 0.895277 0.282043
O O9 0.128599 0.000000 0.272836
O O10 0.144325 0.939471 0.000000
O O11 0.302943 0.697058 0.281305
O O12 0.406317 0.700252 0.253333
O O13 0.348011 0.735443 0.000000
O O14 0.437062 0.058546 0.500000
O O15 0.500000 0.064021 0.771277
O O16 0.418824 0.000000 0.776817
O O17 0.557473 0.360158 0.500000
O O18 0.500000 0.353056 0.216491
O O19 0.597501 0.402500 0.216553
#
# Coordination Sequence:
#
# PCOD9561818 Si02
#       6
#    16  16  16  16  16  16
#     4   8  14  24  37  55  79 105 138 184 230 264
#     4  10  19  30  48  71  91 118 159 199 231 269
#     4   8  13  20  30  47  74 108 143 178 218 264
#     4   9  19  34  48  66  96 129 158 191 232 276
#     4   9  19  35  51  68  94 125 153 186 234 288
#     4   9  18  33  53  75  97 122 152 186 225 268
#
# _framework density 20.492846
#
# number of rings (size 3 to 8) (size 9 to 14) (size 15 to 20)
#    0.000    3.167    0.000    2.000    0.000    4.000 
#    0.000    9.167    0.000    0.000    0.000    2.333 
#    0.000    0.000    0.000    0.000    0.000    0.167 
#
# Total GULP energy -535396.671609 kJ/mol
# GULP energy per Si atom -5577.048663 kJ/mol
# Density = 2.044620 g / cm^3
# Si number density = 20.492846 Si / 1000 Ang^3
#
#
#
# Elastic Constant Matrix: (Units=GPa)
#
#
# Indices 1 2 3 4 5 6 
#
# 1 189.8990 124.1818 3.1601 0.0000 0.0000 0.0000
# 2 124.1818 189.8990 3.1601 0.0000 0.0000 0.0000
# 3 3.1601 3.1601 59.8128 0.0000 0.0000 0.0000
# 4 0.0000 0.0000 0.0000 7.1515 0.0000 0.0000
# 5 0.0000 0.0000 0.0000 0.0000 7.1515 0.0000
# 6 0.0000 0.0000 0.0000 0.0000 0.0000 34.0712
#
#
#
# Elastic Compliance Matrix: (Units=1/GPa)
#
#
# Indices 1 2 3 4 5 6 
#
# 1 0.009202 -0.006015 -0.000168 0.000000 0.000000 0.000000
# 2 -0.006015 0.009202 -0.000168 0.000000 0.000000 0.000000
# 3 -0.000168 -0.000168 0.016737 0.000000 0.000000 0.000000
# 4 0.000000 0.000000 0.000000 0.139831 0.000000 0.000000
# 5 0.000000 0.000000 0.000000 0.000000 0.139831 0.000000
# 6 0.000000 0.000000 0.000000 0.000000 0.000000 0.029350
#
#
# Mechanical properties :
#
#
# Convention : Reuss Voigt Hill
#
# Bulk Modulus (GPa) = 44.56803 77.84607 61.20705
# Shear Modulus (GPa) = 13.72364 30.28209 22.00286
#
# Velocity S-wave (km/s) = 2.59062 3.84824 3.28027
# Velocity P-wave (km/s) = 5.54470 7.60360 6.65426
#
# Compressibility (1/GPa) = 0.02243761
#
# Stress axis : x y z
#
# Youngs Moduli (GPa) = 108.67199 108.67199 59.74924
#
# Poissons Ratio (x) = 0.65363 0.01006
# Poissons Ratio (y) = 0.65363 0.01006
# Poissons Ratio (z) = 0.01830 0.01830
#
# Static dielectric constant tensor:
#      x y z
#    x 1.714760 0.000000 0.000000 
#    y 0.000000 1.714760 0.000000 
#    z 0.000000 0.000000 1.811200 
# 
# From -- ./inp_files/1552.got.cif
#   From: 2010.05.17/outbox.cif.g08.bks.cpg/sg123_1_cif.got.tgz:1552.got - 2010.05.20 11:43:04.
