data_PCOD9561498
_publ_section_title
;
Structure prediction by ZEFSAII (Michael W. Deem and Ramdas Pophale) SiO2 
 PCOD9561498
Probable space group: I -4 2 D
;
_chemical_formula_sum "Si O2"
_cell_formula_units_Z 40
_cell_length_a 13.606374
_cell_length_b 13.606374
_cell_length_c 8.697367
_cell_angle_alpha 90.000000
_cell_angle_beta 90.000000
_cell_angle_gamma 90.000000
_cell_volume 1610.173241
_symmetry_space_group_name_H-M "I -4 2 D"
_symmetry_group_IT_number 122
_symmetry_cell_setting 'tetragonal'
loop_
_space_group_symop_operation_xyz
x,y,z
y,-x,-z
-x,-y,z
-y,x,-z
x,1/2-y,1/4-z
-x,1/2+y,1/4-z
-y,1/2-x,1/4+z
y,1/2+x,1/4+z
1/2+x,1/2+y,1/2+z
1/2+y,1/2-x,1/2-z
1/2-x,1/2-y,1/2+z
1/2-y,1/2+x,1/2-z
1/2+x,-y,3/4-z
1/2-x,y,3/4-z
1/2-y,-x,3/4+z
1/2+y,x,3/4+z
loop_
_atom_site_type_symbol
_atom_site_label
_atom_site_fract_x
_atom_site_fract_y
_atom_site_fract_z
Si Si1 0.902708 0.609840 0.322041
Si Si2 0.877750 0.913637 0.569214
Si Si3 0.750000 0.725087 0.875000
O O1 0.871603 0.516944 0.217410
O O2 0.888232 0.577938 0.498760
O O3 0.835716 0.705325 0.309415
O O4 0.793226 0.843492 0.508042
O O5 0.979468 0.868741 0.505350
#
# Coordination Sequence:
#
# PCOD9561498 Si02
#       3
#    16  16   8
#     4  11  27  52  80 118 162 207 265 336 399 475
#     4  11  27  51  82 115 163 210 266 332 397 480
#     4  12  30  48  84 118 156 216 266 322 402 474
#
# _framework density 24.842046
#
# number of rings (size 3 to 8) (size 9 to 14) (size 15 to 20)
#    0.000    0.800    0.000    6.000   11.200    9.600 
#    0.000    0.000    0.000    0.000    0.000    0.000 
#    0.000    0.000    0.000    0.000    0.000    0.000 
#
# Total GULP energy -112359.102902 kJ/mol
# GULP energy per Si atom -5617.955145 kJ/mol
# Density = 2.478550 g / cm^3
# Si number density = 24.842046 Si / 1000 Ang^3
#
#
#
# Elastic Constant Matrix: (Units=GPa)
#
#
# Indices 1 2 3 4 5 6 
#
# 1 56.6393 63.2144 11.8303 0.0000 0.0000 0.0000
# 2 63.2144 56.6393 11.8303 0.0000 0.0000 0.0000
# 3 11.8303 11.8303 101.0591 0.0000 0.0000 0.0000
# 4 0.0000 0.0000 0.0000 46.2675 0.0000 0.0000
# 5 0.0000 0.0000 0.0000 0.0000 46.2675 0.0000
# 6 0.0000 0.0000 0.0000 0.0000 0.0000 87.4298
#
#
#
# Elastic Compliance Matrix: (Units=1/GPa)
#
#
# Indices 1 2 3 4 5 6 
#
# 1 -0.071773 0.080314 -0.001000 0.000000 0.000000 0.000000
# 2 0.080314 -0.071773 -0.001000 0.000000 0.000000 0.000000
# 3 -0.001000 -0.001000 0.010129 0.000000 0.000000 0.000000
# 4 0.000000 0.000000 0.000000 0.021613 0.000000 0.000000
# 5 0.000000 0.000000 0.000000 0.000000 0.021613 0.000000
# 6 0.000000 0.000000 0.000000 0.000000 0.000000 0.011438
#
#
# Mechanical properties :
#
#
# Convention : Reuss Voigt Hill
#
# Bulk Modulus (GPa) = 43.08160 43.12084 43.10122
# Shear Modulus (GPa) = -21.96414 44.49047 11.26317
#
# Velocity S-wave (km/s) = -2.97669 4.23653 2.13161
# Velocity P-wave (km/s) = 2.35915 6.42858 4.84212
#
# Compressibility (1/GPa) = 0.02321177
#
# Stress axis : x y z
#
# Youngs Moduli (GPa) = -13.93279 -13.93279 98.72367
#
# Poissons Ratio (x) = 1.11900 0.09871
# Poissons Ratio (y) = 1.11900 0.09871
# Poissons Ratio (z) = -0.01393 -0.01393
#
# Static dielectric constant tensor:
#      x y z
#    x 1.958170 0.000000 0.000000 
#    y 0.000000 1.958170 0.000000 
#    z 0.000000 0.000000 1.890440 
# 
# From -- ./inp_files/1850.got.cif
#   From: 2010.05.17/outbox.cif.g08.bks.cpg/sg122_1_cif.got.tgz:1850.got - 2010.05.20 11:37:33.
