data_PCOD9561518
_publ_section_title
;
Structure prediction by ZEFSAII (Michael W. Deem and Ramdas Pophale) SiO2 
 PCOD9561518
Probable space group: I -4 2 D
;
_chemical_formula_sum "Si O2"
_cell_formula_units_Z 60
_cell_length_a 14.523400
_cell_length_b 14.523400
_cell_length_c 13.758730
_cell_angle_alpha 90.000000
_cell_angle_beta 90.000000
_cell_angle_gamma 90.000000
_cell_volume 2902.117190
_symmetry_space_group_name_H-M "I -4 2 D"
_symmetry_group_IT_number 122
_symmetry_cell_setting 'tetragonal'
loop_
_space_group_symop_operation_xyz
x,y,z
y,-x,-z
-x,-y,z
-y,x,-z
x,1/2-y,1/4-z
-x,1/2+y,1/4-z
-y,1/2-x,1/4+z
y,1/2+x,1/4+z
1/2+x,1/2+y,1/2+z
1/2+y,1/2-x,1/2-z
1/2-x,1/2-y,1/2+z
1/2-y,1/2+x,1/2-z
1/2+x,-y,3/4-z
1/2-x,y,3/4-z
1/2-y,-x,3/4+z
1/2+y,x,3/4+z
loop_
_atom_site_type_symbol
_atom_site_label
_atom_site_fract_x
_atom_site_fract_y
_atom_site_fract_z
Si Si1 0.000000 0.500000 0.250000
Si Si2 0.658948 0.549878 0.652052
Si Si3 0.750000 0.249250 0.375000
Si Si4 0.973270 0.394883 0.623038
Si Si5 0.209676 0.601424 0.728903
O O1 0.914119 0.526726 0.181406
O O2 0.695862 0.654284 0.639874
O O3 0.615161 0.535697 0.758366
O O4 0.738430 0.471757 0.660164
O O5 0.736804 0.185595 0.471565
O O6 0.877126 0.364225 0.668626
O O7 0.000000 0.500000 0.643791
O O8 0.047850 0.334325 0.679184
#
# Coordination Sequence:
#
# PCOD9561518 Si02
#       5
#     4  16   8  16  16
#     4  12  32  56  64  98 156 216 236 284 388 470
#     4  12  28  49  71 103 152 197 246 295 371 457
#     4  12  26  46  74 116 142 186 252 306 368 438
#     4  12  21  43  75 108 144 185 238 305 370 427
#     4  12  23  43  76 114 141 179 243 316 365 419
#
# _framework density 20.674561000000001
#
# number of rings (size 3 to 8) (size 9 to 14) (size 15 to 20)
#    0.000    0.000    9.333    0.000    3.733    0.000 
#    0.000    0.000    0.000    0.000    0.000    0.000 
#    0.000    0.000    0.000    0.000    0.000    0.000 
#
# Total GULP energy -167627.533368 kJ/mol
# GULP energy per Si atom -5587.584446 kJ/mol
# Density = 2.062751 g / cm^3
# Si number density = 20.674561 Si / 1000 Ang^3
#
#
#
# Elastic Constant Matrix: (Units=GPa)
#
#
# Indices 1 2 3 4 5 6 
#
# 1 77.1354 22.6220 26.2771 0.0000 0.0000 0.0000
# 2 22.6220 77.1354 26.2771 0.0000 0.0000 0.0000
# 3 26.2771 26.2771 122.7413 0.0000 0.0000 0.0000
# 4 0.0000 0.0000 0.0000 34.1628 0.0000 0.0000
# 5 0.0000 0.0000 0.0000 0.0000 34.1628 0.0000
# 6 0.0000 0.0000 0.0000 0.0000 0.0000 29.9397
#
#
#
# Elastic Compliance Matrix: (Units=1/GPa)
#
#
# Indices 1 2 3 4 5 6 
#
# 1 0.014821 -0.003523 -0.002419 0.000000 0.000000 0.000000
# 2 -0.003523 0.014821 -0.002419 0.000000 0.000000 0.000000
# 3 -0.002419 -0.002419 0.009183 0.000000 0.000000 0.000000
# 4 0.000000 0.000000 0.000000 0.029272 0.000000 0.000000
# 5 0.000000 0.000000 0.000000 0.000000 0.029272 0.000000
# 6 0.000000 0.000000 0.000000 0.000000 0.000000 0.033400
#
#
# Mechanical properties :
#
#
# Convention : Reuss Voigt Hill
#
# Bulk Modulus (GPa) = 45.23928 47.48495 46.36212
# Shear Modulus (GPa) = 32.28751 33.10875 32.69813
#
# Velocity S-wave (km/s) = 3.95612 4.00612 3.98120
# Velocity P-wave (km/s) = 6.54194 6.66456 6.60354
#
# Compressibility (1/GPa) = 0.02210468
#
# Stress axis : x y z
#
# Youngs Moduli (GPa) = 67.47012 67.47012 108.89792
#
# Poissons Ratio (x) = 0.23768 0.26341
# Poissons Ratio (y) = 0.23768 0.26341
# Poissons Ratio (z) = 0.16320 0.16320
#
# Static dielectric constant tensor:
#      x y z
#    x 1.751320 0.000000 0.000000 
#    y 0.000000 1.751320 0.000000 
#    z 0.000000 0.000000 1.729150 
# 
# From -- ./inp_files/5215.got.cif
#   From: 2010.05.17/outbox.cif.g08.bks.cpg/sg122_3_cif.got.tgz:5215.got - 2010.05.20 11:37:33.
