data_PCOD9561339
_publ_section_title
;
Structure prediction by ZEFSAII (Michael W. Deem and Ramdas Pophale) SiO2 
 PCOD9561339
Probable space group: I -4 2 D
;
_chemical_formula_sum "Si O2"
_cell_formula_units_Z 112
_cell_length_a 15.111035
_cell_length_b 15.111035
_cell_length_c 19.325599
_cell_angle_alpha 90.000000
_cell_angle_beta 90.000000
_cell_angle_gamma 90.000000
_cell_volume 4412.872572
_symmetry_space_group_name_H-M "I -4 2 D"
_symmetry_group_IT_number 122
_symmetry_cell_setting 'tetragonal'
loop_
_space_group_symop_operation_xyz
x,y,z
y,-x,-z
-x,-y,z
-y,x,-z
x,1/2-y,1/4-z
-x,1/2+y,1/4-z
-y,1/2-x,1/4+z
y,1/2+x,1/4+z
1/2+x,1/2+y,1/2+z
1/2+y,1/2-x,1/2-z
1/2-x,1/2-y,1/2+z
1/2-y,1/2+x,1/2-z
1/2+x,-y,3/4-z
1/2-x,y,3/4-z
1/2-y,-x,3/4+z
1/2+y,x,3/4+z
loop_
_atom_site_type_symbol
_atom_site_label
_atom_site_fract_x
_atom_site_fract_y
_atom_site_fract_z
Si Si1 0.532046 0.778175 0.231357
Si Si2 0.288056 0.153506 0.251745
Si Si3 0.490642 0.222945 0.396925
Si Si4 0.597951 0.969730 0.849175
Si Si5 0.309641 0.184979 0.812916
Si Si6 0.575134 0.073793 0.493605
Si Si7 0.150301 0.659866 0.386641
O O1 0.620594 0.831192 0.209477
O O2 0.434720 0.803354 0.202520
O O3 0.522706 0.798394 0.314812
O O4 0.550136 0.674227 0.220069
O O5 0.262757 0.250600 0.278794
O O6 0.195847 0.130879 0.213088
O O7 0.394241 0.253310 0.422098
O O8 0.533399 0.150549 0.446952
O O9 0.566351 0.297724 0.400577
O O10 0.642368 0.906348 0.792548
O O11 0.500000 0.000000 0.830040
O O12 0.650863 0.057838 0.868516
O O13 0.589785 0.918896 0.923350
O O14 0.250000 0.150331 0.875000
O O15 0.500000 0.000000 0.487878
O O16 0.250000 0.695195 0.375000
#
# Coordination Sequence:
#
# PCOD9561339 Si02
#       7
#    16  16  16  16  16  16  16
#     4  11  23  45  65 100 142 190 242 306 380 445
#     4  11  24  44  69  97 141 189 246 306 378 459
#     4  11  21  40  65  97 136 177 247 301 354 454
#     4  11  20  40  67  97 142 188 236 297 368 453
#     4  12  21  39  69 100 135 184 239 303 366 446
#     4  11  21  40  69  98 138 187 243 298 363 448
#     4  11  23  40  63  95 133 184 231 295 372 440
#
# _framework density 25.380292000000001
#
# number of rings (size 3 to 8) (size 9 to 14) (size 15 to 20)
#    0.000    0.857    4.286    5.571    0.000    0.286 
#    5.143    2.143    0.000    0.000    0.000    0.000 
#    0.000    0.000    0.000    0.000    0.000    0.000 
#
# Total GULP energy -312426.438991 kJ/mol
# GULP energy per Si atom -5579.043553 kJ/mol
# Density = 2.532252 g / cm^3
# Si number density = 25.380292 Si / 1000 Ang^3
#
#
#
# Elastic Constant Matrix: (Units=GPa)
#
#
# Indices 1 2 3 4 5 6 
#
# 1 153.7450 39.2875 5.4112 0.0000 0.0000 0.0000
# 2 39.2875 153.7450 5.4112 0.0000 0.0000 0.0000
# 3 5.4112 5.4112 35.5363 0.0000 0.0000 0.0000
# 4 0.0000 0.0000 0.0000 -286.0050 -0.0001 0.0000
# 5 0.0000 0.0000 0.0000 -0.0001 -286.0043 0.0000
# 6 0.0000 0.0000 0.0000 0.0000 0.0000 25.0891
#
#
#
# Elastic Compliance Matrix: (Units=1/GPa)
#
#
# Indices 1 2 3 4 5 6 
#
# 1 0.006981 -0.001756 -0.000796 0.000000 0.000000 0.000000
# 2 -0.001756 0.006981 -0.000796 0.000000 0.000000 0.000000
# 3 -0.000796 -0.000796 0.028383 0.000000 0.000000 0.000000
# 4 0.000000 0.000000 0.000000 -0.003496 0.000000 0.000000
# 5 0.000000 0.000000 0.000000 0.000000 -0.003496 0.000000
# 6 0.000000 0.000000 0.000000 0.000000 0.000000 0.039858
#
#
# Mechanical properties :
#
#
# Convention : Reuss Voigt Hill
#
# Bulk Modulus (GPa) = 28.05040 49.24960 38.65000
# Shear Modulus (GPa) = 53.31218 -89.85628 -18.27205
#
# Velocity S-wave (km/s) = 4.58813 -5.95658 -2.68606
# Velocity P-wave (km/s) = 6.25651 5.27835 2.37518
#
# Compressibility (1/GPa) = 0.03565012
#
# Stress axis : x y z
#
# Youngs Moduli (GPa) = 143.24647 143.24647 35.23296
#
# Poissons Ratio (x) = 0.25153 0.02803
# Poissons Ratio (y) = 0.25153 0.02803
# Poissons Ratio (z) = 0.11397 0.11397
#
# Static dielectric constant tensor:
#      x y z
#    x 3.199220 0.000000 0.000000 
#    y 0.000000 3.199220 0.000000 
#    z 0.000000 0.000000 2.128640 
# 
# From -- ./inp_files/8119.got.cif
#   From: 2010.05.17/outbox.cif.g08.bks.cpg/sg122_5_cif.got.tgz:8119.got - 2010.05.20 11:37:33.
