data_PCOD9561822
_publ_section_title
;
Structure prediction by ZEFSAII (Michael W. Deem and Ramdas Pophale) SiO2 
 PCOD9561822
Probable space group: P 4/M M M
;
_chemical_formula_sum "Si O2"
_cell_formula_units_Z 112
_cell_length_a 26.042669
_cell_length_b 26.042669
_cell_length_c 7.425507
_cell_angle_alpha 90.000000
_cell_angle_beta 90.000000
_cell_angle_gamma 90.000000
_cell_volume 5036.131877
_symmetry_space_group_name_H-M "P 4/M M M"
_symmetry_group_IT_number 123
_symmetry_cell_setting 'tetragonal'
loop_
_space_group_symop_operation_xyz
x,y,z
-y,x,z
-x,-y,z
y,-x,z
x,-y,-z
-x,y,-z
y,x,-z
-y,-x,-z
-x,-y,-z
y,-x,-z
x,y,-z
-y,x,-z
-x,y,z
x,-y,z
-y,-x,z
y,x,z
loop_
_atom_site_type_symbol
_atom_site_label
_atom_site_fract_x
_atom_site_fract_y
_atom_site_fract_z
Si Si1 0.642981 0.440847 0.219987
Si Si2 0.701613 0.785254 0.717105
Si Si3 0.252322 0.894554 0.719998
Si Si4 0.413957 0.243137 0.206652
Si Si5 0.059524 0.857088 0.719942
Si Si6 0.355740 0.055386 0.714544
Si Si7 0.445350 0.865130 0.216100
O O1 0.633200 0.500000 0.271812
O O2 0.599599 0.400402 0.279621
O O3 0.700240 0.424269 0.282062
O O4 0.642740 0.439117 0.000000
O O5 0.696184 0.788416 0.500000
O O6 0.738940 0.738940 0.762422
O O7 0.729023 0.837884 0.775538
O O8 0.645817 0.772345 0.791327
O O9 0.250664 0.894186 0.500000
O O10 0.196484 0.913923 0.777852
O O11 0.298806 0.931056 0.780199
O O12 0.440057 0.192728 0.288654
O O13 0.432038 0.246590 0.000000
O O14 0.059294 0.856709 0.500000
O O15 0.094954 0.905047 0.775531
O O16 0.000000 0.859982 0.776756
O O17 0.350958 0.052193 0.500000
O O18 0.396457 0.100138 0.744756
O O19 0.373270 0.000000 0.783823
O O20 0.500000 0.887648 0.276088
O O21 0.446219 0.861329 0.000000
#
# Coordination Sequence:
#
# PCOD9561822 Si02
#       7
#    16  16  16  16  16  16  16
#     4   9  17  29  47  72 101 133 168 206 247 292
#     4  10  19  30  48  74 102 131 163 203 250 300
#     4   9  16  29  46  66  94 126 163 204 249 297
#     4  10  19  33  52  74 101 132 168 205 248 300
#     4   9  16  25  39  61  91 129 170 209 250 298
#     4  10  20  34  53  75  98 128 169 213 253 296
#     4  10  21  36  53  73  99 133 170 206 249 304
#
# _framework density 22.239291000000001
#
# number of rings (size 3 to 8) (size 9 to 14) (size 15 to 20)
#    0.000    2.429    1.429    1.714    0.000    7.143 
#    0.000    2.857    0.000    1.286    0.000    0.000 
#    0.000    0.000    0.000    3.000    0.000    4.000 
#
# Total GULP energy -625375.792477 kJ/mol
# GULP energy per Si atom -5583.712433 kJ/mol
# Density = 2.218867 g / cm^3
# Si number density = 22.239291 Si / 1000 Ang^3
#
#
#
# Elastic Constant Matrix: (Units=GPa)
#
#
# Indices 1 2 3 4 5 6 
#
# 1 157.4235 85.1068 0.8316 0.0000 0.0000 0.0000
# 2 85.1068 157.4235 0.8316 0.0000 0.0000 0.0000
# 3 0.8316 0.8316 66.7845 0.0000 0.0000 0.0000
# 4 0.0000 0.0000 0.0000 -9.1734 0.0000 0.0000
# 5 0.0000 0.0000 0.0000 0.0000 -9.1734 0.0000
# 6 0.0000 0.0000 0.0000 0.0000 0.0000 3.6994
#
#
#
# Elastic Compliance Matrix: (Units=1/GPa)
#
#
# Indices 1 2 3 4 5 6 
#
# 1 0.008976 -0.004852 -0.000051 0.000000 0.000000 0.000000
# 2 -0.004852 0.008976 -0.000051 0.000000 0.000000 0.000000
# 3 -0.000051 -0.000051 0.014975 0.000000 0.000000 0.000000
# 4 0.000000 0.000000 0.000000 -0.109011 0.000000 0.000000
# 5 0.000000 0.000000 0.000000 0.000000 -0.109011 0.000000
# 6 0.000000 0.000000 0.000000 0.000000 0.000000 0.270316
#
#
# Mechanical properties :
#
#
# Convention : Reuss Voigt Hill
#
# Bulk Modulus (GPa) = 43.44704 61.68573 52.56639
# Shear Modulus (GPa) = 48.63704 16.72795 32.68250
#
# Velocity S-wave (km/s) = 4.68160 2.74557 3.83767
# Velocity P-wave (km/s) = 6.98582 6.15210 6.58217
#
# Compressibility (1/GPa) = 0.02301653
#
# Stress axis : x y z
#
# Youngs Moduli (GPa) = 111.41066 111.41066 66.77876
#
# Poissons Ratio (x) = 0.54059 0.00343
# Poissons Ratio (y) = 0.54059 0.00343
# Poissons Ratio (z) = 0.00572 0.00572
#
# Static dielectric constant tensor:
#      x y z
#    x 1.795330 0.000000 0.000000 
#    y 0.000000 1.795330 0.000000 
#    z 0.000000 0.000000 1.857380 
# 
# From -- ./inp_files/3380.got.cif
#   From: 2010.05.17/outbox.cif.g08.bks.cpg/sg123_2_cif.got.tgz:3380.got - 2010.05.20 11:43:04.
