data_PCOD9561526
_publ_section_title
;
Structure prediction by ZEFSAII (Michael W. Deem and Ramdas Pophale) SiO2 
 PCOD9561526
Probable space group: I -4 2 D
;
_chemical_formula_sum "Si O2"
_cell_formula_units_Z 64
_cell_length_a 23.003574
_cell_length_b 23.003574
_cell_length_c 5.020328
_cell_angle_alpha 90.000000
_cell_angle_beta 90.000000
_cell_angle_gamma 90.000000
_cell_volume 2656.578938
_symmetry_space_group_name_H-M "I -4 2 D"
_symmetry_group_IT_number 122
_symmetry_cell_setting 'tetragonal'
loop_
_space_group_symop_operation_xyz
x,y,z
y,-x,-z
-x,-y,z
-y,x,-z
x,1/2-y,1/4-z
-x,1/2+y,1/4-z
-y,1/2-x,1/4+z
y,1/2+x,1/4+z
1/2+x,1/2+y,1/2+z
1/2+y,1/2-x,1/2-z
1/2-x,1/2-y,1/2+z
1/2-y,1/2+x,1/2-z
1/2+x,-y,3/4-z
1/2-x,y,3/4-z
1/2-y,-x,3/4+z
1/2+y,x,3/4+z
loop_
_atom_site_type_symbol
_atom_site_label
_atom_site_fract_x
_atom_site_fract_y
_atom_site_fract_z
Si Si1 0.421334 0.750000 0.625000
Si Si2 0.621676 0.464485 0.882672
Si Si3 0.750000 0.840518 0.375000
Si Si4 0.250000 0.659482 0.375000
Si Si5 0.378324 0.464485 0.382672
Si Si6 0.421334 0.250000 0.125000
O O1 0.381439 0.765312 0.371347
O O2 0.457123 0.691162 0.587708
O O3 0.604517 0.515188 0.676365
O O4 0.592178 0.407822 0.750000
O O5 0.691162 0.457123 0.912292
O O6 0.604517 0.484812 0.176365
O O7 0.700188 0.799812 0.500000
O O8 0.265312 0.618561 0.621347
#
# Coordination Sequence:
#
# PCOD9561526 Si02
#       6
#     8  16   8   8  16   8
#     4  12  25  45  70 100 138 184 237 295 358 428
#     4  12  26  46  72 103 140 185 237 296 359 428
#     4  12  23  39  64 100 142 186 233 287 356 432
#     4  12  23  39  64 100 142 186 233 287 356 432
#     4  12  26  46  72 103 140 185 237 296 359 428
#     4  12  25  45  70 100 138 184 237 295 358 428
#
# _framework density 24.091134
#
# number of rings (size 3 to 8) (size 9 to 14) (size 15 to 20)
#    0.000    0.000    0.000   12.000    0.000    3.000 
#    0.000    0.000    0.000    0.000    0.000    0.000 
#    0.000    0.000    0.000    0.000    0.000    0.000 
#
# Total GULP energy -179046.070725 kJ/mol
# GULP energy per Si atom -5595.189710 kJ/mol
# Density = 2.403630 g / cm^3
# Si number density = 24.091134 Si / 1000 Ang^3
#
#
#
# Elastic Constant Matrix: (Units=GPa)
#
#
# Indices 1 2 3 4 5 6 
#
# 1 90.6346 50.3421 31.2571 0.0000 0.0000 0.0000
# 2 50.3421 90.6346 31.2571 0.0000 0.0000 0.0000
# 3 31.2571 31.2571 167.0564 0.0000 0.0000 0.0000
# 4 0.0000 0.0000 0.0000 44.9786 0.0000 0.0000
# 5 0.0000 0.0000 0.0000 0.0000 44.9786 0.0000
# 6 0.0000 0.0000 0.0000 0.0000 0.0000 2.8190
#
#
#
# Elastic Compliance Matrix: (Units=1/GPa)
#
#
# Indices 1 2 3 4 5 6 
#
# 1 0.016277 -0.008542 -0.001447 0.000000 0.000000 0.000000
# 2 -0.008542 0.016277 -0.001447 0.000000 0.000000 0.000000
# 3 -0.001447 -0.001447 0.006528 0.000000 0.000000 0.000000
# 4 0.000000 0.000000 0.000000 0.022233 0.000000 0.000000
# 5 0.000000 0.000000 0.000000 0.000000 0.022233 0.000000
# 6 0.000000 0.000000 0.000000 0.000000 0.000000 0.354730
#
#
# Mechanical properties :
#
#
# Convention : Reuss Voigt Hill
#
# Bulk Modulus (GPa) = 61.69509 63.78203 62.73856
# Shear Modulus (GPa) = 10.71691 34.25320 22.48506
#
# Velocity S-wave (km/s) = 2.11143 3.77479 3.05836
# Velocity P-wave (km/s) = 5.62217 6.74770 6.21049
#
# Compressibility (1/GPa) = 0.01620875
#
# Stress axis : x y z
#
# Youngs Moduli (GPa) = 61.43705 61.43705 153.19591
#
# Poissons Ratio (x) = 0.52478 0.22172
# Poissons Ratio (y) = 0.52478 0.22172
# Poissons Ratio (z) = 0.08892 0.08892
#
# Static dielectric constant tensor:
#      x y z
#    x 1.920730 0.000000 0.000000 
#    y 0.000000 1.920730 0.000000 
#    z 0.000000 0.000000 1.869830 
# 
# From -- ./inp_files/1179.got.cif
#   From: 2010.05.17/outbox.cif.g08.bks.cpg/sg122_1_cif.got.tgz:1179.got - 2010.05.20 11:37:33.
