data_PCOD9561191
_publ_section_title
;
Structure prediction by ZEFSAII (Michael W. Deem and Ramdas Pophale) SiO2 
 PCOD9561191
Probable space group: I -4 2 D
;
_chemical_formula_sum "Si O2"
_cell_formula_units_Z 80
_cell_length_a 11.544532
_cell_length_b 11.544532
_cell_length_c 25.795642
_cell_angle_alpha 90.000000
_cell_angle_beta 90.000000
_cell_angle_gamma 90.000000
_cell_volume 3437.945635
_symmetry_space_group_name_H-M "I -4 2 D"
_symmetry_group_IT_number 122
_symmetry_cell_setting 'tetragonal'
loop_
_space_group_symop_operation_xyz
x,y,z
y,-x,-z
-x,-y,z
-y,x,-z
x,1/2-y,1/4-z
-x,1/2+y,1/4-z
-y,1/2-x,1/4+z
y,1/2+x,1/4+z
1/2+x,1/2+y,1/2+z
1/2+y,1/2-x,1/2-z
1/2-x,1/2-y,1/2+z
1/2-y,1/2+x,1/2-z
1/2+x,-y,3/4-z
1/2-x,y,3/4-z
1/2-y,-x,3/4+z
1/2+y,x,3/4+z
loop_
_atom_site_type_symbol
_atom_site_label
_atom_site_fract_x
_atom_site_fract_y
_atom_site_fract_z
Si Si1 0.219463 0.500729 0.021171
Si Si2 0.747562 0.750000 0.125000
Si Si3 0.634389 0.508148 0.116476
Si Si4 0.238214 0.748916 0.263271
Si Si5 0.170285 0.643544 0.161441
Si Si6 0.000000 0.000000 0.152370
O O1 0.327256 0.532874 0.059009
O O2 0.203948 0.614324 0.985923
O O3 0.109284 0.482483 0.059509
O O4 0.238629 0.374127 0.997346
O O5 0.668399 0.641177 0.113883
O O6 0.807665 0.725878 0.179882
O O7 0.500000 0.500000 0.128439
O O8 0.724543 0.447749 0.155568
O O9 0.162243 0.687569 0.219737
O O10 0.206685 0.750000 0.125000
O O11 0.052296 0.596218 0.136151
#
# Coordination Sequence:
#
# PCOD9561191 Si02
#       6
#    16   8  16  16  16   8
#     4  10  24  41  72 108 154 196 241 319 388 452
#     4  10  26  44  62 112 156 198 242 312 382 458
#     4  10  23  41  70 109 148 185 246 310 378 461
#     4  11  24  45  74 110 149 201 247 308 400 464
#     4  11  23  47  78 109 143 207 254 316 399 457
#     4  10  22  50  72 109 148 204 257 332 384 438
#
# _framework density 23.269711999999998
#
# number of rings (size 3 to 8) (size 9 to 14) (size 15 to 20)
#    0.000    1.600    4.000    0.000    9.800    1.600 
#   16.200    0.000    0.000    1.200    0.000    0.000 
#    0.000    0.000    0.000    0.000    0.000    0.000 
#
# Total GULP energy -223277.333201 kJ/mol
# GULP energy per Si atom -5581.933330 kJ/mol
# Density = 2.321675 g / cm^3
# Si number density = 23.269712 Si / 1000 Ang^3
#
#
#
# Elastic Constant Matrix: (Units=GPa)
#
#
# Indices 1 2 3 4 5 6 
#
# 1 96.9402 28.9636 25.3180 0.0000 0.0000 0.0000
# 2 28.9636 96.9402 25.3180 0.0000 0.0000 0.0000
# 3 25.3180 25.3180 127.4104 0.0000 0.0000 0.0000
# 4 0.0000 0.0000 0.0000 27.6852 0.0000 0.0000
# 5 0.0000 0.0000 0.0000 0.0000 27.6852 0.0000
# 6 0.0000 0.0000 0.0000 0.0000 0.0000 19.2519
#
#
#
# Elastic Compliance Matrix: (Units=1/GPa)
#
#
# Indices 1 2 3 4 5 6 
#
# 1 0.011672 -0.003039 -0.001715 0.000000 0.000000 0.000000
# 2 -0.003039 0.011672 -0.001715 0.000000 0.000000 0.000000
# 3 -0.001715 -0.001715 0.008530 0.000000 0.000000 0.000000
# 4 0.000000 0.000000 0.000000 0.036120 0.000000 0.000000
# 5 0.000000 0.000000 0.000000 0.000000 0.036120 0.000000
# 6 0.000000 0.000000 0.000000 0.000000 0.000000 0.051943
#
#
# Mechanical properties :
#
#
# Convention : Reuss Voigt Hill
#
# Bulk Modulus (GPa) = 52.81560 53.38780 53.10170
# Shear Modulus (GPa) = 28.52112 31.03721 29.77917
#
# Velocity S-wave (km/s) = 3.50476 3.65609 3.58123
# Velocity P-wave (km/s) = 6.25494 6.38870 6.32217
#
# Compressibility (1/GPa) = 0.01893380
#
# Stress axis : x y z
#
# Youngs Moduli (GPa) = 85.67728 85.67728 117.22803
#
# Poissons Ratio (x) = 0.26039 0.20109
# Poissons Ratio (y) = 0.26039 0.20109
# Poissons Ratio (z) = 0.14697 0.14697
#
# Static dielectric constant tensor:
#      x y z
#    x 1.894770 0.000000 0.000000 
#    y 0.000000 1.894770 0.000000 
#    z 0.000000 0.000000 1.941830 
# 
# From -- ./inp_files/9425.got.cif
#   From: 2010.05.17/outbox.cif.g08.bks.cpg/sg122_5_cif.got.tgz:9425.got - 2010.05.20 11:37:33.
