data_PCOD9561627
_publ_section_title
;
Structure prediction by ZEFSAII (Michael W. Deem and Ramdas Pophale) SiO2 
 PCOD9561627
Probable space group: P 4/M M M
;
_chemical_formula_sum "Si O2"
_cell_formula_units_Z 80
_cell_length_a 24.073388
_cell_length_b 24.073388
_cell_length_c 7.421102
_cell_angle_alpha 90.000000
_cell_angle_beta 90.000000
_cell_angle_gamma 90.000000
_cell_volume 4300.736473
_symmetry_space_group_name_H-M "P 4/M M M"
_symmetry_group_IT_number 123
_symmetry_cell_setting 'tetragonal'
loop_
_space_group_symop_operation_xyz
x,y,z
-y,x,z
-x,-y,z
y,-x,z
x,-y,-z
-x,y,-z
y,x,-z
-y,-x,-z
-x,-y,-z
y,-x,-z
x,y,-z
-y,x,-z
-x,y,z
x,-y,z
-y,-x,z
y,x,z
loop_
_atom_site_type_symbol
_atom_site_label
_atom_site_fract_x
_atom_site_fract_y
_atom_site_fract_z
Si Si1 0.650535 0.650535 0.720377
Si Si2 0.162502 0.749872 0.790809
Si Si3 0.437567 0.437567 0.280222
Si Si4 0.224584 0.364161 0.283656
Si Si5 0.562715 0.121963 0.788670
Si Si6 0.936249 0.675882 0.220788
O O1 0.650923 0.650923 0.500000
O O2 0.606357 0.606357 0.783440
O O3 0.633541 0.712164 0.776959
O O4 0.198939 0.801062 0.713569
O O5 0.200120 0.694376 0.783199
O O6 0.104459 0.725529 0.716017
O O7 0.152350 0.763654 0.000000
O O8 0.500000 0.424190 0.224312
O O9 0.437059 0.437059 0.500000
O O10 0.223110 0.362223 0.500000
O O11 0.184957 0.414671 0.226958
O O12 0.500000 0.115190 0.714475
O O13 0.615227 0.086209 0.717298
O O14 0.559140 0.108103 0.000000
O O15 0.000000 0.683482 0.271483
O O16 0.932937 0.675395 0.000000
#
# Coordination Sequence:
#
# PCOD9561627 Si02
#       6
#     8  16   8  16  16  16
#     4   9  17  26  38  59  81 100 126 164 207 251
#     4   9  16  27  44  64  86 112 138 167 209 254
#     4   8  14  25  38  49  65  92 122 152 192 241
#     4  10  18  28  42  62  86 108 136 172 211 255
#     4   9  18  31  44  60  84 113 145 179 215 255
#     4   8  14  25  42  64  86 109 142 182 215 243
#
# _framework density 18.601464
#
# number of rings (size 3 to 8) (size 9 to 14) (size 15 to 20)
#    0.000    3.100    1.000    2.100    0.000    1.600 
#    0.000    4.000    0.000    9.600    0.000    5.600 
#    0.000    0.400    0.000   23.200    0.000   15.600 
#
# Total GULP energy -445676.207736 kJ/mol
# GULP energy per Si atom -5570.952597 kJ/mol
# Density = 1.855913 g / cm^3
# Si number density = 18.601464 Si / 1000 Ang^3
#
#
#
# Elastic Constant Matrix: (Units=GPa)
#
#
# Indices 1 2 3 4 5 6 
#
# 1 62.2897 173.7323 0.2665 0.0000 0.0000 0.0000
# 2 173.7323 62.2897 0.2665 0.0000 0.0000 0.0000
# 3 0.2665 0.2665 61.1594 0.0000 0.0000 0.0000
# 4 0.0000 0.0000 0.0000 5.6485 0.0000 0.0000
# 5 0.0000 0.0000 0.0000 0.0000 5.6485 0.0000
# 6 0.0000 0.0000 0.0000 0.0000 0.0000 19.6574
#
#
#
# Elastic Compliance Matrix: (Units=1/GPa)
#
#
# Indices 1 2 3 4 5 6 
#
# 1 -0.002368 0.006605 -0.000018 0.000000 0.000000 0.000000
# 2 0.006605 -0.002368 -0.000018 0.000000 0.000000 0.000000
# 3 -0.000018 -0.000018 0.016351 0.000000 0.000000 0.000000
# 4 0.000000 0.000000 0.000000 0.177039 0.000000 0.000000
# 5 0.000000 0.000000 0.000000 0.000000 0.177039 0.000000
# 6 0.000000 0.000000 0.000000 0.000000 0.000000 0.050871
#
#
# Mechanical properties :
#
#
# Convention : Reuss Voigt Hill
#
# Bulk Modulus (GPa) = 40.40253 59.36324 49.88289
# Shear Modulus (GPa) = 12.14540 6.95577 9.55059
#
# Velocity S-wave (km/s) = 2.55802 1.93584 2.26836
# Velocity P-wave (km/s) = 5.52194 6.08105 5.80823
#
# Compressibility (1/GPa) = 0.02475092
#
# Stress axis : x y z
#
# Youngs Moduli (GPa) = -422.27081 -422.27081 61.15875
#
# Poissons Ratio (x) = 2.78913 0.00113
# Poissons Ratio (y) = 2.78913 0.00113
# Poissons Ratio (z) = -0.00779 -0.00779
#
# Static dielectric constant tensor:
#      x y z
#    x 1.638840 0.000000 0.000000 
#    y 0.000000 1.638840 0.000000 
#    z 0.000000 0.000000 1.706730 
# 
# From -- ./inp_files/1466.got.cif
#   From: 2010.05.17/outbox.cif.g08.bks.cpg/sg123_1_cif.got.tgz:1466.got - 2010.05.20 11:43:04.
