data_PCOD9561509
_publ_section_title
;
Structure prediction by ZEFSAII (Michael W. Deem and Ramdas Pophale) SiO2 
 PCOD9561509
Probable space group: I -4 2 D
;
_chemical_formula_sum "Si O2"
_cell_formula_units_Z 72
_cell_length_a 19.227885
_cell_length_b 19.227885
_cell_length_c 9.609300
_cell_angle_alpha 90.000000
_cell_angle_beta 90.000000
_cell_angle_gamma 90.000000
_cell_volume 3552.669309
_symmetry_space_group_name_H-M "I -4 2 D"
_symmetry_group_IT_number 122
_symmetry_cell_setting 'tetragonal'
loop_
_space_group_symop_operation_xyz
x,y,z
y,-x,-z
-x,-y,z
-y,x,-z
x,1/2-y,1/4-z
-x,1/2+y,1/4-z
-y,1/2-x,1/4+z
y,1/2+x,1/4+z
1/2+x,1/2+y,1/2+z
1/2+y,1/2-x,1/2-z
1/2-x,1/2-y,1/2+z
1/2-y,1/2+x,1/2-z
1/2+x,-y,3/4-z
1/2-x,y,3/4-z
1/2-y,-x,3/4+z
1/2+y,x,3/4+z
loop_
_atom_site_type_symbol
_atom_site_label
_atom_site_fract_x
_atom_site_fract_y
_atom_site_fract_z
Si Si1 0.893261 0.389967 0.750878
Si Si2 0.470838 0.250000 0.625000
Si Si3 0.250000 0.928849 0.375000
Si Si4 0.000000 0.000000 0.500000
Si Si5 0.000000 0.000000 0.000000
Si Si6 0.606952 0.403261 0.329542
Si Si7 0.755318 0.544770 0.090621
O O1 0.816413 0.389504 0.814580
O O2 0.891550 0.411454 0.588378
O O3 0.924583 0.313499 0.769182
O O4 0.942714 0.448941 0.821093
O O5 0.425634 0.319185 0.607511
O O6 0.518597 0.263647 0.757443
O O7 0.223340 0.978528 0.251622
O O8 0.949617 0.952364 0.096211
O O9 0.593830 0.321629 0.351533
#
# Coordination Sequence:
#
# PCOD9561509 Si02
#       7
#    16   8   8   4   4  16  16
#     4  12  24  42  74 107 145 197 256 308 373 454
#     4  12  26  45  70 109 152 194 246 320 378 445
#     4  12  24  43  72 105 148 196 254 310 370 449
#     4  12  18  40  72 102 132 186 252 308 354 422
#     4  12  26  44  84 114 144 206 262 316 392 442
#     4  12  24  45  71 107 149 198 249 312 380 450
#     4  12  25  46  70 107 151 194 250 316 376 445
#
# _framework density 20.266451
#
# number of rings (size 3 to 8) (size 9 to 14) (size 15 to 20)
#    0.000    0.000    8.889    0.667    0.000    4.444 
#    0.000    0.000    0.000    0.000    0.000    0.000 
#    0.000    0.000    0.000    0.000    0.000    0.000 
#
# Total GULP energy -201214.777894 kJ/mol
# GULP energy per Si atom -5589.299386 kJ/mol
# Density = 2.022032 g / cm^3
# Si number density = 20.266451 Si / 1000 Ang^3
#
#
#
# Elastic Constant Matrix: (Units=GPa)
#
#
# Indices 1 2 3 4 5 6 
#
# 1 120.7292 39.0082 23.6035 0.0000 0.0000 0.0000
# 2 39.0082 120.7292 23.6035 0.0000 0.0000 0.0000
# 3 23.6035 23.6035 94.2638 0.0000 0.0000 0.0000
# 4 0.0000 0.0000 0.0000 25.5777 0.0000 0.0000
# 5 0.0000 0.0000 0.0000 0.0000 25.5777 0.0000
# 6 0.0000 0.0000 0.0000 0.0000 0.0000 27.6192
#
#
#
# Elastic Compliance Matrix: (Units=1/GPa)
#
#
# Indices 1 2 3 4 5 6 
#
# 1 0.009499 -0.002738 -0.001693 0.000000 0.000000 0.000000
# 2 -0.002738 0.009499 -0.001693 0.000000 0.000000 0.000000
# 3 -0.001693 -0.001693 0.011456 0.000000 0.000000 0.000000
# 4 0.000000 0.000000 0.000000 0.039097 0.000000 0.000000
# 5 0.000000 0.000000 0.000000 0.000000 0.039097 0.000000
# 6 0.000000 0.000000 0.000000 0.000000 0.000000 0.036207
#
#
# Mechanical properties :
#
#
# Convention : Reuss Voigt Hill
#
# Bulk Modulus (GPa) = 54.92674 56.46142 55.69408
# Shear Modulus (GPa) = 30.64293 32.38870 31.51582
#
# Velocity S-wave (km/s) = 3.89267 4.00202 3.94772
# Velocity P-wave (km/s) = 6.88222 7.01961 6.95125
#
# Compressibility (1/GPa) = 0.01820607
#
# Stress axis : x y z
#
# Youngs Moduli (GPa) = 105.27808 105.27808 87.28825
#
# Poissons Ratio (x) = 0.28826 0.14776
# Poissons Ratio (y) = 0.28826 0.14776
# Poissons Ratio (z) = 0.17822 0.17822
#
# Static dielectric constant tensor:
#      x y z
#    x 1.723490 0.000000 0.000000 
#    y 0.000000 1.723490 0.000000 
#    z 0.000000 0.000000 1.768260 
# 
# From -- ./inp_files/2718.got.cif
#   From: 2010.05.17/outbox.cif.g08.bks.cpg/sg122_2_cif.got.tgz:2718.got - 2010.05.20 11:37:33.
