data_PCOD9561847
_publ_section_title
;
Structure prediction by ZEFSAII (Michael W. Deem and Ramdas Pophale) SiO2 
 PCOD9561847
Probable space group: P 4/M M M
;
_chemical_formula_sum "Si O2"
_cell_formula_units_Z 128
_cell_length_a 18.870441
_cell_length_b 18.870441
_cell_length_c 23.590352
_cell_angle_alpha 90.000000
_cell_angle_beta 90.000000
_cell_angle_gamma 90.000000
_cell_volume 8400.372037
_symmetry_space_group_name_H-M "P 4/M M M"
_symmetry_group_IT_number 123
_symmetry_cell_setting 'tetragonal'
loop_
_space_group_symop_operation_xyz
x,y,z
-y,x,z
-x,-y,z
y,-x,z
x,-y,-z
-x,y,-z
y,x,-z
-y,-x,-z
-x,-y,-z
y,-x,-z
x,y,-z
-y,x,-z
-x,y,z
x,-y,z
-y,-x,z
y,x,z
loop_
_atom_site_type_symbol
_atom_site_label
_atom_site_fract_x
_atom_site_fract_y
_atom_site_fract_z
Si Si1 0.919077 0.805069 0.760032
Si Si2 0.918971 0.333955 0.835302
Si Si3 0.161854 0.722557 0.660630
Si Si4 0.810553 0.694128 0.935952
Si Si5 0.691251 0.580496 0.916176
Si Si6 0.082722 0.198435 0.567750
Si Si7 0.582247 0.847563 0.732098
Si Si8 0.422873 0.310518 0.779595
O O1 0.871763 0.871763 0.776480
O O2 0.917279 0.744023 0.807306
O O3 0.883578 0.768664 0.705438
O O4 0.000000 0.824367 0.748530
O O5 0.867917 0.328477 0.889434
O O6 0.892378 0.387104 0.785531
O O7 0.000000 0.351429 0.850406
O O8 0.240548 0.759453 0.661355
O O9 0.124915 0.740121 0.600879
O O10 0.153216 0.641628 0.682174
O O11 0.764487 0.764487 0.920036
O O12 0.753237 0.630993 0.937382
O O13 0.838618 0.704238 0.000000
O O14 0.697354 0.500000 0.934589
O O15 0.617225 0.617225 0.931721
O O16 0.695901 0.581969 0.847609
O O17 0.085853 0.208627 0.500000
O O18 0.125999 0.125999 0.580926
O O19 0.000000 0.195103 0.584293
O O20 0.500000 0.867241 0.718336
O O21 0.581507 0.766935 0.753845
O O22 0.500000 0.341829 0.766368
O O23 0.360040 0.360040 0.759354
#
# Coordination Sequence:
#
# PCOD9561847 Si02
#       8
#    16  16  16  16  16  16  16  16
#     4   9  17  28  44  66  90 116 142 171 211 260
#     4  10  20  33  48  65  86 110 139 180 227 269
#     4   9  17  29  46  67  92 122 155 189 225 266
#     4  10  20  33  50  68  85 110 143 176 214 264
#     4   9  17  29  45  65  88 112 138 167 201 246
#     4   9  17  29  46  69  97 128 160 192 227 269
#     4  10  19  31  48  68  89 116 152 193 232 271
#     4   9  16  26  43  66  91 118 144 172 212 261
#
# _framework density 15.237420999999999
#
# number of rings (size 3 to 8) (size 9 to 14) (size 15 to 20)
#    0.000    2.625    1.250    1.125    0.000    2.750 
#    0.000    1.875    0.000    2.625    0.000    4.375 
#    0.000    0.000    0.000   11.625    0.000    0.000 
#
# Total GULP energy -712634.485164 kJ/mol
# GULP energy per Si atom -5567.456915 kJ/mol
# Density = 1.520274 g / cm^3
# Si number density = 15.237421 Si / 1000 Ang^3
#
#
#
# Elastic Constant Matrix: (Units=GPa)
#
#
# Indices 1 2 3 4 5 6 
#
# 1 90.1392 43.8662 27.5627 0.0000 0.0000 0.0000
# 2 43.8662 90.1392 27.5627 0.0000 0.0000 0.0000
# 3 27.5627 27.5627 47.1226 0.0000 0.0000 0.0000
# 4 0.0000 0.0000 0.0000 -844.1858 0.0000 0.0000
# 5 0.0000 0.0000 0.0000 0.0000 -844.1858 0.0000
# 6 0.0000 0.0000 0.0000 0.0000 0.0000 14.8505
#
#
#
# Elastic Compliance Matrix: (Units=1/GPa)
#
#
# Indices 1 2 3 4 5 6 
#
# 1 0.015719 -0.005892 -0.005748 0.000000 0.000000 0.000000
# 2 -0.005892 0.015719 -0.005748 0.000000 0.000000 0.000000
# 3 -0.005748 -0.005748 0.027945 0.000000 0.000000 0.000000
# 4 0.000000 0.000000 0.000000 -0.001185 0.000000 0.000000
# 5 0.000000 0.000000 0.000000 0.000000 -0.001185 0.000000
# 6 0.000000 0.000000 0.000000 0.000000 0.000000 0.067338
#
#
# Mechanical properties :
#
#
# Convention : Reuss Voigt Hill
#
# Bulk Modulus (GPa) = 40.63802 47.26490 43.95146
# Shear Modulus (GPa) = 29.88111 -326.14359 -148.13124
#
# Velocity S-wave (km/s) = 4.43316 -14.64602 -9.87049
# Velocity P-wave (km/s) = 7.27542 15.96626 10.04962
#
# Compressibility (1/GPa) = 0.02460750
#
# Stress axis : x y z
#
# Youngs Moduli (GPa) = 63.61776 63.61776 35.78417
#
# Poissons Ratio (x) = 0.37484 0.20568
# Poissons Ratio (y) = 0.37484 0.20568
# Poissons Ratio (z) = 0.36567 0.36567
#
# Static dielectric constant tensor:
#      x y z
#    x 1.511190 0.000000 0.000000 
#    y 0.000000 1.511190 0.000000 
#    z 0.000000 0.000000 1.521860 
# 
# From -- ./inp_files/7650.got.cif
#   From: 2010.05.17/outbox.cif.g08.bks.cpg/sg123_4_cif.got.tgz:7650.got - 2010.05.20 11:43:04.
