data_PCOD9561620
_publ_section_title
;
Structure prediction by ZEFSAII (Michael W. Deem and Ramdas Pophale) SiO2 
 PCOD9561620
Probable space group: P 4/M M M
;
_chemical_formula_sum "Si O2"
_cell_formula_units_Z 128
_cell_length_a 18.189524
_cell_length_b 18.189524
_cell_length_c 24.484959
_cell_angle_alpha 90.000000
_cell_angle_beta 90.000000
_cell_angle_gamma 90.000000
_cell_volume 8101.063745
_symmetry_space_group_name_H-M "P 4/M M M"
_symmetry_group_IT_number 123
_symmetry_cell_setting 'tetragonal'
loop_
_space_group_symop_operation_xyz
x,y,z
-y,x,z
-x,-y,z
y,-x,z
x,-y,-z
-x,y,-z
y,x,-z
-y,-x,-z
-x,-y,-z
y,-x,-z
x,y,-z
-y,x,-z
-x,y,z
x,-y,z
-y,-x,z
y,x,z
loop_
_atom_site_type_symbol
_atom_site_label
_atom_site_fract_x
_atom_site_fract_y
_atom_site_fract_z
Si Si1 0.586528 0.295308 0.241818
Si Si2 0.085748 0.797043 0.669179
Si Si3 0.731800 0.850429 0.436707
Si Si4 0.416106 0.914201 0.174808
Si Si5 0.650227 0.850775 0.718254
Si Si6 0.415360 0.704654 0.112509
Si Si7 0.912436 0.585339 0.389912
Si Si8 0.588086 0.139512 0.059851
O O1 0.500000 0.296619 0.254140
O O2 0.626833 0.373168 0.248960
O O3 0.627972 0.234460 0.278023
O O4 0.594351 0.276095 0.176978
O O5 0.125923 0.874078 0.679183
O O6 0.097609 0.775114 0.605625
O O7 0.130092 0.732885 0.700794
O O8 0.000000 0.795505 0.682964
O O9 0.742692 0.869096 0.500000
O O10 0.769553 0.769553 0.428167
O O11 0.646151 0.863765 0.421739
O O12 0.500000 0.882700 0.177654
O O13 0.367338 0.880331 0.221850
O O14 0.386230 0.902521 0.113750
O O15 0.421411 0.000000 0.185253
O O16 0.599675 0.892126 0.673512
O O17 0.500000 0.682418 0.105840
O O18 0.360372 0.639629 0.099246
O O19 0.401437 0.775184 0.074969
O O20 0.898622 0.500000 0.404126
O O21 0.000000 0.599793 0.397991
O O22 0.500000 0.126174 0.057585
O O23 0.618184 0.121084 0.000000
#
# Coordination Sequence:
#
# PCOD9561620 Si02
#       8
#    16  16  16  16  16  16  16  16
#     4  10  19  30  46  66  90 121 155 193 234 276
#     4  10  21  35  52  74  98 126 159 195 235 280
#     4   9  18  33  51  70  96 131 167 199 232 275
#     4  10  18  27  43  65  88 117 149 184 228 275
#     4  11  18  31  49  69  96 123 156 193 232 280
#     4   9  17  29  43  60  81 108 144 185 229 272
#     4  10  20  31  46  72 102 129 157 194 240 285
#     4   9  17  29  42  57  81 111 144 184 228 275
#
# _framework density 15.800394000000001
#
# number of rings (size 3 to 8) (size 9 to 14) (size 15 to 20)
#    0.000    2.250    1.250    3.750    0.000    3.625 
#    0.000    3.125    0.000    0.000    0.000    3.500 
#    0.000    0.250    0.000    1.375    0.000    0.125 
#
# Total GULP energy -712978.752503 kJ/mol
# GULP energy per Si atom -5570.146504 kJ/mol
# Density = 1.576443 g / cm^3
# Si number density = 15.800394 Si / 1000 Ang^3
#
#
#
# Elastic Constant Matrix: (Units=GPa)
#
#
# Indices 1 2 3 4 5 6 
#
# 1 51.5956 37.6454 24.2080 0.0000 0.0000 0.0000
# 2 37.6454 51.5956 24.2080 0.0000 0.0000 0.0000
# 3 24.2080 24.2080 67.5378 0.0000 0.0000 0.0000
# 4 0.0000 0.0000 0.0000 15.2167 0.0000 0.0000
# 5 0.0000 0.0000 0.0000 0.0000 15.2167 0.0000
# 6 0.0000 0.0000 0.0000 0.0000 0.0000 22.7489
#
#
#
# Elastic Compliance Matrix: (Units=1/GPa)
#
#
# Indices 1 2 3 4 5 6 
#
# 1 0.042797 -0.028886 -0.004986 0.000000 0.000000 0.000000
# 2 -0.028886 0.042797 -0.004986 0.000000 0.000000 0.000000
# 3 -0.004986 -0.004986 0.018381 0.000000 0.000000 0.000000
# 4 0.000000 0.000000 0.000000 0.065717 0.000000 0.000000
# 5 0.000000 0.000000 0.000000 0.000000 0.065717 0.000000
# 6 0.000000 0.000000 0.000000 0.000000 0.000000 0.043958
#
#
# Mechanical properties :
#
#
# Convention : Reuss Voigt Hill
#
# Bulk Modulus (GPa) = 38.08372 38.09466 38.08919
# Shear Modulus (GPa) = 13.66726 16.28096 14.97411
#
# Velocity S-wave (km/s) = 2.94427 3.21349 3.08182
# Velocity P-wave (km/s) = 5.97609 6.15881 6.06814
#
# Compressibility (1/GPa) = 0.02625794
#
# Stress axis : x y z
#
# Youngs Moduli (GPa) = 23.36608 23.36608 54.40419
#
# Poissons Ratio (x) = 0.67496 0.27127
# Poissons Ratio (y) = 0.67496 0.27127
# Poissons Ratio (z) = 0.11651 0.11651
#
# Static dielectric constant tensor:
#      x y z
#    x 1.535240 0.000000 0.000000 
#    y 0.000000 1.535240 0.000000 
#    z 0.000000 0.000000 1.545220 
# 
# From -- ./inp_files/7642.got.cif
#   From: 2010.05.17/outbox.cif.g08.bks.cpg/sg123_4_cif.got.tgz:7642.got - 2010.05.20 11:43:04.
