data_PCOD9561297
_publ_section_title
;
Structure prediction by ZEFSAII (Michael W. Deem and Ramdas Pophale) SiO2 
 PCOD9561297
Probable space group: I -4 2 D
;
_chemical_formula_sum "Si O2"
_cell_formula_units_Z 96
_cell_length_a 15.960969
_cell_length_b 15.960969
_cell_length_c 17.747272
_cell_angle_alpha 90.000000
_cell_angle_beta 90.000000
_cell_angle_gamma 90.000000
_cell_volume 4521.162468
_symmetry_space_group_name_H-M "I -4 2 D"
_symmetry_group_IT_number 122
_symmetry_cell_setting 'tetragonal'
loop_
_space_group_symop_operation_xyz
x,y,z
y,-x,-z
-x,-y,z
-y,x,-z
x,1/2-y,1/4-z
-x,1/2+y,1/4-z
-y,1/2-x,1/4+z
y,1/2+x,1/4+z
1/2+x,1/2+y,1/2+z
1/2+y,1/2-x,1/2-z
1/2-x,1/2-y,1/2+z
1/2-y,1/2+x,1/2-z
1/2+x,-y,3/4-z
1/2-x,y,3/4-z
1/2-y,-x,3/4+z
1/2+y,x,3/4+z
loop_
_atom_site_type_symbol
_atom_site_label
_atom_site_fract_x
_atom_site_fract_y
_atom_site_fract_z
Si Si1 0.211701 0.988047 0.291366
Si Si2 0.659771 0.848423 0.413796
Si Si3 0.510876 0.235718 0.711256
Si Si4 0.844956 0.383377 0.186148
Si Si5 0.116000 0.538567 0.717075
Si Si6 0.558216 0.418007 0.721641
O O1 0.250000 0.986516 0.375000
O O2 0.287050 0.961364 0.237871
O O3 0.132117 0.929999 0.281411
O O4 0.179322 0.082321 0.272601
O O5 0.750000 0.840680 0.375000
O O6 0.635169 0.753295 0.427104
O O7 0.591945 0.892091 0.358673
O O8 0.483100 0.250000 0.625000
O O9 0.457108 0.163976 0.752454
O O10 0.605149 0.199126 0.712197
O O11 0.511312 0.331108 0.741182
O O12 0.894073 0.409149 0.109650
O O13 0.083631 0.443229 0.720654
O O14 0.500000 0.500000 0.720439
#
# Coordination Sequence:
#
# PCOD9561297 Si02
#       6
#    16  16  16  16  16  16
#     4  11  23  41  64  98 135 180 229 281 349 415
#     4  11  21  42  66  93 132 181 220 274 349 408
#     4  10  25  44  67 101 130 173 231 286 351 420
#     4  11  24  43  73  91 134 179 222 287 356 414
#     4  11  22  39  65  95 132 175 229 274 333 416
#     4  11  24  44  69 100 138 179 236 289 346 426
#
# _framework density 21.233477000000001
#
# number of rings (size 3 to 8) (size 9 to 14) (size 15 to 20)
#    0.000    1.167    5.000    2.500    4.667    2.667 
#    0.000    0.833    0.000    0.000    0.000    0.000 
#    0.000    0.000    0.000    0.000    0.000    0.000 
#
# Total GULP energy -267687.825791 kJ/mol
# GULP energy per Si atom -5576.829704 kJ/mol
# Density = 2.118515 g / cm^3
# Si number density = 21.233477 Si / 1000 Ang^3
#
#
#
# Elastic Constant Matrix: (Units=GPa)
#
#
# Indices 1 2 3 4 5 6 
#
# 1 95.2170 20.2140 15.6398 0.0000 0.0000 0.0000
# 2 20.2140 95.2170 15.6398 0.0000 0.0000 0.0000
# 3 15.6398 15.6398 41.6471 0.0000 0.0000 0.0000
# 4 0.0000 0.0000 0.0000 20.3637 0.0000 0.0000
# 5 0.0000 0.0000 0.0000 0.0000 20.3637 0.0000
# 6 0.0000 0.0000 0.0000 0.0000 0.0000 45.4728
#
#
#
# Elastic Compliance Matrix: (Units=1/GPa)
#
#
# Indices 1 2 3 4 5 6 
#
# 1 0.011489 -0.001844 -0.003622 0.000000 0.000000 0.000000
# 2 -0.001844 0.011489 -0.003622 0.000000 0.000000 0.000000
# 3 -0.003622 -0.003622 0.026732 0.000000 0.000000 0.000000
# 4 0.000000 0.000000 0.000000 0.049107 0.000000 0.000000
# 5 0.000000 0.000000 0.000000 0.000000 0.049107 0.000000
# 6 0.000000 0.000000 0.000000 0.000000 0.000000 0.021991
#
#
# Mechanical properties :
#
#
# Convention : Reuss Voigt Hill
#
# Bulk Modulus (GPa) = 31.71250 37.22982 34.47116
# Shear Modulus (GPa) = 25.17612 29.27920 27.22766
#
# Velocity S-wave (km/s) = 3.44711 3.71741 3.58480
# Velocity P-wave (km/s) = 5.55076 5.99976 5.77962
#
# Compressibility (1/GPa) = 0.03153331
#
# Stress axis : x y z
#
# Youngs Moduli (GPa) = 87.04184 87.04184 37.40902
#
# Poissons Ratio (x) = 0.16051 0.13549
# Poissons Ratio (y) = 0.16051 0.13549
# Poissons Ratio (z) = 0.31525 0.31525
#
# Static dielectric constant tensor:
#      x y z
#    x 1.803820 0.000000 0.000000 
#    y 0.000000 1.803820 0.000000 
#    z 0.000000 0.000000 1.809630 
# 
# From -- ./inp_files/7305.got.cif
#   From: 2010.05.17/outbox.cif.g08.bks.cpg/sg122_4_cif.got.tgz:7305.got - 2010.05.20 11:37:33.
