data_PCOD9561228
_publ_section_title
;
Structure prediction by ZEFSAII (Michael W. Deem and Ramdas Pophale) SiO2 
 PCOD9561228
Probable space group: I -4 2 D
;
_chemical_formula_sum "Si O2"
_cell_formula_units_Z 56
_cell_length_a 13.993231
_cell_length_b 13.993231
_cell_length_c 14.151538
_cell_angle_alpha 90.000000
_cell_angle_beta 90.000000
_cell_angle_gamma 90.000000
_cell_volume 2771.019927
_symmetry_space_group_name_H-M "I -4 2 D"
_symmetry_group_IT_number 122
_symmetry_cell_setting 'tetragonal'
loop_
_space_group_symop_operation_xyz
x,y,z
y,-x,-z
-x,-y,z
-y,x,-z
x,1/2-y,1/4-z
-x,1/2+y,1/4-z
-y,1/2-x,1/4+z
y,1/2+x,1/4+z
1/2+x,1/2+y,1/2+z
1/2+y,1/2-x,1/2-z
1/2-x,1/2-y,1/2+z
1/2-y,1/2+x,1/2-z
1/2+x,-y,3/4-z
1/2-x,y,3/4-z
1/2-y,-x,3/4+z
1/2+y,x,3/4+z
loop_
_atom_site_type_symbol
_atom_site_label
_atom_site_fract_x
_atom_site_fract_y
_atom_site_fract_z
Si Si1 0.000975 0.394563 0.514502
Si Si2 0.789002 0.180447 0.774207
Si Si3 0.250000 0.632944 0.875000
Si Si4 0.921678 0.885343 0.946899
O O1 0.893433 0.355959 0.501651
O O2 0.000000 0.500000 0.556435
O O3 0.066040 0.328034 0.578329
O O4 0.048594 0.401913 0.410716
O O5 0.750000 0.139817 0.875000
O O6 0.789986 0.293618 0.795570
O O7 0.706976 0.145188 0.703971
O O8 0.021031 0.873548 0.005951
#
# Coordination Sequence:
#
# PCOD9561228 Si02
#       4
#    16  16   8  16
#     4  12  25  44  74 102 145 192 239 305 361 436
#     4  10  23  45  67 101 140 178 240 293 357 433
#     4  10  28  48  62 106 144 188 238 272 374 448
#     4  11  20  41  72 112 137 174 239 310 370 413
#
# _framework density 20.209166
#
# number of rings (size 3 to 8) (size 9 to 14) (size 15 to 20)
#    0.857    0.286    5.714    0.000    8.000    3.429 
#    0.000    0.000    0.000    0.000    0.000    0.000 
#    0.000    0.000    0.000    0.000    0.000    0.000 
#
# Total GULP energy -156359.084921 kJ/mol
# GULP energy per Si atom -5584.253033 kJ/mol
# Density = 2.016317 g / cm^3
# Si number density = 20.209166 Si / 1000 Ang^3
#
#
#
# Elastic Constant Matrix: (Units=GPa)
#
#
# Indices 1 2 3 4 5 6 
#
# 1 144.6823 105.1116 43.4598 0.0000 0.0000 0.0000
# 2 105.1116 144.6823 43.4598 0.0000 0.0000 0.0000
# 3 43.4598 43.4598 49.2720 0.0000 0.0000 0.0000
# 4 0.0000 0.0000 0.0000 10.4506 0.0000 0.0000
# 5 0.0000 0.0000 0.0000 0.0000 10.4506 0.0000
# 6 0.0000 0.0000 0.0000 0.0000 0.0000 24.7601
#
#
#
# Elastic Compliance Matrix: (Units=1/GPa)
#
#
# Indices 1 2 3 4 5 6 
#
# 1 0.015524 -0.009748 -0.005095 0.000000 0.000000 0.000000
# 2 -0.009748 0.015524 -0.005095 0.000000 0.000000 0.000000
# 3 -0.005095 -0.005095 0.029283 0.000000 0.000000 0.000000
# 4 0.000000 0.000000 0.000000 0.095689 0.000000 0.000000
# 5 0.000000 0.000000 0.000000 0.000000 0.095689 0.000000
# 6 0.000000 0.000000 0.000000 0.000000 0.000000 0.040388
#
#
# Mechanical properties :
#
#
# Convention : Reuss Voigt Hill
#
# Bulk Modulus (GPa) = 48.88480 80.29987 64.59234
# Shear Modulus (GPa) = 14.75850 18.90594 16.83222
#
# Velocity S-wave (km/s) = 2.70531 3.06193 2.88913
# Velocity P-wave (km/s) = 5.83097 7.23334 6.56968
#
# Compressibility (1/GPa) = 0.02045626
#
# Stress axis : x y z
#
# Youngs Moduli (GPa) = 64.41778 64.41778 34.14949
#
# Poissons Ratio (x) = 0.62792 0.17398
# Poissons Ratio (y) = 0.62792 0.17398
# Poissons Ratio (z) = 0.32819 0.32819
#
# Static dielectric constant tensor:
#      x y z
#    x 1.715830 0.000000 0.000000 
#    y 0.000000 1.715830 0.000000 
#    z 0.000000 0.000000 1.737340 
# 
# From -- ./inp_files/5037.got.cif
#   From: 2010.05.17/outbox.cif.g08.bks.cpg/sg122_3_cif.got.tgz:5037.got - 2010.05.20 11:37:33.
