data_PCOD9561057
_publ_section_title
;
Structure prediction by ZEFSAII (Michael W. Deem and Ramdas Pophale) SiO2 
 PCOD9561057
Probable space group: I -4 2 D
;
_chemical_formula_sum "Si O2"
_cell_formula_units_Z 56
_cell_length_a 12.020722
_cell_length_b 12.020722
_cell_length_c 17.844024
_cell_angle_alpha 90.000000
_cell_angle_beta 90.000000
_cell_angle_gamma 90.000000
_cell_volume 2578.421451
_symmetry_space_group_name_H-M "I -4 2 D"
_symmetry_group_IT_number 122
_symmetry_cell_setting 'tetragonal'
loop_
_space_group_symop_operation_xyz
x,y,z
y,-x,-z
-x,-y,z
-y,x,-z
x,1/2-y,1/4-z
-x,1/2+y,1/4-z
-y,1/2-x,1/4+z
y,1/2+x,1/4+z
1/2+x,1/2+y,1/2+z
1/2+y,1/2-x,1/2-z
1/2-x,1/2-y,1/2+z
1/2-y,1/2+x,1/2-z
1/2+x,-y,3/4-z
1/2-x,y,3/4-z
1/2-y,-x,3/4+z
1/2+y,x,3/4+z
loop_
_atom_site_type_symbol
_atom_site_label
_atom_site_fract_x
_atom_site_fract_y
_atom_site_fract_z
Si Si1 0.704951 0.864023 0.958847
Si Si2 0.810183 0.873837 0.109045
Si Si3 0.500000 0.500000 0.311307
Si Si4 0.121138 0.371604 0.732437
O O1 0.750000 0.876519 0.875000
O O2 0.607020 0.950782 0.979660
O O3 0.796982 0.886087 0.021099
O O4 0.663398 0.737641 0.973993
O O5 0.853843 0.750000 0.125000
O O6 0.895326 0.961544 0.140683
O O7 0.693824 0.879859 0.156055
O O8 0.139440 0.487877 0.776625
#
# Coordination Sequence:
#
# PCOD9561057 Si02
#       4
#    16  16   8  16
#     4  11  26  43  69 102 137 190 232 279 352 418
#     4  10  24  45  67 104 141 175 236 289 341 424
#     4  12  24  47  66 100 139 194 222 290 341 418
#     4  10  21  45  73 105 135 173 230 300 351 407
#
# _framework density 21.718713999999999
#
# number of rings (size 3 to 8) (size 9 to 14) (size 15 to 20)
#    0.000    1.429    2.857    0.857    0.000   13.714 
#    0.000    0.000    0.000    0.000    0.000    0.000 
#    0.000    0.000    0.000    0.000    0.000    0.000 
#
# Total GULP energy -156414.844711 kJ/mol
# GULP energy per Si atom -5586.244454 kJ/mol
# Density = 2.166928 g / cm^3
# Si number density = 21.718714 Si / 1000 Ang^3
#
#
#
# Elastic Constant Matrix: (Units=GPa)
#
#
# Indices 1 2 3 4 5 6 
#
# 1 71.7528 -5.3541 11.4302 0.0000 0.0000 0.0000
# 2 -5.3541 71.7528 11.4302 0.0000 0.0000 0.0000
# 3 11.4302 11.4302 102.1213 0.0000 0.0000 0.0000
# 4 0.0000 0.0000 0.0000 -3.9791 0.0000 0.0000
# 5 0.0000 0.0000 0.0000 0.0000 -3.9791 0.0000
# 6 0.0000 0.0000 0.0000 0.0000 0.0000 32.5719
#
#
#
# Elastic Compliance Matrix: (Units=1/GPa)
#
#
# Indices 1 2 3 4 5 6 
#
# 1 0.014317 0.001348 -0.001753 0.000000 0.000000 0.000000
# 2 0.001348 0.014317 -0.001753 0.000000 0.000000 0.000000
# 3 -0.001753 -0.001753 0.010185 0.000000 0.000000 0.000000
# 4 0.000000 0.000000 0.000000 -0.251313 0.000000 0.000000
# 5 0.000000 0.000000 0.000000 0.000000 -0.251313 0.000000
# 6 0.000000 0.000000 0.000000 0.000000 0.000000 0.030701
#
#
# Mechanical properties :
#
#
# Convention : Reuss Voigt Hill
#
# Bulk Modulus (GPa) = 28.98545 31.18216 30.08380
# Shear Modulus (GPa) = -11.98213 20.13079 4.07433
#
# Velocity S-wave (km/s) = -2.35137 3.04778 1.37114
# Velocity P-wave (km/s) = 2.45008 5.17434 4.04825
#
# Compressibility (1/GPa) = 0.03450007
#
# Stress axis : x y z
#
# Youngs Moduli (GPa) = 69.84909 69.84909 98.18600
#
# Poissons Ratio (x) = -0.09413 0.17214
# Poissons Ratio (y) = -0.09413 0.17214
# Poissons Ratio (z) = 0.12246 0.12246
#
# Static dielectric constant tensor:
#      x y z
#    x 1.853510 0.000000 0.000000 
#    y 0.000000 1.853510 0.000000 
#    z 0.000000 0.000000 1.762100 
# 
# From -- ./inp_files/6800.got.cif
#   From: 2010.05.17/outbox.cif.g08.bks.cpg/sg122_4_cif.got.tgz:6800.got - 2010.05.20 11:37:33.
