data_PCOD9561219
_publ_section_title
;
Structure prediction by ZEFSAII (Michael W. Deem and Ramdas Pophale) SiO2 
 PCOD9561219
Probable space group: I -4 2 D
;
_chemical_formula_sum "Si O2"
_cell_formula_units_Z 92
_cell_length_a 15.028033
_cell_length_b 15.028033
_cell_length_c 17.725850
_cell_angle_alpha 90.000000
_cell_angle_beta 90.000000
_cell_angle_gamma 90.000000
_cell_volume 4003.237442
_symmetry_space_group_name_H-M "I -4 2 D"
_symmetry_group_IT_number 122
_symmetry_cell_setting 'tetragonal'
loop_
_space_group_symop_operation_xyz
x,y,z
y,-x,-z
-x,-y,z
-y,x,-z
x,1/2-y,1/4-z
-x,1/2+y,1/4-z
-y,1/2-x,1/4+z
y,1/2+x,1/4+z
1/2+x,1/2+y,1/2+z
1/2+y,1/2-x,1/2-z
1/2-x,1/2-y,1/2+z
1/2-y,1/2+x,1/2-z
1/2+x,-y,3/4-z
1/2-x,y,3/4-z
1/2-y,-x,3/4+z
1/2+y,x,3/4+z
loop_
_atom_site_type_symbol
_atom_site_label
_atom_site_fract_x
_atom_site_fract_y
_atom_site_fract_z
Si Si1 0.339446 0.370683 0.660393
Si Si2 0.750000 0.947672 0.375000
Si Si3 0.279806 0.285750 0.982726
Si Si4 0.000000 0.000000 0.000000
Si Si5 0.835475 0.051067 0.242912
Si Si6 0.652315 0.874850 0.757871
Si Si7 0.479849 0.805869 0.546255
O O1 0.252589 0.317829 0.685164
O O2 0.327070 0.472204 0.682866
O O3 0.375614 0.351957 0.577274
O O4 0.419314 0.333905 0.711993
O O5 0.713073 0.876013 0.314888
O O6 0.819020 0.007137 0.325848
O O7 0.373620 0.238681 0.983962
O O8 0.204399 0.210799 0.957613
O O9 0.931504 0.069166 0.041183
O O10 0.924082 0.105850 0.221968
O O11 0.731372 0.944786 0.739947
O O12 0.461672 0.750000 0.625000
#
# Coordination Sequence:
#
# PCOD9561219 Si02
#       7
#    16   8  16   4  16  16  16
#     4  11  23  43  65 105 141 180 242 296 363 443
#     4  10  24  48  72 104 140 184 256 306 362 436
#     4  10  23  43  70 100 135 190 246 297 371 431
#     4  12  24  36  56 108 156 180 240 280 374 444
#     4  10  25  41  75  97 140 191 241 312 358 443
#     4  11  25  37  67 100 145 195 224 297 359 452
#     4  11  24  43  65 104 144 189 238 286 370 446
#
# _framework density 22.981401000000002
#
# number of rings (size 3 to 8) (size 9 to 14) (size 15 to 20)
#    0.000    1.391    0.000    4.174   14.609    2.783 
#    0.000    0.000    3.826    4.696    0.000    0.000 
#    0.000    0.000    0.000    0.000    0.000    0.000 
#
# Total GULP energy -256363.132754 kJ/mol
# GULP energy per Si atom -5573.111582 kJ/mol
# Density = 2.292909 g / cm^3
# Si number density = 22.981401 Si / 1000 Ang^3
#
#
#
# Elastic Constant Matrix: (Units=GPa)
#
#
# Indices 1 2 3 4 5 6 
#
# 1 149.7548 62.8833 27.2656 0.0000 0.0000 0.0000
# 2 62.8833 149.7548 27.2656 0.0000 0.0000 0.0000
# 3 27.2656 27.2656 75.8878 0.0000 0.0000 0.0000
# 4 0.0000 0.0000 0.0000 33.2073 0.0000 0.0000
# 5 0.0000 0.0000 0.0000 0.0000 33.2073 0.0000
# 6 0.0000 0.0000 0.0000 0.0000 0.0000 28.6806
#
#
#
# Elastic Compliance Matrix: (Units=1/GPa)
#
#
# Indices 1 2 3 4 5 6 
#
# 1 0.008346 -0.003166 -0.001861 0.000000 0.000000 0.000000
# 2 -0.003166 0.008346 -0.001861 0.000000 0.000000 0.000000
# 3 -0.001861 -0.001861 0.014515 0.000000 0.000000 0.000000
# 4 0.000000 0.000000 0.000000 0.030114 0.000000 0.000000
# 5 0.000000 0.000000 0.000000 0.000000 0.030114 0.000000
# 6 0.000000 0.000000 0.000000 0.000000 0.000000 0.034867
#
#
# Mechanical properties :
#
#
# Convention : Reuss Voigt Hill
#
# Bulk Modulus (GPa) = 57.37123 67.80296 62.58709
# Shear Modulus (GPa) = 34.27323 36.21790 35.24556
#
# Velocity S-wave (km/s) = 3.86598 3.97415 3.92044
# Velocity P-wave (km/s) = 6.70419 7.11519 6.91275
#
# Compressibility (1/GPa) = 0.01743034
#
# Stress axis : x y z
#
# Youngs Moduli (GPa) = 119.82231 119.82231 68.89550
#
# Poissons Ratio (x) = 0.37931 0.12823
# Poissons Ratio (y) = 0.37931 0.12823
# Poissons Ratio (z) = 0.22301 0.22301
#
# Static dielectric constant tensor:
#      x y z
#    x 1.877320 0.000000 0.000000 
#    y 0.000000 1.877320 0.000000 
#    z 0.000000 0.000000 1.983650 
# 
# From -- ./inp_files/7346.got.cif
#   From: 2010.05.17/outbox.cif.g08.bks.cpg/sg122_4_cif.got.tgz:7346.got - 2010.05.20 11:37:33.
