data_PCOD9561912
_publ_section_title
;
Structure prediction by ZEFSAII (Michael W. Deem and Ramdas Pophale) SiO2 
 PCOD9561912
Probable space group: P 4/M M M
;
_chemical_formula_sum "Si O2"
_cell_formula_units_Z 72
_cell_length_a 13.271976
_cell_length_b 13.271976
_cell_length_c 25.133103
_cell_angle_alpha 90.000000
_cell_angle_beta 90.000000
_cell_angle_gamma 90.000000
_cell_volume 4427.079148
_symmetry_space_group_name_H-M "P 4/M M M"
_symmetry_group_IT_number 123
_symmetry_cell_setting 'tetragonal'
loop_
_space_group_symop_operation_xyz
x,y,z
-y,x,z
-x,-y,z
y,-x,z
x,-y,-z
-x,y,-z
y,x,-z
-y,-x,-z
-x,-y,-z
y,-x,-z
x,y,-z
-y,x,-z
-x,y,z
x,-y,z
-y,-x,z
y,x,z
loop_
_atom_site_type_symbol
_atom_site_label
_atom_site_fract_x
_atom_site_fract_y
_atom_site_fract_z
Si Si1 0.880594 0.383110 0.267452
Si Si2 0.500000 0.878087 0.438680
Si Si3 0.116294 0.284983 0.059446
Si Si4 0.219320 0.382568 0.156101
Si Si5 0.878443 0.288444 0.381104
O O1 0.853123 0.500000 0.279984
O O2 0.826571 0.352285 0.213180
O O3 0.862638 0.314581 0.318778
O O4 0.000000 0.382309 0.257411
O O5 0.500000 0.845292 0.500000
O O6 0.606542 0.850099 0.411129
O O7 0.500000 0.000000 0.436847
O O8 0.188109 0.188109 0.064304
O O9 0.144757 0.357942 0.107584
O O10 0.000000 0.256139 0.063172
O O11 0.133402 0.328545 0.000000
O O12 0.239558 0.500000 0.158182
O O13 0.319104 0.319104 0.146303
O O14 0.805508 0.194493 0.395744
O O15 0.000000 0.270150 0.389432
#
# Coordination Sequence:
#
# PCOD9561912 Si02
#       5
#    16   8  16  16  16
#     4   9  16  29  50  74  98 126 165 207 245 289
#     4   9  18  34  54  75  99 133 178 215 244 287
#     4   9  18  32  49  70  95 121 152 192 239 293
#     4  10  20  32  47  68  94 126 164 205 248 291
#     4  10  19  32  52  78 108 139 171 210 255 304
#
# _framework density 16.263544
#
# number of rings (size 3 to 8) (size 9 to 14) (size 15 to 20)
#    0.000    2.556    1.111    1.333    0.000    2.889 
#    0.000    2.222    0.000    0.333    0.000   10.111 
#    0.000    0.000    0.000    0.000    0.000    0.000 
#
# Total GULP energy -400845.790938 kJ/mol
# GULP energy per Si atom -5567.302652 kJ/mol
# Density = 1.622653 g / cm^3
# Si number density = 16.263544 Si / 1000 Ang^3
#
#
#
# Elastic Constant Matrix: (Units=GPa)
#
#
# Indices 1 2 3 4 5 6 
#
# 1 70.8911 40.8655 39.2987 0.0000 0.0000 0.0000
# 2 40.8655 70.8911 39.2987 0.0000 0.0000 0.0000
# 3 39.2987 39.2987 92.6679 0.0000 0.0000 0.0000
# 4 0.0000 0.0000 0.0000 17.6724 0.0000 0.0000
# 5 0.0000 0.0000 0.0000 0.0000 17.6724 0.0000
# 6 0.0000 0.0000 0.0000 0.0000 0.0000 17.3571
#
#
#
# Elastic Compliance Matrix: (Units=1/GPa)
#
#
# Indices 1 2 3 4 5 6 
#
# 1 0.023028 -0.010277 -0.005407 0.000000 0.000000 0.000000
# 2 -0.010277 0.023028 -0.005407 0.000000 0.000000 0.000000
# 3 -0.005407 -0.005407 0.015378 0.000000 0.000000 0.000000
# 4 0.000000 0.000000 0.000000 0.056585 0.000000 0.000000
# 5 0.000000 0.000000 0.000000 0.000000 0.056585 0.000000
# 6 0.000000 0.000000 0.000000 0.000000 0.000000 0.057613
#
#
# Mechanical properties :
#
#
# Convention : Reuss Voigt Hill
#
# Bulk Modulus (GPa) = 51.94851 52.59731 52.27291
# Shear Modulus (GPa) = 17.80513 18.20620 18.00566
#
# Velocity S-wave (km/s) = 3.31235 3.34945 3.33095
# Velocity P-wave (km/s) = 6.82934 6.88253 6.85599
#
# Compressibility (1/GPa) = 0.01924983
#
# Stress axis : x y z
#
# Youngs Moduli (GPa) = 43.42546 43.42546 65.02944
#
# Poissons Ratio (x) = 0.44628 0.35165
# Poissons Ratio (y) = 0.44628 0.35165
# Poissons Ratio (z) = 0.23482 0.23482
#
# Static dielectric constant tensor:
#      x y z
#    x 1.530480 0.000000 0.000000 
#    y 0.000000 1.530480 0.000000 
#    z 0.000000 0.000000 1.571570 
# 
# From -- ./inp_files/7823.got.cif
#   From: 2010.05.17/outbox.cif.g08.bks.cpg/sg123_4_cif.got.tgz:7823.got - 2010.05.20 11:43:04.
