data_PCOD9561031
_publ_section_title
;
Structure prediction by ZEFSAII (Michael W. Deem and Ramdas Pophale) SiO2 
 PCOD9561031
Probable space group: I -4 2 D
;
_chemical_formula_sum "Si O2"
_cell_formula_units_Z 68
_cell_length_a 13.086511
_cell_length_b 13.086511
_cell_length_c 18.773459
_cell_angle_alpha 90.000000
_cell_angle_beta 90.000000
_cell_angle_gamma 90.000000
_cell_volume 3215.081953
_symmetry_space_group_name_H-M "I -4 2 D"
_symmetry_group_IT_number 122
_symmetry_cell_setting 'tetragonal'
loop_
_space_group_symop_operation_xyz
x,y,z
y,-x,-z
-x,-y,z
-y,x,-z
x,1/2-y,1/4-z
-x,1/2+y,1/4-z
-y,1/2-x,1/4+z
y,1/2+x,1/4+z
1/2+x,1/2+y,1/2+z
1/2+y,1/2-x,1/2-z
1/2-x,1/2-y,1/2+z
1/2-y,1/2+x,1/2-z
1/2+x,-y,3/4-z
1/2-x,y,3/4-z
1/2-y,-x,3/4+z
1/2+y,x,3/4+z
loop_
_atom_site_type_symbol
_atom_site_label
_atom_site_fract_x
_atom_site_fract_y
_atom_site_fract_z
Si Si1 0.000000 0.500000 0.250000
Si Si2 0.025144 0.280813 0.199934
Si Si3 0.250000 0.196177 0.375000
Si Si4 0.500000 0.000000 0.063804
Si Si5 0.721024 0.487059 0.143185
Si Si6 0.392505 0.680915 0.266671
O O1 0.030496 0.402660 0.202794
O O2 0.974523 0.250000 0.125000
O O3 0.977705 0.251355 0.276718
O O4 0.127696 0.212337 0.205819
O O5 0.364690 0.244872 0.383607
O O6 0.247168 0.133127 0.449222
O O7 0.399443 0.007942 0.110890
O O8 0.468934 0.905397 0.014007
O O9 0.771533 0.552177 0.082877
#
# Coordination Sequence:
#
# PCOD9561031 Si02
#       6
#     4  16   8   8  16  16
#     4  12  24  46  72 100 134 184 222 292 342 400
#     4  10  23  41  64  97 132 170 227 269 343 413
#     4   8  20  38  58  96 126 172 230 276 334 420
#     4   8  20  41  65  93 137 170 212 288 343 391
#     4  10  21  41  65  94 135 177 226 282 346 410
#     4  10  21  43  62  97 132 173 227 276 350 413
#
# _framework density 21.150317999999999
#
# number of rings (size 3 to 8) (size 9 to 14) (size 15 to 20)
#    0.000    2.824    0.000    1.412    0.000   12.235 
#   33.882    1.176    0.000    0.000    0.000    0.000 
#    0.000    0.000    0.000    0.000    0.000    0.000 
#
# Total GULP energy -189323.509428 kJ/mol
# GULP energy per Si atom -5568.338513 kJ/mol
# Density = 2.110218 g / cm^3
# Si number density = 21.150318 Si / 1000 Ang^3
#
#
#
# Elastic Constant Matrix: (Units=GPa)
#
#
# Indices 1 2 3 4 5 6 
#
# 1 107.1884 35.1530 39.5306 0.0000 0.0000 0.0000
# 2 35.1530 107.1884 39.5306 0.0000 0.0000 0.0000
# 3 39.5306 39.5306 154.0777 0.0000 0.0000 0.0000
# 4 0.0000 0.0000 0.0000 35.5559 0.0000 0.0000
# 5 0.0000 0.0000 0.0000 0.0000 35.5559 0.0000
# 6 0.0000 0.0000 0.0000 0.0000 0.0000 14.8967
#
#
#
# Elastic Compliance Matrix: (Units=1/GPa)
#
#
# Indices 1 2 3 4 5 6 
#
# 1 0.011037 -0.002845 -0.002102 0.000000 0.000000 0.000000
# 2 -0.002845 0.011037 -0.002102 0.000000 0.000000 0.000000
# 3 -0.002102 -0.002102 0.007569 0.000000 0.000000 0.000000
# 4 0.000000 0.000000 0.000000 0.028125 0.000000 0.000000
# 5 0.000000 0.000000 0.000000 0.000000 0.028125 0.000000
# 6 0.000000 0.000000 0.000000 0.000000 0.000000 0.067129
#
#
# Mechanical properties :
#
#
# Convention : Reuss Voigt Hill
#
# Bulk Modulus (GPa) = 64.32267 66.32033 65.32150
# Shear Modulus (GPa) = 29.01888 34.15106 31.58497
#
# Velocity S-wave (km/s) = 3.70811 4.02267 3.86859
# Velocity P-wave (km/s) = 6.98653 7.28015 7.13485
#
# Compressibility (1/GPa) = 0.01554662
#
# Stress axis : x y z
#
# Youngs Moduli (GPa) = 90.60049 90.60049 132.12112
#
# Poissons Ratio (x) = 0.25772 0.27772
# Poissons Ratio (y) = 0.25772 0.27772
# Poissons Ratio (z) = 0.19044 0.19044
#
# Static dielectric constant tensor:
#      x y z
#    x 1.777240 0.000000 0.000000 
#    y 0.000000 1.777240 0.000000 
#    z 0.000000 0.000000 1.790760 
# 
# From -- ./inp_files/7042.got.cif
#   From: 2010.05.17/outbox.cif.g08.bks.cpg/sg122_4_cif.got.tgz:7042.got - 2010.05.20 11:37:33.
