data_PCOD9561741
_publ_section_title
;
Structure prediction by ZEFSAII (Michael W. Deem and Ramdas Pophale) SiO2 
 PCOD9561741
Probable space group: P 4/M M M
;
_chemical_formula_sum "Si O2"
_cell_formula_units_Z 112
_cell_length_a 29.169398
_cell_length_b 29.169398
_cell_length_c 7.544992
_cell_angle_alpha 90.000000
_cell_angle_beta 90.000000
_cell_angle_gamma 90.000000
_cell_volume 6419.684961
_symmetry_space_group_name_H-M "P 4/M M M"
_symmetry_group_IT_number 123
_symmetry_cell_setting 'tetragonal'
loop_
_space_group_symop_operation_xyz
x,y,z
-y,x,z
-x,-y,z
y,-x,z
x,-y,-z
-x,y,-z
y,x,-z
-y,-x,-z
-x,-y,-z
y,-x,-z
x,y,-z
-y,x,-z
-x,y,z
x,-y,z
-y,-x,z
y,x,z
loop_
_atom_site_type_symbol
_atom_site_label
_atom_site_fract_x
_atom_site_fract_y
_atom_site_fract_z
Si Si1 0.646103 0.925802 0.786089
Si Si2 0.000000 0.178722 0.801370
Si Si3 0.174935 0.249112 0.713383
Si Si4 0.000000 0.720729 0.702292
Si Si5 0.449779 0.174284 0.715456
Si Si6 0.066079 0.548566 0.207368
Si Si7 0.898107 0.823582 0.212937
Si Si8 0.649847 0.179614 0.702317
O O1 0.598087 0.947992 0.723894
O O2 0.648637 0.875718 0.703145
O O3 0.688856 0.956561 0.738508
O O4 0.644173 0.920879 0.000000
O O5 0.949890 0.168942 0.718880
O O6 0.000000 0.233723 0.814770
O O7 0.000000 0.158204 0.000000
O O8 0.177375 0.252030 0.500000
O O9 0.212283 0.212283 0.776602
O O10 0.125487 0.225959 0.751531
O O11 0.187116 0.299776 0.784067
O O12 0.000000 0.735916 0.500000
O O13 0.448268 0.173895 0.500000
O O14 0.500000 0.194118 0.766900
O O15 0.450599 0.121488 0.778090
O O16 0.400312 0.193859 0.777193
O O17 0.051396 0.500000 0.287231
O O18 0.053755 0.547560 0.000000
O O19 0.862203 0.862203 0.277873
O O20 0.900589 0.826983 0.000000
O O21 0.650951 0.196962 0.500000
#
# Coordination Sequence:
#
# PCOD9561741 Si02
#       8
#    16   8  16   8  16  16  16  16
#     4  10  19  30  43  57  74  95 120 151 186 223
#     4  10  20  34  52  70  87 106 126 147 172 207
#     4   9  17  28  41  58  81 107 132 157 185 218
#     4  12  24  34  43  57  79 102 125 152 180 211
#     4   8  13  21  34  52  72  93 118 150 188 226
#     4   8  14  25  40  55  69  88 116 149 184 221
#     4   9  18  32  49  68  88 108 128 150 177 210
#     4   9  16  26  40  57  76  98 124 154 188 224
#
# _framework density 17.446338999999998
#
# number of rings (size 3 to 8) (size 9 to 14) (size 15 to 20)
#    0.000    2.857    0.000    1.929    0.000    4.000 
#    0.000    0.357    0.000    2.357    0.000    1.500 
#    0.000    0.000    0.000    4.214    0.000    4.429 
#
# Total GULP energy -623546.034151 kJ/mol
# GULP energy per Si atom -5567.375305 kJ/mol
# Density = 1.740663 g / cm^3
# Si number density = 17.446339 Si / 1000 Ang^3
#
#
#
# Elastic Constant Matrix: (Units=GPa)
#
#
# Indices 1 2 3 4 5 6 
#
# 1 91.6381 22.9636 -0.6819 0.0000 0.0000 0.0000
# 2 22.9636 91.6381 -0.6819 0.0000 0.0000 0.0000
# 3 -0.6819 -0.6819 57.5034 0.0000 0.0000 0.0000
# 4 0.0000 0.0000 0.0000 7.3189 0.0000 0.0000
# 5 0.0000 0.0000 0.0000 0.0000 7.3189 0.0000
# 6 0.0000 0.0000 0.0000 0.0000 0.0000 122.6177
#
#
#
# Elastic Compliance Matrix: (Units=1/GPa)
#
#
# Indices 1 2 3 4 5 6 
#
# 1 0.011644 -0.002917 0.000103 0.000000 0.000000 0.000000
# 2 -0.002917 0.011644 0.000103 0.000000 0.000000 0.000000
# 3 0.000103 0.000103 0.017393 0.000000 0.000000 0.000000
# 4 0.000000 0.000000 0.000000 0.136632 0.000000 0.000000
# 5 0.000000 0.000000 0.000000 0.000000 0.136632 0.000000
# 6 0.000000 0.000000 0.000000 0.000000 0.000000 0.008155
#
#
# Mechanical properties :
#
#
# Convention : Reuss Voigt Hill
#
# Bulk Modulus (GPa) = 28.36002 31.55324 29.95663
# Shear Modulus (GPa) = 14.73730 42.06309 28.40020
#
# Velocity S-wave (km/s) = 2.90956 4.91552 4.03905
# Velocity P-wave (km/s) = 5.25150 7.09518 6.24179
#
# Compressibility (1/GPa) = 0.03526091
#
# Stress axis : x y z
#
# Youngs Moduli (GPa) = 85.87908 85.87908 57.49524
#
# Poissons Ratio (x) = 0.25052 -0.00595
# Poissons Ratio (y) = 0.25052 -0.00595
# Poissons Ratio (z) = -0.00889 -0.00889
#
# Static dielectric constant tensor:
#      x y z
#    x 1.638090 0.000000 0.000000 
#    y 0.000000 1.638090 0.000000 
#    z 0.000000 0.000000 1.678170 
# 
# From -- ./inp_files/2184.got.cif
#   From: 2010.05.17/outbox.cif.g08.bks.cpg/sg123_2_cif.got.tgz:2184.got - 2010.05.20 11:43:04.
