data_PCOD9561599
_publ_section_title
;
Structure prediction by ZEFSAII (Michael W. Deem and Ramdas Pophale) SiO2 
 PCOD9561599
Probable space group: P 4/M M M
;
_chemical_formula_sum "Si O2"
_cell_formula_units_Z 58
_cell_length_a 15.724673
_cell_length_b 15.724673
_cell_length_c 14.284410
_cell_angle_alpha 90.000000
_cell_angle_beta 90.000000
_cell_angle_gamma 90.000000
_cell_volume 3532.039509
_symmetry_space_group_name_H-M "P 4/M M M"
_symmetry_group_IT_number 123
_symmetry_cell_setting 'tetragonal'
loop_
_space_group_symop_operation_xyz
x,y,z
-y,x,z
-x,-y,z
y,-x,z
x,-y,-z
-x,y,-z
y,x,-z
-y,-x,-z
-x,-y,-z
y,-x,-z
x,y,-z
-y,x,-z
-x,y,z
x,-y,z
-y,-x,z
y,x,z
loop_
_atom_site_type_symbol
_atom_site_label
_atom_site_fract_x
_atom_site_fract_y
_atom_site_fract_z
Si Si1 0.235789 0.097815 0.887253
Si Si2 0.305463 0.834412 0.390816
Si Si3 0.812464 0.000000 0.389967
Si Si4 0.000000 0.000000 0.681237
Si Si5 0.898415 0.594807 0.773704
O O1 0.163845 0.163845 0.855197
O O2 0.327735 0.118653 0.844478
O O3 0.214804 0.000000 0.862038
O O4 0.239888 0.101658 0.000000
O O5 0.329877 0.834714 0.500000
O O6 0.248993 0.751008 0.372149
O O7 0.244202 0.916256 0.375516
O O8 0.382726 0.847932 0.320511
O O9 0.895767 0.000000 0.328542
O O10 0.840162 0.000000 0.500000
O O11 0.878355 0.500000 0.808510
O O12 0.000000 0.596879 0.754391
#
# Coordination Sequence:
#
# PCOD9561599 Si02
#       5
#    16  16   8   2  16
#     4   9  18  33  53  75 100 129 160 196 237 283
#     4  10  19  30  44  62  90 126 162 204 245 282
#     4  10  17  24  37  58  84 119 161 199 236 276
#     4  12  17  24  40  60  88 124 169 210 245 280
#     4  10  20  32  47  66  92 128 168 208 242 278
#
# _framework density 16.421108
#
# number of rings (size 3 to 8) (size 9 to 14) (size 15 to 20)
#    0.000    2.207    2.759    1.448    0.000    1.379 
#    0.000    5.517    0.000    0.000    0.000    0.000 
#    0.000    8.828    0.000   24.276    0.000    0.552 
#
# Total GULP energy -323178.867835 kJ/mol
# GULP energy per Si atom -5572.049445 kJ/mol
# Density = 1.638373 g / cm^3
# Si number density = 16.421108 Si / 1000 Ang^3
#
#
#
# Elastic Constant Matrix: (Units=GPa)
#
#
# Indices 1 2 3 4 5 6 
#
# 1 86.0214 52.3373 32.1783 0.0000 0.0000 0.0000
# 2 52.3373 86.0214 32.1783 0.0000 0.0000 0.0000
# 3 32.1783 32.1783 39.5456 0.0000 0.0000 0.0000
# 4 0.0000 0.0000 0.0000 16.3734 0.0000 0.0000
# 5 0.0000 0.0000 0.0000 0.0000 16.3734 0.0000
# 6 0.0000 0.0000 0.0000 0.0000 0.0000 13.5902
#
#
#
# Elastic Compliance Matrix: (Units=1/GPa)
#
#
# Indices 1 2 3 4 5 6 
#
# 1 0.020658 -0.009029 -0.009463 0.000000 0.000000 0.000000
# 2 -0.009029 0.020658 -0.009463 0.000000 0.000000 0.000000
# 3 -0.009463 -0.009463 0.040687 0.000000 0.000000 0.000000
# 4 0.000000 0.000000 0.000000 0.061075 0.000000 0.000000
# 5 0.000000 0.000000 0.000000 0.000000 0.061075 0.000000
# 6 0.000000 0.000000 0.000000 0.000000 0.000000 0.073582
#
#
# Mechanical properties :
#
#
# Convention : Reuss Voigt Hill
#
# Bulk Modulus (GPa) = 38.32229 49.44179 43.88204
# Shear Modulus (GPa) = 14.60530 15.59372 15.09951
#
# Velocity S-wave (km/s) = 2.98555 3.08492 3.03565
# Velocity P-wave (km/s) = 5.93907 6.54699 6.25043
#
# Compressibility (1/GPa) = 0.02609447
#
# Stress axis : x y z
#
# Youngs Moduli (GPa) = 48.40662 48.40662 24.57814
#
# Poissons Ratio (x) = 0.43708 0.23257
# Poissons Ratio (y) = 0.43708 0.23257
# Poissons Ratio (z) = 0.45805 0.45805
#
# Static dielectric constant tensor:
#      x y z
#    x 1.537210 0.000000 0.000000 
#    y 0.000000 1.537210 0.000000 
#    z 0.000000 0.000000 1.605880 
# 
# From -- ./inp_files/3790.got.cif
#   From: 2010.05.17/outbox.cif.g08.bks.cpg/sg123_2_cif.got.tgz:3790.got - 2010.05.20 11:43:04.
