data_PCOD9561169
_publ_section_title
;
Structure prediction by ZEFSAII (Michael W. Deem and Ramdas Pophale) SiO2 
 PCOD9561169
Probable space group: I -4 2 D
;
_chemical_formula_sum "Si O2"
_cell_formula_units_Z 64
_cell_length_a 12.119961
_cell_length_b 12.119961
_cell_length_c 20.726247
_cell_angle_alpha 90.000000
_cell_angle_beta 90.000000
_cell_angle_gamma 90.000000
_cell_volume 3044.550024
_symmetry_space_group_name_H-M "I -4 2 D"
_symmetry_group_IT_number 122
_symmetry_cell_setting 'tetragonal'
loop_
_space_group_symop_operation_xyz
x,y,z
y,-x,-z
-x,-y,z
-y,x,-z
x,1/2-y,1/4-z
-x,1/2+y,1/4-z
-y,1/2-x,1/4+z
y,1/2+x,1/4+z
1/2+x,1/2+y,1/2+z
1/2+y,1/2-x,1/2-z
1/2-x,1/2-y,1/2+z
1/2-y,1/2+x,1/2-z
1/2+x,-y,3/4-z
1/2-x,y,3/4-z
1/2-y,-x,3/4+z
1/2+y,x,3/4+z
loop_
_atom_site_type_symbol
_atom_site_label
_atom_site_fract_x
_atom_site_fract_y
_atom_site_fract_z
Si Si1 0.221278 0.710031 0.002103
Si Si2 0.240855 0.034399 0.524168
Si Si3 0.500000 0.500000 0.500000
Si Si4 0.935735 0.250000 0.125000
Si Si5 0.904748 0.140293 0.903852
Si Si6 0.000000 0.000000 0.500000
O O1 0.221785 0.578006 0.989582
O O2 0.142188 0.731262 0.063142
O O3 0.348861 0.746608 0.013144
O O4 0.178716 0.778220 0.940496
O O5 0.307244 0.047273 0.590008
O O6 0.111379 0.017104 0.539932
O O7 0.495496 0.609527 0.457199
O O8 0.023365 0.151332 0.113333
#
# Coordination Sequence:
#
# PCOD9561169 Si02
#       6
#    16  16   4   8  16   4
#     4  11  24  44  69 100 136 183 231 290 353 417
#     4  10  22  45  68 100 137 178 233 290 351 421
#     4  12  24  40  64  94 140 184 224 280 346 408
#     4  12  24  42  66 102 140 180 236 286 350 424
#     4  12  23  43  68  98 139 182 228 289 346 415
#     4   8  20  44  68  98 140 176 224 292 358 416
#
# _framework density 21.021167999999999
#
# number of rings (size 3 to 8) (size 9 to 14) (size 15 to 20)
#    0.000    1.000    5.000    1.500    0.000    0.000 
#   13.500    0.000    0.000    0.000    0.000    0.000 
#    0.000    0.000    0.000    0.000    0.000    0.000 
#
# Total GULP energy -178650.652180 kJ/mol
# GULP energy per Si atom -5582.832881 kJ/mol
# Density = 2.097332 g / cm^3
# Si number density = 21.021168 Si / 1000 Ang^3
#
#
#
# Elastic Constant Matrix: (Units=GPa)
#
#
# Indices 1 2 3 4 5 6 
#
# 1 111.6165 71.7140 51.7760 0.0000 0.0000 0.0000
# 2 71.7140 111.6165 51.7760 0.0000 0.0000 0.0000
# 3 51.7760 51.7760 83.4531 0.0000 0.0000 0.0000
# 4 0.0000 0.0000 0.0000 29.5924 0.0000 0.0000
# 5 0.0000 0.0000 0.0000 0.0000 29.5924 0.0000
# 6 0.0000 0.0000 0.0000 0.0000 0.0000 29.5612
#
#
#
# Elastic Compliance Matrix: (Units=1/GPa)
#
#
# Indices 1 2 3 4 5 6 
#
# 1 0.016729 -0.008332 -0.005210 0.000000 0.000000 0.000000
# 2 -0.008332 0.016729 -0.005210 0.000000 0.000000 0.000000
# 3 -0.005210 -0.005210 0.018447 0.000000 0.000000 0.000000
# 4 0.000000 0.000000 0.000000 0.033792 0.000000 0.000000
# 5 0.000000 0.000000 0.000000 0.000000 0.033792 0.000000
# 6 0.000000 0.000000 0.000000 0.000000 0.000000 0.033828
#
#
# Mechanical properties :
#
#
# Convention : Reuss Voigt Hill
#
# Bulk Modulus (GPa) = 69.43200 73.02422 71.22811
# Shear Modulus (GPa) = 25.55934 26.51053 26.03493
#
# Velocity S-wave (km/s) = 3.49074 3.55510 3.52307
# Velocity P-wave (km/s) = 7.02483 7.18787 7.10682
#
# Compressibility (1/GPa) = 0.01440258
#
# Stress axis : x y z
#
# Youngs Moduli (GPa) = 59.77556 59.77556 54.20813
#
# Poissons Ratio (x) = 0.49804 0.28242
# Poissons Ratio (y) = 0.49804 0.28242
# Poissons Ratio (z) = 0.31142 0.31142
#
# Static dielectric constant tensor:
#      x y z
#    x 1.807280 0.000000 0.000000 
#    y 0.000000 1.807280 0.000000 
#    z 0.000000 0.000000 1.747810 
# 
# From -- ./inp_files/7925.got.cif
#   From: 2010.05.17/outbox.cif.g08.bks.cpg/sg122_4_cif.got.tgz:7925.got - 2010.05.20 11:37:33.
