data_PCOD9561173
_publ_section_title
;
Structure prediction by ZEFSAII (Michael W. Deem and Ramdas Pophale) SiO2 
 PCOD9561173
Probable space group: I -4 2 D
;
_chemical_formula_sum "Si O2"
_cell_formula_units_Z 36
_cell_length_a 13.316635
_cell_length_b 13.316635
_cell_length_c 9.698095
_cell_angle_alpha 90.000000
_cell_angle_beta 90.000000
_cell_angle_gamma 90.000000
_cell_volume 1719.790028
_symmetry_space_group_name_H-M "I -4 2 D"
_symmetry_group_IT_number 122
_symmetry_cell_setting 'tetragonal'
loop_
_space_group_symop_operation_xyz
x,y,z
y,-x,-z
-x,-y,z
-y,x,-z
x,1/2-y,1/4-z
-x,1/2+y,1/4-z
-y,1/2-x,1/4+z
y,1/2+x,1/4+z
1/2+x,1/2+y,1/2+z
1/2+y,1/2-x,1/2-z
1/2-x,1/2-y,1/2+z
1/2-y,1/2+x,1/2-z
1/2+x,-y,3/4-z
1/2-x,y,3/4-z
1/2-y,-x,3/4+z
1/2+y,x,3/4+z
loop_
_atom_site_type_symbol
_atom_site_label
_atom_site_fract_x
_atom_site_fract_y
_atom_site_fract_z
Si Si1 0.846822 0.637306 0.074503
Si Si2 0.000000 0.500000 0.250000
Si Si3 0.366076 0.413351 0.987373
O O1 0.860630 0.750000 0.125000
O O2 0.921839 0.562421 0.154104
O O3 0.729632 0.604614 0.083548
O O4 0.861746 0.639543 0.910052
O O5 0.377051 0.530323 0.947570
#
# Coordination Sequence:
#
# PCOD9561173 Si02
#       3
#    16   4  16
#     4  11  25  42  66 102 132 177 220 280 333 401
#     4  12  24  44  66 100 140 168 228 282 336 388
#     4  10  22  45  69  95 131 177 220 269 337 402
#
# _framework density 20.932787999999999
#
# number of rings (size 3 to 8) (size 9 to 14) (size 15 to 20)
#    0.000    1.333    0.000    5.333    6.222    0.000 
#   24.000    0.000    0.000    0.000    0.000    0.000 
#    0.000    0.000    0.000    0.000    0.000    0.000 
#
# Total GULP energy -100527.282870 kJ/mol
# GULP energy per Si atom -5584.849048 kJ/mol
# Density = 2.088514 g / cm^3
# Si number density = 20.932788 Si / 1000 Ang^3
#
#
#
# Elastic Constant Matrix: (Units=GPa)
#
#
# Indices 1 2 3 4 5 6 
#
# 1 165.7661 73.1295 55.2324 0.0000 0.0000 0.0000
# 2 73.1295 165.7661 55.2324 0.0000 0.0000 0.0000
# 3 55.2324 55.2324 82.1849 0.0000 0.0000 0.0000
# 4 0.0000 0.0000 0.0000 29.3230 0.0000 0.0000
# 5 0.0000 0.0000 0.0000 0.0000 29.3230 0.0000
# 6 0.0000 0.0000 0.0000 0.0000 0.0000 25.6864
#
#
#
# Elastic Compliance Matrix: (Units=1/GPa)
#
#
# Indices 1 2 3 4 5 6 
#
# 1 0.008434 -0.002361 -0.004082 0.000000 0.000000 0.000000
# 2 -0.002361 0.008434 -0.004082 0.000000 0.000000 0.000000
# 3 -0.004082 -0.004082 0.017654 0.000000 0.000000 0.000000
# 4 0.000000 0.000000 0.000000 0.034103 0.000000 0.000000
# 5 0.000000 0.000000 0.000000 0.000000 0.034103 0.000000
# 6 0.000000 0.000000 0.000000 0.000000 0.000000 0.038931
#
#
# Mechanical properties :
#
#
# Convention : Reuss Voigt Hill
#
# Bulk Modulus (GPa) = 74.21675 86.76728 80.49202
# Shear Modulus (GPa) = 29.90473 32.20801 31.05637
#
# Velocity S-wave (km/s) = 3.78379 3.92680 3.85596
# Velocity P-wave (km/s) = 7.39062 7.88036 7.63942
#
# Compressibility (1/GPa) = 0.01347405
#
# Stress axis : x y z
#
# Youngs Moduli (GPa) = 118.56714 118.56714 56.64552
#
# Poissons Ratio (x) = 0.27992 0.23120
# Poissons Ratio (y) = 0.27992 0.23120
# Poissons Ratio (z) = 0.48393 0.48393
#
# Static dielectric constant tensor:
#      x y z
#    x 1.809470 0.000000 0.000000 
#    y 0.000000 1.809470 0.000000 
#    z 0.000000 0.000000 1.712280 
# 
# From -- ./inp_files/1721.got.cif
#   From: 2010.05.17/outbox.cif.g08.bks.cpg/sg122_1_cif.got.tgz:1721.got - 2010.05.20 11:37:33.
