data_PCOD9561832
_publ_section_title
;
Structure prediction by ZEFSAII (Michael W. Deem and Ramdas Pophale) SiO2 
 PCOD9561832
Probable space group: P 4/M M M
;
_chemical_formula_sum "Si O2"
_cell_formula_units_Z 80
_cell_length_a 23.947009
_cell_length_b 23.947009
_cell_length_c 7.506311
_cell_angle_alpha 90.000000
_cell_angle_beta 90.000000
_cell_angle_gamma 90.000000
_cell_volume 4304.563402
_symmetry_space_group_name_H-M "P 4/M M M"
_symmetry_group_IT_number 123
_symmetry_cell_setting 'tetragonal'
loop_
_space_group_symop_operation_xyz
x,y,z
-y,x,z
-x,-y,z
y,-x,z
x,-y,-z
-x,y,-z
y,x,-z
-y,-x,-z
-x,-y,-z
y,-x,-z
x,y,-z
-y,x,-z
-x,y,z
x,-y,z
-y,-x,z
y,x,z
loop_
_atom_site_type_symbol
_atom_site_label
_atom_site_fract_x
_atom_site_fract_y
_atom_site_fract_z
Si Si1 0.772084 0.624394 0.291473
Si Si2 0.322650 0.936480 0.781908
Si Si3 0.830312 0.742078 0.784653
Si Si4 0.562403 0.118526 0.206375
Si Si5 0.347102 0.652899 0.705338
Si Si6 0.563281 0.436720 0.784673
O O1 0.770142 0.609964 0.500000
O O2 0.795367 0.687134 0.267848
O O3 0.816819 0.581771 0.210886
O O4 0.709767 0.628006 0.215357
O O5 0.274477 0.892859 0.725836
O O6 0.383701 0.914557 0.718958
O O7 0.313351 0.000000 0.727304
O O8 0.323869 0.934845 0.000000
O O9 0.797118 0.797118 0.721385
O O10 0.831104 0.744645 0.000000
O O11 0.500000 0.111156 0.283351
O O12 0.558881 0.101340 0.000000
O O13 0.332444 0.667557 0.500000
O O14 0.393603 0.606398 0.708860
O O15 0.576087 0.500000 0.731119
O O16 0.565629 0.434372 0.000000
#
# Coordination Sequence:
#
# PCOD9561832 Si02
#       6
#    16  16  16  16   8   8
#     4  10  19  31  45  64  90 114 141 176 216 262
#     4   8  14  25  42  65  90 115 146 185 223 255
#     4   9  16  27  45  67  89 114 144 178 217 257
#     4   9  18  31  45  63  87 116 151 186 220 258
#     4  10  21  33  47  68  88 108 136 170 213 265
#     4   9  20  38  54  66  80 100 130 168 212 263
#
# _framework density 18.584928999999999
#
# number of rings (size 3 to 8) (size 9 to 14) (size 15 to 20)
#    0.000    2.900    1.000    2.100    0.000    3.600 
#    0.000    6.500    0.000    9.600    0.000    5.600 
#    0.000    0.400    0.000    5.600    0.000    0.000 
#
# Total GULP energy -445700.919301 kJ/mol
# GULP energy per Si atom -5571.261491 kJ/mol
# Density = 1.854263 g / cm^3
# Si number density = 18.584929 Si / 1000 Ang^3
#
#
#
# Elastic Constant Matrix: (Units=GPa)
#
#
# Indices 1 2 3 4 5 6 
#
# 1 -14.5376 201.8791 -2.6549 0.0000 0.0000 0.0000
# 2 201.8791 -14.5493 -2.6534 0.0000 0.0000 0.0000
# 3 -2.6549 -2.6534 48.7774 0.0000 0.0000 0.0000
# 4 0.0000 0.0000 0.0000 15.3408 0.0000 0.0000
# 5 0.0000 0.0000 0.0000 0.0000 15.3411 0.0000
# 6 0.0000 0.0000 0.0000 0.0000 0.0000 16.6043
#
#
#
# Elastic Compliance Matrix: (Units=1/GPa)
#
#
# Indices 1 2 3 4 5 6 
#
# 1 0.000363 0.004983 0.000291 0.000000 0.000000 0.000000
# 2 0.004983 0.000363 0.000291 0.000000 0.000000 0.000000
# 3 0.000291 0.000291 0.020533 0.000000 0.000000 0.000000
# 4 0.000000 0.000000 0.000000 0.065186 0.000000 0.000000
# 5 0.000000 0.000000 0.000000 0.000000 0.065184 0.000000
# 6 0.000000 0.000000 0.000000 0.000000 0.000000 0.060225
#
#
# Mechanical properties :
#
#
# Convention : Reuss Voigt Hill
#
# Bulk Modulus (GPa) = 30.87458 45.87024 38.37241
# Shear Modulus (GPa) = 23.63843 -2.33479 10.65182
#
# Velocity S-wave (km/s) = 3.57026 -1.12206 2.39664
# Velocity P-wave (km/s) = 5.80038 4.80170 5.32451
#
# Compressibility (1/GPa) = 0.03238911
#
# Stress axis : x y z
#
# Youngs Moduli (GPa) = 2755.01376 2757.17330 48.70215
#
# Poissons Ratio (x) = -13.74016 -0.01416
# Poissons Ratio (y) = -13.72940 -0.01417
# Poissons Ratio (z) = -0.80128 -0.80225
#
# Static dielectric constant tensor:
#      x y z
#    x 1.642780 0.000000 0.000000 
#    y 0.000000 1.642780 0.000000 
#    z 0.000000 0.000000 1.714860 
# 
# From -- ./inp_files/1447.got.cif
#   From: 2010.05.17/outbox.cif.g08.bks.cpg/sg123_1_cif.got.tgz:1447.got - 2010.05.20 11:43:04.
