data_PCOD9561172
_publ_section_title
;
Structure prediction by ZEFSAII (Michael W. Deem and Ramdas Pophale) SiO2 
 PCOD9561172
Probable space group: I -4 2 D
;
_chemical_formula_sum "Si O2"
_cell_formula_units_Z 120
_cell_length_a 24.090578
_cell_length_b 24.090578
_cell_length_c 9.720206
_cell_angle_alpha 90.000000
_cell_angle_beta 90.000000
_cell_angle_gamma 90.000000
_cell_volume 5641.179372
_symmetry_space_group_name_H-M "I -4 2 D"
_symmetry_group_IT_number 122
_symmetry_cell_setting 'tetragonal'
loop_
_space_group_symop_operation_xyz
x,y,z
y,-x,-z
-x,-y,z
-y,x,-z
x,1/2-y,1/4-z
-x,1/2+y,1/4-z
-y,1/2-x,1/4+z
y,1/2+x,1/4+z
1/2+x,1/2+y,1/2+z
1/2+y,1/2-x,1/2-z
1/2-x,1/2-y,1/2+z
1/2-y,1/2+x,1/2-z
1/2+x,-y,3/4-z
1/2-x,y,3/4-z
1/2-y,-x,3/4+z
1/2+y,x,3/4+z
loop_
_atom_site_type_symbol
_atom_site_label
_atom_site_fract_x
_atom_site_fract_y
_atom_site_fract_z
Si Si1 0.862134 0.619781 0.308978
Si Si2 0.881607 0.930004 0.227714
Si Si3 0.155513 0.246325 0.977280
Si Si4 0.263352 0.250000 0.125000
Si Si5 0.571002 0.474247 0.571103
Si Si6 0.631819 0.174102 0.393646
Si Si7 0.531517 0.199271 0.216314
Si Si8 0.164932 0.914833 0.577818
O O1 0.851704 0.586349 0.167038
O O2 0.840335 0.681649 0.297553
O O3 0.929400 0.619154 0.316006
O O4 0.838810 0.603858 0.458456
O O5 0.842862 0.948859 0.349755
O O6 0.910631 0.876022 0.291139
O O7 0.919668 0.982885 0.192445
O O8 0.218326 0.266449 0.006581
O O9 0.121864 0.281133 0.867312
O O10 0.125410 0.250000 0.125000
O O11 0.297808 0.193446 0.095683
O O12 0.515296 0.437106 0.560384
O O13 0.586389 0.209649 0.308563
O O14 0.640025 0.116987 0.306080
O O15 0.511378 0.250000 0.125000
O O16 0.478636 0.177621 0.299040
#
# Coordination Sequence:
#
# PCOD9561172 Si02
#       8
#    16  16  16   8  16  16  16  16
#     4  11  22  42  68 102 136 175 238 287 357 433
#     4  10  22  45  69  94 145 178 236 298 350 441
#     4  10  23  42  68 100 138 192 231 295 356 429
#     4  10  24  46  70 108 146 190 252 300 358 444
#     4   9  20  37  66  99 127 175 221 289 356 406
#     4  11  26  42  74 108 145 193 244 297 370 439
#     4  11  28  45  68 101 145 194 234 302 369 433
#     4  11  24  45  69 102 143 195 237 292 367 440
#
# _framework density 21.272145999999999
#
# number of rings (size 3 to 8) (size 9 to 14) (size 15 to 20)
#    0.400    1.200    1.333    1.600   10.267    6.933 
#    0.000    1.333    0.000    3.600    0.000    0.000 
#    0.000    0.000    0.000    0.000    0.000    0.000 
#
# Total GULP energy -334119.759089 kJ/mol
# GULP energy per Si atom -5568.662651 kJ/mol
# Density = 2.122373 g / cm^3
# Si number density = 21.272146 Si / 1000 Ang^3
#
#
#
# Elastic Constant Matrix: (Units=GPa)
#
#
# Indices 1 2 3 4 5 6 
#
# 1 68.9413 18.8979 30.3477 0.0000 0.0000 0.0000
# 2 18.8979 68.9413 30.3477 0.0000 0.0000 0.0000
# 3 30.3477 30.3477 115.8848 0.0000 0.0000 0.0000
# 4 0.0000 0.0000 0.0000 9.4021 0.0000 0.0000
# 5 0.0000 0.0000 0.0000 0.0000 9.4021 0.0000
# 6 0.0000 0.0000 0.0000 0.0000 0.0000 22.1392
#
#
#
# Elastic Compliance Matrix: (Units=1/GPa)
#
#
# Indices 1 2 3 4 5 6 
#
# 1 0.016941 -0.003042 -0.003640 0.000000 0.000000 0.000000
# 2 -0.003042 0.016941 -0.003640 0.000000 0.000000 0.000000
# 3 -0.003640 -0.003640 0.010536 0.000000 0.000000 0.000000
# 4 0.000000 0.000000 0.000000 0.106359 0.000000 0.000000
# 5 0.000000 0.000000 0.000000 0.000000 0.106359 0.000000
# 6 0.000000 0.000000 0.000000 0.000000 0.000000 0.045169
#
#
# Mechanical properties :
#
#
# Convention : Reuss Voigt Hill
#
# Bulk Modulus (GPa) = 42.06104 45.88374 43.97239
# Shear Modulus (GPa) = 15.11152 19.80027 17.45590
#
# Velocity S-wave (km/s) = 2.66821 3.05422 2.86772
# Velocity P-wave (km/s) = 5.41370 5.83562 5.62861
#
# Compressibility (1/GPa) = 0.02377497
#
# Stress axis : x y z
#
# Youngs Moduli (GPa) = 59.02788 59.02788 94.91502
#
# Poissons Ratio (x) = 0.17953 0.34549
# Poissons Ratio (y) = 0.17953 0.34549
# Poissons Ratio (z) = 0.21486 0.21486
#
# Static dielectric constant tensor:
#      x y z
#    x 2.323100 0.000000 0.000000 
#    y 0.000000 2.323100 0.000000 
#    z 0.000000 0.000000 1.856120 
# 
# From -- ./inp_files/3110.got.cif
#   From: 2010.05.17/outbox.cif.g08.bks.cpg/sg122_2_cif.got.tgz:3110.got - 2010.05.20 11:37:33.
