data_PCOD9561428
_publ_section_title
;
Structure prediction by ZEFSAII (Michael W. Deem and Ramdas Pophale) SiO2 
 PCOD9561428
Probable space group: I -4 2 D
;
_chemical_formula_sum "Si O2"
_cell_formula_units_Z 60
_cell_length_a 18.279340
_cell_length_b 18.279340
_cell_length_c 8.375725
_cell_angle_alpha 90.000000
_cell_angle_beta 90.000000
_cell_angle_gamma 90.000000
_cell_volume 2798.616766
_symmetry_space_group_name_H-M "I -4 2 D"
_symmetry_group_IT_number 122
_symmetry_cell_setting 'tetragonal'
loop_
_space_group_symop_operation_xyz
x,y,z
y,-x,-z
-x,-y,z
-y,x,-z
x,1/2-y,1/4-z
-x,1/2+y,1/4-z
-y,1/2-x,1/4+z
y,1/2+x,1/4+z
1/2+x,1/2+y,1/2+z
1/2+y,1/2-x,1/2-z
1/2-x,1/2-y,1/2+z
1/2-y,1/2+x,1/2-z
1/2+x,-y,3/4-z
1/2-x,y,3/4-z
1/2-y,-x,3/4+z
1/2+y,x,3/4+z
loop_
_atom_site_type_symbol
_atom_site_label
_atom_site_fract_x
_atom_site_fract_y
_atom_site_fract_z
Si Si1 0.826233 0.841041 0.330125
Si Si2 0.000000 0.000000 0.000000
Si Si3 0.250000 0.558973 0.375000
Si Si4 0.849921 0.982790 0.139653
Si Si5 0.910625 0.066705 0.438807
O O1 0.750000 0.803902 0.375000
O O2 0.885855 0.794682 0.237023
O O3 0.866147 0.867894 0.488979
O O4 0.812048 0.914061 0.224990
O O5 0.961143 0.067900 0.913788
O O6 0.198647 0.511611 0.256560
O O7 0.871610 0.041557 0.276883
O O8 0.996610 0.088701 0.439334
#
# Coordination Sequence:
#
# PCOD9561428 Si02
#       5
#    16   4   8  16  16
#     4  11  26  45  65  97 139 182 225 274 349 422
#     4  12  20  44  74 104 128 180 230 296 336 400
#     4  12  28  44  66 106 142 180 228 286 358 414
#     4  11  24  42  73 101 136 176 235 291 342 413
#     4   9  20  40  70  97 127 174 235 288 331 398
#
# _framework density 21.439160999999999
#
# number of rings (size 3 to 8) (size 9 to 14) (size 15 to 20)
#    0.000    1.333    2.667    3.200    7.467    2.133 
#    2.400    0.000    0.000    0.000    0.000    0.000 
#    0.000    0.000    0.000    0.000    0.000    0.000 
#
# Total GULP energy -167441.976239 kJ/mol
# GULP energy per Si atom -5581.399208 kJ/mol
# Density = 2.139036 g / cm^3
# Si number density = 21.439161 Si / 1000 Ang^3
#
#
#
# Elastic Constant Matrix: (Units=GPa)
#
#
# Indices 1 2 3 4 5 6 
#
# 1 42.5089 1.1361 15.5848 0.0000 0.0000 0.0000
# 2 1.1361 42.5089 15.5848 0.0000 0.0000 0.0000
# 3 15.5848 15.5848 67.5132 0.0000 0.0000 0.0000
# 4 0.0000 0.0000 0.0000 25.4209 0.0000 0.0000
# 5 0.0000 0.0000 0.0000 0.0000 25.4209 0.0000
# 6 0.0000 0.0000 0.0000 0.0000 0.0000 13.8871
#
#
#
# Elastic Compliance Matrix: (Units=1/GPa)
#
#
# Indices 1 2 3 4 5 6 
#
# 1 0.025803 0.001632 -0.006333 0.000000 0.000000 0.000000
# 2 0.001632 0.025803 -0.006333 0.000000 0.000000 0.000000
# 3 -0.006333 -0.006333 0.017736 0.000000 0.000000 0.000000
# 4 0.000000 0.000000 0.000000 0.039338 0.000000 0.000000
# 5 0.000000 0.000000 0.000000 0.000000 0.039338 0.000000
# 6 0.000000 0.000000 0.000000 0.000000 0.000000 0.072009
#
#
# Mechanical properties :
#
#
# Convention : Reuss Voigt Hill
#
# Bulk Modulus (GPa) = 21.15359 24.12693 22.64026
# Shear Modulus (GPa) = 19.39101 20.96082 20.17592
#
# Velocity S-wave (km/s) = 3.01070 3.13019 3.07103
# Velocity P-wave (km/s) = 4.68764 4.93379 4.81229
#
# Compressibility (1/GPa) = 0.04727331
#
# Stress axis : x y z
#
# Youngs Moduli (GPa) = 38.75562 38.75562 56.38325
#
# Poissons Ratio (x) = -0.06326 0.35708
# Poissons Ratio (y) = -0.06326 0.35708
# Poissons Ratio (z) = 0.24544 0.24544
#
# Static dielectric constant tensor:
#      x y z
#    x 1.873060 0.000000 0.000000 
#    y 0.000000 1.873060 0.000000 
#    z 0.000000 0.000000 1.840330 
# 
# From -- ./inp_files/2307.got.cif
#   From: 2010.05.17/outbox.cif.g08.bks.cpg/sg122_2_cif.got.tgz:2307.got - 2010.05.20 11:37:33.
