data_PCOD9561112
_publ_section_title
;
Structure prediction by ZEFSAII (Michael W. Deem and Ramdas Pophale) SiO2 
 PCOD9561112
Probable space group: I -4 2 D
;
_chemical_formula_sum "Si O2"
_cell_formula_units_Z 64
_cell_length_a 20.621004
_cell_length_b 20.621004
_cell_length_c 6.794529
_cell_angle_alpha 90.000000
_cell_angle_beta 90.000000
_cell_angle_gamma 90.000000
_cell_volume 2889.209070
_symmetry_space_group_name_H-M "I -4 2 D"
_symmetry_group_IT_number 122
_symmetry_cell_setting 'tetragonal'
loop_
_space_group_symop_operation_xyz
x,y,z
y,-x,-z
-x,-y,z
-y,x,-z
x,1/2-y,1/4-z
-x,1/2+y,1/4-z
-y,1/2-x,1/4+z
y,1/2+x,1/4+z
1/2+x,1/2+y,1/2+z
1/2+y,1/2-x,1/2-z
1/2-x,1/2-y,1/2+z
1/2-y,1/2+x,1/2-z
1/2+x,-y,3/4-z
1/2-x,y,3/4-z
1/2-y,-x,3/4+z
1/2+y,x,3/4+z
loop_
_atom_site_type_symbol
_atom_site_label
_atom_site_fract_x
_atom_site_fract_y
_atom_site_fract_z
Si Si1 0.250000 0.847057 0.375000
Si Si2 0.423468 0.018268 0.548476
Si Si3 0.615335 0.398729 0.964120
Si Si4 0.549000 0.319747 0.619237
Si Si5 0.750000 0.832957 0.875000
O O1 0.308483 0.884836 0.272363
O O2 0.212414 0.800257 0.229362
O O3 0.412613 0.083328 0.423706
O O4 0.379897 0.020793 0.746606
O O5 0.500000 0.000000 0.555978
O O6 0.392785 0.962447 0.415982
O O7 0.575206 0.345134 0.832363
O O8 0.511367 0.250000 0.625000
O O9 0.614919 0.294625 0.508230
#
# Coordination Sequence:
#
# PCOD9561112 Si02
#       5
#     8  16  16  16   8
#     4  10  22  40  69  97 142 178 246 308 366 450
#     4  12  25  45  72 104 148 199 249 307 379 456
#     4  11  24  43  68 108 138 194 247 308 382 446
#     4   9  24  45  70 101 141 195 249 307 377 448
#     4   8  20  44  65 105 132 190 244 298 384 434
#
# _framework density 22.151392000000001
#
# number of rings (size 3 to 8) (size 9 to 14) (size 15 to 20)
#    0.750    1.000    2.500    0.000    7.000    4.000 
#    0.000    0.000    0.000    0.000    0.000    0.000 
#    0.000    0.000    0.000    0.000    0.000    0.000 
#
# Total GULP energy -178187.500125 kJ/mol
# GULP energy per Si atom -5568.359379 kJ/mol
# Density = 2.210097 g / cm^3
# Si number density = 22.151392 Si / 1000 Ang^3
#
#
#
# Elastic Constant Matrix: (Units=GPa)
#
#
# Indices 1 2 3 4 5 6 
#
# 1 140.6956 35.7290 36.2404 0.0000 0.0000 0.0000
# 2 35.7290 140.6956 36.2404 0.0000 0.0000 0.0000
# 3 36.2404 36.2404 78.3123 0.0000 0.0000 0.0000
# 4 0.0000 0.0000 0.0000 48.0736 0.0000 0.0000
# 5 0.0000 0.0000 0.0000 0.0000 48.0736 0.0000
# 6 0.0000 0.0000 0.0000 0.0000 0.0000 44.4381
#
#
#
# Elastic Compliance Matrix: (Units=1/GPa)
#
#
# Indices 1 2 3 4 5 6 
#
# 1 0.008263 -0.001264 -0.003239 0.000000 0.000000 0.000000
# 2 -0.001264 0.008263 -0.003239 0.000000 0.000000 0.000000
# 3 -0.003239 -0.003239 0.015767 0.000000 0.000000 0.000000
# 4 0.000000 0.000000 0.000000 0.020801 0.000000 0.000000
# 5 0.000000 0.000000 0.000000 0.000000 0.020801 0.000000
# 6 0.000000 0.000000 0.000000 0.000000 0.000000 0.022503
#
#
# Mechanical properties :
#
#
# Convention : Reuss Voigt Hill
#
# Bulk Modulus (GPa) = 59.49082 64.01369 61.75226
# Shear Modulus (GPa) = 42.55862 44.88332 43.72097
#
# Velocity S-wave (km/s) = 4.38798 4.50623 4.44749
# Velocity P-wave (km/s) = 7.25170 7.48570 7.36963
#
# Compressibility (1/GPa) = 0.01680932
#
# Stress axis : x y z
#
# Youngs Moduli (GPa) = 121.02451 121.02451 63.42360
#
# Poissons Ratio (x) = 0.15298 0.20542
# Poissons Ratio (y) = 0.15298 0.20542
# Poissons Ratio (z) = 0.39197 0.39197
#
# Static dielectric constant tensor:
#      x y z
#    x 1.825610 0.000000 0.000000 
#    y 0.000000 1.825610 0.000000 
#    z 0.000000 0.000000 1.832340 
# 
# From -- ./inp_files/2572.got.cif
#   From: 2010.05.17/outbox.cif.g08.bks.cpg/sg122_2_cif.got.tgz:2572.got - 2010.05.20 11:37:33.
