data_PCOD9561210
_publ_section_title
;
Structure prediction by ZEFSAII (Michael W. Deem and Ramdas Pophale) SiO2 
 PCOD9561210
Probable space group: I -4 2 D
;
_chemical_formula_sum "Si O2"
_cell_formula_units_Z 112
_cell_length_a 14.707896
_cell_length_b 14.707896
_cell_length_c 25.996191
_cell_angle_alpha 90.000000
_cell_angle_beta 90.000000
_cell_angle_gamma 90.000000
_cell_volume 5623.553352
_symmetry_space_group_name_H-M "I -4 2 D"
_symmetry_group_IT_number 122
_symmetry_cell_setting 'tetragonal'
loop_
_space_group_symop_operation_xyz
x,y,z
y,-x,-z
-x,-y,z
-y,x,-z
x,1/2-y,1/4-z
-x,1/2+y,1/4-z
-y,1/2-x,1/4+z
y,1/2+x,1/4+z
1/2+x,1/2+y,1/2+z
1/2+y,1/2-x,1/2-z
1/2-x,1/2-y,1/2+z
1/2-y,1/2+x,1/2-z
1/2+x,-y,3/4-z
1/2-x,y,3/4-z
1/2-y,-x,3/4+z
1/2+y,x,3/4+z
loop_
_atom_site_type_symbol
_atom_site_label
_atom_site_fract_x
_atom_site_fract_y
_atom_site_fract_z
Si Si1 0.755117 0.272443 0.726031
Si Si2 0.309689 0.321030 0.671831
Si Si3 0.000000 0.000000 0.655089
Si Si4 0.117387 0.076291 0.576913
Si Si5 0.057615 0.362545 0.507975
Si Si6 0.316242 0.459276 0.969903
Si Si7 0.008435 0.593416 0.090009
Si Si8 0.361557 0.750000 0.625000
O O1 0.776244 0.201731 0.771634
O O2 0.695525 0.349686 0.754831
O O3 0.852313 0.312480 0.706774
O O4 0.699829 0.241226 0.676075
O O5 0.312702 0.250000 0.625000
O O6 0.215636 0.378323 0.663030
O O7 0.406740 0.371840 0.670959
O O8 0.913719 0.000304 0.616895
O O9 0.969939 0.918577 0.691870
O O10 0.124559 0.032386 0.521177
O O11 0.034670 0.150326 0.571212
O O12 0.068071 0.433525 0.461325
O O13 0.982692 0.284003 0.508351
O O14 0.071098 0.665380 0.118480
O O15 0.000000 0.500000 0.120885
#
# Coordination Sequence:
#
# PCOD9561210 Si02
#       8
#    16  16   8  16  16  16  16   8
#     4  10  23  42  69  99 141 180 230 285 355 414
#     4  11  22  44  70  99 134 188 222 288 355 417
#     4  12  26  37  62 102 134 170 233 282 328 418
#     4  11  24  38  65  98 135 178 226 270 342 426
#     4  11  23  43  63  98 134 177 227 284 333 423
#     4  11  21  45  65  92 142 185 212 280 352 415
#     4  11  22  45  73  92 129 180 235 279 356 406
#     4  10  24  46  70 102 132 178 236 302 342 414
#
# _framework density 19.916232000000001
#
# number of rings (size 3 to 8) (size 9 to 14) (size 15 to 20)
#    0.000    1.143    4.286    3.429    0.000    1.143 
#    5.143    2.857    0.000    0.000    0.000    0.000 
#    0.000    0.000    0.000    0.000    0.000    0.000 
#
# Total GULP energy -312090.739462 kJ/mol
# GULP energy per Si atom -5573.048919 kJ/mol
# Density = 1.987090 g / cm^3
# Si number density = 19.916232 Si / 1000 Ang^3
#
#
#
# Elastic Constant Matrix: (Units=GPa)
#
#
# Indices 1 2 3 4 5 6 
#
# 1 145.5740 67.4391 64.0123 0.0000 0.0000 0.0000
# 2 67.4391 145.5740 64.0123 0.0000 0.0000 0.0000
# 3 64.0123 64.0123 92.5122 0.0000 0.0000 0.0000
# 4 0.0000 0.0000 0.0000 -2.1261 0.0000 0.0000
# 5 0.0000 0.0000 0.0000 0.0000 -2.1261 0.0000
# 6 0.0000 0.0000 0.0000 0.0000 0.0000 40.1786
#
#
#
# Elastic Compliance Matrix: (Units=1/GPa)
#
#
# Indices 1 2 3 4 5 6 
#
# 1 0.010418 -0.002381 -0.005561 0.000000 0.000000 0.000000
# 2 -0.002381 0.010418 -0.005561 0.000000 0.000000 0.000000
# 3 -0.005561 -0.005561 0.018505 0.000000 0.000000 0.000000
# 4 0.000000 0.000000 0.000000 -0.470345 0.000000 0.000000
# 5 0.000000 0.000000 0.000000 0.000000 -0.470345 0.000000
# 6 0.000000 0.000000 0.000000 0.000000 0.000000 0.024889
#
#
# Mechanical properties :
#
#
# Convention : Reuss Voigt Hill
#
# Bulk Modulus (GPa) = 81.07120 86.06528 83.56824
# Shear Modulus (GPa) = -5.91475 19.73173 6.90849
#
# Velocity S-wave (km/s) = -1.72518 3.15101 1.86448
# Velocity P-wave (km/s) = 6.06845 7.51970 6.83272
#
# Compressibility (1/GPa) = 0.01233484
#
# Stress axis : x y z
#
# Youngs Moduli (GPa) = 95.99181 95.99181 54.03973
#
# Poissons Ratio (x) = 0.22854 0.30051
# Poissons Ratio (y) = 0.22854 0.30051
# Poissons Ratio (z) = 0.53380 0.53380
#
# Static dielectric constant tensor:
#      x y z
#    x 1.777020 0.000000 0.000000 
#    y 0.000000 1.777020 0.000000 
#    z 0.000000 0.000000 1.737510 
# 
# From -- ./inp_files/8841.got.cif
#   From: 2010.05.17/outbox.cif.g08.bks.cpg/sg122_5_cif.got.tgz:8841.got - 2010.05.20 11:37:33.
