data_PCOD9561489
_publ_section_title
;
Structure prediction by ZEFSAII (Michael W. Deem and Ramdas Pophale) SiO2 
 PCOD9561489
Probable space group: I -4 2 D
;
_chemical_formula_sum "Si O2"
_cell_formula_units_Z 32
_cell_length_a 9.960244
_cell_length_b 9.960244
_cell_length_c 12.470385
_cell_angle_alpha 90.000000
_cell_angle_beta 90.000000
_cell_angle_gamma 90.000000
_cell_volume 1237.142757
_symmetry_space_group_name_H-M "I -4 2 D"
_symmetry_group_IT_number 122
_symmetry_cell_setting 'tetragonal'
loop_
_space_group_symop_operation_xyz
x,y,z
y,-x,-z
-x,-y,z
-y,x,-z
x,1/2-y,1/4-z
-x,1/2+y,1/4-z
-y,1/2-x,1/4+z
y,1/2+x,1/4+z
1/2+x,1/2+y,1/2+z
1/2+y,1/2-x,1/2-z
1/2-x,1/2-y,1/2+z
1/2-y,1/2+x,1/2-z
1/2+x,-y,3/4-z
1/2-x,y,3/4-z
1/2-y,-x,3/4+z
1/2+y,x,3/4+z
loop_
_atom_site_type_symbol
_atom_site_label
_atom_site_fract_x
_atom_site_fract_y
_atom_site_fract_z
Si Si1 0.842260 0.518906 0.474875
Si Si2 0.312767 0.906056 0.208301
O O1 0.750000 0.481615 0.375000
O O2 0.832118 0.678948 0.494905
O O3 0.806119 0.440659 0.582618
O O4 0.000000 0.500000 0.449878
O O5 0.449745 0.828937 0.234278
#
# Coordination Sequence:
#
# PCOD9561489 Si02
#       2
#    16  16
#     4  12  30  48  80 119 164 210 277 344 414 487
#     4  11  26  50  79 110 154 216 272 328 414 499
#
# _framework density 25.866053000000001
#
# number of rings (size 3 to 8) (size 9 to 14) (size 15 to 20)
#    0.000    0.500    5.000    1.500   14.000    0.000 
#    0.000    0.000    0.000    0.000    0.000    0.000 
#    0.000    0.000    0.000    0.000    0.000    0.000 
#
# Total GULP energy -89947.628956 kJ/mol
# GULP energy per Si atom -5621.726810 kJ/mol
# Density = 2.580718 g / cm^3
# Si number density = 25.866053 Si / 1000 Ang^3
#
#
#
# Elastic Constant Matrix: (Units=GPa)
#
#
# Indices 1 2 3 4 5 6 
#
# 1 109.8689 -8.5694 26.3084 0.0000 0.0000 0.0000
# 2 -8.5694 109.8689 26.3084 0.0000 0.0000 0.0000
# 3 26.3084 26.3084 149.8266 0.0000 0.0000 0.0000
# 4 0.0000 0.0000 0.0000 48.9036 0.0000 0.0000
# 5 0.0000 0.0000 0.0000 0.0000 48.9036 0.0000
# 6 0.0000 0.0000 0.0000 0.0000 0.0000 32.2414
#
#
#
# Elastic Compliance Matrix: (Units=1/GPa)
#
#
# Indices 1 2 3 4 5 6 
#
# 1 0.009653 0.001210 -0.001907 0.000000 0.000000 0.000000
# 2 0.001210 0.009653 -0.001907 0.000000 0.000000 0.000000
# 3 -0.001907 -0.001907 0.007344 0.000000 0.000000 0.000000
# 4 0.000000 0.000000 0.000000 0.020448 0.000000 0.000000
# 5 0.000000 0.000000 0.000000 0.000000 0.020448 0.000000
# 6 0.000000 0.000000 0.000000 0.000000 0.000000 0.031016
#
#
# Mechanical properties :
#
#
# Convention : Reuss Voigt Hill
#
# Bulk Modulus (GPa) = 46.64258 50.85104 48.74681
# Shear Modulus (GPa) = 45.07774 47.71084 46.39429
#
# Velocity S-wave (km/s) = 4.17914 4.29946 4.23973
# Velocity P-wave (km/s) = 6.43105 6.65952 6.54628
#
# Compressibility (1/GPa) = 0.02143964
#
# Stress axis : x y z
#
# Youngs Moduli (GPa) = 103.59660 103.59661 136.16156
#
# Poissons Ratio (x) = -0.12531 0.25971
# Poissons Ratio (y) = -0.12531 0.25971
# Poissons Ratio (z) = 0.19760 0.19760
#
# Static dielectric constant tensor:
#      x y z
#    x 2.037880 0.000000 0.000000 
#    y 0.000000 2.037880 0.000000 
#    z 0.000000 0.000000 1.977280 
# 
# From -- ./inp_files/3260.got.cif
#   From: 2010.05.17/outbox.cif.g08.bks.cpg/sg122_2_cif.got.tgz:3260.got - 2010.05.20 11:37:33.
