data_PCOD9561322
_publ_section_title
;
Structure prediction by ZEFSAII (Michael W. Deem and Ramdas Pophale) SiO2 
 PCOD9561322
Probable space group: I -4 2 D
;
_chemical_formula_sum "Si O2"
_cell_formula_units_Z 56
_cell_length_a 13.390746
_cell_length_b 13.390746
_cell_length_c 22.467870
_cell_angle_alpha 90.000000
_cell_angle_beta 90.000000
_cell_angle_gamma 90.000000
_cell_volume 4028.760468
_symmetry_space_group_name_H-M "I -4 2 D"
_symmetry_group_IT_number 122
_symmetry_cell_setting 'tetragonal'
loop_
_space_group_symop_operation_xyz
x,y,z
y,-x,-z
-x,-y,z
-y,x,-z
x,1/2-y,1/4-z
-x,1/2+y,1/4-z
-y,1/2-x,1/4+z
y,1/2+x,1/4+z
1/2+x,1/2+y,1/2+z
1/2+y,1/2-x,1/2-z
1/2-x,1/2-y,1/2+z
1/2-y,1/2+x,1/2-z
1/2+x,-y,3/4-z
1/2-x,y,3/4-z
1/2-y,-x,3/4+z
1/2+y,x,3/4+z
loop_
_atom_site_type_symbol
_atom_site_label
_atom_site_fract_x
_atom_site_fract_y
_atom_site_fract_z
Si Si1 0.907710 0.731490 0.284305
Si Si2 0.484441 0.118597 0.558590
Si Si3 0.598515 0.572431 0.572671
Si Si4 0.750000 0.653951 0.375000
O O1 0.936197 0.831181 0.249239
O O2 0.898932 0.648211 0.231981
O O3 0.815309 0.719141 0.329009
O O4 0.003375 0.694556 0.320956
O O5 0.411005 0.127160 0.614946
O O6 0.582049 0.178449 0.584083
O O7 0.500000 0.000000 0.549416
O O8 0.500000 0.500000 0.568665
#
# Coordination Sequence:
#
# PCOD9561322 Si02
#       4
#    16  16  16   8
#     4  12  18  29  47  76 111 128 158 203 251 305
#     4  11  20  30  48  77 107 130 161 202 256 299
#     4  11  15  27  48  75 106 131 150 198 256 301
#     4  12  20  28  52  76 100 142 160 198 264 292
#
# _framework density 13.900057
#
# number of rings (size 3 to 8) (size 9 to 14) (size 15 to 20)
#    0.000    0.571   14.286    0.000    0.000    0.000 
#    0.000    0.000    0.000    3.429    0.000    0.000 
#    0.000    0.000    0.000    0.000    0.000    0.000 
#
# Total GULP energy -155870.256373 kJ/mol
# GULP energy per Si atom -5566.794870 kJ/mol
# Density = 1.386842 g / cm^3
# Si number density = 13.900057 Si / 1000 Ang^3
#
#
#
# Elastic Constant Matrix: (Units=GPa)
#
#
# Indices 1 2 3 4 5 6 
#
# 1 75.8293 24.2299 41.2642 0.0000 0.0000 0.0000
# 2 24.2299 75.8293 41.2642 0.0000 0.0000 0.0000
# 3 41.2642 41.2642 91.6260 0.0000 0.0000 0.0000
# 4 0.0000 0.0000 0.0000 28.7140 0.0000 0.0000
# 5 0.0000 0.0000 0.0000 0.0000 28.7140 0.0000
# 6 0.0000 0.0000 0.0000 0.0000 0.0000 14.2320
#
#
#
# Elastic Compliance Matrix: (Units=1/GPa)
#
#
# Indices 1 2 3 4 5 6 
#
# 1 0.017640 -0.001740 -0.007161 0.000000 0.000000 0.000000
# 2 -0.001740 0.017640 -0.007161 0.000000 0.000000 0.000000
# 3 -0.007161 -0.007161 0.017364 0.000000 0.000000 0.000000
# 4 0.000000 0.000000 0.000000 0.034826 0.000000 0.000000
# 5 0.000000 0.000000 0.000000 0.000000 0.034826 0.000000
# 6 0.000000 0.000000 0.000000 0.000000 0.000000 0.070264
#
#
# Mechanical properties :
#
#
# Convention : Reuss Voigt Hill
#
# Bulk Modulus (GPa) = 48.73016 50.75568 49.74292
# Shear Modulus (GPa) = 21.59606 23.43377 22.51491
#
# Velocity S-wave (km/s) = 3.94593 4.11040 4.02900
# Velocity P-wave (km/s) = 7.47624 7.68903 7.58338
#
# Compressibility (1/GPa) = 0.02052117
#
# Stress axis : x y z
#
# Youngs Moduli (GPa) = 56.68884 56.68884 57.59150
#
# Poissons Ratio (x) = 0.09864 0.41240
# Poissons Ratio (y) = 0.09864 0.41240
# Poissons Ratio (z) = 0.40593 0.40593
#
# Static dielectric constant tensor:
#      x y z
#    x 1.485000 0.000000 0.000000 
#    y 0.000000 1.485000 0.000000 
#    z 0.000000 0.000000 1.474740 
# 
# From -- ./inp_files/5999.got.cif
#   From: 2010.05.17/outbox.cif.g08.bks.cpg/sg122_3_cif.got.tgz:5999.got - 2010.05.20 11:37:33.
