data_PCOD9561263
_publ_section_title
;
Structure prediction by ZEFSAII (Michael W. Deem and Ramdas Pophale) SiO2 
 PCOD9561263
Probable space group: I -4 2 D
;
_chemical_formula_sum "Si O2"
_cell_formula_units_Z 84
_cell_length_a 11.549225
_cell_length_b 11.549225
_cell_length_c 30.656891
_cell_angle_alpha 90.000000
_cell_angle_beta 90.000000
_cell_angle_gamma 90.000000
_cell_volume 4089.157085
_symmetry_space_group_name_H-M "I -4 2 D"
_symmetry_group_IT_number 122
_symmetry_cell_setting 'tetragonal'
loop_
_space_group_symop_operation_xyz
x,y,z
y,-x,-z
-x,-y,z
-y,x,-z
x,1/2-y,1/4-z
-x,1/2+y,1/4-z
-y,1/2-x,1/4+z
y,1/2+x,1/4+z
1/2+x,1/2+y,1/2+z
1/2+y,1/2-x,1/2-z
1/2-x,1/2-y,1/2+z
1/2-y,1/2+x,1/2-z
1/2+x,-y,3/4-z
1/2-x,y,3/4-z
1/2-y,-x,3/4+z
1/2+y,x,3/4+z
loop_
_atom_site_type_symbol
_atom_site_label
_atom_site_fract_x
_atom_site_fract_y
_atom_site_fract_z
Si Si1 0.520543 0.814405 0.753928
Si Si2 0.000000 0.000000 0.136243
Si Si3 0.198595 0.637246 0.422778
Si Si4 0.951562 0.749293 0.347905
Si Si5 0.877899 0.613172 0.670458
Si Si6 0.413323 0.750000 0.125000
Si Si7 0.000000 0.000000 0.500000
O O1 0.409472 0.881444 0.736805
O O2 0.572992 0.749830 0.713355
O O3 0.498081 0.748027 0.798946
O O4 0.078855 0.075348 0.167787
O O5 0.890514 0.055795 0.109028
O O6 0.250000 0.612106 0.375000
O O7 0.203209 0.774756 0.428927
O O8 0.833667 0.824436 0.349118
O O9 0.032272 0.818345 0.383009
O O10 0.996756 0.671897 0.653480
O O11 0.905050 0.548358 0.715851
#
# Coordination Sequence:
#
# PCOD9561263 Si02
#       7
#    16   8  16  16  16   8   4
#     4  11  24  42  68 104 138 178 233 296 367 441
#     4  10  24  44  68  98 138 179 230 283 366 430
#     4  11  23  44  70  97 138 185 231 299 368 439
#     4  11  24  45  70 102 138 184 237 299 360 433
#     4  11  25  46  68  98 141 192 236 303 359 435
#     4  12  24  44  72 100 132 192 244 294 362 434
#     4  12  24  48  66  96 148 182 248 288 376 428
#
# _framework density 20.542131000000001
#
# number of rings (size 3 to 8) (size 9 to 14) (size 15 to 20)
#    0.000    0.952    2.857    4.571    6.667    0.000 
#    6.857    0.000    0.000    0.000    0.000    0.000 
#    0.000    0.000    0.000    0.000    0.000    0.000 
#
# Total GULP energy -233834.654543 kJ/mol
# GULP energy per Si atom -5567.491775 kJ/mol
# Density = 2.049538 g / cm^3
# Si number density = 20.542131 Si / 1000 Ang^3
#
#
#
# Elastic Constant Matrix: (Units=GPa)
#
#
# Indices 1 2 3 4 5 6 
#
# 1 76.6194 20.5198 42.4020 0.0000 0.0000 0.0000
# 2 20.5198 76.6194 42.4020 0.0000 0.0000 0.0000
# 3 42.4020 42.4020 163.0742 0.0000 0.0000 0.0000
# 4 0.0000 0.0000 0.0000 -9.2701 0.0000 0.0000
# 5 0.0000 0.0000 0.0000 0.0000 -9.2701 0.0000
# 6 0.0000 0.0000 0.0000 0.0000 0.0000 55.2941
#
#
#
# Elastic Compliance Matrix: (Units=1/GPa)
#
#
# Indices 1 2 3 4 5 6 
#
# 1 0.015572 -0.002254 -0.003463 0.000000 0.000000 0.000000
# 2 -0.002254 0.015572 -0.003463 0.000000 0.000000 0.000000
# 3 -0.003463 -0.003463 0.007933 0.000000 0.000000 0.000000
# 4 0.000000 0.000000 0.000000 -0.107874 0.000000 0.000000
# 5 0.000000 0.000000 0.000000 0.000000 -0.107874 0.000000
# 6 0.000000 0.000000 0.000000 0.000000 0.000000 0.018085
#
#
# Mechanical properties :
#
#
# Convention : Reuss Voigt Hill
#
# Bulk Modulus (GPa) = 48.26967 58.55115 53.41041
# Shear Modulus (GPa) = -37.50326 21.41673 -8.04327
#
# Velocity S-wave (km/s) = -4.27743 3.23240 -1.98091
# Velocity P-wave (km/s) = 0.91994 6.51890 4.56343
#
# Compressibility (1/GPa) = 0.02071694
#
# Stress axis : x y z
#
# Youngs Moduli (GPa) = 64.21986 64.21986 126.05665
#
# Poissons Ratio (x) = 0.14475 0.43651
# Poissons Ratio (y) = 0.14475 0.43651
# Poissons Ratio (z) = 0.22238 0.22238
#
# Static dielectric constant tensor:
#      x y z
#    x 1.808140 0.000000 0.000000 
#    y 0.000000 1.808140 0.000000 
#    z 0.000000 0.000000 1.540850 
# 
# From -- ./inp_files/9551.got.cif
#   From: 2010.05.17/outbox.cif.g08.bks.cpg/sg122_5_cif.got.tgz:9551.got - 2010.05.20 11:37:33.
