data_PCOD9561952
_publ_section_title
;
Structure prediction by ZEFSAII (Michael W. Deem and Ramdas Pophale) SiO2 
 PCOD9561952
Probable space group: P 4/M M M
;
_chemical_formula_sum "Si O2"
_cell_formula_units_Z 52
_cell_length_a 16.051711
_cell_length_b 16.051711
_cell_length_c 10.933205
_cell_angle_alpha 90.000000
_cell_angle_beta 90.000000
_cell_angle_gamma 90.000000
_cell_volume 2817.021459
_symmetry_space_group_name_H-M "P 4/M M M"
_symmetry_group_IT_number 123
_symmetry_cell_setting 'tetragonal'
loop_
_space_group_symop_operation_xyz
x,y,z
-y,x,z
-x,-y,z
y,-x,z
x,-y,-z
-x,y,-z
y,x,-z
-y,-x,-z
-x,-y,-z
y,-x,-z
x,y,-z
-y,x,-z
-x,y,z
x,-y,z
-y,-x,z
y,x,z
loop_
_atom_site_type_symbol
_atom_site_label
_atom_site_fract_x
_atom_site_fract_y
_atom_site_fract_z
Si Si1 0.098351 0.772805 0.000000
Si Si2 0.338030 0.098510 0.229388
Si Si3 0.500000 0.358971 0.729843
Si Si4 0.646946 0.097301 0.500000
Si Si5 0.500000 0.233178 0.500000
Si Si6 0.806393 0.500000 0.143118
O O1 0.124543 0.724740 0.877166
O O2 0.137350 0.862651 0.000000
O O3 0.000000 0.775585 0.000000
O O4 0.307586 0.107109 0.369425
O O5 0.420229 0.152669 0.207744
O O6 0.357597 0.000000 0.211165
O O7 0.580368 0.419632 0.728610
O O8 0.500000 0.296134 0.614585
O O9 0.500000 0.293220 0.840700
O O10 0.577348 0.169211 0.500000
O O11 0.614841 0.000000 0.500000
O O12 0.828991 0.500000 0.000000
#
# Coordination Sequence:
#
# PCOD9561952 Si02
#       6
#     8  16   8   8   4   8
#     4  10  22  40  61  87 120 156 192 232 281 340
#     4  10  20  36  59  89 123 153 184 230 289 351
#     4  11  26  44  56  71 105 153 205 255 291 331
#     4  10  19  34  59  93 123 145 181 233 294 356
#     4  12  19  37  60  82 104 148 196 235 289 340
#     4  12  22  36  59  88 110 148 195 240 296 354
#
# _framework density 18.459215
#
# number of rings (size 3 to 8) (size 9 to 14) (size 15 to 20)
#    0.000    1.385    4.615    1.154    0.000    5.692 
#    0.000    1.538    0.000    0.000    0.000    0.000 
#    0.000    6.154    0.000    0.000    0.000    0.000 
#
# Total GULP energy -289877.940602 kJ/mol
# GULP energy per Si atom -5574.575781 kJ/mol
# Density = 1.841720 g / cm^3
# Si number density = 18.459215 Si / 1000 Ang^3
#
#
#
# Elastic Constant Matrix: (Units=GPa)
#
#
# Indices 1 2 3 4 5 6 
#
# 1 44.1812 26.8077 21.8791 0.0000 0.0000 0.0000
# 2 26.8077 44.1689 21.8757 0.0000 0.0000 0.0000
# 3 21.8791 21.8757 158.9213 0.0000 0.0000 0.0000
# 4 0.0000 0.0000 0.0000 10.2800 0.0000 0.0000
# 5 0.0000 0.0000 0.0000 0.0000 10.2775 0.0000
# 6 0.0000 0.0000 0.0000 0.0000 0.0000 49.4387
#
#
#
# Elastic Compliance Matrix: (Units=1/GPa)
#
#
# Indices 1 2 3 4 5 6 
#
# 1 0.036482 -0.021093 -0.002119 0.000000 0.000000 0.000000
# 2 -0.021093 0.036492 -0.002119 0.000000 0.000000 0.000000
# 3 -0.002119 -0.002119 0.006876 0.000000 0.000000 0.000000
# 4 0.000000 0.000000 0.000000 0.097276 0.000000 0.000000
# 5 0.000000 0.000000 0.000000 0.000000 0.097300 0.000000
# 6 0.000000 0.000000 0.000000 0.000000 0.000000 0.020227
#
#
# Mechanical properties :
#
#
# Convention : Reuss Voigt Hill
#
# Bulk Modulus (GPa) = 34.26116 43.15516 38.70816
# Shear Modulus (GPa) = 14.08278 25.77984 19.93131
#
# Velocity S-wave (km/s) = 2.76509 3.74114 3.28952
# Velocity P-wave (km/s) = 5.36610 6.48775 5.95340
#
# Compressibility (1/GPa) = 0.02918757
#
# Stress axis : x y z
#
# Youngs Moduli (GPa) = 27.41095 27.40334 145.43577
#
# Poissons Ratio (x) = 0.57801 0.30819
# Poissons Ratio (y) = 0.57817 0.30822
# Poissons Ratio (z) = 0.05809 0.05808
#
# Static dielectric constant tensor:
#      x y z
#    x 1.601170 0.000000 0.000000 
#    y 0.000000 1.601170 0.000000 
#    z 0.000000 0.000000 1.710660 
# 
# From -- ./inp_files/2491.got.cif
#   From: 2010.05.17/outbox.cif.g08.bks.cpg/sg123_2_cif.got.tgz:2491.got - 2010.05.20 11:43:04.
