data_PCOD9561514
_publ_section_title
;
Structure prediction by ZEFSAII (Michael W. Deem and Ramdas Pophale) SiO2 
 PCOD9561514
Probable space group: I -4 2 D
;
_chemical_formula_sum "Si O2"
_cell_formula_units_Z 56
_cell_length_a 20.120079
_cell_length_b 20.120079
_cell_length_c 7.206033
_cell_angle_alpha 90.000000
_cell_angle_beta 90.000000
_cell_angle_gamma 90.000000
_cell_volume 2917.128833
_symmetry_space_group_name_H-M "I -4 2 D"
_symmetry_group_IT_number 122
_symmetry_cell_setting 'tetragonal'
loop_
_space_group_symop_operation_xyz
x,y,z
y,-x,-z
-x,-y,z
-y,x,-z
x,1/2-y,1/4-z
-x,1/2+y,1/4-z
-y,1/2-x,1/4+z
y,1/2+x,1/4+z
1/2+x,1/2+y,1/2+z
1/2+y,1/2-x,1/2-z
1/2-x,1/2-y,1/2+z
1/2-y,1/2+x,1/2-z
1/2+x,-y,3/4-z
1/2-x,y,3/4-z
1/2-y,-x,3/4+z
1/2+y,x,3/4+z
loop_
_atom_site_type_symbol
_atom_site_label
_atom_site_fract_x
_atom_site_fract_y
_atom_site_fract_z
Si Si1 0.007049 0.763128 0.903577
Si Si2 0.250000 0.375126 0.875000
Si Si3 0.309608 0.884038 0.023463
Si Si4 0.535690 0.598142 0.506370
O O1 0.074597 0.748907 0.798652
O O2 0.984109 0.839334 0.880245
O O3 0.016036 0.750000 0.125000
O O4 0.944390 0.717163 0.850061
O O5 0.316251 0.331210 0.867852
O O6 0.250000 0.870990 0.875000
O O7 0.371341 0.915112 0.909300
O O8 0.571010 0.534617 0.414941
#
# Coordination Sequence:
#
# PCOD9561514 Si02
#       4
#    16   8  16  16
#     4   9  21  40  59  89 124 156 207 252 298 372
#     4  12  20  44  64  88 124 170 198 260 308 360
#     4   9  21  40  56  93 129 153 209 254 299 378
#     4   9  15  32  62  85 114 167 196 240 311 357
#
# _framework density 19.196957999999999
#
# number of rings (size 3 to 8) (size 9 to 14) (size 15 to 20)
#    0.000    3.143    2.857    0.000    0.000    0.000 
#   15.429    0.000    0.000    0.000    0.000    0.000 
#    0.000    0.000    0.000    0.000    0.000    0.000 
#
# Total GULP energy -155910.133585 kJ/mol
# GULP energy per Si atom -5568.219057 kJ/mol
# Density = 1.915327 g / cm^3
# Si number density = 19.196958 Si / 1000 Ang^3
#
#
#
# Elastic Constant Matrix: (Units=GPa)
#
#
# Indices 1 2 3 4 5 6 
#
# 1 121.2098 44.8335 16.4639 0.0000 0.0000 0.0000
# 2 44.8335 121.2098 16.4639 0.0000 0.0000 0.0000
# 3 16.4639 16.4639 34.6286 0.0000 0.0000 0.0000
# 4 0.0000 0.0000 0.0000 23.0038 0.0000 0.0000
# 5 0.0000 0.0000 0.0000 0.0000 23.0038 0.0000
# 6 0.0000 0.0000 0.0000 0.0000 0.0000 36.6405
#
#
#
# Elastic Compliance Matrix: (Units=1/GPa)
#
#
# Indices 1 2 3 4 5 6 
#
# 1 0.009871 -0.003222 -0.003161 0.000000 0.000000 0.000000
# 2 -0.003222 0.009871 -0.003161 0.000000 0.000000 0.000000
# 3 -0.003161 -0.003161 0.031884 0.000000 0.000000 0.000000
# 4 0.000000 0.000000 0.000000 0.043471 0.000000 0.000000
# 5 0.000000 0.000000 0.000000 0.000000 0.043471 0.000000
# 6 0.000000 0.000000 0.000000 0.000000 0.000000 0.027292
#
#
# Mechanical properties :
#
#
# Convention : Reuss Voigt Hill
#
# Bulk Modulus (GPa) = 30.73402 48.06341 39.39872
# Shear Modulus (GPa) = 25.53678 29.81542 27.67610
#
# Velocity S-wave (km/s) = 3.65122 3.94526 3.80108
# Velocity P-wave (km/s) = 5.81548 6.77087 6.31128
#
# Compressibility (1/GPa) = 0.03253723
#
# Stress axis : x y z
#
# Youngs Moduli (GPa) = 101.30410 101.30410 31.36365
#
# Poissons Ratio (x) = 0.32638 0.09915
# Poissons Ratio (y) = 0.32638 0.09915
# Poissons Ratio (z) = 0.32027 0.32027
#
# Static dielectric constant tensor:
#      x y z
#    x 1.693300 0.000000 0.000000 
#    y 0.000000 1.693300 0.000000 
#    z 0.000000 0.000000 1.690740 
# 
# From -- ./inp_files/2191.got.cif
#   From: 2010.05.17/outbox.cif.g08.bks.cpg/sg122_2_cif.got.tgz:2191.got - 2010.05.20 11:37:33.
