data_PCOD9561495
_publ_section_title
;
Structure prediction by ZEFSAII (Michael W. Deem and Ramdas Pophale) SiO2 
 PCOD9561495
Probable space group: I -4 2 D
;
_chemical_formula_sum "Si O2"
_cell_formula_units_Z 32
_cell_length_a 10.019117
_cell_length_b 10.019117
_cell_length_c 12.847888
_cell_angle_alpha 90.000000
_cell_angle_beta 90.000000
_cell_angle_gamma 90.000000
_cell_volume 1289.705757
_symmetry_space_group_name_H-M "I -4 2 D"
_symmetry_group_IT_number 122
_symmetry_cell_setting 'tetragonal'
loop_
_space_group_symop_operation_xyz
x,y,z
y,-x,-z
-x,-y,z
-y,x,-z
x,1/2-y,1/4-z
-x,1/2+y,1/4-z
-y,1/2-x,1/4+z
y,1/2+x,1/4+z
1/2+x,1/2+y,1/2+z
1/2+y,1/2-x,1/2-z
1/2-x,1/2-y,1/2+z
1/2-y,1/2+x,1/2-z
1/2+x,-y,3/4-z
1/2-x,y,3/4-z
1/2-y,-x,3/4+z
1/2+y,x,3/4+z
loop_
_atom_site_type_symbol
_atom_site_label
_atom_site_fract_x
_atom_site_fract_y
_atom_site_fract_z
Si Si1 0.262372 0.181851 0.489370
Si Si2 0.546477 0.153300 0.444418
O O1 0.250000 0.118992 0.375000
O O2 0.418037 0.220737 0.497552
O O3 0.178483 0.318149 0.492767
O O4 0.210012 0.086977 0.580832
O O5 0.500000 0.000000 0.439286
#
# Coordination Sequence:
#
# PCOD9561495 Si02
#       2
#    16  16
#     4  11  27  48  82 117 163 217 266 354 398 511
#     4  11  27  50  79 124 161 216 279 335 425 484
#
# _framework density 24.811862000000001
#
# number of rings (size 3 to 8) (size 9 to 14) (size 15 to 20)
#    0.000    1.000    0.000    3.000   21.000    1.000 
#    0.000    0.000    0.000    0.000    0.000    0.000 
#    0.000    0.000    0.000    0.000    0.000    0.000 
#
# Total GULP energy -89567.421451 kJ/mol
# GULP energy per Si atom -5597.963841 kJ/mol
# Density = 2.475539 g / cm^3
# Si number density = 24.811862 Si / 1000 Ang^3
#
#
#
# Elastic Constant Matrix: (Units=GPa)
#
#
# Indices 1 2 3 4 5 6 
#
# 1 183.9479 71.5644 26.1921 0.0000 0.0000 0.0000
# 2 71.5644 183.9479 26.1922 0.0000 0.0000 0.0000
# 3 26.1921 26.1922 117.9989 0.0000 0.0000 0.0000
# 4 0.0000 0.0000 0.0000 45.5995 0.0000 0.0000
# 5 0.0000 0.0000 0.0000 0.0000 45.5995 0.0000
# 6 0.0000 0.0000 0.0000 0.0000 0.0000 53.0203
#
#
#
# Elastic Compliance Matrix: (Units=1/GPa)
#
#
# Indices 1 2 3 4 5 6 
#
# 1 0.006499 -0.002399 -0.000910 0.000000 0.000000 0.000000
# 2 -0.002399 0.006499 -0.000910 0.000000 0.000000 0.000000
# 3 -0.000910 -0.000910 0.008879 0.000000 0.000000 0.000000
# 4 0.000000 0.000000 0.000000 0.021930 0.000000 0.000000
# 5 0.000000 0.000000 0.000000 0.000000 0.021930 0.000000
# 6 0.000000 0.000000 0.000000 0.000000 0.000000 0.018861
#
#
# Mechanical properties :
#
#
# Convention : Reuss Voigt Hill
#
# Bulk Modulus (GPa) = 74.41175 81.53245 77.97210
# Shear Modulus (GPa) = 51.27369 52.97358 52.12364
#
# Velocity S-wave (km/s) = 4.55081 4.62563 4.58837
# Velocity P-wave (km/s) = 7.59399 7.83966 7.71780
#
# Compressibility (1/GPa) = 0.01343874
#
# Stress axis : x y z
#
# Youngs Moduli (GPa) = 153.86503 153.86504 112.62908
#
# Poissons Ratio (x) = 0.36911 0.10251
# Poissons Ratio (y) = 0.36911 0.10251
# Poissons Ratio (z) = 0.14004 0.14004
#
# Static dielectric constant tensor:
#      x y z
#    x 2.044440 0.000000 0.000000 
#    y 0.000000 2.044440 0.000000 
#    z 0.000000 0.000000 1.989550 
# 
# From -- ./inp_files/4815.got.cif
#   From: 2010.05.17/outbox.cif.g08.bks.cpg/sg122_3_cif.got.tgz:4815.got - 2010.05.20 11:37:33.
