data_PCOD9561686
_publ_section_title
;
Structure prediction by ZEFSAII (Michael W. Deem and Ramdas Pophale) SiO2 
 PCOD9561686
Probable space group: P 4/M M M
;
_chemical_formula_sum "Si O2"
_cell_formula_units_Z 72
_cell_length_a 20.638413
_cell_length_b 20.638413
_cell_length_c 7.800881
_cell_angle_alpha 90.000000
_cell_angle_beta 90.000000
_cell_angle_gamma 90.000000
_cell_volume 3322.739168
_symmetry_space_group_name_H-M "P 4/M M M"
_symmetry_group_IT_number 123
_symmetry_cell_setting 'tetragonal'
loop_
_space_group_symop_operation_xyz
x,y,z
-y,x,z
-x,-y,z
y,-x,z
x,-y,-z
-x,y,-z
y,x,-z
-y,-x,-z
-x,-y,-z
y,-x,-z
x,y,-z
-y,x,-z
-x,y,z
x,-y,z
-y,-x,z
y,x,z
loop_
_atom_site_type_symbol
_atom_site_label
_atom_site_fract_x
_atom_site_fract_y
_atom_site_fract_z
Si Si1 0.745419 0.642321 0.709950
Si Si2 0.073106 0.500000 0.795742
Si Si3 0.000000 0.105378 0.793742
Si Si4 0.258923 0.500000 0.688429
Si Si5 0.646808 0.113666 0.705586
Si Si6 0.393110 0.500000 0.196103
Si Si7 0.000000 0.258674 0.707361
O O1 0.740268 0.638049 0.500000
O O2 0.684881 0.684881 0.769451
O O3 0.751312 0.568768 0.775490
O O4 0.814909 0.671098 0.755113
O O5 0.102971 0.429636 0.748560
O O6 0.000000 0.500000 0.724300
O O7 0.071043 0.500000 0.000000
O O8 0.000000 0.181965 0.749281
O O9 0.936566 0.063435 0.735658
O O10 0.000000 0.102683 0.000000
O O11 0.226473 0.500000 0.500000
O O12 0.335962 0.500000 0.673360
O O13 0.648301 0.110680 0.500000
O O14 0.697886 0.060744 0.770369
O O15 0.438074 0.438074 0.217632
O O16 0.368851 0.500000 0.000000
O O17 0.000000 0.261317 0.500000
#
# Coordination Sequence:
#
# PCOD9561686 Si02
#       7
#    16   8   8   8  16   8   8
#     4   9  18  32  51  76 106 140 177 221 275 328
#     4  11  22  35  55  83 113 149 188 235 281 325
#     4   9  20  40  63  85 113 154 196 227 268 334
#     4  10  18  30  50  72  92 123 173 219 253 300
#     4  10  20  36  57  82 112 148 187 229 279 339
#     4   9  18  31  45  63  89 120 154 199 261 321
#     4  10  21  34  56  90 116 140 181 232 282 328
#
# _framework density 21.668868
#
# number of rings (size 3 to 8) (size 9 to 14) (size 15 to 20)
#    0.000    2.333    1.111    2.333    0.000    5.778 
#    0.000    5.556    0.000    2.000    0.000    0.000 
#    0.000    0.000    0.000    0.000    0.000    0.000 
#
# Total GULP energy -401149.396679 kJ/mol
# GULP energy per Si atom -5571.519398 kJ/mol
# Density = 2.161955 g / cm^3
# Si number density = 21.668868 Si / 1000 Ang^3
#
#
#
# Elastic Constant Matrix: (Units=GPa)
#
#
# Indices 1 2 3 4 5 6 
#
# 1 165.9694 80.8358 5.8493 0.0000 0.0000 0.0000
# 2 80.8358 165.9694 5.8493 0.0000 0.0000 0.0000
# 3 5.8493 5.8493 26.3190 0.0000 0.0000 0.0000
# 4 0.0000 0.0000 0.0000 14.6670 0.0000 0.0000
# 5 0.0000 0.0000 0.0000 0.0000 14.6670 0.0000
# 6 0.0000 0.0000 0.0000 0.0000 0.0000 5.0628
#
#
#
# Elastic Compliance Matrix: (Units=1/GPa)
#
#
# Indices 1 2 3 4 5 6 
#
# 1 0.007921 -0.003826 -0.000910 0.000000 0.000000 0.000000
# 2 -0.003826 0.007921 -0.000910 0.000000 0.000000 0.000000
# 3 -0.000910 -0.000910 0.038400 0.000000 0.000000 0.000000
# 4 0.000000 0.000000 0.000000 0.068180 0.000000 0.000000
# 5 0.000000 0.000000 0.000000 0.000000 0.068180 0.000000
# 6 0.000000 0.000000 0.000000 0.000000 0.000000 0.197521
#
#
# Mechanical properties :
#
#
# Convention : Reuss Voigt Hill
#
# Bulk Modulus (GPa) = 23.28321 60.36964 41.82642
# Shear Modulus (GPa) = 12.08517 24.59426 18.33972
#
# Velocity S-wave (km/s) = 2.36417 3.37264 2.91239
# Velocity P-wave (km/s) = 4.26858 6.56405 5.53659
#
# Compressibility (1/GPa) = 0.04294940
#
# Stress axis : x y z
#
# Youngs Moduli (GPa) = 126.25343 126.25343 26.04173
#
# Poissons Ratio (x) = 0.48300 0.02370
# Poissons Ratio (y) = 0.48300 0.02370
# Poissons Ratio (z) = 0.11490 0.11490
#
# Static dielectric constant tensor:
#      x y z
#    x 1.821680 0.000000 0.000000 
#    y 0.000000 1.821680 0.000000 
#    z 0.000000 0.000000 1.829560 
# 
# From -- ./inp_files/1243.got.cif
#   From: 2010.05.17/outbox.cif.g08.bks.cpg/sg123_1_cif.got.tgz:1243.got - 2010.05.20 11:43:04.
