data_PCOD9561321
_publ_section_title
;
Structure prediction by ZEFSAII (Michael W. Deem and Ramdas Pophale) SiO2 
 PCOD9561321
Probable space group: I -4 2 D
;
_chemical_formula_sum "Si O2"
_cell_formula_units_Z 84
_cell_length_a 13.493696
_cell_length_b 13.493696
_cell_length_c 20.594722
_cell_angle_alpha 90.000000
_cell_angle_beta 90.000000
_cell_angle_gamma 90.000000
_cell_volume 3749.883517
_symmetry_space_group_name_H-M "I -4 2 D"
_symmetry_group_IT_number 122
_symmetry_cell_setting 'tetragonal'
loop_
_space_group_symop_operation_xyz
x,y,z
y,-x,-z
-x,-y,z
-y,x,-z
x,1/2-y,1/4-z
-x,1/2+y,1/4-z
-y,1/2-x,1/4+z
y,1/2+x,1/4+z
1/2+x,1/2+y,1/2+z
1/2+y,1/2-x,1/2-z
1/2-x,1/2-y,1/2+z
1/2-y,1/2+x,1/2-z
1/2+x,-y,3/4-z
1/2-x,y,3/4-z
1/2-y,-x,3/4+z
1/2+y,x,3/4+z
loop_
_atom_site_type_symbol
_atom_site_label
_atom_site_fract_x
_atom_site_fract_y
_atom_site_fract_z
Si Si1 0.558705 0.868905 0.569067
Si Si2 0.659906 0.700768 0.490172
Si Si3 0.000000 0.000000 0.708575
Si Si4 0.000000 0.000000 0.500000
Si Si5 0.204709 0.464977 0.157580
Si Si6 0.750000 0.613275 0.375000
Si Si7 0.089262 0.366768 0.637707
O O1 0.637178 0.785560 0.543740
O O2 0.506241 0.906193 0.504534
O O3 0.624526 0.953677 0.600956
O O4 0.470772 0.835684 0.617090
O O5 0.572323 0.711451 0.438175
O O6 0.664312 0.603268 0.533951
O O7 0.749641 0.681761 0.439315
O O8 0.992592 0.904689 0.663524
O O9 0.086486 0.950095 0.455445
O O10 0.308188 0.421662 0.131072
O O11 0.102380 0.250000 0.625000
#
# Coordination Sequence:
#
# PCOD9561321 Si02
#       7
#    16  16   8   4  16   8  16
#     4  12  23  43  65 100 139 180 226 289 358 421
#     4  12  23  44  67 100 141 178 239 287 349 435
#     4  11  24  45  66 101 140 177 242 290 352 427
#     4  10  28  52  76 112 148 186 256 302 372 446
#     4  12  24  43  72 102 141 191 230 295 365 426
#     4  12  24  42  66 104 138 182 230 288 352 428
#     4  11  25  50  74 103 144 191 242 303 363 437
#
# _framework density 22.400697000000001
#
# number of rings (size 3 to 8) (size 9 to 14) (size 15 to 20)
#    0.000    0.381    5.714    2.286    2.667    1.905 
#    5.143    0.000    0.000    0.000    0.000    0.000 
#    0.000    0.000    0.000    0.000    0.000    0.000 
#
# Total GULP energy -234213.949588 kJ/mol
# GULP energy per Si atom -5576.522609 kJ/mol
# Density = 2.234971 g / cm^3
# Si number density = 22.400697 Si / 1000 Ang^3
#
#
#
# Elastic Constant Matrix: (Units=GPa)
#
#
# Indices 1 2 3 4 5 6 
#
# 1 48.9953 37.0840 16.4587 0.0000 0.0000 0.0000
# 2 37.0840 48.9953 16.4587 0.0000 0.0000 0.0000
# 3 16.4587 16.4587 97.4015 0.0000 0.0000 0.0000
# 4 0.0000 0.0000 0.0000 32.2317 0.0000 0.0000
# 5 0.0000 0.0000 0.0000 0.0000 32.2317 0.0000
# 6 0.0000 0.0000 0.0000 0.0000 0.0000 21.1710
#
#
#
# Elastic Compliance Matrix: (Units=1/GPa)
#
#
# Indices 1 2 3 4 5 6 
#
# 1 0.048187 -0.035767 -0.002099 0.000000 0.000000 0.000000
# 2 -0.035767 0.048187 -0.002099 0.000000 0.000000 0.000000
# 3 -0.002099 -0.002099 0.010976 0.000000 0.000000 0.000000
# 4 0.000000 0.000000 0.000000 0.031025 0.000000 0.000000
# 5 0.000000 0.000000 0.000000 0.000000 0.031025 0.000000
# 6 0.000000 0.000000 0.000000 0.000000 0.000000 0.047235
#
#
# Mechanical properties :
#
#
# Convention : Reuss Voigt Hill
#
# Bulk Modulus (GPa) = 36.46856 37.26608 36.86732
# Shear Modulus (GPa) = 16.35563 25.48626 20.92095
#
# Velocity S-wave (km/s) = 2.70504 3.37671 3.05936
# Velocity P-wave (km/s) = 5.10605 5.64580 5.38270
#
# Compressibility (1/GPa) = 0.02742088
#
# Stress axis : x y z
#
# Youngs Moduli (GPa) = 20.75244 20.75244 91.10756
#
# Poissons Ratio (x) = 0.74226 0.19120
# Poissons Ratio (y) = 0.74226 0.19120
# Poissons Ratio (z) = 0.04355 0.04355
#
# Static dielectric constant tensor:
#      x y z
#    x 1.873100 0.000000 0.000000 
#    y 0.000000 1.873100 0.000000 
#    z 0.000000 0.000000 1.858080 
# 
# From -- ./inp_files/7238.got.cif
#   From: 2010.05.17/outbox.cif.g08.bks.cpg/sg122_4_cif.got.tgz:7238.got - 2010.05.20 11:37:33.
