data_PCOD9561281
_publ_section_title
;
Structure prediction by ZEFSAII (Michael W. Deem and Ramdas Pophale) SiO2 
 PCOD9561281
Probable space group: I -4 2 D
;
_chemical_formula_sum "Si O2"
_cell_formula_units_Z 48
_cell_length_a 7.870156
_cell_length_b 7.870156
_cell_length_c 26.884692
_cell_angle_alpha 90.000000
_cell_angle_beta 90.000000
_cell_angle_gamma 90.000000
_cell_volume 1665.220494
_symmetry_space_group_name_H-M "I -4 2 D"
_symmetry_group_IT_number 122
_symmetry_cell_setting 'tetragonal'
loop_
_space_group_symop_operation_xyz
x,y,z
y,-x,-z
-x,-y,z
-y,x,-z
x,1/2-y,1/4-z
-x,1/2+y,1/4-z
-y,1/2-x,1/4+z
y,1/2+x,1/4+z
1/2+x,1/2+y,1/2+z
1/2+y,1/2-x,1/2-z
1/2-x,1/2-y,1/2+z
1/2-y,1/2+x,1/2-z
1/2+x,-y,3/4-z
1/2-x,y,3/4-z
1/2-y,-x,3/4+z
1/2+y,x,3/4+z
loop_
_atom_site_type_symbol
_atom_site_label
_atom_site_fract_x
_atom_site_fract_y
_atom_site_fract_z
Si Si1 0.807395 0.321250 0.978497
Si Si2 0.653008 0.806494 0.432374
Si Si3 0.434466 0.690312 0.347238
O O1 0.814676 0.501678 0.950004
O O2 0.634633 0.240651 0.957008
O O3 0.982862 0.238774 0.960652
O O4 0.800668 0.296728 0.038142
O O5 0.581216 0.799905 0.375721
O O6 0.500000 0.500000 0.353488
O O7 0.250000 0.705253 0.375000
#
# Coordination Sequence:
#
# PCOD9561281 Si02
#       3
#    16  16  16
#     4  10  24  46  78 112 154 207 262 331 410 477
#     4  10  24  46  78 111 156 202 265 331 402 488
#     4  10  24  46  78 114 153 207 266 328 406 485
#
# _framework density 28.825015
#
# number of rings (size 3 to 8) (size 9 to 14) (size 15 to 20)
#    0.000    2.000    0.000    0.000   14.000    0.667 
#    0.000   35.000    0.000    0.000    0.000    0.000 
#    0.000    0.000    0.000    0.000    0.000    0.000 
#
# Total GULP energy -134155.982679 kJ/mol
# GULP energy per Si atom -5589.832612 kJ/mol
# Density = 2.875941 g / cm^3
# Si number density = 28.825015 Si / 1000 Ang^3
#
#
#
# Elastic Constant Matrix: (Units=GPa)
#
#
# Indices 1 2 3 4 5 6 
#
# 1 111.3922 7.4413 -9.5381 0.0000 0.0000 0.0000
# 2 7.4413 111.3922 -9.5381 0.0000 0.0000 0.0000
# 3 -9.5381 -9.5381 196.9147 0.0000 0.0000 0.0000
# 4 0.0000 0.0000 0.0000 30.8765 0.0000 0.0000
# 5 0.0000 0.0000 0.0000 0.0000 30.8765 0.0000
# 6 0.0000 0.0000 0.0000 0.0000 0.0000 47.6493
#
#
#
# Elastic Compliance Matrix: (Units=1/GPa)
#
#
# Indices 1 2 3 4 5 6 
#
# 1 0.009051 -0.000569 0.000411 0.000000 0.000000 0.000000
# 2 -0.000569 0.009051 0.000411 0.000000 0.000000 0.000000
# 3 0.000411 0.000411 0.005118 0.000000 0.000000 0.000000
# 4 0.000000 0.000000 0.000000 0.032387 0.000000 0.000000
# 5 0.000000 0.000000 0.000000 0.000000 0.032387 0.000000
# 6 0.000000 0.000000 0.000000 0.000000 0.000000 0.020987
#
#
# Mechanical properties :
#
#
# Convention : Reuss Voigt Hill
#
# Bulk Modulus (GPa) = 42.15226 44.04769 43.09998
# Shear Modulus (GPa) = 42.96144 50.63607 46.79876
#
# Velocity S-wave (km/s) = 3.86479 4.19581 4.03370
# Velocity P-wave (km/s) = 5.87968 6.22795 6.05632
#
# Compressibility (1/GPa) = 0.02372352
#
# Stress axis : x y z
#
# Youngs Moduli (GPa) = 110.49109 110.49105 195.38360
#
# Poissons Ratio (x) = 0.06292 -0.08026
# Poissons Ratio (y) = 0.06292 -0.08026
# Poissons Ratio (z) = -0.04539 -0.04539
#
# Static dielectric constant tensor:
#      x y z
#    x 2.297450 0.000000 0.000000 
#    y 0.000000 2.297460 0.000000 
#    z 0.000000 0.000000 2.434210 
# 
# From -- ./inp_files/9000.got.cif
#   From: 2010.05.17/outbox.cif.g08.bks.cpg/sg122_5_cif.got.tgz:9000.got - 2010.05.20 11:37:33.
