data_PCOD9561878
_publ_section_title
;
Structure prediction by ZEFSAII (Michael W. Deem and Ramdas Pophale) SiO2 
 PCOD9561878
Probable space group: P 4/M M M
;
_chemical_formula_sum "Si O2"
_cell_formula_units_Z 80
_cell_length_a 23.938025
_cell_length_b 23.938025
_cell_length_c 7.791413
_cell_angle_alpha 90.000000
_cell_angle_beta 90.000000
_cell_angle_gamma 90.000000
_cell_volume 4464.705919
_symmetry_space_group_name_H-M "P 4/M M M"
_symmetry_group_IT_number 123
_symmetry_cell_setting 'tetragonal'
loop_
_space_group_symop_operation_xyz
x,y,z
-y,x,z
-x,-y,z
y,-x,z
x,-y,-z
-x,y,-z
y,x,-z
-y,-x,-z
-x,-y,-z
y,-x,-z
x,y,-z
-y,x,-z
-x,y,z
x,-y,z
-y,-x,z
y,x,z
loop_
_atom_site_type_symbol
_atom_site_label
_atom_site_fract_x
_atom_site_fract_y
_atom_site_fract_z
Si Si1 0.772245 0.625792 0.293805
Si Si2 0.321462 0.937538 0.704362
Si Si3 0.743537 0.831805 0.707788
Si Si4 0.437314 0.120202 0.799744
Si Si5 0.348085 0.651916 0.301884
Si Si6 0.436196 0.436196 0.793245
O O1 0.773885 0.617063 0.500000
O O2 0.795034 0.688189 0.259285
O O3 0.815038 0.580852 0.218863
O O4 0.709098 0.627097 0.227632
O O5 0.312294 0.940273 0.500000
O O6 0.275893 0.892841 0.772350
O O7 0.384467 0.913741 0.725791
O O8 0.317118 0.000000 0.775854
O O9 0.749054 0.835348 0.500000
O O10 0.798070 0.798070 0.771271
O O11 0.500000 0.110772 0.727994
O O12 0.439183 0.106018 0.000000
O O13 0.333728 0.666273 0.500000
O O14 0.394500 0.605501 0.293887
O O15 0.500000 0.424029 0.747006
O O16 0.431393 0.431393 0.000000
#
# Coordination Sequence:
#
# PCOD9561878 Si02
#       6
#    16  16  16  16   8   8
#     4   9  17  30  48  69  92 115 143 182 228 278
#     4   9  18  31  48  70  93 119 155 197 235 273
#     4   8  12  23  45  67  88 115 143 175 218 263
#     4  10  21  34  46  63  90 125 161 193 228 272
#     4  10  19  31  51  76  94 110 140 186 239 287
#     4   9  20  38  52  60  78 112 148 180 224 285
#
# _framework density 17.918313999999999
#
# number of rings (size 3 to 8) (size 9 to 14) (size 15 to 20)
#    0.000    2.900    1.000    2.100    0.000    4.400 
#    0.000    6.500    0.000    0.000    0.000    0.000 
#    0.000    0.400    0.000    5.600    0.000    0.000 
#
# Total GULP energy -445522.365343 kJ/mol
# GULP energy per Si atom -5569.029567 kJ/mol
# Density = 1.787753 g / cm^3
# Si number density = 17.918314 Si / 1000 Ang^3
#
#
#
# Elastic Constant Matrix: (Units=GPa)
#
#
# Indices 1 2 3 4 5 6 
#
# 1 403.5953 -234.7181 2.8993 0.0000 0.0000 0.0000
# 2 -234.7181 403.6024 2.9004 0.0000 0.0000 0.0000
# 3 2.8993 2.9004 19.6764 0.0000 0.0000 0.0000
# 4 0.0000 0.0000 0.0000 -365.5151 0.0000 0.0000
# 5 0.0000 0.0000 0.0000 0.0000 -365.5297 0.0000
# 6 0.0000 0.0000 0.0000 0.0000 0.0000 15.4783
#
#
#
# Elastic Compliance Matrix: (Units=1/GPa)
#
#
# Indices 1 2 3 4 5 6 
#
# 1 0.003759 0.002192 -0.000877 0.000000 0.000000 0.000000
# 2 0.002192 0.003759 -0.000877 0.000000 0.000000 0.000000
# 3 -0.000877 -0.000877 0.051081 0.000000 0.000000 0.000000
# 4 0.000000 0.000000 0.000000 -0.002736 0.000000 0.000000
# 5 0.000000 0.000000 0.000000 0.000000 -0.002736 0.000000
# 6 0.000000 0.000000 0.000000 0.000000 0.000000 0.064607
#
#
# Mechanical properties :
#
#
# Convention : Reuss Voigt Hill
#
# Bulk Modulus (GPa) = 16.81369 41.00413 28.90891
# Shear Modulus (GPa) = 36.58114 -72.72714 -18.07300
#
# Velocity S-wave (km/s) = 4.52325 -6.37780 -3.17934
# Velocity P-wave (km/s) = 6.05670 5.59477 1.64046
#
# Compressibility (1/GPa) = 0.05947536
#
# Stress axis : x y z
#
# Youngs Moduli (GPa) = 266.02320 266.02768 19.57682
#
# Poissons Ratio (x) = -0.58324 0.01717
# Poissons Ratio (y) = -0.58323 0.01717
# Poissons Ratio (z) = 0.23332 0.23334
#
# Static dielectric constant tensor:
#      x y z
#    x 1.625570 0.000000 0.000000 
#    y 0.000000 1.625570 0.000000 
#    z 0.000000 0.000000 1.688370 
# 
# From -- ./inp_files/1452.got.cif
#   From: 2010.05.17/outbox.cif.g08.bks.cpg/sg123_1_cif.got.tgz:1452.got - 2010.05.20 11:43:04.
