data_PCOD9561749
_publ_section_title
;
Structure prediction by ZEFSAII (Michael W. Deem and Ramdas Pophale) SiO2 
 PCOD9561749
Probable space group: P 4/M M M
;
_chemical_formula_sum "Si O2"
_cell_formula_units_Z 60
_cell_length_a 18.202268
_cell_length_b 18.202268
_cell_length_c 13.125084
_cell_angle_alpha 90.000000
_cell_angle_beta 90.000000
_cell_angle_gamma 90.000000
_cell_volume 4348.636436
_symmetry_space_group_name_H-M "P 4/M M M"
_symmetry_group_IT_number 123
_symmetry_cell_setting 'tetragonal'
loop_
_space_group_symop_operation_xyz
x,y,z
-y,x,z
-x,-y,z
y,-x,z
x,-y,-z
-x,y,-z
y,x,-z
-y,-x,-z
-x,-y,-z
y,-x,-z
x,y,-z
-y,x,-z
-x,y,z
x,-y,z
-y,-x,z
y,x,z
loop_
_atom_site_type_symbol
_atom_site_label
_atom_site_fract_x
_atom_site_fract_y
_atom_site_fract_z
Si Si1 0.853161 0.146840 0.383179
Si Si2 0.832018 0.832018 0.000000
Si Si3 0.677337 0.911499 0.000000
Si Si4 0.416491 0.911320 0.797257
Si Si5 0.914515 0.914515 0.178920
Si Si6 0.912212 0.310210 0.383224
O O1 0.873395 0.126606 0.500000
O O2 0.896075 0.103926 0.295583
O O3 0.871588 0.232673 0.370082
O O4 0.858683 0.747835 0.000000
O O5 0.867150 0.867150 0.898584
O O6 0.628545 0.896674 0.099942
O O7 0.697039 0.000000 0.000000
O O8 0.500000 0.883127 0.799918
O O9 0.369706 0.887313 0.699213
O O10 0.421050 0.000000 0.790256
O O11 0.000000 0.899686 0.159523
O O12 0.901898 0.335074 0.500000
O O13 0.000000 0.296945 0.369068
#
# Coordination Sequence:
#
# PCOD9561749 Si02
#       6
#     8   4   8  16   8  16
#     4  10  19  31  45  60  82 110 142 179 214 250
#     4  12  22  33  46  60  82 108 138 177 216 256
#     4  10  19  30  45  62  80 106 138 170 207 248
#     4   9  17  29  44  61  80 101 130 170 210 248
#     4  11  22  32  42  56  76 106 144 184 223 253
#     4   9  17  28  42  60  81 107 139 173 209 246
#
# _framework density 13.797427000000001
#
# number of rings (size 3 to 8) (size 9 to 14) (size 15 to 20)
#    0.000    2.267    0.000    4.000    0.000    6.400 
#    0.000    3.333    0.000    0.000    0.000    0.000 
#    0.000    0.000    0.000    0.000    0.000   27.333 
#
# Total GULP energy -334472.615314 kJ/mol
# GULP energy per Si atom -5574.543589 kJ/mol
# Density = 1.376602 g / cm^3
# Si number density = 13.797427 Si / 1000 Ang^3
#
#
#
# Elastic Constant Matrix: (Units=GPa)
#
#
# Indices 1 2 3 4 5 6 
#
# 1 63.6368 32.1127 41.1304 0.0000 0.0000 0.0000
# 2 32.1127 63.6381 41.1305 0.0000 0.0000 0.0000
# 3 41.1304 41.1305 86.3028 0.0000 0.0000 0.0000
# 4 0.0000 0.0000 0.0000 9.2499 0.0000 0.0000
# 5 0.0000 0.0000 0.0000 0.0000 9.2500 0.0000
# 6 0.0000 0.0000 0.0000 0.0000 0.0000 9.5845
#
#
#
# Elastic Compliance Matrix: (Units=1/GPa)
#
#
# Indices 1 2 3 4 5 6 
#
# 1 0.024703 -0.007018 -0.008428 0.000000 0.000000 0.000000
# 2 -0.007018 0.024703 -0.008428 0.000000 0.000000 0.000000
# 3 -0.008428 -0.008428 0.019621 0.000000 0.000000 0.000000
# 4 0.000000 0.000000 0.000000 0.108110 0.000000 0.000000
# 5 0.000000 0.000000 0.000000 0.000000 0.108108 0.000000
# 6 0.000000 0.000000 0.000000 0.000000 0.000000 0.104335
#
#
# Mechanical properties :
#
#
# Convention : Reuss Voigt Hill
#
# Bulk Modulus (GPa) = 46.99885 49.14720 48.07303
# Shear Modulus (GPa) = 11.25059 12.23048 11.74054
#
# Velocity S-wave (km/s) = 2.85864 2.98053 2.92022
# Velocity P-wave (km/s) = 6.71068 6.89512 6.80352
#
# Compressibility (1/GPa) = 0.02127711
#
# Stress axis : x y z
#
# Youngs Moduli (GPa) = 40.48056 40.48162 50.96674
#
# Poissons Ratio (x) = 0.28411 0.42957
# Poissons Ratio (y) = 0.28410 0.42955
# Poissons Ratio (z) = 0.34119 0.34118
#
# Static dielectric constant tensor:
#      x y z
#    x 1.437070 0.000000 0.000000 
#    y 0.000000 1.437070 0.000000 
#    z 0.000000 0.000000 1.473220 
# 
# From -- ./inp_files/2694.got.cif
#   From: 2010.05.17/outbox.cif.g08.bks.cpg/sg123_2_cif.got.tgz:2694.got - 2010.05.20 11:43:04.
