data_PCOD9561628
_publ_section_title
;
Structure prediction by ZEFSAII (Michael W. Deem and Ramdas Pophale) SiO2 
 PCOD9561628
Probable space group: P 4/M M M
;
_chemical_formula_sum "Si O2"
_cell_formula_units_Z 96
_cell_length_a 18.300438
_cell_length_b 18.300438
_cell_length_c 20.569079
_cell_angle_alpha 90.000000
_cell_angle_beta 90.000000
_cell_angle_gamma 90.000000
_cell_volume 6888.708609
_symmetry_space_group_name_H-M "P 4/M M M"
_symmetry_group_IT_number 123
_symmetry_cell_setting 'tetragonal'
loop_
_space_group_symop_operation_xyz
x,y,z
-y,x,z
-x,-y,z
y,-x,z
x,-y,-z
-x,y,-z
y,x,-z
-y,-x,-z
-x,-y,-z
y,-x,-z
x,y,-z
-y,x,-z
-x,y,z
x,-y,z
-y,-x,z
y,x,z
loop_
_atom_site_type_symbol
_atom_site_label
_atom_site_fract_x
_atom_site_fract_y
_atom_site_fract_z
Si Si1 0.584699 0.301118 0.800977
Si Si2 0.914578 0.417212 0.730070
Si Si3 0.415308 0.084731 0.112908
Si Si4 0.669056 0.784268 0.313219
Si Si5 0.347073 0.770042 0.073770
Si Si6 0.415357 0.701582 0.576543
O O1 0.500000 0.297844 0.787714
O O2 0.618044 0.381957 0.798931
O O3 0.627964 0.255132 0.746953
O O4 0.603388 0.267537 0.871297
O O5 0.888468 0.500000 0.712345
O O6 0.909173 0.412277 0.808545
O O7 0.867961 0.352728 0.697916
O O8 0.000000 0.412693 0.713542
O O9 0.500000 0.101316 0.093929
O O10 0.359601 0.143710 0.084037
O O11 0.400985 0.000000 0.095701
O O12 0.751272 0.751272 0.312873
O O13 0.630340 0.756180 0.378669
O O14 0.266559 0.733442 0.082962
O O15 0.369309 0.752423 0.000000
O O16 0.409888 0.719669 0.500000
O O17 0.500000 0.700972 0.595220
O O18 0.377170 0.622831 0.585710
#
# Coordination Sequence:
#
# PCOD9561628 Si02
#       6
#    16  16  16  16  16  16
#     4  10  19  29  41  56  74 100 135 170 202 237
#     4   9  16  26  42  63  85 107 132 165 205 248
#     4   9  17  28  43  63  83 103 130 166 208 250
#     4  10  18  28  44  62  80 105 136 169 204 245
#     4  10  20  31  42  57  79 107 135 164 200 243
#     4   9  17  27  39  57  80 107 140 176 212 246
#
# _framework density 13.935848999999999
#
# number of rings (size 3 to 8) (size 9 to 14) (size 15 to 20)
#    0.000    2.500    1.667    3.000    0.000    2.000 
#    0.000    1.667    0.000    3.500    0.000    4.667 
#    0.000    0.667    0.000    5.500    0.000    2.667 
#
# Total GULP energy -534436.506243 kJ/mol
# GULP energy per Si atom -5567.046940 kJ/mol
# Density = 1.390413 g / cm^3
# Si number density = 13.935849 Si / 1000 Ang^3
#
#
#
# Elastic Constant Matrix: (Units=GPa)
#
#
# Indices 1 2 3 4 5 6 
#
# 1 57.0954 28.3514 5.3732 0.0000 0.0000 0.0000
# 2 28.3514 57.0954 5.3732 0.0000 0.0000 0.0000
# 3 5.3732 5.3732 28.5078 0.0000 0.0000 0.0000
# 4 0.0000 0.0000 0.0000 14.4690 0.0000 0.0000
# 5 0.0000 0.0000 0.0000 0.0000 14.4690 0.0000
# 6 0.0000 0.0000 0.0000 0.0000 0.0000 19.7144
#
#
#
# Elastic Compliance Matrix: (Units=1/GPa)
#
#
# Indices 1 2 3 4 5 6 
#
# 1 0.023389 -0.011401 -0.002259 0.000000 0.000000 0.000000
# 2 -0.011401 0.023389 -0.002259 0.000000 0.000000 0.000000
# 3 -0.002259 -0.002259 0.035930 0.000000 0.000000 0.000000
# 4 0.000000 0.000000 0.000000 0.069113 0.000000 0.000000
# 5 0.000000 0.000000 0.000000 0.000000 0.069113 0.000000
# 6 0.000000 0.000000 0.000000 0.000000 0.000000 0.050724
#
#
# Mechanical properties :
#
#
# Convention : Reuss Voigt Hill
#
# Bulk Modulus (GPa) = 19.65911 24.54378 22.10145
# Shear Modulus (GPa) = 15.60288 16.63720 16.12004
#
# Velocity S-wave (km/s) = 3.34970 3.45895 3.40477
# Velocity P-wave (km/s) = 5.39427 5.79678 5.59914
#
# Compressibility (1/GPa) = 0.05086701
#
# Stress axis : x y z
#
# Youngs Moduli (GPa) = 42.75592 42.75592 27.83200
#
# Poissons Ratio (x) = 0.48747 0.06288
# Poissons Ratio (y) = 0.48747 0.06288
# Poissons Ratio (z) = 0.09660 0.09660
#
# Static dielectric constant tensor:
#      x y z
#    x 1.469430 0.000000 0.000000 
#    y 0.000000 1.469430 0.000000 
#    z 0.000000 0.000000 1.472320 
# 
# From -- ./inp_files/5489.got.cif
#   From: 2010.05.17/outbox.cif.g08.bks.cpg/sg123_3_cif.got.tgz:5489.got - 2010.05.20 11:43:04.
