data_PCOD9561195
_publ_section_title
;
Structure prediction by ZEFSAII (Michael W. Deem and Ramdas Pophale) SiO2 
 PCOD9561195
Probable space group: I -4 2 D
;
_chemical_formula_sum "Si O2"
_cell_formula_units_Z 80
_cell_length_a 11.945018
_cell_length_b 11.945018
_cell_length_c 26.276484
_cell_angle_alpha 90.000000
_cell_angle_beta 90.000000
_cell_angle_gamma 90.000000
_cell_volume 3749.219523
_symmetry_space_group_name_H-M "I -4 2 D"
_symmetry_group_IT_number 122
_symmetry_cell_setting 'tetragonal'
loop_
_space_group_symop_operation_xyz
x,y,z
y,-x,-z
-x,-y,z
-y,x,-z
x,1/2-y,1/4-z
-x,1/2+y,1/4-z
-y,1/2-x,1/4+z
y,1/2+x,1/4+z
1/2+x,1/2+y,1/2+z
1/2+y,1/2-x,1/2-z
1/2-x,1/2-y,1/2+z
1/2-y,1/2+x,1/2-z
1/2+x,-y,3/4-z
1/2-x,y,3/4-z
1/2-y,-x,3/4+z
1/2+y,x,3/4+z
loop_
_atom_site_type_symbol
_atom_site_label
_atom_site_fract_x
_atom_site_fract_y
_atom_site_fract_z
Si Si1 0.491231 0.378560 0.780095
Si Si2 0.622828 0.935373 0.370930
Si Si3 0.956785 0.849389 0.021040
Si Si4 0.868257 0.370945 0.737965
Si Si5 0.704509 0.265252 0.818650
O O1 0.500000 0.500000 0.755575
O O2 0.398747 0.381191 0.824125
O O3 0.474423 0.278891 0.741779
O O4 0.607142 0.354439 0.808999
O O5 0.750000 0.986931 0.375000
O O6 0.632363 0.851918 0.322794
O O7 0.500000 0.000000 0.361422
O O8 0.857168 0.851035 0.061123
O O9 0.078298 0.905769 0.026586
O O10 0.847462 0.499213 0.755155
O O11 0.795936 0.291505 0.774690
O O12 0.750000 0.270977 0.875000
#
# Coordination Sequence:
#
# PCOD9561195 Si02
#       5
#    16  16  16  16  16
#     4  10  23  38  65  95 128 166 213 268 325 397
#     4  11  23  38  60  89 129 173 214 264 323 402
#     4   9  20  44  68  87 119 169 220 268 325 381
#     4  11  23  36  57  88 130 173 209 257 326 398
#     4  11  24  39  64  92 127 172 217 270 325 393
#
# _framework density 21.337772999999999
#
# number of rings (size 3 to 8) (size 9 to 14) (size 15 to 20)
#    0.000    1.600    2.000    2.400   11.200    0.000 
#    0.000    5.000    4.400    0.000    0.000    0.000 
#    0.000    0.000    0.000    0.000    0.000    0.000 
#
# Total GULP energy -222846.471701 kJ/mol
# GULP energy per Si atom -5571.161793 kJ/mol
# Density = 2.128921 g / cm^3
# Si number density = 21.337773 Si / 1000 Ang^3
#
#
#
# Elastic Constant Matrix: (Units=GPa)
#
#
# Indices 1 2 3 4 5 6 
#
# 1 122.2099 15.7053 5.4954 0.0000 0.0000 0.0000
# 2 15.7053 122.2099 5.4954 0.0000 0.0000 0.0000
# 3 5.4954 5.4954 33.5117 0.0000 0.0000 0.0000
# 4 0.0000 0.0000 0.0000 19.6940 0.0000 0.0000
# 5 0.0000 0.0000 0.0000 0.0000 19.6940 0.0000
# 6 0.0000 0.0000 0.0000 0.0000 0.0000 27.0138
#
#
#
# Elastic Compliance Matrix: (Units=1/GPa)
#
#
# Indices 1 2 3 4 5 6 
#
# 1 0.008368 -0.001021 -0.001205 0.000000 0.000000 0.000000
# 2 -0.001021 0.008368 -0.001205 0.000000 0.000000 0.000000
# 3 -0.001205 -0.001205 0.030235 0.000000 0.000000 0.000000
# 4 0.000000 0.000000 0.000000 0.050777 0.000000 0.000000
# 5 0.000000 0.000000 0.000000 0.000000 0.050777 0.000000
# 6 0.000000 0.000000 0.000000 0.000000 0.000000 0.037018
#
#
# Mechanical properties :
#
#
# Convention : Reuss Voigt Hill
#
# Bulk Modulus (GPa) = 24.93137 36.81372 30.87255
# Shear Modulus (GPa) = 24.29838 30.02939 27.16388
#
# Velocity S-wave (km/s) = 3.37820 3.75552 3.57184
# Velocity P-wave (km/s) = 5.18901 6.00795 5.61343
#
# Compressibility (1/GPa) = 0.04011010
#
# Stress axis : x y z
#
# Youngs Moduli (GPa) = 119.50213 119.50213 33.07376
#
# Poissons Ratio (x) = 0.12204 0.03985
# Poissons Ratio (y) = 0.12204 0.03985
# Poissons Ratio (z) = 0.14397 0.14397
#
# Static dielectric constant tensor:
#      x y z
#    x 1.835710 0.000000 0.000000 
#    y 0.000000 1.835710 0.000000 
#    z 0.000000 0.000000 1.758750 
# 
# From -- ./inp_files/9334.got.cif
#   From: 2010.05.17/outbox.cif.g08.bks.cpg/sg122_5_cif.got.tgz:9334.got - 2010.05.20 11:37:33.
