data_PCOD9561858
_publ_section_title
;
Structure prediction by ZEFSAII (Michael W. Deem and Ramdas Pophale) SiO2 
 PCOD9561858
Probable space group: P 4/M M M
;
_chemical_formula_sum "Si O2"
_cell_formula_units_Z 120
_cell_length_a 18.225851
_cell_length_b 18.225851
_cell_length_c 21.376646
_cell_angle_alpha 90.000000
_cell_angle_beta 90.000000
_cell_angle_gamma 90.000000
_cell_volume 7100.929426
_symmetry_space_group_name_H-M "P 4/M M M"
_symmetry_group_IT_number 123
_symmetry_cell_setting 'tetragonal'
loop_
_space_group_symop_operation_xyz
x,y,z
-y,x,z
-x,-y,z
y,-x,z
x,-y,-z
-x,y,-z
y,x,-z
-y,-x,-z
-x,-y,-z
y,-x,-z
x,y,-z
-y,x,-z
-x,y,z
x,-y,z
-y,-x,z
y,x,z
loop_
_atom_site_type_symbol
_atom_site_label
_atom_site_fract_x
_atom_site_fract_y
_atom_site_fract_z
Si Si1 0.705529 0.415543 0.925033
Si Si2 0.265500 0.914306 0.066771
Si Si3 0.665010 0.088802 0.426752
Si Si4 0.417318 0.871427 0.889308
Si Si5 0.500000 0.916825 0.575543
Si Si6 0.584857 0.915242 0.744659
Si Si7 0.281851 0.164626 0.690889
Si Si8 0.802509 0.086376 0.196588
O O1 0.681606 0.500000 0.913957
O O2 0.643953 0.356048 0.907632
O O3 0.783482 0.404739 0.891153
O O4 0.718784 0.408440 0.000000
O O5 0.352854 0.907043 0.071488
O O6 0.234838 0.884865 0.132387
O O7 0.245080 0.000000 0.066026
O O8 0.241538 0.881804 0.000000
O O9 0.678794 0.104969 0.500000
O O10 0.580946 0.113241 0.410554
O O11 0.718363 0.128286 0.377911
O O12 0.667909 0.000000 0.419948
O O13 0.500000 0.884055 0.912812
O O14 0.412648 0.903494 0.819375
O O15 0.500000 0.921237 0.500000
O O16 0.500000 0.000000 0.600023
O O17 0.500000 0.908121 0.725046
O O18 0.636317 0.852969 0.715445
O O19 0.608816 0.000000 0.730905
O O20 0.245491 0.245491 0.689312
O O21 0.235132 0.120137 0.742389
O O22 0.885524 0.114477 0.195048
O O23 0.794823 0.000000 0.198847
#
# Coordination Sequence:
#
# PCOD9561858 Si02
#       8
#    16  16  16  16   8  16  16  16
#     4   9  18  31  46  65  90 122 161 205 252 303
#     4  10  20  33  49  69  95 125 156 195 248 311
#     4   9  17  30  50  77 109 143 179 216 255 306
#     4  10  19  31  48  71  97 124 158 201 248 305
#     4   7  12  24  44  74 106 136 174 216 254 296
#     4  10  20  34  55  79 103 136 176 216 260 312
#     4  11  22  34  51  76 109 145 176 211 257 310
#     4  10  21  37  54  72  95 124 165 214 260 310
#
# _framework density 16.899197000000001
#
# number of rings (size 3 to 8) (size 9 to 14) (size 15 to 20)
#    0.000    2.333    1.333    2.800    0.933    3.467 
#    0.000    1.333    0.000    0.000    0.000    1.867 
#    0.000    0.267    0.000   20.800    0.000    3.733 
#
# Total GULP energy -668277.098848 kJ/mol
# GULP energy per Si atom -5568.975824 kJ/mol
# Density = 1.686073 g / cm^3
# Si number density = 16.899197 Si / 1000 Ang^3
#
#
#
# Elastic Constant Matrix: (Units=GPa)
#
#
# Indices 1 2 3 4 5 6 
#
# 1 49.7533 36.9754 29.0786 0.0000 0.0000 0.0000
# 2 36.9754 49.7533 29.0786 0.0000 0.0000 0.0000
# 3 29.0786 29.0786 100.8062 0.0000 0.0000 0.0000
# 4 0.0000 0.0000 0.0000 -2.9976 0.0000 0.0000
# 5 0.0000 0.0000 0.0000 0.0000 -2.9976 0.0000
# 6 0.0000 0.0000 0.0000 0.0000 0.0000 28.3742
#
#
#
# Elastic Compliance Matrix: (Units=1/GPa)
#
#
# Indices 1 2 3 4 5 6 
#
# 1 0.046278 -0.031982 -0.004124 0.000000 0.000000 0.000000
# 2 -0.031982 0.046278 -0.004124 0.000000 0.000000 0.000000
# 3 -0.004124 -0.004124 0.012299 0.000000 0.000000 0.000000
# 4 0.000000 0.000000 0.000000 -0.333601 0.000000 0.000000
# 5 0.000000 0.000000 0.000000 0.000000 -0.333601 0.000000
# 6 0.000000 0.000000 0.000000 0.000000 0.000000 0.035243
#
#
# Mechanical properties :
#
#
# Convention : Reuss Voigt Hill
#
# Bulk Modulus (GPa) = 40.99170 43.39758 42.19464
# Shear Modulus (GPa) = -11.40215 11.48782 0.04284
#
# Velocity S-wave (km/s) = -2.60035 2.61010 0.15939
# Velocity P-wave (km/s) = 3.91069 5.90080 5.00565
#
# Compressibility (1/GPa) = 0.02439518
#
# Stress axis : x y z
#
# Youngs Moduli (GPa) = 21.60864 21.60864 81.30710
#
# Poissons Ratio (x) = 0.69110 0.33528
# Poissons Ratio (y) = 0.69110 0.33528
# Poissons Ratio (z) = 0.08911 0.08911
#
# Static dielectric constant tensor:
#      x y z
#    x 1.583410 0.000000 0.000000 
#    y 0.000000 1.583410 0.000000 
#    z 0.000000 0.000000 1.627530 
# 
# From -- ./inp_files/6852.got.cif
#   From: 2010.05.17/outbox.cif.g08.bks.cpg/sg123_4_cif.got.tgz:6852.got - 2010.05.20 11:43:04.
