data_PCOD9562091
_publ_section_title
;
Structure prediction by ZEFSAII (Michael W. Deem and Ramdas Pophale) SiO2 
 PCOD9562091
Probable space group: P 4/M M M
;
_chemical_formula_sum "Si O2"
_cell_formula_units_Z 104
_cell_length_a 18.218703
_cell_length_b 18.218703
_cell_length_c 17.852229
_cell_angle_alpha 90.000000
_cell_angle_beta 90.000000
_cell_angle_gamma 90.000000
_cell_volume 5925.532183
_symmetry_space_group_name_H-M "P 4/M M M"
_symmetry_group_IT_number 123
_symmetry_cell_setting 'tetragonal'
loop_
_space_group_symop_operation_xyz
x,y,z
-y,x,z
-x,-y,z
y,-x,z
x,-y,-z
-x,y,-z
y,x,-z
-y,-x,-z
-x,-y,-z
y,-x,-z
x,y,-z
-y,x,-z
-x,y,z
x,-y,z
-y,-x,z
y,x,z
loop_
_atom_site_type_symbol
_atom_site_label
_atom_site_fract_x
_atom_site_fract_y
_atom_site_fract_z
Si Si1 0.208524 0.088832 0.500000
Si Si2 0.720775 0.086162 0.658777
Si Si3 0.581592 0.819144 0.691987
Si Si4 0.586503 0.711364 0.168130
Si Si5 0.793662 0.086584 0.185055
Si Si6 0.578772 0.692811 0.410887
Si Si7 0.308144 0.817360 0.915443
O O1 0.131459 0.131459 0.500000
O O2 0.250778 0.110554 0.423111
O O3 0.199924 0.000000 0.500000
O O4 0.647780 0.125334 0.688087
O O5 0.778829 0.095997 0.726058
O O6 0.706003 0.000000 0.651885
O O7 0.500000 0.850649 0.704544
O O8 0.592285 0.754298 0.752695
O O9 0.583156 0.776145 0.613697
O O10 0.500000 0.695369 0.154690
O O11 0.639824 0.639824 0.166253
O O12 0.620372 0.772726 0.112014
O O13 0.864907 0.135094 0.164571
O O14 0.724021 0.120991 0.140323
O O15 0.801520 0.000000 0.169415
O O16 0.579410 0.687926 0.500000
O O17 0.500000 0.663465 0.383579
O O18 0.644977 0.644977 0.380490
O O19 0.244619 0.755382 0.915768
O O20 0.317480 0.845260 0.000000
#
# Coordination Sequence:
#
# PCOD9562091 Si02
#       7
#     8  16  16  16  16  16  16
#     4  10  22  37  55  81 109 141 180 222 270 324
#     4  10  21  37  55  79 109 141 182 226 269 321
#     4  10  20  34  52  74 103 137 176 224 276 327
#     4  10  20  34  54  81 111 145 184 227 276 329
#     4  10  20  35  57  84 114 147 181 222 272 327
#     4   9  18  30  44  66  95 128 168 211 256 308
#     4   9  18  34  56  80 108 144 184 224 267 319
#
# _framework density 17.551165999999998
#
# number of rings (size 3 to 8) (size 9 to 14) (size 15 to 20)
#    0.000    2.308    1.538    0.923    1.077    3.308 
#    0.000    0.769    0.000    7.385    0.000    5.385 
#    0.000    0.000    0.000    0.000    0.000    0.000 
#
# Total GULP energy -578966.997985 kJ/mol
# GULP energy per Si atom -5566.990365 kJ/mol
# Density = 1.751122 g / cm^3
# Si number density = 17.551166 Si / 1000 Ang^3
#
#
#
# Elastic Constant Matrix: (Units=GPa)
#
#
# Indices 1 2 3 4 5 6 
#
# 1 78.5872 64.8927 30.4113 0.0000 0.0000 0.0000
# 2 64.8927 78.5872 30.4113 0.0000 0.0000 0.0000
# 3 30.4113 30.4113 84.3495 0.0000 0.0000 0.0000
# 4 0.0000 0.0000 0.0000 18.3084 0.0000 0.0000
# 5 0.0000 0.0000 0.0000 0.0000 18.3084 0.0000
# 6 0.0000 0.0000 0.0000 0.0000 0.0000 25.6374
#
#
#
# Elastic Compliance Matrix: (Units=1/GPa)
#
#
# Indices 1 2 3 4 5 6 
#
# 1 0.040624 -0.032397 -0.002966 0.000000 0.000000 0.000000
# 2 -0.032397 0.040624 -0.002966 0.000000 0.000000 0.000000
# 3 -0.002966 -0.002966 0.013994 0.000000 0.000000 0.000000
# 4 0.000000 0.000000 0.000000 0.054620 0.000000 0.000000
# 5 0.000000 0.000000 0.000000 0.000000 0.054620 0.000000
# 6 0.000000 0.000000 0.000000 0.000000 0.000000 0.039005
#
#
# Mechanical properties :
#
#
# Convention : Reuss Voigt Hill
#
# Bulk Modulus (GPa) = 53.81078 54.77274 54.29176
# Shear Modulus (GPa) = 15.32135 20.17141 17.74638
#
# Velocity S-wave (km/s) = 2.95778 3.39380 3.18326
# Velocity P-wave (km/s) = 6.51080 6.82879 6.67169
#
# Compressibility (1/GPa) = 0.01858364
#
# Stress axis : x y z
#
# Youngs Moduli (GPa) = 24.61576 24.61576 71.45776
#
# Poissons Ratio (x) = 0.79749 0.21196
# Poissons Ratio (y) = 0.79749 0.21196
# Poissons Ratio (z) = 0.07301 0.07301
#
# Static dielectric constant tensor:
#      x y z
#    x 1.611250 0.000000 0.000000 
#    y 0.000000 1.611250 0.000000 
#    z 0.000000 0.000000 1.647270 
# 
# From -- ./inp_files/5620.got.cif
#   From: 2010.05.17/outbox.cif.g08.bks.cpg/sg123_3_cif.got.tgz:5620.got - 2010.05.20 11:43:04.
