data_PCOD9562366
_publ_section_title
;
Structure prediction by ZEFSAII (Michael W. Deem and Ramdas Pophale) SiO2 
 PCOD9562366
Probable space group: P 4/M C C
;
_chemical_formula_sum "Si O2"
_cell_formula_units_Z 96
_cell_length_a 25.153057
_cell_length_b 25.153057
_cell_length_c 8.947919
_cell_angle_alpha 90.000000
_cell_angle_beta 90.000000
_cell_angle_gamma 90.000000
_cell_volume 5661.136075
_symmetry_space_group_name_H-M "P 4/M C C"
_symmetry_group_IT_number 124
_symmetry_cell_setting 'tetragonal'
loop_
_space_group_symop_operation_xyz
x,y,z
-y,x,z
-x,-y,z
y,-x,z
x,-y,1/2-z
-x,y,1/2-z
y,x,1/2-z
-y,-x,1/2-z
-x,-y,-z
y,-x,-z
x,y,-z
-y,x,-z
-x,y,1/2+z
x,-y,1/2+z
-y,-x,1/2+z
y,x,1/2+z
loop_
_atom_site_type_symbol
_atom_site_label
_atom_site_fract_x
_atom_site_fract_y
_atom_site_fract_z
Si Si1 0.334569 0.138506 0.828451
Si Si2 0.339685 0.266132 0.167815
Si Si3 0.221169 0.858514 0.819502
Si Si4 0.444498 0.134524 0.673439
Si Si5 0.058282 0.862061 0.181487
Si Si6 0.735836 0.553812 0.170996
O O1 0.339505 0.202504 0.833746
O O2 0.281627 0.130238 0.730686
O O3 0.390069 0.118259 0.757507
O O4 0.327944 0.119752 0.000000
O O5 0.288857 0.288857 0.250000
O O6 0.393327 0.283542 0.248822
O O7 0.339261 0.286002 0.000000
O O8 0.195807 0.804194 0.750000
O O9 0.184871 0.904357 0.745716
O O10 0.216370 0.857220 0.000000
O O11 0.500000 0.117273 0.750000
O O12 0.443062 0.118372 0.500000
O O13 0.445207 0.199302 0.676368
O O14 0.084808 0.915193 0.250000
O O15 0.000000 0.855751 0.250000
O O16 0.058641 0.862599 0.000000
O O17 0.718573 0.500000 0.250000
O O18 0.719926 0.553807 0.000000
#
# Coordination Sequence:
#
# PCOD9562366 Si02
#       6
#    16  16  16  16  16  16
#     4  10  19  30  44  64  91 126 164 202 242 289
#     4  10  19  28  39  56  80 109 143 180 220 264
#     4  11  21  34  51  73 101 135 171 209 252 301
#     4   9  16  26  40  59  84 117 156 199 242 287
#     4  11  22  39  60  84 111 141 175 213 256 301
#     4   9  16  26  39  53  72  99 133 171 215 264
#
# _framework density 16.957726999999998
#
# number of rings (size 3 to 8) (size 9 to 14) (size 15 to 20)
#    0.000    2.000    0.000    6.500    0.000    7.500 
#    0.000    0.833    0.000    0.000    0.000    0.000 
#    0.000    1.000    0.000   10.000    0.000    6.667 
#
# Total GULP energy -535206.214661 kJ/mol
# GULP energy per Si atom -5575.064736 kJ/mol
# Density = 1.691913 g / cm^3
# Si number density = 16.957727 Si / 1000 Ang^3
#
#
#
# Elastic Constant Matrix: (Units=GPa)
#
#
# Indices 1 2 3 4 5 6 
#
# 1 73.5853 17.1972 42.2250 0.0000 0.0000 0.0000
# 2 17.1972 73.5869 42.2254 0.0000 0.0000 0.0000
# 3 42.2250 42.2254 176.5977 0.0000 0.0000 0.0000
# 4 0.0000 0.0000 0.0000 17.7783 0.0000 0.0000
# 5 0.0000 0.0000 0.0000 0.0000 17.7790 0.0000
# 6 0.0000 0.0000 0.0000 0.0000 0.0000 5.6644
#
#
#
# Elastic Compliance Matrix: (Units=1/GPa)
#
#
# Indices 1 2 3 4 5 6 
#
# 1 0.015950 -0.001784 -0.003387 0.000000 0.000000 0.000000
# 2 -0.001784 0.015950 -0.003387 0.000000 0.000000 0.000000
# 3 -0.003387 -0.003387 0.007282 0.000000 0.000000 0.000000
# 4 0.000000 0.000000 0.000000 0.056248 0.000000 0.000000
# 5 0.000000 0.000000 0.000000 0.000000 0.056246 0.000000
# 6 0.000000 0.000000 0.000000 0.000000 0.000000 0.176542
#
#
# Mechanical properties :
#
#
# Convention : Reuss Voigt Hill
#
# Bulk Modulus (GPa) = 45.31875 58.56278 51.94077
# Shear Modulus (GPa) = 14.17671 23.05248 18.61459
#
# Velocity S-wave (km/s) = 2.89451 3.69102 3.31676
# Velocity P-wave (km/s) = 6.16064 7.26459 6.73527
#
# Compressibility (1/GPa) = 0.02206592
#
# Stress axis : x y z
#
# Youngs Moduli (GPa) = 62.69502 62.69635 137.31806
#
# Poissons Ratio (x) = 0.11185 0.46512
# Poissons Ratio (y) = 0.11184 0.46512
# Poissons Ratio (z) = 0.21236 0.21236
#
# Static dielectric constant tensor:
#      x y z
#    x 1.574540 0.000000 0.000000 
#    y 0.000000 1.574540 0.000000 
#    z 0.000000 0.000000 1.580160 
# 
# From -- ./inp_files/1332.got.cif
#   From: 2010.05.17/outbox.cif.g08.bks.cpg/sg124_1_cif.got.tgz:1332.got - 2010.05.20 11:49:17.
