data_PCOD9562880
_publ_section_title
;
Structure prediction by ZEFSAII (Michael W. Deem and Ramdas Pophale) SiO2 
 PCOD9562880
Probable space group: P 4/N B M
;
_chemical_formula_sum "Si O2"
_cell_formula_units_Z 96
_cell_length_a 14.839950
_cell_length_b 14.839950
_cell_length_c 24.628743
_cell_angle_alpha 90.000000
_cell_angle_beta 90.000000
_cell_angle_gamma 90.000000
_cell_volume 5423.843155
_symmetry_space_group_name_H-M "P 4/N B M"
_symmetry_group_IT_number 125
_space_group.IT_coordinate_system_code '2'
_symmetry_cell_setting 'tetragonal'
loop_
_space_group_symop_operation_xyz
x,y,z
1/2-y,x,z
1/2-x,1/2-y,z
y,1/2-x,z
x,1/2-y,-z
1/2-x,y,-z
y,x,-z
1/2-y,1/2-x,-z
-x,-y,-z
1/2+y,-x,-z
1/2+x,1/2+y,-z
-y,1/2+x,-z
-x,1/2+y,z
1/2+x,-y,z
-y,-x,z
1/2+y,1/2+x,z
loop_
_atom_site_type_symbol
_atom_site_label
_atom_site_fract_x
_atom_site_fract_y
_atom_site_fract_z
Si Si1 0.811452 0.888127 0.751069
Si Si2 0.794075 0.053449 0.558114
Si Si3 0.201977 0.951154 0.174157
Si Si4 0.827603 0.172398 0.242926
Si Si5 0.327263 0.827263 0.367249
Si Si6 0.111488 0.188169 0.627843
Si Si7 0.598258 0.246526 0.940189
O O1 0.705731 0.863851 0.756213
O O2 0.826458 0.922113 0.689541
O O3 0.833780 0.960481 0.796386
O O4 0.750000 0.035615 0.500000
O O5 0.868528 0.131473 0.552145
O O6 0.717816 0.091597 0.599346
O O7 0.835483 0.964380 0.584752
O O8 0.124448 0.875553 0.173843
O O9 0.283334 0.909878 0.210227
O O10 0.234642 0.961950 0.112248
O O11 0.750000 0.250000 0.244047
O O12 0.850653 0.149348 0.305150
O O13 0.250000 0.750000 0.364857
O O14 0.205837 0.136068 0.621735
O O15 0.675827 0.324174 0.941256
O O16 0.653533 0.153533 0.932890
O O17 0.555160 0.250000 0.000000
#
# Coordination Sequence:
#
# PCOD9562880 Si02
#       7
#    16  16  16   8   8  16  16
#     4   9  19  37  56  72  99 139 174 208 261 322
#     4  11  21  36  56  78 106 137 172 207 248 311
#     4  10  17  28  49  78 108 130 166 217 259 305
#     4   9  16  26  44  74 105 128 154 205 266 305
#     4   9  18  30  48  69 101 141 162 192 254 312
#     4   9  20  40  60  76  99 134 174 216 264 311
#     4   8  13  23  41  68 104 144 174 202 251 308
#
# _framework density 17.699625999999999
#
# number of rings (size 3 to 8) (size 9 to 14) (size 15 to 20)
#    0.000    2.667    1.667    2.500    0.000    2.667 
#    3.000    1.667    0.000    1.000    0.000    4.667 
#    0.000    0.000    0.000    0.000    0.000    0.000 
#
# Total GULP energy -535180.785187 kJ/mol
# GULP energy per Si atom -5574.799846 kJ/mol
# Density = 1.765934 g / cm^3
# Si number density = 17.699626 Si / 1000 Ang^3
#
#
#
# Elastic Constant Matrix: (Units=GPa)
#
#
# Indices 1 2 3 4 5 6 
#
# 1 30.9456 -15.7112 20.8266 0.0000 0.0000 0.0000
# 2 -15.7112 30.9456 20.8266 0.0000 0.0000 0.0000
# 3 20.8266 20.8266 137.8367 0.0000 0.0000 0.0000
# 4 0.0000 0.0000 0.0000 16.1973 0.0000 0.0000
# 5 0.0000 0.0000 0.0000 0.0000 16.1973 0.0000
# 6 0.0000 0.0000 0.0000 0.0000 0.0000 1.5198
#
#
#
# Elastic Compliance Matrix: (Units=1/GPa)
#
#
# Indices 1 2 3 4 5 6 
#
# 1 0.066640 0.045207 -0.016900 0.000000 0.000000 0.000000
# 2 0.045207 0.066640 -0.016900 0.000000 0.000000 0.000000
# 3 -0.016900 -0.016900 0.012362 0.000000 0.000000 0.000000
# 4 0.000000 0.000000 0.000000 0.061739 0.000000 0.000000
# 5 0.000000 0.000000 0.000000 0.000000 0.061739 0.000000
# 6 0.000000 0.000000 0.000000 0.000000 0.000000 0.657977
#
#
# Mechanical properties :
#
#
# Convention : Reuss Voigt Hill
#
# Bulk Modulus (GPa) = 5.93620 27.95689 16.94655
# Shear Modulus (GPa) = 5.20598 18.36861 11.78730
#
# Velocity S-wave (km/s) = 1.71688 3.22498 2.58343
# Velocity P-wave (km/s) = 2.70026 5.44948 4.30048
#
# Compressibility (1/GPa) = 0.16845788
#
# Stress axis : x y z
#
# Youngs Moduli (GPa) = 15.00594 15.00594 80.89346
#
# Poissons Ratio (x) = -0.67838 1.36708
# Poissons Ratio (y) = -0.67838 1.36708
# Poissons Ratio (z) = 0.25360 0.25360
#
# Static dielectric constant tensor:
#      x y z
#    x 1.596260 0.000000 0.000000 
#    y 0.000000 1.596260 0.000000 
#    z 0.000000 0.000000 1.615440 
# 
# From -- ./inp_files/6198.got.cif
#   From: 2010.05.17/outbox.cif.g08.bks.cpg/sg125_4_cif.got.tgz:6198.got - 2010.05.20 11:54:10.
