data_PCOD9562496
_publ_section_title
;
Structure prediction by ZEFSAII (Michael W. Deem and Ramdas Pophale) SiO2 
 PCOD9562496
Probable space group: P 4/M C C
;
_chemical_formula_sum "Si O2"
_cell_formula_units_Z 88
_cell_length_a 16.791337
_cell_length_b 16.791337
_cell_length_c 18.615807
_cell_angle_alpha 90.000000
_cell_angle_beta 90.000000
_cell_angle_gamma 90.000000
_cell_volume 5248.708135
_symmetry_space_group_name_H-M "P 4/M C C"
_symmetry_group_IT_number 124
_symmetry_cell_setting 'tetragonal'
loop_
_space_group_symop_operation_xyz
x,y,z
-y,x,z
-x,-y,z
y,-x,z
x,-y,1/2-z
-x,y,1/2-z
y,x,1/2-z
-y,-x,1/2-z
-x,-y,-z
y,-x,-z
x,y,-z
-y,x,-z
-x,y,1/2+z
x,-y,1/2+z
-y,-x,1/2+z
y,x,1/2+z
loop_
_atom_site_type_symbol
_atom_site_label
_atom_site_fract_x
_atom_site_fract_y
_atom_site_fract_z
Si Si1 0.069723 0.557433 0.082784
Si Si2 0.633195 0.765742 0.248213
Si Si3 0.237656 0.504498 0.628617
Si Si4 0.070560 0.299610 0.692892
Si Si5 0.364990 0.492889 0.000000
Si Si6 0.876722 0.976778 0.835149
O O1 0.153953 0.513060 0.090048
O O2 0.069044 0.635428 0.130732
O O3 0.000000 0.500000 0.109550
O O4 0.054507 0.576798 0.000000
O O5 0.691932 0.691932 0.250000
O O6 0.582782 0.770093 0.321780
O O7 0.569153 0.753044 0.184245
O O8 0.684618 0.845419 0.232766
O O9 0.308289 0.509161 0.570438
O O10 0.055379 0.212475 0.659109
O O11 0.000000 0.313041 0.750000
O O12 0.426967 0.418973 0.000000
O O13 0.938610 0.910113 0.863586
O O14 0.882465 0.000000 0.750000
#
# Coordination Sequence:
#
# PCOD9562496 Si02
#       6
#    16  16  16  16   8  16
#     4  10  20  36  56  75 105 146 179 214 271 318
#     4  10  21  33  53  81 108 140 170 220 279 314
#     4  10  20  38  54  75 110 138 175 220 269 325
#     4  10  20  31  53  82 109 136 181 224 256 321
#     4  11  22  36  59  80  98 138 185 220 260 325
#     4   8  15  28  48  75 108 144 175 215 261 303
#
# _framework density 16.766030000000001
#
# number of rings (size 3 to 8) (size 9 to 14) (size 15 to 20)
#    0.000    2.273    0.909    2.727    5.091    1.818 
#    0.000    0.000    0.000    5.455    0.000    1.273 
#    0.000    0.000    0.000    0.000    0.000    0.000 
#
# Total GULP energy -489997.384429 kJ/mol
# GULP energy per Si atom -5568.152096 kJ/mol
# Density = 1.672787 g / cm^3
# Si number density = 16.766030 Si / 1000 Ang^3
#
#
#
# Elastic Constant Matrix: (Units=GPa)
#
#
# Indices 1 2 3 4 5 6 
#
# 1 121.5849 82.6647 34.2161 0.0000 0.0000 0.0000
# 2 82.6647 121.5849 34.2161 0.0000 0.0000 0.0000
# 3 34.2161 34.2161 51.8676 0.0000 0.0000 0.0000
# 4 0.0000 0.0000 0.0000 30.1770 0.0000 0.0000
# 5 0.0000 0.0000 0.0000 0.0000 30.1770 0.0000
# 6 0.0000 0.0000 0.0000 0.0000 0.0000 29.1603
#
#
#
# Elastic Compliance Matrix: (Units=1/GPa)
#
#
# Indices 1 2 3 4 5 6 
#
# 1 0.015989 -0.009704 -0.004146 0.000000 0.000000 0.000000
# 2 -0.009704 0.015989 -0.004146 0.000000 0.000000 0.000000
# 3 -0.004146 -0.004146 0.024750 0.000000 0.000000 0.000000
# 4 0.000000 0.000000 0.000000 0.033138 0.000000 0.000000
# 5 0.000000 0.000000 0.000000 0.000000 0.033138 0.000000
# 6 0.000000 0.000000 0.000000 0.000000 0.000000 0.034293
#
#
# Mechanical properties :
#
#
# Convention : Reuss Voigt Hill
#
# Bulk Modulus (GPa) = 48.22599 66.35901 57.29250
# Shear Modulus (GPa) = 24.97467 27.49889 26.23678
#
# Velocity S-wave (km/s) = 3.86372 4.05428 3.96014
# Velocity P-wave (km/s) = 6.98076 7.84739 7.42673
#
# Compressibility (1/GPa) = 0.02073571
#
# Stress axis : x y z
#
# Youngs Moduli (GPa) = 62.54155 62.54155 40.40377
#
# Poissons Ratio (x) = 0.60692 0.16752
# Poissons Ratio (y) = 0.60692 0.16752
# Poissons Ratio (z) = 0.25931 0.25931
#
# Static dielectric constant tensor:
#      x y z
#    x 1.569630 0.000000 0.000000 
#    y 0.000000 1.569630 0.000000 
#    z 0.000000 0.000000 1.556670 
# 
# From -- ./inp_files/5219.got.cif
#   From: 2010.05.17/outbox.cif.g08.bks.cpg/sg124_3_cif.got.tgz:5219.got - 2010.05.20 11:49:17.
