data_PCOD9562403
_publ_section_title
;
Structure prediction by ZEFSAII (Michael W. Deem and Ramdas Pophale) SiO2 
 PCOD9562403
Probable space group: P 4/M C C
;
_chemical_formula_sum "Si O2"
_cell_formula_units_Z 96
_cell_length_a 26.129364
_cell_length_b 26.129364
_cell_length_c 8.728075
_cell_angle_alpha 90.000000
_cell_angle_beta 90.000000
_cell_angle_gamma 90.000000
_cell_volume 5959.037897
_symmetry_space_group_name_H-M "P 4/M C C"
_symmetry_group_IT_number 124
_symmetry_cell_setting 'tetragonal'
loop_
_space_group_symop_operation_xyz
x,y,z
-y,x,z
-x,-y,z
y,-x,z
x,-y,1/2-z
-x,y,1/2-z
y,x,1/2-z
-y,-x,1/2-z
-x,-y,-z
y,-x,-z
x,y,-z
-y,x,-z
-x,y,1/2+z
x,-y,1/2+z
-y,-x,1/2+z
y,x,1/2+z
loop_
_atom_site_type_symbol
_atom_site_label
_atom_site_fract_x
_atom_site_fract_y
_atom_site_fract_z
Si Si1 0.449769 0.869220 0.819624
Si Si2 0.053041 0.378655 0.676224
Si Si3 0.756397 0.553090 0.317457
Si Si4 0.168998 0.749823 0.813753
Si Si5 0.251352 0.668213 0.814928
Si Si6 0.946241 0.744599 0.675856
O O1 0.500000 0.896399 0.750000
O O2 0.400637 0.901961 0.778570
O O3 0.446629 0.815794 0.730801
O O4 0.455269 0.860755 0.000000
O O5 0.058754 0.395529 0.500000
O O6 0.053012 0.317261 0.676729
O O7 0.000000 0.396315 0.750000
O O8 0.734120 0.500000 0.250000
O O9 0.751541 0.550655 0.500000
O O10 0.739332 0.609679 0.263947
O O11 0.205817 0.794184 0.750000
O O12 0.197230 0.695846 0.771653
O O13 0.110390 0.756837 0.758768
O O14 0.168167 0.751232 0.000000
O O15 0.294973 0.705028 0.750000
O O16 0.252704 0.668266 0.000000
O O17 0.946924 0.762129 0.500000
O O18 0.000000 0.761756 0.750000
#
# Coordination Sequence:
#
# PCOD9562403 Si02
#       6
#    16  16  16  16  16  16
#     4  11  21  32  45  61  80 108 145 185 227 270
#     4  10  19  32  46  61  81 107 141 183 227 270
#     4  10  19  32  48  67  91 120 151 187 227 270
#     4   9  17  30  46  67  93 122 152 187 227 269
#     4   9  18  31  48  69  95 124 155 190 232 274
#     4   9  18  31  47  65  89 117 147 182 222 265
#
# _framework density 16.109984000000001
#
# number of rings (size 3 to 8) (size 9 to 14) (size 15 to 20)
#    0.000    2.333    0.000    4.500    0.000    5.667 
#    0.000    5.000    0.000    0.000    0.000    0.000 
#    0.000    0.667    0.000    7.333    0.000    5.333 
#
# Total GULP energy -534553.495328 kJ/mol
# GULP energy per Si atom -5568.265576 kJ/mol
# Density = 1.607332 g / cm^3
# Si number density = 16.109984 Si / 1000 Ang^3
#
#
#
# Elastic Constant Matrix: (Units=GPa)
#
#
# Indices 1 2 3 4 5 6 
#
# 1 86.9848 24.5401 14.1852 0.0000 0.0000 0.0000
# 2 24.5401 86.9842 14.1842 0.0000 0.0000 0.0000
# 3 14.1852 14.1842 24.4839 0.0000 0.0000 0.0000
# 4 0.0000 0.0000 0.0000 22.3424 0.0000 0.0000
# 5 0.0000 0.0000 0.0000 0.0000 22.3416 0.0000
# 6 0.0000 0.0000 0.0000 0.0000 0.0000 -43.9914
#
#
#
# Elastic Compliance Matrix: (Units=1/GPa)
#
#
# Indices 1 2 3 4 5 6 
#
# 1 0.013265 -0.002749 -0.006093 0.000000 0.000000 0.000000
# 2 -0.002749 0.013265 -0.006092 0.000000 0.000000 0.000000
# 3 -0.006093 -0.006092 0.047903 0.000000 0.000000 0.000000
# 4 0.000000 0.000000 0.000000 0.044758 0.000000 0.000000
# 5 0.000000 0.000000 0.000000 0.000000 0.044760 0.000000
# 6 0.000000 0.000000 0.000000 0.000000 0.000000 -0.022732
#
#
# Mechanical properties :
#
#
# Convention : Reuss Voigt Hill
#
# Bulk Modulus (GPa) = 22.43920 33.80799 28.12360
# Shear Modulus (GPa) = 26.88996 9.84139 18.36568
#
# Velocity S-wave (km/s) = 4.08995 2.47430 3.38008
# Velocity P-wave (km/s) = 6.02185 5.40316 5.72087
#
# Compressibility (1/GPa) = 0.04456487
#
# Stress axis : x y z
#
# Youngs Moduli (GPa) = 75.38397 75.38451 20.87562
#
# Poissons Ratio (x) = 0.20722 0.12720
# Poissons Ratio (y) = 0.20722 0.12718
# Poissons Ratio (z) = 0.45932 0.45927
#
# Static dielectric constant tensor:
#      x y z
#    x 1.572880 0.000000 0.000000 
#    y 0.000000 1.572880 0.000000 
#    z 0.000000 0.000000 1.552660 
# 
# From -- ./inp_files/1365.got.cif
#   From: 2010.05.17/outbox.cif.g08.bks.cpg/sg124_1_cif.got.tgz:1365.got - 2010.05.20 11:49:17.
