data_PCOD9562902
_publ_section_title
;
Structure prediction by ZEFSAII (Michael W. Deem and Ramdas Pophale) SiO2 
 PCOD9562902
Probable space group: P 4/N B M
;
_chemical_formula_sum "Si O2"
_cell_formula_units_Z 128
_cell_length_a 22.651917
_cell_length_b 22.651917
_cell_length_c 12.074016
_cell_angle_alpha 90.000000
_cell_angle_beta 90.000000
_cell_angle_gamma 90.000000
_cell_volume 6195.290426
_symmetry_space_group_name_H-M "P 4/N B M"
_symmetry_group_IT_number 125
_space_group.IT_coordinate_system_code '2'
_symmetry_cell_setting 'tetragonal'
loop_
_space_group_symop_operation_xyz
x,y,z
1/2-y,x,z
1/2-x,1/2-y,z
y,1/2-x,z
x,1/2-y,-z
1/2-x,y,-z
y,x,-z
1/2-y,1/2-x,-z
-x,-y,-z
1/2+y,-x,-z
1/2+x,1/2+y,-z
-y,1/2+x,-z
-x,1/2+y,z
1/2+x,-y,z
-y,-x,z
1/2+y,1/2+x,z
loop_
_atom_site_type_symbol
_atom_site_label
_atom_site_fract_x
_atom_site_fract_y
_atom_site_fract_z
Si Si1 0.476280 0.619251 0.151776
Si Si2 0.011996 0.192445 0.062932
Si Si3 0.933326 0.799014 0.407702
Si Si4 0.188204 0.599335 0.660784
Si Si5 0.122643 0.973043 0.522995
Si Si6 0.665201 0.800202 0.762292
Si Si7 0.104272 0.104653 0.874201
Si Si8 0.471621 0.712139 0.709511
O O1 0.440378 0.559623 0.133225
O O2 0.439760 0.656657 0.241676
O O3 0.542989 0.604012 0.191265
O O4 0.484383 0.654138 0.036321
O O5 0.059301 0.157636 0.140429
O O6 0.966985 0.210097 0.158598
O O7 0.036342 0.250000 0.000000
O O8 0.918363 0.750000 0.500000
O O9 0.874806 0.817209 0.342496
O O10 0.966675 0.855815 0.460618
O O11 0.976930 0.759258 0.328298
O O12 0.164931 0.664931 0.674486
O O13 0.162321 0.572658 0.547725
O O14 0.256717 0.587400 0.665932
O O15 0.056968 0.943033 0.521337
O O16 0.150400 0.978819 0.645510
O O17 0.672541 0.730274 0.762514
O O18 0.630173 0.829749 0.863480
O O19 0.089072 0.089072 0.000000
#
# Coordination Sequence:
#
# PCOD9562902 Si02
#       8
#    16  16  16  16  16  16  16  16
#     4  10  21  38  59  86 116 155 208 260 308 367
#     4  11  22  35  56  83 117 161 202 249 304 378
#     4   9  19  36  59  83 114 160 204 249 308 369
#     4   9  16  30  55  82 115 153 197 242 290 360
#     4   9  18  32  57  91 117 149 193 247 304 362
#     4  11  24  38  55  83 119 156 207 265 309 367
#     4  10  23  35  57  80 111 158 197 261 316 368
#     4  10  18  33  56  82 119 153 196 247 299 369
#
# _framework density 20.660854
#
# number of rings (size 3 to 8) (size 9 to 14) (size 15 to 20)
#    0.000    2.125    1.250    3.375    5.250    3.250 
#    0.000    1.250    0.000    2.625    0.000   24.500 
#    0.000    0.250    0.000    0.000    0.000    0.250 
#
# Total GULP energy -712540.585851 kJ/mol
# GULP energy per Si atom -5566.723327 kJ/mol
# Density = 2.061383 g / cm^3
# Si number density = 20.660854 Si / 1000 Ang^3
#
#
#
# Elastic Constant Matrix: (Units=GPa)
#
#
# Indices 1 2 3 4 5 6 
#
# 1 61.4584 32.5835 3.9085 0.0000 0.0000 0.0000
# 2 32.5835 61.4584 3.9085 0.0000 0.0000 0.0000
# 3 3.9085 3.9085 74.8848 0.0000 0.0000 0.0000
# 4 0.0000 0.0000 0.0000 16.8565 0.0000 0.0000
# 5 0.0000 0.0000 0.0000 0.0000 16.8565 0.0000
# 6 0.0000 0.0000 0.0000 0.0000 0.0000 23.8770
#
#
#
# Elastic Compliance Matrix: (Units=1/GPa)
#
#
# Indices 1 2 3 4 5 6 
#
# 1 0.022656 -0.011976 -0.000557 0.000000 0.000000 0.000000
# 2 -0.011976 0.022656 -0.000557 0.000000 0.000000 0.000000
# 3 -0.000557 -0.000557 0.013412 0.000000 0.000000 0.000000
# 4 0.000000 0.000000 0.000000 0.059324 0.000000 0.000000
# 5 0.000000 0.000000 0.000000 0.000000 0.059324 0.000000
# 6 0.000000 0.000000 0.000000 0.000000 0.000000 0.041881
#
#
# Mechanical properties :
#
#
# Convention : Reuss Voigt Hill
#
# Bulk Modulus (GPa) = 30.72939 30.95584 30.84262
# Shear Modulus (GPa) = 19.50965 22.01140 20.76053
#
# Velocity S-wave (km/s) = 3.07625 3.26754 3.17334
# Velocity P-wave (km/s) = 5.24626 5.40843 5.32796
#
# Compressibility (1/GPa) = 0.03254214
#
# Stress axis : x y z
#
# Youngs Moduli (GPa) = 44.13839 44.13839 74.55990
#
# Poissons Ratio (x) = 0.52861 0.04156
# Poissons Ratio (y) = 0.52861 0.04156
# Poissons Ratio (z) = 0.02460 0.02460
#
# Static dielectric constant tensor:
#      x y z
#    x 1.820980 0.000000 0.000000 
#    y 0.000000 1.820980 0.000000 
#    z 0.000000 0.000000 1.786640 
# 
# From -- ./inp_files/4401.got.cif
#   From: 2010.05.17/outbox.cif.g08.bks.cpg/sg125_3_cif.got.tgz:4401.got - 2010.05.20 11:54:10.
