data_PCOD9562530
_publ_section_title
;
Structure prediction by ZEFSAII (Michael W. Deem and Ramdas Pophale) SiO2 
 PCOD9562530
Probable space group: P 4/M C C
;
_chemical_formula_sum "Si O2"
_cell_formula_units_Z 128
_cell_length_a 18.256400
_cell_length_b 18.256400
_cell_length_c 25.264477
_cell_angle_alpha 90.000000
_cell_angle_beta 90.000000
_cell_angle_gamma 90.000000
_cell_volume 8420.552687
_symmetry_space_group_name_H-M "P 4/M C C"
_symmetry_group_IT_number 124
_symmetry_cell_setting 'tetragonal'
loop_
_space_group_symop_operation_xyz
x,y,z
-y,x,z
-x,-y,z
y,-x,z
x,-y,1/2-z
-x,y,1/2-z
y,x,1/2-z
-y,-x,1/2-z
-x,-y,-z
y,-x,-z
x,y,-z
-y,x,-z
-x,y,1/2+z
x,-y,1/2+z
-y,-x,1/2+z
y,x,1/2+z
loop_
_atom_site_type_symbol
_atom_site_label
_atom_site_fract_x
_atom_site_fract_y
_atom_site_fract_z
Si Si1 0.796786 0.203215 0.185629
Si Si2 0.369647 0.190831 0.654155
Si Si3 0.414626 0.703782 0.750000
Si Si4 0.630352 0.809169 0.845845
Si Si5 0.916659 0.916659 0.314240
Si Si6 0.414626 0.705681 0.937174
Si Si7 0.500000 0.086933 0.686560
Si Si8 0.414627 0.705681 0.437174
O O1 0.792199 0.207802 0.250000
O O2 0.716730 0.179576 0.164237
O O3 0.820425 0.283271 0.164237
O O4 0.857008 0.142993 0.170097
O O5 0.392335 0.249991 0.698589
O O6 0.384071 0.227863 0.597641
O O7 0.426400 0.124284 0.663297
O O8 0.500000 0.692241 0.750000
O O9 0.370587 0.629414 0.750000
O O10 0.392335 0.750009 0.698589
O O11 0.573599 0.875716 0.836703
O O12 0.615929 0.772137 0.902359
O O13 0.916928 0.916928 0.250000
O O14 0.000000 0.899296 0.331035
O O15 0.500000 0.694232 0.924030
O O16 0.365609 0.634391 0.925397
O O17 0.409265 0.720042 0.000000
O O18 0.500000 0.100940 0.750000
O O19 0.500000 0.000000 0.677995
O O20 0.409266 0.720043 0.500000
#
# Coordination Sequence:
#
# PCOD9562530 Si02
#       8
#    16  16  16  16  16  16  16  16
#     4  11  19  28  52  77  97 133 180 215 252 309
#     4  12  18  34  50  71 103 135 170 213 256 305
#     4  12  20  31  50  70  96 136 170 208 254 302
#     4  12  18  34  50  71 103 135 170 213 256 305
#     4   8  16  31  48  71 107 140 161 196 256 316
#     4  10  20  33  52  75  99 134 176 217 263 306
#     4  11  22  34  51  75 105 140 174 211 257 310
#     4  10  20  33  52  75  99 134 176 217 263 306
#
# _framework density 15.200901999999999
#
# number of rings (size 3 to 8) (size 9 to 14) (size 15 to 20)
#    0.000    1.250    7.500    0.375    0.000    1.375 
#    0.000    3.750    0.000    4.500    0.000    0.000 
#    0.000    1.000    0.000    5.500    0.000    0.500 
#
# Total GULP energy -713892.288838 kJ/mol
# GULP energy per Si atom -5577.283507 kJ/mol
# Density = 1.516630 g / cm^3
# Si number density = 15.200902 Si / 1000 Ang^3
#
#
#
# Elastic Constant Matrix: (Units=GPa)
#
#
# Indices 1 2 3 4 5 6 
#
# 1 139.1240 87.1162 30.7906 0.0000 0.0000 0.0000
# 2 87.1162 139.1246 30.7907 0.0000 0.0000 0.0000
# 3 30.7906 30.7907 37.2726 0.0000 0.0000 0.0000
# 4 0.0000 0.0000 0.0000 10.7816 0.0000 0.0000
# 5 0.0000 0.0000 0.0000 0.0000 10.7877 0.0000
# 6 0.0000 0.0000 0.0000 0.0000 0.0000 33.4683
#
#
#
# Elastic Compliance Matrix: (Units=1/GPa)
#
#
# Indices 1 2 3 4 5 6 
#
# 1 0.012465 -0.006763 -0.004711 0.000000 0.000000 0.000000
# 2 -0.006763 0.012465 -0.004711 0.000000 0.000000 0.000000
# 3 -0.004711 -0.004711 0.034612 0.000000 0.000000 0.000000
# 4 0.000000 0.000000 0.000000 0.092751 0.000000 0.000000
# 5 0.000000 0.000000 0.000000 0.000000 0.092698 0.000000
# 6 0.000000 0.000000 0.000000 0.000000 0.000000 0.029879
#
#
# Mechanical properties :
#
#
# Convention : Reuss Voigt Hill
#
# Bulk Modulus (GPa) = 36.79948 68.10182 52.45065
# Shear Modulus (GPa) = 15.80793 22.12908 18.96851
#
# Velocity S-wave (km/s) = 3.22830 3.81960 3.53633
# Velocity P-wave (km/s) = 6.17715 8.02190 7.15919
#
# Compressibility (1/GPa) = 0.02717429
#
# Stress axis : x y z
#
# Youngs Moduli (GPa) = 80.22434 80.22465 28.89151
#
# Poissons Ratio (x) = 0.54254 0.13610
# Poissons Ratio (y) = 0.54254 0.13610
# Poissons Ratio (z) = 0.37791 0.37791
#
# Static dielectric constant tensor:
#      x y z
#    x 1.501430 0.000000 0.000000 
#    y 0.000000 1.501440 0.000000 
#    z 0.000000 0.000000 1.498870 
# 
# From -- ./inp_files/6275.got.cif
#   From: 2010.05.17/outbox.cif.g08.bks.cpg/sg124_4_cif.got.tgz:6275.got - 2010.05.20 11:49:17.
