data_PCOD9562176
_publ_section_title
;
Structure prediction by ZEFSAII (Michael W. Deem and Ramdas Pophale) SiO2 
 PCOD9562176
Probable space group: P 4/M M M
;
_chemical_formula_sum "Si O2"
_cell_formula_units_Z 88
_cell_length_a 13.736786
_cell_length_b 13.736786
_cell_length_c 29.169565
_cell_angle_alpha 90.000000
_cell_angle_beta 90.000000
_cell_angle_gamma 90.000000
_cell_volume 5504.276194
_symmetry_space_group_name_H-M "P 4/M M M"
_symmetry_group_IT_number 123
_symmetry_cell_setting 'tetragonal'
loop_
_space_group_symop_operation_xyz
x,y,z
-y,x,z
-x,-y,z
y,-x,z
x,-y,-z
-x,y,-z
y,x,-z
-y,-x,-z
-x,-y,-z
y,-x,-z
x,y,-z
-y,x,-z
-x,y,z
x,-y,z
-y,-x,z
y,x,z
loop_
_atom_site_type_symbol
_atom_site_label
_atom_site_fract_x
_atom_site_fract_y
_atom_site_fract_z
Si Si1 0.616258 0.778815 0.415166
Si Si2 0.114588 0.271344 0.229294
Si Si3 0.884379 0.272870 0.949246
Si Si4 0.883969 0.277596 0.333918
Si Si5 0.389939 0.118672 0.140565
Si Si6 0.883025 0.720854 0.500000
O O1 0.500000 0.766547 0.419120
O O2 0.677241 0.677241 0.416433
O O3 0.646773 0.835110 0.368746
O O4 0.660262 0.844849 0.456112
O O5 0.170148 0.170148 0.226032
O O6 0.130465 0.309596 0.280963
O O7 0.149187 0.338149 0.187536
O O8 0.000000 0.256979 0.223988
O O9 0.829039 0.170962 0.946962
O O10 0.851697 0.335895 0.905920
O O11 0.000000 0.259911 0.945985
O O12 0.863844 0.315949 0.000000
O O13 0.823751 0.176250 0.339870
O O14 0.000000 0.266299 0.341925
O O15 0.500000 0.153036 0.139912
O O16 0.390722 0.000000 0.140677
O O17 0.823425 0.823425 0.500000
O O18 0.000000 0.732148 0.500000
#
# Coordination Sequence:
#
# PCOD9562176 Si02
#       6
#    16  16  16  16  16   8
#     4  10  21  36  53  74  99 127 163 206 248 290
#     4   9  17  29  45  66  93 122 151 184 221 264
#     4   9  17  28  42  61  85 112 141 174 213 260
#     4   9  18  31  47  70  98 127 160 195 232 279
#     4   9  17  28  41  58  82 113 148 183 217 254
#     4  10  21  36  54  78 106 134 165 198 234 282
#
# _framework density 15.987569000000001
#
# number of rings (size 3 to 8) (size 9 to 14) (size 15 to 20)
#    0.000    2.727    0.000    1.364    0.000    3.727 
#    0.000    6.364    0.000    8.182    0.000    0.000 
#    0.000    5.818    0.000    8.000    0.000    0.727 
#
# Total GULP energy -489890.679608 kJ/mol
# GULP energy per Si atom -5566.939541 kJ/mol
# Density = 1.595118 g / cm^3
# Si number density = 15.987569 Si / 1000 Ang^3
#
#
#
# Elastic Constant Matrix: (Units=GPa)
#
#
# Indices 1 2 3 4 5 6 
#
# 1 86.6040 50.0970 61.3309 0.0000 0.0000 0.0000
# 2 50.0970 86.6040 61.3309 0.0000 0.0000 0.0000
# 3 61.3309 61.3309 136.2714 0.0000 0.0000 0.0000
# 4 0.0000 0.0000 0.0000 15.6493 0.0000 0.0000
# 5 0.0000 0.0000 0.0000 0.0000 15.6493 0.0000
# 6 0.0000 0.0000 0.0000 0.0000 0.0000 3.2218
#
#
#
# Elastic Compliance Matrix: (Units=1/GPa)
#
#
# Indices 1 2 3 4 5 6 
#
# 1 0.019831 -0.007561 -0.005523 0.000000 0.000000 0.000000
# 2 -0.007561 0.019831 -0.005523 0.000000 0.000000 0.000000
# 3 -0.005523 -0.005523 0.012309 0.000000 0.000000 0.000000
# 4 0.000000 0.000000 0.000000 0.063901 0.000000 0.000000
# 5 0.000000 0.000000 0.000000 0.000000 0.063901 0.000000
# 6 0.000000 0.000000 0.000000 0.000000 0.000000 0.310386
#
#
# Mechanical properties :
#
#
# Convention : Reuss Voigt Hill
#
# Bulk Modulus (GPa) = 67.74928 72.77744 70.26336
# Shear Modulus (GPa) = 9.39335 16.01879 12.70607
#
# Velocity S-wave (km/s) = 2.42655 3.16880 2.82218
# Velocity P-wave (km/s) = 7.09360 7.68170 7.39350
#
# Compressibility (1/GPa) = 0.01476030
#
# Stress axis : x y z
#
# Youngs Moduli (GPa) = 50.42530 50.42530 81.23923
#
# Poissons Ratio (x) = 0.38125 0.44865
# Poissons Ratio (y) = 0.38125 0.44865
# Poissons Ratio (z) = 0.27848 0.27848
#
# Static dielectric constant tensor:
#      x y z
#    x 1.511260 0.000000 0.000000 
#    y 0.000000 1.511260 0.000000 
#    z 0.000000 0.000000 1.581220 
# 
# From -- ./inp_files/8473.got.cif
#   From: 2010.05.17/outbox.cif.g08.bks.cpg/sg123_5_cif.got.tgz:8473.got - 2010.05.20 11:43:04.
