data_PCOD9562424
_publ_section_title
;
Structure prediction by ZEFSAII (Michael W. Deem and Ramdas Pophale) SiO2 
 PCOD9562424
Probable space group: P 4/M C C
;
_chemical_formula_sum "Si O2"
_cell_formula_units_Z 120
_cell_length_a 20.593655
_cell_length_b 20.593655
_cell_length_c 15.985849
_cell_angle_alpha 90.000000
_cell_angle_beta 90.000000
_cell_angle_gamma 90.000000
_cell_volume 6779.576600
_symmetry_space_group_name_H-M "P 4/M C C"
_symmetry_group_IT_number 124
_symmetry_cell_setting 'tetragonal'
loop_
_space_group_symop_operation_xyz
x,y,z
-y,x,z
-x,-y,z
y,-x,z
x,-y,1/2-z
-x,y,1/2-z
y,x,1/2-z
-y,-x,1/2-z
-x,-y,-z
y,-x,-z
x,y,-z
-y,x,-z
-x,y,1/2+z
x,-y,1/2+z
-y,-x,1/2+z
y,x,1/2+z
loop_
_atom_site_type_symbol
_atom_site_label
_atom_site_fract_x
_atom_site_fract_y
_atom_site_fract_z
Si Si1 0.622175 0.200786 0.597033
Si Si2 0.000000 0.107510 0.750000
Si Si3 0.315023 0.535302 0.902918
Si Si4 0.255756 0.700306 0.596407
Si Si5 0.351494 0.398480 0.159658
Si Si6 0.190911 0.169014 0.345396
Si Si7 0.200848 0.978813 0.901360
Si Si8 0.716594 0.095996 0.598608
O O1 0.604253 0.187618 0.500000
O O2 0.564258 0.246322 0.631283
O O3 0.682999 0.250464 0.595412
O O4 0.654715 0.135646 0.635657
O O5 0.996756 0.148514 0.834644
O O6 0.937913 0.062088 0.750000
O O7 0.367248 0.593716 0.900009
O O8 0.342331 0.474541 0.852387
O O9 0.306084 0.515983 0.000000
O O10 0.235408 0.690806 0.500000
O O11 0.283264 0.635545 0.637403
O O12 0.201878 0.738242 0.648383
O O13 0.375657 0.375657 0.250000
O O14 0.167495 0.167495 0.250000
O O15 0.199561 0.098472 0.385991
O O16 0.140055 0.218530 0.388611
O O17 0.264442 0.022223 0.878099
O O18 0.187363 0.991023 0.000000
O O19 0.704179 0.094904 0.500000
#
# Coordination Sequence:
#
# PCOD9562424 Si02
#       8
#    16   8  16  16  16  16  16  16
#     4   7  13  27  47  67  87 117 162 210 246 286
#     4  11  24  38  48  64  96 134 173 214 254 312
#     4  10  19  33  51  70  97 137 177 208 244 298
#     4   9  17  32  51  71  97 130 170 210 254 310
#     4  11  21  33  49  75 106 135 169 214 259 299
#     4  11  20  31  49  73 101 132 166 214 267 313
#     4  11  21  33  51  73  98 131 171 216 269 322
#     4   9  17  30  47  67  92 124 166 214 259 308
#
# _framework density 17.700220000000002
#
# number of rings (size 3 to 8) (size 9 to 14) (size 15 to 20)
#    0.000    2.200    0.000    6.800    0.000    1.867 
#    0.000    2.000    0.000    0.000    0.000    0.933 
#    0.000    5.333    0.000   11.467    0.000   33.867 
#
# Total GULP energy -668032.857366 kJ/mol
# GULP energy per Si atom -5566.940478 kJ/mol
# Density = 1.765993 g / cm^3
# Si number density = 17.700220 Si / 1000 Ang^3
#
#
#
# Elastic Constant Matrix: (Units=GPa)
#
#
# Indices 1 2 3 4 5 6 
#
# 1 53.0615 57.3102 23.3645 0.0000 0.0000 0.0000
# 2 57.3102 53.0637 23.3646 0.0000 0.0000 0.0000
# 3 23.3645 23.3646 63.5551 0.0000 0.0000 0.0000
# 4 0.0000 0.0000 0.0000 8.8512 0.0000 0.0000
# 5 0.0000 0.0000 0.0000 0.0000 8.8511 0.0000
# 6 0.0000 0.0000 0.0000 0.0000 0.0000 18.5544
#
#
#
# Elastic Compliance Matrix: (Units=1/GPa)
#
#
# Indices 1 2 3 4 5 6 
#
# 1 -0.112352 0.123080 -0.003944 0.000000 0.000000 0.000000
# 2 0.123080 -0.112347 -0.003946 0.000000 0.000000 0.000000
# 3 -0.003944 -0.003946 0.018635 0.000000 0.000000 0.000000
# 4 0.000000 0.000000 0.000000 0.112979 0.000000 0.000000
# 5 0.000000 0.000000 0.000000 0.000000 0.112981 0.000000
# 6 0.000000 0.000000 0.000000 0.000000 0.000000 0.053896
#
#
# Mechanical properties :
#
#
# Convention : Reuss Voigt Hill
#
# Bulk Modulus (GPa) = 41.12454 41.97323 41.54889
# Shear Modulus (GPa) = -33.67352 11.62741 -11.02305
#
# Velocity S-wave (km/s) = -4.36642 2.56580 -2.49823
# Velocity P-wave (km/s) = 1.46168 5.70462 3.89911
#
# Compressibility (1/GPa) = 0.02431638
#
# Stress axis : x y z
#
# Youngs Moduli (GPa) = -8.90059 -8.90101 53.66314
#
# Poissons Ratio (x) = 1.09553 0.21165
# Poissons Ratio (y) = 1.09548 0.21173
# Poissons Ratio (z) = -0.03510 -0.03512
#
# Static dielectric constant tensor:
#      x y z
#    x 1.637210 0.000000 0.000000 
#    y 0.000000 1.637210 0.000000 
#    z 0.000000 0.000000 1.650640 
# 
# From -- ./inp_files/3513.got.cif
#   From: 2010.05.17/outbox.cif.g08.bks.cpg/sg124_2_cif.got.tgz:3513.got - 2010.05.20 11:49:17.
