data_PCOD9562796
_publ_section_title
;
Structure prediction by ZEFSAII (Michael W. Deem and Ramdas Pophale) SiO2 
 PCOD9562796
Probable space group: P 4/M C C
;
_chemical_formula_sum "Si O2"
_cell_formula_units_Z 96
_cell_length_a 14.761387
_cell_length_b 14.761387
_cell_length_c 22.433946
_cell_angle_alpha 90.000000
_cell_angle_beta 90.000000
_cell_angle_gamma 90.000000
_cell_volume 4888.324218
_symmetry_space_group_name_H-M "P 4/M C C"
_symmetry_group_IT_number 124
_symmetry_cell_setting 'tetragonal'
loop_
_space_group_symop_operation_xyz
x,y,z
-y,x,z
-x,-y,z
y,-x,z
x,-y,1/2-z
-x,y,1/2-z
y,x,1/2-z
-y,-x,1/2-z
-x,-y,-z
y,-x,-z
x,y,-z
-y,x,-z
-x,y,1/2+z
x,-y,1/2+z
-y,-x,1/2+z
y,x,1/2+z
loop_
_atom_site_type_symbol
_atom_site_label
_atom_site_fract_x
_atom_site_fract_y
_atom_site_fract_z
Si Si1 0.764154 0.415010 0.395908
Si Si2 0.264329 0.622293 0.070091
Si Si3 0.032788 0.396824 0.064621
Si Si4 0.866329 0.035462 0.318572
Si Si5 0.757507 0.396566 0.258259
Si Si6 0.327569 0.109551 0.843083
O O1 0.736735 0.520033 0.404473
O O2 0.680505 0.354201 0.417872
O O3 0.858762 0.396020 0.428931
O O4 0.784668 0.392200 0.327172
O O5 0.184540 0.672343 0.105239
O O6 0.247068 0.616694 0.000000
O O7 0.000000 0.500000 0.061139
O O8 0.980506 0.363039 0.123486
O O9 0.008352 0.353577 0.000000
O O10 0.770994 0.082064 0.322123
O O11 0.938807 0.106027 0.346020
O O12 0.874324 0.000000 0.250000
O O13 0.723938 0.500000 0.250000
O O14 0.678874 0.321127 0.250000
O O15 0.840694 0.378688 0.212169
#
# Coordination Sequence:
#
# PCOD9562796 Si02
#       6
#    16  16  16  16  16  16
#     4  12  25  45  69  99 133 180 230 287 348 406
#     4  12  25  45  68  97 134 179 235 286 335 406
#     4  11  23  43  66  93 132 176 220 271 334 395
#     4   9  22  42  64  93 129 170 214 266 331 400
#     4  12  24  44  65 100 143 180 223 280 342 411
#     4  12  25  38  69  97 132 175 216 278 330 417
#
# _framework density 19.638631
#
# number of rings (size 3 to 8) (size 9 to 14) (size 15 to 20)
#    0.000    0.667    5.000    2.500    7.000    0.500 
#    0.000    4.167    0.000    0.000    0.000    4.667 
#    0.000    0.000    0.000    0.000    0.000    0.000 
#
# Total GULP energy -534901.321126 kJ/mol
# GULP energy per Si atom -5571.888762 kJ/mol
# Density = 1.959393 g / cm^3
# Si number density = 19.638631 Si / 1000 Ang^3
#
#
#
# Elastic Constant Matrix: (Units=GPa)
#
#
# Indices 1 2 3 4 5 6 
#
# 1 613.5138 -441.6730 36.3499 0.0000 0.0000 0.0000
# 2 -441.6730 613.4986 36.3523 0.0000 0.0000 0.0000
# 3 36.3499 36.3523 134.6719 0.0000 0.0000 0.0000
# 4 0.0000 0.0000 0.0000 34.0429 0.0000 0.0000
# 5 0.0000 0.0000 0.0000 0.0000 34.0448 0.0000
# 6 0.0000 0.0000 0.0000 0.0000 0.0000 35.4016
#
#
#
# Elastic Compliance Matrix: (Units=1/GPa)
#
#
# Indices 1 2 3 4 5 6 
#
# 1 0.003759 0.002811 -0.001773 0.000000 0.000000 0.000000
# 2 0.002811 0.003759 -0.001773 0.000000 0.000000 0.000000
# 3 -0.001773 -0.001773 0.008383 0.000000 0.000000 0.000000
# 4 0.000000 0.000000 0.000000 0.029375 0.000000 0.000000
# 5 0.000000 0.000000 0.000000 0.000000 0.029373 0.000000
# 6 0.000000 0.000000 0.000000 0.000000 0.000000 0.028247
#
#
# Mechanical properties :
#
#
# Convention : Reuss Voigt Hill
#
# Bulk Modulus (GPa) = 69.30424 69.30473 69.30449
# Shear Modulus (GPa) = 45.79738 136.07485 90.93611
#
# Velocity S-wave (km/s) = 4.83432 8.33305 6.81214
# Velocity P-wave (km/s) = 8.15642 11.31163 9.86104
#
# Compressibility (1/GPa) = 0.01442913
#
# Stress axis : x y z
#
# Youngs Moduli (GPa) = 266.04550 266.03823 119.29182
#
# Poissons Ratio (x) = -0.74786 0.21155
# Poissons Ratio (y) = -0.74788 0.21155
# Poissons Ratio (z) = 0.47179 0.47179
#
# Static dielectric constant tensor:
#      x y z
#    x 1.703810 0.000000 0.000000 
#    y 0.000000 1.703810 0.000000 
#    z 0.000000 0.000000 1.794270 
# 
# From -- ./inp_files/5302.got.cif
#   From: 2010.05.17/outbox.cif.g08.bks.cpg/sg124_3_cif.got.tgz:5302.got - 2010.05.20 11:49:17.
