data_PCOD9562886
_publ_section_title
;
Structure prediction by ZEFSAII (Michael W. Deem and Ramdas Pophale) SiO2 
 PCOD9562886
Probable space group: P 4/N B M
;
_chemical_formula_sum "Si O2"
_cell_formula_units_Z 112
_cell_length_a 26.568603
_cell_length_b 26.568603
_cell_length_c 7.279303
_cell_angle_alpha 90.000000
_cell_angle_beta 90.000000
_cell_angle_gamma 90.000000
_cell_volume 5138.392038
_symmetry_space_group_name_H-M "P 4/N B M"
_symmetry_group_IT_number 125
_space_group.IT_coordinate_system_code '2'
_symmetry_cell_setting 'tetragonal'
loop_
_space_group_symop_operation_xyz
x,y,z
1/2-y,x,z
1/2-x,1/2-y,z
y,1/2-x,z
x,1/2-y,-z
1/2-x,y,-z
y,x,-z
1/2-y,1/2-x,-z
-x,-y,-z
1/2+y,-x,-z
1/2+x,1/2+y,-z
-y,1/2+x,-z
-x,1/2+y,z
1/2+x,-y,z
-y,-x,z
1/2+y,1/2+x,z
loop_
_atom_site_type_symbol
_atom_site_label
_atom_site_fract_x
_atom_site_fract_y
_atom_site_fract_z
Si Si1 0.347674 0.493461 0.706098
Si Si2 0.946281 0.249999 0.274948
Si Si3 0.458129 0.041872 0.277423
Si Si4 0.250001 0.669319 0.276877
Si Si5 0.805875 0.886502 0.222088
Si Si6 0.506539 0.847673 0.706099
Si Si7 0.805874 0.613498 0.222087
O O1 0.303230 0.528784 0.786512
O O2 0.402956 0.478418 0.786230
O O3 0.319580 0.440262 0.699884
O O4 0.358176 0.513207 0.499999
O O5 0.950938 0.250000 0.500000
O O6 0.888175 0.249999 0.220671
O O7 0.971216 0.303229 0.213487
O O8 0.453294 0.046706 0.500000
O O9 0.478418 0.097046 0.213768
O O10 0.500001 0.000001 0.236090
O O11 0.250000 0.669207 0.500000
O O12 0.298775 0.701226 0.219379
O O13 0.201230 0.701230 0.219377
O O14 0.846500 0.846500 0.281880
O O15 0.750000 0.871044 0.272555
O O16 0.808148 0.890720 0.000000
O O17 0.559737 0.819579 0.699885
#
# Coordination Sequence:
#
# PCOD9562886 Si02
#       7
#    16  16  16  16  16  16  16
#     4  10  18  30  49  70  96 129 162 198 239 286
#     4   9  17  26  42  69  92 119 164 206 239 280
#     4   9  18  30  45  69  98 129 162 196 239 287
#     4   8  14  25  40  61  95 133 159 187 239 298
#     4  10  20  33  50  71  95 124 159 199 241 284
#     4  10  18  30  49  70  96 129 162 198 239 286
#     4  10  20  33  50  71  95 124 159 199 241 284
#
# _framework density 21.796703000000001
#
# number of rings (size 3 to 8) (size 9 to 14) (size 15 to 20)
#    0.000    2.571    2.857    0.429    0.000    1.429 
#    0.000    7.143    0.000    1.714    0.000    2.000 
#    0.000    1.143    0.000    6.286    0.000    5.714 
#
# Total GULP energy -624460.006431 kJ/mol
# GULP energy per Si atom -5575.535772 kJ/mol
# Density = 2.174709 g / cm^3
# Si number density = 21.796703 Si / 1000 Ang^3
#
#
#
# Elastic Constant Matrix: (Units=GPa)
#
#
# Indices 1 2 3 4 5 6 
#
# 1 193.5503 96.7880 6.2748 0.0000 0.0000 0.0000
# 2 96.7880 193.5503 6.2747 0.0000 0.0000 0.0000
# 3 6.2748 6.2747 89.1344 0.0000 0.0000 0.0000
# 4 0.0000 0.0000 0.0000 23.3351 0.0000 0.0000
# 5 0.0000 0.0000 0.0000 0.0000 23.3320 0.0000
# 6 0.0000 0.0000 0.0000 0.0000 0.0000 29.3453
#
#
#
# Elastic Compliance Matrix: (Units=1/GPa)
#
#
# Indices 1 2 3 4 5 6 
#
# 1 0.006895 -0.003440 -0.000243 0.000000 0.000000 0.000000
# 2 -0.003440 0.006895 -0.000243 0.000000 0.000000 0.000000
# 3 -0.000243 -0.000243 0.011253 0.000000 0.000000 0.000000
# 4 0.000000 0.000000 0.000000 0.042854 0.000000 0.000000
# 5 0.000000 0.000000 0.000000 0.000000 0.042860 0.000000
# 6 0.000000 0.000000 0.000000 0.000000 0.000000 0.034077
#
#
# Mechanical properties :
#
#
# Convention : Reuss Voigt Hill
#
# Bulk Modulus (GPa) = 58.17343 77.21222 67.69283
# Shear Modulus (GPa) = 31.56249 39.66230 35.61240
#
# Velocity S-wave (km/s) = 3.80944 4.27036 4.04647
# Velocity P-wave (km/s) = 6.78941 7.73404 7.27707
#
# Compressibility (1/GPa) = 0.01718998
#
# Stress axis : x y z
#
# Youngs Moduli (GPa) = 145.03916 145.03916 88.86318
#
# Poissons Ratio (x) = 0.49892 0.02161
# Poissons Ratio (y) = 0.49892 0.02161
# Poissons Ratio (z) = 0.03527 0.03527
#
# Static dielectric constant tensor:
#      x y z
#    x 1.752780 0.000000 0.000000 
#    y 0.000000 1.752780 0.000000 
#    z 0.000000 0.000000 1.893510 
# 
# From -- ./inp_files/4344.got.cif
#   From: 2010.05.17/outbox.cif.g08.bks.cpg/sg125_3_cif.got.tgz:4344.got - 2010.05.20 11:54:10.
