data_PCOD9562015
_publ_section_title
;
Structure prediction by ZEFSAII (Michael W. Deem and Ramdas Pophale) SiO2 
 PCOD9562015
Probable space group: P 4/M M M
;
_chemical_formula_sum "Si O2"
_cell_formula_units_Z 128
_cell_length_a 19.822179
_cell_length_b 19.822179
_cell_length_c 20.669841
_cell_angle_alpha 90.000000
_cell_angle_beta 90.000000
_cell_angle_gamma 90.000000
_cell_volume 8121.568715
_symmetry_space_group_name_H-M "P 4/M M M"
_symmetry_group_IT_number 123
_symmetry_cell_setting 'tetragonal'
loop_
_space_group_symop_operation_xyz
x,y,z
-y,x,z
-x,-y,z
y,-x,z
x,-y,-z
-x,y,-z
y,x,-z
-y,-x,-z
-x,-y,-z
y,-x,-z
x,y,-z
-y,x,-z
-x,y,z
x,-y,z
-y,-x,z
y,x,z
loop_
_atom_site_type_symbol
_atom_site_label
_atom_site_fract_x
_atom_site_fract_y
_atom_site_fract_z
Si Si1 0.638196 0.746175 0.803196
Si Si2 0.921729 0.692012 0.676885
Si Si3 0.753825 0.861804 0.196804
Si Si4 0.578414 0.310169 0.423299
Si Si5 0.192013 0.421729 0.676885
Si Si6 0.691433 0.078683 0.073807
Si Si7 0.578683 0.808567 0.926193
Si Si8 0.921586 0.810168 0.423299
O O1 0.674257 0.674257 0.795705
O O2 0.698220 0.801780 0.802873
O O3 0.591576 0.766974 0.743263
O O4 0.601112 0.756064 0.871463
O O5 0.908424 0.733025 0.743263
O O6 0.871181 0.628818 0.675165
O O7 0.906716 0.743869 0.618661
O O8 0.000000 0.671608 0.673327
O O9 0.825742 0.825742 0.204295
O O10 0.743936 0.898888 0.128537
O O11 0.585146 0.296460 0.500000
O O12 0.500000 0.328813 0.411237
O O13 0.629702 0.370299 0.406667
O O14 0.593285 0.243870 0.381340
O O15 0.171610 0.500000 0.673326
O O16 0.625177 0.125177 0.082093
O O17 0.674962 0.000000 0.081475
O O18 0.715733 0.089405 0.000000
O O19 0.500000 0.825039 0.918525
O O20 0.589405 0.784267 0.000000
O O21 0.914855 0.796458 0.500000
O O22 0.870298 0.870298 0.406668
O O23 0.000000 0.828813 0.411237
#
# Coordination Sequence:
#
# PCOD9562015 Si02
#       8
#    16  16  16  16  16  16  16  16
#     4   9  17  29  45  64  86 114 148 185 227 274
#     4  10  20  33  49  69  94 124 158 195 234 279
#     4   9  17  29  45  64  86 114 148 185 227 274
#     4   9  18  32  50  73  99 126 158 196 237 281
#     4  10  20  33  49  69  94 124 158 195 234 279
#     4   9  17  28  42  62  89 120 153 188 225 268
#     4   9  17  28  42  62  89 120 153 188 225 268
#     4   9  18  32  50  73  99 126 158 196 237 281
#
# _framework density 15.760502000000001
#
# number of rings (size 3 to 8) (size 9 to 14) (size 15 to 20)
#    0.000    2.750    0.000    1.500    0.000    3.250 
#    0.000    6.250    0.000    4.500    0.000    3.500 
#    0.000    4.500    0.000   11.000    0.000    1.000 
#
# Total GULP energy -712954.168069 kJ/mol
# GULP energy per Si atom -5569.954438 kJ/mol
# Density = 1.572463 g / cm^3
# Si number density = 15.760502 Si / 1000 Ang^3
#
#
#
# Elastic Constant Matrix: (Units=GPa)
#
#
# Indices 1 2 3 4 5 6 
#
# 1 78.9974 67.2736 52.0464 0.0000 0.0000 0.0000
# 2 67.2736 78.9974 52.0464 0.0000 0.0000 0.0000
# 3 52.0464 52.0464 76.1030 0.0000 0.0000 0.0000
# 4 0.0000 0.0000 0.0000 22.8524 0.0000 0.0000
# 5 0.0000 0.0000 0.0000 0.0000 22.8524 0.0000
# 6 0.0000 0.0000 0.0000 0.0000 0.0000 20.8624
#
#
#
# Elastic Compliance Matrix: (Units=1/GPa)
#
#
# Indices 1 2 3 4 5 6 
#
# 1 0.049308 -0.035989 -0.009109 0.000000 0.000000 0.000000
# 2 -0.035989 0.049308 -0.009109 0.000000 0.000000 0.000000
# 3 -0.009109 -0.009109 0.025599 0.000000 0.000000 0.000000
# 4 0.000000 0.000000 0.000000 0.043759 0.000000 0.000000
# 5 0.000000 0.000000 0.000000 0.000000 0.043759 0.000000
# 6 0.000000 0.000000 0.000000 0.000000 0.000000 0.047933
#
#
# Mechanical properties :
#
#
# Convention : Reuss Voigt Hill
#
# Bulk Modulus (GPa) = 63.28407 64.09230 63.68819
# Shear Modulus (GPa) = 13.39243 17.49553 15.44398
#
# Velocity S-wave (km/s) = 2.91820 3.33541 3.13376
# Velocity P-wave (km/s) = 7.18299 7.45573 7.32063
#
# Compressibility (1/GPa) = 0.01580177
#
# Stress axis : x y z
#
# Youngs Moduli (GPa) = 20.28078 20.28078 39.06448
#
# Poissons Ratio (x) = 0.72989 0.35582
# Poissons Ratio (y) = 0.72989 0.35582
# Poissons Ratio (z) = 0.18473 0.18473
#
# Static dielectric constant tensor:
#      x y z
#    x 1.507260 0.000000 0.000000 
#    y 0.000000 1.507260 0.000000 
#    z 0.000000 0.000000 1.540690 
# 
# From -- ./inp_files/6012.got.cif
#   From: 2010.05.17/outbox.cif.g08.bks.cpg/sg123_4_cif.got.tgz:6012.got - 2010.05.20 11:43:04.
