data_PCOD9562472
_publ_section_title
;
Structure prediction by ZEFSAII (Michael W. Deem and Ramdas Pophale) SiO2 
 PCOD9562472
Probable space group: P 4/M C C
;
_chemical_formula_sum "Si O2"
_cell_formula_units_Z 96
_cell_length_a 18.426290
_cell_length_b 18.426290
_cell_length_c 16.238847
_cell_angle_alpha 90.000000
_cell_angle_beta 90.000000
_cell_angle_gamma 90.000000
_cell_volume 5513.545894
_symmetry_space_group_name_H-M "P 4/M C C"
_symmetry_group_IT_number 124
_symmetry_cell_setting 'tetragonal'
loop_
_space_group_symop_operation_xyz
x,y,z
-y,x,z
-x,-y,z
y,-x,z
x,-y,1/2-z
-x,y,1/2-z
y,x,1/2-z
-y,-x,1/2-z
-x,-y,-z
y,-x,-z
x,y,-z
-y,x,-z
-x,y,1/2+z
x,-y,1/2+z
-y,-x,1/2+z
y,x,1/2+z
loop_
_atom_site_type_symbol
_atom_site_label
_atom_site_fract_x
_atom_site_fract_y
_atom_site_fract_z
Si Si1 0.426690 0.402697 0.093700
Si Si2 0.852497 0.504182 0.594424
Si Si3 0.723350 0.568826 0.296634
Si Si4 0.910748 0.655618 0.903467
Si Si5 0.658851 0.918386 0.905211
Si Si6 0.821000 0.700669 0.249107
O O1 0.514219 0.402961 0.103807
O O2 0.395079 0.342428 0.153554
O O3 0.410232 0.381747 0.000000
O O4 0.828504 0.497687 0.500000
O O5 0.783117 0.528421 0.646433
O O6 0.891443 0.428890 0.615761
O O7 0.906775 0.571975 0.600838
O O8 0.690720 0.500000 0.250000
O O9 0.768203 0.629973 0.249145
O O10 0.867798 0.699149 0.834053
O O11 0.996144 0.671482 0.895324
O O12 0.891004 0.668316 0.000000
O O13 0.693055 0.870348 0.831886
O O14 0.679151 0.896916 0.000000
O O15 0.771086 0.771086 0.250000
#
# Coordination Sequence:
#
# PCOD9562472 Si02
#       6
#    16  16  16  16  16  16
#     4   9  20  37  53  66  81 117 181 251 306 342
#     4   9  17  31  50  77 104 130 169 218 266 318
#     4  11  21  32  48  69 102 134 178 220 276 324
#     4  10  19  35  57  81 105 142 182 221 265 319
#     4   9  19  35  58  81 108 140 179 221 268 319
#     4  11  24  37  50  78 115 147 180 218 270 328
#
# _framework density 17.411662
#
# number of rings (size 3 to 8) (size 9 to 14) (size 15 to 20)
#    0.000    2.167    1.667    2.000    2.333    3.333 
#    0.000    2.500    0.000    0.000    0.000    0.000 
#    0.000    5.333    0.000   14.667    0.000    0.000 
#
# Total GULP energy -535290.633032 kJ/mol
# GULP energy per Si atom -5575.944094 kJ/mol
# Density = 1.737203 g / cm^3
# Si number density = 17.411662 Si / 1000 Ang^3
#
#
#
# Elastic Constant Matrix: (Units=GPa)
#
#
# Indices 1 2 3 4 5 6 
#
# 1 54.8641 8.0402 50.9570 0.0000 0.0000 0.0000
# 2 8.0402 54.8641 50.9570 0.0000 0.0000 0.0000
# 3 50.9570 50.9570 107.0413 0.0000 0.0000 0.0000
# 4 0.0000 0.0000 0.0000 23.4166 0.0000 0.0000
# 5 0.0000 0.0000 0.0000 0.0000 23.4166 0.0000
# 6 0.0000 0.0000 0.0000 0.0000 0.0000 14.0515
#
#
#
# Elastic Compliance Matrix: (Units=1/GPa)
#
#
# Indices 1 2 3 4 5 6 
#
# 1 0.045429 0.024073 -0.033087 0.000000 0.000000 0.000000
# 2 0.024073 0.045429 -0.033087 0.000000 0.000000 0.000000
# 3 -0.033087 -0.033087 0.040844 0.000000 0.000000 0.000000
# 4 0.000000 0.000000 0.000000 0.042705 0.000000 0.000000
# 5 0.000000 0.000000 0.000000 0.000000 0.042705 0.000000
# 6 0.000000 0.000000 0.000000 0.000000 0.000000 0.071167
#
#
# Mechanical properties :
#
#
# Convention : Reuss Voigt Hill
#
# Bulk Modulus (GPa) = 21.05171 48.51977 34.78574
# Shear Modulus (GPa) = 12.87620 19.29795 16.08707
#
# Velocity S-wave (km/s) = 2.72235 3.33278 3.04291
# Velocity P-wave (km/s) = 4.69025 6.53733 5.68925
#
# Compressibility (1/GPa) = 0.04750208
#
# Stress axis : x y z
#
# Youngs Moduli (GPa) = 22.01219 22.01219 24.48347
#
# Poissons Ratio (x) = -0.52989 0.81007
# Poissons Ratio (y) = -0.52989 0.81007
# Poissons Ratio (z) = 0.72831 0.72831
#
# Static dielectric constant tensor:
#      x y z
#    x 1.580380 0.000000 0.000000 
#    y 0.000000 1.580380 0.000000 
#    z 0.000000 0.000000 1.654660 
# 
# From -- ./inp_files/4256.got.cif
#   From: 2010.05.17/outbox.cif.g08.bks.cpg/sg124_3_cif.got.tgz:4256.got - 2010.05.20 11:49:17.
