data_PCOD9562362
_publ_section_title
;
Structure prediction by ZEFSAII (Michael W. Deem and Ramdas Pophale) SiO2 
 PCOD9562362
Probable space group: P 4/M C C
;
_chemical_formula_sum "Si O2"
_cell_formula_units_Z 112
_cell_length_a 15.204917
_cell_length_b 15.204917
_cell_length_c 26.476839
_cell_angle_alpha 90.000000
_cell_angle_beta 90.000000
_cell_angle_gamma 90.000000
_cell_volume 6121.167196
_symmetry_space_group_name_H-M "P 4/M C C"
_symmetry_group_IT_number 124
_symmetry_cell_setting 'tetragonal'
loop_
_space_group_symop_operation_xyz
x,y,z
-y,x,z
-x,-y,z
y,-x,z
x,-y,1/2-z
-x,y,1/2-z
y,x,1/2-z
-y,-x,1/2-z
-x,-y,-z
y,-x,-z
x,y,-z
-y,x,-z
-x,y,1/2+z
x,-y,1/2+z
-y,-x,1/2+z
y,x,1/2+z
loop_
_atom_site_type_symbol
_atom_site_label
_atom_site_fract_x
_atom_site_fract_y
_atom_site_fract_z
Si Si1 0.383088 0.739663 0.438695
Si Si2 0.414289 0.751816 0.060174
Si Si3 0.897816 0.244288 0.761907
Si Si4 0.418137 0.944047 0.105455
Si Si5 0.124939 0.922538 0.441899
Si Si6 0.707731 0.104242 0.379257
Si Si7 0.905539 0.578920 0.220900
O O1 0.375166 0.755211 0.500000
O O2 0.485862 0.723151 0.427456
O O3 0.318812 0.659236 0.424158
O O4 0.353316 0.823419 0.405917
O O5 0.399925 0.851120 0.079551
O O6 0.408900 0.755657 0.000000
O O7 0.839825 0.160176 0.750000
O O8 0.888837 0.279384 0.819232
O O9 0.865809 0.324912 0.726729
O O10 0.000000 0.225303 0.750000
O O11 0.443567 0.920677 0.163113
O O12 0.500000 0.000000 0.083036
O O13 0.335306 0.009523 0.108173
O O14 0.151441 0.906002 0.500000
O O15 0.196941 0.886626 0.404370
O O16 0.027634 0.884011 0.434926
O O17 0.858073 0.500000 0.250000
O O18 0.000000 0.587497 0.250000
#
# Coordination Sequence:
#
# PCOD9562362 Si02
#       7
#    16  16  16  16  16  16  16
#     4  10  23  42  61  91 121 152 200 242 299 364
#     4  10  24  41  62  89 121 156 195 246 297 364
#     4  11  25  40  55  85 119 155 202 239 287 346
#     4  12  21  37  61  89 120 152 188 240 307 353
#     4   9  21  39  55  75 106 152 203 237 279 345
#     4  12  23  36  61  86 119 155 190 250 298 347
#     4  10  18  37  59  83 110 147 191 235 285 349
#
# _framework density 18.297165
#
# number of rings (size 3 to 8) (size 9 to 14) (size 15 to 20)
#    0.000    1.429    5.714    0.857    6.000    1.857 
#    0.000    1.429    0.000    0.000    0.000    0.000 
#    0.000    0.286    0.000    0.000    0.000    0.000 
#
# Total GULP energy -624912.120465 kJ/mol
# GULP energy per Si atom -5579.572504 kJ/mol
# Density = 1.825552 g / cm^3
# Si number density = 18.297165 Si / 1000 Ang^3
#
#
#
# Elastic Constant Matrix: (Units=GPa)
#
#
# Indices 1 2 3 4 5 6 
#
# 1 91.3527 50.7690 23.2314 0.0000 0.0000 0.0000
# 2 50.7690 91.3542 23.2309 0.0000 0.0000 0.0000
# 3 23.2314 23.2309 29.5189 0.0000 0.0000 0.0000
# 4 0.0000 0.0000 0.0000 -0.7425 0.0000 0.0000
# 5 0.0000 0.0000 0.0000 0.0000 -0.7426 0.0000
# 6 0.0000 0.0000 0.0000 0.0000 0.0000 20.5783
#
#
#
# Elastic Compliance Matrix: (Units=1/GPa)
#
#
# Indices 1 2 3 4 5 6 
#
# 1 0.017057 -0.007583 -0.007456 0.000000 0.000000 0.000000
# 2 -0.007583 0.017056 -0.007455 0.000000 0.000000 0.000000
# 3 -0.007456 -0.007455 0.045612 0.000000 0.000000 0.000000
# 4 0.000000 0.000000 0.000000 -1.346725 0.000000 0.000000
# 5 0.000000 0.000000 0.000000 0.000000 -1.346686 0.000000
# 6 0.000000 0.000000 0.000000 0.000000 0.000000 0.048595
#
#
# Mechanical properties :
#
#
# Convention : Reuss Voigt Hill
#
# Bulk Modulus (GPa) = 28.78835 45.18761 36.98798
# Shear Modulus (GPa) = -1.99320 11.48494 4.74587
#
# Velocity S-wave (km/s) = -1.04485 2.50809 1.61227
# Velocity P-wave (km/s) = 3.78316 5.75652 4.87082
#
# Compressibility (1/GPa) = 0.03473628
#
# Stress axis : x y z
#
# Youngs Moduli (GPa) = 58.62684 58.62868 21.92423
#
# Poissons Ratio (x) = 0.44459 0.16347
# Poissons Ratio (y) = 0.44458 0.16345
# Poissons Ratio (z) = 0.43712 0.43709
#
# Static dielectric constant tensor:
#      x y z
#    x 1.659300 0.000000 0.000000 
#    y 0.000000 1.659300 0.000000 
#    z 0.000000 0.000000 1.638820 
# 
# From -- ./inp_files/6658.got.cif
#   From: 2010.05.17/outbox.cif.g08.bks.cpg/sg124_4_cif.got.tgz:6658.got - 2010.05.20 11:49:17.
