data_PCOD9562426
_publ_section_title
;
Structure prediction by ZEFSAII (Michael W. Deem and Ramdas Pophale) SiO2 
 PCOD9562426
Probable space group: P 4/M C C
;
_chemical_formula_sum "Si O2"
_cell_formula_units_Z 112
_cell_length_a 16.247387
_cell_length_b 16.247387
_cell_length_c 24.724550
_cell_angle_alpha 90.000000
_cell_angle_beta 90.000000
_cell_angle_gamma 90.000000
_cell_volume 6526.726983
_symmetry_space_group_name_H-M "P 4/M C C"
_symmetry_group_IT_number 124
_symmetry_cell_setting 'tetragonal'
loop_
_space_group_symop_operation_xyz
x,y,z
-y,x,z
-x,-y,z
y,-x,z
x,-y,1/2-z
-x,y,1/2-z
y,x,1/2-z
-y,-x,1/2-z
-x,-y,-z
y,-x,-z
x,y,-z
-y,x,-z
-x,y,1/2+z
x,-y,1/2+z
-y,-x,1/2+z
y,x,1/2+z
loop_
_atom_site_type_symbol
_atom_site_label
_atom_site_fract_x
_atom_site_fract_y
_atom_site_fract_z
Si Si1 0.415195 0.159079 0.561918
Si Si2 0.288429 0.282896 0.895830
Si Si3 0.818396 0.179150 0.684082
Si Si4 0.002216 0.233794 0.812294
Si Si5 0.854601 0.601044 0.439380
Si Si6 0.610882 0.581988 0.438087
Si Si7 0.590987 0.005360 0.857109
O O1 0.404229 0.131307 0.500000
O O2 0.346052 0.225955 0.575576
O O3 0.510754 0.188450 0.565958
O O4 0.406741 0.084454 0.603803
O O5 0.243609 0.243989 0.843844
O O6 0.322908 0.206049 0.930047
O O7 0.371470 0.337217 0.892525
O O8 0.813993 0.186008 0.750000
O O9 0.912041 0.198031 0.665614
O O10 0.794944 0.086399 0.666095
O O11 0.008079 0.332114 0.817511
O O12 0.000000 0.208102 0.750000
O O13 0.889075 0.603755 0.500000
O O14 0.926221 0.602163 0.395410
O O15 0.516172 0.610169 0.434128
O O16 0.639290 0.603079 0.500000
O O17 0.500000 0.000000 0.831883
#
# Coordination Sequence:
#
# PCOD9562426 Si02
#       7
#    16  16  16  16  16  16  16
#     4  10  20  32  48  74 107 141 175 209 250 306
#     4  12  19  30  53  75 104 134 175 220 265 303
#     4  10  22  38  59  80 102 130 167 223 276 320
#     4  10  20  39  59  80 104 129 172 222 270 323
#     4  10  20  32  48  74 107 141 175 209 250 306
#     4   9  18  32  50  75 109 147 184 220 257 299
#     4  10  19  33  51  74 108 145 169 205 260 310
#
# _framework density 17.160209999999999
#
# number of rings (size 3 to 8) (size 9 to 14) (size 15 to 20)
#    0.000    1.857    2.857    3.000    0.000    4.571 
#    0.000    1.429    0.000    3.429    0.000    1.000 
#    0.000    2.286    0.000    0.000    0.000    0.000 
#
# Total GULP energy -623757.216124 kJ/mol
# GULP energy per Si atom -5569.260858 kJ/mol
# Density = 1.712115 g / cm^3
# Si number density = 17.160210 Si / 1000 Ang^3
#
#
#
# Elastic Constant Matrix: (Units=GPa)
#
#
# Indices 1 2 3 4 5 6 
#
# 1 79.9417 30.2090 14.6949 0.0000 0.0000 0.0000
# 2 30.2090 79.9415 14.6948 0.0000 0.0000 0.0000
# 3 14.6949 14.6948 30.6532 0.0000 0.0000 0.0000
# 4 0.0000 0.0000 0.0000 24.5736 0.0000 0.0000
# 5 0.0000 0.0000 0.0000 0.0000 24.5737 0.0000
# 6 0.0000 0.0000 0.0000 0.0000 0.0000 34.5218
#
#
#
# Elastic Compliance Matrix: (Units=1/GPa)
#
#
# Indices 1 2 3 4 5 6 
#
# 1 0.015259 -0.004849 -0.004990 0.000000 0.000000 0.000000
# 2 -0.004849 0.015259 -0.004990 0.000000 0.000000 0.000000
# 3 -0.004990 -0.004990 0.037408 0.000000 0.000000 0.000000
# 4 0.000000 0.000000 0.000000 0.040694 0.000000 0.000000
# 5 0.000000 0.000000 0.000000 0.000000 0.040694 0.000000
# 6 0.000000 0.000000 0.000000 0.000000 0.000000 0.028967
#
#
# Mechanical properties :
#
#
# Convention : Reuss Voigt Hill
#
# Bulk Modulus (GPa) = 26.13289 34.41487 30.27388
# Shear Modulus (GPa) = 22.65570 25.46301 24.05935
#
# Velocity S-wave (km/s) = 3.63746 3.85624 3.74845
# Velocity P-wave (km/s) = 5.73614 6.31871 6.03446
#
# Compressibility (1/GPa) = 0.03826596
#
# Stress axis : x y z
#
# Youngs Moduli (GPa) = 65.53619 65.53601 26.73243
#
# Poissons Ratio (x) = 0.31777 0.13341
# Poissons Ratio (y) = 0.31777 0.13341
# Poissons Ratio (z) = 0.32705 0.32705
#
# Static dielectric constant tensor:
#      x y z
#    x 1.611290 0.000000 0.000000 
#    y 0.000000 1.611290 0.000000 
#    z 0.000000 0.000000 1.556520 
# 
# From -- ./inp_files/7286.got.cif
#   From: 2010.05.17/outbox.cif.g08.bks.cpg/sg124_4_cif.got.tgz:7286.got - 2010.05.20 11:49:17.
