data_PCOD9562785
_publ_section_title
;
Structure prediction by ZEFSAII (Michael W. Deem and Ramdas Pophale) SiO2 
 PCOD9562785
Probable space group: P 4/M C C
;
_chemical_formula_sum "Si O2"
_cell_formula_units_Z 80
_cell_length_a 11.427475
_cell_length_b 11.427475
_cell_length_c 29.243807
_cell_angle_alpha 90.000000
_cell_angle_beta 90.000000
_cell_angle_gamma 90.000000
_cell_volume 3818.866431
_symmetry_space_group_name_H-M "P 4/M C C"
_symmetry_group_IT_number 124
_symmetry_cell_setting 'tetragonal'
loop_
_space_group_symop_operation_xyz
x,y,z
-y,x,z
-x,-y,z
y,-x,z
x,-y,1/2-z
-x,y,1/2-z
y,x,1/2-z
-y,-x,1/2-z
-x,-y,-z
y,-x,-z
x,y,-z
-y,x,-z
-x,y,1/2+z
x,-y,1/2+z
-y,-x,1/2+z
y,x,1/2+z
loop_
_atom_site_type_symbol
_atom_site_label
_atom_site_fract_x
_atom_site_fract_y
_atom_site_fract_z
Si Si1 0.686315 0.864823 0.238054
Si Si2 0.425307 0.683545 0.191003
Si Si3 0.835331 0.309585 0.387942
Si Si4 0.503601 0.859198 0.950195
Si Si5 0.321230 0.889278 0.369466
O O1 0.816994 0.816994 0.250000
O O2 0.611789 0.779152 0.270831
O O3 0.660563 0.859619 0.183885
O O4 0.670202 0.000000 0.250000
O O5 0.357490 0.559409 0.193681
O O6 0.381304 0.749400 0.145659
O O7 0.820849 0.372912 0.436532
O O8 0.798051 0.175195 0.383955
O O9 0.970641 0.322958 0.373652
O O10 0.586592 0.838054 0.906369
O O11 0.500000 0.000000 0.953198
O O12 0.540683 0.813708 0.000000
#
# Coordination Sequence:
#
# PCOD9562785 Si02
#       5
#    16  16  16  16  16
#     4  12  24  44  66  99 139 188 236 286 342 418
#     4  11  25  44  66  95 135 179 231 292 349 406
#     4  11  22  41  67  97 133 177 228 283 346 419
#     4   9  21  41  67  95 126 166 221 284 343 408
#     4  11  22  41  68  97 135 181 230 285 346 418
#
# _framework density 20.948623999999999
#
# number of rings (size 3 to 8) (size 9 to 14) (size 15 to 20)
#    0.000    1.200    4.000    1.200    0.000    3.800 
#    0.000    5.000    0.000    0.000    0.000    9.800 
#    0.000    0.000    0.000    0.000    0.000    0.000 
#
# Total GULP energy -446244.435639 kJ/mol
# GULP energy per Si atom -5578.055445 kJ/mol
# Density = 2.090094 g / cm^3
# Si number density = 20.948624 Si / 1000 Ang^3
#
#
#
# Elastic Constant Matrix: (Units=GPa)
#
#
# Indices 1 2 3 4 5 6 
#
# 1 139.7915 48.0336 44.1085 0.0000 0.0000 0.0000
# 2 48.0336 139.7915 44.1085 0.0000 0.0000 0.0000
# 3 44.1085 44.1085 152.6663 0.0000 0.0000 0.0000
# 4 0.0000 0.0000 0.0000 16.9246 0.0000 0.0000
# 5 0.0000 0.0000 0.0000 0.0000 16.9246 0.0000
# 6 0.0000 0.0000 0.0000 0.0000 0.0000 26.1384
#
#
#
# Elastic Compliance Matrix: (Units=1/GPa)
#
#
# Indices 1 2 3 4 5 6 
#
# 1 0.008529 -0.002369 -0.001780 0.000000 0.000000 0.000000
# 2 -0.002369 0.008529 -0.001780 0.000000 0.000000 0.000000
# 3 -0.001780 -0.001780 0.007579 0.000000 0.000000 0.000000
# 4 0.000000 0.000000 0.000000 0.059085 0.000000 0.000000
# 5 0.000000 0.000000 0.000000 0.000000 0.059085 0.000000
# 6 0.000000 0.000000 0.000000 0.000000 0.000000 0.038258
#
#
# Mechanical properties :
#
#
# Convention : Reuss Voigt Hill
#
# Bulk Modulus (GPa) = 78.24943 78.30563 78.27753
# Shear Modulus (GPa) = 25.35719 31.73079 28.54399
#
# Velocity S-wave (km/s) = 3.48292 3.89613 3.69531
# Velocity P-wave (km/s) = 7.32178 7.59610 7.46020
#
# Compressibility (1/GPa) = 0.01277965
#
# Stress axis : x y z
#
# Youngs Moduli (GPa) = 117.24527 117.24527 131.94956
#
# Poissons Ratio (x) = 0.27777 0.23484
# Poissons Ratio (y) = 0.27777 0.23484
# Poissons Ratio (z) = 0.20867 0.20867
#
# Static dielectric constant tensor:
#      x y z
#    x 1.800320 0.000000 0.000000 
#    y 0.000000 1.800320 0.000000 
#    z 0.000000 0.000000 1.805790 
# 
# From -- ./inp_files/6935.got.cif
#   From: 2010.05.17/outbox.cif.g08.bks.cpg/sg124_4_cif.got.tgz:6935.got - 2010.05.20 11:49:17.
