data_PCOD9562945
_publ_section_title
;
Structure prediction by ZEFSAII (Michael W. Deem and Ramdas Pophale) SiO2 
 PCOD9562945
Probable space group: P 4/N B M
;
_chemical_formula_sum "Si O2"
_cell_formula_units_Z 96
_cell_length_a 23.591386
_cell_length_b 23.591386
_cell_length_c 9.795188
_cell_angle_alpha 90.000000
_cell_angle_beta 90.000000
_cell_angle_gamma 90.000000
_cell_volume 5451.546100
_symmetry_space_group_name_H-M "P 4/N B M"
_symmetry_group_IT_number 125
_space_group.IT_coordinate_system_code '2'
_symmetry_cell_setting 'tetragonal'
loop_
_space_group_symop_operation_xyz
x,y,z
1/2-y,x,z
1/2-x,1/2-y,z
y,1/2-x,z
x,1/2-y,-z
1/2-x,y,-z
y,x,-z
1/2-y,1/2-x,-z
-x,-y,-z
1/2+y,-x,-z
1/2+x,1/2+y,-z
-y,1/2+x,-z
-x,1/2+y,z
1/2+x,-y,z
-y,-x,z
1/2+y,1/2+x,z
loop_
_atom_site_type_symbol
_atom_site_label
_atom_site_fract_x
_atom_site_fract_y
_atom_site_fract_z
Si Si1 0.789090 0.118126 0.112576
Si Si2 0.494050 0.410368 0.685187
Si Si3 0.685361 0.006218 0.516327
Si Si4 0.004956 0.598313 0.254336
Si Si5 0.375844 0.785490 0.623206
Si Si6 0.369249 0.964418 0.967933
O O1 0.841946 0.158055 0.150039
O O2 0.753564 0.107249 0.249345
O O3 0.812720 0.063744 0.029410
O O4 0.750000 0.148416 0.000000
O O5 0.550367 0.449634 0.655866
O O6 0.478576 0.364637 0.571446
O O7 0.443556 0.455247 0.700118
O O8 0.504888 0.374359 0.823668
O O9 0.750000 0.984164 0.500000
O O10 0.657969 0.007069 0.666639
O O11 0.688933 0.068968 0.449999
O O12 0.063820 0.563820 0.278008
O O13 0.998822 0.606986 0.092628
O O14 0.347865 0.750000 0.500000
O O15 0.334368 0.834368 0.673000
O O16 0.411552 0.911552 0.950644
#
# Coordination Sequence:
#
# PCOD9562945 Si02
#       6
#    16  16  16  16  16  16
#     4  11  22  34  48  66  93 133 178 221 258 295
#     4  10  19  33  55  78 100 129 167 212 260 314
#     4  11  22  34  48  70 100 134 168 207 259 311
#     4  10  19  33  54  78 102 129 166 212 259 313
#     4  11  22  34  47  63  88 128 177 226 267 297
#     4   9  18  32  49  72  98 122 156 206 264 315
#
# _framework density 17.609683
#
# number of rings (size 3 to 8) (size 9 to 14) (size 15 to 20)
#    0.000    1.667    0.000    6.500    0.000    8.000 
#    0.000    0.000    0.000    0.000    0.000    0.000 
#    0.000    5.333    0.000    0.000    0.000   34.333 
#
# Total GULP energy -535367.652411 kJ/mol
# GULP energy per Si atom -5576.746379 kJ/mol
# Density = 1.756960 g / cm^3
# Si number density = 17.609683 Si / 1000 Ang^3
#
#
#
# Elastic Constant Matrix: (Units=GPa)
#
#
# Indices 1 2 3 4 5 6 
#
# 1 47.7863 12.1821 8.4113 0.0000 0.0000 0.0000
# 2 12.1821 47.7863 8.4113 0.0000 0.0000 0.0000
# 3 8.4113 8.4113 83.7784 0.0000 0.0000 0.0000
# 4 0.0000 0.0000 0.0000 28.7943 0.0000 0.0000
# 5 0.0000 0.0000 0.0000 0.0000 28.7943 0.0000
# 6 0.0000 0.0000 0.0000 0.0000 0.0000 16.9480
#
#
#
# Elastic Compliance Matrix: (Units=1/GPa)
#
#
# Indices 1 2 3 4 5 6 
#
# 1 0.022623 -0.005464 -0.001723 0.000000 0.000000 0.000000
# 2 -0.005464 0.022623 -0.001723 0.000000 0.000000 0.000000
# 3 -0.001723 -0.001723 0.012282 0.000000 0.000000 0.000000
# 4 0.000000 0.000000 0.000000 0.034729 0.000000 0.000000
# 5 0.000000 0.000000 0.000000 0.000000 0.034729 0.000000
# 6 0.000000 0.000000 0.000000 0.000000 0.000000 0.059004
#
#
# Mechanical properties :
#
#
# Convention : Reuss Voigt Hill
#
# Bulk Modulus (GPa) = 25.18341 26.37338 25.77839
# Shear Modulus (GPa) = 23.03673 24.93040 23.98357
#
# Velocity S-wave (km/s) = 3.62081 3.76669 3.69447
# Velocity P-wave (km/s) = 5.64024 5.82464 5.73318
#
# Compressibility (1/GPa) = 0.03970869
#
# Stress axis : x y z
#
# Youngs Moduli (GPa) = 44.20354 44.20354 81.41889
#
# Poissons Ratio (x) = 0.24153 0.14026
# Poissons Ratio (y) = 0.24153 0.14026
# Poissons Ratio (z) = 0.07615 0.07615
#
# Static dielectric constant tensor:
#      x y z
#    x 1.642390 0.000000 0.000000 
#    y 0.000000 1.642390 0.000000 
#    z 0.000000 0.000000 1.667840 
# 
# From -- ./inp_files/2867.got.cif
#   From: 2010.05.17/outbox.cif.g08.bks.cpg/sg125_2_cif.got.tgz:2867.got - 2010.05.20 11:54:10.
