data_PCOD9562204
_publ_section_title
;
Structure prediction by ZEFSAII (Michael W. Deem and Ramdas Pophale) SiO2 
 PCOD9562204
Probable space group: P 4/M M M
;
_chemical_formula_sum "Si O2"
_cell_formula_units_Z 52
_cell_length_a 16.391853
_cell_length_b 16.391853
_cell_length_c 10.883030
_cell_angle_alpha 90.000000
_cell_angle_beta 90.000000
_cell_angle_gamma 90.000000
_cell_volume 2924.192290
_symmetry_space_group_name_H-M "P 4/M M M"
_symmetry_group_IT_number 123
_symmetry_cell_setting 'tetragonal'
loop_
_space_group_symop_operation_xyz
x,y,z
-y,x,z
-x,-y,z
y,-x,z
x,-y,-z
-x,y,-z
y,x,-z
-y,-x,-z
-x,-y,-z
y,-x,-z
x,y,-z
-y,x,-z
-x,y,z
x,-y,z
-y,-x,z
y,x,z
loop_
_atom_site_type_symbol
_atom_site_label
_atom_site_fract_x
_atom_site_fract_y
_atom_site_fract_z
Si Si1 0.500000 0.221533 0.801857
Si Si2 0.906450 0.229765 0.362933
Si Si3 0.500000 0.368249 0.353735
Si Si4 0.094629 0.643071 0.142457
Si Si5 0.636651 0.500000 0.000000
O O1 0.500000 0.271938 0.675554
O O2 0.575820 0.162794 0.829213
O O3 0.500000 0.300900 0.888017
O O4 0.894849 0.268325 0.500000
O O5 0.844118 0.155883 0.353991
O O6 0.895118 0.289214 0.247582
O O7 0.000000 0.201172 0.358483
O O8 0.579650 0.420351 0.309634
O O9 0.500000 0.375119 0.500000
O O10 0.000000 0.612931 0.152317
O O11 0.104529 0.670589 0.000000
O O12 0.578243 0.578243 0.000000
#
# Coordination Sequence:
#
# PCOD9562204 Si02
#       5
#     8  16   8  16   4
#     4  12  21  36  58  82 101 143 188 224 267 334
#     4   9  19  36  57  82 113 147 183 227 278 329
#     4   9  20  39  58  77 108 147 183 226 281 336
#     4  10  21  38  57  80 112 148 186 231 277 325
#     4  11  24  38  51  76 112 138 167 222 278 317
#
# _framework density 17.782689000000001
#
# number of rings (size 3 to 8) (size 9 to 14) (size 15 to 20)
#    0.000    2.077    1.538    1.846    0.000    7.077 
#    0.000    4.615    0.000    4.615    0.000    4.308 
#    0.000    0.000    0.000    0.000    0.000    0.000 
#
# Total GULP energy -289521.419327 kJ/mol
# GULP energy per Si atom -5567.719602 kJ/mol
# Density = 1.774222 g / cm^3
# Si number density = 17.782689 Si / 1000 Ang^3
#
#
#
# Elastic Constant Matrix: (Units=GPa)
#
#
# Indices 1 2 3 4 5 6 
#
# 1 105.7080 76.3536 70.8874 0.0000 0.0000 0.0000
# 2 76.3536 105.7080 70.8874 0.0000 0.0000 0.0000
# 3 70.8874 70.8874 133.0190 0.0000 0.0000 0.0000
# 4 0.0000 0.0000 0.0000 9.4438 0.0000 0.0000
# 5 0.0000 0.0000 0.0000 0.0000 9.4438 0.0000
# 6 0.0000 0.0000 0.0000 0.0000 0.0000 26.5259
#
#
#
# Elastic Compliance Matrix: (Units=1/GPa)
#
#
# Indices 1 2 3 4 5 6 
#
# 1 0.021728 -0.012339 -0.005003 0.000000 0.000000 0.000000
# 2 -0.012339 0.021728 -0.005003 0.000000 0.000000 0.000000
# 3 -0.005003 -0.005003 0.012851 0.000000 0.000000 0.000000
# 4 0.000000 0.000000 0.000000 0.105889 0.000000 0.000000
# 5 0.000000 0.000000 0.000000 0.000000 0.105889 0.000000
# 6 0.000000 0.000000 0.000000 0.000000 0.000000 0.037699
#
#
# Mechanical properties :
#
#
# Convention : Reuss Voigt Hill
#
# Bulk Modulus (GPa) = 86.09911 86.74355 86.42133
# Shear Modulus (GPa) = 14.11050 17.50316 15.80683
#
# Velocity S-wave (km/s) = 2.81996 3.14073 2.98466
# Velocity P-wave (km/s) = 7.68930 7.87641 7.78342
#
# Compressibility (1/GPa) = 0.01161452
#
# Stress axis : x y z
#
# Youngs Moduli (GPa) = 46.02421 46.02421 77.81766
#
# Poissons Ratio (x) = 0.56788 0.38936
# Poissons Ratio (y) = 0.56788 0.38936
# Poissons Ratio (z) = 0.23028 0.23028
#
# Static dielectric constant tensor:
#      x y z
#    x 1.584050 0.000000 0.000000 
#    y 0.000000 1.584050 0.000000 
#    z 0.000000 0.000000 1.791400 
# 
# From -- ./inp_files/2465.got.cif
#   From: 2010.05.17/outbox.cif.g08.bks.cpg/sg123_2_cif.got.tgz:2465.got - 2010.05.20 11:43:04.
