data_PCOD9562382
_publ_section_title
;
Structure prediction by ZEFSAII (Michael W. Deem and Ramdas Pophale) SiO2 
 PCOD9562382
Probable space group: P 4/M C C
;
_chemical_formula_sum "Si O2"
_cell_formula_units_Z 104
_cell_length_a 21.020290
_cell_length_b 21.020290
_cell_length_c 15.309248
_cell_angle_alpha 90.000000
_cell_angle_beta 90.000000
_cell_angle_gamma 90.000000
_cell_volume 6764.430906
_symmetry_space_group_name_H-M "P 4/M C C"
_symmetry_group_IT_number 124
_symmetry_cell_setting 'tetragonal'
loop_
_space_group_symop_operation_xyz
x,y,z
-y,x,z
-x,-y,z
y,-x,z
x,-y,1/2-z
-x,y,1/2-z
y,x,1/2-z
-y,-x,1/2-z
-x,-y,-z
y,-x,-z
x,y,-z
-y,x,-z
-x,y,1/2+z
x,-y,1/2+z
-y,-x,1/2+z
y,x,1/2+z
loop_
_atom_site_type_symbol
_atom_site_label
_atom_site_fract_x
_atom_site_fract_y
_atom_site_fract_z
Si Si1 0.229879 0.413411 0.840814
Si Si2 0.078495 0.458880 0.402998
Si Si3 0.224317 0.443647 0.637849
Si Si4 0.334023 0.324416 0.093228
Si Si5 0.911376 0.610794 0.098870
Si Si6 0.427053 0.425253 0.352608
Si Si7 0.000000 0.608639 0.250000
O O1 0.218551 0.432329 0.741097
O O2 0.249671 0.483602 0.880239
O O3 0.279882 0.355293 0.845459
O O4 0.163995 0.389969 0.882486
O O5 0.055168 0.438180 0.500000
O O6 0.153329 0.443156 0.399432
O O7 0.072006 0.535151 0.398454
O O8 0.045986 0.429664 0.316929
O O9 0.267142 0.383501 0.609968
O O10 0.381803 0.383541 0.091055
O O11 0.302319 0.312937 0.000000
O O12 0.952352 0.640942 0.178471
O O13 0.923284 0.634359 0.000000
O O14 0.500941 0.414029 0.367294
O O15 0.412959 0.412959 0.250000
#
# Coordination Sequence:
#
# PCOD9562382 Si02
#       7
#    16  16  16  16  16  16   8
#     4  10  20  35  50  63  83 111 144 181 222 268
#     4  10  19  30  46  68  91 112 137 170 208 257
#     4  10  20  35  50  63  83 111 144 181 222 268
#     4  12  23  31  43  62  82 108 140 173 219 270
#     4  10  19  30  46  68  91 112 137 170 208 257
#     4   9  18  32  46  58  72  94 130 174 218 265
#     4  12  19  30  48  68  90 114 136 160 208 267
#
# _framework density 15.374537999999999
#
# number of rings (size 3 to 8) (size 9 to 14) (size 15 to 20)
#    0.000    1.692    1.538    5.538    0.000    7.385 
#    0.000    0.769    0.000    0.000    0.000    0.000 
#    0.000    0.000    0.000    0.000    0.000    0.000 
#
# Total GULP energy -579043.553990 kJ/mol
# GULP energy per Si atom -5567.726481 kJ/mol
# Density = 1.533954 g / cm^3
# Si number density = 15.374538 Si / 1000 Ang^3
#
#
#
# Elastic Constant Matrix: (Units=GPa)
#
#
# Indices 1 2 3 4 5 6 
#
# 1 148.3862 -71.0702 20.0363 0.0000 0.0000 0.0000
# 2 -71.0702 148.3862 20.0363 0.0000 0.0000 0.0000
# 3 20.0363 20.0363 78.0952 0.0000 0.0000 0.0000
# 4 0.0000 0.0000 0.0000 13.8719 0.0000 0.0000
# 5 0.0000 0.0000 0.0000 0.0000 13.8719 0.0000
# 6 0.0000 0.0000 0.0000 0.0000 0.0000 8.4958
#
#
#
# Elastic Compliance Matrix: (Units=1/GPa)
#
#
# Indices 1 2 3 4 5 6 
#
# 1 0.009737 0.005180 -0.003827 0.000000 0.000000 0.000000
# 2 0.005180 0.009737 -0.003827 0.000000 0.000000 0.000000
# 3 -0.003827 -0.003827 0.014769 0.000000 0.000000 0.000000
# 4 0.000000 0.000000 0.000000 0.072088 0.000000 0.000000
# 5 0.000000 0.000000 0.000000 0.000000 0.072088 0.000000
# 6 0.000000 0.000000 0.000000 0.000000 0.000000 0.117705
#
#
# Mechanical properties :
#
#
# Convention : Reuss Voigt Hill
#
# Bulk Modulus (GPa) = 34.13578 34.76361 34.44969
# Shear Modulus (GPa) = 16.08556 34.30559 25.19557
#
# Velocity S-wave (km/s) = 3.23808 4.72881 4.05258
# Velocity P-wave (km/s) = 6.01924 7.24402 6.65984
#
# Compressibility (1/GPa) = 0.02929478
#
# Stress axis : x y z
#
# Youngs Moduli (GPa) = 102.69940 102.69940 67.71043
#
# Poissons Ratio (x) = -0.53203 0.25915
# Poissons Ratio (y) = -0.53203 0.25915
# Poissons Ratio (z) = 0.39306 0.39306
#
# Static dielectric constant tensor:
#      x y z
#    x 1.538360 0.000000 0.000000 
#    y 0.000000 1.538360 0.000000 
#    z 0.000000 0.000000 1.667650 
# 
# From -- ./inp_files/3438.got.cif
#   From: 2010.05.17/outbox.cif.g08.bks.cpg/sg124_2_cif.got.tgz:3438.got - 2010.05.20 11:49:17.
