data_PCOD9562065
_publ_section_title
;
Structure prediction by ZEFSAII (Michael W. Deem and Ramdas Pophale) SiO2 
 PCOD9562065
Probable space group: P 4/M M M
;
_chemical_formula_sum "Si O2"
_cell_formula_units_Z 96
_cell_length_a 25.337812
_cell_length_b 25.337812
_cell_length_c 8.768833
_cell_angle_alpha 90.000000
_cell_angle_beta 90.000000
_cell_angle_gamma 90.000000
_cell_volume 5629.632148
_symmetry_space_group_name_H-M "P 4/M M M"
_symmetry_group_IT_number 123
_symmetry_cell_setting 'tetragonal'
loop_
_space_group_symop_operation_xyz
x,y,z
-y,x,z
-x,-y,z
y,-x,z
x,-y,-z
-x,y,-z
y,x,-z
-y,-x,-z
-x,-y,-z
y,-x,-z
x,y,-z
-y,x,-z
-x,y,z
x,-y,z
-y,-x,z
y,x,z
loop_
_atom_site_type_symbol
_atom_site_label
_atom_site_fract_x
_atom_site_fract_y
_atom_site_fract_z
Si Si1 0.940500 0.803031 0.174698
Si Si2 0.353344 0.439488 0.682944
Si Si3 0.941338 0.311731 0.317701
Si Si4 0.158865 0.841136 0.672172
Si Si5 0.238336 0.238336 0.820148
Si Si6 0.560673 0.237961 0.817736
Si Si7 0.821627 0.659385 0.682225
O O1 0.941248 0.741717 0.220549
O O2 0.901295 0.829771 0.291270
O O3 0.000000 0.823165 0.186012
O O4 0.922432 0.809279 0.000000
O O5 0.345347 0.435102 0.500000
O O6 0.369236 0.500000 0.715040
O O7 0.398013 0.398013 0.728128
O O8 0.298027 0.429262 0.765017
O O9 0.939567 0.299941 0.500000
O O10 0.884572 0.337706 0.281016
O O11 0.000000 0.337188 0.291275
O O12 0.173144 0.826857 0.500000
O O13 0.194358 0.805643 0.782884
O O14 0.213404 0.292383 0.751234
O O15 0.245602 0.245602 0.000000
O O16 0.500000 0.225235 0.773292
O O17 0.604398 0.201441 0.741577
O O18 0.564625 0.234455 0.000000
O O19 0.816740 0.662960 0.500000
#
# Coordination Sequence:
#
# PCOD9562065 Si02
#       7
#    16  16  16   8   8  16  16
#     4  10  20  33  51  75 103 139 181 223 270 323
#     4   9  18  33  53  77 105 137 176 223 272 324
#     4   9  18  33  53  78 109 142 175 215 266 325
#     4  12  22  34  52  75 109 146 180 221 270 324
#     4  12  24  36  52  80 117 149 179 221 270 324
#     4  10  22  39  57  77 105 144 187 228 272 323
#     4  11  22  36  57  83 112 144 180 223 272 328
#
# _framework density 17.052623000000001
#
# number of rings (size 3 to 8) (size 9 to 14) (size 15 to 20)
#    0.000    1.833    1.667    3.000    1.167    3.167 
#    0.000    0.833    0.000    0.750    0.000    7.583 
#    0.000    0.000    0.000    0.000    0.000    0.000 
#
# Total GULP energy -535179.128672 kJ/mol
# GULP energy per Si atom -5574.782590 kJ/mol
# Density = 1.701381 g / cm^3
# Si number density = 17.052623 Si / 1000 Ang^3
#
#
#
# Elastic Constant Matrix: (Units=GPa)
#
#
# Indices 1 2 3 4 5 6 
#
# 1 105.4780 79.4465 40.8142 0.0000 0.0000 0.0000
# 2 79.4465 105.4780 40.8140 0.0000 0.0000 0.0000
# 3 40.8142 40.8140 47.9697 0.0000 0.0000 0.0000
# 4 0.0000 0.0000 0.0000 1353.0899 0.0000 0.0000
# 5 0.0000 0.0000 0.0000 0.0000 1315.1478 0.0000
# 6 0.0000 0.0000 0.0000 0.0000 0.0000 22.6555
#
#
#
# Elastic Compliance Matrix: (Units=1/GPa)
#
#
# Indices 1 2 3 4 5 6 
#
# 1 0.023538 -0.014877 -0.007368 0.000000 0.000000 0.000000
# 2 -0.014877 0.023537 -0.007368 0.000000 0.000000 0.000000
# 3 -0.007368 -0.007368 0.033385 0.000000 0.000000 0.000000
# 4 0.000000 0.000000 0.000000 0.000739 0.000000 0.000000
# 5 0.000000 0.000000 0.000000 0.000000 0.000760 0.000000
# 6 0.000000 0.000000 0.000000 0.000000 0.000000 0.044139
#
#
# Mechanical properties :
#
#
# Convention : Reuss Voigt Hill
#
# Bulk Modulus (GPa) = 47.09892 64.56388 55.83140
# Shear Modulus (GPa) = 25.98702 544.70204 285.34453
#
# Velocity S-wave (km/s) = 3.90799 17.89183 12.94971
# Velocity P-wave (km/s) = 6.93130 21.55846 16.01265
#
# Compressibility (1/GPa) = 0.02123191
#
# Stress axis : x y z
#
# Youngs Moduli (GPa) = 42.48531 42.48553 29.95377
#
# Poissons Ratio (x) = 0.63208 0.22071
# Poissons Ratio (y) = 0.63207 0.22070
# Poissons Ratio (z) = 0.31305 0.31304
#
# Static dielectric constant tensor:
#      x y z
#    x 1.582820 0.000000 0.000000 
#    y 0.000000 1.582820 0.000000 
#    z 0.000000 0.000000 1.574770 
# 
# From -- ./inp_files/1668.got.cif
#   From: 2010.05.17/outbox.cif.g08.bks.cpg/sg123_1_cif.got.tgz:1668.got - 2010.05.20 11:43:04.
