data_PCOD9562397
_publ_section_title
;
Structure prediction by ZEFSAII (Michael W. Deem and Ramdas Pophale) SiO2 
 PCOD9562397
Probable space group: P 4/M C C
;
_chemical_formula_sum "Si O2"
_cell_formula_units_Z 112
_cell_length_a 19.231724
_cell_length_b 19.231724
_cell_length_c 15.203560
_cell_angle_alpha 90.000000
_cell_angle_beta 90.000000
_cell_angle_gamma 90.000000
_cell_volume 5623.176661
_symmetry_space_group_name_H-M "P 4/M C C"
_symmetry_group_IT_number 124
_symmetry_cell_setting 'tetragonal'
loop_
_space_group_symop_operation_xyz
x,y,z
-y,x,z
-x,-y,z
y,-x,z
x,-y,1/2-z
-x,y,1/2-z
y,x,1/2-z
-y,-x,1/2-z
-x,-y,-z
y,-x,-z
x,y,-z
-y,x,-z
-x,y,1/2+z
x,-y,1/2+z
-y,-x,1/2+z
y,x,1/2+z
loop_
_atom_site_type_symbol
_atom_site_label
_atom_site_fract_x
_atom_site_fract_y
_atom_site_fract_z
Si Si1 0.582272 0.425096 0.855935
Si Si2 0.288655 0.916502 0.860497
Si Si3 0.169298 0.574766 0.602965
Si Si4 0.334070 0.707075 0.103657
Si Si5 0.201382 0.787669 0.148409
Si Si6 0.702701 0.071383 0.648183
Si Si7 0.460012 0.929869 0.393507
O O1 0.595178 0.504194 0.885638
O O2 0.578039 0.421962 0.750000
O O3 0.639878 0.370699 0.884696
O O4 0.364103 0.888287 0.889652
O O5 0.234253 0.857874 0.891855
O O6 0.290016 0.921274 0.754040
O O7 0.275726 0.995656 0.887183
O O8 0.182971 0.561510 0.500000
O O9 0.239933 0.607282 0.640919
O O10 0.135471 0.505102 0.639779
O O11 0.261415 0.729093 0.145237
O O12 0.326262 0.721392 0.000000
O O13 0.191439 0.808562 0.250000
O O14 0.132573 0.751521 0.111632
O O15 0.620298 0.076393 0.631141
O O16 0.463130 0.930848 0.500000
O O17 0.500000 0.000000 0.363372
#
# Coordination Sequence:
#
# PCOD9562397 Si02
#       7
#    16  16  16  16  16  16  16
#     4   9  19  36  55  72  93 127 169 211 258 308
#     4   9  18  33  50  72  98 129 169 207 251 294
#     4   9  18  33  48  68 102 139 163 195 255 308
#     4  10  20  33  51  74 102 131 165 212 256 301
#     4   9  19  35  52  71 101 134 167 207 253 309
#     4  10  19  31  51  75  97 130 171 211 249 296
#     4  10  19  31  48  72 104 138 167 201 250 308
#
# _framework density 19.917567999999999
#
# number of rings (size 3 to 8) (size 9 to 14) (size 15 to 20)
#    0.000    2.571    1.429    0.857    0.000    2.857 
#    0.000    5.000    0.000    0.429    0.000    3.000 
#    0.000    0.000    0.000    8.429    0.000    8.857 
#
# Total GULP energy -624529.656825 kJ/mol
# GULP energy per Si atom -5576.157650 kJ/mol
# Density = 1.987223 g / cm^3
# Si number density = 19.917568 Si / 1000 Ang^3
#
#
#
# Elastic Constant Matrix: (Units=GPa)
#
#
# Indices 1 2 3 4 5 6 
#
# 1 104.4083 70.8536 -8.3816 0.0000 0.0000 0.0000
# 2 70.8536 104.4067 -8.3819 0.0000 0.0000 0.0000
# 3 -8.3816 -8.3819 34.3582 0.0000 0.0000 0.0000
# 4 0.0000 0.0000 0.0000 -20.1357 0.0000 0.0000
# 5 0.0000 0.0000 0.0000 0.0000 -20.1354 0.0000
# 6 0.0000 0.0000 0.0000 0.0000 0.0000 29.3270
#
#
#
# Elastic Compliance Matrix: (Units=1/GPa)
#
#
# Indices 1 2 3 4 5 6 
#
# 1 0.017822 -0.011980 0.001425 0.000000 0.000000 0.000000
# 2 -0.011980 0.017823 0.001425 0.000000 0.000000 0.000000
# 3 0.001425 0.001425 0.029800 0.000000 0.000000 0.000000
# 4 0.000000 0.000000 0.000000 -0.049663 0.000000 0.000000
# 5 0.000000 0.000000 0.000000 0.000000 -0.049664 0.000000
# 6 0.000000 0.000000 0.000000 0.000000 0.000000 0.034098
#
#
# Mechanical properties :
#
#
# Convention : Reuss Voigt Hill
#
# Bulk Modulus (GPa) = 21.19299 39.03928 30.11613
# Shear Modulus (GPa) = 146.17576 10.41671 78.29623
#
# Velocity S-wave (km/s) = 8.57611 2.28938 6.27658
# Velocity P-wave (km/s) = 10.42735 5.16055 8.22682
#
# Compressibility (1/GPa) = 0.04718541
#
# Stress axis : x y z
#
# Youngs Moduli (GPa) = 56.10946 56.10847 33.55650
#
# Poissons Ratio (x) = 0.67220 -0.04782
# Poissons Ratio (y) = 0.67221 -0.04783
# Poissons Ratio (z) = -0.07996 -0.07998
#
# Static dielectric constant tensor:
#      x y z
#    x 1.712540 0.000000 0.000000 
#    y 0.000000 1.712540 0.000000 
#    z 0.000000 0.000000 1.749620 
# 
# From -- ./inp_files/5534.got.cif
#   From: 2010.05.17/outbox.cif.g08.bks.cpg/sg124_3_cif.got.tgz:5534.got - 2010.05.20 11:49:17.
