data_PCOD9562843
_publ_section_title
;
Structure prediction by ZEFSAII (Michael W. Deem and Ramdas Pophale) SiO2 
 PCOD9562843
Probable space group: P 4/M C C
;
_chemical_formula_sum "Si O2"
_cell_formula_units_Z 64
_cell_length_a 10.638390
_cell_length_b 10.638390
_cell_length_c 28.012188
_cell_angle_alpha 90.000000
_cell_angle_beta 90.000000
_cell_angle_gamma 90.000000
_cell_volume 3170.288951
_symmetry_space_group_name_H-M "P 4/M C C"
_symmetry_group_IT_number 124
_symmetry_cell_setting 'tetragonal'
loop_
_space_group_symop_operation_xyz
x,y,z
-y,x,z
-x,-y,z
y,-x,z
x,-y,1/2-z
-x,y,1/2-z
y,x,1/2-z
-y,-x,1/2-z
-x,-y,-z
y,-x,-z
x,y,-z
-y,x,-z
-x,y,1/2+z
x,-y,1/2+z
-y,-x,1/2+z
y,x,1/2+z
loop_
_atom_site_type_symbol
_atom_site_label
_atom_site_fract_x
_atom_site_fract_y
_atom_site_fract_z
Si Si1 0.503686 0.288085 0.802887
Si Si2 0.181674 0.101589 0.443158
Si Si3 0.405575 0.903971 0.121641
Si Si4 0.001557 0.209363 0.805817
O O1 0.623713 0.381310 0.804642
O O2 0.500000 0.226009 0.750000
O O3 0.519430 0.197976 0.847642
O O4 0.199373 0.112694 0.500000
O O5 0.164513 0.952664 0.431677
O O6 0.300470 0.150026 0.413849
O O7 0.327999 0.983549 0.160977
O O8 0.500000 0.000000 0.096142
O O9 0.880298 0.122476 0.814671
O O10 0.000000 0.242273 0.750000
#
# Coordination Sequence:
#
# PCOD9562843 Si02
#       4
#    16  16  16  16
#     4   9  22  42  58  74 112 167 210 241 278 333
#     4   9  20  42  68  90 118 154 189 239 313 376
#     4  12  25  31  58  91 117 148 198 246 288 344
#     4   9  20  36  53  77 116 155 187 239 306 357
#
# _framework density 20.187434
#
# number of rings (size 3 to 8) (size 9 to 14) (size 15 to 20)
#    0.000    2.250    0.000    3.750   10.500    4.500 
#    0.000    0.000    0.000    0.000    0.000    1.750 
#    0.000    0.000    0.000    0.000    0.000    0.000 
#
# Total GULP energy -357580.198220 kJ/mol
# GULP energy per Si atom -5587.190597 kJ/mol
# Density = 2.014149 g / cm^3
# Si number density = 20.187434 Si / 1000 Ang^3
#
#
#
# Elastic Constant Matrix: (Units=GPa)
#
#
# Indices 1 2 3 4 5 6 
#
# 1 91.1593 -40.8760 13.3022 0.0000 0.0000 0.0000
# 2 -40.8760 91.1593 13.3022 0.0000 0.0000 0.0000
# 3 13.3022 13.3022 58.1466 0.0000 0.0000 0.0000
# 4 0.0000 0.0000 0.0000 22.2692 0.0000 0.0000
# 5 0.0000 0.0000 0.0000 0.0000 22.2692 0.0000
# 6 0.0000 0.0000 0.0000 0.0000 0.0000 4.6089
#
#
#
# Elastic Compliance Matrix: (Units=1/GPa)
#
#
# Indices 1 2 3 4 5 6 
#
# 1 0.015100 0.007526 -0.005176 0.000000 0.000000 0.000000
# 2 0.007526 0.015100 -0.005176 0.000000 0.000000 0.000000
# 3 -0.005176 -0.005176 0.019566 0.000000 0.000000 0.000000
# 4 0.000000 0.000000 0.000000 0.044905 0.000000 0.000000
# 5 0.000000 0.000000 0.000000 0.000000 0.044905 0.000000
# 6 0.000000 0.000000 0.000000 0.000000 0.000000 0.216970
#
#
# Mechanical properties :
#
#
# Convention : Reuss Voigt Hill
#
# Bulk Modulus (GPa) = 22.66876 23.54688 23.10782
# Shear Modulus (GPa) = 13.26601 26.81191 20.03896
#
# Velocity S-wave (km/s) = 2.56626 3.64833 3.15405
# Velocity P-wave (km/s) = 4.47598 5.42555 4.97348
#
# Compressibility (1/GPa) = 0.04411358
#
# Stress axis : x y z
#
# Youngs Moduli (GPa) = 66.22578 66.22578 51.10849
#
# Poissons Ratio (x) = -0.49842 0.26455
# Poissons Ratio (y) = -0.49842 0.26455
# Poissons Ratio (z) = 0.34279 0.34279
#
# Static dielectric constant tensor:
#      x y z
#    x 1.734060 0.000000 0.000000 
#    y 0.000000 1.734060 0.000000 
#    z 0.000000 0.000000 1.713610 
# 
# From -- ./inp_files/6398.got.cif
#   From: 2010.05.17/outbox.cif.g08.bks.cpg/sg124_4_cif.got.tgz:6398.got - 2010.05.20 11:49:17.
