data_PCOD9562620
_publ_section_title
;
Structure prediction by ZEFSAII (Michael W. Deem and Ramdas Pophale) SiO2 
 PCOD9562620
Probable space group: P 4/M C C
;
_chemical_formula_sum "Si O2"
_cell_formula_units_Z 96
_cell_length_a 14.973786
_cell_length_b 14.973786
_cell_length_c 19.974265
_cell_angle_alpha 90.000000
_cell_angle_beta 90.000000
_cell_angle_gamma 90.000000
_cell_volume 4478.515189
_symmetry_space_group_name_H-M "P 4/M C C"
_symmetry_group_IT_number 124
_symmetry_cell_setting 'tetragonal'
loop_
_space_group_symop_operation_xyz
x,y,z
-y,x,z
-x,-y,z
y,-x,z
x,-y,1/2-z
-x,y,1/2-z
y,x,1/2-z
-y,-x,1/2-z
-x,-y,-z
y,-x,-z
x,y,-z
-y,x,-z
-x,y,1/2+z
x,-y,1/2+z
-y,-x,1/2+z
y,x,1/2+z
loop_
_atom_site_type_symbol
_atom_site_label
_atom_site_fract_x
_atom_site_fract_y
_atom_site_fract_z
Si Si1 0.099990 0.670048 0.747697
Si Si2 0.891372 0.747777 0.394924
Si Si3 0.720609 0.410654 0.284617
Si Si4 0.599865 0.889570 0.000000
Si Si5 0.602696 0.894061 0.500000
Si Si6 0.362806 0.563901 0.425234
Si Si7 0.900456 0.752272 0.104831
O O1 0.115852 0.721455 0.817033
O O2 0.175960 0.598802 0.732784
O O3 0.103644 0.735616 0.684154
O O4 0.000000 0.631401 0.750000
O O5 0.863237 0.659638 0.436331
O O6 0.830024 0.831621 0.412364
O O7 0.995164 0.768704 0.411162
O O8 0.683630 0.500000 0.250000
O O9 0.672591 0.327410 0.250000
O O10 0.698243 0.411014 0.362871
O O11 0.497991 0.857407 0.000000
O O12 0.594921 0.997522 0.000000
O O13 0.662952 0.873386 0.435348
O O14 0.385875 0.458372 0.420182
O O15 0.327783 0.583226 0.500000
#
# Coordination Sequence:
#
# PCOD9562620 Si02
#       7
#    16  16  16   8   8  16  16
#     4  10  24  44  64  86 120 172 226 272 321 382
#     4  10  20  38  65  94 129 168 210 274 329 393
#     4  12  23  37  64  98 134 176 225 275 333 404
#     4   9  19  36  61  89 125 169 213 255 311 378
#     4   9  19  36  59  89 125 171 213 253 307 380
#     4   9  18  36  63  97 140 182 216 262 329 409
#     4  10  20  38  63  94 130 166 215 266 330 393
#
# _framework density 21.435673999999999
#
# number of rings (size 3 to 8) (size 9 to 14) (size 15 to 20)
#    0.000    2.000    1.667    2.500    0.000    2.167 
#    1.500    3.333    3.667    6.000    0.000    0.000 
#    0.000    5.333    0.000    0.000    0.000    0.000 
#
# Total GULP energy -536667.458381 kJ/mol
# GULP energy per Si atom -5590.286025 kJ/mol
# Density = 2.138689 g / cm^3
# Si number density = 21.435674 Si / 1000 Ang^3
#
#
#
# Elastic Constant Matrix: (Units=GPa)
#
#
# Indices 1 2 3 4 5 6 
#
# 1 121.9875 68.5406 63.2811 0.0000 0.0000 0.0000
# 2 68.5406 121.9902 63.2809 0.0000 0.0000 0.0000
# 3 63.2811 63.2809 161.6935 0.0000 0.0000 0.0000
# 4 0.0000 0.0000 0.0000 -1.3677 0.0000 0.0000
# 5 0.0000 0.0000 0.0000 0.0000 -1.3676 0.0000
# 6 0.0000 0.0000 0.0000 0.0000 0.0000 26.3094
#
#
#
# Elastic Compliance Matrix: (Units=1/GPa)
#
#
# Indices 1 2 3 4 5 6 
#
# 1 0.012901 -0.005809 -0.002776 0.000000 0.000000 0.000000
# 2 -0.005809 0.012901 -0.002776 0.000000 0.000000 0.000000
# 3 -0.002776 -0.002776 0.008357 0.000000 0.000000 0.000000
# 4 0.000000 0.000000 0.000000 -0.731164 0.000000 0.000000
# 5 0.000000 0.000000 0.000000 0.000000 -0.731199 0.000000
# 6 0.000000 0.000000 0.000000 0.000000 0.000000 0.038009
#
#
# Mechanical properties :
#
#
# Convention : Reuss Voigt Hill
#
# Bulk Modulus (GPa) = 87.41973 88.43072 87.92523
# Shear Modulus (GPa) = -3.66660 18.75273 7.54307
#
# Velocity S-wave (km/s) = -1.30928 2.96097 1.87792
# Velocity P-wave (km/s) = 6.21170 7.28240 6.76826
#
# Compressibility (1/GPa) = 0.01143906
#
# Stress axis : x y z
#
# Youngs Moduli (GPa) = 77.51221 77.51451 119.65814
#
# Poissons Ratio (x) = 0.45026 0.33214
# Poissons Ratio (y) = 0.45024 0.33212
# Poissons Ratio (z) = 0.21516 0.21515
#
# Static dielectric constant tensor:
#      x y z
#    x 1.771060 0.000000 0.000000 
#    y 0.000000 1.771050 0.000000 
#    z 0.000000 0.000000 1.770880 
# 
# From -- ./inp_files/5368.got.cif
#   From: 2010.05.17/outbox.cif.g08.bks.cpg/sg124_3_cif.got.tgz:5368.got - 2010.05.20 11:49:17.
