data_PCOD9562412
_publ_section_title
;
Structure prediction by ZEFSAII (Michael W. Deem and Ramdas Pophale) SiO2 
 PCOD9562412
Probable space group: P 4/M C C
;
_chemical_formula_sum "Si O2"
_cell_formula_units_Z 88
_cell_length_a 19.367476
_cell_length_b 19.367476
_cell_length_c 15.049026
_cell_angle_alpha 90.000000
_cell_angle_beta 90.000000
_cell_angle_gamma 90.000000
_cell_volume 5644.876509
_symmetry_space_group_name_H-M "P 4/M C C"
_symmetry_group_IT_number 124
_symmetry_cell_setting 'tetragonal'
loop_
_space_group_symop_operation_xyz
x,y,z
-y,x,z
-x,-y,z
y,-x,z
x,-y,1/2-z
-x,y,1/2-z
y,x,1/2-z
-y,-x,1/2-z
-x,-y,-z
y,-x,-z
x,y,-z
-y,x,-z
-x,y,1/2+z
x,-y,1/2+z
-y,-x,1/2+z
y,x,1/2+z
loop_
_atom_site_type_symbol
_atom_site_label
_atom_site_fract_x
_atom_site_fract_y
_atom_site_fract_z
Si Si1 0.156046 0.936897 0.194550
Si Si2 0.664182 0.928624 0.103290
Si Si3 0.907708 0.643149 0.099364
Si Si4 0.507799 0.917402 0.149933
Si Si5 0.970509 0.111187 0.500000
Si Si6 0.728196 0.835306 0.742605
O O1 0.087966 0.912035 0.250000
O O2 0.207548 0.873980 0.197176
O O3 0.185896 0.000000 0.250000
O O4 0.147361 0.958802 0.093463
O O5 0.584023 0.904658 0.112529
O O6 0.708319 0.878469 0.167879
O O7 0.662065 0.011834 0.125833
O O8 0.685902 0.923667 0.000000
O O9 0.898386 0.560573 0.096743
O O10 0.853709 0.668843 0.172466
O O11 0.897297 0.671571 0.000000
O O12 0.500000 0.889688 0.250000
O O13 0.500000 0.000000 0.155173
O O14 0.047180 0.081706 0.500000
O O15 0.756779 0.756779 0.750000
#
# Coordination Sequence:
#
# PCOD9562412 Si02
#       6
#    16  16  16  16   8  16
#     4  11  22  37  49  65  86 105 142 196 244 292
#     4  10  19  34  54  74  94 121 155 196 245 293
#     4  10  19  32  52  76  94 117 151 195 242 285
#     4   9  15  27  52  78 102 115 137 187 244 288
#     4  11  22  36  58  70  74 100 141 201 279 313
#     4  11  24  37  45  61  92 128 159 188 224 277
#
# _framework density 15.589358000000001
#
# number of rings (size 3 to 8) (size 9 to 14) (size 15 to 20)
#    0.000    1.727    3.636    2.182    1.273    3.091 
#    6.545    0.000    0.000    0.000    0.000    0.000 
#    0.000    0.000    0.000    0.000    0.000    7.273 
#
# Total GULP energy -489898.416833 kJ/mol
# GULP energy per Si atom -5567.027464 kJ/mol
# Density = 1.555388 g / cm^3
# Si number density = 15.589358 Si / 1000 Ang^3
#
#
#
# Elastic Constant Matrix: (Units=GPa)
#
#
# Indices 1 2 3 4 5 6 
#
# 1 44.7600 13.9811 24.2503 0.0000 0.0000 0.0000
# 2 13.9811 44.7599 24.2502 0.0000 0.0000 0.0000
# 3 24.2503 24.2502 116.9691 0.0000 0.0000 0.0000
# 4 0.0000 0.0000 0.0000 17.2795 0.0000 0.0000
# 5 0.0000 0.0000 0.0000 0.0000 17.2819 0.0000
# 6 0.0000 0.0000 0.0000 0.0000 0.0000 13.6953
#
#
#
# Elastic Compliance Matrix: (Units=1/GPa)
#
#
# Indices 1 2 3 4 5 6 
#
# 1 0.026515 -0.005975 -0.004258 0.000000 0.000000 0.000000
# 2 -0.005975 0.026515 -0.004258 0.000000 0.000000 0.000000
# 3 -0.004258 -0.004258 0.010315 0.000000 0.000000 0.000000
# 4 0.000000 0.000000 0.000000 0.057872 0.000000 0.000000
# 5 0.000000 0.000000 0.000000 0.000000 0.057864 0.000000
# 6 0.000000 0.000000 0.000000 0.000000 0.000000 0.073018
#
#
# Mechanical properties :
#
#
# Convention : Reuss Voigt Hill
#
# Bulk Modulus (GPa) = 29.10255 36.82801 32.96528
# Shear Modulus (GPa) = 17.09194 19.25184 18.17189
#
# Velocity S-wave (km/s) = 3.31476 3.51798 3.41788
# Velocity P-wave (km/s) = 5.77572 6.33850 6.06365
#
# Compressibility (1/GPa) = 0.03436125
#
# Stress axis : x y z
#
# Youngs Moduli (GPa) = 37.71476 37.71469 96.94651
#
# Poissons Ratio (x) = 0.22534 0.41283
# Poissons Ratio (y) = 0.22534 0.41283
# Poissons Ratio (z) = 0.16060 0.16060
#
# Static dielectric constant tensor:
#      x y z
#    x 1.590440 0.000000 0.000000 
#    y 0.000000 1.590440 0.000000 
#    z 0.000000 0.000000 1.582810 
# 
# From -- ./inp_files/3191.got.cif
#   From: 2010.05.17/outbox.cif.g08.bks.cpg/sg124_2_cif.got.tgz:3191.got - 2010.05.20 11:49:17.
