data_PCOD9562672
_publ_section_title
;
Structure prediction by ZEFSAII (Michael W. Deem and Ramdas Pophale) SiO2 
 PCOD9562672
Probable space group: P 4/M C C
;
_chemical_formula_sum "Si O2"
_cell_formula_units_Z 120
_cell_length_a 16.858242
_cell_length_b 16.858242
_cell_length_c 20.950051
_cell_angle_alpha 90.000000
_cell_angle_beta 90.000000
_cell_angle_gamma 90.000000
_cell_volume 5954.011268
_symmetry_space_group_name_H-M "P 4/M C C"
_symmetry_group_IT_number 124
_symmetry_cell_setting 'tetragonal'
loop_
_space_group_symop_operation_xyz
x,y,z
-y,x,z
-x,-y,z
y,-x,z
x,-y,1/2-z
-x,y,1/2-z
y,x,1/2-z
-y,-x,1/2-z
-x,-y,-z
y,-x,-z
x,y,-z
-y,x,-z
-x,y,1/2+z
x,-y,1/2+z
-y,-x,1/2+z
y,x,1/2+z
loop_
_atom_site_type_symbol
_atom_site_label
_atom_site_fract_x
_atom_site_fract_y
_atom_site_fract_z
Si Si1 0.667070 0.334278 0.174463
Si Si2 0.257370 0.068601 0.353138
Si Si3 0.501882 0.749252 0.325506
Si Si4 0.709387 0.913016 0.929047
Si Si5 0.741336 0.219174 0.072504
Si Si6 0.080187 0.454797 0.633407
Si Si7 0.360922 0.000000 0.750000
Si Si8 0.884947 0.933584 0.571189
O O1 0.681526 0.318475 0.250000
O O2 0.576297 0.308329 0.162028
O O3 0.698475 0.422635 0.160466
O O4 0.714208 0.279027 0.126639
O O5 0.289724 0.134547 0.401942
O O6 0.304282 0.063142 0.287096
O O7 0.164400 0.085337 0.364723
O O8 0.267542 0.980819 0.380253
O O9 0.500000 0.765400 0.250000
O O10 0.503119 0.837847 0.356212
O O11 0.765244 0.836353 0.927285
O O12 0.618230 0.894887 0.911877
O O13 0.713647 0.946279 0.000000
O O14 0.714459 0.234375 0.000000
O O15 0.000000 0.500000 0.609982
O O16 0.048215 0.415088 0.699794
O O17 0.848616 0.915323 0.500000
O O18 0.971751 0.897001 0.571480
#
# Coordination Sequence:
#
# PCOD9562672 Si02
#       8
#    16  16  16  16  16  16   8  16
#     4  10  23  40  66  95 124 163 211 265 334 401
#     4  11  22  35  57  84 118 166 213 257 317 377
#     4  10  21  39  65  95 126 163 208 265 323 394
#     4  10  22  39  58  88 128 163 206 264 321 376
#     4  11  23  40  62  92 133 172 217 274 332 393
#     4  11  22  39  62  89 123 167 205 254 317 388
#     4  10  25  38  56  85 122 164 212 262 309 388
#     4   9  17  32  55  79 106 148 203 258 311 369
#
# _framework density 20.15448
#
# number of rings (size 3 to 8) (size 9 to 14) (size 15 to 20)
#    0.000    1.733    1.333    3.400    7.467    2.667 
#    0.000    6.000    0.000    0.800    0.000    0.933 
#    0.000    0.000    0.000    0.000    0.000    0.000 
#
# Total GULP energy -668426.835551 kJ/mol
# GULP energy per Si atom -5570.223630 kJ/mol
# Density = 2.010861 g / cm^3
# Si number density = 20.154480 Si / 1000 Ang^3
#
#
#
# Elastic Constant Matrix: (Units=GPa)
#
#
# Indices 1 2 3 4 5 6 
#
# 1 88.2724 26.0348 18.0661 0.0000 0.0000 0.0000
# 2 26.0348 88.2726 18.0658 0.0000 0.0000 0.0000
# 3 18.0661 18.0658 48.5781 0.0000 0.0000 0.0000
# 4 0.0000 0.0000 0.0000 -13.2918 0.0000 0.0000
# 5 0.0000 0.0000 0.0000 0.0000 -13.2797 0.0000
# 6 0.0000 0.0000 0.0000 0.0000 0.0000 19.4314
#
#
#
# Elastic Compliance Matrix: (Units=1/GPa)
#
#
# Indices 1 2 3 4 5 6 
#
# 1 0.012991 -0.003077 -0.003687 0.000000 0.000000 0.000000
# 2 -0.003077 0.012991 -0.003687 0.000000 0.000000 0.000000
# 3 -0.003687 -0.003687 0.023328 0.000000 0.000000 0.000000
# 4 0.000000 0.000000 0.000000 -0.075235 0.000000 0.000000
# 5 0.000000 0.000000 0.000000 0.000000 -0.075303 0.000000
# 6 0.000000 0.000000 0.000000 0.000000 0.000000 0.051463
#
#
# Mechanical properties :
#
#
# Convention : Reuss Voigt Hill
#
# Bulk Modulus (GPa) = 35.20174 38.82850 37.01512
# Shear Modulus (GPa) = -257.80096 9.43573 -124.18261
#
# Velocity S-wave (km/s) = -11.32211 2.16607 -7.85806
# Velocity P-wave (km/s) = 12.38614 5.05600 7.99541
#
# Compressibility (1/GPa) = 0.02840768
#
# Stress axis : x y z
#
# Youngs Moduli (GPa) = 76.97865 76.97899 42.86751
#
# Poissons Ratio (x) = 0.23685 0.15805
# Poissons Ratio (y) = 0.23685 0.15804
# Poissons Ratio (z) = 0.28381 0.28381
#
# Static dielectric constant tensor:
#      x y z
#    x 1.781980 0.000000 0.000000 
#    y 0.000000 1.781980 0.000000 
#    z 0.000000 0.000000 1.741990 
# 
# From -- ./inp_files/5597.got.cif
#   From: 2010.05.17/outbox.cif.g08.bks.cpg/sg124_3_cif.got.tgz:5597.got - 2010.05.20 11:49:17.
