data_PCOD9562457
_publ_section_title
;
Structure prediction by ZEFSAII (Michael W. Deem and Ramdas Pophale) SiO2 
 PCOD9562457
Probable space group: P 4/M C C
;
_chemical_formula_sum "Si O2"
_cell_formula_units_Z 80
_cell_length_a 15.681223
_cell_length_b 15.681223
_cell_length_c 13.785583
_cell_angle_alpha 90.000000
_cell_angle_beta 90.000000
_cell_angle_gamma 90.000000
_cell_volume 3389.885265
_symmetry_space_group_name_H-M "P 4/M C C"
_symmetry_group_IT_number 124
_symmetry_cell_setting 'tetragonal'
loop_
_space_group_symop_operation_xyz
x,y,z
-y,x,z
-x,-y,z
y,-x,z
x,-y,1/2-z
-x,y,1/2-z
y,x,1/2-z
-y,-x,1/2-z
-x,-y,-z
y,-x,-z
x,y,-z
-y,x,-z
-x,y,1/2+z
x,-y,1/2+z
-y,-x,1/2+z
y,x,1/2+z
loop_
_atom_site_type_symbol
_atom_site_label
_atom_site_fract_x
_atom_site_fract_y
_atom_site_fract_z
Si Si1 0.959667 0.770377 0.391713
Si Si2 0.288140 0.353330 0.881823
Si Si3 0.783255 0.850282 0.380775
Si Si4 0.545053 0.245893 0.618296
Si Si5 0.577805 0.051272 0.350193
O O1 0.964444 0.808800 0.500000
O O2 0.870936 0.804876 0.351294
O O3 0.952042 0.668991 0.399090
O O4 0.052234 0.785184 0.346510
O O5 0.205978 0.298010 0.849581
O O6 0.374877 0.304812 0.852860
O O7 0.281893 0.452285 0.854073
O O8 0.287474 0.352244 0.000000
O O9 0.778690 0.851103 0.500000
O O10 0.547359 0.239271 0.500000
O O11 0.554729 0.150227 0.657388
O O12 0.500000 0.000000 0.397844
O O13 0.589494 0.000000 0.250000
#
# Coordination Sequence:
#
# PCOD9562457 Si02
#       5
#    16  16  16  16  16
#     4  10  19  34  57  81 111 149 190 242 300 356
#     4   9  17  30  52  87 123 156 197 242 300 361
#     4   9  17  30  51  82 114 145 190 240 290 354
#     4  10  19  34  59  88 123 161 198 250 305 359
#     4  11  23  37  55  80 117 149 202 251 289 352
#
# _framework density 23.599619000000001
#
# number of rings (size 3 to 8) (size 9 to 14) (size 15 to 20)
#    0.000    2.200    2.000    1.800    0.000    4.000 
#    0.000    5.000    4.400    0.000    0.000    1.400 
#    0.000    7.200    0.000    0.000    0.000    0.000 
#
# Total GULP energy -447545.502681 kJ/mol
# GULP energy per Si atom -5594.318784 kJ/mol
# Density = 2.354591 g / cm^3
# Si number density = 23.599619 Si / 1000 Ang^3
#
#
#
# Elastic Constant Matrix: (Units=GPa)
#
#
# Indices 1 2 3 4 5 6 
#
# 1 188.6054 95.1852 12.9697 0.0000 0.0000 0.0000
# 2 95.1852 188.6054 12.9697 0.0000 0.0000 0.0000
# 3 12.9697 12.9697 83.3815 0.0000 0.0000 0.0000
# 4 0.0000 0.0000 0.0000 20.5349 0.0000 0.0000
# 5 0.0000 0.0000 0.0000 0.0000 20.5349 0.0000
# 6 0.0000 0.0000 0.0000 0.0000 0.0000 23.1380
#
#
#
# Elastic Compliance Matrix: (Units=1/GPa)
#
#
# Indices 1 2 3 4 5 6 
#
# 1 0.007139 -0.003565 -0.000556 0.000000 0.000000 0.000000
# 2 -0.003565 0.007139 -0.000556 0.000000 0.000000 0.000000
# 3 -0.000556 -0.000556 0.012166 0.000000 0.000000 0.000000
# 4 0.000000 0.000000 0.000000 0.048698 0.000000 0.000000
# 5 0.000000 0.000000 0.000000 0.000000 0.048698 0.000000
# 6 0.000000 0.000000 0.000000 0.000000 0.000000 0.043219
#
#
# Mechanical properties :
#
#
# Convention : Reuss Voigt Hill
#
# Bulk Modulus (GPa) = 58.50996 78.09348 68.30172
# Shear Modulus (GPa) = 27.45595 35.47275 31.46435
#
# Velocity S-wave (km/s) = 3.41458 3.88120 3.65534
# Velocity P-wave (km/s) = 6.35550 7.29711 6.84252
#
# Compressibility (1/GPa) = 0.01709111
#
# Stress axis : x y z
#
# Youngs Moduli (GPa) = 140.06715 140.06715 82.19601
#
# Poissons Ratio (x) = 0.49932 0.04570
# Poissons Ratio (y) = 0.49932 0.04570
# Poissons Ratio (z) = 0.07788 0.07788
#
# Static dielectric constant tensor:
#      x y z
#    x 1.825250 0.000000 0.000000 
#    y 0.000000 1.825250 0.000000 
#    z 0.000000 0.000000 2.028470 
# 
# From -- ./inp_files/5056.got.cif
#   From: 2010.05.17/outbox.cif.g08.bks.cpg/sg124_3_cif.got.tgz:5056.got - 2010.05.20 11:49:17.
