data_PCOD9562582
_publ_section_title
;
Structure prediction by ZEFSAII (Michael W. Deem and Ramdas Pophale) SiO2 
 PCOD9562582
Probable space group: P 4/M C C
;
_chemical_formula_sum "Si O2"
_cell_formula_units_Z 96
_cell_length_a 24.620990
_cell_length_b 24.620990
_cell_length_c 8.572412
_cell_angle_alpha 90.000000
_cell_angle_beta 90.000000
_cell_angle_gamma 90.000000
_cell_volume 5196.537421
_symmetry_space_group_name_H-M "P 4/M C C"
_symmetry_group_IT_number 124
_symmetry_cell_setting 'tetragonal'
loop_
_space_group_symop_operation_xyz
x,y,z
-y,x,z
-x,-y,z
y,-x,z
x,-y,1/2-z
-x,y,1/2-z
y,x,1/2-z
-y,-x,1/2-z
-x,-y,-z
y,-x,-z
x,y,-z
-y,x,-z
-x,y,1/2+z
x,-y,1/2+z
-y,-x,1/2+z
y,x,1/2+z
loop_
_atom_site_type_symbol
_atom_site_label
_atom_site_fract_x
_atom_site_fract_y
_atom_site_fract_z
Si Si1 0.642590 0.557988 0.686553
Si Si2 0.144361 0.354477 0.312094
Si Si3 0.767878 0.147065 0.813183
Si Si4 0.558207 0.232579 0.687519
Si Si5 0.938780 0.558116 0.813058
Si Si6 0.938752 0.853371 0.687100
O O1 0.623172 0.500000 0.750000
O O2 0.605549 0.605549 0.750000
O O3 0.641467 0.557408 0.500000
O O4 0.705078 0.564792 0.738825
O O5 0.142575 0.350782 0.500000
O O6 0.145669 0.294263 0.242418
O O7 0.196503 0.390678 0.264471
O O8 0.094681 0.391055 0.251589
O O9 0.800077 0.199924 0.750000
O O10 0.801480 0.095581 0.747133
O O11 0.770816 0.146548 0.000000
O O12 0.500000 0.212934 0.750000
O O13 0.555597 0.231228 0.500000
O O14 0.917322 0.500000 0.750000
O O15 0.000000 0.562292 0.750000
O O16 0.938086 0.557299 0.000000
O O17 0.905590 0.905590 0.750000
O O18 0.938504 0.853906 0.500000
O O19 0.000000 0.852542 0.750000
#
# Coordination Sequence:
#
# PCOD9562582 Si02
#       6
#    16  16  16  16  16  16
#     4  10  20  36  55  79 107 140 177 221 271 328
#     4  11  22  38  59  86 115 149 192 238 282 339
#     4  11  23  41  61  85 116 154 194 238 288 340
#     4   9  20  36  56  80 110 143 181 227 281 334
#     4  11  22  38  58  84 116 153 191 236 289 342
#     4  11  22  40  64  92 123 158 195 237 285 336
#
# _framework density 18.473839000000002
#
# number of rings (size 3 to 8) (size 9 to 14) (size 15 to 20)
#    0.000    1.500    0.000    7.500    0.000    5.000 
#    0.000    6.667    0.000    0.000    0.000    0.000 
#    0.000    0.000    0.000    0.000    0.000    0.000 
#
# Total GULP energy -536489.324097 kJ/mol
# GULP energy per Si atom -5588.430459 kJ/mol
# Density = 1.843179 g / cm^3
# Si number density = 18.473839 Si / 1000 Ang^3
#
#
#
# Elastic Constant Matrix: (Units=GPa)
#
#
# Indices 1 2 3 4 5 6 
#
# 1 167.4313 96.0033 61.3159 0.0000 0.0000 0.0000
# 2 96.0033 167.4284 61.3156 0.0000 0.0000 0.0000
# 3 61.3159 61.3156 138.7144 0.0000 0.0000 0.0000
# 4 0.0000 0.0000 0.0000 28.9937 0.0000 0.0000
# 5 0.0000 0.0000 0.0000 0.0000 28.9936 0.0000
# 6 0.0000 0.0000 0.0000 0.0000 0.0000 24.6794
#
#
#
# Elastic Compliance Matrix: (Units=1/GPa)
#
#
# Indices 1 2 3 4 5 6 
#
# 1 0.009390 -0.004610 -0.002113 0.000000 0.000000 0.000000
# 2 -0.004610 0.009390 -0.002113 0.000000 0.000000 0.000000
# 3 -0.002113 -0.002113 0.009077 0.000000 0.000000 0.000000
# 4 0.000000 0.000000 0.000000 0.034490 0.000000 0.000000
# 5 0.000000 0.000000 0.000000 0.000000 0.034490 0.000000
# 6 0.000000 0.000000 0.000000 0.000000 0.000000 0.040520
#
#
# Mechanical properties :
#
#
# Convention : Reuss Voigt Hill
#
# Bulk Modulus (GPa) = 98.18279 101.20485 99.69382
# Shear Modulus (GPa) = 31.56097 33.52931 32.54514
#
# Velocity S-wave (km/s) = 4.13778 4.26486 4.20180
# Velocity P-wave (km/s) = 8.72299 8.89684 8.81035
#
# Compressibility (1/GPa) = 0.01018508
#
# Stress axis : x y z
#
# Youngs Moduli (GPa) = 106.49780 106.49578 110.17121
#
# Poissons Ratio (x) = 0.49099 0.23275
# Poissons Ratio (y) = 0.49100 0.23276
# Poissons Ratio (z) = 0.22499 0.22499
#
# Static dielectric constant tensor:
#      x y z
#    x 1.623400 0.000000 0.000000 
#    y 0.000000 1.623400 0.000000 
#    z 0.000000 0.000000 1.621170 
# 
# From -- ./inp_files/1322.got.cif
#   From: 2010.05.17/outbox.cif.g08.bks.cpg/sg124_1_cif.got.tgz:1322.got - 2010.05.20 11:49:17.
