data_PCOD9562444
_publ_section_title
;
Structure prediction by ZEFSAII (Michael W. Deem and Ramdas Pophale) SiO2 
 PCOD9562444
Probable space group: P 4/M C C
;
_chemical_formula_sum "Si O2"
_cell_formula_units_Z 96
_cell_length_a 24.063746
_cell_length_b 24.063746
_cell_length_c 8.973302
_cell_angle_alpha 90.000000
_cell_angle_beta 90.000000
_cell_angle_gamma 90.000000
_cell_volume 5196.114997
_symmetry_space_group_name_H-M "P 4/M C C"
_symmetry_group_IT_number 124
_symmetry_cell_setting 'tetragonal'
loop_
_space_group_symop_operation_xyz
x,y,z
-y,x,z
-x,-y,z
y,-x,z
x,-y,1/2-z
-x,y,1/2-z
y,x,1/2-z
-y,-x,1/2-z
-x,-y,-z
y,-x,-z
x,y,-z
-y,x,-z
-x,y,1/2+z
x,-y,1/2+z
-y,-x,1/2+z
y,x,1/2+z
loop_
_atom_site_type_symbol
_atom_site_label
_atom_site_fract_x
_atom_site_fract_y
_atom_site_fract_z
Si Si1 0.140957 0.756487 0.670777
Si Si2 0.786512 0.557162 0.670623
Si Si3 0.937012 0.147697 0.817286
Si Si4 0.237392 0.683222 0.180141
Si Si5 0.444521 0.920649 0.668690
Si Si6 0.952655 0.333510 0.336489
O O1 0.156010 0.774818 0.500000
O O2 0.105547 0.803852 0.757141
O O3 0.191154 0.726872 0.759135
O O4 0.099885 0.704831 0.655334
O O5 0.768012 0.500000 0.750000
O O6 0.767044 0.554695 0.500000
O O7 0.772090 0.619046 0.728960
O O8 0.853587 0.555940 0.670156
O O9 0.908416 0.091585 0.750000
O O10 0.000000 0.154260 0.750000
O O11 0.938474 0.147620 0.000000
O O12 0.294248 0.705753 0.250000
O O13 0.236656 0.684875 0.000000
O O14 0.500000 0.938662 0.750000
O O15 0.445217 0.939844 0.500000
O O16 0.389501 0.939651 0.750665
O O17 0.972909 0.346860 0.500000
O O18 0.000000 0.300845 0.250000
#
# Coordination Sequence:
#
# PCOD9562444 Si02
#       6
#    16  16  16  16  16  16
#     4  11  23  40  61  87 117 154 192 233 286 343
#     4   9  19  34  55  80 111 150 192 236 286 337
#     4  12  26  46  70  95 122 151 187 231 285 349
#     4  11  22  37  57  87 121 157 196 241 287 338
#     4  10  19  34  53  74 102 137 182 233 284 335
#     4  11  23  36  53  76 104 141 187 235 285 337
#
# _framework density 18.475342000000001
#
# number of rings (size 3 to 8) (size 9 to 14) (size 15 to 20)
#    0.000    1.333    1.667    4.500    0.000    5.833 
#    0.000    2.500    0.000    0.000    0.000    0.000 
#    0.000    0.333    0.000    3.667    0.000    2.667 
#
# Total GULP energy -535439.144967 kJ/mol
# GULP energy per Si atom -5577.491093 kJ/mol
# Density = 1.843329 g / cm^3
# Si number density = 18.475342 Si / 1000 Ang^3
#
#
#
# Elastic Constant Matrix: (Units=GPa)
#
#
# Indices 1 2 3 4 5 6 
#
# 1 97.5088 60.8139 48.4413 0.0000 0.0000 0.0000
# 2 60.8139 97.5169 48.4434 0.0000 0.0000 0.0000
# 3 48.4413 48.4434 140.6796 0.0000 0.0000 0.0000
# 4 0.0000 0.0000 0.0000 23.7108 0.0000 0.0000
# 5 0.0000 0.0000 0.0000 0.0000 23.7105 0.0000
# 6 0.0000 0.0000 0.0000 0.0000 0.0000 21.3662
#
#
#
# Elastic Compliance Matrix: (Units=1/GPa)
#
#
# Indices 1 2 3 4 5 6 
#
# 1 0.017626 -0.009623 -0.002756 0.000000 0.000000 0.000000
# 2 -0.009623 0.017625 -0.002755 0.000000 0.000000 0.000000
# 3 -0.002756 -0.002755 0.009006 0.000000 0.000000 0.000000
# 4 0.000000 0.000000 0.000000 0.042175 0.000000 0.000000
# 5 0.000000 0.000000 0.000000 0.000000 0.042175 0.000000
# 6 0.000000 0.000000 0.000000 0.000000 0.000000 0.046803
#
#
# Mechanical properties :
#
#
# Convention : Reuss Voigt Hill
#
# Bulk Modulus (GPa) = 71.48772 72.34470 71.91621
# Shear Modulus (GPa) = 23.77085 25.62461 24.69773
#
# Velocity S-wave (km/s) = 3.59085 3.72824 3.66019
# Velocity P-wave (km/s) = 7.48130 7.60101 7.54139
#
# Compressibility (1/GPa) = 0.01398842
#
# Stress axis : x y z
#
# Youngs Moduli (GPa) = 56.73369 56.73833 111.03632
#
# Poissons Ratio (x) = 0.54601 0.30597
# Poissons Ratio (y) = 0.54596 0.30596
# Poissons Ratio (z) = 0.15633 0.15634
#
# Static dielectric constant tensor:
#      x y z
#    x 1.663350 0.000000 0.000000 
#    y 0.000000 1.663350 0.000000 
#    z 0.000000 0.000000 1.673900 
# 
# From -- ./inp_files/1356.got.cif
#   From: 2010.05.17/outbox.cif.g08.bks.cpg/sg124_1_cif.got.tgz:1356.got - 2010.05.20 11:49:17.
