data_PCOD9562776
_publ_section_title
;
Structure prediction by ZEFSAII (Michael W. Deem and Ramdas Pophale) SiO2 
 PCOD9562776
Probable space group: P 4/M C C
;
_chemical_formula_sum "Si O2"
_cell_formula_units_Z 96
_cell_length_a 24.670205
_cell_length_b 24.670205
_cell_length_c 8.213241
_cell_angle_alpha 90.000000
_cell_angle_beta 90.000000
_cell_angle_gamma 90.000000
_cell_volume 4998.734645
_symmetry_space_group_name_H-M "P 4/M C C"
_symmetry_group_IT_number 124
_symmetry_cell_setting 'tetragonal'
loop_
_space_group_symop_operation_xyz
x,y,z
-y,x,z
-x,-y,z
y,-x,z
x,-y,1/2-z
-x,y,1/2-z
y,x,1/2-z
-y,-x,1/2-z
-x,-y,-z
y,-x,-z
x,y,-z
-y,x,-z
-x,y,1/2+z
x,-y,1/2+z
-y,-x,1/2+z
y,x,1/2+z
loop_
_atom_site_type_symbol
_atom_site_label
_atom_site_fract_x
_atom_site_fract_y
_atom_site_fract_z
Si Si1 0.253438 0.357592 0.314901
Si Si2 0.415498 0.056296 0.305694
Si Si3 0.740172 0.821292 0.306779
Si Si4 0.648640 0.563521 0.695795
Si Si5 0.825211 0.443786 0.695422
Si Si6 0.290758 0.941452 0.803026
O O1 0.268123 0.343395 0.500000
O O2 0.224000 0.305167 0.238952
O O3 0.303926 0.393670 0.244937
O O4 0.204393 0.399088 0.299097
O O5 0.414377 0.056090 0.500000
O O6 0.442743 0.111935 0.256105
O O7 0.353404 0.058323 0.246335
O O8 0.439987 0.000000 0.250000
O O9 0.796789 0.796789 0.250000
O O10 0.738285 0.824844 0.500000
O O11 0.731325 0.882939 0.244867
O O12 0.653833 0.500000 0.750000
O O13 0.592306 0.592306 0.750000
O O14 0.652022 0.563113 0.500000
O O15 0.800028 0.500000 0.750000
O O16 0.820135 0.434573 0.500000
O O17 0.266971 0.000000 0.750000
O O18 0.289929 0.940999 0.000000
#
# Coordination Sequence:
#
# PCOD9562776 Si02
#       6
#    16  16  16  16  16  16
#     4  11  23  39  60  86 113 149 188 226 281 337
#     4   9  18  33  50  70  98 136 180 230 282 328
#     4  11  22  37  57  86 121 154 192 237 281 332
#     4  11  25  44  66  91 116 143 178 221 273 335
#     4  11  22  36  52  74 105 141 185 235 283 333
#     4   9  18  34  54  78 109 148 190 234 282 331
#
# _framework density 19.204861000000001
#
# number of rings (size 3 to 8) (size 9 to 14) (size 15 to 20)
#    0.000    1.667    1.667    3.000    0.000    8.500 
#    0.000    2.500    0.000    0.000    0.000    0.000 
#    0.000    0.333    0.000    3.667    0.000    2.667 
#
# Total GULP energy -534865.308040 kJ/mol
# GULP energy per Si atom -5571.513625 kJ/mol
# Density = 1.916115 g / cm^3
# Si number density = 19.204861 Si / 1000 Ang^3
#
#
#
# Elastic Constant Matrix: (Units=GPa)
#
#
# Indices 1 2 3 4 5 6 
#
# 1 116.6380 66.3544 14.4406 0.0000 0.0000 0.0000
# 2 66.3544 116.6380 14.4406 0.0000 0.0000 0.0000
# 3 14.4406 14.4406 25.9807 0.0000 0.0000 0.0000
# 4 0.0000 0.0000 0.0000 29.8501 0.0000 0.0000
# 5 0.0000 0.0000 0.0000 0.0000 29.8501 0.0000
# 6 0.0000 0.0000 0.0000 0.0000 0.0000 17.5248
#
#
#
# Elastic Compliance Matrix: (Units=1/GPa)
#
#
# Indices 1 2 3 4 5 6 
#
# 1 0.012939 -0.006949 -0.003329 0.000000 0.000000 0.000000
# 2 -0.006949 0.012939 -0.003329 0.000000 0.000000 0.000000
# 3 -0.003329 -0.003329 0.042191 0.000000 0.000000 0.000000
# 4 0.000000 0.000000 0.000000 0.033501 0.000000 0.000000
# 5 0.000000 0.000000 0.000000 0.000000 0.033501 0.000000
# 6 0.000000 0.000000 0.000000 0.000000 0.000000 0.057062
#
#
# Mechanical properties :
#
#
# Convention : Reuss Voigt Hill
#
# Bulk Modulus (GPa) = 24.47756 49.96975 37.22365
# Shear Modulus (GPa) = 21.46249 26.37976 23.92112
#
# Velocity S-wave (km/s) = 3.34661 3.71023 3.53310
# Velocity P-wave (km/s) = 5.26367 6.66560 6.00568
#
# Compressibility (1/GPa) = 0.04085375
#
# Stress axis : x y z
#
# Youngs Moduli (GPa) = 77.28749 77.28749 23.70163
#
# Poissons Ratio (x) = 0.53703 0.07891
# Poissons Ratio (y) = 0.53703 0.07891
# Poissons Ratio (z) = 0.25733 0.25733
#
# Static dielectric constant tensor:
#      x y z
#    x 1.866770 0.000000 0.000000 
#    y 0.000000 1.866770 0.000000 
#    z 0.000000 0.000000 1.689540 
# 
# From -- ./inp_files/1313.got.cif
#   From: 2010.05.17/outbox.cif.g08.bks.cpg/sg124_1_cif.got.tgz:1313.got - 2010.05.20 11:49:17.
