data_PCOD9562433
_publ_section_title
;
Structure prediction by ZEFSAII (Michael W. Deem and Ramdas Pophale) SiO2 
 PCOD9562433
Probable space group: P 4/M C C
;
_chemical_formula_sum "Si O2"
_cell_formula_units_Z 80
_cell_length_a 15.774297
_cell_length_b 15.774297
_cell_length_c 14.644483
_cell_angle_alpha 90.000000
_cell_angle_beta 90.000000
_cell_angle_gamma 90.000000
_cell_volume 3643.963945
_symmetry_space_group_name_H-M "P 4/M C C"
_symmetry_group_IT_number 124
_symmetry_cell_setting 'tetragonal'
loop_
_space_group_symop_operation_xyz
x,y,z
-y,x,z
-x,-y,z
y,-x,z
x,-y,1/2-z
-x,y,1/2-z
y,x,1/2-z
-y,-x,1/2-z
-x,-y,-z
y,-x,-z
x,y,-z
-y,x,-z
-x,y,1/2+z
x,-y,1/2+z
-y,-x,1/2+z
y,x,1/2+z
loop_
_atom_site_type_symbol
_atom_site_label
_atom_site_fract_x
_atom_site_fract_y
_atom_site_fract_z
Si Si1 0.560639 0.076792 0.389375
Si Si2 0.844441 0.193078 0.392151
Si Si3 0.250062 0.028689 0.112245
Si Si4 0.690608 0.676557 0.860187
Si Si5 0.490668 0.264586 0.146357
O O1 0.560652 0.083372 0.500000
O O2 0.656189 0.057844 0.359296
O O3 0.524970 0.164414 0.352682
O O4 0.500000 0.000000 0.363701
O O5 0.858327 0.182087 0.500000
O O6 0.815461 0.101154 0.357016
O O7 0.765370 0.257489 0.383110
O O8 0.933686 0.228582 0.356119
O O9 0.251079 0.028603 0.000000
O O10 0.683107 0.683107 0.750000
O O11 0.596350 0.699156 0.894552
O O12 0.715380 0.582801 0.893250
O O13 0.500000 0.297116 0.250000
#
# Coordination Sequence:
#
# PCOD9562433 Si02
#       5
#    16  16  16  16  16
#     4  10  19  33  53  80 110 139 179 225 273 322
#     4  10  19  35  56  80 111 145 183 225 272 324
#     4   9  18  31  53  81 108 143 180 221 269 318
#     4  10  21  37  55  79 109 142 181 226 275 324
#     4  10  21  36  55  78 108 141 181 223 271 325
#
# _framework density 21.954115000000002
#
# number of rings (size 3 to 8) (size 9 to 14) (size 15 to 20)
#    0.000    2.200    2.000    1.200    0.000    3.600 
#    0.000    5.000    0.000    0.000    0.000    4.200 
#    0.000    0.000    0.000    0.000    0.000    0.000 
#
# Total GULP energy -446844.600835 kJ/mol
# GULP energy per Si atom -5585.557510 kJ/mol
# Density = 2.190415 g / cm^3
# Si number density = 21.954115 Si / 1000 Ang^3
#
#
#
# Elastic Constant Matrix: (Units=GPa)
#
#
# Indices 1 2 3 4 5 6 
#
# 1 183.8693 92.4494 -4.8926 0.0000 0.0000 0.0000
# 2 92.4494 183.8693 -4.8926 0.0000 0.0000 0.0000
# 3 -4.8926 -4.8926 54.4541 0.0000 0.0000 0.0000
# 4 0.0000 0.0000 0.0000 21.0547 0.0000 0.0000
# 5 0.0000 0.0000 0.0000 0.0000 21.0547 0.0000
# 6 0.0000 0.0000 0.0000 0.0000 0.0000 43.5218
#
#
#
# Elastic Compliance Matrix: (Units=1/GPa)
#
#
# Indices 1 2 3 4 5 6 
#
# 1 0.007285 -0.003654 0.000326 0.000000 0.000000 0.000000
# 2 -0.003654 0.007285 0.000326 0.000000 0.000000 0.000000
# 3 0.000326 0.000326 0.018423 0.000000 0.000000 0.000000
# 4 0.000000 0.000000 0.000000 0.047495 0.000000 0.000000
# 5 0.000000 0.000000 0.000000 0.000000 0.047495 0.000000
# 6 0.000000 0.000000 0.000000 0.000000 0.000000 0.022977
#
#
# Mechanical properties :
#
#
# Convention : Reuss Voigt Hill
#
# Bulk Modulus (GPa) = 37.05263 65.28012 51.16638
# Shear Modulus (GPa) = 30.12796 39.76146 34.94471
#
# Velocity S-wave (km/s) = 3.70850 4.26034 3.99396
# Velocity P-wave (km/s) = 5.93727 7.34847 6.68024
#
# Compressibility (1/GPa) = 0.02698864
#
# Stress axis : x y z
#
# Youngs Moduli (GPa) = 137.27677 137.27677 54.28081
#
# Poissons Ratio (x) = 0.50161 -0.01771
# Poissons Ratio (y) = 0.50161 -0.01771
# Poissons Ratio (z) = -0.04478 -0.04478
#
# Static dielectric constant tensor:
#      x y z
#    x 1.770330 0.000000 0.000000 
#    y 0.000000 1.770330 0.000000 
#    z 0.000000 0.000000 1.886310 
# 
# From -- ./inp_files/5069.got.cif
#   From: 2010.05.17/outbox.cif.g08.bks.cpg/sg124_3_cif.got.tgz:5069.got - 2010.05.20 11:49:17.
