data_PCOD9562131
_publ_section_title
;
Structure prediction by ZEFSAII (Michael W. Deem and Ramdas Pophale) SiO2 
 PCOD9562131
Probable space group: P 4/M M M
;
_chemical_formula_sum "Si O2"
_cell_formula_units_Z 120
_cell_length_a 22.345324
_cell_length_b 22.345324
_cell_length_c 15.478085
_cell_angle_alpha 90.000000
_cell_angle_beta 90.000000
_cell_angle_gamma 90.000000
_cell_volume 7728.416867
_symmetry_space_group_name_H-M "P 4/M M M"
_symmetry_group_IT_number 123
_symmetry_cell_setting 'tetragonal'
loop_
_space_group_symop_operation_xyz
x,y,z
-y,x,z
-x,-y,z
y,-x,z
x,-y,-z
-x,y,-z
y,x,-z
-y,-x,-z
-x,-y,-z
y,-x,-z
x,y,-z
-y,x,-z
-x,y,z
x,-y,z
-y,-x,z
y,x,z
loop_
_atom_site_type_symbol
_atom_site_label
_atom_site_fract_x
_atom_site_fract_y
_atom_site_fract_z
Si Si1 0.571900 0.932284 0.500000
Si Si2 0.900095 0.430600 0.694056
Si Si3 0.763452 0.564997 0.754154
Si Si4 0.240829 0.857401 0.899427
Si Si5 0.930483 0.701364 0.744446
Si Si6 0.268253 0.632006 0.595360
Si Si7 0.167322 0.733067 0.398263
Si Si8 0.244645 0.657535 0.906230
O O1 0.500000 0.935030 0.500000
O O2 0.586551 0.903379 0.592119
O O3 0.596107 0.000000 0.500000
O O4 0.925302 0.500000 0.703264
O O5 0.832201 0.435461 0.723995
O O6 0.925897 0.372158 0.743996
O O7 0.746058 0.500000 0.785953
O O8 0.727648 0.583889 0.669513
O O9 0.757455 0.613074 0.828034
O O10 0.179259 0.820742 0.877816
O O11 0.264930 0.905795 0.830540
O O12 0.292713 0.806991 0.897829
O O13 0.236000 0.878091 0.000000
O O14 0.887286 0.723989 0.666981
O O15 0.000000 0.715918 0.730539
O O16 0.258017 0.606374 0.500000
O O17 0.326347 0.673654 0.594007
O O18 0.213567 0.677871 0.614411
O O19 0.150222 0.733128 0.500000
O O20 0.207111 0.792890 0.381698
O O21 0.306138 0.693863 0.904708
O O22 0.237200 0.628084 0.000000
#
# Coordination Sequence:
#
# PCOD9562131 Si02
#       8
#     8  16  16  16  16  16  16  16
#     4   9  18  32  44  52  73 122 182 220 231 248
#     4  10  21  33  43  60  92 138 178 205 237 267
#     4  11  20  28  44  68  97 127 154 194 238 282
#     4   9  18  35  56  72  89 118 156 197 245 296
#     4  12  22  30  48  73  99 128 162 208 240 272
#     4   9  17  30  48  66  87 121 163 203 242 285
#     4   9  18  33  50  67  92 126 161 199 246 294
#     4   9  17  32  54  72  86 113 155 198 240 288
#
# _framework density 15.527112000000001
#
# number of rings (size 3 to 8) (size 9 to 14) (size 15 to 20)
#    0.000    2.200    2.667    2.800    1.867    4.000 
#    0.000    0.000    0.000    0.400    0.000    0.933 
#    0.000    8.533    0.000   23.467    0.000    0.000 
#
# Total GULP energy -668231.528214 kJ/mol
# GULP energy per Si atom -5568.596068 kJ/mol
# Density = 1.549177 g / cm^3
# Si number density = 15.527112 Si / 1000 Ang^3
#
#
#
# Elastic Constant Matrix: (Units=GPa)
#
#
# Indices 1 2 3 4 5 6 
#
# 1 40.9658 16.7976 17.6311 0.0000 0.0000 0.0000
# 2 16.7976 40.9658 17.6311 0.0000 0.0000 0.0000
# 3 17.6311 17.6311 52.8971 0.0000 0.0000 0.0000
# 4 0.0000 0.0000 0.0000 -17.5789 0.0000 0.0000
# 5 0.0000 0.0000 0.0000 0.0000 -17.5789 0.0000
# 6 0.0000 0.0000 0.0000 0.0000 0.0000 -16.4901
#
#
#
# Elastic Compliance Matrix: (Units=1/GPa)
#
#
# Indices 1 2 3 4 5 6 
#
# 1 0.031556 -0.009821 -0.007244 0.000000 0.000000 0.000000
# 2 -0.009821 0.031556 -0.007244 0.000000 0.000000 0.000000
# 3 -0.007244 -0.007244 0.023734 0.000000 0.000000 0.000000
# 4 0.000000 0.000000 0.000000 -0.056886 0.000000 0.000000
# 5 0.000000 0.000000 0.000000 0.000000 -0.056886 0.000000
# 6 0.000000 0.000000 0.000000 0.000000 0.000000 -0.060642
#
#
# Mechanical properties :
#
#
# Convention : Reuss Voigt Hill
#
# Bulk Modulus (GPa) = 26.16060 26.54980 26.35520
# Shear Modulus (GPa) = -190.77666 -4.81168 -97.79417
#
# Velocity S-wave (km/s) = -11.09655 -1.76228 -7.94478
# Velocity P-wave (km/s) = 12.13644 3.60490 8.19444
#
# Compressibility (1/GPa) = 0.03822542
#
# Stress axis : x y z
#
# Youngs Moduli (GPa) = 31.69012 31.69012 42.13407
#
# Poissons Ratio (x) = 0.31124 0.30523
# Poissons Ratio (y) = 0.31124 0.30523
# Poissons Ratio (z) = 0.22957 0.22957
#
# Static dielectric constant tensor:
#      x y z
#    x 1.522160 0.000000 0.000000 
#    y 0.000000 1.522160 0.000000 
#    z 0.000000 0.000000 1.548600 
# 
# From -- ./inp_files/4596.got.cif
#   From: 2010.05.17/outbox.cif.g08.bks.cpg/sg123_3_cif.got.tgz:4596.got - 2010.05.20 11:43:04.
