data_PCOD9562955
_publ_section_title
;
Structure prediction by ZEFSAII (Michael W. Deem and Ramdas Pophale) SiO2 
 PCOD9562955
Probable space group: P 4/N B M
;
_chemical_formula_sum "Si O2"
_cell_formula_units_Z 112
_cell_length_a 15.638717
_cell_length_b 15.638717
_cell_length_c 24.059799
_cell_angle_alpha 90.000000
_cell_angle_beta 90.000000
_cell_angle_gamma 90.000000
_cell_volume 5884.292275
_symmetry_space_group_name_H-M "P 4/N B M"
_symmetry_group_IT_number 125
_space_group.IT_coordinate_system_code '2'
_symmetry_cell_setting 'tetragonal'
loop_
_space_group_symop_operation_xyz
x,y,z
1/2-y,x,z
1/2-x,1/2-y,z
y,1/2-x,z
x,1/2-y,-z
1/2-x,y,-z
y,x,-z
1/2-y,1/2-x,-z
-x,-y,-z
1/2+y,-x,-z
1/2+x,1/2+y,-z
-y,1/2+x,-z
-x,1/2+y,z
1/2+x,-y,z
-y,-x,z
1/2+y,1/2+x,z
loop_
_atom_site_type_symbol
_atom_site_label
_atom_site_fract_x
_atom_site_fract_y
_atom_site_fract_z
Si Si1 0.154148 0.148643 0.433973
Si Si2 0.623839 0.821118 0.743730
Si Si3 0.861354 0.503456 0.360412
Si Si4 0.820404 0.036797 0.075559
Si Si5 0.002531 0.857478 0.044512
Si Si6 0.927347 0.926091 0.850605
Si Si7 0.753733 0.392735 0.562116
O O1 0.253929 0.134884 0.417909
O O2 0.145311 0.145311 0.500000
O O3 0.103997 0.073129 0.404742
O O4 0.638393 0.719088 0.741337
O O5 0.559910 0.841549 0.693347
O O6 0.585434 0.864957 0.798984
O O7 0.780970 0.455142 0.390012
O O8 0.931340 0.431340 0.348568
O O9 0.881652 0.118349 0.071864
O O10 0.722121 0.058577 0.066427
O O11 0.846035 0.987374 0.131600
O O12 0.840501 0.980529 0.019739
O O13 0.056491 0.943510 0.043479
O O14 0.936735 0.869963 0.094104
O O15 0.992778 0.007223 0.843659
O O16 0.750000 0.433884 0.500000
O O17 0.682985 0.317016 0.558814
O O18 0.844283 0.344283 0.571363
#
# Coordination Sequence:
#
# PCOD9562955 Si02
#       7
#    16  16  16  16  16  16  16
#     4   9  19  36  56  76 107 149 181 208 255 314
#     4  11  24  42  60  74  99 142 186 224 271 332
#     4  11  22  36  58  86 113 138 177 228 268 314
#     4   9  17  29  48  77 110 142 177 218 262 315
#     4   9  17  29  48  76 110 145 176 212 265 321
#     4  10  19  34  56  79 104 133 176 230 278 317
#     4   8  16  33  56  83 116 149 174 203 258 326
#
# _framework density 19.033723999999999
#
# number of rings (size 3 to 8) (size 9 to 14) (size 15 to 20)
#    0.000    2.429    0.000    3.429    2.000    3.429 
#    0.000    5.000    0.000    0.857    0.000    8.000 
#    0.000    0.000    0.000    0.000    0.000    0.000 
#
# Total GULP energy -623529.767059 kJ/mol
# GULP energy per Si atom -5567.230063 kJ/mol
# Density = 1.899040 g / cm^3
# Si number density = 19.033724 Si / 1000 Ang^3
#
#
#
# Elastic Constant Matrix: (Units=GPa)
#
#
# Indices 1 2 3 4 5 6 
#
# 1 75.1602 28.2276 46.9774 0.0000 0.0000 0.0000
# 2 28.2276 75.1602 46.9774 0.0000 0.0000 0.0000
# 3 46.9774 46.9774 110.0947 0.0000 0.0000 0.0000
# 4 0.0000 0.0000 0.0000 30.9721 0.0000 0.0000
# 5 0.0000 0.0000 0.0000 0.0000 30.9721 0.0000
# 6 0.0000 0.0000 0.0000 0.0000 0.0000 11.8262
#
#
#
# Elastic Compliance Matrix: (Units=1/GPa)
#
#
# Indices 1 2 3 4 5 6 
#
# 1 0.018553 -0.002754 -0.006741 0.000000 0.000000 0.000000
# 2 -0.002754 0.018553 -0.006741 0.000000 0.000000 0.000000
# 3 -0.006741 -0.006741 0.014836 0.000000 0.000000 0.000000
# 4 0.000000 0.000000 0.000000 0.032287 0.000000 0.000000
# 5 0.000000 0.000000 0.000000 0.000000 0.032287 0.000000
# 6 0.000000 0.000000 0.000000 0.000000 0.000000 0.084558
#
#
# Mechanical properties :
#
#
# Convention : Reuss Voigt Hill
#
# Bulk Modulus (GPa) = 51.36596 56.08665 53.72630
# Shear Modulus (GPa) = 20.83011 23.96958 22.39985
#
# Velocity S-wave (km/s) = 3.31173 3.55254 3.43425
# Velocity P-wave (km/s) = 6.45514 6.80870 6.63427
#
# Compressibility (1/GPa) = 0.01946815
#
# Stress axis : x y z
#
# Youngs Moduli (GPa) = 53.90015 53.90015 67.40351
#
# Poissons Ratio (x) = 0.14846 0.45438
# Poissons Ratio (y) = 0.14846 0.45438
# Poissons Ratio (z) = 0.36335 0.36335
#
# Static dielectric constant tensor:
#      x y z
#    x 1.705290 0.000000 0.000000 
#    y 0.000000 1.705290 0.000000 
#    z 0.000000 0.000000 1.674970 
# 
# From -- ./inp_files/6238.got.cif
#   From: 2010.05.17/outbox.cif.g08.bks.cpg/sg125_4_cif.got.tgz:6238.got - 2010.05.20 11:54:10.
