data_PCOD9562739
_publ_section_title
;
Structure prediction by ZEFSAII (Michael W. Deem and Ramdas Pophale) SiO2 
 PCOD9562739
Probable space group: P 4/M C C
;
_chemical_formula_sum "Si O2"
_cell_formula_units_Z 80
_cell_length_a 12.075075
_cell_length_b 12.075075
_cell_length_c 28.760595
_cell_angle_alpha 90.000000
_cell_angle_beta 90.000000
_cell_angle_gamma 90.000000
_cell_volume 4193.508622
_symmetry_space_group_name_H-M "P 4/M C C"
_symmetry_group_IT_number 124
_symmetry_cell_setting 'tetragonal'
loop_
_space_group_symop_operation_xyz
x,y,z
-y,x,z
-x,-y,z
y,-x,z
x,-y,1/2-z
-x,y,1/2-z
y,x,1/2-z
-y,-x,1/2-z
-x,-y,-z
y,-x,-z
x,y,-z
-y,x,-z
-x,y,1/2+z
x,-y,1/2+z
-y,-x,1/2+z
y,x,1/2+z
loop_
_atom_site_type_symbol
_atom_site_label
_atom_site_fract_x
_atom_site_fract_y
_atom_site_fract_z
Si Si1 0.330425 0.425545 0.500000
Si Si2 0.331899 0.170074 0.922779
Si Si3 0.927962 0.828052 0.500000
Si Si4 0.500000 0.000000 0.625398
Si Si5 0.975290 0.326513 0.697990
Si Si6 0.219899 0.754732 0.174688
Si Si7 0.631935 0.368066 0.250000
O O1 0.445335 0.359152 0.500000
O O2 0.259046 0.391674 0.544689
O O3 0.423861 0.083221 0.903894
O O4 0.269373 0.230793 0.880158
O O5 0.243791 0.105118 0.954903
O O6 0.057135 0.859787 0.500000
O O7 0.579944 0.936914 0.661651
O O8 0.878961 0.236839 0.693202
O O9 0.000000 0.367070 0.750000
O O10 0.093672 0.280491 0.683082
O O11 0.304952 0.682580 0.205394
O O12 0.651559 0.500000 0.250000
#
# Coordination Sequence:
#
# PCOD9562739 Si02
#       7
#     8  16   8   8  16  16   8
#     4  10  24  43  66  94 128 173 216 282 344 404
#     4  10  25  42  66  98 128 174 225 276 340 407
#     4  10  24  45  68  94 130 171 214 282 348 412
#     4  10  25  37  64 100 124 180 218 275 325 392
#     4  11  22  41  63  97 135 179 222 267 331 396
#     4  11  25  40  67  98 133 179 218 280 333 399
#     4  11  26  44  64  95 136 184 232 273 326 392
#
# _framework density 19.077102
#
# number of rings (size 3 to 8) (size 9 to 14) (size 15 to 20)
#    0.000    1.500    2.000    0.300   14.000    3.600 
#    0.000    3.000    0.000    0.000    0.000    0.000 
#    0.000    0.000    0.000    0.000    0.000    0.000 
#
# Total GULP energy -446483.126881 kJ/mol
# GULP energy per Si atom -5581.039086 kJ/mol
# Density = 1.903368 g / cm^3
# Si number density = 19.077102 Si / 1000 Ang^3
#
#
#
# Elastic Constant Matrix: (Units=GPa)
#
#
# Indices 1 2 3 4 5 6 
#
# 1 114.8426 66.2010 69.2142 0.0000 0.0000 0.0000
# 2 66.2010 114.8436 69.2144 0.0000 0.0000 0.0000
# 3 69.2142 69.2144 169.4945 0.0000 0.0000 0.0000
# 4 0.0000 0.0000 0.0000 144.5806 0.0000 0.0000
# 5 0.0000 0.0000 0.0000 0.0000 144.8211 0.0000
# 6 0.0000 0.0000 0.0000 0.0000 0.0000 5.9000
#
#
#
# Elastic Compliance Matrix: (Units=1/GPa)
#
#
# Indices 1 2 3 4 5 6 
#
# 1 0.014295 -0.006264 -0.003280 0.000000 0.000000 0.000000
# 2 -0.006264 0.014295 -0.003280 0.000000 0.000000 0.000000
# 3 -0.003280 -0.003280 0.008578 0.000000 0.000000 0.000000
# 4 0.000000 0.000000 0.000000 0.006917 0.000000 0.000000
# 5 0.000000 0.000000 0.000000 0.000000 0.006905 0.000000
# 6 0.000000 0.000000 0.000000 0.000000 0.000000 0.169490
#
#
# Mechanical properties :
#
#
# Convention : Reuss Voigt Hill
#
# Bulk Modulus (GPa) = 86.78797 89.82666 88.30732
# Shear Modulus (GPa) = 20.00272 72.03042 46.01657
#
# Velocity S-wave (km/s) = 3.24160 6.15138 4.91668
# Velocity P-wave (km/s) = 7.72027 9.88135 8.86689
#
# Compressibility (1/GPa) = 0.01152233
#
# Stress axis : x y z
#
# Youngs Moduli (GPa) = 69.95548 69.95618 116.57230
#
# Poissons Ratio (x) = 0.43818 0.38231
# Poissons Ratio (y) = 0.43817 0.38230
# Poissons Ratio (z) = 0.22942 0.22942
#
# Static dielectric constant tensor:
#      x y z
#    x 1.826920 0.000000 0.000000 
#    y 0.000000 1.826690 0.000000 
#    z 0.000000 0.000000 0.909980 
# 
# From -- ./inp_files/7050.got.cif
#   From: 2010.05.17/outbox.cif.g08.bks.cpg/sg124_4_cif.got.tgz:7050.got - 2010.05.20 11:49:17.
