data_PCOD9562666
_publ_section_title
;
Structure prediction by ZEFSAII (Michael W. Deem and Ramdas Pophale) SiO2 
 PCOD9562666
Probable space group: P 4/M C C
;
_chemical_formula_sum "Si O2"
_cell_formula_units_Z 72
_cell_length_a 20.595925
_cell_length_b 20.595925
_cell_length_c 8.856038
_cell_angle_alpha 90.000000
_cell_angle_beta 90.000000
_cell_angle_gamma 90.000000
_cell_volume 3756.661593
_symmetry_space_group_name_H-M "P 4/M C C"
_symmetry_group_IT_number 124
_symmetry_cell_setting 'tetragonal'
loop_
_space_group_symop_operation_xyz
x,y,z
-y,x,z
-x,-y,z
y,-x,z
x,-y,1/2-z
-x,y,1/2-z
y,x,1/2-z
-y,-x,1/2-z
-x,-y,-z
y,-x,-z
x,y,-z
-y,x,-z
-x,y,1/2+z
x,-y,1/2+z
-y,-x,1/2+z
y,x,1/2+z
loop_
_atom_site_type_symbol
_atom_site_label
_atom_site_fract_x
_atom_site_fract_y
_atom_site_fract_z
Si Si1 0.397770 0.537018 0.500000
Si Si2 0.704939 0.610502 0.829047
Si Si3 0.677113 0.071233 0.819359
Si Si4 0.836491 0.431316 0.179653
Si Si5 0.071281 0.827818 0.319625
O O1 0.419854 0.462972 0.500000
O O2 0.352405 0.558766 0.638964
O O3 0.672118 0.672118 0.750000
O O4 0.762738 0.581891 0.731737
O O5 0.728674 0.626573 0.000000
O O6 0.627005 0.120563 0.744807
O O7 0.752433 0.088674 0.787800
O O8 0.666265 0.000000 0.750000
O O9 0.668386 0.069615 0.000000
O O10 0.857463 0.500000 0.250000
O O11 0.840543 0.434193 0.000000
O O12 0.123463 0.876537 0.250000
O O13 0.068214 0.835925 0.500000
O O14 0.000000 0.839627 0.250000
#
# Coordination Sequence:
#
# PCOD9562666 Si02
#       5
#     8  16  16  16  16
#     4   9  22  40  62  92 124 163 215 261 325 387
#     4  10  23  38  62  87 123 163 206 259 318 382
#     4  10  22  43  68  97 129 165 210 259 316 381
#     4  12  26  43  66  91 124 163 209 266 326 386
#     4  10  21  38  64  95 133 172 214 258 307 365
#
# _framework density 19.165952000000001
#
# number of rings (size 3 to 8) (size 9 to 14) (size 15 to 20)
#    0.667    1.000    0.000    4.000    3.111    4.222 
#    0.000    6.667    0.000    0.000    0.000    0.000 
#    0.000    0.000    0.000    0.000    0.000    0.000 
#
# Total GULP energy -402278.185505 kJ/mol
# GULP energy per Si atom -5587.197021 kJ/mol
# Density = 1.912233 g / cm^3
# Si number density = 19.165952 Si / 1000 Ang^3
#
#
#
# Elastic Constant Matrix: (Units=GPa)
#
#
# Indices 1 2 3 4 5 6 
#
# 1 132.1027 113.5351 79.8767 0.0000 0.0000 0.0000
# 2 113.5351 132.1027 79.8767 0.0000 0.0000 0.0000
# 3 79.8767 79.8767 148.5022 0.0000 0.0000 0.0000
# 4 0.0000 0.0000 0.0000 36.6939 0.0000 0.0000
# 5 0.0000 0.0000 0.0000 0.0000 36.6939 0.0000
# 6 0.0000 0.0000 0.0000 0.0000 0.0000 35.6252
#
#
#
# Elastic Compliance Matrix: (Units=1/GPa)
#
#
# Indices 1 2 3 4 5 6 
#
# 1 0.030059 -0.023798 -0.003368 0.000000 0.000000 0.000000
# 2 -0.023798 0.030059 -0.003368 0.000000 0.000000 0.000000
# 3 -0.003368 -0.003368 0.010357 0.000000 0.000000 0.000000
# 4 0.000000 0.000000 0.000000 0.027252 0.000000 0.000000
# 5 0.000000 0.000000 0.000000 0.000000 0.027252 0.000000
# 6 0.000000 0.000000 0.000000 0.000000 0.000000 0.028070
#
#
# Mechanical properties :
#
#
# Convention : Reuss Voigt Hill
#
# Bulk Modulus (GPa) = 106.29052 106.58716 106.43884
# Shear Modulus (GPa) = 23.01454 31.09722 27.05588
#
# Velocity S-wave (km/s) = 3.46902 4.03243 3.76129
# Velocity P-wave (km/s) = 8.46309 8.79853 8.63244
#
# Compressibility (1/GPa) = 0.00940818
#
# Stress axis : x y z
#
# Youngs Moduli (GPa) = 33.26757 33.26757 96.55352
#
# Poissons Ratio (x) = 0.79170 0.32518
# Poissons Ratio (y) = 0.79170 0.32518
# Poissons Ratio (z) = 0.11204 0.11204
#
# Static dielectric constant tensor:
#      x y z
#    x 1.644590 0.000000 0.000000 
#    y 0.000000 1.644590 0.000000 
#    z 0.000000 0.000000 1.671460 
# 
# From -- ./inp_files/1039.got.cif
#   From: 2010.05.17/outbox.cif.g08.bks.cpg/sg124_1_cif.got.tgz:1039.got - 2010.05.20 11:49:17.
