data_PCOD9562533
_publ_section_title
;
Structure prediction by ZEFSAII (Michael W. Deem and Ramdas Pophale) SiO2 
 PCOD9562533
Probable space group: P 4/M C C
;
_chemical_formula_sum "Si O2"
_cell_formula_units_Z 80
_cell_length_a 22.952265
_cell_length_b 22.952265
_cell_length_c 8.997108
_cell_angle_alpha 90.000000
_cell_angle_beta 90.000000
_cell_angle_gamma 90.000000
_cell_volume 4739.734693
_symmetry_space_group_name_H-M "P 4/M C C"
_symmetry_group_IT_number 124
_symmetry_cell_setting 'tetragonal'
loop_
_space_group_symop_operation_xyz
x,y,z
-y,x,z
-x,-y,z
y,-x,z
x,-y,1/2-z
-x,y,1/2-z
y,x,1/2-z
-y,-x,1/2-z
-x,-y,-z
y,-x,-z
x,y,-z
-y,x,-z
-x,y,1/2+z
x,-y,1/2+z
-y,-x,1/2+z
y,x,1/2+z
loop_
_atom_site_type_symbol
_atom_site_label
_atom_site_fract_x
_atom_site_fract_y
_atom_site_fract_z
Si Si1 0.562537 0.126744 0.175846
Si Si2 0.369612 0.630389 0.250000
Si Si3 0.552368 0.417500 0.000000
Si Si4 0.366496 0.757511 0.822467
Si Si5 0.938299 0.671724 0.323511
Si Si6 0.824043 0.257685 0.822559
O O1 0.500000 0.117534 0.250000
O O2 0.583514 0.193911 0.193708
O O3 0.612831 0.088070 0.251637
O O4 0.560347 0.114316 0.000000
O O5 0.383265 0.580115 0.365731
O O6 0.376310 0.699549 0.274590
O O7 0.576988 0.483328 0.000000
O O8 0.307722 0.787173 0.762037
O O9 0.361006 0.743086 0.000000
O O10 0.944388 0.663134 0.500000
O O11 0.890759 0.722797 0.299619
O O12 0.000000 0.684780 0.250000
O O13 0.802363 0.197638 0.750000
O O14 0.812452 0.258709 0.000000
#
# Coordination Sequence:
#
# PCOD9562533 Si02
#       6
#    16   8   8  16  16  16
#     4  10  21  37  54  77 109 141 178 225 273 323
#     4  12  22  39  60  80  96 126 168 214 275 336
#     4  11  26  44  58  70  92 124 164 214 272 338
#     4  10  21  36  53  80 105 130 165 211 268 328
#     4  10  21  37  56  81 110 148 190 227 267 316
#     4  10  20  33  56  82 113 145 175 216 265 310
#
# _framework density 16.878581000000001
#
# number of rings (size 3 to 8) (size 9 to 14) (size 15 to 20)
#    0.000    1.700    2.000    2.400    1.400    6.000 
#    0.000    2.000    0.000    0.000    0.000    0.000 
#    0.000    0.400    0.000    4.400    0.000    3.200 
#
# Total GULP energy -446053.714866 kJ/mol
# GULP energy per Si atom -5575.671436 kJ/mol
# Density = 1.684016 g / cm^3
# Si number density = 16.878581 Si / 1000 Ang^3
#
#
#
# Elastic Constant Matrix: (Units=GPa)
#
#
# Indices 1 2 3 4 5 6 
#
# 1 84.6137 62.7668 36.8859 0.0000 0.0000 0.0000
# 2 62.7668 84.6143 36.8835 0.0000 0.0000 0.0000
# 3 36.8859 36.8835 56.6940 0.0000 0.0000 0.0000
# 4 0.0000 0.0000 0.0000 97.3044 0.0000 0.0000
# 5 0.0000 0.0000 0.0000 0.0000 97.4667 0.0000
# 6 0.0000 0.0000 0.0000 0.0000 0.0000 15.7728
#
#
#
# Elastic Compliance Matrix: (Units=1/GPa)
#
#
# Indices 1 2 3 4 5 6 
#
# 1 0.027918 -0.017855 -0.006548 0.000000 0.000000 0.000000
# 2 -0.017855 0.027916 -0.006545 0.000000 0.000000 0.000000
# 3 -0.006548 -0.006545 0.026156 0.000000 0.000000 0.000000
# 4 0.000000 0.000000 0.000000 0.010277 0.000000 0.000000
# 5 0.000000 0.000000 0.000000 0.000000 0.010260 0.000000
# 6 0.000000 0.000000 0.000000 0.000000 0.000000 0.063400
#
#
# Mechanical properties :
#
#
# Convention : Reuss Voigt Hill
#
# Bulk Modulus (GPa) = 49.76285 55.44383 52.60334
# Shear Modulus (GPa) = 21.32006 48.06783 34.69395
#
# Velocity S-wave (km/s) = 3.55793 5.34232 4.53868
# Velocity P-wave (km/s) = 6.81361 8.42460 7.66156
#
# Compressibility (1/GPa) = 0.02009531
#
# Stress axis : x y z
#
# Youngs Moduli (GPa) = 35.81928 35.82147 38.23190
#
# Poissons Ratio (x) = 0.63961 0.25033
# Poissons Ratio (y) = 0.63957 0.25021
# Poissons Ratio (z) = 0.23453 0.23443
#
# Static dielectric constant tensor:
#      x y z
#    x 1.555990 0.000000 0.000000 
#    y 0.000000 1.555990 0.000000 
#    z 0.000000 0.000000 1.587400 
# 
# From -- ./inp_files/1217.got.cif
#   From: 2010.05.17/outbox.cif.g08.bks.cpg/sg124_1_cif.got.tgz:1217.got - 2010.05.20 11:49:17.
