data_PCOD9562352
_publ_section_title
;
Structure prediction by ZEFSAII (Michael W. Deem and Ramdas Pophale) SiO2 
 PCOD9562352
Probable space group: P 4/M C C
;
_chemical_formula_sum "Si O2"
_cell_formula_units_Z 88
_cell_length_a 18.576717
_cell_length_b 18.576717
_cell_length_c 14.918927
_cell_angle_alpha 90.000000
_cell_angle_beta 90.000000
_cell_angle_gamma 90.000000
_cell_volume 5148.438378
_symmetry_space_group_name_H-M "P 4/M C C"
_symmetry_group_IT_number 124
_symmetry_cell_setting 'tetragonal'
loop_
_space_group_symop_operation_xyz
x,y,z
-y,x,z
-x,-y,z
y,-x,z
x,-y,1/2-z
-x,y,1/2-z
y,x,1/2-z
-y,-x,1/2-z
-x,-y,-z
y,-x,-z
x,y,-z
-y,x,-z
-x,y,1/2+z
x,-y,1/2+z
-y,-x,1/2+z
y,x,1/2+z
loop_
_atom_site_type_symbol
_atom_site_label
_atom_site_fract_x
_atom_site_fract_y
_atom_site_fract_z
Si Si1 0.689081 0.806177 0.236437
Si Si2 0.615220 0.540204 0.500000
Si Si3 0.881655 0.493579 0.857602
Si Si4 0.931570 0.333979 0.896585
Si Si5 0.092282 0.651409 0.600961
Si Si6 0.451770 0.276405 0.164979
O O1 0.758652 0.758652 0.250000
O O2 0.699394 0.870244 0.165273
O O3 0.668128 0.845523 0.328632
O O4 0.624167 0.754608 0.201946
O O5 0.543077 0.588761 0.500000
O O6 0.663572 0.554631 0.411513
O O7 0.890121 0.500000 0.750000
O O8 0.917174 0.419754 0.888340
O O9 0.913544 0.564879 0.899449
O O10 0.795880 0.488961 0.874847
O O11 0.014046 0.319805 0.869624
O O12 0.923008 0.313251 0.000000
O O13 0.107701 0.676308 0.500000
O O14 0.500000 0.300655 0.250000
#
# Coordination Sequence:
#
# PCOD9562352 Si02
#       6
#    16   8  16  16  16  16
#     4  11  24  38  56  85 112 153 189 230 284 334
#     4  11  28  44  60  78  97 140 202 270 323 352
#     4  10  18  32  53  82 112 140 174 218 277 342
#     4  10  21  35  56  83 117 151 182 221 276 338
#     4  11  21  35  56  84 115 149 184 223 272 342
#     4  10  22  40  58  81 106 138 188 242 303 347
#
# _framework density 17.092562000000001
#
# number of rings (size 3 to 8) (size 9 to 14) (size 15 to 20)
#    0.000    1.545    5.455    1.636    8.909    2.909 
#    0.000    0.909    0.000    0.000    0.000    0.000 
#    0.000    5.818    0.000   16.000    0.000    0.000 
#
# Total GULP energy -491246.482517 kJ/mol
# GULP energy per Si atom -5582.346392 kJ/mol
# Density = 1.705366 g / cm^3
# Si number density = 17.092562 Si / 1000 Ang^3
#
#
#
# Elastic Constant Matrix: (Units=GPa)
#
#
# Indices 1 2 3 4 5 6 
#
# 1 85.9320 52.0808 54.6912 0.0000 0.0000 0.0000
# 2 52.0808 85.9320 54.6912 0.0000 0.0000 0.0000
# 3 54.6912 54.6912 109.7590 0.0000 0.0000 0.0000
# 4 0.0000 0.0000 0.0000 8.1010 0.0000 0.0000
# 5 0.0000 0.0000 0.0000 0.0000 8.1010 0.0000
# 6 0.0000 0.0000 0.0000 0.0000 0.0000 15.8264
#
#
#
# Elastic Compliance Matrix: (Units=1/GPa)
#
#
# Indices 1 2 3 4 5 6 
#
# 1 0.020758 -0.008783 -0.005967 0.000000 0.000000 0.000000
# 2 -0.008783 0.020758 -0.005967 0.000000 0.000000 0.000000
# 3 -0.005967 -0.005967 0.015057 0.000000 0.000000 0.000000
# 4 0.000000 0.000000 0.000000 0.123442 0.000000 0.000000
# 5 0.000000 0.000000 0.000000 0.000000 0.123442 0.000000
# 6 0.000000 0.000000 0.000000 0.000000 0.000000 0.063186
#
#
# Mechanical properties :
#
#
# Convention : Reuss Voigt Hill
#
# Bulk Modulus (GPa) = 66.05285 67.17214 66.61250
# Shear Modulus (GPa) = 12.10294 14.41631 13.25962
#
# Velocity S-wave (km/s) = 2.66387 2.90733 2.78826
# Velocity P-wave (km/s) = 6.94188 7.11719 7.03008
#
# Compressibility (1/GPa) = 0.01513939
#
# Stress axis : x y z
#
# Youngs Moduli (GPa) = 48.17444 48.17444 66.41339
#
# Poissons Ratio (x) = 0.42312 0.39628
# Poissons Ratio (y) = 0.42312 0.39628
# Poissons Ratio (z) = 0.28745 0.28745
#
# Static dielectric constant tensor:
#      x y z
#    x 1.571270 0.000000 0.000000 
#    y 0.000000 1.571270 0.000000 
#    z 0.000000 0.000000 1.617260 
# 
# From -- ./inp_files/3218.got.cif
#   From: 2010.05.17/outbox.cif.g08.bks.cpg/sg124_2_cif.got.tgz:3218.got - 2010.05.20 11:49:17.
