data_PCOD9562632
_publ_section_title
;
Structure prediction by ZEFSAII (Michael W. Deem and Ramdas Pophale) SiO2 
 PCOD9562632
Probable space group: P 4/M C C
;
_chemical_formula_sum "Si O2"
_cell_formula_units_Z 96
_cell_length_a 24.468048
_cell_length_b 24.468048
_cell_length_c 9.636896
_cell_angle_alpha 90.000000
_cell_angle_beta 90.000000
_cell_angle_gamma 90.000000
_cell_volume 5769.468676
_symmetry_space_group_name_H-M "P 4/M C C"
_symmetry_group_IT_number 124
_symmetry_cell_setting 'tetragonal'
loop_
_space_group_symop_operation_xyz
x,y,z
-y,x,z
-x,-y,z
y,-x,z
x,-y,1/2-z
-x,y,1/2-z
y,x,1/2-z
-y,-x,1/2-z
-x,-y,-z
y,-x,-z
x,y,-z
-y,x,-z
-x,y,1/2+z
x,-y,1/2+z
-y,-x,1/2+z
y,x,1/2+z
loop_
_atom_site_type_symbol
_atom_site_label
_atom_site_fract_x
_atom_site_fract_y
_atom_site_fract_z
Si Si1 0.197554 0.139098 0.500000
Si Si2 0.000000 0.667396 0.250000
Si Si3 0.215237 0.101040 0.000000
Si Si4 0.199435 0.446174 0.667260
Si Si5 0.248238 0.982073 0.000000
Si Si6 0.272403 0.838436 0.248666
Si Si7 0.615813 0.107818 0.163533
Si Si8 0.337066 0.267126 0.841384
O O1 0.134753 0.158453 0.500000
O O2 0.214717 0.074920 0.500000
O O3 0.225517 0.166047 0.365828
O O4 0.948034 0.627573 0.245709
O O5 0.011838 0.709644 0.373593
O O6 0.250322 0.120878 0.867102
O O7 0.210274 0.035864 0.000000
O O8 0.217314 0.500000 0.750000
O O9 0.191289 0.453835 0.500000
O O10 0.145108 0.425368 0.747848
O O11 0.242916 0.397068 0.684986
O O12 0.325133 0.862725 0.170223
O O13 0.295244 0.783142 0.315042
O O14 0.600957 0.100672 0.000000
O O15 0.317157 0.317157 0.750000
O O16 0.333048 0.283247 0.000000
#
# Coordination Sequence:
#
# PCOD9562632 Si02
#       8
#     8   8   8  16   8  16  16  16
#     4  12  22  36  46  75 104 132 172 210 274 345
#     4  12  20  34  55  78 102 133 172 220 278 328
#     4  12  22  32  54  71 102 136 168 220 266 335
#     4  10  23  40  58  80 113 155 196 227 267 318
#     4  12  22  36  52  73 105 134 176 218 276 340
#     4  11  20  33  49  77 107 136 165 210 276 344
#     4  11  21  35  56  79 107 139 175 224 277 327
#     4  10  21  33  53  84 114 145 184 224 272 325
#
# _framework density 16.639315
#
# number of rings (size 3 to 8) (size 9 to 14) (size 15 to 20)
#    0.000    1.000    5.833    2.000    3.500    1.333 
#    0.000    0.417    0.000    2.250    0.000    0.000 
#    0.000    4.333    0.000    3.667    0.000    3.500 
#
# Total GULP energy -535437.385757 kJ/mol
# GULP energy per Si atom -5577.472768 kJ/mol
# Density = 1.660144 g / cm^3
# Si number density = 16.639315 Si / 1000 Ang^3
#
#
#
# Elastic Constant Matrix: (Units=GPa)
#
#
# Indices 1 2 3 4 5 6 
#
# 1 82.6403 45.9356 49.6128 0.0000 0.0000 0.0000
# 2 45.9356 82.6403 49.6128 0.0000 0.0000 0.0000
# 3 49.6128 49.6128 105.5458 0.0000 0.0000 0.0000
# 4 0.0000 0.0000 0.0000 21.8496 0.0000 0.0000
# 5 0.0000 0.0000 0.0000 0.0000 21.8496 0.0000
# 6 0.0000 0.0000 0.0000 0.0000 0.0000 18.0156
#
#
#
# Elastic Compliance Matrix: (Units=1/GPa)
#
#
# Indices 1 2 3 4 5 6 
#
# 1 0.019725 -0.007520 -0.005737 0.000000 0.000000 0.000000
# 2 -0.007520 0.019725 -0.005737 0.000000 0.000000 0.000000
# 3 -0.005737 -0.005737 0.014868 0.000000 0.000000 0.000000
# 4 0.000000 0.000000 0.000000 0.045767 0.000000 0.000000
# 5 0.000000 0.000000 0.000000 0.000000 0.045767 0.000000
# 6 0.000000 0.000000 0.000000 0.000000 0.000000 0.055507
#
#
# Mechanical properties :
#
#
# Convention : Reuss Voigt Hill
#
# Bulk Modulus (GPa) = 61.23789 62.34988 61.79388
# Shear Modulus (GPa) = 20.42563 20.72066 20.57315
#
# Velocity S-wave (km/s) = 3.50745 3.53269 3.52009
# Velocity P-wave (km/s) = 7.29972 7.36156 7.33071
#
# Compressibility (1/GPa) = 0.01632976
#
# Stress axis : x y z
#
# Youngs Moduli (GPa) = 50.69790 50.69790 67.25821
#
# Poissons Ratio (x) = 0.38123 0.38586
# Poissons Ratio (y) = 0.38123 0.38586
# Poissons Ratio (z) = 0.29086 0.29086
#
# Static dielectric constant tensor:
#      x y z
#    x 1.577180 0.000000 0.000000 
#    y 0.000000 1.577180 0.000000 
#    z 0.000000 0.000000 1.576940 
# 
# From -- ./inp_files/1456.got.cif
#   From: 2010.05.17/outbox.cif.g08.bks.cpg/sg124_1_cif.got.tgz:1456.got - 2010.05.20 11:49:17.
