data_PCOD9562680
_publ_section_title
;
Structure prediction by ZEFSAII (Michael W. Deem and Ramdas Pophale) SiO2 
 PCOD9562680
Probable space group: P 4/M C C
;
_chemical_formula_sum "Si O2"
_cell_formula_units_Z 60
_cell_length_a 14.358985
_cell_length_b 14.358985
_cell_length_c 14.106749
_cell_angle_alpha 90.000000
_cell_angle_beta 90.000000
_cell_angle_gamma 90.000000
_cell_volume 2908.535860
_symmetry_space_group_name_H-M "P 4/M C C"
_symmetry_group_IT_number 124
_symmetry_cell_setting 'tetragonal'
loop_
_space_group_symop_operation_xyz
x,y,z
-y,x,z
-x,-y,z
y,-x,z
x,-y,1/2-z
-x,y,1/2-z
y,x,1/2-z
-y,-x,1/2-z
-x,-y,-z
y,-x,-z
x,y,-z
-y,x,-z
-x,y,1/2+z
x,-y,1/2+z
-y,-x,1/2+z
y,x,1/2+z
loop_
_atom_site_type_symbol
_atom_site_label
_atom_site_fract_x
_atom_site_fract_y
_atom_site_fract_z
Si Si1 0.500000 0.500000 0.500000
Si Si2 0.213929 0.992696 0.000000
Si Si3 0.497025 0.288983 0.500000
Si Si4 0.230230 0.841749 0.160593
Si Si5 0.182843 0.307213 0.500000
Si Si6 0.597338 0.262031 0.800082
Si Si7 0.000000 0.000000 0.000000
O O1 0.392782 0.462248 0.500000
O O2 0.224191 0.930428 0.906023
O O3 0.292232 0.072018 0.000000
O O4 0.109831 0.036017 0.000000
O O5 0.587644 0.220765 0.500000
O O6 0.433032 0.276444 0.591897
O O7 0.160463 0.839538 0.250000
O O8 0.331645 0.823631 0.204590
O O9 0.215637 0.751849 0.092133
O O10 0.500000 0.245692 0.750000
O O11 0.650442 0.349559 0.750000
#
# Coordination Sequence:
#
# PCOD9562680 Si02
#       7
#     2   8   8  16   8  16   2
#     4  12  20  32  58  92 112 162 232 252 290 384
#     4  11  23  43  70 102 134 168 227 287 339 413
#     4  12  22  37  62  91 132 178 218 280 346 386
#     4  10  21  41  65  92 132 178 217 277 346 405
#     4  11  23  40  62  97 140 172 216 279 348 412
#     4  11  23  39  63  96 130 171 229 281 331 402
#     4  12  20  48  70 108 136 154 240 300 306 424
#
# _framework density 20.628934000000001
#
# number of rings (size 3 to 8) (size 9 to 14) (size 15 to 20)
#    0.000    1.067    2.667    8.000    0.000    1.333 
#    0.000    3.333    0.000    4.800    0.000    0.000 
#    0.000    0.000    0.000    0.000    0.000    0.000 
#
# Total GULP energy -334219.621761 kJ/mol
# GULP energy per Si atom -5570.327029 kJ/mol
# Density = 2.058198 g / cm^3
# Si number density = 20.628934 Si / 1000 Ang^3
#
#
#
# Elastic Constant Matrix: (Units=GPa)
#
#
# Indices 1 2 3 4 5 6 
#
# 1 105.2230 57.4205 32.3411 0.0000 0.0000 0.0000
# 2 57.4205 105.2228 32.3398 0.0000 0.0000 0.0000
# 3 32.3411 32.3398 124.4137 0.0000 0.0000 0.0000
# 4 0.0000 0.0000 0.0000 -3.7463 0.0000 0.0000
# 5 0.0000 0.0000 0.0000 0.0000 -3.7472 0.0000
# 6 0.0000 0.0000 0.0000 0.0000 0.0000 28.5956
#
#
#
# Elastic Compliance Matrix: (Units=1/GPa)
#
#
# Indices 1 2 3 4 5 6 
#
# 1 0.013888 -0.007031 -0.001783 0.000000 0.000000 0.000000
# 2 -0.007031 0.013888 -0.001782 0.000000 0.000000 0.000000
# 3 -0.001783 -0.001782 0.008964 0.000000 0.000000 0.000000
# 4 0.000000 0.000000 0.000000 -0.266928 0.000000 0.000000
# 5 0.000000 0.000000 0.000000 0.000000 -0.266866 0.000000
# 6 0.000000 0.000000 0.000000 0.000000 0.000000 0.034970
#
#
# Mechanical properties :
#
#
# Convention : Reuss Voigt Hill
#
# Bulk Modulus (GPa) = 64.31294 64.34026 64.32660
# Shear Modulus (GPa) = -11.47561 18.40428 3.46434
#
# Velocity S-wave (km/s) = -2.36113 2.99014 1.29731
# Velocity P-wave (km/s) = 4.87960 6.57102 5.78744
#
# Compressibility (1/GPa) = 0.01554897
#
# Stress axis : x y z
#
# Youngs Moduli (GPa) = 72.00249 72.00279 111.55235
#
# Poissons Ratio (x) = 0.50626 0.19886
# Poissons Ratio (y) = 0.50626 0.19883
# Poissons Ratio (z) = 0.12835 0.12834
#
# Static dielectric constant tensor:
#      x y z
#    x 1.751610 0.000000 0.000000 
#    y 0.000000 1.751610 0.000000 
#    z 0.000000 0.000000 1.843980 
# 
# From -- ./inp_files/3037.got.cif
#   From: 2010.05.17/outbox.cif.g08.bks.cpg/sg124_2_cif.got.tgz:3037.got - 2010.05.20 11:49:17.
