data_PCOD9562738
_publ_section_title
;
Structure prediction by ZEFSAII (Michael W. Deem and Ramdas Pophale) SiO2 
 PCOD9562738
Probable space group: P 4/M C C
;
_chemical_formula_sum "Si O2"
_cell_formula_units_Z 96
_cell_length_a 14.452201
_cell_length_b 14.452201
_cell_length_c 21.975908
_cell_angle_alpha 90.000000
_cell_angle_beta 90.000000
_cell_angle_gamma 90.000000
_cell_volume 4590.022500
_symmetry_space_group_name_H-M "P 4/M C C"
_symmetry_group_IT_number 124
_symmetry_cell_setting 'tetragonal'
loop_
_space_group_symop_operation_xyz
x,y,z
-y,x,z
-x,-y,z
y,-x,z
x,-y,1/2-z
-x,y,1/2-z
y,x,1/2-z
-y,-x,1/2-z
-x,-y,-z
y,-x,-z
x,y,-z
-y,x,-z
-x,y,1/2+z
x,-y,1/2+z
-y,-x,1/2+z
y,x,1/2+z
loop_
_atom_site_type_symbol
_atom_site_label
_atom_site_fract_x
_atom_site_fract_y
_atom_site_fract_z
Si Si1 0.498491 0.104353 0.927769
Si Si2 0.627407 0.411661 0.068900
Si Si3 0.303241 0.855186 0.118543
Si Si4 0.026953 0.147793 0.926682
Si Si5 0.889420 0.743526 0.747299
Si Si6 0.326218 0.209229 0.874008
O O1 0.593440 0.151586 0.905943
O O2 0.402336 0.150207 0.909230
O O3 0.500000 0.000000 0.902956
O O4 0.503159 0.101976 0.000000
O O5 0.623685 0.522597 0.072008
O O6 0.689222 0.372973 0.123425
O O7 0.662723 0.387716 0.000000
O O8 0.247903 0.947878 0.099271
O O9 0.305083 0.853237 0.191377
O O10 0.236256 0.772341 0.096350
O O11 0.928959 0.103587 0.907903
O O12 0.027318 0.152833 0.000000
O O13 0.847013 0.847013 0.750000
O O14 0.843526 0.695382 0.688660
O O15 0.000000 0.742731 0.750000
#
# Coordination Sequence:
#
# PCOD9562738 Si02
#       6
#    16  16  16  16  16  16
#     4  11  25  41  62  95 129 165 213 266 331 400
#     4   9  18  35  64 101 136 168 210 270 338 404
#     4  11  24  41  65  91 126 171 219 272 326 390
#     4   9  20  37  61  95 129 163 204 257 334 412
#     4  10  24  43  64  91 122 166 222 274 329 388
#     4  11  23  40  60  88 128 171 216 265 318 392
#
# _framework density 20.914929000000001
#
# number of rings (size 3 to 8) (size 9 to 14) (size 15 to 20)
#    0.000    1.833    0.000    4.000    7.000    4.833 
#    0.000    3.333    0.000    0.000    0.000   10.500 
#    0.000    0.000    0.000    0.000    0.000    0.000 
#
# Total GULP energy -535841.747618 kJ/mol
# GULP energy per Si atom -5581.684871 kJ/mol
# Density = 2.086733 g / cm^3
# Si number density = 20.914929 Si / 1000 Ang^3
#
#
#
# Elastic Constant Matrix: (Units=GPa)
#
#
# Indices 1 2 3 4 5 6 
#
# 1 102.8126 52.4270 38.0183 0.0000 0.0000 0.0000
# 2 52.4270 102.8126 38.0183 0.0000 0.0000 0.0000
# 3 38.0183 38.0183 59.9643 0.0000 0.0000 0.0000
# 4 0.0000 0.0000 0.0000 27.4201 0.0000 0.0000
# 5 0.0000 0.0000 0.0000 0.0000 27.4201 0.0000
# 6 0.0000 0.0000 0.0000 0.0000 0.0000 34.4535
#
#
#
# Elastic Compliance Matrix: (Units=1/GPa)
#
#
# Indices 1 2 3 4 5 6 
#
# 1 0.014595 -0.005252 -0.005924 0.000000 0.000000 0.000000
# 2 -0.005252 0.014595 -0.005924 0.000000 0.000000 0.000000
# 3 -0.005924 -0.005924 0.024188 0.000000 0.000000 0.000000
# 4 0.000000 0.000000 0.000000 0.036470 0.000000 0.000000
# 5 0.000000 0.000000 0.000000 0.000000 0.036470 0.000000
# 6 0.000000 0.000000 0.000000 0.000000 0.000000 0.029025
#
#
# Mechanical properties :
#
#
# Convention : Reuss Voigt Hill
#
# Bulk Modulus (GPa) = 52.13900 58.05739 55.09819
# Shear Modulus (GPa) = 25.51888 27.00046 26.25967
#
# Velocity S-wave (km/s) = 3.49682 3.59690 3.54721
# Velocity P-wave (km/s) = 6.42549 6.71337 6.57101
#
# Compressibility (1/GPa) = 0.01917950
#
# Stress axis : x y z
#
# Youngs Moduli (GPa) = 68.51659 68.51659 41.34294
#
# Poissons Ratio (x) = 0.35985 0.24490
# Poissons Ratio (y) = 0.35985 0.24490
# Poissons Ratio (z) = 0.40587 0.40587
#
# Static dielectric constant tensor:
#      x y z
#    x 1.787090 0.000000 0.000000 
#    y 0.000000 1.787090 0.000000 
#    z 0.000000 0.000000 1.740790 
# 
# From -- ./inp_files/5316.got.cif
#   From: 2010.05.17/outbox.cif.g08.bks.cpg/sg124_3_cif.got.tgz:5316.got - 2010.05.20 11:49:17.
