data_PCOD9562960
_publ_section_title
;
Structure prediction by ZEFSAII (Michael W. Deem and Ramdas Pophale) SiO2 
 PCOD9562960
Probable space group: P 4/N B M
;
_chemical_formula_sum "Si O2"
_cell_formula_units_Z 96
_cell_length_a 27.441418
_cell_length_b 27.441418
_cell_length_c 7.306400
_cell_angle_alpha 90.000000
_cell_angle_beta 90.000000
_cell_angle_gamma 90.000000
_cell_volume 5501.948781
_symmetry_space_group_name_H-M "P 4/N B M"
_symmetry_group_IT_number 125
_space_group.IT_coordinate_system_code '2'
_symmetry_cell_setting 'tetragonal'
loop_
_space_group_symop_operation_xyz
x,y,z
1/2-y,x,z
1/2-x,1/2-y,z
y,1/2-x,z
x,1/2-y,-z
1/2-x,y,-z
y,x,-z
1/2-y,1/2-x,-z
-x,-y,-z
1/2+y,-x,-z
1/2+x,1/2+y,-z
-y,1/2+x,-z
-x,1/2+y,z
1/2+x,-y,z
-y,-x,z
1/2+y,1/2+x,z
loop_
_atom_site_type_symbol
_atom_site_label
_atom_site_fract_x
_atom_site_fract_y
_atom_site_fract_z
Si Si1 0.146348 0.093945 0.340925
Si Si2 0.306715 0.506379 0.449922
Si Si3 0.545128 0.121854 0.168159
Si Si4 0.298153 0.310817 0.218968
Si Si5 0.059843 0.456448 0.799783
Si Si6 0.971025 0.108830 0.265673
O O1 0.109646 0.109646 0.500000
O O2 0.173667 0.142324 0.283427
O O3 0.109621 0.074572 0.187358
O O4 0.181597 0.050440 0.404136
O O5 0.250000 0.513089 0.500000
O O6 0.327691 0.535744 0.273315
O O7 0.342757 0.522105 0.614897
O O8 0.598578 0.098578 0.185470
O O9 0.507715 0.082614 0.260799
O O10 0.531469 0.122238 0.951868
O O11 0.242215 0.315880 0.281054
O O12 0.304891 0.304891 0.000000
O O13 0.017332 0.427040 0.698779
O O14 0.037580 0.462421 0.000000
O O15 0.922585 0.077416 0.307161
#
# Coordination Sequence:
#
# PCOD9562960 Si02
#       6
#    16  16  16  16  16  16
#     4  11  21  32  48  69 102 134 177 221 271 329
#     4  11  24  37  50  79 115 148 180 218 272 330
#     4   9  19  35  57  82 107 141 182 222 266 320
#     4   9  20  37  53  66  81 117 181 250 304 337
#     4   9  17  31  50  77 104 130 169 218 266 318
#     4  10  19  35  58  80 107 143 181 222 267 318
#
# _framework density 17.448361999999999
#
# number of rings (size 3 to 8) (size 9 to 14) (size 15 to 20)
#    0.000    2.167    1.667    2.000    2.333    2.667 
#    0.000    3.333    0.000    0.000    0.000    0.000 
#    0.000    5.333    0.000   14.667    0.000    0.000 
#
# Total GULP energy -534881.481487 kJ/mol
# GULP energy per Si atom -5571.682099 kJ/mol
# Density = 1.740865 g / cm^3
# Si number density = 17.448362 Si / 1000 Ang^3
#
#
#
# Elastic Constant Matrix: (Units=GPa)
#
#
# Indices 1 2 3 4 5 6 
#
# 1 94.4943 73.5879 38.9632 0.0000 0.0000 0.0000
# 2 73.5879 94.4930 38.9630 0.0000 0.0000 0.0000
# 3 38.9632 38.9630 72.4811 0.0000 0.0000 0.0000
# 4 0.0000 0.0000 0.0000 22.7152 0.0000 0.0000
# 5 0.0000 0.0000 0.0000 0.0000 22.7153 0.0000
# 6 0.0000 0.0000 0.0000 0.0000 0.0000 -9.1365
#
#
#
# Elastic Compliance Matrix: (Units=1/GPa)
#
#
# Indices 1 2 3 4 5 6 
#
# 1 0.027879 -0.019955 -0.004260 0.000000 0.000000 0.000000
# 2 -0.019955 0.027879 -0.004260 0.000000 0.000000 0.000000
# 3 -0.004260 -0.004260 0.018377 0.000000 0.000000 0.000000
# 4 0.000000 0.000000 0.000000 0.044023 0.000000 0.000000
# 5 0.000000 0.000000 0.000000 0.000000 0.044023 0.000000
# 6 0.000000 0.000000 0.000000 0.000000 0.000000 -0.109451
#
#
# Mechanical properties :
#
#
# Convention : Reuss Voigt Hill
#
# Bulk Modulus (GPa) = 58.18697 62.72184 60.45441
# Shear Modulus (GPa) = 43.32466 14.58908 28.95687
#
# Velocity S-wave (km/s) = 4.98840 2.89473 4.07821
# Velocity P-wave (km/s) = 8.16084 6.87006 7.54311
#
# Compressibility (1/GPa) = 0.01718598
#
# Stress axis : x y z
#
# Youngs Moduli (GPa) = 35.86951 35.86894 54.41695
#
# Poissons Ratio (x) = 0.71575 0.23181
# Poissons Ratio (y) = 0.71576 0.23182
# Poissons Ratio (z) = 0.15280 0.15280
#
# Static dielectric constant tensor:
#      x y z
#    x 1.592760 0.000000 0.000000 
#    y 0.000000 1.592760 0.000000 
#    z 0.000000 0.000000 1.688600 
# 
# From -- ./inp_files/2914.got.cif
#   From: 2010.05.17/outbox.cif.g08.bks.cpg/sg125_2_cif.got.tgz:2914.got - 2010.05.20 11:54:10.
