data_PCOD9562348
_publ_section_title
;
Structure prediction by ZEFSAII (Michael W. Deem and Ramdas Pophale) SiO2 
 PCOD9562348
Probable space group: P 4/M C C
;
_chemical_formula_sum "Si O2"
_cell_formula_units_Z 96
_cell_length_a 17.031713
_cell_length_b 17.031713
_cell_length_c 14.974187
_cell_angle_alpha 90.000000
_cell_angle_beta 90.000000
_cell_angle_gamma 90.000000
_cell_volume 4343.700900
_symmetry_space_group_name_H-M "P 4/M C C"
_symmetry_group_IT_number 124
_symmetry_cell_setting 'tetragonal'
loop_
_space_group_symop_operation_xyz
x,y,z
-y,x,z
-x,-y,z
y,-x,z
x,-y,1/2-z
-x,y,1/2-z
y,x,1/2-z
-y,-x,1/2-z
-x,-y,-z
y,-x,-z
x,y,-z
-y,x,-z
-x,y,1/2+z
x,-y,1/2+z
-y,-x,1/2+z
y,x,1/2+z
loop_
_atom_site_type_symbol
_atom_site_label
_atom_site_fract_x
_atom_site_fract_y
_atom_site_fract_z
Si Si1 0.980540 0.701853 0.600330
Si Si2 0.191671 0.738664 0.891593
Si Si3 0.873046 0.006856 0.142501
Si Si4 0.720212 0.453164 0.340837
Si Si5 0.852964 0.671896 0.108621
Si Si6 0.677092 0.383559 0.900175
O O1 0.967342 0.669570 0.500000
O O2 0.895073 0.717281 0.643646
O O3 0.011775 0.790726 0.596111
O O4 0.057178 0.659696 0.641024
O O5 0.245342 0.812420 0.860754
O O6 0.246081 0.664110 0.871122
O O7 0.183576 0.747237 0.000000
O O8 0.920582 0.928389 0.118463
O O9 0.863441 0.000000 0.250000
O O10 0.734400 0.500000 0.250000
O O11 0.793994 0.398381 0.365601
O O12 0.696976 0.525609 0.403318
O O13 0.645739 0.395120 0.341536
O O14 0.856167 0.674655 0.000000
O O15 0.658258 0.354244 0.000000
#
# Coordination Sequence:
#
# PCOD9562348 Si02
#       6
#    16  16  16  16  16  16
#     4  10  18  31  54  82 108 146 204 252 285 337
#     4   8  16  31  52  80 111 145 190 243 288 336
#     4   9  18  31  44  66 106 150 190 242 309 362
#     4  11  22  38  59  89 121 149 188 236 290 353
#     4   9  18  34  56  83 120 160 195 241 300 350
#     4  10  20  38  62  85 115 154 190 231 292 358
#
# _framework density 22.100968999999999
#
# number of rings (size 3 to 8) (size 9 to 14) (size 15 to 20)
#    0.000    2.500    0.000    4.500    0.000    2.333 
#    3.000    3.333    0.000    5.000    0.000    0.000 
#    0.000    0.000    0.000    0.000    0.000    0.000 
#
# Total GULP energy -535327.124017 kJ/mol
# GULP energy per Si atom -5576.324209 kJ/mol
# Density = 2.205067 g / cm^3
# Si number density = 22.100969 Si / 1000 Ang^3
#
#
#
# Elastic Constant Matrix: (Units=GPa)
#
#
# Indices 1 2 3 4 5 6 
#
# 1 192.2779 3.1066 12.5452 0.0000 0.0000 0.0000
# 2 3.1066 192.2779 12.5452 0.0000 0.0000 0.0000
# 3 12.5452 12.5452 43.8818 0.0000 0.0000 0.0000
# 4 0.0000 0.0000 0.0000 19.0495 0.0000 0.0000
# 5 0.0000 0.0000 0.0000 0.0000 19.0495 0.0000
# 6 0.0000 0.0000 0.0000 0.0000 0.0000 -11.9541
#
#
#
# Elastic Compliance Matrix: (Units=1/GPa)
#
#
# Indices 1 2 3 4 5 6 
#
# 1 0.005300 0.000013 -0.001519 0.000000 0.000000 0.000000
# 2 0.000013 0.005300 -0.001519 0.000000 0.000000 0.000000
# 3 -0.001519 -0.001519 0.023657 0.000000 0.000000 0.000000
# 4 0.000000 0.000000 0.000000 0.052495 0.000000 0.000000
# 5 0.000000 0.000000 0.000000 0.000000 0.052495 0.000000
# 6 0.000000 0.000000 0.000000 0.000000 0.000000 -0.083653
#
#
# Mechanical properties :
#
#
# Convention : Reuss Voigt Hill
#
# Bulk Modulus (GPa) = 35.45158 53.87020 44.66089
# Shear Modulus (GPa) = 70.37878 31.91169 51.14523
#
# Velocity S-wave (km/s) = 5.64919 3.80400 4.81579
# Velocity P-wave (km/s) = 7.65681 6.61221 7.15360
#
# Compressibility (1/GPa) = 0.02820749
#
# Stress axis : x y z
#
# Youngs Moduli (GPa) = 188.69021 188.69021 42.27078
#
# Poissons Ratio (x) = -0.00254 0.06421
# Poissons Ratio (y) = -0.00254 0.06421
# Poissons Ratio (z) = 0.28661 0.28661
#
# Static dielectric constant tensor:
#      x y z
#    x 1.817510 0.000000 0.000000 
#    y 0.000000 1.817510 0.000000 
#    z 0.000000 0.000000 1.938530 
# 
# From -- ./inp_files/5336.got.cif
#   From: 2010.05.17/outbox.cif.g08.bks.cpg/sg124_3_cif.got.tgz:5336.got - 2010.05.20 11:49:17.
