data_PCOD9562202
_publ_section_title
;
Structure prediction by ZEFSAII (Michael W. Deem and Ramdas Pophale) SiO2 
 PCOD9562202
Probable space group: P 4/M M M
;
_chemical_formula_sum "Si O2"
_cell_formula_units_Z 72
_cell_length_a 20.833581
_cell_length_b 20.833581
_cell_length_c 8.752259
_cell_angle_alpha 90.000000
_cell_angle_beta 90.000000
_cell_angle_gamma 90.000000
_cell_volume 3798.813843
_symmetry_space_group_name_H-M "P 4/M M M"
_symmetry_group_IT_number 123
_symmetry_cell_setting 'tetragonal'
loop_
_space_group_symop_operation_xyz
x,y,z
-y,x,z
-x,-y,z
y,-x,z
x,-y,-z
-x,y,-z
y,x,-z
-y,-x,-z
-x,-y,-z
y,-x,-z
x,y,-z
-y,x,-z
-x,y,z
x,-y,z
-y,-x,z
y,x,z
loop_
_atom_site_type_symbol
_atom_site_label
_atom_site_fract_x
_atom_site_fract_y
_atom_site_fract_z
Si Si1 0.677765 0.572203 0.315994
Si Si2 0.075884 0.500000 0.316439
Si Si3 0.074348 0.179296 0.821444
Si Si4 0.274990 0.166909 0.672997
Si Si5 0.819419 0.406545 0.177965
O O1 0.683033 0.577597 0.500000
O O2 0.653219 0.500000 0.281011
O O3 0.628677 0.628677 0.264994
O O4 0.749719 0.576988 0.249149
O O5 0.076183 0.500000 0.500000
O O6 0.119544 0.558958 0.256120
O O7 0.000000 0.500000 0.268264
O O8 0.114340 0.114340 0.799952
O O9 0.105694 0.232138 0.713250
O O10 0.000000 0.170227 0.792022
O O11 0.082821 0.198440 0.000000
O O12 0.300693 0.164067 0.500000
O O13 0.227957 0.227957 0.683247
O O14 0.331431 0.172718 0.792601
O O15 0.818962 0.422725 0.000000
#
# Coordination Sequence:
#
# PCOD9562202 Si02
#       5
#    16   8  16  16  16
#     4  10  21  38  62  91 126 169 213 256 302 357
#     4  11  25  45  67  89 116 153 196 243 295 356
#     4   9  18  33  53  79 112 148 188 237 293 353
#     4  10  21  37  58  83 112 150 196 243 290 343
#     4  12  24  39  62  90 121 157 196 244 302 360
#
# _framework density 18.953285000000001
#
# number of rings (size 3 to 8) (size 9 to 14) (size 15 to 20)
#    0.000    1.667    1.111    3.667    0.000    7.111 
#    0.000    2.222    0.000    0.000    0.000    4.667 
#    0.000    0.000    0.000    0.000    0.000    0.000 
#
# Total GULP energy -401822.091158 kJ/mol
# GULP energy per Si atom -5580.862377 kJ/mol
# Density = 1.891015 g / cm^3
# Si number density = 18.953285 Si / 1000 Ang^3
#
#
#
# Elastic Constant Matrix: (Units=GPa)
#
#
# Indices 1 2 3 4 5 6 
#
# 1 116.8190 39.5432 36.5410 0.0000 0.0000 0.0000
# 2 39.5432 116.8190 36.5410 0.0000 0.0000 0.0000
# 3 36.5410 36.5410 56.9773 0.0000 0.0000 0.0000
# 4 0.0000 0.0000 0.0000 19.8572 0.0000 0.0000
# 5 0.0000 0.0000 0.0000 0.0000 19.8572 0.0000
# 6 0.0000 0.0000 0.0000 0.0000 0.0000 -23.3733
#
#
#
# Elastic Compliance Matrix: (Units=1/GPa)
#
#
# Indices 1 2 3 4 5 6 
#
# 1 0.011037 -0.001904 -0.005857 0.000000 0.000000 0.000000
# 2 -0.001904 0.011037 -0.005857 0.000000 0.000000 0.000000
# 3 -0.005857 -0.005857 0.025064 0.000000 0.000000 0.000000
# 4 0.000000 0.000000 0.000000 0.050360 0.000000 0.000000
# 5 0.000000 0.000000 0.000000 0.000000 0.050360 0.000000
# 6 0.000000 0.000000 0.000000 0.000000 0.000000 -0.042784
#
#
# Mechanical properties :
#
#
# Convention : Reuss Voigt Hill
#
# Bulk Modulus (GPa) = 50.24940 57.31839 53.78390
# Shear Modulus (GPa) = 35.98601 15.13422 25.56012
#
# Velocity S-wave (km/s) = 4.36210 2.82884 3.67629
# Velocity P-wave (km/s) = 7.20696 6.40136 6.81607
#
# Compressibility (1/GPa) = 0.01990073
#
# Stress axis : x y z
#
# Youngs Moduli (GPa) = 90.60569 90.60569 39.89845
#
# Poissons Ratio (x) = 0.17250 0.23369
# Poissons Ratio (y) = 0.17250 0.23369
# Poissons Ratio (z) = 0.53070 0.53070
#
# Static dielectric constant tensor:
#      x y z
#    x 1.653090 0.000000 0.000000 
#    y 0.000000 1.653090 0.000000 
#    z 0.000000 0.000000 1.667880 
# 
# From -- ./inp_files/1085.got.cif
#   From: 2010.05.17/outbox.cif.g08.bks.cpg/sg123_1_cif.got.tgz:1085.got - 2010.05.20 11:43:04.
