data_PCOD9562077
_publ_section_title
;
Structure prediction by ZEFSAII (Michael W. Deem and Ramdas Pophale) SiO2 
 PCOD9562077
Probable space group: P 4/M M M
;
_chemical_formula_sum "Si O2"
_cell_formula_units_Z 72
_cell_length_a 22.503228
_cell_length_b 22.503228
_cell_length_c 7.760483
_cell_angle_alpha 90.000000
_cell_angle_beta 90.000000
_cell_angle_gamma 90.000000
_cell_volume 3929.871887
_symmetry_space_group_name_H-M "P 4/M M M"
_symmetry_group_IT_number 123
_symmetry_cell_setting 'tetragonal'
loop_
_space_group_symop_operation_xyz
x,y,z
-y,x,z
-x,-y,z
y,-x,z
x,-y,-z
-x,y,-z
y,x,-z
-y,-x,-z
-x,-y,-z
y,-x,-z
x,y,-z
-y,x,-z
-x,y,z
x,-y,z
-y,-x,z
y,x,z
loop_
_atom_site_type_symbol
_atom_site_label
_atom_site_fract_x
_atom_site_fract_y
_atom_site_fract_z
Si Si1 0.433201 0.770107 0.000000
Si Si2 0.637968 0.000000 0.695553
Si Si3 0.837578 0.067569 0.207687
Si Si4 0.341264 0.241129 0.294921
Si Si5 0.500000 0.000000 0.753372
Si Si6 0.706973 0.886874 0.293190
Si Si7 0.500000 0.888298 0.000000
O O1 0.397355 0.751912 0.170082
O O2 0.445220 0.841925 0.000000
O O3 0.500000 0.745064 0.000000
O O4 0.567037 0.000000 0.682812
O O5 0.664434 0.060259 0.775400
O O6 0.661468 0.000000 0.500000
O O7 0.890583 0.109418 0.272285
O O8 0.774214 0.096271 0.250156
O O9 0.839977 0.000000 0.272992
O O10 0.842025 0.065219 0.000000
O O11 0.356138 0.237872 0.500000
O O12 0.293907 0.293907 0.272855
O O13 0.311393 0.178825 0.237076
O O14 0.500000 0.064449 0.846287
O O15 0.701310 0.884709 0.500000
#
# Coordination Sequence:
#
# PCOD9562077 Si02
#       7
#     8   8  16  16   4  16   4
#     4  10  22  39  56  83 118 155 195 235 283 340
#     4  10  20  33  54  77 104 142 185 232 284 332
#     4  10  21  36  52  74  98 129 172 221 284 350
#     4  10  21  37  59  86 116 153 195 240 289 339
#     4  11  19  36  50  72 107 145 192 239 266 326
#     4  10  20  36  54  79 108 138 180 232 285 335
#     4   9  22  36  48  76 110 152 195 228 280 328
#
# _framework density 18.321209
#
# number of rings (size 3 to 8) (size 9 to 14) (size 15 to 20)
#    0.333    1.667    1.111    2.500    1.556    2.000 
#    4.000    2.222    0.000    0.000    0.000    1.556 
#    0.000    3.556    0.000    9.778    0.000    0.000 
#
# Total GULP energy -401228.746886 kJ/mol
# GULP energy per Si atom -5572.621485 kJ/mol
# Density = 1.827951 g / cm^3
# Si number density = 18.321209 Si / 1000 Ang^3
#
#
#
# Elastic Constant Matrix: (Units=GPa)
#
#
# Indices 1 2 3 4 5 6 
#
# 1 116.7412 72.8308 44.2521 0.0000 0.0000 0.0000
# 2 72.8308 116.7412 44.2521 0.0000 0.0000 0.0000
# 3 44.2521 44.2521 56.5113 0.0000 0.0000 0.0000
# 4 0.0000 0.0000 0.0000 26.6657 0.0000 0.0000
# 5 0.0000 0.0000 0.0000 0.0000 26.6657 0.0000
# 6 0.0000 0.0000 0.0000 0.0000 0.0000 25.0120
#
#
#
# Elastic Compliance Matrix: (Units=1/GPa)
#
#
# Indices 1 2 3 4 5 6 
#
# 1 0.015544 -0.007229 -0.006511 0.000000 0.000000 0.000000
# 2 -0.007229 0.015544 -0.006511 0.000000 0.000000 0.000000
# 3 -0.006511 -0.006511 0.027893 0.000000 0.000000 0.000000
# 4 0.000000 0.000000 0.000000 0.037501 0.000000 0.000000
# 5 0.000000 0.000000 0.000000 0.000000 0.037501 0.000000
# 6 0.000000 0.000000 0.000000 0.000000 0.000000 0.039981
#
#
# Mechanical properties :
#
#
# Convention : Reuss Voigt Hill
#
# Bulk Modulus (GPa) = 54.11794 68.07377 61.09585
# Shear Modulus (GPa) = 22.66266 24.24592 23.45429
#
# Velocity S-wave (km/s) = 3.52086 3.64178 3.58183
# Velocity P-wave (km/s) = 6.79199 7.41079 7.10813
#
# Compressibility (1/GPa) = 0.01847816
#
# Stress axis : x y z
#
# Youngs Moduli (GPa) = 64.33262 64.33262 35.85159
#
# Poissons Ratio (x) = 0.46509 0.23343
# Poissons Ratio (y) = 0.46509 0.23343
# Poissons Ratio (z) = 0.41887 0.41887
#
# Static dielectric constant tensor:
#      x y z
#    x 1.619610 0.000000 0.000000 
#    y 0.000000 1.619610 0.000000 
#    z 0.000000 0.000000 1.678550 
# 
# From -- ./inp_files/1275.got.cif
#   From: 2010.05.17/outbox.cif.g08.bks.cpg/sg123_1_cif.got.tgz:1275.got - 2010.05.20 11:43:04.
