data_PCOD9562803
_publ_section_title
;
Structure prediction by ZEFSAII (Michael W. Deem and Ramdas Pophale) SiO2 
 PCOD9562803
Probable space group: P 4/M C C
;
_chemical_formula_sum "Si O2"
_cell_formula_units_Z 84
_cell_length_a 11.923538
_cell_length_b 11.923538
_cell_length_c 29.058802
_cell_angle_alpha 90.000000
_cell_angle_beta 90.000000
_cell_angle_gamma 90.000000
_cell_volume 4131.311920
_symmetry_space_group_name_H-M "P 4/M C C"
_symmetry_group_IT_number 124
_symmetry_cell_setting 'tetragonal'
loop_
_space_group_symop_operation_xyz
x,y,z
-y,x,z
-x,-y,z
y,-x,z
x,-y,1/2-z
-x,y,1/2-z
y,x,1/2-z
-y,-x,1/2-z
-x,-y,-z
y,-x,-z
x,y,-z
-y,x,-z
-x,y,1/2+z
x,-y,1/2+z
-y,-x,1/2+z
y,x,1/2+z
loop_
_atom_site_type_symbol
_atom_site_label
_atom_site_fract_x
_atom_site_fract_y
_atom_site_fract_z
Si Si1 0.396469 0.840984 0.130476
Si Si2 0.591752 0.333933 0.947994
Si Si3 0.832792 0.084595 0.445534
Si Si4 0.000000 0.000000 0.823776
Si Si5 0.189658 0.177825 0.695217
Si Si6 0.351883 0.898163 0.627260
O O1 0.369918 0.754337 0.089811
O O2 0.315081 0.819354 0.173842
O O3 0.531041 0.834751 0.134249
O O4 0.375638 0.970881 0.119246
O O5 0.645896 0.457335 0.943597
O O6 0.614054 0.292908 0.000000
O O7 0.811793 0.094745 0.500000
O O8 0.731163 0.129194 0.415167
O O9 0.952348 0.143737 0.435231
O O10 0.067987 0.120664 0.820688
O O11 0.184379 0.184379 0.750000
O O12 0.126273 0.282582 0.672942
#
# Coordination Sequence:
#
# PCOD9562803 Si02
#       6
#    16  16  16   4  16  16
#     4  11  24  40  60  94 131 164 206 259 322 383
#     4   9  19  39  67  94 122 164 218 267 309 365
#     4   9  19  36  60  92 130 174 222 268 316 373
#     4  12  25  44  72 100 117 158 221 264 312 380
#     4  12  25  44  69  94 124 163 213 265 314 382
#     4  11  24  39  60  92 130 170 206 254 323 383
#
# _framework density 20.332525
#
# number of rings (size 3 to 8) (size 9 to 14) (size 15 to 20)
#    0.000    1.524    1.905    4.286    0.000    2.286 
#    0.000    8.571    0.000    0.000    0.000    2.000 
#    0.000    0.000    0.000    0.000    0.000    0.000 
#
# Total GULP energy -468170.888959 kJ/mol
# GULP energy per Si atom -5573.462964 kJ/mol
# Density = 2.028625 g / cm^3
# Si number density = 20.332525 Si / 1000 Ang^3
#
#
#
# Elastic Constant Matrix: (Units=GPa)
#
#
# Indices 1 2 3 4 5 6 
#
# 1 127.8207 19.0311 40.5764 0.0000 0.0000 0.0000
# 2 19.0311 127.8207 40.5764 0.0000 0.0000 0.0000
# 3 40.5764 40.5764 89.0265 0.0000 0.0000 0.0000
# 4 0.0000 0.0000 0.0000 -18.3623 0.0000 0.0000
# 5 0.0000 0.0000 0.0000 0.0000 -18.3623 0.0000
# 6 0.0000 0.0000 0.0000 0.0000 0.0000 19.5857
#
#
#
# Elastic Compliance Matrix: (Units=1/GPa)
#
#
# Indices 1 2 3 4 5 6 
#
# 1 0.009147 -0.000045 -0.004149 0.000000 0.000000 0.000000
# 2 -0.000045 0.009147 -0.004149 0.000000 0.000000 0.000000
# 3 -0.004149 -0.004149 0.015014 0.000000 0.000000 0.000000
# 4 0.000000 0.000000 0.000000 -0.054459 0.000000 0.000000
# 5 0.000000 0.000000 0.000000 0.000000 -0.054459 0.000000
# 6 0.000000 0.000000 0.000000 0.000000 0.000000 0.051058
#
#
# Mechanical properties :
#
#
# Convention : Reuss Voigt Hill
#
# Bulk Modulus (GPa) = 60.15291 60.55954 60.35622
# Shear Modulus (GPa) = -2148.76847 12.87114 -1067.94866
#
# Velocity S-wave (km/s) = -32.54393 2.51874 -22.94301
# Velocity P-wave (km/s) = 37.18191 6.18934 25.92476
#
# Compressibility (1/GPa) = 0.01662430
#
# Stress axis : x y z
#
# Youngs Moduli (GPa) = 109.32418 109.32418 66.60327
#
# Poissons Ratio (x) = 0.00491 0.27631
# Poissons Ratio (y) = 0.00491 0.27631
# Poissons Ratio (z) = 0.45354 0.45354
#
# Static dielectric constant tensor:
#      x y z
#    x 1.763790 0.000000 0.000000 
#    y 0.000000 1.763790 0.000000 
#    z 0.000000 0.000000 1.587740 
# 
# From -- ./inp_files/7089.got.cif
#   From: 2010.05.17/outbox.cif.g08.bks.cpg/sg124_4_cif.got.tgz:7089.got - 2010.05.20 11:49:17.
