data_PCOD9562967
_publ_section_title
;
Structure prediction by ZEFSAII (Michael W. Deem and Ramdas Pophale) SiO2 
 PCOD9562967
Probable space group: P 4/N B M
;
_chemical_formula_sum "Si O2"
_cell_formula_units_Z 56
_cell_length_a 18.336363
_cell_length_b 18.336363
_cell_length_c 7.529963
_cell_angle_alpha 90.000000
_cell_angle_beta 90.000000
_cell_angle_gamma 90.000000
_cell_volume 2531.740787
_symmetry_space_group_name_H-M "P 4/N B M"
_symmetry_group_IT_number 125
_space_group.IT_coordinate_system_code '2'
_symmetry_cell_setting 'tetragonal'
loop_
_space_group_symop_operation_xyz
x,y,z
1/2-y,x,z
1/2-x,1/2-y,z
y,1/2-x,z
x,1/2-y,-z
1/2-x,y,-z
y,x,-z
1/2-y,1/2-x,-z
-x,-y,-z
1/2+y,-x,-z
1/2+x,1/2+y,-z
-y,1/2+x,-z
-x,1/2+y,z
1/2+x,-y,z
-y,-x,z
1/2+y,1/2+x,z
loop_
_atom_site_type_symbol
_atom_site_label
_atom_site_fract_x
_atom_site_fract_y
_atom_site_fract_z
Si Si1 0.939816 0.172842 0.971862
Si Si2 0.750000 0.924637 0.500000
Si Si3 0.901718 0.838121 0.178548
Si Si4 0.886710 0.997171 0.337491
O O1 0.887649 0.112352 0.886419
O O2 0.016838 0.185127 0.876294
O O3 0.901481 0.250000 0.000000
O O4 0.963154 0.143777 0.163843
O O5 0.721685 0.879514 0.327565
O O6 0.818181 0.976420 0.457139
O O7 0.911538 0.917564 0.268565
O O8 0.853000 0.853000 0.000000
O O9 0.950485 0.049516 0.408973
#
# Coordination Sequence:
#
# PCOD9562967 Si02
#       4
#    16   8  16  16
#     4  10  19  37  62  92 127 168 217 273 339 416
#     4  12  22  38  64  98 130 176 214 280 348 406
#     4  10  22  39  64  94 128 164 222 281 336 399
#     4  10  22  40  63  96 129 166 219 280 339 404
#
# _framework density 22.119167999999998
#
# number of rings (size 3 to 8) (size 9 to 14) (size 15 to 20)
#    0.000    1.714    2.857    1.714    0.000    7.143 
#    0.000    0.000    0.000    7.286   14.857    0.000 
#    0.000    0.000    0.000    0.000    0.000    0.000 
#
# Total GULP energy -312433.645477 kJ/mol
# GULP energy per Si atom -5579.172241 kJ/mol
# Density = 2.206882 g / cm^3
# Si number density = 22.119168 Si / 1000 Ang^3
#
#
#
# Elastic Constant Matrix: (Units=GPa)
#
#
# Indices 1 2 3 4 5 6 
#
# 1 81.7330 61.5076 50.3935 0.0000 0.0000 0.0000
# 2 61.5076 81.7330 50.3935 0.0000 0.0000 0.0000
# 3 50.3935 50.3935 108.9833 0.0000 0.0000 0.0000
# 4 0.0000 0.0000 0.0000 20.0119 0.0000 0.0000
# 5 0.0000 0.0000 0.0000 0.0000 20.0119 0.0000
# 6 0.0000 0.0000 0.0000 0.0000 0.0000 9.1690
#
#
#
# Elastic Compliance Matrix: (Units=1/GPa)
#
#
# Indices 1 2 3 4 5 6 
#
# 1 0.029895 -0.019547 -0.004785 0.000000 0.000000 0.000000
# 2 -0.019547 0.029895 -0.004785 0.000000 0.000000 0.000000
# 3 -0.004785 -0.004785 0.013601 0.000000 0.000000 0.000000
# 4 0.000000 0.000000 0.000000 0.049970 0.000000 0.000000
# 5 0.000000 0.000000 0.000000 0.000000 0.049970 0.000000
# 6 0.000000 0.000000 0.000000 0.000000 0.000000 0.109063
#
#
# Mechanical properties :
#
#
# Convention : Reuss Voigt Hill
#
# Bulk Modulus (GPa) = 65.97514 66.33761 66.15638
# Shear Modulus (GPa) = 14.46417 17.18219 15.82318
#
# Velocity S-wave (km/s) = 2.55996 2.79014 2.67752
# Velocity P-wave (km/s) = 6.21528 6.35893 6.28752
#
# Compressibility (1/GPa) = 0.01515722
#
# Stress axis : x y z
#
# Youngs Moduli (GPa) = 33.44991 33.44991 73.52533
#
# Poissons Ratio (x) = 0.65386 0.35181
# Poissons Ratio (y) = 0.65386 0.35181
# Poissons Ratio (z) = 0.16005 0.16005
#
# Static dielectric constant tensor:
#      x y z
#    x 1.815590 0.000000 0.000000 
#    y 0.000000 1.815590 0.000000 
#    z 0.000000 0.000000 1.983240 
# 
# From -- ./inp_files/2097.got.cif
#   From: 2010.05.17/outbox.cif.g08.bks.cpg/sg125_2_cif.got.tgz:2097.got - 2010.05.20 11:54:10.
