data_PCOD9562113
_publ_section_title
;
Structure prediction by ZEFSAII (Michael W. Deem and Ramdas Pophale) SiO2 
 PCOD9562113
Probable space group: P 4/M M M
;
_chemical_formula_sum "Si O2"
_cell_formula_units_Z 56
_cell_length_a 18.775529
_cell_length_b 18.775529
_cell_length_c 7.423485
_cell_angle_alpha 90.000000
_cell_angle_beta 90.000000
_cell_angle_gamma 90.000000
_cell_volume 2616.930564
_symmetry_space_group_name_H-M "P 4/M M M"
_symmetry_group_IT_number 123
_symmetry_cell_setting 'tetragonal'
loop_
_space_group_symop_operation_xyz
x,y,z
-y,x,z
-x,-y,z
y,-x,z
x,-y,-z
-x,y,-z
y,x,-z
-y,-x,-z
-x,-y,-z
y,-x,-z
x,y,-z
-y,x,-z
-x,y,z
x,-y,z
-y,-x,z
y,x,z
loop_
_atom_site_type_symbol
_atom_site_label
_atom_site_fract_x
_atom_site_fract_y
_atom_site_fract_z
Si Si1 0.853355 0.353911 0.288298
Si Si2 0.000000 0.273109 0.215627
Si Si3 0.699908 0.699908 0.720860
Si Si4 0.083102 0.500000 0.721316
Si Si5 0.582182 0.417819 0.280880
Si Si6 0.000000 0.886646 0.219616
O O1 0.840107 0.363995 0.500000
O O2 0.779908 0.320587 0.217715
O O3 0.875421 0.430615 0.214595
O O4 0.925980 0.309015 0.271658
O O5 0.000000 0.192898 0.284221
O O6 0.000000 0.273407 0.000000
O O7 0.700238 0.700238 0.500000
O O8 0.640774 0.640774 0.775563
O O9 0.081876 0.500000 0.500000
O O10 0.000000 0.500000 0.775827
O O11 0.598309 0.500000 0.226542
O O12 0.582667 0.417334 0.500000
O O13 0.068809 0.931192 0.275587
O O14 0.000000 0.885719 0.000000
#
# Coordination Sequence:
#
# PCOD9562113 Si02
#       6
#    16   8   8   8   8   8
#     4  10  20  35  52  74 104 136 173 212 253 303
#     4  11  22  34  53  78 102 133 166 208 264 309
#     4   9  19  30  48  75 102 141 180 212 258 314
#     4   9  16  30  52  72  93 133 177 206 243 301
#     4   8  14  25  42  71 111 143 169 213 267 309
#     4   8  16  32  52  71  91 121 162 199 234 291
#
# _framework density 21.399114999999998
#
# number of rings (size 3 to 8) (size 9 to 14) (size 15 to 20)
#    0.000    2.714    1.429    1.286    4.000    0.000 
#    0.000    1.429    0.000    0.000    0.000    4.000 
#    0.000    0.000    0.000    6.286    0.000    5.714 
#
# Total GULP energy -312475.147184 kJ/mol
# GULP energy per Si atom -5579.913343 kJ/mol
# Density = 2.135041 g / cm^3
# Si number density = 21.399115 Si / 1000 Ang^3
#
#
#
# Elastic Constant Matrix: (Units=GPa)
#
#
# Indices 1 2 3 4 5 6 
#
# 1 231.6835 147.1423 -2.5056 0.0000 0.0000 0.0000
# 2 147.1423 231.6836 -2.5056 0.0000 0.0000 0.0000
# 3 -2.5056 -2.5056 67.2573 0.0000 0.0000 0.0000
# 4 0.0000 0.0000 0.0000 -20.8573 0.0000 0.0000
# 5 0.0000 0.0000 0.0000 0.0000 -20.8572 0.0000
# 6 0.0000 0.0000 0.0000 0.0000 0.0000 8.1627
#
#
#
# Elastic Compliance Matrix: (Units=1/GPa)
#
#
# Indices 1 2 3 4 5 6 
#
# 1 0.007235 -0.004594 0.000098 0.000000 0.000000 0.000000
# 2 -0.004594 0.007235 0.000098 0.000000 0.000000 0.000000
# 3 0.000098 0.000098 0.014876 0.000000 0.000000 0.000000
# 4 0.000000 0.000000 0.000000 -0.047945 0.000000 0.000000
# 5 0.000000 0.000000 0.000000 0.000000 -0.047945 0.000000
# 6 0.000000 0.000000 0.000000 0.000000 0.000000 0.122508
#
#
# Mechanical properties :
#
#
# Convention : Reuss Voigt Hill
#
# Bulk Modulus (GPa) = 48.65889 90.54295 69.60092
# Shear Modulus (GPa) = 69.82490 19.18920 44.50705
#
# Velocity S-wave (km/s) = 5.71845 2.99779 4.56549
# Velocity P-wave (km/s) = 8.14794 7.37467 7.77093
#
# Compressibility (1/GPa) = 0.02055123
#
# Stress axis : x y z
#
# Youngs Moduli (GPa) = 138.22097 138.22102 67.22417
#
# Poissons Ratio (x) = 0.63495 -0.00661
# Poissons Ratio (y) = 0.63495 -0.00661
# Poissons Ratio (z) = -0.01360 -0.01360
#
# Static dielectric constant tensor:
#      x y z
#    x 1.769740 0.000000 0.000000 
#    y 0.000000 1.769740 0.000000 
#    z 0.000000 0.000000 1.815310 
# 
# From -- ./inp_files/672.got.cif
#   From: 2010.05.17/outbox.cif.g08.bks.cpg/sg123_1_cif.got.tgz:672.got - 2010.05.20 11:43:04.
