data_PCOD9562917
_publ_section_title
;
Structure prediction by ZEFSAII (Michael W. Deem and Ramdas Pophale) SiO2 
 PCOD9562917
Probable space group: P 4/N B M
;
_chemical_formula_sum "Si O2"
_cell_formula_units_Z 104
_cell_length_a 17.898197
_cell_length_b 17.898197
_cell_length_c 19.135773
_cell_angle_alpha 90.000000
_cell_angle_beta 90.000000
_cell_angle_gamma 90.000000
_cell_volume 6130.057925
_symmetry_space_group_name_H-M "P 4/N B M"
_symmetry_group_IT_number 125
_space_group.IT_coordinate_system_code '2'
_symmetry_cell_setting 'tetragonal'
loop_
_space_group_symop_operation_xyz
x,y,z
1/2-y,x,z
1/2-x,1/2-y,z
y,1/2-x,z
x,1/2-y,-z
1/2-x,y,-z
y,x,-z
1/2-y,1/2-x,-z
-x,-y,-z
1/2+y,-x,-z
1/2+x,1/2+y,-z
-y,1/2+x,-z
-x,1/2+y,z
1/2+x,-y,z
-y,-x,z
1/2+y,1/2+x,z
loop_
_atom_site_type_symbol
_atom_site_label
_atom_site_fract_x
_atom_site_fract_y
_atom_site_fract_z
Si Si1 0.438064 0.561937 0.112763
Si Si2 0.336896 0.455447 0.208458
Si Si3 0.438060 0.938060 0.112772
Si Si4 0.495519 0.123587 0.499997
Si Si5 0.157851 0.657851 0.000002
Si Si6 0.542235 0.167746 0.349551
Si Si7 0.044556 0.163106 0.208463
Si Si8 0.042232 0.832257 0.650446
O O1 0.382612 0.513408 0.160868
O O2 0.500004 0.499997 0.083973
O O3 0.385758 0.614243 0.063303
O O4 0.344893 0.482085 0.288797
O O5 0.375724 0.375725 0.199792
O O6 0.250000 0.455418 0.190332
O O7 0.486591 0.882611 0.160878
O O8 0.385753 0.885753 0.063313
O O9 0.558181 0.058181 0.499995
O O10 0.508088 0.164961 0.427131
O O11 0.508092 0.164960 0.572863
O O12 0.415861 0.084140 0.500000
O O13 0.146739 0.750000 0.000000
O O14 0.604458 0.104458 0.344258
O O15 0.575313 0.250002 0.337911
O O16 0.017924 0.155110 0.288803
O O17 0.104450 0.895550 0.655743
#
# Coordination Sequence:
#
# PCOD9562917 Si02
#       8
#     8  16   8  16   8  16  16  16
#     4  10  20  37  60  82 109 142 180 215 255 307
#     4  10  20  34  54  78 106 140 178 222 266 313
#     4  10  20  37  60  82 109 142 180 215 255 307
#     4   9  17  28  45  65  89 125 173 225 270 312
#     4  11  23  38  58  86 119 145 170 210 256 309
#     4  10  19  31  47  70 100 135 177 222 268 318
#     4  10  20  34  54  78 106 140 178 222 266 313
#     4  10  19  31  47  70 100 135 177 222 268 318
#
# _framework density 16.965582000000001
#
# number of rings (size 3 to 8) (size 9 to 14) (size 15 to 20)
#    0.000    2.077    1.538    2.538    0.000    1.846 
#    0.000    0.000    0.000    2.769    0.000    0.000 
#    0.000   22.154    0.000    0.000    0.000    0.000 
#
# Total GULP energy -579036.432009 kJ/mol
# GULP energy per Si atom -5567.658000 kJ/mol
# Density = 1.692697 g / cm^3
# Si number density = 16.965582 Si / 1000 Ang^3
#
#
#
# Elastic Constant Matrix: (Units=GPa)
#
#
# Indices 1 2 3 4 5 6 
#
# 1 110.3693 68.6661 36.2112 0.0000 0.0000 0.0000
# 2 68.6661 110.3683 36.2106 0.0000 0.0000 0.0000
# 3 36.2112 36.2106 84.9283 0.0000 0.0000 0.0000
# 4 0.0000 0.0000 0.0000 19.6457 0.0000 0.0000
# 5 0.0000 0.0000 0.0000 0.0000 19.6447 0.0000
# 6 0.0000 0.0000 0.0000 0.0000 0.0000 15.6182
#
#
#
# Elastic Compliance Matrix: (Units=1/GPa)
#
#
# Indices 1 2 3 4 5 6 
#
# 1 0.015364 -0.008615 -0.002878 0.000000 0.000000 0.000000
# 2 -0.008615 0.015364 -0.002878 0.000000 0.000000 0.000000
# 3 -0.002878 -0.002878 0.014229 0.000000 0.000000 0.000000
# 4 0.000000 0.000000 0.000000 0.050902 0.000000 0.000000
# 5 0.000000 0.000000 0.000000 0.000000 0.050904 0.000000
# 6 0.000000 0.000000 0.000000 0.000000 0.000000 0.064028
#
#
# Mechanical properties :
#
#
# Convention : Reuss Voigt Hill
#
# Bulk Modulus (GPa) = 61.66528 65.31574 63.49051
# Shear Modulus (GPa) = 20.41332 21.95358 21.18345
#
# Velocity S-wave (km/s) = 3.47251 3.60113 3.53741
# Velocity P-wave (km/s) = 7.24596 7.47485 7.36130
#
# Compressibility (1/GPa) = 0.01621658
#
# Stress axis : x y z
#
# Youngs Moduli (GPa) = 65.08547 65.08513 70.28060
#
# Poissons Ratio (x) = 0.56070 0.20226
# Poissons Ratio (y) = 0.56070 0.20225
# Poissons Ratio (z) = 0.18731 0.18730
#
# Static dielectric constant tensor:
#      x y z
#    x 1.562230 0.000000 0.000000 
#    y 0.000000 1.562230 0.000000 
#    z 0.000000 0.000000 1.587560 
# 
# From -- ./inp_files/5540.got.cif
#   From: 2010.05.17/outbox.cif.g08.bks.cpg/sg125_3_cif.got.tgz:5540.got - 2010.05.20 11:54:10.
