data_PCOD9562164
_publ_section_title
;
Structure prediction by ZEFSAII (Michael W. Deem and Ramdas Pophale) SiO2 
 PCOD9562164
Probable space group: P 4/M M M
;
_chemical_formula_sum "Si O2"
_cell_formula_units_Z 64
_cell_length_a 13.354868
_cell_length_b 13.354868
_cell_length_c 21.298776
_cell_angle_alpha 90.000000
_cell_angle_beta 90.000000
_cell_angle_gamma 90.000000
_cell_volume 3798.689932
_symmetry_space_group_name_H-M "P 4/M M M"
_symmetry_group_IT_number 123
_symmetry_cell_setting 'tetragonal'
loop_
_space_group_symop_operation_xyz
x,y,z
-y,x,z
-x,-y,z
y,-x,z
x,-y,-z
-x,y,-z
y,x,-z
-y,-x,-z
-x,-y,-z
y,-x,-z
x,y,-z
-y,x,-z
-x,y,z
x,-y,z
-y,-x,z
y,x,z
loop_
_atom_site_type_symbol
_atom_site_label
_atom_site_fract_x
_atom_site_fract_y
_atom_site_fract_z
Si Si1 0.117268 0.716024 0.757617
Si Si2 0.616633 0.782310 0.500000
Si Si3 0.784061 0.618067 0.878497
Si Si4 0.284253 0.118192 0.000000
Si Si5 0.381308 0.213248 0.362027
O O1 0.182260 0.817741 0.758168
O O2 0.157340 0.650143 0.815677
O O3 0.142963 0.658602 0.693133
O O4 0.000000 0.734430 0.763602
O O5 0.500000 0.755976 0.500000
O O6 0.683304 0.683304 0.500000
O O7 0.636154 0.831754 0.432199
O O8 0.767769 0.500000 0.880435
O O9 0.680856 0.680856 0.879262
O O10 0.847190 0.654853 0.938550
O O11 0.180955 0.180955 0.000000
O O12 0.268137 0.000000 0.000000
O O13 0.500000 0.231781 0.354832
O O14 0.315211 0.315211 0.357900
#
# Coordination Sequence:
#
# PCOD9562164 Si02
#       5
#    16   8  16   8  16
#     4  10  21  36  53  73  96 124 161 204 249 296
#     4   8  14  25  41  63  94 128 160 196 235 278
#     4  10  21  36  54  78 106 135 168 203 241 290
#     4  10  21  36  54  78 106 136 173 214 254 296
#     4   9  17  29  46  70  99 130 163 197 236 285
#
# _framework density 16.847913999999999
#
# number of rings (size 3 to 8) (size 9 to 14) (size 15 to 20)
#    0.000    2.500    0.000    1.875    0.000    5.000 
#    0.000    3.125    0.000   13.500    0.000    0.000 
#    0.000    5.000    0.000    0.000    0.000    0.000 
#
# Total GULP energy -356678.237424 kJ/mol
# GULP energy per Si atom -5573.097460 kJ/mol
# Density = 1.680957 g / cm^3
# Si number density = 16.847914 Si / 1000 Ang^3
#
#
#
# Elastic Constant Matrix: (Units=GPa)
#
#
# Indices 1 2 3 4 5 6 
#
# 1 24.1750 147.9342 60.0724 0.0000 0.0000 0.0000
# 2 147.9342 24.1750 60.0724 0.0000 0.0000 0.0000
# 3 60.0724 60.0724 158.6088 0.0000 0.0000 0.0000
# 4 0.0000 0.0000 0.0000 9.4483 0.0000 0.0000
# 5 0.0000 0.0000 0.0000 0.0000 9.4483 0.0000
# 6 0.0000 0.0000 0.0000 0.0000 0.0000 0.1387
#
#
#
# Elastic Compliance Matrix: (Units=1/GPa)
#
#
# Indices 1 2 3 4 5 6 
#
# 1 -0.000091 0.007989 -0.002992 0.000000 0.000000 0.000000
# 2 0.007989 -0.000091 -0.002992 0.000000 0.000000 0.000000
# 3 -0.002992 -0.002992 0.008571 0.000000 0.000000 0.000000
# 4 0.000000 0.000000 0.000000 0.105839 0.000000 0.000000
# 5 0.000000 0.000000 0.000000 0.000000 0.105839 0.000000
# 6 0.000000 0.000000 0.000000 0.000000 0.000000 7.210774
#
#
# Mechanical properties :
#
#
# Convention : Reuss Voigt Hill
#
# Bulk Modulus (GPa) = 80.63312 82.56852 81.60082
# Shear Modulus (GPa) = 0.67286 -0.26760 0.20263
#
# Velocity S-wave (km/s) = 0.63265 -0.39897 0.34718
# Velocity P-wave (km/s) = 6.96398 6.99302 6.97851
#
# Compressibility (1/GPa) = 0.01240185
#
# Stress axis : x y z
#
# Youngs Moduli (GPa) = -11011.83950 -11011.83950 116.67397
#
# Poissons Ratio (x) = 87.97795 0.34904
# Poissons Ratio (y) = 87.97795 0.34904
# Poissons Ratio (z) = -32.94249 -32.94249
#
# Static dielectric constant tensor:
#      x y z
#    x 1.532700 0.000000 0.000000 
#    y 0.000000 1.532700 0.000000 
#    z 0.000000 0.000000 1.606070 
# 
# From -- ./inp_files/7065.got.cif
#   From: 2010.05.17/outbox.cif.g08.bks.cpg/sg123_4_cif.got.tgz:7065.got - 2010.05.20 11:43:04.
