data_PCOD9562778
_publ_section_title
;
Structure prediction by ZEFSAII (Michael W. Deem and Ramdas Pophale) SiO2 
 PCOD9562778
Probable space group: P 4/M C C
;
_chemical_formula_sum "Si O2"
_cell_formula_units_Z 96
_cell_length_a 24.341624
_cell_length_b 24.341624
_cell_length_c 9.233213
_cell_angle_alpha 90.000000
_cell_angle_beta 90.000000
_cell_angle_gamma 90.000000
_cell_volume 5470.814052
_symmetry_space_group_name_H-M "P 4/M C C"
_symmetry_group_IT_number 124
_symmetry_cell_setting 'tetragonal'
loop_
_space_group_symop_operation_xyz
x,y,z
-y,x,z
-x,-y,z
y,-x,z
x,-y,1/2-z
-x,y,1/2-z
y,x,1/2-z
-y,-x,1/2-z
-x,-y,-z
y,-x,-z
x,y,-z
-y,x,-z
-x,y,1/2+z
x,-y,1/2+z
-y,-x,1/2+z
y,x,1/2+z
loop_
_atom_site_type_symbol
_atom_site_label
_atom_site_fract_x
_atom_site_fract_y
_atom_site_fract_z
Si Si1 0.754689 0.320818 0.824094
Si Si2 0.555083 0.213177 0.331706
Si Si3 0.553560 0.080710 0.333056
Si Si4 0.254815 0.852899 0.171904
Si Si5 0.127859 0.127859 0.250000
Si Si6 0.054036 0.078167 0.500000
Si Si7 0.323632 0.946183 0.325286
O O1 0.698363 0.301638 0.750000
O O2 0.767256 0.384300 0.785322
O O3 0.799644 0.279384 0.754597
O O4 0.755347 0.315631 0.000000
O O5 0.500000 0.232077 0.250000
O O6 0.549139 0.227744 0.500000
O O7 0.556489 0.146879 0.321240
O O8 0.500000 0.061931 0.250000
O O9 0.547180 0.065924 0.500000
O O10 0.612328 0.059310 0.284076
O O11 0.191176 0.871736 0.193574
O O12 0.291248 0.898152 0.249571
O O13 0.263928 0.846692 0.000000
O O14 0.081515 0.112111 0.368133
O O15 0.986789 0.074205 0.500000
O O16 0.319110 0.945170 0.500000
O O17 0.300987 0.000000 0.250000
#
# Coordination Sequence:
#
# PCOD9562778 Si02
#       7
#    16  16  16  16   8   8  16
#     4  11  22  37  60  88 124 162 203 251 298 353
#     4   9  18  34  55  82 114 154 200 248 296 349
#     4   9  18  34  54  77 106 148 195 245 294 341
#     4  12  25  41  61  89 119 156 196 234 293 362
#     4  12  26  45  70  98 122 148 188 232 291 366
#     4  11  26  50  76  98 120 148 186 240 304 374
#     4  11  24  41  58  80 115 150 192 245 295 350
#
# _framework density 17.547663
#
# number of rings (size 3 to 8) (size 9 to 14) (size 15 to 20)
#    0.000    1.417    3.333    2.000    2.333    5.000 
#    0.000    1.667    0.000    0.000    0.000    0.000 
#    0.000    0.333    0.000    3.667    0.000    2.667 
#
# Total GULP energy -534835.705076 kJ/mol
# GULP energy per Si atom -5571.205261 kJ/mol
# Density = 1.750772 g / cm^3
# Si number density = 17.547663 Si / 1000 Ang^3
#
#
#
# Elastic Constant Matrix: (Units=GPa)
#
#
# Indices 1 2 3 4 5 6 
#
# 1 94.1971 50.5663 37.6726 0.0000 0.0000 0.0000
# 2 50.5663 94.1988 37.6757 0.0000 0.0000 0.0000
# 3 37.6726 37.6757 72.5495 0.0000 0.0000 0.0000
# 4 0.0000 0.0000 0.0000 24.7321 0.0000 0.0000
# 5 0.0000 0.0000 0.0000 0.0000 24.7342 0.0000
# 6 0.0000 0.0000 0.0000 0.0000 0.0000 21.0588
#
#
#
# Elastic Compliance Matrix: (Units=1/GPa)
#
#
# Indices 1 2 3 4 5 6 
#
# 1 0.016193 -0.006726 -0.004915 0.000000 0.000000 0.000000
# 2 -0.006726 0.016193 -0.004916 0.000000 0.000000 0.000000
# 3 -0.004915 -0.004916 0.018889 0.000000 0.000000 0.000000
# 4 0.000000 0.000000 0.000000 0.040433 0.000000 0.000000
# 5 0.000000 0.000000 0.000000 0.000000 0.040430 0.000000
# 6 0.000000 0.000000 0.000000 0.000000 0.000000 0.047486
#
#
# Mechanical properties :
#
#
# Convention : Reuss Voigt Hill
#
# Bulk Modulus (GPa) = 55.06987 56.97495 56.02241
# Shear Modulus (GPa) = 22.85266 23.10706 22.97986
#
# Velocity S-wave (km/s) = 3.61268 3.63273 3.62272
# Velocity P-wave (km/s) = 6.98950 7.08060 7.03520
#
# Compressibility (1/GPa) = 0.01815875
#
# Stress axis : x y z
#
# Youngs Moduli (GPa) = 61.75661 61.75527 52.94046
#
# Poissons Ratio (x) = 0.41539 0.26021
# Poissons Ratio (y) = 0.41540 0.26028
# Poissons Ratio (z) = 0.30355 0.30361
#
# Static dielectric constant tensor:
#      x y z
#    x 2.122050 0.000000 0.000000 
#    y 0.000000 2.122510 0.000000 
#    z 0.000000 0.000000 1.621100 
# 
# From -- ./inp_files/1430.got.cif
#   From: 2010.05.17/outbox.cif.g08.bks.cpg/sg124_1_cif.got.tgz:1430.got - 2010.05.20 11:49:17.
