data_PCOD9562266
_publ_section_title
;
Structure prediction by ZEFSAII (Michael W. Deem and Ramdas Pophale) SiO2 
 PCOD9562266
Probable space group: P 4/M M M
;
_chemical_formula_sum "Si O2"
_cell_formula_units_Z 80
_cell_length_a 24.056758
_cell_length_b 24.056758
_cell_length_c 7.563048
_cell_angle_alpha 90.000000
_cell_angle_beta 90.000000
_cell_angle_gamma 90.000000
_cell_volume 4376.944659
_symmetry_space_group_name_H-M "P 4/M M M"
_symmetry_group_IT_number 123
_symmetry_cell_setting 'tetragonal'
loop_
_space_group_symop_operation_xyz
x,y,z
-y,x,z
-x,-y,z
y,-x,z
x,-y,-z
-x,y,-z
y,x,-z
-y,-x,-z
-x,-y,-z
y,-x,-z
x,y,-z
-y,x,-z
-x,y,z
x,-y,z
-y,-x,z
y,x,z
loop_
_atom_site_type_symbol
_atom_site_label
_atom_site_fract_x
_atom_site_fract_y
_atom_site_fract_z
Si Si1 0.621450 0.062612 0.291978
Si Si2 0.824128 0.562772 0.287761
Si Si3 0.724913 0.868109 0.786002
Si Si4 0.849613 0.849613 0.783334
Si Si5 0.333591 0.245780 0.788081
Si Si6 0.062376 0.062376 0.784147
O O1 0.607907 0.059624 0.500000
O O2 0.588106 0.116771 0.219512
O O3 0.685485 0.081918 0.274282
O O4 0.612210 0.000000 0.219432
O O5 0.829095 0.561434 0.500000
O O6 0.816600 0.500000 0.223278
O O7 0.771794 0.603062 0.250756
O O8 0.788275 0.867659 0.727673
O O9 0.699494 0.809101 0.725371
O O10 0.723479 0.868423 0.000000
O O11 0.893776 0.893776 0.721283
O O12 0.848695 0.848695 0.000000
O O13 0.301311 0.301311 0.723492
O O14 0.329468 0.247098 0.000000
O O15 0.000000 0.075813 0.729024
O O16 0.062949 0.062949 0.000000
#
# Coordination Sequence:
#
# PCOD9562266 Si02
#       6
#    16  16  16   8  16   8
#     4   9  18  31  44  60  86 119 152 186 224 265
#     4   9  18  31  46  66  91 119 154 193 225 256
#     4   9  16  27  43  63  85 107 137 179 223 267
#     4   9  15  24  40  59  79 102 132 172 219 269
#     4   9  16  28  46  66  90 119 145 175 221 269
#     4   8  14  23  32  45  69  98 126 160 206 259
#
# _framework density 18.27759
#
# number of rings (size 3 to 8) (size 9 to 14) (size 15 to 20)
#    0.000    3.100    1.000    0.300    0.000    2.400 
#    0.000    4.500    0.000    0.000    0.000    5.600 
#    0.000    0.400    0.000    8.800    0.000    6.800 
#
# Total GULP energy -445491.338978 kJ/mol
# GULP energy per Si atom -5568.641737 kJ/mol
# Density = 1.823599 g / cm^3
# Si number density = 18.277590 Si / 1000 Ang^3
#
#
#
# Elastic Constant Matrix: (Units=GPa)
#
#
# Indices 1 2 3 4 5 6 
#
# 1 408.9959 -202.3425 2.4896 0.0000 0.0000 0.0000
# 2 -202.3425 408.9959 2.4896 0.0000 0.0000 0.0000
# 3 2.4896 2.4896 41.9057 0.0000 0.0000 0.0000
# 4 0.0000 0.0000 0.0000 11.6499 0.0000 0.0000
# 5 0.0000 0.0000 0.0000 0.0000 11.6499 0.0000
# 6 0.0000 0.0000 0.0000 0.0000 0.0000 18.2640
#
#
#
# Elastic Compliance Matrix: (Units=1/GPa)
#
#
# Indices 1 2 3 4 5 6 
#
# 1 0.003241 0.001605 -0.000288 0.000000 0.000000 0.000000
# 2 0.001605 0.003241 -0.000288 0.000000 0.000000 0.000000
# 3 -0.000288 -0.000288 0.023897 0.000000 0.000000 0.000000
# 4 0.000000 0.000000 0.000000 0.085837 0.000000 0.000000
# 5 0.000000 0.000000 0.000000 0.000000 0.085837 0.000000
# 6 0.000000 0.000000 0.000000 0.000000 0.000000 0.054753
#
#
# Mechanical properties :
#
#
# Convention : Reuss Voigt Hill
#
# Bulk Modulus (GPa) = 30.82840 51.68566 41.25703
# Shear Modulus (GPa) = 18.82813 78.79683 48.81248
#
# Velocity S-wave (km/s) = 3.21303 6.57303 5.17341
# Velocity P-wave (km/s) = 5.53788 9.27070 7.63590
#
# Compressibility (1/GPa) = 0.03243762
#
# Stress axis : x y z
#
# Youngs Moduli (GPa) = 308.56040 308.56040 41.84574
#
# Poissons Ratio (x) = -0.49527 0.01205
# Poissons Ratio (y) = -0.49527 0.01205
# Poissons Ratio (z) = 0.08883 0.08883
#
# Static dielectric constant tensor:
#      x y z
#    x 1.634000 0.000000 0.000000 
#    y 0.000000 1.634000 0.000000 
#    z 0.000000 0.000000 1.694300 
# 
# From -- ./inp_files/1449.got.cif
#   From: 2010.05.17/outbox.cif.g08.bks.cpg/sg123_1_cif.got.tgz:1449.got - 2010.05.20 11:43:04.
