data_PCOD9562417
_publ_section_title
;
Structure prediction by ZEFSAII (Michael W. Deem and Ramdas Pophale) SiO2 
 PCOD9562417
Probable space group: P 4/M C C
;
_chemical_formula_sum "Si O2"
_cell_formula_units_Z 112
_cell_length_a 19.305825
_cell_length_b 19.305825
_cell_length_c 15.117408
_cell_angle_alpha 90.000000
_cell_angle_beta 90.000000
_cell_angle_gamma 90.000000
_cell_volume 5634.482892
_symmetry_space_group_name_H-M "P 4/M C C"
_symmetry_group_IT_number 124
_symmetry_cell_setting 'tetragonal'
loop_
_space_group_symop_operation_xyz
x,y,z
-y,x,z
-x,-y,z
y,-x,z
x,-y,1/2-z
-x,y,1/2-z
y,x,1/2-z
-y,-x,1/2-z
-x,-y,-z
y,-x,-z
x,y,-z
-y,x,-z
-x,y,1/2+z
x,-y,1/2+z
-y,-x,1/2+z
y,x,1/2+z
loop_
_atom_site_type_symbol
_atom_site_label
_atom_site_fract_x
_atom_site_fract_y
_atom_site_fract_z
Si Si1 0.281235 0.084466 0.604525
Si Si2 0.696631 0.931928 0.106673
Si Si3 0.418016 0.425101 0.641859
Si Si4 0.216575 0.203815 0.854275
Si Si5 0.830175 0.584216 0.107615
Si Si6 0.462428 0.928292 0.391996
Si Si7 0.334113 0.300186 0.648472
O O1 0.292034 0.077867 0.500000
O O2 0.218200 0.137849 0.616332
O O3 0.351617 0.121097 0.638119
O O4 0.275635 0.006498 0.639049
O O5 0.747176 0.868926 0.128904
O O6 0.617043 0.922956 0.138229
O O7 0.693268 0.933217 0.000000
O O8 0.495983 0.405440 0.614846
O O9 0.420472 0.420472 0.750000
O O10 0.360960 0.371695 0.608902
O O11 0.214069 0.214069 0.750000
O O12 0.263552 0.266599 0.892608
O O13 0.865040 0.512162 0.134701
O O14 0.754763 0.603314 0.143099
O O15 0.827127 0.585445 0.000000
O O16 0.461305 0.929294 0.500000
O O17 0.500000 0.000000 0.365129
O O18 0.315661 0.315661 0.750000
#
# Coordination Sequence:
#
# PCOD9562417 Si02
#       7
#    16  16  16  16  16  16  16
#     4   9  17  32  54  76 102 136 174 216 262 320
#     4  10  19  32  55  82 105 138 179 222 267 320
#     4   8  14  26  45  65  84 116 169 220 255 290
#     4  10  21  34  48  74 106 143 176 213 262 318
#     4   9  16  28  49  77 107 138 169 211 268 320
#     4   9  15  27  49  81 112 135 171 218 268 324
#     4   9  18  31  46  68  99 137 173 212 259 311
#
# _framework density 19.877599
#
# number of rings (size 3 to 8) (size 9 to 14) (size 15 to 20)
#    0.000    2.857    1.429    0.857    0.000    2.286 
#    0.000    1.429    0.000    3.857    0.000    4.000 
#    0.000    0.000    0.000    0.000    0.000    0.143 
#
# Total GULP energy -624556.799101 kJ/mol
# GULP energy per Si atom -5576.399992 kJ/mol
# Density = 1.983236 g / cm^3
# Si number density = 19.877599 Si / 1000 Ang^3
#
#
#
# Elastic Constant Matrix: (Units=GPa)
#
#
# Indices 1 2 3 4 5 6 
#
# 1 121.1467 98.1486 10.3305 0.0000 0.0000 0.0000
# 2 98.1486 121.1467 10.3305 0.0000 0.0000 0.0000
# 3 10.3305 10.3305 44.6398 0.0000 0.0000 0.0000
# 4 0.0000 0.0000 0.0000 9.5097 0.0000 0.0000
# 5 0.0000 0.0000 0.0000 0.0000 9.5097 0.0000
# 6 0.0000 0.0000 0.0000 0.0000 0.0000 33.6922
#
#
#
# Elastic Compliance Matrix: (Units=1/GPa)
#
#
# Indices 1 2 3 4 5 6 
#
# 1 0.024072 -0.019410 -0.001079 0.000000 0.000000 0.000000
# 2 -0.019410 0.024072 -0.001079 0.000000 0.000000 0.000000
# 3 -0.001079 -0.001079 0.022901 0.000000 0.000000 0.000000
# 4 0.000000 0.000000 0.000000 0.105156 0.000000 0.000000
# 5 0.000000 0.000000 0.000000 0.000000 0.105156 0.000000
# 6 0.000000 0.000000 0.000000 0.000000 0.000000 0.029680
#
#
# Mechanical properties :
#
#
# Convention : Reuss Voigt Hill
#
# Bulk Modulus (GPa) = 35.83075 58.28363 47.05719
# Shear Modulus (GPa) = 13.75609 21.75055 17.75332
#
# Velocity S-wave (km/s) = 2.63352 3.31149 2.99177
# Velocity P-wave (km/s) = 5.22609 6.63372 5.97153
#
# Compressibility (1/GPa) = 0.02790899
#
# Stress axis : x y z
#
# Youngs Moduli (GPa) = 41.54237 41.54237 43.66655
#
# Poissons Ratio (x) = 0.80634 0.04711
# Poissons Ratio (y) = 0.80634 0.04711
# Poissons Ratio (z) = 0.04482 0.04482
#
# Static dielectric constant tensor:
#      x y z
#    x 1.788200 0.000000 0.000000 
#    y 0.000000 1.788200 0.000000 
#    z 0.000000 0.000000 1.749370 
# 
# From -- ./inp_files/5536.got.cif
#   From: 2010.05.17/outbox.cif.g08.bks.cpg/sg124_3_cif.got.tgz:5536.got - 2010.05.20 11:49:17.
