data_PCOD9562981
_publ_section_title
;
Structure prediction by ZEFSAII (Michael W. Deem and Ramdas Pophale) SiO2 
 PCOD9562981
Probable space group: P 4/N B M
;
_chemical_formula_sum "Si O2"
_cell_formula_units_Z 72
_cell_length_a 19.460655
_cell_length_b 19.460655
_cell_length_c 10.920119
_cell_angle_alpha 90.000000
_cell_angle_beta 90.000000
_cell_angle_gamma 90.000000
_cell_volume 4135.635723
_symmetry_space_group_name_H-M "P 4/N B M"
_symmetry_group_IT_number 125
_space_group.IT_coordinate_system_code '2'
_symmetry_cell_setting 'tetragonal'
loop_
_space_group_symop_operation_xyz
x,y,z
1/2-y,x,z
1/2-x,1/2-y,z
y,1/2-x,z
x,1/2-y,-z
1/2-x,y,-z
y,x,-z
1/2-y,1/2-x,-z
-x,-y,-z
1/2+y,-x,-z
1/2+x,1/2+y,-z
-y,1/2+x,-z
-x,1/2+y,z
1/2+x,-y,z
-y,-x,z
1/2+y,1/2+x,z
loop_
_atom_site_type_symbol
_atom_site_label
_atom_site_fract_x
_atom_site_fract_y
_atom_site_fract_z
Si Si1 0.548381 0.930302 0.360588
Si Si2 0.203150 0.909002 0.110220
Si Si3 0.064922 0.824600 0.708991
Si Si4 0.750000 0.144944 0.500000
Si Si5 0.406670 0.023155 0.892446
O O1 0.576193 0.923808 0.500000
O O2 0.505323 0.863430 0.319849
O O3 0.598619 0.947689 0.246438
O O4 0.492677 0.992677 0.366175
O O5 0.150491 0.849510 0.152142
O O6 0.257895 0.935998 0.207611
O O7 0.156250 0.973820 0.072940
O O8 0.250000 0.882193 0.000000
O O9 0.117999 0.882002 0.761269
O O10 0.098284 0.796119 0.585012
O O11 0.696727 0.196727 0.432669
O O12 0.473086 0.973086 0.887673
O O13 0.422462 0.077539 0.000000
#
# Coordination Sequence:
#
# PCOD9562981 Si02
#       5
#    16  16  16   8  16
#     4   9  18  32  51  72  96 132 176 220 265 307
#     4  11  22  33  50  74 105 143 179 213 255 309
#     4  10  20  32  48  70 102 138 175 212 251 300
#     4   9  18  30  44  66 102 146 177 196 232 294
#     4   9  18  33  51  70  97 134 173 215 266 309
#
# _framework density 17.409656999999999
#
# number of rings (size 3 to 8) (size 9 to 14) (size 15 to 20)
#    0.000    2.333    0.000    2.667    3.111    6.000 
#    0.000    0.000    0.000    0.000    0.000    0.000 
#    0.000   20.889    2.667    0.000    0.000    0.000 
#
# Total GULP energy -400822.499650 kJ/mol
# GULP energy per Si atom -5566.979162 kJ/mol
# Density = 1.737003 g / cm^3
# Si number density = 17.409657 Si / 1000 Ang^3
#
#
#
# Elastic Constant Matrix: (Units=GPa)
#
#
# Indices 1 2 3 4 5 6 
#
# 1 42.0580 32.9483 19.4378 0.0000 0.0000 0.0000
# 2 32.9483 42.0566 19.4378 0.0000 0.0000 0.0000
# 3 19.4378 19.4378 71.4821 0.0000 0.0000 0.0000
# 4 0.0000 0.0000 0.0000 30.3587 0.0000 0.0000
# 5 0.0000 0.0000 0.0000 0.0000 30.3585 0.0000
# 6 0.0000 0.0000 0.0000 0.0000 0.0000 11.6144
#
#
#
# Elastic Compliance Matrix: (Units=1/GPa)
#
#
# Indices 1 2 3 4 5 6 
#
# 1 0.062650 -0.047131 -0.004220 0.000000 0.000000 0.000000
# 2 -0.047131 0.062652 -0.004220 0.000000 0.000000 0.000000
# 3 -0.004220 -0.004220 0.016285 0.000000 0.000000 0.000000
# 4 0.000000 0.000000 0.000000 0.032939 0.000000 0.000000
# 5 0.000000 0.000000 0.000000 0.000000 0.032940 0.000000
# 6 0.000000 0.000000 0.000000 0.000000 0.000000 0.086100
#
#
# Mechanical properties :
#
#
# Convention : Reuss Voigt Hill
#
# Bulk Modulus (GPa) = 32.84802 33.24940 33.04871
# Shear Modulus (GPa) = 12.05238 20.05116 16.05177
#
# Velocity S-wave (km/s) = 2.63398 3.39739 3.03975
# Velocity P-wave (km/s) = 5.30652 5.87617 5.59859
#
# Compressibility (1/GPa) = 0.03044324
#
# Stress axis : x y z
#
# Youngs Moduli (GPa) = 15.96182 15.96125 61.40738
#
# Poissons Ratio (x) = 0.75227 0.25913
# Poissons Ratio (y) = 0.75230 0.25917
# Poissons Ratio (z) = 0.06736 0.06736
#
# Static dielectric constant tensor:
#      x y z
#    x 1.600550 0.000000 0.000000 
#    y 0.000000 1.600550 0.000000 
#    z 0.000000 0.000000 1.670340 
# 
# From -- ./inp_files/3850.got.cif
#   From: 2010.05.17/outbox.cif.g08.bks.cpg/sg125_2_cif.got.tgz:3850.got - 2010.05.20 11:54:10.
