data_PCOD9562211
_publ_section_title
;
Structure prediction by ZEFSAII (Michael W. Deem and Ramdas Pophale) SiO2 
 PCOD9562211
Probable space group: P 4/M M M
;
_chemical_formula_sum "Si O2"
_cell_formula_units_Z 56
_cell_length_a 18.184405
_cell_length_b 18.184405
_cell_length_c 8.764262
_cell_angle_alpha 90.000000
_cell_angle_beta 90.000000
_cell_angle_gamma 90.000000
_cell_volume 2898.101173
_symmetry_space_group_name_H-M "P 4/M M M"
_symmetry_group_IT_number 123
_symmetry_cell_setting 'tetragonal'
loop_
_space_group_symop_operation_xyz
x,y,z
-y,x,z
-x,-y,z
y,-x,z
x,-y,-z
-x,y,-z
y,x,-z
-y,-x,-z
-x,-y,-z
y,-x,-z
x,y,-z
-y,x,-z
-x,y,z
x,-y,z
-y,-x,z
y,x,z
loop_
_atom_site_type_symbol
_atom_site_label
_atom_site_fract_x
_atom_site_fract_y
_atom_site_fract_z
Si Si1 0.294530 0.585221 0.684453
Si Si2 0.199716 0.915337 0.683110
Si Si3 0.655104 0.146190 0.818416
Si Si4 0.412454 0.000000 0.325475
O O1 0.289822 0.586822 0.500000
O O2 0.303175 0.500000 0.731028
O O3 0.362940 0.637061 0.729765
O O4 0.219370 0.618897 0.749969
O O5 0.210690 0.913092 0.500000
O O6 0.120901 0.879100 0.715233
O O7 0.262004 0.866089 0.760710
O O8 0.205820 0.000000 0.732776
O O9 0.613939 0.073436 0.757834
O O10 0.652389 0.149383 0.000000
O O11 0.500000 0.000000 0.330508
O O12 0.383697 0.000000 0.500000
#
# Coordination Sequence:
#
# PCOD9562211 Si02
#       4
#    16  16  16   8
#     4  10  22  41  65  92 123 162 208 257 309 365
#     4  10  21  38  61  87 118 159 205 251 300 356
#     4  12  24  38  59  90 125 161 201 247 302 365
#     4  11  23  39  61  87 118 157 198 245 301 360
#
# _framework density 19.322996
#
# number of rings (size 3 to 8) (size 9 to 14) (size 15 to 20)
#    0.000    1.286    1.429    4.714    0.000   10.286 
#    0.000    2.857    0.000    0.000    0.000    4.000 
#    0.000    0.000    0.000    0.000    0.000    0.000 
#
# Total GULP energy -313067.263023 kJ/mol
# GULP energy per Si atom -5590.486840 kJ/mol
# Density = 1.927902 g / cm^3
# Si number density = 19.322996 Si / 1000 Ang^3
#
#
#
# Elastic Constant Matrix: (Units=GPa)
#
#
# Indices 1 2 3 4 5 6 
#
# 1 139.1076 118.9244 43.3013 0.0000 0.0000 0.0000
# 2 118.9244 139.1076 43.3013 0.0000 0.0000 0.0000
# 3 43.3013 43.3013 44.9974 0.0000 0.0000 0.0000
# 4 0.0000 0.0000 0.0000 -24.0967 0.0000 0.0000
# 5 0.0000 0.0000 0.0000 0.0000 -24.0967 0.0000
# 6 0.0000 0.0000 0.0000 0.0000 0.0000 22.0630
#
#
#
# Elastic Compliance Matrix: (Units=1/GPa)
#
#
# Indices 1 2 3 4 5 6 
#
# 1 0.027635 -0.021911 -0.005509 0.000000 0.000000 0.000000
# 2 -0.021911 0.027635 -0.005509 0.000000 0.000000 0.000000
# 3 -0.005509 -0.005509 0.032825 0.000000 0.000000 0.000000
# 4 0.000000 0.000000 0.000000 -0.041499 0.000000 0.000000
# 5 0.000000 0.000000 0.000000 0.000000 -0.041499 0.000000
# 6 0.000000 0.000000 0.000000 0.000000 0.000000 0.045325
#
#
# Mechanical properties :
#
#
# Convention : Reuss Voigt Hill
#
# Bulk Modulus (GPa) = 44.96452 81.58518 63.27485
# Shear Modulus (GPa) = 40.42333 2.61964 21.52148
#
# Velocity S-wave (km/s) = 4.57878 1.16561 3.34095
# Velocity P-wave (km/s) = 7.16059 6.64267 6.90649
#
# Compressibility (1/GPa) = 0.02223976
#
# Stress axis : x y z
#
# Youngs Moduli (GPa) = 36.18560 36.18560 30.46434
#
# Poissons Ratio (x) = 0.79286 0.16781
# Poissons Ratio (y) = 0.79286 0.16781
# Poissons Ratio (z) = 0.19933 0.19933
#
# Static dielectric constant tensor:
#      x y z
#    x 1.666620 0.000000 0.000000 
#    y 0.000000 1.666620 0.000000 
#    z 0.000000 0.000000 1.645070 
# 
# From -- ./inp_files/594.got.cif
#   From: 2010.05.17/outbox.cif.g08.bks.cpg/sg123_1_cif.got.tgz:594.got - 2010.05.20 11:43:04.
