data_PCOD9562031
_publ_section_title
;
Structure prediction by ZEFSAII (Michael W. Deem and Ramdas Pophale) SiO2 
 PCOD9562031
Probable space group: P 4/M M M
;
_chemical_formula_sum "Si O2"
_cell_formula_units_Z 96
_cell_length_a 18.732049
_cell_length_b 18.732049
_cell_length_c 16.244081
_cell_angle_alpha 90.000000
_cell_angle_beta 90.000000
_cell_angle_gamma 90.000000
_cell_volume 5699.880055
_symmetry_space_group_name_H-M "P 4/M M M"
_symmetry_group_IT_number 123
_symmetry_cell_setting 'tetragonal'
loop_
_space_group_symop_operation_xyz
x,y,z
-y,x,z
-x,-y,z
y,-x,z
x,-y,-z
-x,y,-z
y,x,-z
-y,-x,-z
-x,-y,-z
y,-x,-z
x,y,-z
-y,x,-z
-x,y,z
x,-y,z
-y,-x,z
y,x,z
loop_
_atom_site_type_symbol
_atom_site_label
_atom_site_fract_x
_atom_site_fract_y
_atom_site_fract_z
Si Si1 0.856138 0.414734 0.589270
Si Si2 0.580726 0.915377 0.758466
Si Si3 0.301486 0.583926 0.154076
Si Si4 0.918369 0.192392 0.900636
Si Si5 0.660739 0.840188 0.096137
Si Si6 0.419219 0.697095 0.352003
O O1 0.878055 0.385705 0.500000
O O2 0.872751 0.500000 0.587887
O O3 0.891067 0.384850 0.672243
O O4 0.771464 0.407860 0.601828
O O5 0.500000 0.885716 0.759113
O O6 0.616709 0.887616 0.840366
O O7 0.578349 0.000000 0.758955
O O8 0.298668 0.500000 0.129523
O O9 0.377291 0.622710 0.137760
O O10 0.239997 0.632827 0.113311
O O11 0.289735 0.586316 0.253211
O O12 0.880072 0.119929 0.871034
O O13 0.863753 0.257870 0.885325
O O14 0.000000 0.203742 0.870636
O O15 0.923066 0.188077 0.000000
O O16 0.648111 0.856222 0.000000
O O17 0.500000 0.672545 0.368100
O O18 0.361625 0.638376 0.375120
#
# Coordination Sequence:
#
# PCOD9562031 Si02
#       6
#    16  16  16  16  16  16
#     4   9  17  31  50  69  92 123 158 200 251 302
#     4  10  20  33  49  71  99 129 165 208 250 297
#     4  10  20  34  52  73  99 133 175 223 270 314
#     4   9  18  32  50  73 100 130 165 204 246 295
#     4  11  21  34  52  73 101 136 171 207 252 305
#     4   9  17  30  48  70  97 128 164 209 260 312
#
# _framework density 16.842459999999999
#
# number of rings (size 3 to 8) (size 9 to 14) (size 15 to 20)
#    0.000    2.333    1.667    1.500    0.000    4.500 
#    0.000    5.000    0.000    0.000    0.000    3.500 
#    0.000    0.000    0.000    0.000    0.000    0.167 
#
# Total GULP energy -534616.487971 kJ/mol
# GULP energy per Si atom -5568.921750 kJ/mol
# Density = 1.680413 g / cm^3
# Si number density = 16.842460 Si / 1000 Ang^3
#
#
#
# Elastic Constant Matrix: (Units=GPa)
#
#
# Indices 1 2 3 4 5 6 
#
# 1 63.4745 41.0871 19.0527 0.0000 0.0000 0.0000
# 2 41.0871 63.4745 19.0527 0.0000 0.0000 0.0000
# 3 19.0527 19.0527 62.9448 0.0000 0.0000 0.0000
# 4 0.0000 0.0000 0.0000 13.2868 0.0000 0.0000
# 5 0.0000 0.0000 0.0000 0.0000 13.2868 0.0000
# 6 0.0000 0.0000 0.0000 0.0000 0.0000 19.8901
#
#
#
# Elastic Compliance Matrix: (Units=1/GPa)
#
#
# Indices 1 2 3 4 5 6 
#
# 1 0.027709 -0.016959 -0.003254 0.000000 0.000000 0.000000
# 2 -0.016959 0.027709 -0.003254 0.000000 0.000000 0.000000
# 3 -0.003254 -0.003254 0.017857 0.000000 0.000000 0.000000
# 4 0.000000 0.000000 0.000000 0.075263 0.000000 0.000000
# 5 0.000000 0.000000 0.000000 0.000000 0.075263 0.000000
# 6 0.000000 0.000000 0.000000 0.000000 0.000000 0.050276
#
#
# Mechanical properties :
#
#
# Convention : Reuss Voigt Hill
#
# Bulk Modulus (GPa) = 37.96410 38.69764 38.33087
# Shear Modulus (GPa) = 15.16119 16.67283 15.91701
#
# Velocity S-wave (km/s) = 3.00355 3.14973 3.07751
# Velocity P-wave (km/s) = 5.88371 6.02111 5.95281
#
# Compressibility (1/GPa) = 0.02634068
#
# Stress axis : x y z
#
# Youngs Moduli (GPa) = 36.08967 36.08967 56.00144
#
# Poissons Ratio (x) = 0.61205 0.18221
# Poissons Ratio (y) = 0.61205 0.18221
# Poissons Ratio (z) = 0.11743 0.11743
#
# Static dielectric constant tensor:
#      x y z
#    x 1.582990 0.000000 0.000000 
#    y 0.000000 1.582990 0.000000 
#    z 0.000000 0.000000 1.594370 
# 
# From -- ./inp_files/5450.got.cif
#   From: 2010.05.17/outbox.cif.g08.bks.cpg/sg123_3_cif.got.tgz:5450.got - 2010.05.20 11:43:04.
