data_PCOD9562524
_publ_section_title
;
Structure prediction by ZEFSAII (Michael W. Deem and Ramdas Pophale) SiO2 
 PCOD9562524
Probable space group: P 4/M C C
;
_chemical_formula_sum "Si O2"
_cell_formula_units_Z 72
_cell_length_a 12.944842
_cell_length_b 12.944842
_cell_length_c 26.285757
_cell_angle_alpha 90.000000
_cell_angle_beta 90.000000
_cell_angle_gamma 90.000000
_cell_volume 4404.676291
_symmetry_space_group_name_H-M "P 4/M C C"
_symmetry_group_IT_number 124
_symmetry_cell_setting 'tetragonal'
loop_
_space_group_symop_operation_xyz
x,y,z
-y,x,z
-x,-y,z
y,-x,z
x,-y,1/2-z
-x,y,1/2-z
y,x,1/2-z
-y,-x,1/2-z
-x,-y,-z
y,-x,-z
x,y,-z
-y,x,-z
-x,y,1/2+z
x,-y,1/2+z
-y,-x,1/2+z
y,x,1/2+z
loop_
_atom_site_type_symbol
_atom_site_label
_atom_site_fract_x
_atom_site_fract_y
_atom_site_fract_z
Si Si1 0.970814 0.169720 0.000000
Si Si2 0.226396 0.360408 0.061055
Si Si3 0.590706 0.794810 0.938686
Si Si4 0.005323 0.316171 0.595588
Si Si5 0.004648 0.173365 0.308746
O O1 0.081671 0.114886 0.000000
O O2 0.963069 0.235610 0.051050
O O3 0.313621 0.278253 0.076949
O O4 0.255943 0.479389 0.071536
O O5 0.113229 0.343729 0.084405
O O6 0.215084 0.349439 0.000000
O O7 0.597785 0.906559 0.911964
O O8 0.596727 0.810414 0.000000
O O9 0.010890 0.262802 0.650199
O O10 0.101723 0.096457 0.316387
O O11 0.000000 0.207903 0.250000
#
# Coordination Sequence:
#
# PCOD9562524 Si02
#       5
#     8  16  16  16  16
#     4  11  20  26  39  68 102 132 157 185 232 296
#     4  10  20  33  49  71 100 134 169 203 243 292
#     4  10  20  33  49  71 100 134 169 203 243 292
#     4  12  19  30  50  72 101 127 159 204 252 297
#     4   9  18  31  46  67  98 137 175 205 239 290
#
# _framework density 16.346264000000001
#
# number of rings (size 3 to 8) (size 9 to 14) (size 15 to 20)
#    0.000    1.667    2.222    5.333    0.000    4.000 
#    0.000    2.222    0.000    2.667    0.000    0.000 
#    0.000    0.000    0.000    9.333    0.000    0.444 
#
# Total GULP energy -401720.742436 kJ/mol
# GULP energy per Si atom -5579.454756 kJ/mol
# Density = 1.630906 g / cm^3
# Si number density = 16.346264 Si / 1000 Ang^3
#
#
#
# Elastic Constant Matrix: (Units=GPa)
#
#
# Indices 1 2 3 4 5 6 
#
# 1 79.8163 19.2787 16.2151 0.0000 0.0000 0.0000
# 2 19.2787 79.8163 16.2151 0.0000 0.0000 0.0000
# 3 16.2151 16.2151 51.0588 0.0000 0.0000 0.0000
# 4 0.0000 0.0000 0.0000 15.0362 0.0000 0.0000
# 5 0.0000 0.0000 0.0000 0.0000 15.0362 0.0000
# 6 0.0000 0.0000 0.0000 0.0000 0.0000 24.0690
#
#
#
# Elastic Compliance Matrix: (Units=1/GPa)
#
#
# Indices 1 2 3 4 5 6 
#
# 1 0.013890 -0.002628 -0.003576 0.000000 0.000000 0.000000
# 2 -0.002628 0.013890 -0.003576 0.000000 0.000000 0.000000
# 3 -0.003576 -0.003576 0.021857 0.000000 0.000000 0.000000
# 4 0.000000 0.000000 0.000000 0.066506 0.000000 0.000000
# 5 0.000000 0.000000 0.000000 0.000000 0.066506 0.000000
# 6 0.000000 0.000000 0.000000 0.000000 0.000000 0.041547
#
#
# Mechanical properties :
#
#
# Convention : Reuss Voigt Hill
#
# Bulk Modulus (GPa) = 33.25075 34.90104 34.07589
# Shear Modulus (GPa) = 19.70172 21.42709 20.56441
#
# Velocity S-wave (km/s) = 3.47547 3.62446 3.55075
# Velocity P-wave (km/s) = 6.04077 6.23803 6.14019
#
# Compressibility (1/GPa) = 0.03007451
#
# Stress axis : x y z
#
# Youngs Moduli (GPa) = 71.99313 71.99313 45.75218
#
# Poissons Ratio (x) = 0.18923 0.16363
# Poissons Ratio (y) = 0.18923 0.16363
# Poissons Ratio (z) = 0.25748 0.25748
#
# Static dielectric constant tensor:
#      x y z
#    x 1.572300 0.000000 0.000000 
#    y 0.000000 1.572300 0.000000 
#    z 0.000000 0.000000 1.505400 
# 
# From -- ./inp_files/6460.got.cif
#   From: 2010.05.17/outbox.cif.g08.bks.cpg/sg124_4_cif.got.tgz:6460.got - 2010.05.20 11:49:17.
