data_PCOD9562549
_publ_section_title
;
Structure prediction by ZEFSAII (Michael W. Deem and Ramdas Pophale) SiO2 
 PCOD9562549
Probable space group: P 4/M C C
;
_chemical_formula_sum "Si O2"
_cell_formula_units_Z 116
_cell_length_a 18.604566
_cell_length_b 18.604566
_cell_length_c 16.392163
_cell_angle_alpha 90.000000
_cell_angle_beta 90.000000
_cell_angle_gamma 90.000000
_cell_volume 5673.817347
_symmetry_space_group_name_H-M "P 4/M C C"
_symmetry_group_IT_number 124
_symmetry_cell_setting 'tetragonal'
loop_
_space_group_symop_operation_xyz
x,y,z
-y,x,z
-x,-y,z
y,-x,z
x,-y,1/2-z
-x,y,1/2-z
y,x,1/2-z
-y,-x,1/2-z
-x,-y,-z
y,-x,-z
x,y,-z
-y,x,-z
-x,y,1/2+z
x,-y,1/2+z
-y,-x,1/2+z
y,x,1/2+z
loop_
_atom_site_type_symbol
_atom_site_label
_atom_site_fract_x
_atom_site_fract_y
_atom_site_fract_z
Si Si1 0.642273 0.140790 0.370315
Si Si2 0.068659 0.147482 0.903300
Si Si3 0.297513 0.989205 0.847954
Si Si4 0.614377 0.517466 0.400703
Si Si5 0.224983 0.214811 0.593320
Si Si6 0.499216 0.223719 0.906471
Si Si7 0.000000 0.000000 0.851591
Si Si8 0.638939 0.162315 0.176910
O O1 0.709492 0.186064 0.402433
O O2 0.568233 0.170462 0.404984
O O3 0.638113 0.152924 0.273370
O O4 0.660964 0.057432 0.383580
O O5 0.021666 0.218501 0.885567
O O6 0.150183 0.171001 0.882304
O O7 0.041097 0.078426 0.855936
O O8 0.064938 0.129390 0.000000
O O9 0.341644 0.915783 0.860444
O O10 0.289356 0.000000 0.750000
O O11 0.558752 0.579562 0.374541
O O12 0.613256 0.519392 0.500000
O O13 0.697020 0.524148 0.375820
O O14 0.246971 0.199313 0.500000
O O15 0.294813 0.212004 0.649509
O O16 0.564241 0.192741 0.854398
O O17 0.524344 0.232193 0.000000
#
# Coordination Sequence:
#
# PCOD9562549 Si02
#       8
#    16  16  16  16  16  16   4  16
#     4  11  22  38  60  86 114 151 198 245 292 347
#     4  10  20  34  56  84 116 154 193 239 295 354
#     4   9  21  41  61  78 108 154 201 245 292 349
#     4   8  16  33  56  82 114 151 184 220 271 331
#     4  10  21  38  60  86 115 152 198 244 292 350
#     4  11  23  36  58  92 121 150 191 240 289 347
#     4  12  21  32  53  86 125 156 185 234 305 364
#     4  10  22  41  60  81 115 157 195 240 296 351
#
# _framework density 20.444787999999999
#
# number of rings (size 3 to 8) (size 9 to 14) (size 15 to 20)
#    0.000    2.069    0.000    3.517    1.931    3.310 
#    0.000    5.172    0.000    0.000    0.000    3.862 
#    0.000    0.000    0.000    0.000    0.000    0.000 
#
# Total GULP energy -647174.878178 kJ/mol
# GULP energy per Si atom -5579.093777 kJ/mol
# Density = 2.039826 g / cm^3
# Si number density = 20.444788 Si / 1000 Ang^3
#
#
#
# Elastic Constant Matrix: (Units=GPa)
#
#
# Indices 1 2 3 4 5 6 
#
# 1 81.4573 24.5435 9.4637 0.0000 0.0000 0.0000
# 2 24.5435 81.4573 9.4637 0.0000 0.0000 0.0000
# 3 9.4637 9.4637 29.3723 0.0000 0.0000 0.0000
# 4 0.0000 0.0000 0.0000 -0.8628 0.0000 0.0000
# 5 0.0000 0.0000 0.0000 0.0000 -0.8628 0.0000
# 6 0.0000 0.0000 0.0000 0.0000 0.0000 23.1522
#
#
#
# Elastic Compliance Matrix: (Units=1/GPa)
#
#
# Indices 1 2 3 4 5 6 
#
# 1 0.013790 -0.003780 -0.003225 0.000000 0.000000 0.000000
# 2 -0.003780 0.013790 -0.003225 0.000000 0.000000 0.000000
# 3 -0.003225 -0.003225 0.036124 0.000000 0.000000 0.000000
# 4 0.000000 0.000000 0.000000 -1.158988 0.000000 0.000000
# 5 0.000000 0.000000 0.000000 0.000000 -1.158988 0.000000
# 6 0.000000 0.000000 0.000000 0.000000 0.000000 0.043192
#
#
# Mechanical properties :
#
#
# Convention : Reuss Voigt Hill
#
# Bulk Modulus (GPa) = 23.12513 31.02539 27.07526
# Shear Modulus (GPa) = -2.29758 14.20638 5.95440
#
# Velocity S-wave (km/s) = -1.06124 2.63889 1.70844
# Velocity P-wave (km/s) = 3.13591 4.94905 4.14289
#
# Compressibility (1/GPa) = 0.04324301
#
# Stress axis : x y z
#
# Youngs Moduli (GPa) = 72.51580 72.51580 27.68247
#
# Poissons Ratio (x) = 0.27413 0.08928
# Poissons Ratio (y) = 0.27413 0.08928
# Poissons Ratio (z) = 0.23387 0.23387
#
# Static dielectric constant tensor:
#      x y z
#    x 1.700760 0.000000 0.000000 
#    y 0.000000 1.700760 0.000000 
#    z 0.000000 0.000000 1.780720 
# 
# From -- ./inp_files/4417.got.cif
#   From: 2010.05.17/outbox.cif.g08.bks.cpg/sg124_3_cif.got.tgz:4417.got - 2010.05.20 11:49:17.
