data_PCOD9562067
_publ_section_title
;
Structure prediction by ZEFSAII (Michael W. Deem and Ramdas Pophale) SiO2 
 PCOD9562067
Probable space group: P 4/M M M
;
_chemical_formula_sum "Si O2"
_cell_formula_units_Z 96
_cell_length_a 24.936052
_cell_length_b 24.936052
_cell_length_c 8.930691
_cell_angle_alpha 90.000000
_cell_angle_beta 90.000000
_cell_angle_gamma 90.000000
_cell_volume 5553.163404
_symmetry_space_group_name_H-M "P 4/M M M"
_symmetry_group_IT_number 123
_symmetry_cell_setting 'tetragonal'
loop_
_space_group_symop_operation_xyz
x,y,z
-y,x,z
-x,-y,z
y,-x,z
x,-y,-z
-x,y,-z
y,x,-z
-y,-x,-z
-x,-y,-z
y,-x,-z
x,y,-z
-y,x,-z
-x,y,z
x,-y,z
-y,-x,z
y,x,z
loop_
_atom_site_type_symbol
_atom_site_label
_atom_site_fract_x
_atom_site_fract_y
_atom_site_fract_z
Si Si1 0.646217 0.267210 0.178645
Si Si2 0.000000 0.234084 0.679199
Si Si3 0.436788 0.908769 0.820184
Si Si4 0.206236 0.436443 0.329075
Si Si5 0.891924 0.803085 0.821578
Si Si6 0.184766 0.275831 0.668304
Si Si7 0.000000 0.638627 0.680759
O O1 0.679723 0.320278 0.220633
O O2 0.588564 0.257984 0.249138
O O3 0.677746 0.216635 0.248722
O O4 0.645511 0.263754 0.000000
O O5 0.051510 0.202666 0.741330
O O6 0.000000 0.297845 0.724265
O O7 0.000000 0.233492 0.500000
O O8 0.500000 0.921538 0.783977
O O9 0.425771 0.848784 0.760946
O O10 0.394627 0.949197 0.744749
O O11 0.431715 0.911209 0.000000
O O12 0.201729 0.416616 0.500000
O O13 0.211433 0.500000 0.333123
O O14 0.854058 0.854058 0.779440
O O15 0.860966 0.749471 0.769707
O O16 0.897969 0.804081 0.000000
O O17 0.166123 0.289398 0.500000
O O18 0.228710 0.228710 0.654592
O O19 0.000000 0.636271 0.500000
#
# Coordination Sequence:
#
# PCOD9562067 Si02
#       7
#    16   8  16  16  16  16   8
#     4  10  20  33  51  76 105 138 177 220 265 314
#     4  11  25  40  56  82 111 140 174 213 262 316
#     4  10  21  37  56  76 100 137 183 227 271 316
#     4  10  21  36  54  76 104 140 181 224 269 316
#     4  10  21  38  59  81 107 138 171 210 259 315
#     4   9  17  30  50  75 103 136 171 208 252 305
#     4  11  24  38  53  76 107 139 176 225 269 310
#
# _framework density 17.287444000000001
#
# number of rings (size 3 to 8) (size 9 to 14) (size 15 to 20)
#    0.000    2.000    0.000    3.250    2.333    8.333 
#    0.000    0.000    0.000    0.250    0.000    1.750 
#    0.000    0.333    0.000    3.667    0.000    2.667 
#
# Total GULP energy -535491.206616 kJ/mol
# GULP energy per Si atom -5578.033402 kJ/mol
# Density = 1.724810 g / cm^3
# Si number density = 17.287444 Si / 1000 Ang^3
#
#
#
# Elastic Constant Matrix: (Units=GPa)
#
#
# Indices 1 2 3 4 5 6 
#
# 1 75.5613 40.1777 38.8533 0.0000 0.0000 0.0000
# 2 40.1777 75.5613 38.8533 0.0000 0.0000 0.0000
# 3 38.8533 38.8533 83.7294 0.0000 0.0000 0.0000
# 4 0.0000 0.0000 0.0000 27.8761 0.0000 0.0000
# 5 0.0000 0.0000 0.0000 0.0000 27.8761 0.0000
# 6 0.0000 0.0000 0.0000 0.0000 0.0000 27.7743
#
#
#
# Elastic Compliance Matrix: (Units=1/GPa)
#
#
# Indices 1 2 3 4 5 6 
#
# 1 0.020406 -0.007856 -0.005824 0.000000 0.000000 0.000000
# 2 -0.007856 0.020406 -0.005824 0.000000 0.000000 0.000000
# 3 -0.005824 -0.005824 0.017348 0.000000 0.000000 0.000000
# 4 0.000000 0.000000 0.000000 0.035873 0.000000 0.000000
# 5 0.000000 0.000000 0.000000 0.000000 0.035873 0.000000
# 6 0.000000 0.000000 0.000000 0.000000 0.000000 0.036005
#
#
# Mechanical properties :
#
#
# Convention : Reuss Voigt Hill
#
# Bulk Modulus (GPa) = 52.20974 52.29119 52.25047
# Shear Modulus (GPa) = 23.66290 24.50314 24.08302
#
# Velocity S-wave (km/s) = 3.70373 3.76892 3.73647
# Velocity P-wave (km/s) = 6.96826 7.01807 6.99321
#
# Compressibility (1/GPa) = 0.01915351
#
# Stress axis : x y z
#
# Youngs Moduli (GPa) = 49.00541 49.00541 57.64343
#
# Poissons Ratio (x) = 0.38498 0.33570
# Poissons Ratio (y) = 0.38498 0.33570
# Poissons Ratio (z) = 0.28539 0.28539
#
# Static dielectric constant tensor:
#      x y z
#    x 1.617610 0.000000 0.000000 
#    y 0.000000 1.617610 0.000000 
#    z 0.000000 0.000000 1.582830 
# 
# From -- ./inp_files/1689.got.cif
#   From: 2010.05.17/outbox.cif.g08.bks.cpg/sg123_1_cif.got.tgz:1689.got - 2010.05.20 11:43:04.
