data_PCOD9562282
_publ_section_title
;
Structure prediction by ZEFSAII (Michael W. Deem and Ramdas Pophale) SiO2 
 PCOD9562282
Probable space group: P 4/M M M
;
_chemical_formula_sum "Si O2"
_cell_formula_units_Z 88
_cell_length_a 14.681917
_cell_length_b 14.681917
_cell_length_c 23.618639
_cell_angle_alpha 90.000000
_cell_angle_beta 90.000000
_cell_angle_gamma 90.000000
_cell_volume 5091.202807
_symmetry_space_group_name_H-M "P 4/M M M"
_symmetry_group_IT_number 123
_symmetry_cell_setting 'tetragonal'
loop_
_space_group_symop_operation_xyz
x,y,z
-y,x,z
-x,-y,z
y,-x,z
x,-y,-z
-x,y,-z
y,x,-z
-y,-x,-z
-x,-y,-z
y,-x,-z
x,y,-z
-y,x,-z
-x,y,z
x,-y,z
-y,-x,z
y,x,z
loop_
_atom_site_type_symbol
_atom_site_label
_atom_site_fract_x
_atom_site_fract_y
_atom_site_fract_z
Si Si1 0.610390 0.897861 0.500000
Si Si2 0.606015 0.244331 0.727617
Si Si3 0.103914 0.250708 0.228625
Si Si4 0.749567 0.103522 0.092319
Si Si5 0.251191 0.602901 0.932148
Si Si6 0.605349 0.753486 0.592184
O O1 0.500000 0.903448 0.500000
O O2 0.635340 0.840132 0.555487
O O3 0.646696 0.000000 0.500000
O O4 0.500000 0.251305 0.743712
O O5 0.665108 0.334893 0.741183
O O6 0.658723 0.159667 0.755327
O O7 0.610744 0.231257 0.659567
O O8 0.165376 0.165376 0.249003
O O9 0.100631 0.244814 0.160511
O O10 0.000000 0.250173 0.249619
O O11 0.833425 0.166576 0.071812
O O12 0.657545 0.157996 0.078122
O O13 0.751604 0.000000 0.071270
O O14 0.251491 0.500000 0.909591
O O15 0.332975 0.667026 0.909492
O O16 0.262669 0.597698 0.000000
O O17 0.500000 0.734374 0.578348
O O18 0.668835 0.668835 0.577691
#
# Coordination Sequence:
#
# PCOD9562282 Si02
#       6
#     8  16  16  16  16  16
#     4   9  17  28  41  59  85 115 145 177 213 254
#     4   9  18  31  46  66  92 121 153 188 226 270
#     4   9  18  32  49  69  92 118 150 189 231 273
#     4   9  18  32  49  69  93 120 150 186 228 273
#     4   9  18  32  49  69  93 121 153 189 227 266
#     4   9  17  29  45  65  89 116 146 181 220 263
#
# _framework density 17.284716
#
# number of rings (size 3 to 8) (size 9 to 14) (size 15 to 20)
#    0.000    3.000    0.000    0.273    0.000    3.455 
#    0.000    9.091    0.000    1.636    0.000    7.636 
#    0.000    2.909    0.000    0.000    0.000    0.545 
#
# Total GULP energy -490257.713875 kJ/mol
# GULP energy per Si atom -5571.110385 kJ/mol
# Density = 1.724538 g / cm^3
# Si number density = 17.284716 Si / 1000 Ang^3
#
#
#
# Elastic Constant Matrix: (Units=GPa)
#
#
# Indices 1 2 3 4 5 6 
#
# 1 146.3866 75.6898 17.5194 0.0000 0.0000 0.0000
# 2 75.6898 146.3866 17.5194 0.0000 0.0000 0.0000
# 3 17.5194 17.5194 19.7150 0.0000 0.0000 0.0000
# 4 0.0000 0.0000 0.0000 22.0407 0.0000 0.0000
# 5 0.0000 0.0000 0.0000 0.0000 22.0407 0.0000
# 6 0.0000 0.0000 0.0000 0.0000 0.0000 8.5464
#
#
#
# Elastic Compliance Matrix: (Units=1/GPa)
#
#
# Indices 1 2 3 4 5 6 
#
# 1 0.009691 -0.004454 -0.004654 0.000000 0.000000 0.000000
# 2 -0.004454 0.009691 -0.004654 0.000000 0.000000 0.000000
# 3 -0.004654 -0.004654 0.058994 0.000000 0.000000 0.000000
# 4 0.000000 0.000000 0.000000 0.045371 0.000000 0.000000
# 5 0.000000 0.000000 0.000000 0.000000 0.045371 0.000000
# 6 0.000000 0.000000 0.000000 0.000000 0.000000 0.117008
#
#
# Mechanical properties :
#
#
# Convention : Reuss Voigt Hill
#
# Bulk Modulus (GPa) = 19.66462 59.32725 39.49594
# Shear Modulus (GPa) = 15.12401 23.97619 19.55010
#
# Velocity S-wave (km/s) = 2.96124 3.72846 3.36678
# Velocity P-wave (km/s) = 4.80557 7.27553 6.16550
#
# Compressibility (1/GPa) = 0.05085274
#
# Stress axis : x y z
#
# Youngs Moduli (GPa) = 103.18768 103.18768 16.95082
#
# Poissons Ratio (x) = 0.45958 0.07889
# Poissons Ratio (y) = 0.45958 0.07889
# Poissons Ratio (z) = 0.48023 0.48023
#
# Static dielectric constant tensor:
#      x y z
#    x 1.579240 0.000000 0.000000 
#    y 0.000000 1.579240 0.000000 
#    z 0.000000 0.000000 1.612620 
# 
# From -- ./inp_files/7256.got.cif
#   From: 2010.05.17/outbox.cif.g08.bks.cpg/sg123_4_cif.got.tgz:7256.got - 2010.05.20 11:43:04.
