data_PCOD9562210
_publ_section_title
;
Structure prediction by ZEFSAII (Michael W. Deem and Ramdas Pophale) SiO2 
 PCOD9562210
Probable space group: P 4/M M M
;
_chemical_formula_sum "Si O2"
_cell_formula_units_Z 96
_cell_length_a 23.729941
_cell_length_b 23.729941
_cell_length_c 8.454604
_cell_angle_alpha 90.000000
_cell_angle_beta 90.000000
_cell_angle_gamma 90.000000
_cell_volume 4760.872903
_symmetry_space_group_name_H-M "P 4/M M M"
_symmetry_group_IT_number 123
_symmetry_cell_setting 'tetragonal'
loop_
_space_group_symop_operation_xyz
x,y,z
-y,x,z
-x,-y,z
y,-x,z
x,-y,-z
-x,y,-z
y,x,-z
-y,-x,-z
-x,-y,-z
y,-x,-z
x,y,-z
-y,x,-z
-x,y,z
x,-y,z
-y,-x,z
y,x,z
loop_
_atom_site_type_symbol
_atom_site_label
_atom_site_fract_x
_atom_site_fract_y
_atom_site_fract_z
Si Si1 0.065069 0.602423 0.314238
Si Si2 0.647216 0.438377 0.692353
Si Si3 0.822930 0.561976 0.814133
Si Si4 0.156693 0.065371 0.308951
Si Si5 0.722887 0.068014 0.178739
Si Si6 0.346988 0.740568 0.309553
O O1 0.069522 0.589838 0.500000
O O2 0.110709 0.566947 0.220136
O O3 0.079152 0.668403 0.284566
O O4 0.000000 0.593688 0.264847
O O5 0.649128 0.440331 0.500000
O O6 0.657845 0.500000 0.755954
O O7 0.586816 0.413185 0.736610
O O8 0.693676 0.393172 0.738449
O O9 0.803366 0.500000 0.749348
O O10 0.795865 0.619743 0.746592
O O11 0.811877 0.561901 0.000000
O O12 0.159083 0.065787 0.500000
O O13 0.105995 0.105995 0.258168
O O14 0.216859 0.086767 0.245125
O O15 0.148168 0.000000 0.259948
O O16 0.726960 0.000000 0.173357
O O17 0.713452 0.088763 0.000000
O O18 0.343890 0.743627 0.500000
O O19 0.286439 0.713562 0.256775
#
# Coordination Sequence:
#
# PCOD9562210 Si02
#       6
#    16  16  16  16  16  16
#     4  10  21  38  61  86 111 142 181 226 278 336
#     4   8  13  21  36  61  92 126 164 206 253 303
#     4  11  24  39  57  85 120 156 191 228 275 332
#     4   9  17  29  46  70 102 141 186 236 289 346
#     4   9  17  31  52  75 100 132 170 214 266 325
#     4   9  18  34  56  79 104 140 187 235 279 321
#
# _framework density 20.164370000000002
#
# number of rings (size 3 to 8) (size 9 to 14) (size 15 to 20)
#    0.000    2.667    0.000    3.000    0.000    6.333 
#    0.000    4.167    0.000    5.000    0.000    2.333 
#    0.000    0.000    0.000   15.500    0.000   11.667 
#
# Total GULP energy -534603.802900 kJ/mol
# GULP energy per Si atom -5568.789614 kJ/mol
# Density = 2.011848 g / cm^3
# Si number density = 20.164370 Si / 1000 Ang^3
#
#
#
# Elastic Constant Matrix: (Units=GPa)
#
#
# Indices 1 2 3 4 5 6 
#
# 1 71.2309 23.4101 6.5011 0.0000 0.0000 0.0000
# 2 23.4101 71.2309 6.5011 0.0000 0.0000 0.0000
# 3 6.5011 6.5011 19.4048 0.0000 0.0000 0.0000
# 4 0.0000 0.0000 0.0000 14.2925 0.0000 0.0000
# 5 0.0000 0.0000 0.0000 0.0000 14.2925 0.0000
# 6 0.0000 0.0000 0.0000 0.0000 0.0000 18.2137
#
#
#
# Elastic Compliance Matrix: (Units=1/GPa)
#
#
# Indices 1 2 3 4 5 6 
#
# 1 0.015994 -0.004918 -0.003711 0.000000 0.000000 0.000000
# 2 -0.004918 0.015994 -0.003711 0.000000 0.000000 0.000000
# 3 -0.003711 -0.003711 0.054020 0.000000 0.000000 0.000000
# 4 0.000000 0.000000 0.000000 0.069967 0.000000 0.000000
# 5 0.000000 0.000000 0.000000 0.000000 0.069967 0.000000
# 6 0.000000 0.000000 0.000000 0.000000 0.000000 0.054904
#
#
# Mechanical properties :
#
#
# Convention : Reuss Voigt Hill
#
# Bulk Modulus (GPa) = 16.30549 26.07680 21.19115
# Shear Modulus (GPa) = 15.33900 17.72334 16.53117
#
# Velocity S-wave (km/s) = 2.76107 2.96791 2.86636
# Velocity P-wave (km/s) = 4.27417 4.97040 4.63537
#
# Compressibility (1/GPa) = 0.06132903
#
# Stress axis : x y z
#
# Youngs Moduli (GPa) = 62.52453 62.52453 18.51166
#
# Poissons Ratio (x) = 0.30747 0.06869
# Poissons Ratio (y) = 0.30747 0.06869
# Poissons Ratio (z) = 0.23201 0.23201
#
# Static dielectric constant tensor:
#      x y z
#    x 1.751810 0.000000 0.000000 
#    y 0.000000 1.751810 0.000000 
#    z 0.000000 0.000000 1.709470 
# 
# From -- ./inp_files/1614.got.cif
#   From: 2010.05.17/outbox.cif.g08.bks.cpg/sg123_1_cif.got.tgz:1614.got - 2010.05.20 11:43:04.
