data_PCOD9562839
_publ_section_title
;
Structure prediction by ZEFSAII (Michael W. Deem and Ramdas Pophale) SiO2 
 PCOD9562839
Probable space group: P 4/M C C
;
_chemical_formula_sum "Si O2"
_cell_formula_units_Z 58
_cell_length_a 12.002464
_cell_length_b 12.002464
_cell_length_c 18.624255
_cell_angle_alpha 90.000000
_cell_angle_beta 90.000000
_cell_angle_gamma 90.000000
_cell_volume 2682.994197
_symmetry_space_group_name_H-M "P 4/M C C"
_symmetry_group_IT_number 124
_symmetry_cell_setting 'tetragonal'
loop_
_space_group_symop_operation_xyz
x,y,z
-y,x,z
-x,-y,z
y,-x,z
x,-y,1/2-z
-x,y,1/2-z
y,x,1/2-z
-y,-x,1/2-z
-x,-y,-z
y,-x,-z
x,y,-z
-y,x,-z
-x,y,1/2+z
x,-y,1/2+z
-y,-x,1/2+z
y,x,1/2+z
loop_
_atom_site_type_symbol
_atom_site_label
_atom_site_fract_x
_atom_site_fract_y
_atom_site_fract_z
Si Si1 0.000000 0.000000 0.000000
Si Si2 0.426521 0.818258 0.654274
Si Si3 0.202652 0.688892 0.344464
Si Si4 0.907973 0.404959 0.000000
Si Si5 0.000000 0.320866 0.750000
Si Si6 0.892837 0.241111 0.500000
O O1 0.917792 0.889363 0.000000
O O2 0.555629 0.793534 0.669640
O O3 0.324847 0.736171 0.673175
O O4 0.416856 0.834395 0.569645
O O5 0.392567 0.933875 0.691506
O O6 0.170343 0.718565 0.427137
O O7 0.099575 0.736553 0.295925
O O8 0.000000 0.500000 0.000000
O O9 0.986142 0.298497 0.000000
#
# Coordination Sequence:
#
# PCOD9562839 Si02
#       6
#     2  16  16   8   8   8
#     4  12  28  44  64 110 144 176 232 278 356 404
#     4  12  24  43  69 101 134 177 228 282 344 415
#     4  12  25  43  70 100 137 180 228 283 347 415
#     4  12  20  44  74  98 132 180 232 271 330 423
#     4  12  25  44  68  97 132 179 232 278 339 418
#     4  12  24  44  69  99 140 180 222 284 343 413
#
# _framework density 21.617639
#
# number of rings (size 3 to 8) (size 9 to 14) (size 15 to 20)
#    0.000    0.000    5.517    5.793    0.000    0.552 
#    0.000    0.000    0.000    8.276    0.000    0.000 
#    0.000    0.000    0.000    0.000    0.000    0.000 
#
# Total GULP energy -323548.089293 kJ/mol
# GULP energy per Si atom -5578.415333 kJ/mol
# Density = 2.156844 g / cm^3
# Si number density = 21.617639 Si / 1000 Ang^3
#
#
#
# Elastic Constant Matrix: (Units=GPa)
#
#
# Indices 1 2 3 4 5 6 
#
# 1 139.9991 56.8599 17.6733 0.0000 0.0000 0.0000
# 2 56.8599 139.9991 17.6733 0.0000 0.0000 0.0000
# 3 17.6733 17.6733 127.9628 0.0000 0.0000 0.0000
# 4 0.0000 0.0000 0.0000 13.7377 0.0000 0.0000
# 5 0.0000 0.0000 0.0000 0.0000 13.7377 0.0000
# 6 0.0000 0.0000 0.0000 0.0000 0.0000 57.5705
#
#
#
# Elastic Compliance Matrix: (Units=1/GPa)
#
#
# Indices 1 2 3 4 5 6 
#
# 1 0.008618 -0.003410 -0.000719 0.000000 0.000000 0.000000
# 2 -0.003410 0.008618 -0.000719 0.000000 0.000000 0.000000
# 3 -0.000719 -0.000719 0.008013 0.000000 0.000000 0.000000
# 4 0.000000 0.000000 0.000000 0.072793 0.000000 0.000000
# 5 0.000000 0.000000 0.000000 0.000000 0.072793 0.000000
# 6 0.000000 0.000000 0.000000 0.000000 0.000000 0.017370
#
#
# Mechanical properties :
#
#
# Convention : Reuss Voigt Hill
#
# Bulk Modulus (GPa) = 64.29337 65.81934 65.05636
# Shear Modulus (GPa) = 24.61998 38.05945 31.33972
#
# Velocity S-wave (km/s) = 3.37840 4.20047 3.81166
# Velocity P-wave (km/s) = 6.70998 7.35108 7.03783
#
# Compressibility (1/GPa) = 0.01555370
#
# Stress axis : x y z
#
# Youngs Moduli (GPa) = 116.02967 116.02967 124.78950
#
# Poissons Ratio (x) = 0.39561 0.08978
# Poissons Ratio (y) = 0.39561 0.08978
# Poissons Ratio (z) = 0.08347 0.08347
#
# Static dielectric constant tensor:
#      x y z
#    x 1.802990 0.000000 0.000000 
#    y 0.000000 1.802990 0.000000 
#    z 0.000000 0.000000 1.843050 
# 
# From -- ./inp_files/5005.got.cif
#   From: 2010.05.17/outbox.cif.g08.bks.cpg/sg124_3_cif.got.tgz:5005.got - 2010.05.20 11:49:17.
