data_PCOD9562392
_publ_section_title
;
Structure prediction by ZEFSAII (Michael W. Deem and Ramdas Pophale) SiO2 
 PCOD9562392
Probable space group: P 4/M C C
;
_chemical_formula_sum "Si O2"
_cell_formula_units_Z 64
_cell_length_a 20.043994
_cell_length_b 20.043994
_cell_length_c 8.853528
_cell_angle_alpha 90.000000
_cell_angle_beta 90.000000
_cell_angle_gamma 90.000000
_cell_volume 3557.008420
_symmetry_space_group_name_H-M "P 4/M C C"
_symmetry_group_IT_number 124
_symmetry_cell_setting 'tetragonal'
loop_
_space_group_symop_operation_xyz
x,y,z
-y,x,z
-x,-y,z
y,-x,z
x,-y,1/2-z
-x,y,1/2-z
y,x,1/2-z
-y,-x,1/2-z
-x,-y,-z
y,-x,-z
x,y,-z
-y,x,-z
-x,y,1/2+z
x,-y,1/2+z
-y,-x,1/2+z
y,x,1/2+z
loop_
_atom_site_type_symbol
_atom_site_label
_atom_site_fract_x
_atom_site_fract_y
_atom_site_fract_z
Si Si1 0.068650 0.679174 0.827308
Si Si2 0.678486 0.779913 0.815517
Si Si3 0.674534 0.426324 0.316973
Si Si4 0.839725 0.932986 0.170686
O O1 0.143323 0.665483 0.767601
O O2 0.066203 0.759815 0.826352
O O3 0.000000 0.655649 0.750000
O O4 0.066931 0.655874 0.000000
O O5 0.746443 0.746443 0.750000
O O6 0.620018 0.733865 0.748294
O O7 0.680660 0.777109 0.000000
O O8 0.681363 0.500000 0.250000
O O9 0.607909 0.392092 0.250000
O O10 0.674248 0.425520 0.500000
O O11 0.868439 0.868439 0.250000
O O12 0.864112 0.000000 0.250000
O O13 0.862734 0.932686 0.000000
#
# Coordination Sequence:
#
# PCOD9562392 Si02
#       4
#    16  16  16  16
#     4   9  19  32  49  72 100 131 169 215 267 319
#     4  10  19  33  53  80 109 142 181 224 270 322
#     4  11  22  38  59  86 117 151 185 220 259 307
#     4  10  19  31  44  61  84 115 153 199 251 309
#
# _framework density 17.992647999999999
#
# number of rings (size 3 to 8) (size 9 to 14) (size 15 to 20)
#    0.000    2.000    0.000    6.000    0.000    3.500 
#    0.000    2.500    0.000    0.750    0.000    5.250 
#    0.000    0.000    0.000    0.000    0.000    0.000 
#
# Total GULP energy -356726.434384 kJ/mol
# GULP energy per Si atom -5573.850537 kJ/mol
# Density = 1.795170 g / cm^3
# Si number density = 17.992648 Si / 1000 Ang^3
#
#
#
# Elastic Constant Matrix: (Units=GPa)
#
#
# Indices 1 2 3 4 5 6 
#
# 1 103.0398 25.2776 35.6363 0.0000 0.0000 0.0000
# 2 25.2776 103.0283 35.6329 0.0000 0.0000 0.0000
# 3 35.6363 35.6329 113.7647 0.0000 0.0000 0.0000
# 4 0.0000 0.0000 0.0000 24.2839 0.0000 0.0000
# 5 0.0000 0.0000 0.0000 0.0000 24.2846 0.0000
# 6 0.0000 0.0000 0.0000 0.0000 0.0000 13.5868
#
#
#
# Elastic Compliance Matrix: (Units=1/GPa)
#
#
# Indices 1 2 3 4 5 6 
#
# 1 0.011147 -0.001713 -0.002955 0.000000 0.000000 0.000000
# 2 -0.001713 0.011148 -0.002955 0.000000 0.000000 0.000000
# 3 -0.002955 -0.002955 0.010641 0.000000 0.000000 0.000000
# 4 0.000000 0.000000 0.000000 0.041179 0.000000 0.000000
# 5 0.000000 0.000000 0.000000 0.000000 0.041178 0.000000
# 6 0.000000 0.000000 0.000000 0.000000 0.000000 0.073601
#
#
# Mechanical properties :
#
#
# Convention : Reuss Voigt Hill
#
# Bulk Modulus (GPa) = 56.52857 56.99185 56.76021
# Shear Modulus (GPa) = 23.80502 27.31680 25.56091
#
# Velocity S-wave (km/s) = 3.64131 3.90066 3.77321
# Velocity P-wave (km/s) = 7.01175 7.21323 7.11320
#
# Compressibility (1/GPa) = 0.01769017
#
# Stress axis : x y z
#
# Youngs Moduli (GPa) = 89.70791 89.69881 93.97189
#
# Poissons Ratio (x) = 0.15364 0.27772
# Poissons Ratio (y) = 0.15365 0.27772
# Poissons Ratio (z) = 0.26512 0.26509
#
# Static dielectric constant tensor:
#      x y z
#    x 1.628340 0.000000 0.000000 
#    y 0.000000 1.628340 0.000000 
#    z 0.000000 0.000000 1.620950 
# 
# From -- ./inp_files/871.got.cif
#   From: 2010.05.17/outbox.cif.g08.bks.cpg/sg124_1_cif.got.tgz:871.got - 2010.05.20 11:49:17.
