data_PCOD9562234
_publ_section_title
;
Structure prediction by ZEFSAII (Michael W. Deem and Ramdas Pophale) SiO2 
 PCOD9562234
Probable space group: P 4/M M M
;
_chemical_formula_sum "Si O2"
_cell_formula_units_Z 48
_cell_length_a 14.056657
_cell_length_b 14.056657
_cell_length_c 11.682161
_cell_angle_alpha 90.000000
_cell_angle_beta 90.000000
_cell_angle_gamma 90.000000
_cell_volume 2308.273589
_symmetry_space_group_name_H-M "P 4/M M M"
_symmetry_group_IT_number 123
_symmetry_cell_setting 'tetragonal'
loop_
_space_group_symop_operation_xyz
x,y,z
-y,x,z
-x,-y,z
y,-x,z
x,-y,-z
-x,y,-z
y,x,-z
-y,-x,-z
-x,-y,-z
y,-x,-z
x,y,-z
-y,x,-z
-x,y,z
x,-y,z
-y,-x,z
y,x,z
loop_
_atom_site_type_symbol
_atom_site_label
_atom_site_fract_x
_atom_site_fract_y
_atom_site_fract_z
Si Si1 0.808166 0.808166 0.122793
Si Si2 0.607623 0.111282 0.167052
Si Si3 0.886153 0.113848 0.369400
Si Si4 0.760385 0.606275 0.634254
O O1 0.831576 0.696469 0.119326
O O2 0.845327 0.845327 0.248165
O O3 0.848202 0.848202 0.000000
O O4 0.500000 0.135792 0.129085
O O5 0.611999 0.140243 0.300392
O O6 0.621605 0.000000 0.147482
O O7 0.853691 0.146310 0.500000
O O8 0.000000 0.130414 0.366440
O O9 0.773927 0.616743 0.500000
O O10 0.721077 0.500000 0.655938
O O11 0.686209 0.686209 0.673256
#
# Coordination Sequence:
#
# PCOD9562234 Si02
#       4
#     8  16   8  16
#     4  12  25  41  65  95 126 163 214 270 318 375
#     4  10  22  40  61  88 124 164 207 258 317 379
#     4   9  20  40  64  92 129 171 212 257 317 386
#     4   9  17  31  54  86 123 162 207 260 317 378
#
# _framework density 20.794763
#
# number of rings (size 3 to 8) (size 9 to 14) (size 15 to 20)
#    0.000    2.167    1.667    1.500    0.000    5.667 
#    0.000    7.500    0.000    0.500    0.000    1.167 
#    0.000    0.000    0.000    0.000    0.000    0.000 
#
# Total GULP energy -267296.695570 kJ/mol
# GULP energy per Si atom -5568.681158 kJ/mol
# Density = 2.074743 g / cm^3
# Si number density = 20.794763 Si / 1000 Ang^3
#
#
#
# Elastic Constant Matrix: (Units=GPa)
#
#
# Indices 1 2 3 4 5 6 
#
# 1 102.4047 66.6218 50.5196 0.0000 0.0000 0.0000
# 2 66.6218 102.4046 50.5197 0.0000 0.0000 0.0000
# 3 50.5196 50.5197 143.5892 0.0000 0.0000 0.0000
# 4 0.0000 0.0000 0.0000 -55.3919 0.0000 0.0000
# 5 0.0000 0.0000 0.0000 0.0000 -55.3924 0.0000
# 6 0.0000 0.0000 0.0000 0.0000 0.0000 34.5569
#
#
#
# Elastic Compliance Matrix: (Units=1/GPa)
#
#
# Indices 1 2 3 4 5 6 
#
# 1 0.017719 -0.010227 -0.002636 0.000000 0.000000 0.000000
# 2 -0.010227 0.017719 -0.002636 0.000000 0.000000 0.000000
# 3 -0.002636 -0.002636 0.008819 0.000000 0.000000 0.000000
# 4 0.000000 0.000000 0.000000 -0.018053 0.000000 0.000000
# 5 0.000000 0.000000 0.000000 0.000000 -0.018053 0.000000
# 6 0.000000 0.000000 0.000000 0.000000 0.000000 0.028938
#
#
# Mechanical properties :
#
#
# Convention : Reuss Voigt Hill
#
# Bulk Modulus (GPa) = 75.41881 75.96896 75.69389
# Shear Modulus (GPa) = 68.95906 -3.19632 32.88137
#
# Velocity S-wave (km/s) = 5.76487 -1.24113 3.98079
# Velocity P-wave (km/s) = 8.98101 5.87862 7.59002
#
# Compressibility (1/GPa) = 0.01325929
#
# Stress axis : x y z
#
# Youngs Moduli (GPa) = 56.43625 56.43613 113.38997
#
# Poissons Ratio (x) = 0.57718 0.29888
# Poissons Ratio (y) = 0.57719 0.29889
# Poissons Ratio (z) = 0.14876 0.14876
#
# Static dielectric constant tensor:
#      x y z
#    x 1.742550 0.000000 0.000000 
#    y 0.000000 1.742550 0.000000 
#    z 0.000000 0.000000 1.807100 
# 
# From -- ./inp_files/2364.got.cif
#   From: 2010.05.17/outbox.cif.g08.bks.cpg/sg123_2_cif.got.tgz:2364.got - 2010.05.20 11:43:04.
