data_PCOD9562594
_publ_section_title
;
Structure prediction by ZEFSAII (Michael W. Deem and Ramdas Pophale) SiO2 
 PCOD9562594
Probable space group: P 4/M C C
;
_chemical_formula_sum "Si O2"
_cell_formula_units_Z 48
_cell_length_a 15.622088
_cell_length_b 15.622088
_cell_length_c 9.247623
_cell_angle_alpha 90.000000
_cell_angle_beta 90.000000
_cell_angle_gamma 90.000000
_cell_volume 2256.879004
_symmetry_space_group_name_H-M "P 4/M C C"
_symmetry_group_IT_number 124
_symmetry_cell_setting 'tetragonal'
loop_
_space_group_symop_operation_xyz
x,y,z
-y,x,z
-x,-y,z
y,-x,z
x,-y,1/2-z
-x,y,1/2-z
y,x,1/2-z
-y,-x,1/2-z
-x,-y,-z
y,-x,-z
x,y,-z
-y,x,-z
-x,y,1/2+z
x,-y,1/2+z
-y,-x,1/2+z
y,x,1/2+z
loop_
_atom_site_type_symbol
_atom_site_label
_atom_site_fract_x
_atom_site_fract_y
_atom_site_fract_z
Si Si1 0.710958 0.869466 0.500000
Si Si2 0.157256 0.157256 0.750000
Si Si3 0.747518 0.500000 0.250000
Si Si4 0.291645 0.612103 0.500000
Si Si5 0.620287 0.797423 0.000000
Si Si6 0.769293 0.938639 0.000000
O O1 0.762241 0.842203 0.643350
O O2 0.626895 0.812217 0.500000
O O3 0.720302 0.971575 0.500000
O O4 0.170686 0.078167 0.859919
O O5 0.691529 0.442048 0.357142
O O6 0.801416 0.438230 0.143501
O O7 0.337175 0.703119 0.500000
O O8 0.695421 0.866740 0.000000
#
# Coordination Sequence:
#
# PCOD9562594 Si02
#       6
#     8   8   8   8   8   8
#     4  11  22  38  65  96 121 164 213 254 305 374
#     4  10  20  36  58  91 118 162 209 260 288 356
#     4  10  24  36  61 101 120 156 210 262 290 373
#     4  11  21  41  66  88 126 165 207 244 317 366
#     4  11  21  41  66  88 126 165 207 244 317 366
#     4  11  22  38  65  96 121 164 213 254 305 374
#
# _framework density 21.26831
#
# number of rings (size 3 to 8) (size 9 to 14) (size 15 to 20)
#    0.000    1.333    3.333    4.000    0.000    0.000 
#    0.000    5.000    0.000   70.000    0.000    0.000 
#    0.000    0.000    0.000    0.000    0.000    0.000 
#
# Total GULP energy -267922.666235 kJ/mol
# GULP energy per Si atom -5581.722213 kJ/mol
# Density = 2.121990 g / cm^3
# Si number density = 21.268310 Si / 1000 Ang^3
#
#
#
# Elastic Constant Matrix: (Units=GPa)
#
#
# Indices 1 2 3 4 5 6 
#
# 1 99.1001 50.2927 45.6405 0.0000 0.0000 0.0000
# 2 50.2927 99.1001 45.6405 0.0000 0.0000 0.0000
# 3 45.6405 45.6405 175.9691 0.0000 0.0000 0.0000
# 4 0.0000 0.0000 0.0000 16.7257 0.0000 0.0000
# 5 0.0000 0.0000 0.0000 0.0000 16.7257 0.0000
# 6 0.0000 0.0000 0.0000 0.0000 0.0000 9.4152
#
#
#
# Elastic Compliance Matrix: (Units=1/GPa)
#
#
# Indices 1 2 3 4 5 6 
#
# 1 0.014222 -0.006267 -0.002063 0.000000 0.000000 0.000000
# 2 -0.006267 0.014222 -0.002063 0.000000 0.000000 0.000000
# 3 -0.002063 -0.002063 0.006753 0.000000 0.000000 0.000000
# 4 0.000000 0.000000 0.000000 0.059788 0.000000 0.000000
# 5 0.000000 0.000000 0.000000 0.000000 0.059788 0.000000
# 6 0.000000 0.000000 0.000000 0.000000 0.000000 0.106211
#
#
# Mechanical properties :
#
#
# Convention : Reuss Voigt Hill
#
# Bulk Modulus (GPa) = 69.39950 73.03519 71.21734
# Shear Modulus (GPa) = 17.44754 24.07969 20.76362
#
# Velocity S-wave (km/s) = 2.86729 3.36845 3.12792
# Velocity P-wave (km/s) = 6.60781 7.03868 6.82664
#
# Compressibility (1/GPa) = 0.01440933
#
# Stress axis : x y z
#
# Youngs Moduli (GPa) = 70.31601 70.31601 148.08216
#
# Poissons Ratio (x) = 0.44068 0.30551
# Poissons Ratio (y) = 0.44068 0.30551
# Poissons Ratio (z) = 0.14507 0.14507
#
# Static dielectric constant tensor:
#      x y z
#    x 1.769420 0.000000 0.000000 
#    y 0.000000 1.769420 0.000000 
#    z 0.000000 0.000000 1.806540 
# 
# From -- ./inp_files/553.got.cif
#   From: 2010.05.17/outbox.cif.g08.bks.cpg/sg124_1_cif.got.tgz:553.got - 2010.05.20 11:49:17.
