data_PCOD9562137
_publ_section_title
;
Structure prediction by ZEFSAII (Michael W. Deem and Ramdas Pophale) SiO2 
 PCOD9562137
Probable space group: P 4/M M M
;
_chemical_formula_sum "Si O2"
_cell_formula_units_Z 120
_cell_length_a 21.935312
_cell_length_b 21.935312
_cell_length_c 14.838410
_cell_angle_alpha 90.000000
_cell_angle_beta 90.000000
_cell_angle_gamma 90.000000
_cell_volume 7139.618381
_symmetry_space_group_name_H-M "P 4/M M M"
_symmetry_group_IT_number 123
_symmetry_cell_setting 'tetragonal'
loop_
_space_group_symop_operation_xyz
x,y,z
-y,x,z
-x,-y,z
y,-x,z
x,-y,-z
-x,y,-z
y,x,-z
-y,-x,-z
-x,-y,-z
y,-x,-z
x,y,-z
-y,x,-z
-x,y,z
x,-y,z
-y,-x,z
y,x,z
loop_
_atom_site_type_symbol
_atom_site_label
_atom_site_fract_x
_atom_site_fract_y
_atom_site_fract_z
Si Si1 0.122595 0.639292 0.390873
Si Si2 0.743898 0.151506 0.105100
Si Si3 0.648295 0.246999 0.104971
Si Si4 0.930459 0.829406 0.783154
Si Si5 0.572395 0.754897 0.395911
Si Si6 0.118687 0.781946 0.604392
Si Si7 0.000000 0.428956 0.389905
Si Si8 0.571574 0.327872 0.769530
O O1 0.122261 0.633687 0.500000
O O2 0.185284 0.607691 0.361976
O O3 0.122614 0.710993 0.371532
O O4 0.061298 0.605553 0.359107
O O5 0.795501 0.204500 0.108932
O O6 0.681431 0.184513 0.135202
O O7 0.771198 0.097722 0.164788
O O8 0.737650 0.134151 0.000000
O O9 0.701143 0.298858 0.109062
O O10 0.594266 0.273942 0.164357
O O11 0.631347 0.240331 0.000000
O O12 0.886990 0.886990 0.803450
O O13 0.923709 0.814885 0.676901
O O14 0.000000 0.840093 0.807821
O O15 0.589501 0.742846 0.500000
O O16 0.500000 0.768106 0.393856
O O17 0.583397 0.698240 0.330594
O O18 0.098889 0.787428 0.500000
O O19 0.184072 0.815929 0.611956
O O20 0.000000 0.500000 0.363953
O O21 0.000000 0.427301 0.500000
O O22 0.500000 0.339709 0.780499
O O23 0.612905 0.387096 0.785981
#
# Coordination Sequence:
#
# PCOD9562137 Si02
#       8
#    16  16  16  16  16  16   8  16
#     4   9  17  28  45  67  91 123 159 199 247 299
#     4   8  15  30  52  76 100 125 154 194 246 297
#     4   8  15  30  52  75  98 124 155 195 245 301
#     4  10  21  34  50  72  99 133 170 210 253 299
#     4   9  18  32  47  66  96 131 168 210 251 293
#     4   9  19  33  46  65  94 126 164 211 258 299
#     4   9  16  26  42  66  94 124 156 188 236 307
#     4  10  21  34  50  73  99 132 172 214 260 308
#
# _framework density 16.807621000000001
#
# number of rings (size 3 to 8) (size 9 to 14) (size 15 to 20)
#    0.000    3.000    0.000    1.200    2.800    3.467 
#    0.000    1.333    0.000    0.000    0.000    7.467 
#    0.000    0.000    0.000    2.933    0.000    0.267 
#
# Total GULP energy -668321.437350 kJ/mol
# GULP energy per Si atom -5569.345311 kJ/mol
# Density = 1.676937 g / cm^3
# Si number density = 16.807621 Si / 1000 Ang^3
#
#
#
# Elastic Constant Matrix: (Units=GPa)
#
#
# Indices 1 2 3 4 5 6 
#
# 1 84.3214 56.3408 29.8869 0.0000 0.0000 0.0000
# 2 56.3408 84.3214 29.8869 0.0000 0.0000 0.0000
# 3 29.8869 29.8869 50.4021 0.0000 0.0000 0.0000
# 4 0.0000 0.0000 0.0000 12.9322 0.0000 0.0000
# 5 0.0000 0.0000 0.0000 0.0000 12.9322 0.0000
# 6 0.0000 0.0000 0.0000 0.0000 0.0000 16.7751
#
#
#
# Elastic Compliance Matrix: (Units=1/GPa)
#
#
# Indices 1 2 3 4 5 6 
#
# 1 0.022622 -0.013117 -0.005636 0.000000 0.000000 0.000000
# 2 -0.013117 0.022622 -0.005636 0.000000 0.000000 0.000000
# 3 -0.005636 -0.005636 0.026524 0.000000 0.000000 0.000000
# 4 0.000000 0.000000 0.000000 0.077326 0.000000 0.000000
# 5 0.000000 0.000000 0.000000 0.000000 0.077326 0.000000
# 6 0.000000 0.000000 0.000000 0.000000 0.000000 0.059612
#
#
# Mechanical properties :
#
#
# Convention : Reuss Voigt Hill
#
# Bulk Modulus (GPa) = 43.49796 50.14157 46.81977
# Shear Modulus (GPa) = 14.59973 15.38993 14.99483
#
# Velocity S-wave (km/s) = 2.95046 3.02926 2.99012
# Velocity P-wave (km/s) = 6.12724 6.49096 6.31172
#
# Compressibility (1/GPa) = 0.02298958
#
# Stress axis : x y z
#
# Youngs Moduli (GPa) = 44.20565 44.20565 37.70184
#
# Poissons Ratio (x) = 0.57987 0.21247
# Poissons Ratio (y) = 0.57987 0.21247
# Poissons Ratio (z) = 0.24913 0.24913
#
# Static dielectric constant tensor:
#      x y z
#    x 1.561370 0.000000 0.000000 
#    y 0.000000 1.561370 0.000000 
#    z 0.000000 0.000000 1.587240 
# 
# From -- ./inp_files/4576.got.cif
#   From: 2010.05.17/outbox.cif.g08.bks.cpg/sg123_3_cif.got.tgz:4576.got - 2010.05.20 11:43:04.
