data_PCOD9562465
_publ_section_title
;
Structure prediction by ZEFSAII (Michael W. Deem and Ramdas Pophale) SiO2 
 PCOD9562465
Probable space group: P 4/M C C
;
_chemical_formula_sum "Si O2"
_cell_formula_units_Z 112
_cell_length_a 16.297838
_cell_length_b 16.297838
_cell_length_c 26.794656
_cell_angle_alpha 90.000000
_cell_angle_beta 90.000000
_cell_angle_gamma 90.000000
_cell_volume 7117.183758
_symmetry_space_group_name_H-M "P 4/M C C"
_symmetry_group_IT_number 124
_symmetry_cell_setting 'tetragonal'
loop_
_space_group_symop_operation_xyz
x,y,z
-y,x,z
-x,-y,z
y,-x,z
x,-y,1/2-z
-x,y,1/2-z
y,x,1/2-z
-y,-x,1/2-z
-x,-y,-z
y,-x,-z
x,y,-z
-y,x,-z
-x,y,1/2+z
x,-y,1/2+z
-y,-x,1/2+z
y,x,1/2+z
loop_
_atom_site_type_symbol
_atom_site_label
_atom_site_fract_x
_atom_site_fract_y
_atom_site_fract_z
Si Si1 0.594550 0.000000 0.617324
Si Si2 0.170224 0.404063 0.941292
Si Si3 0.290742 0.709258 0.122295
Si Si4 0.823418 0.823418 0.809425
Si Si5 0.596866 0.403135 0.308511
Si Si6 0.000000 0.251949 0.690765
Si Si7 0.595936 0.829775 0.941292
O O1 0.604852 0.919240 0.583514
O O2 0.500000 0.000000 0.636458
O O3 0.663547 0.000001 0.659905
O O4 0.604851 0.080761 0.583514
O O5 0.233111 0.346854 0.912071
O O6 0.193826 0.499999 0.936220
O O7 0.167223 0.384559 0.000000
O O8 0.234879 0.765120 0.158261
O O9 0.347955 0.652047 0.156342
O O10 0.233112 0.653145 0.087929
O O11 0.810196 0.810196 0.750000
O O12 0.799589 0.917643 0.820318
O O13 0.917643 0.799588 0.820318
O O14 0.611868 0.500001 0.316968
O O15 0.613583 0.386418 0.250000
O O16 0.000000 0.269772 0.750000
O O17 0.615440 0.832775 0.000000
#
# Coordination Sequence:
#
# PCOD9562465 Si02
#       7
#    16  16  16  16  16  16  16
#     4  10  19  35  55  76 106 143 171 209 264 314
#     4  10  21  35  52  76 105 138 177 218 261 312
#     4  12  19  32  55  78 105 132 176 219 271 301
#     4  10  21  35  55  78 107 136 168 215 259 313
#     4   9  19  35  52  72 102 141 181 216 256 315
#     4  10  20  37  55  80 108 137 174 212 258 313
#     4  10  21  35  52  76 105 138 177 218 261 312
#
# _framework density 15.736561999999999
#
# number of rings (size 3 to 8) (size 9 to 14) (size 15 to 20)
#    0.000    1.857    2.857    2.571    0.000    2.286 
#    0.000    1.429    0.000    0.000    0.000    6.000 
#    0.000    2.286    0.000    0.000    0.000    0.000 
#
# Total GULP energy -624925.795954 kJ/mol
# GULP energy per Si atom -5579.694607 kJ/mol
# Density = 1.570074 g / cm^3
# Si number density = 15.736562 Si / 1000 Ang^3
#
#
#
# Elastic Constant Matrix: (Units=GPa)
#
#
# Indices 1 2 3 4 5 6 
#
# 1 132.1884 101.4371 87.9871 0.0000 0.0000 0.0000
# 2 101.4371 132.1884 87.9872 0.0000 0.0000 0.0000
# 3 87.9871 87.9872 99.0787 0.0000 0.0000 0.0000
# 4 0.0000 0.0000 0.0000 27.4623 0.0000 0.0000
# 5 0.0000 0.0000 0.0000 0.0000 27.4622 0.0000
# 6 0.0000 0.0000 0.0000 0.0000 0.0000 32.6319
#
#
#
# Elastic Compliance Matrix: (Units=1/GPa)
#
#
# Indices 1 2 3 4 5 6 
#
# 1 0.022724 -0.009795 -0.011481 0.000000 0.000000 0.000000
# 2 -0.009795 0.022724 -0.011481 0.000000 0.000000 0.000000
# 3 -0.011481 -0.011481 0.030484 0.000000 0.000000 0.000000
# 4 0.000000 0.000000 0.000000 0.036414 0.000000 0.000000
# 5 0.000000 0.000000 0.000000 0.000000 0.036414 0.000000
# 6 0.000000 0.000000 0.000000 0.000000 0.000000 0.030645
#
#
# Mechanical properties :
#
#
# Convention : Reuss Voigt Hill
#
# Bulk Modulus (GPa) = 95.99675 102.03092 99.01384
# Shear Modulus (GPa) = 20.12963 23.24753 21.68858
#
# Velocity S-wave (km/s) = 3.58042 3.84773 3.71648
# Velocity P-wave (km/s) = 8.84462 9.20422 9.02621
#
# Compressibility (1/GPa) = 0.01041702
#
# Stress axis : x y z
#
# Youngs Moduli (GPa) = 44.00730 44.00713 32.80393
#
# Poissons Ratio (x) = 0.43107 0.37661
# Poissons Ratio (y) = 0.43107 0.37662
# Poissons Ratio (z) = 0.50524 0.50524
#
# Static dielectric constant tensor:
#      x y z
#    x 1.504690 0.000000 0.000000 
#    y 0.000000 1.504690 0.000000 
#    z 0.000000 0.000000 1.496260 
# 
# From -- ./inp_files/6085.got.cif
#   From: 2010.05.17/outbox.cif.g08.bks.cpg/sg124_4_cif.got.tgz:6085.got - 2010.05.20 11:49:17.
