data_PCOD9562749
_publ_section_title
;
Structure prediction by ZEFSAII (Michael W. Deem and Ramdas Pophale) SiO2 
 PCOD9562749
Probable space group: P 4/M C C
;
_chemical_formula_sum "Si O2"
_cell_formula_units_Z 96
_cell_length_a 26.778318
_cell_length_b 26.778318
_cell_length_c 8.399002
_cell_angle_alpha 90.000000
_cell_angle_beta 90.000000
_cell_angle_gamma 90.000000
_cell_volume 6022.742201
_symmetry_space_group_name_H-M "P 4/M C C"
_symmetry_group_IT_number 124
_symmetry_cell_setting 'tetragonal'
loop_
_space_group_symop_operation_xyz
x,y,z
-y,x,z
-x,-y,z
y,-x,z
x,-y,1/2-z
-x,y,1/2-z
y,x,1/2-z
-y,-x,1/2-z
-x,-y,-z
y,-x,-z
x,y,-z
-y,x,-z
-x,y,1/2+z
x,-y,1/2+z
-y,-x,1/2+z
y,x,1/2+z
loop_
_atom_site_type_symbol
_atom_site_label
_atom_site_fract_x
_atom_site_fract_y
_atom_site_fract_z
Si Si1 0.139298 0.369680 0.690691
Si Si2 0.211182 0.449739 0.818193
Si Si3 0.384811 0.289506 0.817786
Si Si4 0.375791 0.552623 0.682996
Si Si5 0.781569 0.703815 0.808997
Si Si6 0.057290 0.443728 0.807206
O O1 0.147641 0.375646 0.500000
O O2 0.171777 0.406026 0.802044
O O3 0.164975 0.315756 0.736306
O O4 0.085703 0.395148 0.731432
O O5 0.188961 0.500000 0.750000
O O6 0.253587 0.432676 0.696485
O O7 0.228634 0.453908 0.000000
O O8 0.404519 0.335662 0.718549
O O9 0.338790 0.258605 0.745131
O O10 0.374003 0.302365 0.000000
O O11 0.358801 0.500000 0.750000
O O12 0.428003 0.571998 0.750000
O O13 0.381599 0.546114 0.500000
O O14 0.755880 0.755880 0.750000
O O15 0.785014 0.704587 0.000000
O O16 0.074329 0.500000 0.750000
O O17 0.000000 0.440638 0.750000
O O18 0.061192 0.442222 0.000000
#
# Coordination Sequence:
#
# PCOD9562749 Si02
#       6
#    16  16  16  16  16  16
#     4  11  21  34  49  69  93 122 156 193 232 277
#     4  11  20  31  45  65  90 117 144 176 213 257
#     4  11  21  35  52  72  92 113 136 164 199 244
#     4  12  25  42  58  73  86 101 121 148 183 227
#     4  11  21  35  52  73  97 124 152 184 222 267
#     4  11  21  35  52  73  98 129 164 203 245 291
#
# _framework density 15.939584
#
# number of rings (size 3 to 8) (size 9 to 14) (size 15 to 20)
#    0.000    0.833    0.000   13.000    0.000    0.167 
#    0.000    0.833    0.000    0.000    0.000    0.000 
#    0.000    0.000    0.000    0.000    0.000    0.000 
#
# Total GULP energy -534752.993067 kJ/mol
# GULP energy per Si atom -5570.343678 kJ/mol
# Density = 1.590330 g / cm^3
# Si number density = 15.939584 Si / 1000 Ang^3
#
#
#
# Elastic Constant Matrix: (Units=GPa)
#
#
# Indices 1 2 3 4 5 6 
#
# 1 69.5999 8.9921 12.5688 0.0000 0.0000 0.0000
# 2 8.9921 69.6218 12.5657 0.0000 0.0000 0.0000
# 3 12.5688 12.5657 130.3059 0.0000 0.0000 0.0000
# 4 0.0000 0.0000 0.0000 22.8393 0.0000 0.0000
# 5 0.0000 0.0000 0.0000 0.0000 22.8393 0.0000
# 6 0.0000 0.0000 0.0000 0.0000 0.0000 21.5244
#
#
#
# Elastic Compliance Matrix: (Units=1/GPa)
#
#
# Indices 1 2 3 4 5 6 
#
# 1 0.014814 -0.001685 -0.001266 0.000000 0.000000 0.000000
# 2 -0.001685 0.014809 -0.001266 0.000000 0.000000 0.000000
# 3 -0.001266 -0.001266 0.007918 0.000000 0.000000 0.000000
# 4 0.000000 0.000000 0.000000 0.043784 0.000000 0.000000
# 5 0.000000 0.000000 0.000000 0.000000 0.043784 0.000000
# 6 0.000000 0.000000 0.000000 0.000000 0.000000 0.046459
#
#
# Mechanical properties :
#
#
# Convention : Reuss Voigt Hill
#
# Bulk Modulus (GPa) = 34.35439 37.53120 35.94279
# Shear Modulus (GPa) = 26.35660 29.13398 27.74529
#
# Velocity S-wave (km/s) = 4.07077 4.27989 4.17664
# Velocity P-wave (km/s) = 6.61019 6.92967 6.77181
#
# Compressibility (1/GPa) = 0.02910836
#
# Stress axis : x y z
#
# Youngs Moduli (GPa) = 67.50276 67.52494 126.28727
#
# Poissons Ratio (x) = 0.11376 0.15994
# Poissons Ratio (y) = 0.11373 0.15983
# Poissons Ratio (z) = 0.08549 0.08546
#
# Static dielectric constant tensor:
#      x y z
#    x 1.633420 0.000000 0.000000 
#    y 0.000000 1.633390 0.000000 
#    z 0.000000 0.000000 1.530350 
# 
# From -- ./inp_files/1537.got.cif
#   From: 2010.05.17/outbox.cif.g08.bks.cpg/sg124_1_cif.got.tgz:1537.got - 2010.05.20 11:49:17.
