data_PCOD9562629
_publ_section_title
;
Structure prediction by ZEFSAII (Michael W. Deem and Ramdas Pophale) SiO2 
 PCOD9562629
Probable space group: P 4/M C C
;
_chemical_formula_sum "Si O2"
_cell_formula_units_Z 40
_cell_length_a 8.178671
_cell_length_b 8.178671
_cell_length_c 27.038936
_cell_angle_alpha 90.000000
_cell_angle_beta 90.000000
_cell_angle_gamma 90.000000
_cell_volume 1808.652257
_symmetry_space_group_name_H-M "P 4/M C C"
_symmetry_group_IT_number 124
_symmetry_cell_setting 'tetragonal'
loop_
_space_group_symop_operation_xyz
x,y,z
-y,x,z
-x,-y,z
y,-x,z
x,-y,1/2-z
-x,y,1/2-z
y,x,1/2-z
-y,-x,1/2-z
-x,-y,-z
y,-x,-z
x,y,-z
-y,x,-z
-x,y,1/2+z
x,-y,1/2+z
-y,-x,1/2+z
y,x,1/2+z
loop_
_atom_site_type_symbol
_atom_site_label
_atom_site_fract_x
_atom_site_fract_y
_atom_site_fract_z
Si Si1 0.764013 0.416490 0.166533
Si Si2 0.500000 0.000000 0.750000
Si Si3 0.000000 0.000000 0.500000
Si Si4 0.500000 0.500000 0.500000
Si Si5 0.500000 0.000000 0.417322
Si Si6 0.810740 0.693969 0.000000
O O1 0.696817 0.604239 0.166888
O O2 0.880601 0.398137 0.214040
O O3 0.877580 0.399599 0.118513
O O4 0.112569 0.163885 0.500000
O O5 0.617632 0.339353 0.500000
O O6 0.384612 0.110238 0.451072
#
# Coordination Sequence:
#
# PCOD9562629 Si02
#       6
#    16   4   2   2   8   8
#     4  10  22  39  68  96 129 176 231 289 358 440
#     4  10  20  40  60  96 128 160 228 288 352 412
#     4  12  28  48  68 108 148 194 236 316 372 400
#     4  12  28  48  76 100 132 210 268 284 332 448
#     4  10  24  42  64 104 138 184 234 298 352 428
#     4  11  26  45  70 100 146 192 242 290 360 414
#
# _framework density 22.115912999999999
#
# number of rings (size 3 to 8) (size 9 to 14) (size 15 to 20)
#    0.000    1.600    0.000    3.600   11.200    1.600 
#    0.000    0.000    0.000   40.800    0.000    0.000 
#    0.000    0.000    0.000    0.000    0.000    0.000 
#
# Total GULP energy -222891.062615 kJ/mol
# GULP energy per Si atom -5572.276565 kJ/mol
# Density = 2.206558 g / cm^3
# Si number density = 22.115913 Si / 1000 Ang^3
#
#
#
# Elastic Constant Matrix: (Units=GPa)
#
#
# Indices 1 2 3 4 5 6 
#
# 1 105.3815 30.5167 30.7455 0.0000 0.0000 0.0000
# 2 30.5167 105.3815 30.7455 0.0000 0.0000 0.0000
# 3 30.7455 30.7455 137.5553 0.0000 0.0000 0.0000
# 4 0.0000 0.0000 0.0000 31.8025 0.0000 0.0000
# 5 0.0000 0.0000 0.0000 0.0000 31.8025 0.0000
# 6 0.0000 0.0000 0.0000 0.0000 0.0000 46.3827
#
#
#
# Elastic Compliance Matrix: (Units=1/GPa)
#
#
# Indices 1 2 3 4 5 6 
#
# 1 0.010772 -0.002586 -0.001830 0.000000 0.000000 0.000000
# 2 -0.002586 0.010772 -0.001830 0.000000 0.000000 0.000000
# 3 -0.001830 -0.001830 0.008088 0.000000 0.000000 0.000000
# 4 0.000000 0.000000 0.000000 0.031444 0.000000 0.000000
# 5 0.000000 0.000000 0.000000 0.000000 0.031444 0.000000
# 6 0.000000 0.000000 0.000000 0.000000 0.000000 0.021560
#
#
# Mechanical properties :
#
#
# Convention : Reuss Voigt Hill
#
# Bulk Modulus (GPa) = 58.33812 59.14818 58.74315
# Shear Modulus (GPa) = 37.79765 39.08492 38.44129
#
# Velocity S-wave (km/s) = 4.13858 4.20846 4.17366
# Velocity P-wave (km/s) = 7.01945 7.10053 7.06011
#
# Compressibility (1/GPa) = 0.01714145
#
# Stress axis : x y z
#
# Youngs Moduli (GPa) = 92.83414 92.83414 123.64362
#
# Poissons Ratio (x) = 0.24002 0.22624
# Poissons Ratio (y) = 0.24002 0.22624
# Poissons Ratio (z) = 0.16987 0.16987
#
# Static dielectric constant tensor:
#      x y z
#    x 1.775330 0.000000 0.000000 
#    y 0.000000 1.775330 0.000000 
#    z 0.000000 0.000000 1.851460 
# 
# From -- ./inp_files/6353.got.cif
#   From: 2010.05.17/outbox.cif.g08.bks.cpg/sg124_4_cif.got.tgz:6353.got - 2010.05.20 11:49:17.
