data_PCOD9562932
_publ_section_title
;
Structure prediction by ZEFSAII (Michael W. Deem and Ramdas Pophale) SiO2 
 PCOD9562932
Probable space group: P 4/N B M
;
_chemical_formula_sum "Si O2"
_cell_formula_units_Z 112
_cell_length_a 14.463188
_cell_length_b 14.463188
_cell_length_c 28.961910
_cell_angle_alpha 90.000000
_cell_angle_beta 90.000000
_cell_angle_gamma 90.000000
_cell_volume 6058.362595
_symmetry_space_group_name_H-M "P 4/N B M"
_symmetry_group_IT_number 125
_space_group.IT_coordinate_system_code '2'
_symmetry_cell_setting 'tetragonal'
loop_
_space_group_symop_operation_xyz
x,y,z
1/2-y,x,z
1/2-x,1/2-y,z
y,1/2-x,z
x,1/2-y,-z
1/2-x,y,-z
y,x,-z
1/2-y,1/2-x,-z
-x,-y,-z
1/2+y,-x,-z
1/2+x,1/2+y,-z
-y,1/2+x,-z
-x,1/2+y,z
1/2+x,-y,z
-y,-x,z
1/2+y,1/2+x,z
loop_
_atom_site_type_symbol
_atom_site_label
_atom_site_fract_x
_atom_site_fract_y
_atom_site_fract_z
Si Si1 0.757208 0.399487 0.725922
Si Si2 0.851098 0.867475 0.694736
Si Si3 0.505841 0.851528 0.976809
Si Si4 0.752899 0.594428 0.446965
Si Si5 0.315071 0.391574 0.116638
Si Si6 0.175761 0.975091 0.367382
Si Si7 0.023516 0.133751 0.784986
O O1 0.683577 0.316423 0.730618
O O2 0.858490 0.358490 0.731879
O O3 0.738620 0.436529 0.674476
O O4 0.723290 0.470597 0.764382
O O5 0.739569 0.872811 0.689663
O O6 0.884244 0.901687 0.744735
O O7 0.882447 0.940924 0.656460
O O8 0.537238 0.840554 0.923758
O O9 0.412458 0.912458 0.981123
O O10 0.498545 0.750000 0.000000
O O11 0.587948 0.912053 0.000000
O O12 0.840408 0.663545 0.440775
O O13 0.750000 0.561602 0.500000
O O14 0.765717 0.515358 0.409425
O O15 0.206308 0.367990 0.112127
O O16 0.341579 0.432238 0.166353
O O17 0.105394 0.894607 0.381577
O O18 0.950645 0.049356 0.788030
#
# Coordination Sequence:
#
# PCOD9562932 Si02
#       7
#    16  16  16  16  16  16  16
#     4   8  16  33  53  71 100 147 190 219 263 335
#     4  10  19  33  53  75 103 141 185 224 268 327
#     4  11  23  42  68  97 128 164 209 256 308 368
#     4   9  18  35  56  74  97 133 174 213 264 329
#     4  11  22  38  62  88 117 155 200 248 300 355
#     4  10  19  32  51  77 107 132 168 223 274 321
#     4  10  20  35  53  79 115 147 184 237 289 339
#
# _framework density 18.486844000000001
#
# number of rings (size 3 to 8) (size 9 to 14) (size 15 to 20)
#    0.000    2.143    1.429    3.857    0.000    2.571 
#    0.000   16.429    0.000    1.714    0.000    0.000 
#    0.000    0.000    0.000    0.000    0.000    0.000 
#
# Total GULP energy -624746.608673 kJ/mol
# GULP energy per Si atom -5578.094720 kJ/mol
# Density = 1.844477 g / cm^3
# Si number density = 18.486844 Si / 1000 Ang^3
#
#
#
# Elastic Constant Matrix: (Units=GPa)
#
#
# Indices 1 2 3 4 5 6 
#
# 1 73.4940 35.9839 19.2083 0.0000 0.0000 0.0000
# 2 35.9839 73.4942 19.2086 0.0000 0.0000 0.0000
# 3 19.2083 19.2086 94.0689 0.0000 0.0000 0.0000
# 4 0.0000 0.0000 0.0000 20.4933 0.0000 0.0000
# 5 0.0000 0.0000 0.0000 0.0000 20.4933 0.0000
# 6 0.0000 0.0000 0.0000 0.0000 0.0000 17.4750
#
#
#
# Elastic Compliance Matrix: (Units=1/GPa)
#
#
# Indices 1 2 3 4 5 6 
#
# 1 0.018249 -0.008410 -0.002009 0.000000 0.000000 0.000000
# 2 -0.008410 0.018249 -0.002009 0.000000 0.000000 0.000000
# 3 -0.002009 -0.002009 0.011451 0.000000 0.000000 0.000000
# 4 0.000000 0.000000 0.000000 0.048796 0.000000 0.000000
# 5 0.000000 0.000000 0.000000 0.000000 0.048796 0.000000
# 6 0.000000 0.000000 0.000000 0.000000 0.000000 0.057225
#
#
# Mechanical properties :
#
#
# Convention : Reuss Voigt Hill
#
# Bulk Modulus (GPa) = 43.30312 43.31765 43.31039
# Shear Modulus (GPa) = 21.24751 22.80273 22.02512
#
# Velocity S-wave (km/s) = 3.39386 3.51587 3.45540
# Velocity P-wave (km/s) = 6.23156 6.32173 6.27681
#
# Compressibility (1/GPa) = 0.02309302
#
# Stress axis : x y z
#
# Youngs Moduli (GPa) = 54.79639 54.79648 87.32851
#
# Poissons Ratio (x) = 0.46084 0.17545
# Poissons Ratio (y) = 0.46084 0.17546
# Poissons Ratio (z) = 0.11009 0.11010
#
# Static dielectric constant tensor:
#      x y z
#    x 1.661550 0.000000 0.000000 
#    y 0.000000 1.661550 0.000000 
#    z 0.000000 0.000000 1.620890 
# 
# From -- ./inp_files/6450.got.cif
#   From: 2010.05.17/outbox.cif.g08.bks.cpg/sg125_4_cif.got.tgz:6450.got - 2010.05.20 11:54:10.
