data_PCOD9562206
_publ_section_title
;
Structure prediction by ZEFSAII (Michael W. Deem and Ramdas Pophale) SiO2 
 PCOD9562206
Probable space group: P 4/M M M
;
_chemical_formula_sum "Si O2"
_cell_formula_units_Z 56
_cell_length_a 18.544956
_cell_length_b 18.544956
_cell_length_c 8.148147
_cell_angle_alpha 90.000000
_cell_angle_beta 90.000000
_cell_angle_gamma 90.000000
_cell_volume 2802.273178
_symmetry_space_group_name_H-M "P 4/M M M"
_symmetry_group_IT_number 123
_symmetry_cell_setting 'tetragonal'
loop_
_space_group_symop_operation_xyz
x,y,z
-y,x,z
-x,-y,z
y,-x,z
x,-y,-z
-x,y,-z
y,x,-z
-y,-x,-z
-x,-y,-z
y,-x,-z
x,y,-z
-y,x,-z
-x,y,z
x,-y,z
-y,-x,z
y,x,z
loop_
_atom_site_type_symbol
_atom_site_label
_atom_site_fract_x
_atom_site_fract_y
_atom_site_fract_z
Si Si1 0.000000 0.417791 0.303922
Si Si2 0.197275 0.802726 0.200909
Si Si3 0.419892 0.696762 0.302256
Si Si4 0.918423 0.081578 0.799726
Si Si5 0.643059 0.846014 0.803638
O O1 0.925637 0.380290 0.250317
O O2 0.000000 0.500000 0.239999
O O3 0.000000 0.419830 0.500000
O O4 0.139100 0.860901 0.257091
O O5 0.276573 0.825850 0.255385
O O6 0.197574 0.802427 0.000000
O O7 0.418889 0.692750 0.500000
O O8 0.500000 0.674613 0.246033
O O9 0.356191 0.643810 0.240309
O O10 0.406136 0.779802 0.255378
O O11 0.000000 0.098797 0.748736
O O12 0.917861 0.082140 0.000000
O O13 0.643000 0.845304 0.000000
#
# Coordination Sequence:
#
# PCOD9562206 Si02
#       5
#     8   8  16   8  16
#     4  11  25  43  61  85 118 155 198 246 296 354
#     4   9  19  32  50  81 117 147 184 234 286 341
#     4  10  21  38  60  85 116 155 197 244 298 357
#     4   8  14  25  44  71 104 141 175 211 261 318
#     4  11  22  38  60  88 120 154 194 243 299 358
#
# _framework density 19.983777
#
# number of rings (size 3 to 8) (size 9 to 14) (size 15 to 20)
#    0.000    2.000    1.429    2.571    2.000    5.429 
#    0.000    1.429    0.000    0.000    0.000    2.000 
#    0.000    1.143    0.000    0.000    0.000    0.000 
#
# Total GULP energy -312673.771913 kJ/mol
# GULP energy per Si atom -5583.460213 kJ/mol
# Density = 1.993829 g / cm^3
# Si number density = 19.983777 Si / 1000 Ang^3
#
#
#
# Elastic Constant Matrix: (Units=GPa)
#
#
# Indices 1 2 3 4 5 6 
#
# 1 141.9916 98.0299 15.2664 0.0000 0.0000 0.0000
# 2 98.0299 141.9911 15.2663 0.0000 0.0000 0.0000
# 3 15.2664 15.2663 20.7313 0.0000 0.0000 0.0000
# 4 0.0000 0.0000 0.0000 21.5832 0.0000 0.0000
# 5 0.0000 0.0000 0.0000 0.0000 21.5832 0.0000
# 6 0.0000 0.0000 0.0000 0.0000 0.0000 21.9085
#
#
#
# Elastic Compliance Matrix: (Units=1/GPa)
#
#
# Indices 1 2 3 4 5 6 
#
# 1 0.013672 -0.009075 -0.003385 0.000000 0.000000 0.000000
# 2 -0.009075 0.013672 -0.003385 0.000000 0.000000 0.000000
# 3 -0.003385 -0.003385 0.053222 0.000000 0.000000 0.000000
# 4 0.000000 0.000000 0.000000 0.046332 0.000000 0.000000
# 5 0.000000 0.000000 0.000000 0.000000 0.046332 0.000000
# 6 0.000000 0.000000 0.000000 0.000000 0.000000 0.045644
#
#
# Mechanical properties :
#
#
# Convention : Reuss Voigt Hill
#
# Bulk Modulus (GPa) = 20.46035 62.42659 41.44347
# Shear Modulus (GPa) = 18.73661 24.75841 21.74751
#
# Velocity S-wave (km/s) = 3.06533 3.52366 3.30245
# Velocity P-wave (km/s) = 4.77379 6.91819 5.94350
#
# Compressibility (1/GPa) = 0.04887503
#
# Stress axis : x y z
#
# Youngs Moduli (GPa) = 73.14192 73.14174 18.78933
#
# Poissons Ratio (x) = 0.66377 0.06360
# Poissons Ratio (y) = 0.66377 0.06360
# Poissons Ratio (z) = 0.24760 0.24759
#
# Static dielectric constant tensor:
#      x y z
#    x 1.702850 0.000000 0.000000 
#    y 0.000000 1.702850 0.000000 
#    z 0.000000 0.000000 1.707010 
# 
# From -- ./inp_files/626.got.cif
#   From: 2010.05.17/outbox.cif.g08.bks.cpg/sg123_1_cif.got.tgz:626.got - 2010.05.20 11:43:04.
