data_PCOD9562393
_publ_section_title
;
Structure prediction by ZEFSAII (Michael W. Deem and Ramdas Pophale) SiO2 
 PCOD9562393
Probable space group: P 4/M C C
;
_chemical_formula_sum "Si O2"
_cell_formula_units_Z 96
_cell_length_a 25.785103
_cell_length_b 25.785103
_cell_length_c 8.641559
_cell_angle_alpha 90.000000
_cell_angle_beta 90.000000
_cell_angle_gamma 90.000000
_cell_volume 5745.526612
_symmetry_space_group_name_H-M "P 4/M C C"
_symmetry_group_IT_number 124
_symmetry_cell_setting 'tetragonal'
loop_
_space_group_symop_operation_xyz
x,y,z
-y,x,z
-x,-y,z
y,-x,z
x,-y,1/2-z
-x,y,1/2-z
y,x,1/2-z
-y,-x,1/2-z
-x,-y,-z
y,-x,-z
x,y,-z
-y,x,-z
-x,y,1/2+z
x,-y,1/2+z
-y,-x,1/2+z
y,x,1/2+z
loop_
_atom_site_type_symbol
_atom_site_label
_atom_site_fract_x
_atom_site_fract_y
_atom_site_fract_z
Si Si1 0.557542 0.635866 0.185596
Si Si2 0.644160 0.831452 0.185436
Si Si3 0.945322 0.365913 0.179416
Si Si4 0.239796 0.946001 0.680029
Si Si5 0.639610 0.718573 0.685225
Si Si6 0.160465 0.241082 0.817652
O O1 0.500000 0.642372 0.250000
O O2 0.583173 0.583173 0.250000
O O3 0.594824 0.681338 0.248706
O O4 0.558210 0.635885 0.000000
O O5 0.620631 0.887231 0.241054
O O6 0.627736 0.777152 0.260978
O O7 0.704837 0.834001 0.227844
O O8 0.637757 0.828961 0.000000
O O9 0.946920 0.302963 0.188380
O O10 0.000000 0.384653 0.250000
O O11 0.945827 0.380604 0.000000
O O12 0.226189 0.939838 0.500000
O O13 0.221906 0.897392 0.780248
O O14 0.221218 0.000000 0.750000
O O15 0.693642 0.693642 0.750000
O O16 0.641496 0.715895 0.500000
O O17 0.201504 0.201504 0.750000
O O18 0.167811 0.249466 0.000000
#
# Coordination Sequence:
#
# PCOD9562393 Si02
#       6
#    16  16  16  16  16  16
#     4  11  22  39  60  84 111 141 174 212 254 299
#     4  10  19  31  44  63  91 126 163 201 242 290
#     4   8  15  25  39  57  82 114 152 194 237 280
#     4   9  16  27  40  55  74 101 135 173 217 268
#     4  11  21  34  51  73 100 134 170 208 251 300
#     4  11  20  29  40  57  81 111 145 184 224 269
#
# _framework density 16.708651
#
# number of rings (size 3 to 8) (size 9 to 14) (size 15 to 20)
#    0.000    2.000    0.000    8.000    0.000    4.833 
#    0.000    0.833    0.000    0.000    0.000    0.000 
#    0.000    1.000    0.000   10.333    0.000    6.167 
#
# Total GULP energy -534994.509200 kJ/mol
# GULP energy per Si atom -5572.859471 kJ/mol
# Density = 1.667062 g / cm^3
# Si number density = 16.708651 Si / 1000 Ang^3
#
#
#
# Elastic Constant Matrix: (Units=GPa)
#
#
# Indices 1 2 3 4 5 6 
#
# 1 80.1281 19.2160 24.3934 0.0000 0.0000 0.0000
# 2 19.2160 80.1281 24.3934 0.0000 0.0000 0.0000
# 3 24.3934 24.3934 105.0548 0.0000 0.0000 0.0000
# 4 0.0000 0.0000 0.0000 24.2493 0.0000 0.0000
# 5 0.0000 0.0000 0.0000 0.0000 24.2493 0.0000
# 6 0.0000 0.0000 0.0000 0.0000 0.0000 8.3782
#
#
#
# Elastic Compliance Matrix: (Units=1/GPa)
#
#
# Indices 1 2 3 4 5 6 
#
# 1 0.013889 -0.002528 -0.002638 0.000000 0.000000 0.000000
# 2 -0.002528 0.013889 -0.002638 0.000000 0.000000 0.000000
# 3 -0.002638 -0.002638 0.010744 0.000000 0.000000 0.000000
# 4 0.000000 0.000000 0.000000 0.041238 0.000000 0.000000
# 5 0.000000 0.000000 0.000000 0.000000 0.041238 0.000000
# 6 0.000000 0.000000 0.000000 0.000000 0.000000 0.119358
#
#
# Mechanical properties :
#
#
# Convention : Reuss Voigt Hill
#
# Bulk Modulus (GPa) = 43.64024 44.59074 44.11549
# Shear Modulus (GPa) = 18.96791 24.52922 21.74856
#
# Velocity S-wave (km/s) = 3.37295 3.83568 3.61173
# Velocity P-wave (km/s) = 6.42994 6.80894 6.62215
#
# Compressibility (1/GPa) = 0.02291463
#
# Stress axis : x y z
#
# Youngs Moduli (GPa) = 71.99769 71.99769 93.07543
#
# Poissons Ratio (x) = 0.18199 0.24554
# Poissons Ratio (y) = 0.18199 0.24554
# Poissons Ratio (z) = 0.18994 0.18994
#
# Static dielectric constant tensor:
#      x y z
#    x 1.572440 0.000000 0.000000 
#    y 0.000000 1.572440 0.000000 
#    z 0.000000 0.000000 1.562280 
# 
# From -- ./inp_files/1397.got.cif
#   From: 2010.05.17/outbox.cif.g08.bks.cpg/sg124_1_cif.got.tgz:1397.got - 2010.05.20 11:49:17.
