data_PCOD9562421
_publ_section_title
;
Structure prediction by ZEFSAII (Michael W. Deem and Ramdas Pophale) SiO2 
 PCOD9562421
Probable space group: P 4/M C C
;
_chemical_formula_sum "Si O2"
_cell_formula_units_Z 128
_cell_length_a 20.192469
_cell_length_b 20.192469
_cell_length_c 17.525115
_cell_angle_alpha 90.000000
_cell_angle_beta 90.000000
_cell_angle_gamma 90.000000
_cell_volume 7145.616860
_symmetry_space_group_name_H-M "P 4/M C C"
_symmetry_group_IT_number 124
_symmetry_cell_setting 'tetragonal'
loop_
_space_group_symop_operation_xyz
x,y,z
-y,x,z
-x,-y,z
y,-x,z
x,-y,1/2-z
-x,y,1/2-z
y,x,1/2-z
-y,-x,1/2-z
-x,-y,-z
y,-x,-z
x,y,-z
-y,x,-z
-x,y,1/2+z
x,-y,1/2+z
-y,-x,1/2+z
y,x,1/2+z
loop_
_atom_site_type_symbol
_atom_site_label
_atom_site_fract_x
_atom_site_fract_y
_atom_site_fract_z
Si Si1 0.268349 0.662378 0.310775
Si Si2 0.703587 0.915937 0.413758
Si Si3 0.567507 0.138300 0.591363
Si Si4 0.854737 0.749248 0.764331
Si Si5 0.957620 0.663171 0.325362
Si Si6 0.722141 0.369544 0.909169
Si Si7 0.403574 0.545217 0.907122
Si Si8 0.814766 0.420722 0.587618
O O1 0.327818 0.672183 0.250000
O O2 0.204491 0.695269 0.271713
O O3 0.296160 0.707065 0.379719
O O4 0.242802 0.596085 0.351546
O O5 0.728717 0.912056 0.500000
O O6 0.750369 0.889287 0.346885
O O7 0.638189 0.868833 0.409632
O O8 0.685883 0.990420 0.389416
O O9 0.577267 0.127056 0.500000
O O10 0.601266 0.082023 0.641166
O O11 0.603071 0.206937 0.613835
O O12 0.489765 0.149526 0.603930
O O13 0.818342 0.818342 0.750000
O O14 0.906605 0.720474 0.702761
O O15 0.000000 0.645798 0.250000
O O16 0.663499 0.418899 0.883503
O O17 0.720768 0.369134 0.000000
O O18 0.414224 0.469178 0.882915
O O19 0.403683 0.544506 0.000000
O O20 0.788329 0.424184 0.500000
#
# Coordination Sequence:
#
# PCOD9562421 Si02
#       8
#    16  16  16  16  16  16  16  16
#     4  10  19  33  48  67  97 134 172 217 271 330
#     4   9  18  34  54  78 107 145 183 219 266 321
#     4  10  20  33  50  78 104 130 179 238 282 331
#     4   9  18  34  54  75 105 142 179 216 259 320
#     4  10  20  36  55  76 106 145 179 219 273 328
#     4  10  20  31  51  75  98 131 173 228 290 337
#     4   8  15  28  47  71  94 121 165 221 280 344
#     4   9  19  34  53  74 101 135 174 222 275 330
#
# _framework density 17.913080000000001
#
# number of rings (size 3 to 8) (size 9 to 14) (size 15 to 20)
#    0.000    2.625    0.000    2.625    1.750    1.000 
#    0.000   16.250    0.000    0.000    0.000    0.875 
#    0.000   20.250    0.000   10.125    0.000    1.125 
#
# Total GULP energy -713233.855156 kJ/mol
# GULP energy per Si atom -5572.139493 kJ/mol
# Density = 1.787231 g / cm^3
# Si number density = 17.913080 Si / 1000 Ang^3
#
#
#
# Elastic Constant Matrix: (Units=GPa)
#
#
# Indices 1 2 3 4 5 6 
#
# 1 53.4929 48.0103 40.0587 0.0000 0.0000 0.0000
# 2 48.0103 53.4926 40.0589 0.0000 0.0000 0.0000
# 3 40.0587 40.0589 64.8049 0.0000 0.0000 0.0000
# 4 0.0000 0.0000 0.0000 22.2311 0.0000 0.0000
# 5 0.0000 0.0000 0.0000 0.0000 22.2308 0.0000
# 6 0.0000 0.0000 0.0000 0.0000 0.0000 25.1639
#
#
#
# Elastic Compliance Matrix: (Units=1/GPa)
#
#
# Indices 1 2 3 4 5 6 
#
# 1 0.100817 -0.081580 -0.011891 0.000000 0.000000 0.000000
# 2 -0.081580 0.100819 -0.011893 0.000000 0.000000 0.000000
# 3 -0.011891 -0.011893 0.030133 0.000000 0.000000 0.000000
# 4 0.000000 0.000000 0.000000 0.044982 0.000000 0.000000
# 5 0.000000 0.000000 0.000000 0.000000 0.044983 0.000000
# 6 0.000000 0.000000 0.000000 0.000000 0.000000 0.039739
#
#
# Mechanical properties :
#
#
# Convention : Reuss Voigt Hill
#
# Bulk Modulus (GPa) = 47.52529 47.56070 47.54299
# Shear Modulus (GPa) = 8.63235 16.83599 12.73417
#
# Velocity S-wave (km/s) = 2.19761 3.06906 2.66914
# Velocity P-wave (km/s) = 5.74700 6.25838 6.00813
#
# Compressibility (1/GPa) = 0.02104143
#
# Stress axis : x y z
#
# Youngs Moduli (GPa) = 9.91891 9.91874 33.18594
#
# Poissons Ratio (x) = 0.80917 0.39463
# Poissons Ratio (y) = 0.80918 0.39468
# Poissons Ratio (z) = 0.11795 0.11796
#
# Static dielectric constant tensor:
#      x y z
#    x 1.626180 0.000000 0.000000 
#    y 0.000000 1.626180 0.000000 
#    z 0.000000 0.000000 1.666990 
# 
# From -- ./inp_files/4586.got.cif
#   From: 2010.05.17/outbox.cif.g08.bks.cpg/sg124_3_cif.got.tgz:4586.got - 2010.05.20 11:49:17.
