data_PCOD9562504
_publ_section_title
;
Structure prediction by ZEFSAII (Michael W. Deem and Ramdas Pophale) SiO2 
 PCOD9562504
Probable space group: P 4/M C C
;
_chemical_formula_sum "Si O2"
_cell_formula_units_Z 96
_cell_length_a 24.487058
_cell_length_b 24.487058
_cell_length_c 9.678723
_cell_angle_alpha 90.000000
_cell_angle_beta 90.000000
_cell_angle_gamma 90.000000
_cell_volume 5803.517262
_symmetry_space_group_name_H-M "P 4/M C C"
_symmetry_group_IT_number 124
_symmetry_cell_setting 'tetragonal'
loop_
_space_group_symop_operation_xyz
x,y,z
-y,x,z
-x,-y,z
y,-x,z
x,-y,1/2-z
-x,y,1/2-z
y,x,1/2-z
-y,-x,1/2-z
-x,-y,-z
y,-x,-z
x,y,-z
-y,x,-z
-x,y,1/2+z
x,-y,1/2+z
-y,-x,1/2+z
y,x,1/2+z
loop_
_atom_site_type_symbol
_atom_site_label
_atom_site_fract_x
_atom_site_fract_y
_atom_site_fract_z
Si Si1 0.658822 0.130783 0.837632
Si Si2 0.661221 0.737731 0.663964
Si Si3 0.936668 0.763826 0.754059
Si Si4 0.447061 0.736930 0.661855
Si Si5 0.152181 0.938945 0.000000
Si Si6 0.065389 0.843368 0.000000
Si Si7 0.130238 0.447640 0.339647
O O1 0.665202 0.196458 0.831025
O O2 0.712420 0.101688 0.778861
O O3 0.606933 0.115108 0.743908
O O4 0.651026 0.116585 0.000000
O O5 0.709853 0.709853 0.750000
O O6 0.660088 0.722490 0.500000
O O7 0.606253 0.722077 0.748184
O O8 0.930218 0.807509 0.874002
O O9 0.925179 0.801851 0.624496
O O10 0.000000 0.745320 0.750000
O O11 0.500000 0.719082 0.750000
O O12 0.446054 0.718915 0.500000
O O13 0.448840 0.803301 0.657031
O O14 0.103937 0.895664 0.000000
O O15 0.135919 0.002664 0.000000
O O16 0.112463 0.500000 0.250000
O O17 0.111985 0.448470 0.500000
#
# Coordination Sequence:
#
# PCOD9562504 Si02
#       7
#    16  16  16  16   8   8  16
#     4  10  20  35  52  73 103 139 178 215 262 314
#     4  10  20  32  46  69 103 137 168 210 258 306
#     4  10  21  38  56  78 105 138 175 216 260 314
#     4   9  16  28  46  67  94 131 173 212 251 302
#     4  10  20  39  56  82 107 135 171 215 269 319
#     4  10  22  35  60  80 107 135 171 217 265 327
#     4   9  17  29  49  76 104 134 173 216 258 303
#
# _framework density 16.541692999999999
#
# number of rings (size 3 to 8) (size 9 to 14) (size 15 to 20)
#    0.000    2.333    0.833    2.000    1.167    6.167 
#    0.000    0.000    0.000    3.500    0.000    2.333 
#    0.000    0.333    0.000    3.333    0.000    2.333 
#
# Total GULP energy -534719.138997 kJ/mol
# GULP energy per Si atom -5569.991031 kJ/mol
# Density = 1.650404 g / cm^3
# Si number density = 16.541693 Si / 1000 Ang^3
#
#
#
# Elastic Constant Matrix: (Units=GPa)
#
#
# Indices 1 2 3 4 5 6 
#
# 1 75.0671 64.8602 62.9313 0.0000 0.0000 0.0000
# 2 64.8602 75.0671 62.9313 0.0000 0.0000 0.0000
# 3 62.9313 62.9313 185.6046 0.0000 0.0000 0.0000
# 4 0.0000 0.0000 0.0000 28.1418 0.0000 0.0000
# 5 0.0000 0.0000 0.0000 0.0000 28.1418 0.0000
# 6 0.0000 0.0000 0.0000 0.0000 0.0000 -7.4160
#
#
#
# Elastic Compliance Matrix: (Units=1/GPa)
#
#
# Indices 1 2 3 4 5 6 
#
# 1 0.054128 -0.043845 -0.003486 0.000000 0.000000 0.000000
# 2 -0.043845 0.054128 -0.003486 0.000000 0.000000 0.000000
# 3 -0.003486 -0.003486 0.007752 0.000000 0.000000 0.000000
# 4 0.000000 0.000000 0.000000 0.035534 0.000000 0.000000
# 5 0.000000 0.000000 0.000000 0.000000 0.035534 0.000000
# 6 0.000000 0.000000 0.000000 0.000000 0.000000 -0.134843
#
#
# Mechanical properties :
#
#
# Convention : Reuss Voigt Hill
#
# Bulk Modulus (GPa) = 69.58240 79.68719 74.63480
# Shear Modulus (GPa) = 31.51407 19.44125 25.47766
#
# Velocity S-wave (km/s) = 4.36951 3.43197 3.92881
# Velocity P-wave (km/s) = 8.22272 7.99892 8.11159
#
# Compressibility (1/GPa) = 0.01437145
#
# Stress axis : x y z
#
# Youngs Moduli (GPa) = 18.47487 18.47487 128.99873
#
# Poissons Ratio (x) = 0.81003 0.44974
# Poissons Ratio (y) = 0.81003 0.44974
# Poissons Ratio (z) = 0.06441 0.06441
#
# Static dielectric constant tensor:
#      x y z
#    x 1.537370 0.000000 0.000000 
#    y 0.000000 1.537370 0.000000 
#    z 0.000000 0.000000 1.552790 
# 
# From -- ./inp_files/1410.got.cif
#   From: 2010.05.17/outbox.cif.g08.bks.cpg/sg124_1_cif.got.tgz:1410.got - 2010.05.20 11:49:17.
