data_PCOD9562823
_publ_section_title
;
Structure prediction by ZEFSAII (Michael W. Deem and Ramdas Pophale) SiO2 
 PCOD9562823
Probable space group: P 4/M C C
;
_chemical_formula_sum "Si O2"
_cell_formula_units_Z 42
_cell_length_a 8.919873
_cell_length_b 8.919873
_cell_length_c 25.953253
_cell_angle_alpha 90.000000
_cell_angle_beta 90.000000
_cell_angle_gamma 90.000000
_cell_volume 2064.948108
_symmetry_space_group_name_H-M "P 4/M C C"
_symmetry_group_IT_number 124
_symmetry_cell_setting 'tetragonal'
loop_
_space_group_symop_operation_xyz
x,y,z
-y,x,z
-x,-y,z
y,-x,z
x,-y,1/2-z
-x,y,1/2-z
y,x,1/2-z
-y,-x,1/2-z
-x,-y,-z
y,-x,-z
x,y,-z
-y,x,-z
-x,y,1/2+z
x,-y,1/2+z
-y,-x,1/2+z
y,x,1/2+z
loop_
_atom_site_type_symbol
_atom_site_label
_atom_site_fract_x
_atom_site_fract_y
_atom_site_fract_z
Si Si1 0.786706 0.130433 0.403767
Si Si2 0.500000 0.500000 0.500000
Si Si3 0.307560 0.662301 0.190693
Si Si4 0.167769 0.574524 0.000000
O O1 0.732058 0.190946 0.348706
O O2 0.673648 0.176785 0.448317
O O3 0.952252 0.197914 0.409152
O O4 0.315876 0.528268 0.500000
O O5 0.297894 0.482746 0.182315
O O6 0.287476 0.712524 0.250000
O O7 0.000000 0.500000 0.000000
#
# Coordination Sequence:
#
# PCOD9562823 Si02
#       4
#    16   2  16   8
#     4  11  25  43  65  96 139 184 228 294 362 428
#     4  12  28  44  76 104 126 196 236 284 340 442
#     4   9  21  41  66  97 133 176 234 299 353 422
#     4  12  28  47  70 107 142 183 241 300 360 434
#
# _framework density 20.339493999999998
#
# number of rings (size 3 to 8) (size 9 to 14) (size 15 to 20)
#    0.000    1.524    0.000    4.571   10.667    3.048 
#    0.000    5.714    0.000    0.000    0.000    0.000 
#    0.000    0.000    0.000    0.000    0.000    0.000 
#
# Total GULP energy -233992.902168 kJ/mol
# GULP energy per Si atom -5571.259575 kJ/mol
# Density = 2.029320 g / cm^3
# Si number density = 20.339494 Si / 1000 Ang^3
#
#
#
# Elastic Constant Matrix: (Units=GPa)
#
#
# Indices 1 2 3 4 5 6 
#
# 1 70.5532 67.6288 43.6050 0.0000 0.0000 0.0000
# 2 67.6288 70.5531 43.6056 0.0000 0.0000 0.0000
# 3 43.6050 43.6056 68.8667 0.0000 0.0000 0.0000
# 4 0.0000 0.0000 0.0000 16.1518 0.0000 0.0000
# 5 0.0000 0.0000 0.0000 0.0000 16.1506 0.0000
# 6 0.0000 0.0000 0.0000 0.0000 0.0000 11.6214
#
#
#
# Elastic Compliance Matrix: (Units=1/GPa)
#
#
# Indices 1 2 3 4 5 6 
#
# 1 0.177003 -0.164951 -0.007630 0.000000 0.000000 0.000000
# 2 -0.164951 0.177007 -0.007635 0.000000 0.000000 0.000000
# 3 -0.007630 -0.007635 0.024186 0.000000 0.000000 0.000000
# 4 0.000000 0.000000 0.000000 0.061913 0.000000 0.000000
# 5 0.000000 0.000000 0.000000 0.000000 0.061917 0.000000
# 6 0.000000 0.000000 0.000000 0.000000 0.000000 0.086048
#
#
# Mechanical properties :
#
#
# Convention : Reuss Voigt Hill
#
# Bulk Modulus (GPa) = 56.29182 57.73909 57.01546
# Shear Modulus (GPa) = 5.23874 12.46033 8.84954
#
# Velocity S-wave (km/s) = 1.60662 2.47780 2.08815
# Velocity P-wave (km/s) = 5.58371 6.05271 5.82293
#
# Compressibility (1/GPa) = 0.01776457
#
# Stress axis : x y z
#
# Youngs Moduli (GPa) = 5.64961 5.64950 41.34622
#
# Poissons Ratio (x) = 0.93189 0.31545
# Poissons Ratio (y) = 0.93191 0.31567
# Poissons Ratio (z) = 0.04310 0.04313
#
# Static dielectric constant tensor:
#      x y z
#    x 1.734320 0.000000 0.000000 
#    y 0.000000 1.734320 0.000000 
#    z 0.000000 0.000000 1.703620 
# 
# From -- ./inp_files/6338.got.cif
#   From: 2010.05.17/outbox.cif.g08.bks.cpg/sg124_4_cif.got.tgz:6338.got - 2010.05.20 11:49:17.
