data_PCOD9562365
_publ_section_title
;
Structure prediction by ZEFSAII (Michael W. Deem and Ramdas Pophale) SiO2 
 PCOD9562365
Probable space group: P 4/M C C
;
_chemical_formula_sum "Si O2"
_cell_formula_units_Z 96
_cell_length_a 24.736138
_cell_length_b 24.736138
_cell_length_c 9.245844
_cell_angle_alpha 90.000000
_cell_angle_beta 90.000000
_cell_angle_gamma 90.000000
_cell_volume 5657.314880
_symmetry_space_group_name_H-M "P 4/M C C"
_symmetry_group_IT_number 124
_symmetry_cell_setting 'tetragonal'
loop_
_space_group_symop_operation_xyz
x,y,z
-y,x,z
-x,-y,z
y,-x,z
x,-y,1/2-z
-x,y,1/2-z
y,x,1/2-z
-y,-x,1/2-z
-x,-y,-z
y,-x,-z
x,y,-z
-y,x,-z
-x,y,1/2+z
x,-y,1/2+z
-y,-x,1/2+z
y,x,1/2+z
loop_
_atom_site_type_symbol
_atom_site_label
_atom_site_fract_x
_atom_site_fract_y
_atom_site_fract_z
Si Si1 0.633422 0.555049 0.331615
Si Si2 0.636932 0.836270 0.333705
Si Si3 0.945017 0.366072 0.167818
Si Si4 0.234203 0.946232 0.666348
Si Si5 0.646330 0.725784 0.831366
Si Si6 0.160025 0.233045 0.835938
O O1 0.647088 0.500000 0.250000
O O2 0.583886 0.583886 0.250000
O O3 0.620772 0.545310 0.500000
O O4 0.683157 0.597122 0.325504
O O5 0.617480 0.833662 0.500000
O O6 0.617221 0.890324 0.251650
O O7 0.628137 0.780946 0.246152
O O8 0.702179 0.840588 0.339236
O O9 0.945309 0.300163 0.167272
O O10 0.000000 0.382917 0.250000
O O11 0.944785 0.383288 0.000000
O O12 0.217128 0.946345 0.500000
O O13 0.215230 0.893342 0.750734
O O14 0.217426 0.000000 0.750000
O O15 0.696147 0.696147 0.750000
O O16 0.660372 0.735653 0.000000
O O17 0.211124 0.211124 0.750000
O O18 0.160571 0.213177 0.000000
#
# Coordination Sequence:
#
# PCOD9562365 Si02
#       6
#    16  16  16  16  16  16
#     4  10  21  37  57  80 106 135 168 206 248 293
#     4  10  19  29  43  63  89 123 160 195 233 279
#     4   9  16  26  40  58  83 115 153 195 236 278
#     4   9  16  26  39  53  71  98 131 168 211 258
#     4  10  20  33  49  70  97 129 163 200 242 289
#     4  10  19  28  38  55  79 107 140 176 213 255
#
# _framework density 16.969180000000001
#
# number of rings (size 3 to 8) (size 9 to 14) (size 15 to 20)
#    0.000    2.333    0.000    3.500    0.000    9.500 
#    0.000    0.833    0.000    0.000    0.000    0.000 
#    0.000    1.000    0.000   10.333    0.000    6.500 
#
# Total GULP energy -535323.354348 kJ/mol
# GULP energy per Si atom -5576.284941 kJ/mol
# Density = 1.693056 g / cm^3
# Si number density = 16.969180 Si / 1000 Ang^3
#
#
#
# Elastic Constant Matrix: (Units=GPa)
#
#
# Indices 1 2 3 4 5 6 
#
# 1 57.2884 -3.0259 38.4554 0.0000 0.0000 0.0000
# 2 -3.0259 57.2884 38.4554 0.0000 0.0000 0.0000
# 3 38.4554 38.4554 173.1084 0.0000 0.0000 0.0000
# 4 0.0000 0.0000 0.0000 22.2503 0.0000 0.0000
# 5 0.0000 0.0000 0.0000 0.0000 22.2503 0.0000
# 6 0.0000 0.0000 0.0000 0.0000 0.0000 4.2391
#
#
#
# Elastic Compliance Matrix: (Units=1/GPa)
#
#
# Indices 1 2 3 4 5 6 
#
# 1 0.021739 0.005159 -0.005975 0.000000 0.000000 0.000000
# 2 0.005159 0.021739 -0.005975 0.000000 0.000000 0.000000
# 3 -0.005975 -0.005975 0.008432 0.000000 0.000000 0.000000
# 4 0.000000 0.000000 0.000000 0.044943 0.000000 0.000000
# 5 0.000000 0.000000 0.000000 0.000000 0.044943 0.000000
# 6 0.000000 0.000000 0.000000 0.000000 0.000000 0.235901
#
#
# Mechanical properties :
#
#
# Convention : Reuss Voigt Hill
#
# Bulk Modulus (GPa) = 26.09146 48.38387 37.23766
# Shear Modulus (GPa) = 12.37453 24.00130 18.18791
#
# Velocity S-wave (km/s) = 2.70337 3.76494 3.27742
# Velocity P-wave (km/s) = 5.01532 6.89016 6.02610
#
# Compressibility (1/GPa) = 0.03832672
#
# Stress axis : x y z
#
# Youngs Moduli (GPa) = 46.00016 46.00016 118.60242
#
# Poissons Ratio (x) = -0.23733 0.70869
# Poissons Ratio (y) = -0.23733 0.70869
# Poissons Ratio (z) = 0.27487 0.27487
#
# Static dielectric constant tensor:
#      x y z
#    x 1.568320 0.000000 0.000000 
#    y 0.000000 1.568320 0.000000 
#    z 0.000000 0.000000 1.583860 
# 
# From -- ./inp_files/1347.got.cif
#   From: 2010.05.17/outbox.cif.g08.bks.cpg/sg124_1_cif.got.tgz:1347.got - 2010.05.20 11:49:17.
