data_PCOD9562948
_publ_section_title
;
Structure prediction by ZEFSAII (Michael W. Deem and Ramdas Pophale) SiO2 
 PCOD9562948
Probable space group: P 4/N B M
;
_chemical_formula_sum "Si O2"
_cell_formula_units_Z 72
_cell_length_a 26.720216
_cell_length_b 26.720216
_cell_length_c 5.196365
_cell_angle_alpha 90.000000
_cell_angle_beta 90.000000
_cell_angle_gamma 90.000000
_cell_volume 3710.048423
_symmetry_space_group_name_H-M "P 4/N B M"
_symmetry_group_IT_number 125
_space_group.IT_coordinate_system_code '2'
_symmetry_cell_setting 'tetragonal'
loop_
_space_group_symop_operation_xyz
x,y,z
1/2-y,x,z
1/2-x,1/2-y,z
y,1/2-x,z
x,1/2-y,-z
1/2-x,y,-z
y,x,-z
1/2-y,1/2-x,-z
-x,-y,-z
1/2+y,-x,-z
1/2+x,1/2+y,-z
-y,1/2+x,-z
-x,1/2+y,z
1/2+x,-y,z
-y,-x,z
1/2+y,1/2+x,z
loop_
_atom_site_type_symbol
_atom_site_label
_atom_site_fract_x
_atom_site_fract_y
_atom_site_fract_z
Si Si1 0.547078 0.779230 0.256456
Si Si2 0.570398 0.204182 0.661900
Si Si3 0.614670 0.534910 0.099890
Si Si4 0.642392 0.438008 0.840854
Si Si5 0.024542 0.975459 0.744378
O O1 0.567810 0.750000 0.500000
O O2 0.486366 0.778201 0.279002
O O3 0.558309 0.838160 0.244010
O O4 0.561580 0.750000 0.000000
O O5 0.595265 0.250000 0.500000
O O6 0.571074 0.161763 0.444823
O O7 0.584389 0.180143 0.939146
O O8 0.581527 0.494518 0.257866
O O9 0.577332 0.577332 0.000000
O O10 0.637531 0.497687 0.883862
O O11 0.589331 0.410670 0.873252
O O12 0.000000 0.000000 0.500000
O O13 0.000000 0.000000 0.000000
#
# Coordination Sequence:
#
# PCOD9562948 Si02
#       5
#    16  16  16  16   8
#     4  10  20  36  55  74 100 143 193 234 272 313
#     4  10  19  34  52  70  97 138 183 225 267 312
#     4  10  21  37  53  79 111 151 187 226 268 323
#     4  11  21  33  50  76 108 139 175 219 266 320
#     4  10  22  34  48  74 112 152 188 215 254 323
#
# _framework density 19.406752999999998
#
# number of rings (size 3 to 8) (size 9 to 14) (size 15 to 20)
#    0.000    1.778    1.111    6.667    0.000   10.667 
#    0.000    0.000    0.000    0.000    0.000    0.000 
#    0.000   31.556    0.000    9.333    0.000    6.667 
#
# Total GULP energy -401355.294492 kJ/mol
# GULP energy per Si atom -5574.379090 kJ/mol
# Density = 1.936258 g / cm^3
# Si number density = 19.406753 Si / 1000 Ang^3
#
#
#
# Elastic Constant Matrix: (Units=GPa)
#
#
# Indices 1 2 3 4 5 6 
#
# 1 87.2880 23.1281 29.8624 0.0000 0.0000 0.0000
# 2 23.1281 87.2880 29.8624 0.0000 0.0000 0.0000
# 3 29.8624 29.8624 134.3373 0.0000 0.0000 0.0000
# 4 0.0000 0.0000 0.0000 16.2455 0.0000 0.0000
# 5 0.0000 0.0000 0.0000 0.0000 16.2455 0.0000
# 6 0.0000 0.0000 0.0000 0.0000 0.0000 7.7483
#
#
#
# Elastic Compliance Matrix: (Units=1/GPa)
#
#
# Indices 1 2 3 4 5 6 
#
# 1 0.012940 -0.002646 -0.002288 0.000000 0.000000 0.000000
# 2 -0.002646 0.012940 -0.002288 0.000000 0.000000 0.000000
# 3 -0.002288 -0.002288 0.008461 0.000000 0.000000 0.000000
# 4 0.000000 0.000000 0.000000 0.061556 0.000000 0.000000
# 5 0.000000 0.000000 0.000000 0.000000 0.061556 0.000000
# 6 0.000000 0.000000 0.000000 0.000000 0.000000 0.129060
#
#
# Mechanical properties :
#
#
# Convention : Reuss Voigt Hill
#
# Bulk Modulus (GPa) = 50.25968 52.73547 51.49757
# Shear Modulus (GPa) = 16.25537 23.11854 19.68696
#
# Velocity S-wave (km/s) = 2.89730 3.45521 3.18848
# Velocity P-wave (km/s) = 6.09481 6.56892 6.33630
#
# Compressibility (1/GPa) = 0.01989667
#
# Stress axis : x y z
#
# Youngs Moduli (GPa) = 77.27817 77.27817 118.18454
#
# Poissons Ratio (x) = 0.20446 0.27045
# Poissons Ratio (y) = 0.20446 0.27045
# Poissons Ratio (z) = 0.17684 0.17684
#
# Static dielectric constant tensor:
#      x y z
#    x 1.734720 0.000000 0.000000 
#    y 0.000000 1.734720 0.000000 
#    z 0.000000 0.000000 1.747420 
# 
# From -- ./inp_files/1099.got.cif
#   From: 2010.05.17/outbox.cif.g08.bks.cpg/sg125_1_cif.got.tgz:1099.got - 2010.05.20 11:54:10.
