data_PCOD9562245
_publ_section_title
;
Structure prediction by ZEFSAII (Michael W. Deem and Ramdas Pophale) SiO2 
 PCOD9562245
Probable space group: P 4/M M M
;
_chemical_formula_sum "Si O2"
_cell_formula_units_Z 96
_cell_length_a 25.075778
_cell_length_b 25.075778
_cell_length_c 7.619839
_cell_angle_alpha 90.000000
_cell_angle_beta 90.000000
_cell_angle_gamma 90.000000
_cell_volume 4791.313938
_symmetry_space_group_name_H-M "P 4/M M M"
_symmetry_group_IT_number 123
_symmetry_cell_setting 'tetragonal'
loop_
_space_group_symop_operation_xyz
x,y,z
-y,x,z
-x,-y,z
y,-x,z
x,-y,-z
-x,y,-z
y,x,-z
-y,-x,-z
-x,-y,-z
y,-x,-z
x,y,-z
-y,x,-z
-x,y,z
x,-y,z
-y,-x,z
y,x,z
loop_
_atom_site_type_symbol
_atom_site_label
_atom_site_fract_x
_atom_site_fract_y
_atom_site_fract_z
Si Si1 0.938182 0.440888 0.288085
Si Si2 0.355295 0.559675 0.214111
Si Si3 0.147349 0.768254 0.708692
Si Si4 0.147520 0.060987 0.285611
Si Si5 0.440145 0.232799 0.214776
Si Si6 0.149135 0.355618 0.203750
O O1 0.936343 0.440810 0.500000
O O2 0.919099 0.500000 0.228719
O O3 0.903691 0.391297 0.225225
O O4 0.000000 0.435957 0.235913
O O5 0.371183 0.500000 0.267791
O O6 0.395475 0.604526 0.277220
O O7 0.294097 0.568448 0.266119
O O8 0.355874 0.560535 0.000000
O O9 0.146995 0.775278 0.500000
O O10 0.200176 0.799825 0.775098
O O11 0.095669 0.801203 0.773447
O O12 0.145535 0.705131 0.735799
O O13 0.148202 0.059563 0.500000
O O14 0.095449 0.095449 0.235536
O O15 0.147459 0.000000 0.224665
O O16 0.500000 0.216541 0.270572
O O17 0.393296 0.195202 0.283013
O O18 0.440417 0.230950 0.000000
O O19 0.161579 0.351071 0.000000
#
# Coordination Sequence:
#
# PCOD9562245 Si02
#       6
#    16  16  16  16  16  16
#     4   9  19  36  55  74  99 132 167 201 241 296
#     4   8  13  21  33  50  75 108 144 181 222 270
#     4   9  19  35  50  66  96 136 171 202 241 294
#     4   8  14  26  46  71  96 122 152 187 229 276
#     4   8  15  27  40  57  85 118 148 183 234 290
#     4  11  21  31  49  75  98 123 162 211 255 295
#
# _framework density 20.036259000000001
#
# number of rings (size 3 to 8) (size 9 to 14) (size 15 to 20)
#    0.000    3.167    0.000    3.500    0.000    3.333 
#    0.000    5.833    0.000    0.000    0.000    0.000 
#    0.000    0.000    0.000    3.667    0.000    4.167 
#
# Total GULP energy -535145.566871 kJ/mol
# GULP energy per Si atom -5574.432988 kJ/mol
# Density = 1.999066 g / cm^3
# Si number density = 20.036259 Si / 1000 Ang^3
#
#
#
# Elastic Constant Matrix: (Units=GPa)
#
#
# Indices 1 2 3 4 5 6 
#
# 1 181.9590 122.9245 3.7809 0.0000 0.0000 0.0000
# 2 122.9245 181.9590 3.7809 0.0000 0.0000 0.0000
# 3 3.7809 3.7809 36.1811 0.0000 0.0000 0.0000
# 4 0.0000 0.0000 0.0000 -5.4799 0.0000 0.0000
# 5 0.0000 0.0000 0.0000 0.0000 -5.4799 0.0000
# 6 0.0000 0.0000 0.0000 0.0000 0.0000 43.9698
#
#
#
# Elastic Compliance Matrix: (Units=1/GPa)
#
#
# Indices 1 2 3 4 5 6 
#
# 1 0.010114 -0.006825 -0.000344 0.000000 0.000000 0.000000
# 2 -0.006825 0.010114 -0.000344 0.000000 0.000000 0.000000
# 3 -0.000344 -0.000344 0.027711 0.000000 0.000000 0.000000
# 4 0.000000 0.000000 0.000000 -0.182484 0.000000 0.000000
# 5 0.000000 0.000000 0.000000 0.000000 -0.182484 0.000000
# 6 0.000000 0.000000 0.000000 0.000000 0.000000 0.022743
#
#
# Mechanical properties :
#
#
# Convention : Reuss Voigt Hill
#
# Bulk Modulus (GPa) = 30.38319 73.45243 51.91781
# Shear Modulus (GPa) = -18.63654 24.57616 2.96981
#
# Velocity S-wave (km/s) = -3.05313 3.50606 1.21878
# Velocity P-wave (km/s) = 1.66380 7.28898 5.28666
#
# Compressibility (1/GPa) = 0.03291293
#
# Stress axis : x y z
#
# Youngs Moduli (GPa) = 98.87424 98.87424 36.08729
#
# Poissons Ratio (x) = 0.67486 0.01240
# Poissons Ratio (y) = 0.67486 0.01240
# Poissons Ratio (z) = 0.03398 0.03398
#
# Static dielectric constant tensor:
#      x y z
#    x 1.707130 0.000000 0.000000 
#    y 0.000000 1.707130 0.000000 
#    z 0.000000 0.000000 1.789260 
# 
# From -- ./inp_files/1617.got.cif
#   From: 2010.05.17/outbox.cif.g08.bks.cpg/sg123_1_cif.got.tgz:1617.got - 2010.05.20 11:43:04.
