data_PCOD9562688
_publ_section_title
;
Structure prediction by ZEFSAII (Michael W. Deem and Ramdas Pophale) SiO2 
 PCOD9562688
Probable space group: P 4/M C C
;
_chemical_formula_sum "Si O2"
_cell_formula_units_Z 112
_cell_length_a 14.601187
_cell_length_b 14.601187
_cell_length_c 25.366052
_cell_angle_alpha 90.000000
_cell_angle_beta 90.000000
_cell_angle_gamma 90.000000
_cell_volume 5407.906878
_symmetry_space_group_name_H-M "P 4/M C C"
_symmetry_group_IT_number 124
_symmetry_cell_setting 'tetragonal'
loop_
_space_group_symop_operation_xyz
x,y,z
-y,x,z
-x,-y,z
y,-x,z
x,-y,1/2-z
-x,y,1/2-z
y,x,1/2-z
-y,-x,1/2-z
-x,-y,-z
y,-x,-z
x,y,-z
-y,x,-z
-x,y,1/2+z
x,-y,1/2+z
-y,-x,1/2+z
y,x,1/2+z
loop_
_atom_site_type_symbol
_atom_site_label
_atom_site_fract_x
_atom_site_fract_y
_atom_site_fract_z
Si Si1 0.808162 0.288956 0.057945
Si Si2 0.078168 0.361931 0.293129
Si Si3 0.991860 0.601526 0.595260
Si Si4 0.106200 0.095029 0.923763
Si Si5 0.321110 0.813027 0.133870
Si Si6 0.259835 0.593135 0.732996
Si Si7 0.864252 0.846250 0.691195
O O1 0.903839 0.342618 0.071363
O O2 0.840261 0.184070 0.056550
O O3 0.726498 0.270991 0.100733
O O4 0.776119 0.319293 0.000000
O O5 0.042597 0.410249 0.345008
O O6 0.169287 0.403048 0.268882
O O7 0.099540 0.257199 0.308728
O O8 0.000000 0.364281 0.250000
O O9 0.000000 0.500000 0.570776
O O10 0.094370 0.648530 0.601445
O O11 0.107297 0.094278 0.860051
O O12 0.007201 0.124797 0.941257
O O13 0.398792 0.771350 0.172005
O O14 0.243614 0.845651 0.176424
O O15 0.308748 0.500000 0.750000
O O16 0.321034 0.678967 0.750000
O O17 0.881910 0.881910 0.750000
#
# Coordination Sequence:
#
# PCOD9562688 Si02
#       7
#    16  16  16  16  16  16  16
#     4  11  24  42  64  84 115 166 219 269 331 386
#     4  12  21  34  59  92 126 168 207 251 314 403
#     4  12  24  39  62  95 130 163 209 274 332 392
#     4  10  22  35  50  77 114 155 207 260 304 364
#     4  11  21  40  59  87 124 164 211 266 324 393
#     4  12  23  39  60  90 130 171 218 268 330 412
#     4  11  19  32  54  77 118 162 204 250 299 379
#
# _framework density 20.710415999999999
#
# number of rings (size 3 to 8) (size 9 to 14) (size 15 to 20)
#    0.000    0.714    7.143    2.571    2.000    2.714 
#    0.000    1.429    0.000    0.000    0.000    0.000 
#    0.000    0.000    0.000    6.143    0.000    0.000 
#
# Total GULP energy -624661.390326 kJ/mol
# GULP energy per Si atom -5577.333842 kJ/mol
# Density = 2.066328 g / cm^3
# Si number density = 20.710416 Si / 1000 Ang^3
#
#
#
# Elastic Constant Matrix: (Units=GPa)
#
#
# Indices 1 2 3 4 5 6 
#
# 1 209.1581 -122.5857 16.1045 0.0000 0.0000 0.0000
# 2 -122.5857 209.1559 16.1046 0.0000 0.0000 0.0000
# 3 16.1045 16.1046 118.9662 0.0000 0.0000 0.0000
# 4 0.0000 0.0000 0.0000 75.0487 0.0000 0.0000
# 5 0.0000 0.0000 0.0000 0.0000 75.0496 0.0000
# 6 0.0000 0.0000 0.0000 0.0000 0.0000 20.0630
#
#
#
# Elastic Compliance Matrix: (Units=1/GPa)
#
#
# Indices 1 2 3 4 5 6 
#
# 1 0.007589 0.004575 -0.001647 0.000000 0.000000 0.000000
# 2 0.004575 0.007589 -0.001647 0.000000 0.000000 0.000000
# 3 -0.001647 -0.001647 0.008852 0.000000 0.000000 0.000000
# 4 0.000000 0.000000 0.000000 0.013325 0.000000 0.000000
# 5 0.000000 0.000000 0.000000 0.000000 0.013325 0.000000
# 6 0.000000 0.000000 0.000000 0.000000 0.000000 0.049843
#
#
# Mechanical properties :
#
#
# Convention : Reuss Voigt Hill
#
# Bulk Modulus (GPa) = 37.60434 39.61410 38.60922
# Shear Modulus (GPa) = 46.80629 75.87605 61.34117
#
# Velocity S-wave (km/s) = 4.75914 6.05939 5.44819
# Velocity P-wave (km/s) = 6.95671 8.25373 7.63282
#
# Compressibility (1/GPa) = 0.02659267
#
# Stress axis : x y z
#
# Youngs Moduli (GPa) = 131.76873 131.76733 112.97447
#
# Poissons Ratio (x) = -0.60280 0.18603
# Poissons Ratio (y) = -0.60280 0.18603
# Poissons Ratio (z) = 0.21697 0.21697
#
# Static dielectric constant tensor:
#      x y z
#    x 1.783830 0.000000 0.000000 
#    y 0.000000 1.783830 0.000000 
#    z 0.000000 0.000000 1.800370 
# 
# From -- ./inp_files/6627.got.cif
#   From: 2010.05.17/outbox.cif.g08.bks.cpg/sg124_4_cif.got.tgz:6627.got - 2010.05.20 11:49:17.
