data_PCOD9562710
_publ_section_title
;
Structure prediction by ZEFSAII (Michael W. Deem and Ramdas Pophale) SiO2 
 PCOD9562710
Probable space group: P 4/M C C
;
_chemical_formula_sum "Si O2"
_cell_formula_units_Z 112
_cell_length_a 14.932392
_cell_length_b 14.932392
_cell_length_c 26.546525
_cell_angle_alpha 90.000000
_cell_angle_beta 90.000000
_cell_angle_gamma 90.000000
_cell_volume 5919.246741
_symmetry_space_group_name_H-M "P 4/M C C"
_symmetry_group_IT_number 124
_symmetry_cell_setting 'tetragonal'
loop_
_space_group_symop_operation_xyz
x,y,z
-y,x,z
-x,-y,z
y,-x,z
x,-y,1/2-z
-x,y,1/2-z
y,x,1/2-z
-y,-x,1/2-z
-x,-y,-z
y,-x,-z
x,y,-z
-y,x,-z
-x,y,1/2+z
x,-y,1/2+z
-y,-x,1/2+z
y,x,1/2+z
loop_
_atom_site_type_symbol
_atom_site_label
_atom_site_fract_x
_atom_site_fract_y
_atom_site_fract_z
Si Si1 0.606937 0.098443 0.256806
Si Si2 0.725770 0.502722 0.557010
Si Si3 0.116443 0.095378 0.191995
Si Si4 0.348988 0.661114 0.886644
Si Si5 0.701792 0.146002 0.639912
Si Si6 0.576044 0.072833 0.440775
Si Si7 0.406424 0.720632 0.218875
O O1 0.500000 0.089788 0.250000
O O2 0.637250 0.132477 0.311459
O O3 0.628728 0.177041 0.217568
O O4 0.647733 0.000000 0.250000
O O5 0.699230 0.522258 0.500000
O O6 0.663201 0.560290 0.593966
O O7 0.715077 0.399429 0.570071
O O8 0.828614 0.531949 0.563345
O O9 0.128019 0.128019 0.250000
O O10 0.196686 0.131021 0.157787
O O11 0.012354 0.120481 0.184360
O O12 0.248335 0.693591 0.877300
O O13 0.405613 0.678256 0.836126
O O14 0.661132 0.080734 0.596635
O O15 0.599268 0.057795 0.500000
O O16 0.500000 0.000000 0.426374
O O17 0.500000 0.718655 0.250000
O O18 0.336236 0.663765 0.250000
#
# Coordination Sequence:
#
# PCOD9562710 Si02
#       7
#    16  16  16  16  16  16  16
#     4  10  24  38  55  85 123 161 197 251 304 364
#     4  10  22  41  63  87 116 155 202 255 307 360
#     4   9  21  40  58  84 125 166 205 249 300 364
#     4  11  23  38  60  86 117 156 202 254 301 357
#     4  11  23  37  62  91 117 161 211 251 305 374
#     4   9  21  40  62  90 126 158 197 256 323 377
#     4  11  22  38  56  80 124 159 202 247 300 367
#
# _framework density 18.921326000000001
#
# number of rings (size 3 to 8) (size 9 to 14) (size 15 to 20)
#    0.000    1.857    1.429    1.714   12.000    2.143 
#    0.000    2.143    0.000    0.857    0.000    1.000 
#    0.000    0.000    0.000    0.000    0.000    0.000 
#
# Total GULP energy -624312.352590 kJ/mol
# GULP energy per Si atom -5574.217434 kJ/mol
# Density = 1.887826 g / cm^3
# Si number density = 18.921326 Si / 1000 Ang^3
#
#
#
# Elastic Constant Matrix: (Units=GPa)
#
#
# Indices 1 2 3 4 5 6 
#
# 1 83.9615 45.1991 50.1240 0.0000 0.0000 0.0000
# 2 45.1991 83.9609 50.1242 0.0000 0.0000 0.0000
# 3 50.1240 50.1242 90.4200 0.0000 0.0000 0.0000
# 4 0.0000 0.0000 0.0000 22.3251 0.0000 0.0000
# 5 0.0000 0.0000 0.0000 0.0000 22.3252 0.0000
# 6 0.0000 0.0000 0.0000 0.0000 0.0000 14.1789
#
#
#
# Elastic Compliance Matrix: (Units=1/GPa)
#
#
# Indices 1 2 3 4 5 6 
#
# 1 0.019694 -0.006105 -0.007533 0.000000 0.000000 0.000000
# 2 -0.006105 0.019694 -0.007533 0.000000 0.000000 0.000000
# 3 -0.007533 -0.007533 0.019411 0.000000 0.000000 0.000000
# 4 0.000000 0.000000 0.000000 0.044793 0.000000 0.000000
# 5 0.000000 0.000000 0.000000 0.000000 0.044793 0.000000
# 6 0.000000 0.000000 0.000000 0.000000 0.000000 0.070528
#
#
# Mechanical properties :
#
#
# Convention : Reuss Voigt Hill
#
# Bulk Modulus (GPa) = 60.76338 61.02637 60.89487
# Shear Modulus (GPa) = 18.74490 19.29216 19.01853
#
# Velocity S-wave (km/s) = 3.15091 3.19658 3.17383
# Velocity P-wave (km/s) = 6.73952 6.77841 6.75899
#
# Compressibility (1/GPa) = 0.01645728
#
# Stress axis : x y z
#
# Youngs Moduli (GPa) = 50.77781 50.77706 51.51597
#
# Poissons Ratio (x) = 0.30997 0.38807
# Poissons Ratio (y) = 0.30998 0.38808
# Poissons Ratio (z) = 0.38251 0.38252
#
# Static dielectric constant tensor:
#      x y z
#    x 1.701030 0.000000 0.000000 
#    y 0.000000 1.700970 0.000000 
#    z 0.000000 0.000000 1.714010 
# 
# From -- ./inp_files/6104.got.cif
#   From: 2010.05.17/outbox.cif.g08.bks.cpg/sg124_4_cif.got.tgz:6104.got - 2010.05.20 11:49:17.
