data_PCOD9562320
_publ_section_title
;
Structure prediction by ZEFSAII (Michael W. Deem and Ramdas Pophale) SiO2 
 PCOD9562320
Probable space group: P 4/M C C
;
_chemical_formula_sum "Si O2"
_cell_formula_units_Z 96
_cell_length_a 25.836546
_cell_length_b 25.836546
_cell_length_c 8.607468
_cell_angle_alpha 90.000000
_cell_angle_beta 90.000000
_cell_angle_gamma 90.000000
_cell_volume 5745.718232
_symmetry_space_group_name_H-M "P 4/M C C"
_symmetry_group_IT_number 124
_symmetry_cell_setting 'tetragonal'
loop_
_space_group_symop_operation_xyz
x,y,z
-y,x,z
-x,-y,z
y,-x,z
x,-y,1/2-z
-x,y,1/2-z
y,x,1/2-z
-y,-x,1/2-z
-x,-y,-z
y,-x,-z
x,y,-z
-y,x,-z
-x,y,1/2+z
x,-y,1/2+z
-y,-x,1/2+z
y,x,1/2+z
loop_
_atom_site_type_symbol
_atom_site_label
_atom_site_fract_x
_atom_site_fract_y
_atom_site_fract_z
Si Si1 0.757759 0.443236 0.186742
Si Si2 0.838724 0.361770 0.314483
Si Si3 0.053665 0.755638 0.314050
Si Si4 0.443824 0.637233 0.314660
Si Si5 0.244739 0.163190 0.813813
Si Si6 0.362287 0.946982 0.314167
O O1 0.772396 0.500000 0.250000
O O2 0.792885 0.399084 0.261280
O O3 0.697362 0.435000 0.228393
O O4 0.762618 0.442232 0.000000
O O5 0.842172 0.358291 0.500000
O O6 0.831272 0.303787 0.246936
O O7 0.892780 0.384094 0.246877
O O8 0.053558 0.756048 0.500000
O O9 0.107921 0.776488 0.248840
O O10 0.053554 0.696268 0.253271
O O11 0.000000 0.779170 0.250000
O O12 0.500000 0.621913 0.250000
O O13 0.399548 0.600453 0.250000
O O14 0.444896 0.634008 0.500000
O O15 0.209126 0.209126 0.750000
O O16 0.162692 0.245285 0.500000
O O17 0.360488 0.947954 0.500000
O O18 0.386790 0.000000 0.250000
#
# Coordination Sequence:
#
# PCOD9562320 Si02
#       6
#    16  16  16  16  16  16
#     4  10  21  38  57  78 102 133 170 211 250 294
#     4  11  21  34  52  75 101 134 171 208 251 303
#     4  10  17  28  45  67  94 129 169 208 249 298
#     4  10  21  37  58  81 107 133 164 201 245 293
#     4  11  21  34  49  71 103 137 170 210 256 305
#     4  10  17  28  46  70  98 128 164 208 252 298
#
# _framework density 16.708093999999999
#
# number of rings (size 3 to 8) (size 9 to 14) (size 15 to 20)
#    0.000    1.667    0.000   10.000    0.000    2.833 
#    0.000    2.500    0.000    0.500    0.000    3.500 
#    0.000    0.333    0.000    3.333    0.000    2.000 
#
# Total GULP energy -535703.969255 kJ/mol
# GULP energy per Si atom -5580.249680 kJ/mol
# Density = 1.667007 g / cm^3
# Si number density = 16.708094 Si / 1000 Ang^3
#
#
#
# Elastic Constant Matrix: (Units=GPa)
#
#
# Indices 1 2 3 4 5 6 
#
# 1 94.9283 69.8552 52.0335 0.0000 0.0000 0.0000
# 2 69.8552 94.9194 52.0324 0.0000 0.0000 0.0000
# 3 52.0335 52.0324 158.1235 0.0000 0.0000 0.0000
# 4 0.0000 0.0000 0.0000 30.0996 0.0000 0.0000
# 5 0.0000 0.0000 0.0000 0.0000 30.0997 0.0000
# 6 0.0000 0.0000 0.0000 0.0000 0.0000 -5.7963
#
#
#
# Elastic Compliance Matrix: (Units=1/GPa)
#
#
# Indices 1 2 3 4 5 6 
#
# 1 0.023774 -0.016115 -0.002521 0.000000 0.000000 0.000000
# 2 -0.016115 0.023777 -0.002521 0.000000 0.000000 0.000000
# 3 -0.002521 -0.002521 0.007983 0.000000 0.000000 0.000000
# 4 0.000000 0.000000 0.000000 0.033223 0.000000 0.000000
# 5 0.000000 0.000000 0.000000 0.000000 0.033223 0.000000
# 6 0.000000 0.000000 0.000000 0.000000 0.000000 -0.172524
#
#
# Mechanical properties :
#
#
# Convention : Reuss Voigt Hill
#
# Bulk Modulus (GPa) = 75.63584 77.31261 76.47422
# Shear Modulus (GPa) = -1307.78403 22.48394 -642.65004
#
# Velocity S-wave (km/s) = -28.00757 3.67235 -19.63336
# Velocity P-wave (km/s) = 31.63118 8.02213 21.63535
#
# Compressibility (1/GPa) = 0.01322124
#
# Stress axis : x y z
#
# Youngs Moduli (GPa) = 42.06213 42.05769 125.26219
#
# Poissons Ratio (x) = 0.67775 0.31574
# Poissons Ratio (y) = 0.67782 0.31581
# Poissons Ratio (z) = 0.10602 0.10604
#
# Static dielectric constant tensor:
#      x y z
#    x 1.577630 0.000000 0.000000 
#    y 0.000000 1.577630 0.000000 
#    z 0.000000 0.000000 1.554540 
# 
# From -- ./inp_files/1372.got.cif
#   From: 2010.05.17/outbox.cif.g08.bks.cpg/sg124_1_cif.got.tgz:1372.got - 2010.05.20 11:49:17.
