data_PCOD9562196
_publ_section_title
;
Structure prediction by ZEFSAII (Michael W. Deem and Ramdas Pophale) SiO2 
 PCOD9562196
Probable space group: P 4/M M M
;
_chemical_formula_sum "Si O2"
_cell_formula_units_Z 44
_cell_length_a 17.565199
_cell_length_b 17.565199
_cell_length_c 7.599643
_cell_angle_alpha 90.000000
_cell_angle_beta 90.000000
_cell_angle_gamma 90.000000
_cell_volume 2344.765093
_symmetry_space_group_name_H-M "P 4/M M M"
_symmetry_group_IT_number 123
_symmetry_cell_setting 'tetragonal'
loop_
_space_group_symop_operation_xyz
x,y,z
-y,x,z
-x,-y,z
y,-x,z
x,-y,-z
-x,y,-z
y,x,-z
-y,-x,-z
-x,-y,-z
y,-x,-z
x,y,-z
-y,x,-z
-x,y,z
x,-y,z
-y,-x,z
y,x,z
loop_
_atom_site_type_symbol
_atom_site_label
_atom_site_fract_x
_atom_site_fract_y
_atom_site_fract_z
Si Si1 0.246977 0.500000 0.287084
Si Si2 0.914080 0.792622 0.210690
Si Si3 0.500000 0.373909 0.000000
Si Si4 0.668524 0.790983 0.710764
O O1 0.257638 0.500000 0.500000
O O2 0.207888 0.419782 0.235773
O O3 0.324034 0.500000 0.176134
O O4 0.862270 0.862270 0.279681
O O5 0.866014 0.716177 0.243278
O O6 0.000000 0.790783 0.279896
O O7 0.918514 0.801592 0.000000
O O8 0.573452 0.426549 0.000000
O O9 0.668267 0.784895 0.500000
O O10 0.718298 0.718298 0.777982
#
# Coordination Sequence:
#
# PCOD9562196 Si02
#       4
#     8  16   4  16
#     4  10  21  37  56  79 109 145 185 228 271 321
#     4   9  18  32  51  76 105 137 173 216 267 322
#     4  11  24  36  52  82 111 142 184 228 279 330
#     4   9  18  33  53  75 100 136 179 220 266 317
#
# _framework density 18.765207
#
# number of rings (size 3 to 8) (size 9 to 14) (size 15 to 20)
#    0.000    2.636    0.000    1.091    2.545    3.273 
#    0.000    3.636    0.000    5.455    0.000    5.091 
#    0.000    0.000    0.000    0.000    0.000    0.000 
#
# Total GULP energy -245225.125212 kJ/mol
# GULP energy per Si atom -5573.298300 kJ/mol
# Density = 1.872250 g / cm^3
# Si number density = 18.765207 Si / 1000 Ang^3
#
#
#
# Elastic Constant Matrix: (Units=GPa)
#
#
# Indices 1 2 3 4 5 6 
#
# 1 184.4256 109.7663 16.0760 0.0000 0.0000 0.0000
# 2 109.7663 184.4263 16.0760 0.0000 0.0000 0.0000
# 3 16.0760 16.0760 39.8632 0.0000 0.0000 0.0000
# 4 0.0000 0.0000 0.0000 13.3453 0.0000 0.0000
# 5 0.0000 0.0000 0.0000 0.0000 13.3483 0.0000
# 6 0.0000 0.0000 0.0000 0.0000 0.0000 12.7770
#
#
#
# Elastic Compliance Matrix: (Units=1/GPa)
#
#
# Indices 1 2 3 4 5 6 
#
# 1 0.008475 -0.004919 -0.001434 0.000000 0.000000 0.000000
# 2 -0.004919 0.008475 -0.001434 0.000000 0.000000 0.000000
# 3 -0.001434 -0.001434 0.026242 0.000000 0.000000 0.000000
# 4 0.000000 0.000000 0.000000 0.074933 0.000000 0.000000
# 5 0.000000 0.000000 0.000000 0.000000 0.074916 0.000000
# 6 0.000000 0.000000 0.000000 0.000000 0.000000 0.078265
#
#
# Mechanical properties :
#
#
# Convention : Reuss Voigt Hill
#
# Bulk Modulus (GPa) = 36.20816 76.95020 56.57918
# Shear Modulus (GPa) = 16.88693 25.68057 21.28375
#
# Velocity S-wave (km/s) = 3.00310 3.70337 3.37146
# Velocity P-wave (km/s) = 5.60018 7.70600 6.73589
#
# Compressibility (1/GPa) = 0.02761809
#
# Stress axis : x y z
#
# Youngs Moduli (GPa) = 117.99408 117.99456 38.10628
#
# Poissons Ratio (x) = 0.58043 0.05465
# Poissons Ratio (y) = 0.58043 0.05464
# Poissons Ratio (z) = 0.16921 0.16920
#
# Static dielectric constant tensor:
#      x y z
#    x 1.648650 0.000000 0.000000 
#    y 0.000000 1.648650 0.000000 
#    z 0.000000 0.000000 1.704870 
# 
# From -- ./inp_files/475.got.cif
#   From: 2010.05.17/outbox.cif.g08.bks.cpg/sg123_1_cif.got.tgz:475.got - 2010.05.20 11:43:04.
