data_PCOD9562627
_publ_section_title
;
Structure prediction by ZEFSAII (Michael W. Deem and Ramdas Pophale) SiO2 
 PCOD9562627
Probable space group: P 4/M C C
;
_chemical_formula_sum "Si O2"
_cell_formula_units_Z 64
_cell_length_a 13.531562
_cell_length_b 13.531562
_cell_length_c 17.382625
_cell_angle_alpha 90.000000
_cell_angle_beta 90.000000
_cell_angle_gamma 90.000000
_cell_volume 3182.813743
_symmetry_space_group_name_H-M "P 4/M C C"
_symmetry_group_IT_number 124
_symmetry_cell_setting 'tetragonal'
loop_
_space_group_symop_operation_xyz
x,y,z
-y,x,z
-x,-y,z
y,-x,z
x,-y,1/2-z
-x,y,1/2-z
y,x,1/2-z
-y,-x,1/2-z
-x,-y,-z
y,-x,-z
x,y,-z
-y,x,-z
-x,y,1/2+z
x,-y,1/2+z
-y,-x,1/2+z
y,x,1/2+z
loop_
_atom_site_type_symbol
_atom_site_label
_atom_site_fract_x
_atom_site_fract_y
_atom_site_fract_z
Si Si1 0.570127 0.230564 0.684186
Si Si2 0.381803 0.383195 0.083760
Si Si3 0.572257 0.905390 0.408867
Si Si4 0.725847 0.109713 0.773570
O O1 0.500000 0.276014 0.750000
O O2 0.648254 0.309553 0.650642
O O3 0.498465 0.182482 0.620740
O O4 0.631829 0.143092 0.722499
O O5 0.500576 0.370530 0.088713
O O6 0.346177 0.350260 0.000000
O O7 0.592473 0.898734 0.500000
O O8 0.673172 0.899127 0.358351
O O9 0.500000 0.000000 0.396283
O O10 0.812127 0.187874 0.750000
O O11 0.758495 0.000000 0.750000
#
# Coordination Sequence:
#
# PCOD9562627 Si02
#       4
#    16  16  16  16
#     4  10  21  33  57  83 118 153 203 260 313 380
#     4   9  19  34  49  75 120 164 199 241 302 380
#     4  10  20  39  66  95 125 160 207 269 337 399
#     4  11  24  43  64  93 128 170 221 278 338 403
#
# _framework density 20.107993
#
# number of rings (size 3 to 8) (size 9 to 14) (size 15 to 20)
#    0.000    2.000    2.500    1.500    7.000    0.250 
#    0.000    3.750    0.000    0.000    0.000    1.750 
#    0.000    0.000    0.000    0.000    0.000    0.000 
#
# Total GULP energy -356576.373800 kJ/mol
# GULP energy per Si atom -5571.505841 kJ/mol
# Density = 2.006223 g / cm^3
# Si number density = 20.107993 Si / 1000 Ang^3
#
#
#
# Elastic Constant Matrix: (Units=GPa)
#
#
# Indices 1 2 3 4 5 6 
#
# 1 99.2356 17.4520 38.9261 0.0000 0.0000 0.0000
# 2 17.4520 99.2354 38.9262 0.0000 0.0000 0.0000
# 3 38.9261 38.9262 98.2702 0.0000 0.0000 0.0000
# 4 0.0000 0.0000 0.0000 16.4399 0.0000 0.0000
# 5 0.0000 0.0000 0.0000 0.0000 16.4397 0.0000
# 6 0.0000 0.0000 0.0000 0.0000 0.0000 35.7012
#
#
#
# Elastic Compliance Matrix: (Units=1/GPa)
#
#
# Indices 1 2 3 4 5 6 
#
# 1 0.011938 -0.000290 -0.004614 0.000000 0.000000 0.000000
# 2 -0.000290 0.011938 -0.004614 0.000000 0.000000 0.000000
# 3 -0.004614 -0.004614 0.013831 0.000000 0.000000 0.000000
# 4 0.000000 0.000000 0.000000 0.060827 0.000000 0.000000
# 5 0.000000 0.000000 0.000000 0.000000 0.060829 0.000000
# 6 0.000000 0.000000 0.000000 0.000000 0.000000 0.028010
#
#
# Mechanical properties :
#
#
# Convention : Reuss Voigt Hill
#
# Bulk Modulus (GPa) = 53.55659 54.14995 53.85327
# Shear Modulus (GPa) = 23.51473 27.14530 25.33002
#
# Velocity S-wave (km/s) = 3.42339 3.67819 3.55307
# Velocity P-wave (km/s) = 6.50526 6.71020 6.60853
#
# Compressibility (1/GPa) = 0.01867184
#
# Stress axis : x y z
#
# Youngs Moduli (GPa) = 83.76722 83.76691 72.29928
#
# Poissons Ratio (x) = 0.02425 0.33359
# Poissons Ratio (y) = 0.02425 0.33359
# Poissons Ratio (z) = 0.38651 0.38651
#
# Static dielectric constant tensor:
#      x y z
#    x 1.767720 0.000000 0.000000 
#    y 0.000000 1.767720 0.000000 
#    z 0.000000 0.000000 1.835990 
# 
# From -- ./inp_files/2973.got.cif
#   From: 2010.05.17/outbox.cif.g08.bks.cpg/sg124_2_cif.got.tgz:2973.got - 2010.05.20 11:49:17.
