data_PCOD9562214
_publ_section_title
;
Structure prediction by ZEFSAII (Michael W. Deem and Ramdas Pophale) SiO2 
 PCOD9562214
Probable space group: P 4/M M M
;
_chemical_formula_sum "Si O2"
_cell_formula_units_Z 120
_cell_length_a 22.686534
_cell_length_b 22.686534
_cell_length_c 13.487828
_cell_angle_alpha 90.000000
_cell_angle_beta 90.000000
_cell_angle_gamma 90.000000
_cell_volume 6941.899466
_symmetry_space_group_name_H-M "P 4/M M M"
_symmetry_group_IT_number 123
_symmetry_cell_setting 'tetragonal'
loop_
_space_group_symop_operation_xyz
x,y,z
-y,x,z
-x,-y,z
y,-x,z
x,-y,-z
-x,y,-z
y,x,-z
-y,-x,-z
-x,-y,-z
y,-x,-z
x,y,-z
-y,x,-z
-x,y,z
x,-y,z
-y,-x,z
y,x,z
loop_
_atom_site_type_symbol
_atom_site_label
_atom_site_fract_x
_atom_site_fract_y
_atom_site_fract_z
Si Si1 0.930294 0.752593 0.805837
Si Si2 0.241171 0.569786 0.113754
Si Si3 0.430418 0.332069 0.285967
Si Si4 0.346392 0.753136 0.390298
Si Si5 0.429449 0.069384 0.612899
Si Si6 0.069326 0.832539 0.000000
Si Si7 0.148114 0.357440 0.234518
Si Si8 0.069320 0.831952 0.613130
O O1 0.919366 0.794373 0.900597
O O2 0.890401 0.694762 0.810535
O O3 0.918080 0.786375 0.701862
O O4 0.000000 0.737591 0.806277
O O5 0.228631 0.500000 0.121827
O O6 0.298645 0.580573 0.181526
O O7 0.185451 0.605305 0.155453
O O8 0.252539 0.584666 0.000000
O O9 0.500000 0.342876 0.297904
O O10 0.390461 0.390461 0.293479
O O11 0.405295 0.283616 0.363078
O O12 0.351307 0.778320 0.500000
O O13 0.294610 0.705391 0.387982
O O14 0.333614 0.802459 0.309937
O O15 0.411904 0.085728 0.500000
O O16 0.500000 0.076579 0.619388
O O17 0.398214 0.106890 0.697079
O O18 0.416172 0.000000 0.625267
O O19 0.110884 0.889117 0.000000
O O20 0.000000 0.848210 0.000000
O O21 0.078155 0.808624 0.500000
O O22 0.111732 0.888269 0.624119
O O23 0.000000 0.847953 0.621553
#
# Coordination Sequence:
#
# PCOD9562214 Si02
#       8
#    16  16  16  16  16   8  16  16
#     4  10  22  37  53  77 110 144 174 215 270 328
#     4   9  19  35  54  75 100 130 169 219 266 305
#     4   9  18  33  53  77 105 137 171 212 264 317
#     4   9  19  34  49  71 104 137 172 216 256 292
#     4   9  18  32  50  76 109 139 171 216 262 302
#     4  10  22  41  62  82 107 139 179 229 280 330
#     4  11  20  32  55  76 101 134 180 212 254 315
#     4   9  18  33  53  77 105 136 171 213 262 316
#
# _framework density 17.286334
#
# number of rings (size 3 to 8) (size 9 to 14) (size 15 to 20)
#    0.000    2.533    0.000    2.000    0.933    3.533 
#    0.000    3.333    0.000    2.400    0.000    6.533 
#    0.000    0.000    0.000    0.000    0.000    0.000 
#
# Total GULP energy -669065.057298 kJ/mol
# GULP energy per Si atom -5575.542144 kJ/mol
# Density = 1.724699 g / cm^3
# Si number density = 17.286334 Si / 1000 Ang^3
#
#
#
# Elastic Constant Matrix: (Units=GPa)
#
#
# Indices 1 2 3 4 5 6 
#
# 1 47.7871 28.7834 3.5572 0.0000 0.0000 0.0000
# 2 28.7834 47.7854 3.5572 0.0000 0.0000 0.0000
# 3 3.5572 3.5572 54.2650 0.0000 0.0000 0.0000
# 4 0.0000 0.0000 0.0000 17.8388 0.0000 0.0000
# 5 0.0000 0.0000 0.0000 0.0000 17.8390 0.0000
# 6 0.0000 0.0000 0.0000 0.0000 0.0000 11.0279
#
#
#
# Elastic Compliance Matrix: (Units=1/GPa)
#
#
# Indices 1 2 3 4 5 6 
#
# 1 0.032881 -0.019742 -0.000861 0.000000 0.000000 0.000000
# 2 -0.019742 0.032883 -0.000861 0.000000 0.000000 0.000000
# 3 -0.000861 -0.000861 0.018541 0.000000 0.000000 0.000000
# 4 0.000000 0.000000 0.000000 0.056058 0.000000 0.000000
# 5 0.000000 0.000000 0.000000 0.000000 0.056057 0.000000
# 6 0.000000 0.000000 0.000000 0.000000 0.000000 0.090679
#
#
# Mechanical properties :
#
#
# Convention : Reuss Voigt Hill
#
# Bulk Modulus (GPa) = 24.16880 24.62589 24.39735
# Shear Modulus (GPa) = 14.54252 16.93713 15.73982
#
# Velocity S-wave (km/s) = 2.90362 3.13357 3.02078
# Velocity P-wave (km/s) = 5.02525 5.23155 5.12944
#
# Compressibility (1/GPa) = 0.04137566
#
# Stress axis : x y z
#
# Youngs Moduli (GPa) = 30.41242 30.41130 53.93451
#
# Poissons Ratio (x) = 0.60038 0.04645
# Poissons Ratio (y) = 0.60040 0.04646
# Poissons Ratio (z) = 0.02619 0.02620
#
# Static dielectric constant tensor:
#      x y z
#    x 1.568510 0.000000 0.000000 
#    y 0.000000 1.568510 0.000000 
#    z 0.000000 0.000000 1.591560 
# 
# From -- ./inp_files/4593.got.cif
#   From: 2010.05.17/outbox.cif.g08.bks.cpg/sg123_3_cif.got.tgz:4593.got - 2010.05.20 11:43:04.
