data_PCOD9562094
_publ_section_title
;
Structure prediction by ZEFSAII (Michael W. Deem and Ramdas Pophale) SiO2 
 PCOD9562094
Probable space group: P 4/M M M
;
_chemical_formula_sum "Si O2"
_cell_formula_units_Z 72
_cell_length_a 18.559519
_cell_length_b 18.559519
_cell_length_c 11.195822
_cell_angle_alpha 90.000000
_cell_angle_beta 90.000000
_cell_angle_gamma 90.000000
_cell_volume 3856.465214
_symmetry_space_group_name_H-M "P 4/M M M"
_symmetry_group_IT_number 123
_symmetry_cell_setting 'tetragonal'
loop_
_space_group_symop_operation_xyz
x,y,z
-y,x,z
-x,-y,z
y,-x,z
x,-y,-z
-x,y,-z
y,x,-z
-y,-x,-z
-x,-y,-z
y,-x,-z
x,y,-z
-y,x,-z
-x,y,z
x,-y,z
-y,-x,z
y,x,z
loop_
_atom_site_type_symbol
_atom_site_label
_atom_site_fract_x
_atom_site_fract_y
_atom_site_fract_z
Si Si1 0.296815 0.585523 0.132556
Si Si2 0.081364 0.198183 0.856394
Si Si3 0.916365 0.351342 0.732056
Si Si4 0.652308 0.769506 0.370922
Si Si5 0.913748 0.500000 0.132165
O O1 0.303955 0.500000 0.136952
O O2 0.372939 0.627062 0.137465
O O3 0.255197 0.611655 0.250721
O O4 0.265390 0.604664 0.000000
O O5 0.143165 0.143165 0.813378
O O6 0.091173 0.280396 0.814244
O O7 0.000000 0.175757 0.819794
O O8 0.083467 0.197642 0.000000
O O9 0.855238 0.342246 0.633937
O O10 0.898254 0.425904 0.800065
O O11 0.000000 0.355468 0.693136
O O12 0.619466 0.748133 0.500000
O O13 0.729105 0.729105 0.364680
O O14 0.000000 0.500000 0.120477
O O15 0.880939 0.500000 0.000000
#
# Coordination Sequence:
#
# PCOD9562094 Si02
#       5
#    16  16  16  16   8
#     4   9  19  36  58  85 113 142 179 221 268 323
#     4   9  17  29  47  73 105 140 178 221 271 329
#     4  10  20  34  52  75 102 137 182 230 276 323
#     4  10  22  39  57  79 110 147 184 224 273 328
#     4   9  18  32  49  73 107 143 178 221 274 327
#
# _framework density 18.669947000000001
#
# number of rings (size 3 to 8) (size 9 to 14) (size 15 to 20)
#    0.000    2.556    0.000    1.333    1.556    5.778 
#    0.000    4.444    0.000    2.000    0.000    3.111 
#    0.000    0.000    0.000   20.667    0.000    0.222 
#
# Total GULP energy -400889.899231 kJ/mol
# GULP energy per Si atom -5567.915267 kJ/mol
# Density = 1.862745 g / cm^3
# Si number density = 18.669947 Si / 1000 Ang^3
#
#
#
# Elastic Constant Matrix: (Units=GPa)
#
#
# Indices 1 2 3 4 5 6 
#
# 1 105.8454 61.5553 51.6579 0.0000 0.0000 0.0000
# 2 61.5553 105.8454 51.6579 0.0000 0.0000 0.0000
# 3 51.6579 51.6579 120.1186 0.0000 0.0000 0.0000
# 4 0.0000 0.0000 0.0000 6.8128 0.0000 0.0000
# 5 0.0000 0.0000 0.0000 0.0000 6.8128 0.0000
# 6 0.0000 0.0000 0.0000 0.0000 0.0000 7.4122
#
#
#
# Elastic Compliance Matrix: (Units=1/GPa)
#
#
# Indices 1 2 3 4 5 6 
#
# 1 0.015355 -0.007223 -0.003497 0.000000 0.000000 0.000000
# 2 -0.007223 0.015355 -0.003497 0.000000 0.000000 0.000000
# 3 -0.003497 -0.003497 0.011333 0.000000 0.000000 0.000000
# 4 0.000000 0.000000 0.000000 0.146784 0.000000 0.000000
# 5 0.000000 0.000000 0.000000 0.000000 0.146784 0.000000
# 6 0.000000 0.000000 0.000000 0.000000 0.000000 0.134912
#
#
# Mechanical properties :
#
#
# Convention : Reuss Voigt Hill
#
# Bulk Modulus (GPa) = 73.48457 73.50574 73.49515
# Shear Modulus (GPa) = 9.93059 15.33677 12.63368
#
# Velocity S-wave (km/s) = 2.30880 2.86924 2.60414
# Velocity P-wave (km/s) = 6.82295 7.10164 6.96369
#
# Compressibility (1/GPa) = 0.01360830
#
# Stress axis : x y z
#
# Youngs Moduli (GPa) = 65.12425 65.12425 88.23655
#
# Poissons Ratio (x) = 0.47040 0.30859
# Poissons Ratio (y) = 0.47040 0.30859
# Poissons Ratio (z) = 0.22776 0.22776
#
# Static dielectric constant tensor:
#      x y z
#    x 1.656260 0.000000 0.000000 
#    y 0.000000 1.656260 0.000000 
#    z 0.000000 0.000000 1.671140 
# 
# From -- ./inp_files/2711.got.cif
#   From: 2010.05.17/outbox.cif.g08.bks.cpg/sg123_2_cif.got.tgz:2711.got - 2010.05.20 11:43:04.
