data_PCOD9562061
_publ_section_title
;
Structure prediction by ZEFSAII (Michael W. Deem and Ramdas Pophale) SiO2 
 PCOD9562061
Probable space group: P 4/M M M
;
_chemical_formula_sum "Si O2"
_cell_formula_units_Z 40
_cell_length_a 16.246803
_cell_length_b 16.246803
_cell_length_c 7.268483
_cell_angle_alpha 90.000000
_cell_angle_beta 90.000000
_cell_angle_gamma 90.000000
_cell_volume 1918.578653
_symmetry_space_group_name_H-M "P 4/M M M"
_symmetry_group_IT_number 123
_symmetry_cell_setting 'tetragonal'
loop_
_space_group_symop_operation_xyz
x,y,z
-y,x,z
-x,-y,z
y,-x,z
x,-y,-z
-x,y,-z
y,x,-z
-y,-x,-z
-x,-y,-z
y,-x,-z
x,y,-z
-y,x,-z
-x,y,z
x,-y,z
-y,-x,z
y,x,z
loop_
_atom_site_type_symbol
_atom_site_label
_atom_site_fract_x
_atom_site_fract_y
_atom_site_fract_z
Si Si1 0.090864 0.367957 0.220679
Si Si2 0.276022 0.409713 0.776645
Si Si3 0.087675 0.222216 0.500000
O O1 0.179259 0.405270 0.276163
O O2 0.090933 0.280925 0.322753
O O3 0.000000 0.405148 0.267699
O O4 0.092481 0.362161 0.000000
O O5 0.308032 0.500000 0.721749
O O6 0.333903 0.333903 0.714549
O O7 0.276843 0.406861 0.000000
O O8 0.162232 0.162232 0.500000
O O9 0.000000 0.178094 0.500000
#
# Coordination Sequence:
#
# PCOD9562061 Si02
#       3
#    16  16   8
#     4   9  18  33  53  76 101 130 167 212 258 302
#     4   9  17  29  47  72 102 137 174 211 254 304
#     4  10  20  33  51  75 102 134 170 208 255 308
#
# _framework density 20.848766000000001
#
# number of rings (size 3 to 8) (size 9 to 14) (size 15 to 20)
#    0.000    2.800    0.000    1.200    0.000    3.800 
#    0.000    7.000    0.000    3.600    0.000    5.600 
#    0.000    4.800    0.000    0.400    0.000    0.000 
#
# Total GULP energy -222733.342724 kJ/mol
# GULP energy per Si atom -5568.333568 kJ/mol
# Density = 2.080131 g / cm^3
# Si number density = 20.848766 Si / 1000 Ang^3
#
#
#
# Elastic Constant Matrix: (Units=GPa)
#
#
# Indices 1 2 3 4 5 6 
#
# 1 145.2858 96.2380 10.3381 0.0000 0.0000 0.0000
# 2 96.2380 145.2858 10.3381 0.0000 0.0000 0.0000
# 3 10.3381 10.3381 65.4903 0.0000 0.0000 0.0000
# 4 0.0000 0.0000 0.0000 2.3509 0.0000 0.0000
# 5 0.0000 0.0000 0.0000 0.0000 2.3509 0.0000
# 6 0.0000 0.0000 0.0000 0.0000 0.0000 -24.5134
#
#
#
# Elastic Compliance Matrix: (Units=1/GPa)
#
#
# Indices 1 2 3 4 5 6 
#
# 1 0.012293 -0.008096 -0.000663 0.000000 0.000000 0.000000
# 2 -0.008096 0.012293 -0.000663 0.000000 0.000000 0.000000
# 3 -0.000663 -0.000663 0.015479 0.000000 0.000000 0.000000
# 4 0.000000 0.000000 0.000000 0.425370 0.000000 0.000000
# 5 0.000000 0.000000 0.000000 0.000000 0.425370 0.000000
# 6 0.000000 0.000000 0.000000 0.000000 0.000000 -0.040794
#
#
# Mechanical properties :
#
#
# Convention : Reuss Voigt Hill
#
# Bulk Modulus (GPa) = 47.11947 65.54336 56.33141
# Shear Modulus (GPa) = 5.70825 11.98086 8.84456
#
# Velocity S-wave (km/s) = 1.65647 2.39980 2.06191
# Velocity P-wave (km/s) = 5.12915 6.25975 5.72244
#
# Compressibility (1/GPa) = 0.02122265
#
# Stress axis : x y z
#
# Youngs Moduli (GPa) = 81.34920 81.34920 64.60526
#
# Poissons Ratio (x) = 0.65857 0.04280
# Poissons Ratio (y) = 0.65857 0.04280
# Poissons Ratio (z) = 0.05390 0.05390
#
# Static dielectric constant tensor:
#      x y z
#    x 1.748240 0.000000 0.000000 
#    y 0.000000 1.748240 0.000000 
#    z 0.000000 0.000000 1.741590 
# 
# From -- ./inp_files/279.got.cif
#   From: 2010.05.17/outbox.cif.g08.bks.cpg/sg123_1_cif.got.tgz:279.got - 2010.05.20 11:43:04.
