data_PCOD9562425
_publ_section_title
;
Structure prediction by ZEFSAII (Michael W. Deem and Ramdas Pophale) SiO2 
 PCOD9562425
Probable space group: P 4/M C C
;
_chemical_formula_sum "Si O2"
_cell_formula_units_Z 96
_cell_length_a 24.815698
_cell_length_b 24.815698
_cell_length_c 8.512295
_cell_angle_alpha 90.000000
_cell_angle_beta 90.000000
_cell_angle_gamma 90.000000
_cell_volume 5242.031864
_symmetry_space_group_name_H-M "P 4/M C C"
_symmetry_group_IT_number 124
_symmetry_cell_setting 'tetragonal'
loop_
_space_group_symop_operation_xyz
x,y,z
-y,x,z
-x,-y,z
y,-x,z
x,-y,1/2-z
-x,y,1/2-z
y,x,1/2-z
-y,-x,1/2-z
-x,-y,-z
y,-x,-z
x,y,-z
-y,x,-z
-x,y,1/2+z
x,-y,1/2+z
-y,-x,1/2+z
y,x,1/2+z
loop_
_atom_site_type_symbol
_atom_site_label
_atom_site_fract_x
_atom_site_fract_y
_atom_site_fract_z
Si Si1 0.641994 0.557703 0.687676
Si Si2 0.147430 0.355373 0.308674
Si Si3 0.853946 0.231058 0.810435
Si Si4 0.558173 0.234064 0.689603
Si Si5 0.939452 0.557717 0.688390
Si Si6 0.853792 0.939056 0.688055
O O1 0.622613 0.500000 0.750000
O O2 0.604945 0.604945 0.750000
O O3 0.641309 0.557218 0.500000
O O4 0.703977 0.564338 0.740680
O O5 0.147868 0.353914 0.500000
O O6 0.146708 0.293350 0.257291
O O7 0.198513 0.391203 0.257988
O O8 0.096342 0.391555 0.260826
O O9 0.802117 0.197884 0.750000
O O10 0.905761 0.198256 0.748276
O O11 0.854478 0.229278 0.000000
O O12 0.500000 0.214589 0.750000
O O13 0.556582 0.232280 0.500000
O O14 0.918583 0.500000 0.750000
O O15 0.939577 0.555501 0.500000
O O16 0.000000 0.563472 0.750000
O O17 0.905239 0.905239 0.750000
O O18 0.853919 0.000000 0.750000
O O19 0.854286 0.061318 0.000000
#
# Coordination Sequence:
#
# PCOD9562425 Si02
#       6
#    16  16  16  16  16  16
#     4  10  20  34  53  75 102 132 167 208 257 313
#     4   9  19  34  54  77 104 138 178 219 263 312
#     4  10  20  37  56  78 109 145 181 222 267 314
#     4   9  18  34  53  75 102 134 170 216 267 317
#     4  10  19  33  51  74 104 138 172 214 262 310
#     4  11  22  39  61  87 116 148 183 222 266 313
#
# _framework density 18.313509
#
# number of rings (size 3 to 8) (size 9 to 14) (size 15 to 20)
#    0.000    2.167    0.000    5.000    0.000    2.333 
#    0.000    9.167    0.000    0.000    0.000    0.000 
#    0.000    0.000    0.000    0.000    0.000    0.000 
#
# Total GULP energy -535820.217472 kJ/mol
# GULP energy per Si atom -5581.460599 kJ/mol
# Density = 1.827183 g / cm^3
# Si number density = 18.313509 Si / 1000 Ang^3
#
#
#
# Elastic Constant Matrix: (Units=GPa)
#
#
# Indices 1 2 3 4 5 6 
#
# 1 171.1311 100.5794 36.7490 0.0000 0.0000 0.0000
# 2 100.5794 171.1308 36.7495 0.0000 0.0000 0.0000
# 3 36.7490 36.7495 66.7541 0.0000 0.0000 0.0000
# 4 0.0000 0.0000 0.0000 25.5476 0.0000 0.0000
# 5 0.0000 0.0000 0.0000 0.0000 25.5477 0.0000
# 6 0.0000 0.0000 0.0000 0.0000 0.0000 6.0814
#
#
#
# Elastic Compliance Matrix: (Units=1/GPa)
#
#
# Indices 1 2 3 4 5 6 
#
# 1 0.009249 -0.004925 -0.002381 0.000000 0.000000 0.000000
# 2 -0.004925 0.009249 -0.002381 0.000000 0.000000 0.000000
# 3 -0.002381 -0.002381 0.017602 0.000000 0.000000 0.000000
# 4 0.000000 0.000000 0.000000 0.039143 0.000000 0.000000
# 5 0.000000 0.000000 0.000000 0.000000 0.039142 0.000000
# 6 0.000000 0.000000 0.000000 0.000000 0.000000 0.164437
#
#
# Mechanical properties :
#
#
# Convention : Reuss Voigt Hill
#
# Bulk Modulus (GPa) = 59.78109 84.13021 71.95565
# Shear Modulus (GPa) = 16.45981 27.09787 21.77884
#
# Velocity S-wave (km/s) = 3.00122 3.85082 3.45225
# Velocity P-wave (km/s) = 6.68758 8.11236 7.43418
#
# Compressibility (1/GPa) = 0.01672770
#
# Stress axis : x y z
#
# Youngs Moduli (GPa) = 108.11785 108.11720 56.81331
#
# Poissons Ratio (x) = 0.53246 0.13525
# Poissons Ratio (y) = 0.53246 0.13526
# Poissons Ratio (z) = 0.25738 0.25740
#
# Static dielectric constant tensor:
#      x y z
#    x 1.619430 0.000000 0.000000 
#    y 0.000000 1.619440 0.000000 
#    z 0.000000 0.000000 1.624850 
# 
# From -- ./inp_files/1324.got.cif
#   From: 2010.05.17/outbox.cif.g08.bks.cpg/sg124_1_cif.got.tgz:1324.got - 2010.05.20 11:49:17.
