data_PCOD9562936
_publ_section_title
;
Structure prediction by ZEFSAII (Michael W. Deem and Ramdas Pophale) SiO2 
 PCOD9562936
Probable space group: P 4/N B M
;
_chemical_formula_sum "Si O2"
_cell_formula_units_Z 128
_cell_length_a 23.594786
_cell_length_b 23.594786
_cell_length_c 12.808269
_cell_angle_alpha 90.000000
_cell_angle_beta 90.000000
_cell_angle_gamma 90.000000
_cell_volume 7130.541725
_symmetry_space_group_name_H-M "P 4/N B M"
_symmetry_group_IT_number 125
_space_group.IT_coordinate_system_code '2'
_symmetry_cell_setting 'tetragonal'
loop_
_space_group_symop_operation_xyz
x,y,z
1/2-y,x,z
1/2-x,1/2-y,z
y,1/2-x,z
x,1/2-y,-z
1/2-x,y,-z
y,x,-z
1/2-y,1/2-x,-z
-x,-y,-z
1/2+y,-x,-z
1/2+x,1/2+y,-z
-y,1/2+x,-z
-x,1/2+y,z
1/2+x,-y,z
-y,-x,z
1/2+y,1/2+x,z
loop_
_atom_site_type_symbol
_atom_site_label
_atom_site_fract_x
_atom_site_fract_y
_atom_site_fract_z
Si Si1 0.066593 0.026975 0.113283
Si Si2 0.555870 0.150502 0.029161
Si Si3 0.131710 0.961594 0.375161
Si Si4 0.114927 0.980136 0.608384
Si Si5 0.114515 0.705829 0.778443
Si Si6 0.098673 0.087088 0.312499
Si Si7 0.329036 0.575288 0.798685
Si Si8 0.815190 0.817233 0.625658
O O1 0.072142 0.076043 0.197974
O O2 0.127338 0.997816 0.092588
O O3 0.047511 0.047511 0.000000
O O4 0.019854 0.980147 0.148859
O O5 0.593777 0.093777 0.015461
O O6 0.591176 0.190071 0.106369
O O7 0.547095 0.174836 0.913631
O O8 0.072271 0.927730 0.359751
O O9 0.142788 0.962060 0.498965
O O10 0.176449 0.926981 0.306115
O O11 0.125815 0.026391 0.340654
O O12 0.058290 0.941711 0.619840
O O13 0.155470 0.967271 0.705993
O O14 0.099378 0.045976 0.611247
O O15 0.175219 0.675219 0.766609
O O16 0.109696 0.772643 0.770923
O O17 0.143513 0.137680 0.320727
O O18 0.380238 0.619763 0.803405
O O19 0.748781 0.827697 0.650621
O O20 0.822358 0.822358 0.500000
#
# Coordination Sequence:
#
# PCOD9562936 Si02
#       8
#    16  16  16  16  16  16  16  16
#     4  10  19  32  54  83 116 148 179 218 269 333
#     4   9  17  33  52  74 105 141 179 222 276 322
#     4  10  20  34  52  78 113 147 174 216 276 333
#     4  10  21  34  50  79 116 143 171 217 276 333
#     4  10  20  35  55  77 105 145 189 230 274 324
#     4  12  20  33  59  86 108 138 185 223 263 326
#     4  10  21  36  54  77 108 145 185 233 279 318
#     4   9  20  39  59  79 107 143 181 224 273 321
#
# _framework density 17.950949999999999
#
# number of rings (size 3 to 8) (size 9 to 14) (size 15 to 20)
#    0.000    2.000    1.250    3.750    0.000    4.750 
#    0.000    0.000    0.000    2.250    0.000    4.375 
#    0.000    0.000    0.000    0.000    0.000    0.000 
#
# Total GULP energy -713871.446415 kJ/mol
# GULP energy per Si atom -5577.120675 kJ/mol
# Density = 1.791009 g / cm^3
# Si number density = 17.950950 Si / 1000 Ang^3
#
#
#
# Elastic Constant Matrix: (Units=GPa)
#
#
# Indices 1 2 3 4 5 6 
#
# 1 21.2185 44.1096 26.7885 0.0000 0.0000 0.0000
# 2 44.1096 21.2185 26.7885 0.0000 0.0000 0.0000
# 3 26.7885 26.7885 109.4577 0.0000 0.0000 0.0000
# 4 0.0000 0.0000 0.0000 17.5589 0.0000 0.0000
# 5 0.0000 0.0000 0.0000 0.0000 17.5589 0.0000
# 6 0.0000 0.0000 0.0000 0.0000 0.0000 18.9688
#
#
#
# Elastic Compliance Matrix: (Units=1/GPa)
#
#
# Indices 1 2 3 4 5 6 
#
# 1 -0.012267 0.031418 -0.004687 0.000000 0.000000 0.000000
# 2 0.031418 -0.012267 -0.004687 0.000000 0.000000 0.000000
# 3 -0.004687 -0.004687 0.011430 0.000000 0.000000 0.000000
# 4 0.000000 0.000000 0.000000 0.056951 0.000000 0.000000
# 5 0.000000 0.000000 0.000000 0.000000 0.056951 0.000000
# 6 0.000000 0.000000 0.000000 0.000000 0.000000 0.052718
#
#
# Mechanical properties :
#
#
# Convention : Reuss Voigt Hill
#
# Bulk Modulus (GPa) = 32.27419 38.58534 35.42976
# Shear Modulus (GPa) = 41.75114 14.43117 28.09116
#
# Velocity S-wave (km/s) = 4.82793 2.83843 3.96015
# Velocity P-wave (km/s) = 7.00691 5.68188 6.37889
#
# Compressibility (1/GPa) = 0.03098451
#
# Stress axis : x y z
#
# Youngs Moduli (GPa) = -81.52036 -81.52036 87.48777
#
# Poissons Ratio (x) = 2.56122 0.41006
# Poissons Ratio (y) = 2.56122 0.41006
# Poissons Ratio (z) = -0.38209 -0.38209
#
# Static dielectric constant tensor:
#      x y z
#    x 1.615610 0.000000 0.000000 
#    y 0.000000 1.615610 0.000000 
#    z 0.000000 0.000000 1.652080 
# 
# From -- ./inp_files/4372.got.cif
#   From: 2010.05.17/outbox.cif.g08.bks.cpg/sg125_3_cif.got.tgz:4372.got - 2010.05.20 11:54:10.
