data_PCOD9562583
_publ_section_title
;
Structure prediction by ZEFSAII (Michael W. Deem and Ramdas Pophale) SiO2 
 PCOD9562583
Probable space group: P 4/M C C
;
_chemical_formula_sum "Si O2"
_cell_formula_units_Z 112
_cell_length_a 15.694643
_cell_length_b 15.694643
_cell_length_c 27.520255
_cell_angle_alpha 90.000000
_cell_angle_beta 90.000000
_cell_angle_gamma 90.000000
_cell_volume 6778.839268
_symmetry_space_group_name_H-M "P 4/M C C"
_symmetry_group_IT_number 124
_symmetry_cell_setting 'tetragonal'
loop_
_space_group_symop_operation_xyz
x,y,z
-y,x,z
-x,-y,z
y,-x,z
x,-y,1/2-z
-x,y,1/2-z
y,x,1/2-z
-y,-x,1/2-z
-x,-y,-z
y,-x,-z
x,y,-z
-y,x,-z
-x,y,1/2+z
x,-y,1/2+z
-y,-x,1/2+z
y,x,1/2+z
loop_
_atom_site_type_symbol
_atom_site_label
_atom_site_fract_x
_atom_site_fract_y
_atom_site_fract_z
Si Si1 0.186486 0.583771 0.138677
Si Si2 0.565015 0.617154 0.442077
Si Si3 0.400860 0.743875 0.745350
Si Si4 0.003133 0.728049 0.000000
Si Si5 0.833613 0.388934 0.345454
Si Si6 0.003720 0.598832 0.092560
Si Si7 0.181101 0.186623 0.000000
Si Si8 0.726977 0.714076 0.086387
O O1 0.212499 0.609860 0.193045
O O2 0.199921 0.482052 0.137111
O O3 0.239604 0.640779 0.101632
O O4 0.089814 0.603196 0.123771
O O5 0.468760 0.611304 0.423287
O O6 0.559361 0.610676 0.500000
O O7 0.621841 0.698523 0.432777
O O8 0.500000 0.714352 0.750000
O O9 0.334290 0.665711 0.750000
O O10 0.388314 0.813896 0.788083
O O11 0.088484 0.786733 0.000000
O O12 0.002040 0.665632 0.952331
O O13 0.918978 0.788283 0.000000
O O14 0.926779 0.385650 0.369558
O O15 0.783466 0.308995 0.367407
O O16 0.000000 0.500000 0.074270
O O17 0.222705 0.232274 0.953174
#
# Coordination Sequence:
#
# PCOD9562583 Si02
#       8
#    16  16  16   8  16  16   8  16
#     4  10  21  35  56  81 109 145 184 230 280 327
#     4   9  18  30  43  66 105 146 185 226 262 303
#     4  10  20  36  55  79 111 146 190 232 273 324
#     4  12  23  43  56  88 112 144 184 221 277 336
#     4  10  21  35  56  81 109 145 184 230 280 327
#     4  10  21  37  57  84 117 144 176 228 283 329
#     4  12  26  37  62  81 110 142 184 230 276 342
#     4  12  19  35  53  79 106 147 187 225 263 332
#
# _framework density 16.522003000000002
#
# number of rings (size 3 to 8) (size 9 to 14) (size 15 to 20)
#    0.000    1.571    5.000    1.500    0.000    0.857 
#    0.000    2.857    0.000    0.000    0.000    0.000 
#    0.000    0.000    0.000    5.143    0.000    0.000 
#
# Total GULP energy -623648.927347 kJ/mol
# GULP energy per Si atom -5568.293994 kJ/mol
# Density = 1.648440 g / cm^3
# Si number density = 16.522003 Si / 1000 Ang^3
#
#
#
# Elastic Constant Matrix: (Units=GPa)
#
#
# Indices 1 2 3 4 5 6 
#
# 1 83.6703 62.8130 45.3951 0.0000 0.0000 0.0000
# 2 62.8130 83.6715 45.3951 0.0000 0.0000 0.0000
# 3 45.3951 45.3951 80.0476 0.0000 0.0000 0.0000
# 4 0.0000 0.0000 0.0000 22.3783 0.0000 0.0000
# 5 0.0000 0.0000 0.0000 0.0000 22.3780 0.0000
# 6 0.0000 0.0000 0.0000 0.0000 0.0000 24.0652
#
#
#
# Elastic Compliance Matrix: (Units=1/GPa)
#
#
# Indices 1 2 3 4 5 6 
#
# 1 0.029235 -0.018708 -0.005970 0.000000 0.000000 0.000000
# 2 -0.018708 0.029235 -0.005970 0.000000 0.000000 0.000000
# 3 -0.005970 -0.005970 0.019263 0.000000 0.000000 0.000000
# 4 0.000000 0.000000 0.000000 0.044686 0.000000 0.000000
# 5 0.000000 0.000000 0.000000 0.000000 0.044687 0.000000
# 6 0.000000 0.000000 0.000000 0.000000 0.000000 0.041554
#
#
# Mechanical properties :
#
#
# Convention : Reuss Voigt Hill
#
# Bulk Modulus (GPa) = 60.83466 61.62175 61.22820
# Shear Modulus (GPa) = 18.15310 20.01673 19.08491
#
# Velocity S-wave (km/s) = 3.31829 3.48446 3.40239
# Velocity P-wave (km/s) = 7.18204 7.31891 7.25080
#
# Compressibility (1/GPa) = 0.01643800
#
# Stress axis : x y z
#
# Youngs Moduli (GPa) = 34.20510 34.20583 51.91191
#
# Poissons Ratio (x) = 0.63994 0.30991
# Poissons Ratio (y) = 0.63992 0.30989
# Poissons Ratio (z) = 0.20420 0.20419
#
# Static dielectric constant tensor:
#      x y z
#    x 1.571150 0.000000 0.000000 
#    y 0.000000 1.571150 0.000000 
#    z 0.000000 0.000000 1.550810 
# 
# From -- ./inp_files/6672.got.cif
#   From: 2010.05.17/outbox.cif.g08.bks.cpg/sg124_4_cif.got.tgz:6672.got - 2010.05.20 11:49:17.
