data_PCOD9562321
_publ_section_title
;
Structure prediction by ZEFSAII (Michael W. Deem and Ramdas Pophale) SiO2 
 PCOD9562321
Probable space group: P 4/M C C
;
_chemical_formula_sum "Si O2"
_cell_formula_units_Z 88
_cell_length_a 14.273408
_cell_length_b 14.273408
_cell_length_c 23.263268
_cell_angle_alpha 90.000000
_cell_angle_beta 90.000000
_cell_angle_gamma 90.000000
_cell_volume 4739.429682
_symmetry_space_group_name_H-M "P 4/M C C"
_symmetry_group_IT_number 124
_symmetry_cell_setting 'tetragonal'
loop_
_space_group_symop_operation_xyz
x,y,z
-y,x,z
-x,-y,z
y,-x,z
x,-y,1/2-z
-x,y,1/2-z
y,x,1/2-z
-y,-x,1/2-z
-x,-y,-z
y,-x,-z
x,y,-z
-y,x,-z
-x,y,1/2+z
x,-y,1/2+z
-y,-x,1/2+z
y,x,1/2+z
loop_
_atom_site_type_symbol
_atom_site_label
_atom_site_fract_x
_atom_site_fract_y
_atom_site_fract_z
Si Si1 0.904034 0.621443 0.129109
Si Si2 0.146622 0.621223 0.000000
Si Si3 0.865364 0.922886 0.876382
Si Si4 0.872831 0.587556 0.629633
Si Si5 0.226619 0.759391 0.816294
Si Si6 0.817674 0.847710 0.000000
Si Si7 0.927365 0.333571 0.500000
O O1 0.877522 0.518541 0.152704
O O2 0.833017 0.699470 0.154924
O O3 0.891009 0.625922 0.060012
O O4 0.019044 0.628190 0.135895
O O5 0.154685 0.576357 0.937750
O O6 0.204216 0.718028 0.000000
O O7 0.037670 0.651449 0.000000
O O8 0.807299 0.874399 0.826600
O O9 0.967385 0.877147 0.872594
O O10 0.824453 0.900553 0.939454
O O11 0.795614 0.657794 0.655870
O O12 0.250546 0.749455 0.750000
O O13 0.901383 0.774750 0.000000
#
# Coordination Sequence:
#
# PCOD9562321 Si02
#       7
#    16   8  16  16  16   8   8
#     4  10  21  38  61  88 116 147 186 237 297 354
#     4  10  17  30  55  84 113 142 177 228 287 343
#     4  11  22  34  50  76 113 154 191 229 277 335
#     4  10  21  38  61  88 116 147 186 237 297 354
#     4  12  25  39  55  77 109 152 202 246 280 327
#     4  12  18  29  54  82 114 151 184 224 284 348
#     4  10  17  30  55  84 113 142 177 228 287 343
#
# _framework density 18.567634999999999
#
# number of rings (size 3 to 8) (size 9 to 14) (size 15 to 20)
#    0.000    1.273    3.636    3.273    0.000    6.545 
#    0.000    2.727    0.000    0.545    0.000    1.273 
#    0.000    4.364    0.000    0.000    0.000    0.000 
#
# Total GULP energy -490128.759005 kJ/mol
# GULP energy per Si atom -5569.644989 kJ/mol
# Density = 1.852537 g / cm^3
# Si number density = 18.567635 Si / 1000 Ang^3
#
#
#
# Elastic Constant Matrix: (Units=GPa)
#
#
# Indices 1 2 3 4 5 6 
#
# 1 -22.2938 123.7366 34.6355 0.0000 0.0000 0.0000
# 2 123.7366 -22.2945 34.6355 0.0000 0.0000 0.0000
# 3 34.6355 34.6355 82.6190 0.0000 0.0000 0.0000
# 4 0.0000 0.0000 0.0000 -3.8257 0.0000 0.0000
# 5 0.0000 0.0000 0.0000 0.0000 -3.8259 0.0000
# 6 0.0000 0.0000 0.0000 0.0000 0.0000 19.1056
#
#
#
# Elastic Compliance Matrix: (Units=1/GPa)
#
#
# Indices 1 2 3 4 5 6 
#
# 1 0.003482 0.010330 -0.005790 0.000000 0.000000 0.000000
# 2 0.010330 0.003482 -0.005790 0.000000 0.000000 0.000000
# 3 -0.005790 -0.005790 0.016958 0.000000 0.000000 0.000000
# 4 0.000000 0.000000 0.000000 -0.261387 0.000000 0.000000
# 5 0.000000 0.000000 0.000000 0.000000 -0.261377 0.000000
# 6 0.000000 0.000000 0.000000 0.000000 0.000000 0.052341
#
#
# Mechanical properties :
#
#
# Convention : Reuss Voigt Hill
#
# Bulk Modulus (GPa) = 46.68262 47.11621 46.89941
# Shear Modulus (GPa) = -11.44533 -8.04099 -9.74316
#
# Velocity S-wave (km/s) = -2.48546 -2.08328 -2.29320
# Velocity P-wave (km/s) = 4.11823 4.43213 4.27806
#
# Compressibility (1/GPa) = 0.02142125
#
# Stress axis : x y z
#
# Youngs Moduli (GPa) = 287.19917 287.20442 58.96788
#
# Poissons Ratio (x) = -2.96675 0.34143
# Poissons Ratio (y) = -2.96669 0.34143
# Poissons Ratio (z) = 1.66291 1.66294
#
# Static dielectric constant tensor:
#      x y z
#    x 1.691160 0.000000 0.000000 
#    y 0.000000 1.691160 0.000000 
#    z 0.000000 0.000000 1.658090 
# 
# From -- ./inp_files/5244.got.cif
#   From: 2010.05.17/outbox.cif.g08.bks.cpg/sg124_3_cif.got.tgz:5244.got - 2010.05.20 11:49:17.
