data_PCOD9562411
_publ_section_title
;
Structure prediction by ZEFSAII (Michael W. Deem and Ramdas Pophale) SiO2 
 PCOD9562411
Probable space group: P 4/M C C
;
_chemical_formula_sum "Si O2"
_cell_formula_units_Z 128
_cell_length_a 20.573446
_cell_length_b 20.573446
_cell_length_c 17.482489
_cell_angle_alpha 90.000000
_cell_angle_beta 90.000000
_cell_angle_gamma 90.000000
_cell_volume 7399.755083
_symmetry_space_group_name_H-M "P 4/M C C"
_symmetry_group_IT_number 124
_symmetry_cell_setting 'tetragonal'
loop_
_space_group_symop_operation_xyz
x,y,z
-y,x,z
-x,-y,z
y,-x,z
x,-y,1/2-z
-x,y,1/2-z
y,x,1/2-z
-y,-x,1/2-z
-x,-y,-z
y,-x,-z
x,y,-z
-y,x,-z
-x,y,1/2+z
x,-y,1/2+z
-y,-x,1/2+z
y,x,1/2+z
loop_
_atom_site_type_symbol
_atom_site_label
_atom_site_fract_x
_atom_site_fract_y
_atom_site_fract_z
Si Si1 0.185761 0.524084 0.913079
Si Si2 0.067102 0.338771 0.290468
Si Si3 0.995839 0.577381 0.582497
Si Si4 0.320236 0.171349 0.091659
Si Si5 0.687786 0.255071 0.910266
Si Si6 0.132522 0.610928 0.361346
Si Si7 0.393055 0.637860 0.163887
Si Si8 0.517239 0.660251 0.084147
O O1 0.179025 0.601153 0.894591
O O2 0.157638 0.464260 0.863646
O O3 0.262537 0.511988 0.915440
O O4 0.160037 0.514783 0.000000
O O5 0.113223 0.299229 0.350347
O O6 0.112035 0.366212 0.223024
O O7 0.000000 0.311760 0.250000
O O8 0.042077 0.396953 0.344484
O O9 0.967002 0.596030 0.500000
O O10 0.066934 0.607660 0.589566
O O11 0.000000 0.500000 0.585625
O O12 0.281218 0.239124 0.107538
O O13 0.311717 0.158861 0.000000
O O14 0.664681 0.181453 0.895432
O O15 0.636724 0.293273 0.857834
O O16 0.676913 0.269731 0.000000
O O17 0.378187 0.621814 0.250000
O O18 0.468750 0.633349 0.146867
O O19 0.358129 0.589350 0.105802
O O20 0.499108 0.636002 0.000000
#
# Coordination Sequence:
#
# PCOD9562411 Si02
#       8
#    16  16  16  16  16  16  16  16
#     4  10  19  32  52  76 100 133 175 218 270 336
#     4  10  23  37  51  76 105 139 176 223 277 332
#     4  10  20  36  55  76 106 144 187 231 277 331
#     4  10  21  36  55  77 105 140 182 225 275 337
#     4  11  22  37  57  81 109 143 183 226 278 344
#     4  11  22  33  54  82 111 139 182 234 285 326
#     4  12  25  39  55  81 107 129 170 230 292 346
#     4  11  22  40  60  73  96 135 175 216 280 355
#
# _framework density 17.29787
#
# number of rings (size 3 to 8) (size 9 to 14) (size 15 to 20)
#    0.000    1.375    2.500    3.750    1.750    7.000 
#    2.250    1.250    0.000    0.000    0.000    0.000 
#    0.000    0.000    0.000    0.000    0.000   60.625 
#
# Total GULP energy -713639.689921 kJ/mol
# GULP energy per Si atom -5575.310078 kJ/mol
# Density = 1.725850 g / cm^3
# Si number density = 17.297870 Si / 1000 Ang^3
#
#
#
# Elastic Constant Matrix: (Units=GPa)
#
#
# Indices 1 2 3 4 5 6 
#
# 1 71.7633 16.4219 20.8006 0.0000 0.0000 0.0000
# 2 16.4219 71.7638 20.8022 0.0000 0.0000 0.0000
# 3 20.8006 20.8022 83.5337 0.0000 0.0000 0.0000
# 4 0.0000 0.0000 0.0000 26.0320 0.0000 0.0000
# 5 0.0000 0.0000 0.0000 0.0000 26.0352 0.0000
# 6 0.0000 0.0000 0.0000 0.0000 0.0000 -338.9160
#
#
#
# Elastic Compliance Matrix: (Units=1/GPa)
#
#
# Indices 1 2 3 4 5 6 
#
# 1 0.015459 -0.002610 -0.003200 0.000000 0.000000 0.000000
# 2 -0.002610 0.015459 -0.003200 0.000000 0.000000 0.000000
# 3 -0.003200 -0.003200 0.013565 0.000000 0.000000 0.000000
# 4 0.000000 0.000000 0.000000 0.038414 0.000000 0.000000
# 5 0.000000 0.000000 0.000000 0.000000 0.038409 0.000000
# 6 0.000000 0.000000 0.000000 0.000000 0.000000 -0.002951
#
#
# Mechanical properties :
#
#
# Convention : Reuss Voigt Hill
#
# Bulk Modulus (GPa) = 37.78649 38.12337 37.95493
# Shear Modulus (GPa) = 34.43592 -46.10066 -5.83237
#
# Velocity S-wave (km/s) = 4.46663 -5.16807 -1.83822
# Velocity P-wave (km/s) = 6.96370 3.67760 4.18141
#
# Compressibility (1/GPa) = 0.02646448
#
# Stress axis : x y z
#
# Youngs Moduli (GPa) = 64.68566 64.68544 73.72040
#
# Poissons Ratio (x) = 0.16884 0.23587
# Poissons Ratio (y) = 0.16884 0.23589
# Poissons Ratio (z) = 0.20696 0.20698
#
# Static dielectric constant tensor:
#      x y z
#    x 1.609370 0.000000 0.000000 
#    y 0.000000 1.609370 0.000000 
#    z 0.000000 0.000000 1.610410 
# 
# From -- ./inp_files/4597.got.cif
#   From: 2010.05.17/outbox.cif.g08.bks.cpg/sg124_3_cif.got.tgz:4597.got - 2010.05.20 11:49:17.
