data_PCOD9562336
_publ_section_title
;
Structure prediction by ZEFSAII (Michael W. Deem and Ramdas Pophale) SiO2 
 PCOD9562336
Probable space group: P 4/M C C
;
_chemical_formula_sum "Si O2"
_cell_formula_units_Z 96
_cell_length_a 23.567076
_cell_length_b 23.567076
_cell_length_c 9.542448
_cell_angle_alpha 90.000000
_cell_angle_beta 90.000000
_cell_angle_gamma 90.000000
_cell_volume 5299.943096
_symmetry_space_group_name_H-M "P 4/M C C"
_symmetry_group_IT_number 124
_symmetry_cell_setting 'tetragonal'
loop_
_space_group_symop_operation_xyz
x,y,z
-y,x,z
-x,-y,z
y,-x,z
x,-y,1/2-z
-x,y,1/2-z
y,x,1/2-z
-y,-x,1/2-z
-x,-y,-z
y,-x,-z
x,y,-z
-y,x,-z
-x,y,1/2+z
x,-y,1/2+z
-y,-x,1/2+z
y,x,1/2+z
loop_
_atom_site_type_symbol
_atom_site_label
_atom_site_fract_x
_atom_site_fract_y
_atom_site_fract_z
Si Si1 0.556082 0.130193 0.337885
Si Si2 0.268721 0.444850 0.338091
Si Si3 0.000000 0.165174 0.250000
Si Si4 0.909587 0.026631 0.500000
Si Si5 0.879080 0.794603 0.835229
Si Si6 0.267954 0.337971 0.841127
Si Si7 0.664300 0.133169 0.159602
O O1 0.500000 0.113557 0.250000
O O2 0.553646 0.111560 0.500000
O O3 0.556450 0.199464 0.340438
O O4 0.613962 0.111448 0.259616
O O5 0.285267 0.500000 0.250000
O O6 0.287104 0.445776 0.500000
O O7 0.289414 0.390386 0.251780
O O8 0.052951 0.195659 0.177474
O O9 0.032378 0.126909 0.362813
O O10 0.932656 0.962689 0.500000
O O11 0.839151 0.839151 0.750000
O O12 0.872223 0.729035 0.788526
O O13 0.863287 0.798791 0.000000
O O14 0.283097 0.283097 0.750000
O O15 0.200678 0.344962 0.850953
O O16 0.290242 0.335326 0.000000
O O17 0.660482 0.109919 0.000000
#
# Coordination Sequence:
#
# PCOD9562336 Si02
#       7
#    16  16   8   8  16  16  16
#     4   9  16  27  46  73 103 137 173 213 255 302
#     4   9  16  26  40  59  86 119 157 197 242 291
#     4  12  24  39  58  82 109 140 180 222 278 332
#     4  11  22  38  60  84 108 134 169 218 274 336
#     4  11  24  40  59  80 108 144 182 227 278 332
#     4  10  18  28  43  63  91 124 160 199 241 291
#     4   9  19  34  50  73 103 138 176 214 259 313
#
# _framework density 18.113403000000002
#
# number of rings (size 3 to 8) (size 9 to 14) (size 15 to 20)
#    0.000    2.083    0.833    3.500    1.167    6.000 
#    0.000    0.000    0.000    0.000    0.000    0.583 
#    0.000    4.333    0.000    3.333    0.000    2.333 
#
# Total GULP energy -534796.553855 kJ/mol
# GULP energy per Si atom -5570.797436 kJ/mol
# Density = 1.807218 g / cm^3
# Si number density = 18.113403 Si / 1000 Ang^3
#
#
#
# Elastic Constant Matrix: (Units=GPa)
#
#
# Indices 1 2 3 4 5 6 
#
# 1 64.6755 13.0845 29.5372 0.0000 0.0000 0.0000
# 2 13.0845 64.6755 29.5372 0.0000 0.0000 0.0000
# 3 29.5372 29.5372 113.5271 0.0000 0.0000 0.0000
# 4 0.0000 0.0000 0.0000 21.6124 0.0000 0.0000
# 5 0.0000 0.0000 0.0000 0.0000 21.6124 0.0000
# 6 0.0000 0.0000 0.0000 0.0000 0.0000 5.4340
#
#
#
# Elastic Compliance Matrix: (Units=1/GPa)
#
#
# Indices 1 2 3 4 5 6 
#
# 1 0.017706 -0.001678 -0.004170 0.000000 0.000000 0.000000
# 2 -0.001678 0.017706 -0.004170 0.000000 0.000000 0.000000
# 3 -0.004170 -0.004170 0.010978 0.000000 0.000000 0.000000
# 4 0.000000 0.000000 0.000000 0.046270 0.000000 0.000000
# 5 0.000000 0.000000 0.000000 0.000000 0.046270 0.000000
# 6 0.000000 0.000000 0.000000 0.000000 0.000000 0.184027
#
#
# Mechanical properties :
#
#
# Convention : Reuss Voigt Hill
#
# Bulk Modulus (GPa) = 37.94476 43.02177 40.48326
# Shear Modulus (GPa) = 14.21357 21.11304 17.66331
#
# Velocity S-wave (km/s) = 2.80429 3.41780 3.12613
# Velocity P-wave (km/s) = 5.61064 6.27519 5.95220
#
# Compressibility (1/GPa) = 0.02635410
#
# Stress axis : x y z
#
# Youngs Moduli (GPa) = 56.47896 56.47896 91.08766
#
# Poissons Ratio (x) = 0.09475 0.37985
# Poissons Ratio (y) = 0.09475 0.37985
# Poissons Ratio (z) = 0.23553 0.23553
#
# Static dielectric constant tensor:
#      x y z
#    x 1.636860 0.000000 0.000000 
#    y 0.000000 1.636860 0.000000 
#    z 0.000000 0.000000 1.637300 
# 
# From -- ./inp_files/1422.got.cif
#   From: 2010.05.17/outbox.cif.g08.bks.cpg/sg124_1_cif.got.tgz:1422.got - 2010.05.20 11:49:17.
