data_PCOD9562840
_publ_section_title
;
Structure prediction by ZEFSAII (Michael W. Deem and Ramdas Pophale) SiO2 
 PCOD9562840
Probable space group: P 4/M C C
;
_chemical_formula_sum "Si O2"
_cell_formula_units_Z 64
_cell_length_a 11.215628
_cell_length_b 11.215628
_cell_length_c 28.417146
_cell_angle_alpha 90.000000
_cell_angle_beta 90.000000
_cell_angle_gamma 90.000000
_cell_volume 3574.601645
_symmetry_space_group_name_H-M "P 4/M C C"
_symmetry_group_IT_number 124
_symmetry_cell_setting 'tetragonal'
loop_
_space_group_symop_operation_xyz
x,y,z
-y,x,z
-x,-y,z
y,-x,z
x,-y,1/2-z
-x,y,1/2-z
y,x,1/2-z
-y,-x,1/2-z
-x,-y,-z
y,-x,-z
x,y,-z
-y,x,-z
-x,y,1/2+z
x,-y,1/2+z
-y,-x,1/2+z
y,x,1/2+z
loop_
_atom_site_type_symbol
_atom_site_label
_atom_site_fract_x
_atom_site_fract_y
_atom_site_fract_z
Si Si1 0.616502 0.930417 0.615130
Si Si2 0.559031 0.693086 0.444415
Si Si3 0.809727 0.019659 0.556024
Si Si4 0.801006 0.975309 0.697073
O O1 0.591940 0.802601 0.590157
O O2 0.680230 0.015233 0.576588
O O3 0.702368 0.937065 0.659979
O O4 0.500000 0.000000 0.629507
O O5 0.423198 0.644485 0.437545
O O6 0.570983 0.728377 0.500000
O O7 0.807713 0.022540 0.500000
O O8 0.874424 0.896700 0.571279
O O9 0.901814 0.873883 0.690690
O O10 0.753677 0.000000 0.750000
#
# Coordination Sequence:
#
# PCOD9562840 Si02
#       4
#    16  16  16  16
#     4  12  24  32  55  90 116 144 194 242 289 343
#     4   9  21  41  58  76 115 168 209 238 275 332
#     4   9  19  35  53  76 111 150 185 233 295 347
#     4   9  20  41  66  87 112 146 183 235 309 373
#
# _framework density 17.904091999999999
#
# number of rings (size 3 to 8) (size 9 to 14) (size 15 to 20)
#    0.000    2.250    0.000    4.500    7.000    4.500 
#    0.000    0.000    0.000    0.000    0.000    0.000 
#    0.000    0.000    0.000    0.000    0.000    0.000 
#
# Total GULP energy -356550.747494 kJ/mol
# GULP energy per Si atom -5571.105430 kJ/mol
# Density = 1.786334 g / cm^3
# Si number density = 17.904092 Si / 1000 Ang^3
#
#
#
# Elastic Constant Matrix: (Units=GPa)
#
#
# Indices 1 2 3 4 5 6 
#
# 1 69.4467 37.4975 61.0460 0.0000 0.0000 0.0000
# 2 37.4975 69.4467 61.0460 0.0000 0.0000 0.0000
# 3 61.0460 61.0460 126.3488 0.0000 0.0000 0.0000
# 4 0.0000 0.0000 0.0000 30.2208 0.0000 0.0000
# 5 0.0000 0.0000 0.0000 0.0000 30.2208 0.0000
# 6 0.0000 0.0000 0.0000 0.0000 0.0000 11.6737
#
#
#
# Elastic Compliance Matrix: (Units=1/GPa)
#
#
# Indices 1 2 3 4 5 6 
#
# 1 0.026076 -0.005223 -0.010075 0.000000 0.000000 0.000000
# 2 -0.005223 0.026076 -0.010075 0.000000 0.000000 0.000000
# 3 -0.010075 -0.010075 0.017650 0.000000 0.000000 0.000000
# 4 0.000000 0.000000 0.000000 0.033090 0.000000 0.000000
# 5 0.000000 0.000000 0.000000 0.000000 0.033090 0.000000
# 6 0.000000 0.000000 0.000000 0.000000 0.000000 0.085663
#
#
# Mechanical properties :
#
#
# Convention : Reuss Voigt Hill
#
# Bulk Modulus (GPa) = 52.47842 64.93567 58.70705
# Shear Modulus (GPa) = 17.93759 21.46659 19.70209
#
# Velocity S-wave (km/s) = 3.16867 3.46638 3.32086
# Velocity P-wave (km/s) = 6.53925 7.23660 6.89674
#
# Compressibility (1/GPa) = 0.01905545
#
# Stress axis : x y z
#
# Youngs Moduli (GPa) = 38.34903 38.34903 56.65616
#
# Poissons Ratio (x) = 0.20031 0.57082
# Poissons Ratio (y) = 0.20031 0.57082
# Poissons Ratio (z) = 0.38637 0.38637
#
# Static dielectric constant tensor:
#      x y z
#    x 1.631860 0.000000 0.000000 
#    y 0.000000 1.631860 0.000000 
#    z 0.000000 0.000000 1.633340 
# 
# From -- ./inp_files/6818.got.cif
#   From: 2010.05.17/outbox.cif.g08.bks.cpg/sg124_4_cif.got.tgz:6818.got - 2010.05.20 11:49:17.
