data_PCOD9562075
_publ_section_title
;
Structure prediction by ZEFSAII (Michael W. Deem and Ramdas Pophale) SiO2 
 PCOD9562075
Probable space group: P 4/M M M
;
_chemical_formula_sum "Si O2"
_cell_formula_units_Z 64
_cell_length_a 20.254686
_cell_length_b 20.254686
_cell_length_c 8.716255
_cell_angle_alpha 90.000000
_cell_angle_beta 90.000000
_cell_angle_gamma 90.000000
_cell_volume 3575.863704
_symmetry_space_group_name_H-M "P 4/M M M"
_symmetry_group_IT_number 123
_symmetry_cell_setting 'tetragonal'
loop_
_space_group_symop_operation_xyz
x,y,z
-y,x,z
-x,-y,z
y,-x,z
x,-y,-z
-x,y,-z
y,x,-z
-y,-x,-z
-x,-y,-z
y,-x,-z
x,y,-z
-y,x,-z
-x,y,z
x,-y,z
-y,-x,z
y,x,z
loop_
_atom_site_type_symbol
_atom_site_label
_atom_site_fract_x
_atom_site_fract_y
_atom_site_fract_z
Si Si1 0.220588 0.573926 0.183400
Si Si2 0.925503 0.594989 0.680565
Si Si3 0.735019 0.926748 0.174440
Si Si4 0.189354 0.810647 0.320573
Si Si5 0.301664 0.698337 0.320286
O O1 0.246412 0.500000 0.219660
O O2 0.144185 0.574642 0.243309
O O3 0.267464 0.632292 0.249374
O O4 0.218339 0.581878 0.000000
O O5 0.922048 0.580167 0.500000
O O6 0.925486 0.672884 0.712783
O O7 0.000000 0.573137 0.734818
O O8 0.785399 0.874256 0.234110
O O9 0.763108 0.000000 0.174640
O O10 0.712081 0.912171 0.000000
O O11 0.177713 0.822288 0.500000
O O12 0.245500 0.754501 0.307203
O O13 0.314191 0.685810 0.500000
#
# Coordination Sequence:
#
# PCOD9562075 Si02
#       5
#    16  16  16   8   8
#     4  11  24  40  60  86 116 152 191 234 284 335
#     4  10  20  34  53  80 116 155 193 232 275 328
#     4  10  20  33  52  79 110 146 187 232 282 332
#     4  11  21  33  55  84 110 145 188 232 283 333
#     4  11  23  39  61  88 114 147 188 232 281 333
#
# _framework density 17.897773000000001
#
# number of rings (size 3 to 8) (size 9 to 14) (size 15 to 20)
#    0.000    1.500    2.500    3.000    0.000    6.500 
#    0.000    2.500    0.000    0.750    0.000    5.250 
#    0.000    0.000    0.000    0.000    0.000    0.000 
#
# Total GULP energy -356703.080149 kJ/mol
# GULP energy per Si atom -5573.485627 kJ/mol
# Density = 1.785704 g / cm^3
# Si number density = 17.897773 Si / 1000 Ang^3
#
#
#
# Elastic Constant Matrix: (Units=GPa)
#
#
# Indices 1 2 3 4 5 6 
#
# 1 110.9561 69.2883 45.4431 0.0000 0.0000 0.0000
# 2 69.2883 110.9561 45.4432 0.0000 0.0000 0.0000
# 3 45.4431 45.4432 80.4973 0.0000 0.0000 0.0000
# 4 0.0000 0.0000 0.0000 46.3407 0.0000 0.0000
# 5 0.0000 0.0000 0.0000 0.0000 46.3411 0.0000
# 6 0.0000 0.0000 0.0000 0.0000 0.0000 9.4908
#
#
#
# Elastic Compliance Matrix: (Units=1/GPa)
#
#
# Indices 1 2 3 4 5 6 
#
# 1 0.015878 -0.008122 -0.004378 0.000000 0.000000 0.000000
# 2 -0.008122 0.015878 -0.004378 0.000000 0.000000 0.000000
# 3 -0.004378 -0.004378 0.017366 0.000000 0.000000 0.000000
# 4 0.000000 0.000000 0.000000 0.021579 0.000000 0.000000
# 5 0.000000 0.000000 0.000000 0.000000 0.021579 0.000000
# 6 0.000000 0.000000 0.000000 0.000000 0.000000 0.105365
#
#
# Mechanical properties :
#
#
# Convention : Reuss Voigt Hill
#
# Bulk Modulus (GPa) = 65.08601 69.19543 67.14072
# Shear Modulus (GPa) = 21.13955 29.91686 25.52821
#
# Velocity S-wave (km/s) = 3.44048 4.09288 3.78078
# Velocity P-wave (km/s) = 7.22682 7.81543 7.52688
#
# Compressibility (1/GPa) = 0.01536428
#
# Stress axis : x y z
#
# Youngs Moduli (GPa) = 62.98206 62.98202 57.58311
#
# Poissons Ratio (x) = 0.51153 0.25212
# Poissons Ratio (y) = 0.51153 0.25212
# Poissons Ratio (z) = 0.27576 0.27576
#
# Static dielectric constant tensor:
#      x y z
#    x 1.607840 0.000000 0.000000 
#    y 0.000000 1.607840 0.000000 
#    z 0.000000 0.000000 1.619620 
# 
# From -- ./inp_files/949.got.cif
#   From: 2010.05.17/outbox.cif.g08.bks.cpg/sg123_1_cif.got.tgz:949.got - 2010.05.20 11:43:04.
