data_PCOD9562363
_publ_section_title
;
Structure prediction by ZEFSAII (Michael W. Deem and Ramdas Pophale) SiO2 
 PCOD9562363
Probable space group: P 4/M C C
;
_chemical_formula_sum "Si O2"
_cell_formula_units_Z 128
_cell_length_a 14.167589
_cell_length_b 14.167589
_cell_length_c 27.945630
_cell_angle_alpha 90.000000
_cell_angle_beta 90.000000
_cell_angle_gamma 90.000000
_cell_volume 5609.263008
_symmetry_space_group_name_H-M "P 4/M C C"
_symmetry_group_IT_number 124
_symmetry_cell_setting 'tetragonal'
loop_
_space_group_symop_operation_xyz
x,y,z
-y,x,z
-x,-y,z
y,-x,z
x,-y,1/2-z
-x,y,1/2-z
y,x,1/2-z
-y,-x,1/2-z
-x,-y,-z
y,-x,-z
x,y,-z
-y,x,-z
-x,y,1/2+z
x,-y,1/2+z
-y,-x,1/2+z
y,x,1/2+z
loop_
_atom_site_type_symbol
_atom_site_label
_atom_site_fract_x
_atom_site_fract_y
_atom_site_fract_z
Si Si1 0.638386 0.551432 0.346998
Si Si2 0.387534 0.223080 0.745052
Si Si3 0.852528 0.661676 0.446790
Si Si4 0.138517 0.700726 0.345620
Si Si5 0.507255 0.691481 0.051182
Si Si6 0.194471 0.319336 0.948065
Si Si7 0.173223 0.327610 0.659007
Si Si8 0.011594 0.152571 0.193104
O O1 0.553878 0.617395 0.328574
O O2 0.739690 0.597233 0.341695
O O3 0.632970 0.539365 0.403904
O O4 0.500000 0.244122 0.750000
O O5 0.313992 0.313992 0.750000
O O6 0.373903 0.173034 0.693614
O O7 0.902349 0.665055 0.500000
O O8 0.787660 0.568606 0.448504
O O9 0.780310 0.750773 0.447488
O O10 0.885995 0.661049 0.390580
O O11 0.133711 0.669034 0.400491
O O12 0.225707 0.775909 0.343576
O O13 0.147801 0.652024 0.214599
O O14 0.399851 0.725956 0.054997
O O15 0.525310 0.646702 0.000000
O O16 0.147101 0.329434 0.000000
O O17 0.958150 0.250030 0.670268
O O18 0.096462 0.081712 0.179213
O O19 0.000000 0.161331 0.250000
#
# Coordination Sequence:
#
# PCOD9562363 Si02
#       8
#    16  16  16  16  16  16  16  16
#     4  10  19  26  36  54  88 142 204 268 316 343
#     4  10  23  34  48  73 107 161 218 261 302 339
#     4   8  14  24  38  57  85 129 184 244 291 321
#     4  10  20  36  57  85 116 152 192 240 299 361
#     4   9  15  23  37  57  89 137 198 266 318 346
#     4   9  17  29  47  72 106 150 201 248 297 360
#     4   9  19  29  44  64  97 140 192 245 287 348
#     4   9  20  38  69 103 126 142 168 217 294 386
#
# _framework density 22.819399000000001
#
# number of rings (size 3 to 8) (size 9 to 14) (size 15 to 20)
#    0.000    2.750    0.000    2.625   12.250    1.625 
#    0.000    0.625    0.000    1.125    0.000    0.875 
#    0.000    0.000    0.000   27.625    0.000    0.500 
#
# Total GULP energy -712679.737885 kJ/mol
# GULP energy per Si atom -5567.810452 kJ/mol
# Density = 2.276746 g / cm^3
# Si number density = 22.819399 Si / 1000 Ang^3
#
#
#
# Elastic Constant Matrix: (Units=GPa)
#
#
# Indices 1 2 3 4 5 6 
#
# 1 10.8235 67.6492 39.1193 0.0000 0.0000 0.0000
# 2 67.6492 10.8235 39.1193 0.0000 0.0000 0.0000
# 3 39.1193 39.1193 170.1226 0.0000 0.0000 0.0000
# 4 0.0000 0.0000 0.0000 11.9273 0.0000 0.0000
# 5 0.0000 0.0000 0.0000 0.0000 11.9273 0.0000
# 6 0.0000 0.0000 0.0000 0.0000 0.0000 -253.5286
#
#
#
# Elastic Compliance Matrix: (Units=1/GPa)
#
#
# Indices 1 2 3 4 5 6 
#
# 1 -0.000532 0.017066 -0.003802 0.000000 0.000000 0.000000
# 2 0.017066 -0.000532 -0.003802 0.000000 0.000000 0.000000
# 3 -0.003802 -0.003802 0.007627 0.000000 0.000000 0.000000
# 4 0.000000 0.000000 0.000000 0.083841 0.000000 0.000000
# 5 0.000000 0.000000 0.000000 0.000000 0.083841 0.000000
# 6 0.000000 0.000000 0.000000 0.000000 0.000000 -0.003944
#
#
# Mechanical properties :
#
#
# Convention : Reuss Voigt Hill
#
# Bulk Modulus (GPa) = 39.23625 53.72724 46.48175
# Shear Modulus (GPa) = 31.27497 -42.87600 -5.80051
#
# Velocity S-wave (km/s) = 3.70610 -4.33936 -1.59607
# Velocity P-wave (km/s) = 5.96198 1.22927 4.12517
#
# Compressibility (1/GPa) = 0.02548663
#
# Stress axis : x y z
#
# Youngs Moduli (GPa) = -1880.04035 -1880.04035 131.12005
#
# Poissons Ratio (x) = 32.08432 0.49851
# Poissons Ratio (y) = 32.08432 0.49851
# Poissons Ratio (z) = -7.14776 -7.14776
#
# Static dielectric constant tensor:
#      x y z
#    x 1.872050 0.000000 0.000000 
#    y 0.000000 1.872050 0.000000 
#    z 0.000000 0.000000 2.004860 
# 
# From -- ./inp_files/6279.got.cif
#   From: 2010.05.17/outbox.cif.g08.bks.cpg/sg124_4_cif.got.tgz:6279.got - 2010.05.20 11:49:17.
