data_PCOD9562357
_publ_section_title
;
Structure prediction by ZEFSAII (Michael W. Deem and Ramdas Pophale) SiO2 
 PCOD9562357
Probable space group: P 4/M C C
;
_chemical_formula_sum "Si O2"
_cell_formula_units_Z 104
_cell_length_a 18.071968
_cell_length_b 18.071968
_cell_length_c 19.831555
_cell_angle_alpha 90.000000
_cell_angle_beta 90.000000
_cell_angle_gamma 90.000000
_cell_volume 6476.907080
_symmetry_space_group_name_H-M "P 4/M C C"
_symmetry_group_IT_number 124
_symmetry_cell_setting 'tetragonal'
loop_
_space_group_symop_operation_xyz
x,y,z
-y,x,z
-x,-y,z
y,-x,z
x,-y,1/2-z
-x,y,1/2-z
y,x,1/2-z
-y,-x,1/2-z
-x,-y,-z
y,-x,-z
x,y,-z
-y,x,-z
-x,y,1/2+z
x,-y,1/2+z
-y,-x,1/2+z
y,x,1/2+z
loop_
_atom_site_type_symbol
_atom_site_label
_atom_site_fract_x
_atom_site_fract_y
_atom_site_fract_z
Si Si1 0.822533 0.822533 0.614176
Si Si2 0.087671 0.310585 0.172940
Si Si3 0.911011 0.911011 0.000000
Si Si4 0.310585 0.087671 0.172940
Si Si5 0.701806 0.701806 0.076493
Si Si6 0.587149 0.183973 0.918658
Si Si7 0.183973 0.587149 0.081342
O O1 0.768082 0.874466 0.656830
O O2 0.871501 0.871501 0.563596
O O3 0.874466 0.768082 0.656830
O O4 0.765448 0.765448 0.577693
O O5 0.105194 0.331973 0.250000
O O6 0.119265 0.370752 0.120832
O O7 0.000000 0.304132 0.165760
O O8 0.000000 0.898611 0.000000
O O9 0.370752 0.119265 0.120832
O O10 0.741372 0.629434 0.105492
O O11 0.629434 0.741372 0.105492
O O12 0.682668 0.682668 0.000000
O O13 0.500000 0.185050 0.906023
O O14 0.598455 0.176930 0.000000
O O15 0.176930 0.598455 0.000000
#
# Coordination Sequence:
#
# PCOD9562357 Si02
#       7
#    16  16   8  16  16  16  16
#     4  10  18  34  51  69  95 131 167 212 252 299
#     4  10  21  34  50  72  98 132 170 210 259 310
#     4  11  22  32  48  78 106 130 166 215 272 318
#     4  10  21  34  50  72  98 132 170 210 259 310
#     4   8  14  28  49  71  93 124 162 198 241 286
#     4   9  18  32  51  75 101 131 168 210 255 303
#     4   9  18  32  51  75 101 131 168 210 255 303
#
# _framework density 16.057047000000001
#
# number of rings (size 3 to 8) (size 9 to 14) (size 15 to 20)
#    0.000    2.538    0.769    1.385    2.154    1.846 
#    0.000    3.077    0.000    0.462    0.000    9.692 
#    0.000    0.000    0.000   11.231    0.000    6.308 
#
# Total GULP energy -578948.829684 kJ/mol
# GULP energy per Si atom -5566.815670 kJ/mol
# Density = 1.602050 g / cm^3
# Si number density = 16.057047 Si / 1000 Ang^3
#
#
#
# Elastic Constant Matrix: (Units=GPa)
#
#
# Indices 1 2 3 4 5 6 
#
# 1 94.1681 72.4260 46.2984 0.0000 0.0000 0.0000
# 2 72.4260 94.1681 46.2984 0.0000 0.0000 0.0000
# 3 46.2984 46.2984 61.3585 0.0000 0.0000 0.0000
# 4 0.0000 0.0000 0.0000 11.9802 0.0000 0.0000
# 5 0.0000 0.0000 0.0000 0.0000 11.9802 0.0000
# 6 0.0000 0.0000 0.0000 0.0000 0.0000 16.2906
#
#
#
# Elastic Compliance Matrix: (Units=1/GPa)
#
#
# Indices 1 2 3 4 5 6 
#
# 1 0.028166 -0.017828 -0.007801 0.000000 0.000000 0.000000
# 2 -0.017828 0.028166 -0.007801 0.000000 0.000000 0.000000
# 3 -0.007801 -0.007801 0.028070 0.000000 0.000000 0.000000
# 4 0.000000 0.000000 0.000000 0.083471 0.000000 0.000000
# 5 0.000000 0.000000 0.000000 0.000000 0.083471 0.000000
# 6 0.000000 0.000000 0.000000 0.000000 0.000000 0.061385
#
#
# Mechanical properties :
#
#
# Convention : Reuss Voigt Hill
#
# Bulk Modulus (GPa) = 57.00173 64.41559 60.70866
# Shear Modulus (GPa) = 12.97230 13.69501 13.33365
#
# Velocity S-wave (km/s) = 2.84542 2.92361 2.88478
# Velocity P-wave (km/s) = 6.80968 7.18335 6.99901
#
# Compressibility (1/GPa) = 0.01754333
#
# Stress axis : x y z
#
# Youngs Moduli (GPa) = 35.50361 35.50361 35.62475
#
# Poissons Ratio (x) = 0.63294 0.27791
# Poissons Ratio (y) = 0.63294 0.27791
# Poissons Ratio (z) = 0.27697 0.27697
#
# Static dielectric constant tensor:
#      x y z
#    x 1.532390 0.000000 0.000000 
#    y 0.000000 1.532390 0.000000 
#    z 0.000000 0.000000 1.542770 
# 
# From -- ./inp_files/4361.got.cif
#   From: 2010.05.17/outbox.cif.g08.bks.cpg/sg124_3_cif.got.tgz:4361.got - 2010.05.20 11:49:17.
