data_PCOD9562720
_publ_section_title
;
Structure prediction by ZEFSAII (Michael W. Deem and Ramdas Pophale) SiO2 
 PCOD9562720
Probable space group: P 4/M C C
;
_chemical_formula_sum "Si O2"
_cell_formula_units_Z 48
_cell_length_a 8.159524
_cell_length_b 8.159524
_cell_length_c 33.431739
_cell_angle_alpha 90.000000
_cell_angle_beta 90.000000
_cell_angle_gamma 90.000000
_cell_volume 2225.812699
_symmetry_space_group_name_H-M "P 4/M C C"
_symmetry_group_IT_number 124
_symmetry_cell_setting 'tetragonal'
loop_
_space_group_symop_operation_xyz
x,y,z
-y,x,z
-x,-y,z
y,-x,z
x,-y,1/2-z
-x,y,1/2-z
y,x,1/2-z
-y,-x,1/2-z
-x,-y,-z
y,-x,-z
x,y,-z
-y,x,-z
-x,y,1/2+z
x,-y,1/2+z
-y,-x,1/2+z
y,x,1/2+z
loop_
_atom_site_type_symbol
_atom_site_label
_atom_site_fract_x
_atom_site_fract_y
_atom_site_fract_z
Si Si1 0.327613 0.282045 0.294119
Si Si2 0.000000 0.500000 0.930350
Si Si3 0.925519 0.734781 0.500000
Si Si4 0.753410 0.891729 0.625830
O O1 0.525682 0.280813 0.298203
O O2 0.252763 0.252763 0.250000
O O3 0.274951 0.155735 0.328096
O O4 0.089212 0.624466 0.960697
O O5 0.129520 0.404481 0.902005
O O6 0.110529 0.806361 0.500000
O O7 0.918715 0.794045 0.617235
#
# Coordination Sequence:
#
# PCOD9562720 Si02
#       4
#    16   8   8  16
#     4   9  19  37  60  87 123 167 211 260 327 400
#     4  11  22  38  64  93 126 166 214 271 336 397
#     4  10  22  42  68  96 128 168 212 267 336 411
#     4  11  23  38  59  88 122 164 217 274 328 389
#
# _framework density 21.565156999999999
#
# number of rings (size 3 to 8) (size 9 to 14) (size 15 to 20)
#    0.000    1.833    0.000    5.000    0.000    4.000 
#    0.000    5.000    0.000   34.000    0.000    0.000 
#    0.000    0.000    0.000    0.000    0.000    0.000 
#
# Total GULP energy -267596.161634 kJ/mol
# GULP energy per Si atom -5574.920034 kJ/mol
# Density = 2.151607 g / cm^3
# Si number density = 21.565157 Si / 1000 Ang^3
#
#
#
# Elastic Constant Matrix: (Units=GPa)
#
#
# Indices 1 2 3 4 5 6 
#
# 1 79.4661 34.3158 63.7161 0.0000 0.0000 0.0000
# 2 34.3158 79.4661 63.7161 0.0000 0.0000 0.0000
# 3 63.7161 63.7161 195.0785 0.0000 0.0000 0.0000
# 4 0.0000 0.0000 0.0000 31.8691 0.0000 0.0000
# 5 0.0000 0.0000 0.0000 0.0000 31.8691 0.0000
# 6 0.0000 0.0000 0.0000 0.0000 0.0000 -6.7910
#
#
#
# Elastic Compliance Matrix: (Units=1/GPa)
#
#
# Indices 1 2 3 4 5 6 
#
# 1 0.018003 -0.004145 -0.004526 0.000000 0.000000 0.000000
# 2 -0.004145 0.018003 -0.004526 0.000000 0.000000 0.000000
# 3 -0.004526 -0.004526 0.008083 0.000000 0.000000 0.000000
# 4 0.000000 0.000000 0.000000 0.031378 0.000000 0.000000
# 5 0.000000 0.000000 0.000000 0.000000 0.031378 0.000000
# 6 0.000000 0.000000 0.000000 0.000000 0.000000 -0.147254
#
#
# Mechanical properties :
#
#
# Convention : Reuss Voigt Hill
#
# Bulk Modulus (GPa) = 56.51691 75.27851 65.89771
# Shear Modulus (GPa) = -616.17851 24.20697 -295.98577
#
# Velocity S-wave (km/s) = -16.92185 3.35401 -11.72816
# Velocity P-wave (km/s) = 18.85562 7.06983 12.36026
#
# Compressibility (1/GPa) = 0.01769382
#
# Stress axis : x y z
#
# Youngs Moduli (GPa) = 55.54587 55.54587 123.71860
#
# Poissons Ratio (x) = 0.23024 0.55998
# Poissons Ratio (y) = 0.23024 0.55998
# Poissons Ratio (z) = 0.25142 0.25142
#
# Static dielectric constant tensor:
#      x y z
#    x 1.815760 0.000000 0.000000 
#    y 0.000000 1.815760 0.000000 
#    z 0.000000 0.000000 1.823500 
# 
# From -- ./inp_files/6766.got.cif
#   From: 2010.05.17/outbox.cif.g08.bks.cpg/sg124_4_cif.got.tgz:6766.got - 2010.05.20 11:49:17.
