data_PCOD9562089
_publ_section_title
;
Structure prediction by ZEFSAII (Michael W. Deem and Ramdas Pophale) SiO2 
 PCOD9562089
Probable space group: P 4/M M M
;
_chemical_formula_sum "Si O2"
_cell_formula_units_Z 96
_cell_length_a 24.478263
_cell_length_b 24.478263
_cell_length_c 8.423468
_cell_angle_alpha 90.000000
_cell_angle_beta 90.000000
_cell_angle_gamma 90.000000
_cell_volume 5047.218702
_symmetry_space_group_name_H-M "P 4/M M M"
_symmetry_group_IT_number 123
_symmetry_cell_setting 'tetragonal'
loop_
_space_group_symop_operation_xyz
x,y,z
-y,x,z
-x,-y,z
y,-x,z
x,-y,-z
-x,y,-z
y,x,-z
-y,-x,-z
-x,-y,-z
y,-x,-z
x,y,-z
-y,x,-z
-x,y,z
x,-y,z
-y,-x,z
y,x,z
loop_
_atom_site_type_symbol
_atom_site_label
_atom_site_fract_x
_atom_site_fract_y
_atom_site_fract_z
Si Si1 0.737784 0.175998 0.309161
Si Si2 0.436421 0.349084 0.191140
Si Si3 0.060921 0.419011 0.684716
Si Si4 0.249653 0.362726 0.319891
Si Si5 0.298186 0.939236 0.812281
Si Si6 0.439351 0.827773 0.173987
O O1 0.729697 0.170877 0.500000
O O2 0.795687 0.204313 0.279807
O O3 0.691801 0.220286 0.253403
O O4 0.732618 0.116295 0.233429
O O5 0.500000 0.344176 0.248064
O O6 0.404968 0.404968 0.240763
O O7 0.395448 0.299488 0.239082
O O8 0.438900 0.348821 0.000000
O O9 0.070776 0.431913 0.500000
O O10 0.062473 0.353931 0.711865
O O11 0.108279 0.441436 0.794446
O O12 0.000000 0.437146 0.726502
O O13 0.265920 0.351635 0.500000
O O14 0.199638 0.404754 0.309822
O O15 0.273043 0.000000 0.784148
O O16 0.311574 0.936748 0.000000
O O17 0.500000 0.804535 0.175054
O O18 0.414829 0.816655 0.000000
#
# Coordination Sequence:
#
# PCOD9562089 Si02
#       6
#    16  16  16  16  16  16
#     4  10  21  36  55  82 114 147 185 227 270 320
#     4  10  22  40  61  84 109 138 174 218 271 333
#     4  10  20  34  52  73  99 135 180 226 272 321
#     4  11  22  37  57  81 109 143 179 218 268 325
#     4  10  20  34  54  80 110 146 187 228 272 321
#     4  11  23  36  51  73 102 137 180 228 274 322
#
# _framework density 19.020375999999999
#
# number of rings (size 3 to 8) (size 9 to 14) (size 15 to 20)
#    0.000    1.667    1.667    3.000    0.000    8.167 
#    0.000    2.500    0.000    0.000    0.000    1.167 
#    0.000    0.333    0.000    3.667    0.000    2.667 
#
# Total GULP energy -535291.614851 kJ/mol
# GULP energy per Si atom -5575.954321 kJ/mol
# Density = 1.897708 g / cm^3
# Si number density = 19.020376 Si / 1000 Ang^3
#
#
#
# Elastic Constant Matrix: (Units=GPa)
#
#
# Indices 1 2 3 4 5 6 
#
# 1 96.4811 66.3718 22.2220 0.0000 0.0000 0.0000
# 2 66.3718 96.4811 22.2220 0.0000 0.0000 0.0000
# 3 22.2220 22.2220 39.8000 0.0000 0.0000 0.0000
# 4 0.0000 0.0000 0.0000 21.9365 0.0000 0.0000
# 5 0.0000 0.0000 0.0000 0.0000 21.9365 0.0000
# 6 0.0000 0.0000 0.0000 0.0000 0.0000 -4.3620
#
#
#
# Elastic Compliance Matrix: (Units=1/GPa)
#
#
# Indices 1 2 3 4 5 6 
#
# 1 0.020228 -0.012984 -0.004045 0.000000 0.000000 0.000000
# 2 -0.012984 0.020228 -0.004045 0.000000 0.000000 0.000000
# 3 -0.004045 -0.004045 0.029642 0.000000 0.000000 0.000000
# 4 0.000000 0.000000 0.000000 0.045586 0.000000 0.000000
# 5 0.000000 0.000000 0.000000 0.000000 0.045586 0.000000
# 6 0.000000 0.000000 0.000000 0.000000 0.000000 -0.229253
#
#
# Mechanical properties :
#
#
# Convention : Reuss Voigt Hill
#
# Bulk Modulus (GPa) = 35.77583 50.48820 43.13202
# Shear Modulus (GPa) = -302.71665 16.03198 -143.34233
#
# Velocity S-wave (km/s) = -12.62931 2.90640 -8.69058
# Velocity P-wave (km/s) = 13.92177 6.15343 8.83037
#
# Compressibility (1/GPa) = 0.02795183
#
# Stress axis : x y z
#
# Youngs Moduli (GPa) = 49.43556 49.43556 33.73547
#
# Poissons Ratio (x) = 0.64187 0.13645
# Poissons Ratio (y) = 0.64187 0.13645
# Poissons Ratio (z) = 0.19996 0.19996
#
# Static dielectric constant tensor:
#      x y z
#    x 1.684300 0.000000 0.000000 
#    y 0.000000 1.684300 0.000000 
#    z 0.000000 0.000000 1.667290 
# 
# From -- ./inp_files/1599.got.cif
#   From: 2010.05.17/outbox.cif.g08.bks.cpg/sg123_1_cif.got.tgz:1599.got - 2010.05.20 11:43:04.
