data_PCOD9562529
_publ_section_title
;
Structure prediction by ZEFSAII (Michael W. Deem and Ramdas Pophale) SiO2 
 PCOD9562529
Probable space group: P 4/M C C
;
_chemical_formula_sum "Si O2"
_cell_formula_units_Z 80
_cell_length_a 16.194294
_cell_length_b 16.194294
_cell_length_c 15.064858
_cell_angle_alpha 90.000000
_cell_angle_beta 90.000000
_cell_angle_gamma 90.000000
_cell_volume 3950.836717
_symmetry_space_group_name_H-M "P 4/M C C"
_symmetry_group_IT_number 124
_symmetry_cell_setting 'tetragonal'
loop_
_space_group_symop_operation_xyz
x,y,z
-y,x,z
-x,-y,z
y,-x,z
x,-y,1/2-z
-x,y,1/2-z
y,x,1/2-z
-y,-x,1/2-z
-x,-y,-z
y,-x,-z
x,y,-z
-y,x,-z
-x,y,1/2+z
x,-y,1/2+z
-y,-x,1/2+z
y,x,1/2+z
loop_
_atom_site_type_symbol
_atom_site_label
_atom_site_fract_x
_atom_site_fract_y
_atom_site_fract_z
Si Si1 0.493577 0.250815 0.141566
Si Si2 0.917993 0.103262 0.356374
Si Si3 0.558512 0.928587 0.603168
Si Si4 0.342840 0.667380 0.851469
Si Si5 0.843105 0.279379 0.395089
O O1 0.500000 0.246116 0.250000
O O2 0.510655 0.158419 0.108846
O O3 0.568113 0.309690 0.109574
O O4 0.406806 0.288389 0.111576
O O5 0.907827 0.092174 0.250000
O O6 0.871744 0.186088 0.382451
O O7 0.013133 0.111925 0.387324
O O8 0.572005 0.951727 0.500000
O O9 0.650182 0.906859 0.640301
O O10 0.500000 0.000000 0.642545
O O11 0.358270 0.641731 0.750000
O O12 0.294694 0.753988 0.852650
O O13 0.833271 0.295412 0.500000
#
# Coordination Sequence:
#
# PCOD9562529 Si02
#       5
#    16  16  16  16  16
#     4   9  18  32  51  74  99 128 163 204 247 295
#     4   9  19  36  55  75 101 132 166 207 256 305
#     4   9  19  35  51  70 101 135 166 205 250 294
#     4   9  18  33  51  73 101 131 166 206 249 297
#     4  10  20  33  51  76 103 133 170 209 251 300
#
# _framework density 20.248875999999999
#
# number of rings (size 3 to 8) (size 9 to 14) (size 15 to 20)
#    0.000    2.800    0.000    1.200    0.000    4.000 
#    0.000    9.000    0.000    0.000    0.000    5.600 
#    0.000    0.000    0.000    0.000    0.000    0.000 
#
# Total GULP energy -445669.920518 kJ/mol
# GULP energy per Si atom -5570.874006 kJ/mol
# Density = 2.020279 g / cm^3
# Si number density = 20.248876 Si / 1000 Ang^3
#
#
#
# Elastic Constant Matrix: (Units=GPa)
#
#
# Indices 1 2 3 4 5 6 
#
# 1 105.3232 67.9783 -10.0126 0.0000 0.0000 0.0000
# 2 67.9783 105.3241 -10.0121 0.0000 0.0000 0.0000
# 3 -10.0126 -10.0121 39.8215 0.0000 0.0000 0.0000
# 4 0.0000 0.0000 0.0000 -206.2611 0.0000 0.0000
# 5 0.0000 0.0000 0.0000 0.0000 -206.1356 0.0000
# 6 0.0000 0.0000 0.0000 0.0000 0.0000 32.7580
#
#
#
# Elastic Compliance Matrix: (Units=1/GPa)
#
#
# Indices 1 2 3 4 5 6 
#
# 1 0.016360 -0.010417 0.001494 0.000000 0.000000 0.000000
# 2 -0.010417 0.016360 0.001494 0.000000 0.000000 0.000000
# 3 0.001494 0.001494 0.025863 0.000000 0.000000 0.000000
# 4 0.000000 0.000000 0.000000 -0.004848 0.000000 0.000000
# 5 0.000000 0.000000 0.000000 0.000000 -0.004851 0.000000
# 6 0.000000 0.000000 0.000000 0.000000 0.000000 0.030527
#
#
# Mechanical properties :
#
#
# Convention : Reuss Voigt Hill
#
# Bulk Modulus (GPa) = 22.86952 38.48621 30.67787
# Shear Modulus (GPa) = 45.93746 -62.42673 -8.24463
#
# Velocity S-wave (km/s) = 4.76819 -5.55848 -2.02002
# Velocity P-wave (km/s) = 6.45236 4.70613 3.12132
#
# Compressibility (1/GPa) = 0.04372632
#
# Stress axis : x y z
#
# Youngs Moduli (GPa) = 61.12430 61.12502 38.66454
#
# Poissons Ratio (x) = 0.63674 -0.05778
# Poissons Ratio (y) = 0.63674 -0.05777
# Poissons Ratio (z) = -0.09135 -0.09132
#
# Static dielectric constant tensor:
#      x y z
#    x 1.714250 0.000000 0.000000 
#    y 0.000000 1.714250 0.000000 
#    z 0.000000 0.000000 1.786910 
# 
# From -- ./inp_files/5085.got.cif
#   From: 2010.05.17/outbox.cif.g08.bks.cpg/sg124_3_cif.got.tgz:5085.got - 2010.05.20 11:49:17.
