data_PCOD9562575
_publ_section_title
;
Structure prediction by ZEFSAII (Michael W. Deem and Ramdas Pophale) SiO2 
 PCOD9562575
Probable space group: P 4/M C C
;
_chemical_formula_sum "Si O2"
_cell_formula_units_Z 56
_cell_length_a 15.519712
_cell_length_b 15.519712
_cell_length_c 11.113249
_cell_angle_alpha 90.000000
_cell_angle_beta 90.000000
_cell_angle_gamma 90.000000
_cell_volume 2676.753386
_symmetry_space_group_name_H-M "P 4/M C C"
_symmetry_group_IT_number 124
_symmetry_cell_setting 'tetragonal'
loop_
_space_group_symop_operation_xyz
x,y,z
-y,x,z
-x,-y,z
y,-x,z
x,-y,1/2-z
-x,y,1/2-z
y,x,1/2-z
-y,-x,1/2-z
-x,-y,-z
y,-x,-z
x,y,-z
-y,x,-z
-x,y,1/2+z
x,-y,1/2+z
-y,-x,1/2+z
y,x,1/2+z
loop_
_atom_site_type_symbol
_atom_site_label
_atom_site_fract_x
_atom_site_fract_y
_atom_site_fract_z
Si Si1 0.000000 0.338409 0.750000
Si Si2 0.665497 0.320861 0.126074
Si Si3 0.848103 0.233899 0.135904
Si Si4 0.444404 0.852373 0.868329
O O1 0.064491 0.282275 0.669339
O O2 0.059360 0.395475 0.837411
O O3 0.636665 0.363336 0.250000
O O4 0.767814 0.301183 0.133517
O O5 0.621839 0.226806 0.122581
O O6 0.647138 0.366312 0.000000
O O7 0.827482 0.172519 0.250000
O O8 0.850644 0.196101 0.000000
O O9 0.500000 0.834947 0.750000
O O10 0.488418 0.858307 0.000000
#
# Coordination Sequence:
#
# PCOD9562575 Si02
#       4
#     8  16  16  16
#     4  12  21  36  60  87 114 152 194 239 288 346
#     4   9  17  35  56  76 103 147 194 233 274 332
#     4  10  20  35  58  82 108 147 195 242 287 339
#     4  11  24  38  54  83 121 154 190 233 285 347
#
# _framework density 20.920866
#
# number of rings (size 3 to 8) (size 9 to 14) (size 15 to 20)
#    0.000    1.714    5.714    1.286    0.000    5.714 
#    0.000    0.000    0.000    0.429    0.000    2.000 
#    0.000    0.571    0.000    6.286    0.000    4.571 
#
# Total GULP energy -312205.058570 kJ/mol
# GULP energy per Si atom -5575.090332 kJ/mol
# Density = 2.087325 g / cm^3
# Si number density = 20.920866 Si / 1000 Ang^3
#
#
#
# Elastic Constant Matrix: (Units=GPa)
#
#
# Indices 1 2 3 4 5 6 
#
# 1 -63.2785 93.7015 25.0664 0.0000 0.0000 0.0000
# 2 93.7015 -63.2997 25.0685 0.0000 0.0000 0.0000
# 3 25.0664 25.0685 266.4560 0.0000 0.0000 0.0000
# 4 0.0000 0.0000 0.0000 18.8573 0.0000 0.0000
# 5 0.0000 0.0000 0.0000 0.0000 18.8572 0.0000
# 6 0.0000 0.0000 0.0000 0.0000 0.0000 -0.1287
#
#
#
# Elastic Compliance Matrix: (Units=1/GPa)
#
#
# Indices 1 2 3 4 5 6 
#
# 1 0.016276 0.022643 -0.003661 0.000000 0.000000 0.000000
# 2 0.022643 0.016271 -0.003661 0.000000 0.000000 0.000000
# 3 -0.003661 -0.003661 0.004442 0.000000 0.000000 0.000000
# 4 0.000000 0.000000 0.000000 0.053030 0.000000 0.000000
# 5 0.000000 0.000000 0.000000 0.000000 0.053030 0.000000
# 6 0.000000 0.000000 0.000000 0.000000 0.000000 -7.768947
#
#
# Mechanical properties :
#
#
# Convention : Reuss Voigt Hill
#
# Bulk Modulus (GPa) = 14.78619 47.50562 31.14591
# Shear Modulus (GPa) = -0.65496 7.25325 3.29914
#
# Velocity S-wave (km/s) = -0.56013 1.86401 1.25713
# Velocity P-wave (km/s) = 2.58161 5.23348 4.12638
#
# Compressibility (1/GPa) = 0.06763066
#
# Stress axis : x y z
#
# Youngs Moduli (GPa) = 61.43952 61.45977 225.13229
#
# Poissons Ratio (x) = -1.39165 0.82431
# Poissons Ratio (y) = -1.39119 0.82419
# Poissons Ratio (z) = 0.22496 0.22500
#
# Static dielectric constant tensor:
#      x y z
#    x 1.742880 0.000000 0.000000 
#    y 0.000000 1.742880 0.000000 
#    z 0.000000 0.000000 1.880730 
# 
# From -- ./inp_files/2115.got.cif
#   From: 2010.05.17/outbox.cif.g08.bks.cpg/sg124_2_cif.got.tgz:2115.got - 2010.05.20 11:49:17.
