data_PCOD9562386
_publ_section_title
;
Structure prediction by ZEFSAII (Michael W. Deem and Ramdas Pophale) SiO2 
 PCOD9562386
Probable space group: P 4/M C C
;
_chemical_formula_sum "Si O2"
_cell_formula_units_Z 120
_cell_length_a 28.592287
_cell_length_b 28.592287
_cell_length_c 9.184651
_cell_angle_alpha 90.000000
_cell_angle_beta 90.000000
_cell_angle_gamma 90.000000
_cell_volume 7508.625561
_symmetry_space_group_name_H-M "P 4/M C C"
_symmetry_group_IT_number 124
_symmetry_cell_setting 'tetragonal'
loop_
_space_group_symop_operation_xyz
x,y,z
-y,x,z
-x,-y,z
y,-x,z
x,-y,1/2-z
-x,y,1/2-z
y,x,1/2-z
-y,-x,1/2-z
-x,-y,-z
y,-x,-z
x,y,-z
-y,x,-z
-x,y,1/2+z
x,-y,1/2+z
-y,-x,1/2+z
y,x,1/2+z
loop_
_atom_site_type_symbol
_atom_site_label
_atom_site_fract_x
_atom_site_fract_y
_atom_site_fract_z
Si Si1 0.923951 0.854629 0.337317
Si Si2 0.736511 0.193123 0.828607
Si Si3 0.920255 0.000000 0.250000
Si Si4 0.847520 0.547885 0.825407
Si Si5 0.357106 0.175649 0.166550
Si Si6 0.572700 0.955034 0.328245
Si Si7 0.917859 0.240901 0.670883
Si Si8 0.332953 0.065331 0.165534
O O1 0.887042 0.887042 0.250000
O O2 0.906079 0.845106 0.500000
O O3 0.972876 0.882563 0.349360
O O4 0.930261 0.807600 0.246938
O O5 0.774465 0.225536 0.750000
O O6 0.685843 0.198912 0.752946
O O7 0.751612 0.138499 0.816579
O O8 0.733784 0.203955 0.000000
O O9 0.957608 0.042393 0.250000
O O10 0.831214 0.500000 0.750000
O O11 0.824436 0.593810 0.752852
O O12 0.903726 0.551734 0.798040
O O13 0.840788 0.547617 0.000000
O O14 0.342064 0.121122 0.157395
O O15 0.361962 0.192686 0.000000
O O16 0.571995 0.962401 0.500000
O O17 0.625285 0.951876 0.266745
O O18 0.551071 0.000000 0.250000
O O19 0.929715 0.241395 0.500000
O O20 0.941416 0.283503 0.757149
O O21 0.334788 0.046942 0.000000
#
# Coordination Sequence:
#
# PCOD9562386 Si02
#       8
#    16  16   8  16  16  16  16  16
#     4  11  23  39  59  81 102 120 140 168 203 244
#     4  10  19  30  47  72 101 132 162 190 224 270
#     4   9  22  44  66  82  94 110 134 164 201 246
#     4  10  20  33  49  68  90 118 154 196 241 286
#     4   9  17  30  48  68  92 121 154 193 233 275
#     4  10  20  33  48  66  89 117 151 191 233 278
#     4  10  20  34  52  75 103 129 153 181 213 254
#     4   9  17  31  50  69  91 121 153 182 219 264
#
# _framework density 15.981621000000001
#
# number of rings (size 3 to 8) (size 9 to 14) (size 15 to 20)
#    0.000    2.200    0.000    3.200    0.000   10.400 
#    1.200    4.000    0.000    0.000    0.000    0.000 
#    0.000    0.000    0.000    0.000    0.000    0.000 
#
# Total GULP energy -668553.568321 kJ/mol
# GULP energy per Si atom -5571.279736 kJ/mol
# Density = 1.594525 g / cm^3
# Si number density = 15.981621 Si / 1000 Ang^3
#
#
#
# Elastic Constant Matrix: (Units=GPa)
#
#
# Indices 1 2 3 4 5 6 
#
# 1 98.1656 -19.6281 30.5862 0.0000 0.0000 0.0000
# 2 -19.6281 98.1700 30.5861 0.0000 0.0000 0.0000
# 3 30.5862 30.5861 85.7771 0.0000 0.0000 0.0000
# 4 0.0000 0.0000 0.0000 13.5105 0.0000 0.0000
# 5 0.0000 0.0000 0.0000 0.0000 13.5114 0.0000
# 6 0.0000 0.0000 0.0000 0.0000 0.0000 0.4001
#
#
#
# Elastic Compliance Matrix: (Units=1/GPa)
#
#
# Indices 1 2 3 4 5 6 
#
# 1 0.013059 0.004569 -0.006286 0.000000 0.000000 0.000000
# 2 0.004569 0.013058 -0.006286 0.000000 0.000000 0.000000
# 3 -0.006286 -0.006286 0.016141 0.000000 0.000000 0.000000
# 4 0.000000 0.000000 0.000000 0.074016 0.000000 0.000000
# 5 0.000000 0.000000 0.000000 0.000000 0.074011 0.000000
# 6 0.000000 0.000000 0.000000 0.000000 0.000000 2.499120
#
#
# Mechanical properties :
#
#
# Convention : Reuss Voigt Hill
#
# Bulk Modulus (GPa) = 38.08931 40.57790 39.33360
# Shear Modulus (GPa) = 1.84219 21.52232 11.68226
#
# Velocity S-wave (km/s) = 1.07480 3.67371 2.70660
# Velocity P-wave (km/s) = 5.04234 6.59093 5.86794
#
# Compressibility (1/GPa) = 0.02625409
#
# Stress axis : x y z
#
# Youngs Moduli (GPa) = 76.57498 76.57892 61.95447
#
# Poissons Ratio (x) = -0.34993 0.38944
# Poissons Ratio (y) = -0.34991 0.38943
# Poissons Ratio (z) = 0.48135 0.48135
#
# Static dielectric constant tensor:
#      x y z
#    x 1.530720 0.000000 0.000000 
#    y 0.000000 1.530720 0.000000 
#    z 0.000000 0.000000 1.553100 
# 
# From -- ./inp_files/1691.got.cif
#   From: 2010.05.17/outbox.cif.g08.bks.cpg/sg124_1_cif.got.tgz:1691.got - 2010.05.20 11:49:17.
