data_PCOD9562432
_publ_section_title
;
Structure prediction by ZEFSAII (Michael W. Deem and Ramdas Pophale) SiO2 
 PCOD9562432
Probable space group: P 4/M C C
;
_chemical_formula_sum "Si O2"
_cell_formula_units_Z 96
_cell_length_a 24.147376
_cell_length_b 24.147376
_cell_length_c 9.359544
_cell_angle_alpha 90.000000
_cell_angle_beta 90.000000
_cell_angle_gamma 90.000000
_cell_volume 5457.510494
_symmetry_space_group_name_H-M "P 4/M C C"
_symmetry_group_IT_number 124
_symmetry_cell_setting 'tetragonal'
loop_
_space_group_symop_operation_xyz
x,y,z
-y,x,z
-x,-y,z
y,-x,z
x,-y,1/2-z
-x,y,1/2-z
y,x,1/2-z
-y,-x,1/2-z
-x,-y,-z
y,-x,-z
x,y,-z
-y,x,-z
-x,y,1/2+z
x,-y,1/2+z
-y,-x,1/2+z
y,x,1/2+z
loop_
_atom_site_type_symbol
_atom_site_label
_atom_site_fract_x
_atom_site_fract_y
_atom_site_fract_z
Si Si1 0.754924 0.320410 0.669434
Si Si2 0.446085 0.208046 0.327469
Si Si3 0.446431 0.088811 0.173507
Si Si4 0.252223 0.847835 0.338887
Si Si5 0.127699 0.127699 0.250000
Si Si6 0.055273 0.922497 0.500000
Si Si7 0.328135 0.045742 0.158459
O O1 0.700481 0.299520 0.750000
O O2 0.751886 0.312029 0.500000
O O3 0.764979 0.385753 0.693840
O O4 0.803701 0.281087 0.733849
O O5 0.500000 0.234913 0.250000
O O6 0.454996 0.201967 0.500000
O O7 0.441422 0.149246 0.245838
O O8 0.500000 0.063650 0.250000
O O9 0.389748 0.058399 0.210874
O O10 0.451580 0.091876 0.000000
O O11 0.247420 0.824222 0.500000
O O12 0.192319 0.873073 0.298004
O O13 0.294883 0.898030 0.343051
O O14 0.110826 0.083040 0.369534
O O15 0.987808 0.925229 0.500000
O O16 0.298243 0.000000 0.250000
O O17 0.333456 0.023308 0.000000
#
# Coordination Sequence:
#
# PCOD9562432 Si02
#       7
#    16  16  16  16   8   8  16
#     4  11  23  36  59  88 120 159 199 241 288 343
#     4  10  20  34  55  84 113 152 199 241 288 341
#     4  10  19  33  53  76 104 144 191 238 285 332
#     4  11  23  41  59  85 117 149 187 227 284 354
#     4  12  24  43  68  94 116 146 184 224 287 362
#     4  11  26  48  72  94 116 142 182 238 300 370
#     4  10  23  39  54  76 108 144 184 235 287 337
#
# _framework density 17.590437999999999
#
# number of rings (size 3 to 8) (size 9 to 14) (size 15 to 20)
#    0.000    1.417    3.333    3.000    1.167    6.333 
#    0.000    1.667    0.000    0.000    0.000    0.000 
#    0.000    0.333    0.000    3.667    0.000    2.667 
#
# Total GULP energy -534849.479345 kJ/mol
# GULP energy per Si atom -5571.348743 kJ/mol
# Density = 1.755040 g / cm^3
# Si number density = 17.590438 Si / 1000 Ang^3
#
#
#
# Elastic Constant Matrix: (Units=GPa)
#
#
# Indices 1 2 3 4 5 6 
#
# 1 102.0531 38.3273 45.1833 0.0000 0.0000 0.0000
# 2 38.3273 102.0507 45.1839 0.0000 0.0000 0.0000
# 3 45.1833 45.1839 100.1983 0.0000 0.0000 0.0000
# 4 0.0000 0.0000 0.0000 28.0572 0.0000 0.0000
# 5 0.0000 0.0000 0.0000 0.0000 28.0577 0.0000
# 6 0.0000 0.0000 0.0000 0.0000 0.0000 12.0166
#
#
#
# Elastic Compliance Matrix: (Units=1/GPa)
#
#
# Indices 1 2 3 4 5 6 
#
# 1 0.012865 -0.002828 -0.004526 0.000000 0.000000 0.000000
# 2 -0.002828 0.012865 -0.004526 0.000000 0.000000 0.000000
# 3 -0.004526 -0.004526 0.014062 0.000000 0.000000 0.000000
# 4 0.000000 0.000000 0.000000 0.035642 0.000000 0.000000
# 5 0.000000 0.000000 0.000000 0.000000 0.035641 0.000000
# 6 0.000000 0.000000 0.000000 0.000000 0.000000 0.083218
#
#
# Mechanical properties :
#
#
# Convention : Reuss Voigt Hill
#
# Bulk Modulus (GPa) = 62.37535 62.41010 62.39272
# Shear Modulus (GPa) = 22.38172 25.33347 23.85759
#
# Velocity S-wave (km/s) = 3.57091 3.79909 3.68677
# Velocity P-wave (km/s) = 7.24836 7.40275 7.32596
#
# Compressibility (1/GPa) = 0.01603198
#
# Stress axis : x y z
#
# Youngs Moduli (GPa) = 77.73234 77.72954 71.11204
#
# Poissons Ratio (x) = 0.21979 0.32186
# Poissons Ratio (y) = 0.21980 0.32188
# Poissons Ratio (z) = 0.35182 0.35183
#
# Static dielectric constant tensor:
#      x y z
#    x 1.618530 0.000000 0.000000 
#    y 0.000000 1.618530 0.000000 
#    z 0.000000 0.000000 1.662230 
# 
# From -- ./inp_files/1434.got.cif
#   From: 2010.05.17/outbox.cif.g08.bks.cpg/sg124_1_cif.got.tgz:1434.got - 2010.05.20 11:49:17.
