data_PCOD9562230
_publ_section_title
;
Structure prediction by ZEFSAII (Michael W. Deem and Ramdas Pophale) SiO2 
 PCOD9562230
Probable space group: P 4/M M M
;
_chemical_formula_sum "Si O2"
_cell_formula_units_Z 96
_cell_length_a 24.673882
_cell_length_b 24.673882
_cell_length_c 8.198202
_cell_angle_alpha 90.000000
_cell_angle_beta 90.000000
_cell_angle_gamma 90.000000
_cell_volume 4991.069091
_symmetry_space_group_name_H-M "P 4/M M M"
_symmetry_group_IT_number 123
_symmetry_cell_setting 'tetragonal'
loop_
_space_group_symop_operation_xyz
x,y,z
-y,x,z
-x,-y,z
y,-x,z
x,-y,-z
-x,y,-z
y,x,-z
-y,-x,-z
-x,-y,-z
y,-x,-z
x,y,-z
-y,x,-z
-x,y,z
x,-y,z
-y,-x,z
y,x,z
loop_
_atom_site_type_symbol
_atom_site_label
_atom_site_fract_x
_atom_site_fract_y
_atom_site_fract_z
Si Si1 0.736016 0.179438 0.301197
Si Si2 0.437163 0.350645 0.196004
Si Si3 0.059696 0.419362 0.690976
Si Si4 0.251133 0.363282 0.316389
Si Si5 0.288876 0.940494 0.692978
Si Si6 0.439549 0.827104 0.178890
O O1 0.728916 0.177474 0.500000
O O2 0.793737 0.206264 0.266364
O O3 0.690434 0.222787 0.243107
O O4 0.730115 0.117794 0.239746
O O5 0.500000 0.345462 0.255993
O O6 0.404917 0.404917 0.252014
O O7 0.397173 0.300097 0.236768
O O8 0.440362 0.352846 0.000000
O O9 0.066751 0.433673 0.500000
O O10 0.061129 0.354133 0.701733
O O11 0.109100 0.440653 0.794641
O O12 0.000000 0.437054 0.742764
O O13 0.268048 0.351097 0.500000
O O14 0.200395 0.403856 0.314312
O O15 0.274637 0.941112 0.500000
O O16 0.271864 0.000000 0.760473
O O17 0.500000 0.804992 0.185853
O O18 0.416707 0.814206 0.000000
#
# Coordination Sequence:
#
# PCOD9562230 Si02
#       6
#    16  16  16  16  16  16
#     4   9  16  26  44  72 100 123 154 200 249 295
#     4  10  22  40  60  81 105 132 162 199 247 305
#     4   9  17  31  50  69  90 121 165 211 252 296
#     4  11  21  35  54  76 101 131 165 204 253 304
#     4   8  13  24  43  66  93 124 157 196 242 289
#     4  11  23  35  47  66  95 130 168 210 253 299
#
# _framework density 19.234355000000001
#
# number of rings (size 3 to 8) (size 9 to 14) (size 15 to 20)
#    0.000    2.333    1.667    3.000    0.000    5.500 
#    0.000    2.500    0.000    0.000    0.000    1.167 
#    0.000    0.333    0.000    4.667    0.000    0.000 
#
# Total GULP energy -534810.652135 kJ/mol
# GULP energy per Si atom -5570.944293 kJ/mol
# Density = 1.919058 g / cm^3
# Si number density = 19.234355 Si / 1000 Ang^3
#
#
#
# Elastic Constant Matrix: (Units=GPa)
#
#
# Indices 1 2 3 4 5 6 
#
# 1 108.2459 79.1924 12.7737 0.0000 0.0000 0.0000
# 2 79.1924 108.2459 12.7737 0.0000 0.0000 0.0000
# 3 12.7737 12.7737 20.5394 0.0000 0.0000 0.0000
# 4 0.0000 0.0000 0.0000 9.0036 0.0000 0.0000
# 5 0.0000 0.0000 0.0000 0.0000 9.0036 0.0000
# 6 0.0000 0.0000 0.0000 0.0000 0.0000 37.5743
#
#
#
# Elastic Compliance Matrix: (Units=1/GPa)
#
#
# Indices 1 2 3 4 5 6 
#
# 1 0.020124 -0.014295 -0.003625 0.000000 0.000000 0.000000
# 2 -0.014295 0.020124 -0.003625 0.000000 0.000000 0.000000
# 3 -0.003625 -0.003625 0.053196 0.000000 0.000000 0.000000
# 4 0.000000 0.000000 0.000000 0.111067 0.000000 0.000000
# 5 0.000000 0.000000 0.000000 0.000000 0.111067 0.000000
# 6 0.000000 0.000000 0.000000 0.000000 0.000000 0.026614
#
#
# Mechanical properties :
#
#
# Convention : Reuss Voigt Hill
#
# Bulk Modulus (GPa) = 19.85956 49.61231 34.73594
# Shear Modulus (GPa) = 12.43569 19.93572 16.18570
#
# Velocity S-wave (km/s) = 2.54546 3.22291 2.90401
# Velocity P-wave (km/s) = 4.35737 6.30072 5.41691
#
# Compressibility (1/GPa) = 0.05035358
#
# Stress axis : x y z
#
# Youngs Moduli (GPa) = 49.69132 49.69132 18.79834
#
# Poissons Ratio (x) = 0.71034 0.06815
# Poissons Ratio (y) = 0.71034 0.06815
# Poissons Ratio (z) = 0.18014 0.18014
#
# Static dielectric constant tensor:
#      x y z
#    x 1.695030 0.000000 0.000000 
#    y 0.000000 1.695030 0.000000 
#    z 0.000000 0.000000 1.703510 
# 
# From -- ./inp_files/1598.got.cif
#   From: 2010.05.17/outbox.cif.g08.bks.cpg/sg123_1_cif.got.tgz:1598.got - 2010.05.20 11:43:04.
