data_PCOD9562759
_publ_section_title
;
Structure prediction by ZEFSAII (Michael W. Deem and Ramdas Pophale) SiO2 
 PCOD9562759
Probable space group: P 4/M C C
;
_chemical_formula_sum "Si O2"
_cell_formula_units_Z 48
_cell_length_a 18.311649
_cell_length_b 18.311649
_cell_length_c 8.507880
_cell_angle_alpha 90.000000
_cell_angle_beta 90.000000
_cell_angle_gamma 90.000000
_cell_volume 2852.832451
_symmetry_space_group_name_H-M "P 4/M C C"
_symmetry_group_IT_number 124
_symmetry_cell_setting 'tetragonal'
loop_
_space_group_symop_operation_xyz
x,y,z
-y,x,z
-x,-y,z
y,-x,z
x,-y,1/2-z
-x,y,1/2-z
y,x,1/2-z
-y,-x,1/2-z
-x,-y,-z
y,-x,-z
x,y,-z
-y,x,-z
-x,y,1/2+z
x,-y,1/2+z
-y,-x,1/2+z
y,x,1/2+z
loop_
_atom_site_type_symbol
_atom_site_label
_atom_site_fract_x
_atom_site_fract_y
_atom_site_fract_z
Si Si1 0.579265 0.082797 0.312117
Si Si2 0.315684 0.579582 0.812074
Si Si3 0.692846 0.803115 0.686228
O O1 0.500000 0.112049 0.250000
O O2 0.576045 0.084384 0.500000
O O3 0.651625 0.126202 0.256644
O O4 0.583952 0.000000 0.250000
O O5 0.299840 0.500000 0.750000
O O6 0.394126 0.605875 0.750000
O O7 0.258745 0.634113 0.731705
O O8 0.310521 0.584826 0.000000
O O9 0.769851 0.769851 0.750000
O O10 0.698994 0.811067 0.500000
#
# Coordination Sequence:
#
# PCOD9562759 Si02
#       3
#    16  16  16
#     4  11  21  35  53  77 105 137 172 212 256 305
#     4  11  21  34  48  65  86 115 153 197 243 290
#     4  11  21  35  52  73  98 129 164 203 246 296
#
# _framework density 16.825382999999999
#
# number of rings (size 3 to 8) (size 9 to 14) (size 15 to 20)
#    0.000    1.000    0.000   13.000    0.000    0.333 
#    0.000    1.667    0.000    0.000    0.000    0.000 
#    0.000    0.667    0.000    6.667    0.000    4.000 
#
# Total GULP energy -267782.038423 kJ/mol
# GULP energy per Si atom -5578.792467 kJ/mol
# Density = 1.678709 g / cm^3
# Si number density = 16.825383 Si / 1000 Ang^3
#
#
#
# Elastic Constant Matrix: (Units=GPa)
#
#
# Indices 1 2 3 4 5 6 
#
# 1 74.7857 33.8272 30.7310 0.0000 0.0000 0.0000
# 2 33.8272 74.7880 30.7307 0.0000 0.0000 0.0000
# 3 30.7310 30.7307 170.0543 0.0000 0.0000 0.0000
# 4 0.0000 0.0000 0.0000 27.8389 0.0000 0.0000
# 5 0.0000 0.0000 0.0000 0.0000 27.8384 0.0000
# 6 0.0000 0.0000 0.0000 0.0000 0.0000 27.2075
#
#
#
# Elastic Compliance Matrix: (Units=1/GPa)
#
#
# Indices 1 2 3 4 5 6 
#
# 1 0.017335 -0.007079 -0.001853 0.000000 0.000000 0.000000
# 2 -0.007079 0.017335 -0.001853 0.000000 0.000000 0.000000
# 3 -0.001853 -0.001853 0.006550 0.000000 0.000000 0.000000
# 4 0.000000 0.000000 0.000000 0.035921 0.000000 0.000000
# 5 0.000000 0.000000 0.000000 0.000000 0.035922 0.000000
# 6 0.000000 0.000000 0.000000 0.000000 0.000000 0.036755
#
#
# Mechanical properties :
#
#
# Convention : Reuss Voigt Hill
#
# Bulk Modulus (GPa) = 50.89490 56.68954 53.79222
# Shear Modulus (GPa) = 28.09958 31.53291 29.81625
#
# Velocity S-wave (km/s) = 4.09108 4.33382 4.21420
# Velocity P-wave (km/s) = 7.25469 7.66868 7.46455
#
# Compressibility (1/GPa) = 0.01964833
#
# Stress axis : x y z
#
# Youngs Moduli (GPa) = 57.68595 57.68794 152.66455
#
# Poissons Ratio (x) = 0.40839 0.28295
# Poissons Ratio (y) = 0.40838 0.28292
# Poissons Ratio (z) = 0.10691 0.10691
#
# Static dielectric constant tensor:
#      x y z
#    x 1.880550 0.000000 0.000000 
#    y 0.000000 1.880860 0.000000 
#    z 0.000000 0.000000 1.560560 
# 
# From -- ./inp_files/474.got.cif
#   From: 2010.05.17/outbox.cif.g08.bks.cpg/sg124_1_cif.got.tgz:474.got - 2010.05.20 11:49:17.
