data_PCOD9562608
_publ_section_title
;
Structure prediction by ZEFSAII (Michael W. Deem and Ramdas Pophale) SiO2 
 PCOD9562608
Probable space group: P 4/M C C
;
_chemical_formula_sum "Si O2"
_cell_formula_units_Z 88
_cell_length_a 16.402385
_cell_length_b 16.402385
_cell_length_c 17.889791
_cell_angle_alpha 90.000000
_cell_angle_beta 90.000000
_cell_angle_gamma 90.000000
_cell_volume 4813.037772
_symmetry_space_group_name_H-M "P 4/M C C"
_symmetry_group_IT_number 124
_symmetry_cell_setting 'tetragonal'
loop_
_space_group_symop_operation_xyz
x,y,z
-y,x,z
-x,-y,z
y,-x,z
x,-y,1/2-z
-x,y,1/2-z
y,x,1/2-z
-y,-x,1/2-z
-x,-y,-z
y,-x,-z
x,y,-z
-y,x,-z
-x,y,1/2+z
x,-y,1/2+z
-y,-x,1/2+z
y,x,1/2+z
loop_
_atom_site_type_symbol
_atom_site_label
_atom_site_fract_x
_atom_site_fract_y
_atom_site_fract_z
Si Si1 0.271392 0.999653 0.872731
Si Si2 0.999634 0.862970 0.500000
Si Si3 0.071036 0.442379 0.085525
Si Si4 0.774773 0.573849 0.192669
Si Si5 0.440268 0.376749 0.587696
Si Si6 0.729603 0.136002 0.744233
O O1 0.281283 0.087512 0.833320
O O2 0.352683 0.968449 0.913431
O O3 0.261977 0.933262 0.807290
O O4 0.195368 0.000399 0.928066
O O5 0.921158 0.921571 0.500000
O O6 0.151416 0.446437 0.135550
O O7 0.000000 0.500000 0.116958
O O8 0.089129 0.466347 0.000000
O O9 0.761754 0.500000 0.250000
O O10 0.693632 0.587957 0.143690
O O11 0.806749 0.652776 0.237048
O O12 0.536773 0.394905 0.599289
O O13 0.429271 0.354129 0.500000
O O14 0.809307 0.190694 0.750000
#
# Coordination Sequence:
#
# PCOD9562608 Si02
#       6
#    16   8  16  16  16  16
#     4  10  20  39  59  81 116 152 190 240 293 348
#     4  11  22  36  61  90 114 148 201 250 288 343
#     4  10  20  37  60  82 112 153 196 237 293 345
#     4  11  23  35  58  87 122 149 196 245 286 349
#     4   9  20  40  63  84 115 160 199 242 294 341
#     4  10  22  37  57  83 118 155 187 231 298 357
#
# _framework density 18.283671999999999
#
# number of rings (size 3 to 8) (size 9 to 14) (size 15 to 20)
#    0.000    1.909    0.909    3.273    2.545    1.818 
#    0.000    0.909    0.000    4.364    0.000    0.000 
#    0.000    0.000    0.000    0.000    0.000    0.000 
#
# Total GULP energy -491209.692812 kJ/mol
# GULP energy per Si atom -5581.928327 kJ/mol
# Density = 1.824206 g / cm^3
# Si number density = 18.283672 Si / 1000 Ang^3
#
#
#
# Elastic Constant Matrix: (Units=GPa)
#
#
# Indices 1 2 3 4 5 6 
#
# 1 66.3180 28.1949 22.3581 0.0000 0.0000 0.0000
# 2 28.1949 66.3233 22.3620 0.0000 0.0000 0.0000
# 3 22.3581 22.3620 60.9790 0.0000 0.0000 0.0000
# 4 0.0000 0.0000 0.0000 6.3003 0.0000 0.0000
# 5 0.0000 0.0000 0.0000 0.0000 6.2970 0.0000
# 6 0.0000 0.0000 0.0000 0.0000 0.0000 26.4642
#
#
#
# Elastic Compliance Matrix: (Units=1/GPa)
#
#
# Indices 1 2 3 4 5 6 
#
# 1 0.019516 -0.006714 -0.004693 0.000000 0.000000 0.000000
# 2 -0.006714 0.019515 -0.004695 0.000000 0.000000 0.000000
# 3 -0.004693 -0.004695 0.019842 0.000000 0.000000 0.000000
# 4 0.000000 0.000000 0.000000 0.158722 0.000000 0.000000
# 5 0.000000 0.000000 0.000000 0.000000 0.158805 0.000000
# 6 0.000000 0.000000 0.000000 0.000000 0.000000 0.037787
#
#
# Mechanical properties :
#
#
# Convention : Reuss Voigt Hill
#
# Bulk Modulus (GPa) = 37.49819 37.71671 37.60745
# Shear Modulus (GPa) = 10.98228 15.85934 13.42081
#
# Velocity S-wave (km/s) = 2.45350 2.94837 2.71224
# Velocity P-wave (km/s) = 5.34601 5.68013 5.51560
#
# Compressibility (1/GPa) = 0.02666795
#
# Stress axis : x y z
#
# Youngs Moduli (GPa) = 51.24123 51.24340 50.39932
#
# Poissons Ratio (x) = 0.34404 0.23654
# Poissons Ratio (y) = 0.34403 0.23661
# Poissons Ratio (z) = 0.24049 0.24057
#
# Static dielectric constant tensor:
#      x y z
#    x 1.611120 0.000000 0.000000 
#    y 0.000000 1.611120 0.000000 
#    z 0.000000 0.000000 2.387090 
# 
# From -- ./inp_files/5176.got.cif
#   From: 2010.05.17/outbox.cif.g08.bks.cpg/sg124_3_cif.got.tgz:5176.got - 2010.05.20 11:49:17.
