data_PCOD9562562
_publ_section_title
;
Structure prediction by ZEFSAII (Michael W. Deem and Ramdas Pophale) SiO2 
 PCOD9562562
Probable space group: P 4/M C C
;
_chemical_formula_sum "Si O2"
_cell_formula_units_Z 96
_cell_length_a 24.700276
_cell_length_b 24.700276
_cell_length_c 8.604343
_cell_angle_alpha 90.000000
_cell_angle_beta 90.000000
_cell_angle_gamma 90.000000
_cell_volume 5249.540937
_symmetry_space_group_name_H-M "P 4/M C C"
_symmetry_group_IT_number 124
_symmetry_cell_setting 'tetragonal'
loop_
_space_group_symop_operation_xyz
x,y,z
-y,x,z
-x,-y,z
y,-x,z
x,-y,1/2-z
-x,y,1/2-z
y,x,1/2-z
-y,-x,1/2-z
-x,-y,-z
y,-x,-z
x,y,-z
-y,x,-z
-x,y,1/2+z
x,-y,1/2+z
-y,-x,1/2+z
y,x,1/2+z
loop_
_atom_site_type_symbol
_atom_site_label
_atom_site_fract_x
_atom_site_fract_y
_atom_site_fract_z
Si Si1 0.146342 0.230945 0.812478
Si Si2 0.060690 0.442624 0.314751
Si Si3 0.558055 0.766746 0.313070
Si Si4 0.642185 0.442101 0.685971
Si Si5 0.356973 0.856187 0.812101
Si Si6 0.939038 0.146127 0.813496
O O1 0.198891 0.198891 0.750000
O O2 0.145618 0.294045 0.766267
O O3 0.094895 0.198115 0.746174
O O4 0.145625 0.227430 0.000000
O O5 0.082753 0.500000 0.250000
O O6 0.060050 0.445236 0.500000
O O7 0.094659 0.391442 0.257160
O O8 0.000000 0.437968 0.250000
O O9 0.500000 0.785938 0.250000
O O10 0.555370 0.768022 0.500000
O O11 0.565102 0.704559 0.262958
O O12 0.608528 0.803371 0.264404
O O13 0.623392 0.500000 0.750000
O O14 0.605063 0.394937 0.750000
O O15 0.640671 0.442743 0.500000
O O16 0.358334 0.859906 0.000000
O O17 0.905594 0.094407 0.750000
O O18 0.000000 0.146671 0.750000
O O19 0.938935 0.145266 0.000000
#
# Coordination Sequence:
#
# PCOD9562562 Si02
#       6
#    16  16  16  16  16  16
#     4  10  21  38  58  81 113 150 187 230 277 325
#     4  11  22  37  57  81 112 147 183 227 278 330
#     4   9  19  35  54  77 106 139 175 220 271 322
#     4  10  20  35  54  77 105 137 174 216 266 322
#     4  10  21  37  57  82 111 145 187 230 273 326
#     4  11  22  39  62  88 118 151 188 228 274 324
#
# _framework density 18.287313000000001
#
# number of rings (size 3 to 8) (size 9 to 14) (size 15 to 20)
#    0.000    1.833    0.000    6.000    0.000    5.667 
#    0.000    1.667    0.000    0.000    0.000    0.000 
#    0.000    0.000    0.000    0.000    0.000    0.000 
#
# Total GULP energy -536180.014297 kJ/mol
# GULP energy per Si atom -5585.208482 kJ/mol
# Density = 1.824569 g / cm^3
# Si number density = 18.287313 Si / 1000 Ang^3
#
#
#
# Elastic Constant Matrix: (Units=GPa)
#
#
# Indices 1 2 3 4 5 6 
#
# 1 170.1702 99.3290 53.0687 0.0000 0.0000 0.0000
# 2 99.3290 170.1774 53.0696 0.0000 0.0000 0.0000
# 3 53.0687 53.0696 81.5260 0.0000 0.0000 0.0000
# 4 0.0000 0.0000 0.0000 27.1180 0.0000 0.0000
# 5 0.0000 0.0000 0.0000 0.0000 27.1177 0.0000
# 6 0.0000 0.0000 0.0000 0.0000 0.0000 35.2600
#
#
#
# Elastic Compliance Matrix: (Units=1/GPa)
#
#
# Indices 1 2 3 4 5 6 
#
# 1 0.009553 -0.004563 -0.003248 0.000000 0.000000 0.000000
# 2 -0.004563 0.009552 -0.003248 0.000000 0.000000 0.000000
# 3 -0.003248 -0.003248 0.016495 0.000000 0.000000 0.000000
# 4 0.000000 0.000000 0.000000 0.036876 0.000000 0.000000
# 5 0.000000 0.000000 0.000000 0.000000 0.036876 0.000000
# 6 0.000000 0.000000 0.000000 0.000000 0.000000 0.028361
#
#
# Mechanical properties :
#
#
# Convention : Reuss Voigt Hill
#
# Bulk Modulus (GPa) = 74.17356 92.53425 83.35391
# Shear Modulus (GPa) = 30.42762 32.32623 31.37693
#
# Velocity S-wave (km/s) = 4.08348 4.20895 4.14669
# Velocity P-wave (km/s) = 7.92977 8.62151 8.28286
#
# Compressibility (1/GPa) = 0.01348189
#
# Stress axis : x y z
#
# Youngs Moduli (GPa) = 104.68194 104.68659 60.62582
#
# Poissons Ratio (x) = 0.47767 0.19692
# Poissons Ratio (y) = 0.47765 0.19691
# Poissons Ratio (z) = 0.34002 0.34002
#
# Static dielectric constant tensor:
#      x y z
#    x 1.615660 0.000000 0.000000 
#    y 0.000000 1.615660 0.000000 
#    z 0.000000 0.000000 1.617530 
# 
# From -- ./inp_files/1330.got.cif
#   From: 2010.05.17/outbox.cif.g08.bks.cpg/sg124_1_cif.got.tgz:1330.got - 2010.05.20 11:49:17.
