data_PCOD9562815
_publ_section_title
;
Structure prediction by ZEFSAII (Michael W. Deem and Ramdas Pophale) SiO2 
 PCOD9562815
Probable space group: P 4/M C C
;
_chemical_formula_sum "Si O2"
_cell_formula_units_Z 40
_cell_length_a 7.891110
_cell_length_b 7.891110
_cell_length_c 29.737204
_cell_angle_alpha 90.000000
_cell_angle_beta 90.000000
_cell_angle_gamma 90.000000
_cell_volume 1851.724305
_symmetry_space_group_name_H-M "P 4/M C C"
_symmetry_group_IT_number 124
_symmetry_cell_setting 'tetragonal'
loop_
_space_group_symop_operation_xyz
x,y,z
-y,x,z
-x,-y,z
y,-x,z
x,-y,1/2-z
-x,y,1/2-z
y,x,1/2-z
-y,-x,1/2-z
-x,-y,-z
y,-x,-z
x,y,-z
-y,x,-z
-x,y,1/2+z
x,-y,1/2+z
-y,-x,1/2+z
y,x,1/2+z
loop_
_atom_site_type_symbol
_atom_site_label
_atom_site_fract_x
_atom_site_fract_y
_atom_site_fract_z
Si Si1 0.085432 0.272226 0.419064
Si Si2 0.500000 0.000000 0.750000
Si Si3 0.500000 0.000000 0.500000
Si Si4 0.769154 0.595162 0.327075
O O1 0.128054 0.357408 0.371647
O O2 0.893289 0.203883 0.422617
O O3 0.106545 0.398660 0.460354
O O4 0.388156 0.883595 0.717071
O O5 0.599797 0.707553 0.326834
#
# Coordination Sequence:
#
# PCOD9562815 Si02
#       4
#    16   4   4  16
#     4  11  24  43  67  97 137 183 231 287 349 415
#     4  12  22  38  64  96 136 178 226 278 344 412
#     4  12  22  38  64  96 132 172 226 278 332 406
#     4  11  24  43  68  99 138 185 237 292 348 412
#
# _framework density 21.601489000000001
#
# number of rings (size 3 to 8) (size 9 to 14) (size 15 to 20)
#    0.000    0.800    0.000    8.400    0.000    3.200 
#    0.000    0.000    0.000    9.600    0.000    0.000 
#    0.000    0.000    0.000    0.000    0.000    0.000 
#
# Total GULP energy -222846.882513 kJ/mol
# GULP energy per Si atom -5571.172063 kJ/mol
# Density = 2.155232 g / cm^3
# Si number density = 21.601489 Si / 1000 Ang^3
#
#
#
# Elastic Constant Matrix: (Units=GPa)
#
#
# Indices 1 2 3 4 5 6 
#
# 1 100.6828 25.2799 52.6814 0.0000 0.0000 0.0000
# 2 25.2799 100.6828 52.6814 0.0000 0.0000 0.0000
# 3 52.6814 52.6814 221.6245 0.0000 0.0000 0.0000
# 4 0.0000 0.0000 0.0000 -3.4714 0.0000 0.0000
# 5 0.0000 0.0000 0.0000 0.0000 -3.4714 0.0000
# 6 0.0000 0.0000 0.0000 0.0000 0.0000 31.1756
#
#
#
# Elastic Compliance Matrix: (Units=1/GPa)
#
#
# Indices 1 2 3 4 5 6 
#
# 1 0.011586 -0.001676 -0.002355 0.000000 0.000000 0.000000
# 2 -0.001676 0.011586 -0.002355 0.000000 0.000000 0.000000
# 3 -0.002355 -0.002355 0.005632 0.000000 0.000000 0.000000
# 4 0.000000 0.000000 0.000000 -0.288065 0.000000 0.000000
# 5 0.000000 0.000000 0.000000 0.000000 -0.288065 0.000000
# 6 0.000000 0.000000 0.000000 0.000000 0.000000 0.032076
#
#
# Mechanical properties :
#
#
# Convention : Reuss Voigt Hill
#
# Bulk Modulus (GPa) = 62.38949 76.03063 69.21006
# Shear Modulus (GPa) = -10.05766 24.33638 7.13936
#
# Velocity S-wave (km/s) = -2.16012 3.36014 1.81995
# Velocity P-wave (km/s) = 4.76689 7.09418 6.04362
#
# Compressibility (1/GPa) = 0.01602834
#
# Stress axis : x y z
#
# Youngs Moduli (GPa) = 86.31412 86.31412 177.55862
#
# Poissons Ratio (x) = 0.14470 0.41823
# Poissons Ratio (y) = 0.14470 0.41823
# Poissons Ratio (z) = 0.20331 0.20331
#
# Static dielectric constant tensor:
#      x y z
#    x 1.826070 0.000000 0.000000 
#    y 0.000000 1.826070 0.000000 
#    z 0.000000 0.000000 1.722970 
# 
# From -- ./inp_files/5724.got.cif
#   From: 2010.05.17/outbox.cif.g08.bks.cpg/sg124_3_cif.got.tgz:5724.got - 2010.05.20 11:49:17.
