data_PCOD9562020
_publ_section_title
;
Structure prediction by ZEFSAII (Michael W. Deem and Ramdas Pophale) SiO2 
 PCOD9562020
Probable space group: P 4/M M M
;
_chemical_formula_sum "Si O2"
_cell_formula_units_Z 108
_cell_length_a 13.974670
_cell_length_b 13.974670
_cell_length_c 35.359888
_cell_angle_alpha 90.000000
_cell_angle_beta 90.000000
_cell_angle_gamma 90.000000
_cell_volume 6905.482088
_symmetry_space_group_name_H-M "P 4/M M M"
_symmetry_group_IT_number 123
_symmetry_cell_setting 'tetragonal'
loop_
_space_group_symop_operation_xyz
x,y,z
-y,x,z
-x,-y,z
y,-x,z
x,-y,-z
-x,y,-z
y,x,-z
-y,-x,-z
-x,-y,-z
y,-x,-z
x,y,-z
-y,x,-z
-x,y,z
x,-y,z
-y,-x,z
y,x,z
loop_
_atom_site_type_symbol
_atom_site_label
_atom_site_fract_x
_atom_site_fract_y
_atom_site_fract_z
Si Si1 0.388057 0.388057 0.500000
Si Si2 0.232268 0.609079 0.338314
Si Si3 0.229117 0.612600 0.250550
Si Si4 0.886856 0.270873 0.956958
Si Si5 0.115970 0.608257 0.115306
Si Si6 0.257072 0.257072 0.457161
Si Si7 0.271032 0.885796 0.189488
Si Si8 0.610615 0.886638 0.412217
O O1 0.500000 0.369825 0.500000
O O2 0.338049 0.338049 0.464322
O O3 0.269048 0.500000 0.341205
O O4 0.315186 0.684814 0.347037
O O5 0.201610 0.622969 0.294787
O O6 0.148510 0.619299 0.368862
O O7 0.239731 0.500000 0.242385
O O8 0.327642 0.672359 0.245501
O O9 0.151817 0.661810 0.223389
O O10 0.824891 0.175110 0.952719
O O11 0.856497 0.345051 0.924644
O O12 0.000000 0.251374 0.952267
O O13 0.872885 0.306719 0.000000
O O14 0.151938 0.500000 0.119763
O O15 0.141752 0.675580 0.150427
O O16 0.000000 0.603883 0.115382
O O17 0.228265 0.228265 0.500000
O O18 0.310421 0.171700 0.435700
O O19 0.171787 0.828214 0.191725
O O20 0.259037 0.000000 0.190705
O O21 0.500000 0.864618 0.424212
O O22 0.623808 0.000000 0.415489
#
# Coordination Sequence:
#
# PCOD9562020 Si02
#       8
#     4  16  16  16  16   8  16  16
#     4   9  18  32  50  74 104 135 162 194 244 305
#     4   9  17  31  50  75 105 133 163 201 244 294
#     4   9  18  31  49  74 103 134 167 201 240 287
#     4   9  17  28  42  62  89 121 157 196 237 283
#     4   9  17  29  45  64  87 117 152 191 236 287
#     4  10  21  34  52  73 102 134 165 206 249 292
#     4  10  20  33  49  70  96 127 163 202 246 295
#     4  10  20  34  53  77 104 135 170 206 247 296
#
# _framework density 15.639747
#
# number of rings (size 3 to 8) (size 9 to 14) (size 15 to 20)
#    0.222    2.407    0.741    1.333    0.000    2.667 
#    0.000    5.926    0.000    2.889    0.000    0.519 
#    0.000    2.667    0.000    6.519    0.000    0.593 
#
# Total GULP energy -601358.179226 kJ/mol
# GULP energy per Si atom -5568.131289 kJ/mol
# Density = 1.560415 g / cm^3
# Si number density = 15.639747 Si / 1000 Ang^3
#
#
#
# Elastic Constant Matrix: (Units=GPa)
#
#
# Indices 1 2 3 4 5 6 
#
# 1 107.6121 35.7390 54.0187 0.0000 0.0000 0.0000
# 2 35.7390 107.6121 54.0187 0.0000 0.0000 0.0000
# 3 54.0187 54.0187 89.7767 0.0000 0.0000 0.0000
# 4 0.0000 0.0000 0.0000 23.3623 0.0000 0.0000
# 5 0.0000 0.0000 0.0000 0.0000 23.3623 0.0000
# 6 0.0000 0.0000 0.0000 0.0000 0.0000 14.7022
#
#
#
# Elastic Compliance Matrix: (Units=1/GPa)
#
#
# Indices 1 2 3 4 5 6 
#
# 1 0.013339 -0.000575 -0.007680 0.000000 0.000000 0.000000
# 2 -0.000575 0.013339 -0.007680 0.000000 0.000000 0.000000
# 3 -0.007680 -0.007680 0.020381 0.000000 0.000000 0.000000
# 4 0.000000 0.000000 0.000000 0.042804 0.000000 0.000000
# 5 0.000000 0.000000 0.000000 0.000000 0.042804 0.000000
# 6 0.000000 0.000000 0.000000 0.000000 0.000000 0.068017
#
#
# Mechanical properties :
#
#
# Convention : Reuss Voigt Hill
#
# Bulk Modulus (GPa) = 65.83891 65.83933 65.83912
# Shear Modulus (GPa) = 21.04232 23.03365 22.03798
#
# Velocity S-wave (km/s) = 3.67200 3.84182 3.75787
# Velocity P-wave (km/s) = 7.75672 7.86564 7.81137
#
# Compressibility (1/GPa) = 0.01518859
#
# Stress axis : x y z
#
# Youngs Moduli (GPa) = 74.96960 74.96960 49.06516
#
# Poissons Ratio (x) = 0.04308 0.37683
# Poissons Ratio (y) = 0.04308 0.37683
# Poissons Ratio (z) = 0.57578 0.57578
#
# Static dielectric constant tensor:
#      x y z
#    x 1.500500 0.000000 0.000000 
#    y 0.000000 1.500500 0.000000 
#    z 0.000000 0.000000 1.541610 
# 
# From -- ./inp_files/8815.got.cif
#   From: 2010.05.17/outbox.cif.g08.bks.cpg/sg123_5_cif.got.tgz:8815.got - 2010.05.20 11:43:04.
