data_PCOD9562598
_publ_section_title
;
Structure prediction by ZEFSAII (Michael W. Deem and Ramdas Pophale) SiO2 
 PCOD9562598
Probable space group: P 4/M C C
;
_chemical_formula_sum "Si O2"
_cell_formula_units_Z 112
_cell_length_a 14.559883
_cell_length_b 14.559883
_cell_length_c 26.742018
_cell_angle_alpha 90.000000
_cell_angle_beta 90.000000
_cell_angle_gamma 90.000000
_cell_volume 5669.045556
_symmetry_space_group_name_H-M "P 4/M C C"
_symmetry_group_IT_number 124
_symmetry_cell_setting 'tetragonal'
loop_
_space_group_symop_operation_xyz
x,y,z
-y,x,z
-x,-y,z
y,-x,z
x,-y,1/2-z
-x,y,1/2-z
y,x,1/2-z
-y,-x,1/2-z
-x,-y,-z
y,-x,-z
x,y,-z
-y,x,-z
-x,y,1/2+z
x,-y,1/2+z
-y,-x,1/2+z
y,x,1/2+z
loop_
_atom_site_type_symbol
_atom_site_label
_atom_site_fract_x
_atom_site_fract_y
_atom_site_fract_z
Si Si1 0.770799 0.538721 0.100957
Si Si2 0.679742 0.640682 0.443424
Si Si3 0.350063 0.065862 0.556318
Si Si4 0.808085 0.820298 0.944880
Si Si5 0.694315 0.067573 0.365516
Si Si6 0.521848 0.890254 0.808179
Si Si7 0.850929 0.994056 0.690518
O O1 0.737383 0.441036 0.080815
O O2 0.680689 0.602073 0.093471
O O3 0.849022 0.582711 0.065651
O O4 0.821452 0.532753 0.154657
O O5 0.645707 0.617494 0.500000
O O6 0.748664 0.725139 0.449365
O O7 0.358288 0.032834 0.500000
O O8 0.245476 0.103990 0.564045
O O9 0.368762 0.984842 0.594695
O O10 0.770663 0.881920 0.899742
O O11 0.819283 0.866038 0.000000
O O12 0.627813 0.120619 0.327269
O O13 0.751725 0.994859 0.333342
O O14 0.500000 0.869720 0.750000
O O15 0.500000 0.000000 0.814365
O O16 0.914867 0.908841 0.676784
O O17 0.842323 0.000000 0.750000
#
# Coordination Sequence:
#
# PCOD9562598 Si02
#       7
#    16  16  16  16  16  16  16
#     4  11  21  41  60  87 121 160 192 247 308 350
#     4  10  20  36  62  89 122 155 193 244 297 367
#     4  10  21  35  55  86 123 156 191 239 296 365
#     4   9  19  34  52  83 123 152 188 239 288 349
#     4  12  20  35  61  84 111 160 202 235 299 364
#     4  11  25  43  59  84 121 155 199 259 300 345
#     4   9  20  37  56  84 117 148 193 251 296 340
#
# _framework density 19.756412999999998
#
# number of rings (size 3 to 8) (size 9 to 14) (size 15 to 20)
#    0.000    1.714    2.857    3.857    2.000    0.286 
#    0.000    2.143    0.000    0.000    0.000    7.000 
#    0.000    0.000    0.000    0.000    0.000    0.000 
#
# Total GULP energy -624033.733776 kJ/mol
# GULP energy per Si atom -5571.729766 kJ/mol
# Density = 1.971145 g / cm^3
# Si number density = 19.756413 Si / 1000 Ang^3
#
#
#
# Elastic Constant Matrix: (Units=GPa)
#
#
# Indices 1 2 3 4 5 6 
#
# 1 47.4029 7.4159 51.2529 0.0000 0.0000 0.0000
# 2 7.4159 47.4029 51.2529 0.0000 0.0000 0.0000
# 3 51.2529 51.2529 140.0061 0.0000 0.0000 0.0000
# 4 0.0000 0.0000 0.0000 30.0013 0.0000 0.0000
# 5 0.0000 0.0000 0.0000 0.0000 30.0013 0.0000
# 6 0.0000 0.0000 0.0000 0.0000 0.0000 1.5014
#
#
#
# Elastic Compliance Matrix: (Units=1/GPa)
#
#
# Indices 1 2 3 4 5 6 
#
# 1 0.041416 0.016408 -0.021168 0.000000 0.000000 0.000000
# 2 0.016408 0.041416 -0.021168 0.000000 0.000000 0.000000
# 3 -0.021168 -0.021168 0.022641 0.000000 0.000000 0.000000
# 4 0.000000 0.000000 0.000000 0.033332 0.000000 0.000000
# 5 0.000000 0.000000 0.000000 0.000000 0.033332 0.000000
# 6 0.000000 0.000000 0.000000 0.000000 0.000000 0.666043
#
#
# Mechanical properties :
#
#
# Convention : Reuss Voigt Hill
#
# Bulk Modulus (GPa) = 18.65095 50.51725 34.58410
# Shear Modulus (GPa) = 5.50717 20.62683 13.06700
#
# Velocity S-wave (km/s) = 1.67140 3.23469 2.57457
# Velocity P-wave (km/s) = 3.63122 6.29099 5.13626
#
# Compressibility (1/GPa) = 0.05361657
#
# Stress axis : x y z
#
# Youngs Moduli (GPa) = 24.14529 24.14529 44.16834
#
# Poissons Ratio (x) = -0.39617 0.93495
# Poissons Ratio (y) = -0.39617 0.93495
# Poissons Ratio (z) = 0.51110 0.51110
#
# Static dielectric constant tensor:
#      x y z
#    x 1.719860 0.000000 0.000000 
#    y 0.000000 1.719860 0.000000 
#    z 0.000000 0.000000 1.734440 
# 
# From -- ./inp_files/6623.got.cif
#   From: 2010.05.17/outbox.cif.g08.bks.cpg/sg124_4_cif.got.tgz:6623.got - 2010.05.20 11:49:17.
