data_PCOD9562441
_publ_section_title
;
Structure prediction by ZEFSAII (Michael W. Deem and Ramdas Pophale) SiO2 
 PCOD9562441
Probable space group: P 4/M C C
;
_chemical_formula_sum "Si O2"
_cell_formula_units_Z 128
_cell_length_a 18.201660
_cell_length_b 18.201660
_cell_length_c 24.751607
_cell_angle_alpha 90.000000
_cell_angle_beta 90.000000
_cell_angle_gamma 90.000000
_cell_volume 8200.217962
_symmetry_space_group_name_H-M "P 4/M C C"
_symmetry_group_IT_number 124
_symmetry_cell_setting 'tetragonal'
loop_
_space_group_symop_operation_xyz
x,y,z
-y,x,z
-x,-y,z
y,-x,z
x,-y,1/2-z
-x,y,1/2-z
y,x,1/2-z
-y,-x,1/2-z
-x,-y,-z
y,-x,-z
x,y,-z
-y,x,-z
-x,y,1/2+z
x,-y,1/2+z
-y,-x,1/2+z
y,x,1/2+z
loop_
_atom_site_type_symbol
_atom_site_label
_atom_site_fract_x
_atom_site_fract_y
_atom_site_fract_z
Si Si1 0.579023 0.306699 0.893490
Si Si2 0.690292 0.192698 0.062804
Si Si3 0.411747 0.913505 0.868829
Si Si4 0.137194 0.588077 0.751940
Si Si5 0.423773 0.672569 0.438392
Si Si6 0.585814 0.085895 0.629861
Si Si7 0.806967 0.309735 0.062247
Si Si8 0.297632 0.415321 0.767042
O O1 0.628895 0.256191 0.931317
O O2 0.496062 0.299171 0.910186
O O3 0.606552 0.388831 0.904648
O O4 0.589014 0.286810 0.831352
O O5 0.650591 0.128899 0.097015
O O6 0.766810 0.233199 0.080811
O O7 0.698947 0.172380 0.000000
O O8 0.393177 0.898849 0.805554
O O9 0.498788 0.890115 0.877643
O O10 0.410507 0.999564 0.882613
O O11 0.143012 0.500000 0.750000
O O12 0.094425 0.604614 0.806592
O O13 0.221261 0.614394 0.757527
O O14 0.438280 0.649879 0.500000
O O15 0.366652 0.739239 0.438779
O O16 0.646585 0.132067 0.596742
O O17 0.831740 0.299080 0.000000
O O18 0.308855 0.500000 0.750000
O O19 0.365451 0.365451 0.750000
#
# Coordination Sequence:
#
# PCOD9562441 Si02
#       8
#    16  16  16  16  16  16  16  16
#     4  11  20  33  48  63  89 118 161 211 255 297
#     4  10  20  34  50  68  96 129 164 200 247 299
#     4  10  19  34  49  78 100 133 161 212 257 306
#     4   9  19  32  48  69  94 125 162 201 249 308
#     4  10  20  32  48  65  85 118 162 208 254 298
#     4  10  20  31  54  73 105 128 166 206 260 304
#     4   9  20  34  49  70  96 129 162 200 243 299
#     4  11  23  34  48  69  93 129 172 217 261 297
#
# _framework density 15.60934
#
# number of rings (size 3 to 8) (size 9 to 14) (size 15 to 20)
#    0.000    2.000    1.250    3.750    7.000    3.875 
#    0.000    3.125    0.000    0.000    0.000    0.000 
#    0.000    0.500    0.000    2.750    0.000    5.250 
#
# Total GULP energy -712712.376756 kJ/mol
# GULP energy per Si atom -5568.065443 kJ/mol
# Density = 1.557381 g / cm^3
# Si number density = 15.609340 Si / 1000 Ang^3
#
#
#
# Elastic Constant Matrix: (Units=GPa)
#
#
# Indices 1 2 3 4 5 6 
#
# 1 83.7686 14.6180 29.9804 0.0000 0.0000 0.0000
# 2 14.6180 83.7686 29.9804 0.0000 0.0000 0.0000
# 3 29.9804 29.9804 64.0998 0.0000 0.0000 0.0000
# 4 0.0000 0.0000 0.0000 10.5758 0.0000 0.0000
# 5 0.0000 0.0000 0.0000 0.0000 10.5758 0.0000
# 6 0.0000 0.0000 0.0000 0.0000 0.0000 23.8638
#
#
#
# Elastic Compliance Matrix: (Units=1/GPa)
#
#
# Indices 1 2 3 4 5 6 
#
# 1 0.014339 -0.000122 -0.006649 0.000000 0.000000 0.000000
# 2 -0.000122 0.014339 -0.006649 0.000000 0.000000 0.000000
# 3 -0.006649 -0.006649 0.021820 0.000000 0.000000 0.000000
# 4 0.000000 0.000000 0.000000 0.094556 0.000000 0.000000
# 5 0.000000 0.000000 0.000000 0.000000 0.094556 0.000000
# 6 0.000000 0.000000 0.000000 0.000000 0.000000 0.041904
#
#
# Mechanical properties :
#
#
# Convention : Reuss Voigt Hill
#
# Bulk Modulus (GPa) = 42.27186 42.31049 42.29118
# Shear Modulus (GPa) = 15.81076 19.47362 17.64219
#
# Velocity S-wave (km/s) = 3.18607 3.53592 3.36554
# Velocity P-wave (km/s) = 6.37767 6.62080 6.50037
#
# Compressibility (1/GPa) = 0.02365640
#
# Stress axis : x y z
#
# Youngs Moduli (GPa) = 69.74123 69.74123 45.82859
#
# Poissons Ratio (x) = 0.00854 0.30472
# Poissons Ratio (y) = 0.00854 0.30472
# Poissons Ratio (z) = 0.46372 0.46372
#
# Static dielectric constant tensor:
#      x y z
#    x 1.532980 0.000000 0.000000 
#    y 0.000000 1.532980 0.000000 
#    z 0.000000 0.000000 1.551980 
# 
# From -- ./inp_files/6266.got.cif
#   From: 2010.05.17/outbox.cif.g08.bks.cpg/sg124_4_cif.got.tgz:6266.got - 2010.05.20 11:49:17.
