data_PCOD9562601
_publ_section_title
;
Structure prediction by ZEFSAII (Michael W. Deem and Ramdas Pophale) SiO2 
 PCOD9562601
Probable space group: P 4/M C C
;
_chemical_formula_sum "Si O2"
_cell_formula_units_Z 64
_cell_length_a 14.187513
_cell_length_b 14.187513
_cell_length_c 15.507176
_cell_angle_alpha 90.000000
_cell_angle_beta 90.000000
_cell_angle_gamma 90.000000
_cell_volume 3121.370064
_symmetry_space_group_name_H-M "P 4/M C C"
_symmetry_group_IT_number 124
_symmetry_cell_setting 'tetragonal'
loop_
_space_group_symop_operation_xyz
x,y,z
-y,x,z
-x,-y,z
y,-x,z
x,-y,1/2-z
-x,y,1/2-z
y,x,1/2-z
-y,-x,1/2-z
-x,-y,-z
y,-x,-z
x,y,-z
-y,x,-z
-x,y,1/2+z
x,-y,1/2+z
-y,-x,1/2+z
y,x,1/2+z
loop_
_atom_site_type_symbol
_atom_site_label
_atom_site_fract_x
_atom_site_fract_y
_atom_site_fract_z
Si Si1 0.783118 0.876883 0.665665
Si Si2 0.245290 0.381747 0.895085
Si Si3 0.923445 0.256742 0.097031
Si Si4 0.597842 0.766710 0.895412
O O1 0.833929 0.833929 0.750000
O O2 0.679827 0.834519 0.650607
O O3 0.850136 0.829678 0.593951
O O4 0.773393 0.987679 0.653347
O O5 0.241064 0.490133 0.867658
O O6 0.341226 0.325611 0.872662
O O7 0.234641 0.377756 0.000000
O O8 0.860358 0.344280 0.131455
O O9 0.956420 0.279390 0.000000
O O10 0.597816 0.770785 0.000000
#
# Coordination Sequence:
#
# PCOD9562601 Si02
#       4
#    16  16  16  16
#     4  11  22  36  54  79 112 146 186 237 287 339
#     4   9  17  33  54  81 114 152 191 235 281 330
#     4  10  20  37  57  80 108 146 190 236 283 335
#     4   8  16  30  54  84 114 146 190 236 280 330
#
# _framework density 20.503817999999999
#
# number of rings (size 3 to 8) (size 9 to 14) (size 15 to 20)
#    0.000    2.500    0.000    4.500    0.000    2.000 
#    0.000   13.750    0.000    6.000    0.000    7.000 
#    0.000    0.000    0.000    0.000    0.000    0.000 
#
# Total GULP energy -356916.867471 kJ/mol
# GULP energy per Si atom -5576.826054 kJ/mol
# Density = 2.045715 g / cm^3
# Si number density = 20.503818 Si / 1000 Ang^3
#
#
#
# Elastic Constant Matrix: (Units=GPa)
#
#
# Indices 1 2 3 4 5 6 
#
# 1 183.3127 66.3010 24.6314 0.0000 0.0000 0.0000
# 2 66.3010 183.3127 24.6314 0.0000 0.0000 0.0000
# 3 24.6314 24.6314 78.3912 0.0000 0.0000 0.0000
# 4 0.0000 0.0000 0.0000 12.5441 0.0000 0.0000
# 5 0.0000 0.0000 0.0000 0.0000 12.5441 0.0000
# 6 0.0000 0.0000 0.0000 0.0000 0.0000 8.3568
#
#
#
# Elastic Compliance Matrix: (Units=1/GPa)
#
#
# Indices 1 2 3 4 5 6 
#
# 1 0.006409 -0.002138 -0.001342 0.000000 0.000000 0.000000
# 2 -0.002138 0.006409 -0.001342 0.000000 0.000000 0.000000
# 3 -0.001342 -0.001342 0.013600 0.000000 0.000000 0.000000
# 4 0.000000 0.000000 0.000000 0.079719 0.000000 0.000000
# 5 0.000000 0.000000 0.000000 0.000000 0.079719 0.000000
# 6 0.000000 0.000000 0.000000 0.000000 0.000000 0.119663
#
#
# Mechanical properties :
#
#
# Convention : Reuss Voigt Hill
#
# Bulk Modulus (GPa) = 59.61634 75.12716 67.37175
# Shear Modulus (GPa) = 15.58838 28.65253 22.12046
#
# Velocity S-wave (km/s) = 2.76029 3.74227 3.28814
# Velocity P-wave (km/s) = 6.26879 7.44264 6.88079
#
# Compressibility (1/GPa) = 0.01677393
#
# Stress axis : x y z
#
# Youngs Moduli (GPa) = 156.04036 156.04036 73.53003
#
# Poissons Ratio (x) = 0.33354 0.09868
# Poissons Ratio (y) = 0.33354 0.09868
# Poissons Ratio (z) = 0.20941 0.20941
#
# Static dielectric constant tensor:
#      x y z
#    x 1.709030 0.000000 0.000000 
#    y 0.000000 1.709030 0.000000 
#    z 0.000000 0.000000 1.903810 
# 
# From -- ./inp_files/3949.got.cif
#   From: 2010.05.17/outbox.cif.g08.bks.cpg/sg124_2_cif.got.tgz:3949.got - 2010.05.20 11:49:17.
