data_PCOD9562017
_publ_section_title
;
Structure prediction by ZEFSAII (Michael W. Deem and Ramdas Pophale) SiO2 
 PCOD9562017
Probable space group: P 4/M M M
;
_chemical_formula_sum "Si O2"
_cell_formula_units_Z 120
_cell_length_a 18.156045
_cell_length_b 18.156045
_cell_length_c 22.122155
_cell_angle_alpha 90.000000
_cell_angle_beta 90.000000
_cell_angle_gamma 90.000000
_cell_volume 7292.390756
_symmetry_space_group_name_H-M "P 4/M M M"
_symmetry_group_IT_number 123
_symmetry_cell_setting 'tetragonal'
loop_
_space_group_symop_operation_xyz
x,y,z
-y,x,z
-x,-y,z
y,-x,z
x,-y,-z
-x,y,-z
y,x,-z
-y,-x,-z
-x,-y,-z
y,-x,-z
x,y,-z
-y,x,-z
-x,y,z
x,-y,z
-y,-x,z
y,x,z
loop_
_atom_site_type_symbol
_atom_site_label
_atom_site_fract_x
_atom_site_fract_y
_atom_site_fract_z
Si Si1 0.086494 0.203156 0.428416
Si Si2 0.582906 0.000000 0.427897
Si Si3 0.799160 0.917998 0.812280
Si Si4 0.146239 0.654124 0.626043
Si Si5 0.639365 0.915756 0.247521
Si Si6 0.705352 0.585533 0.572924
Si Si7 0.584055 0.087790 0.884883
Si Si8 0.266683 0.851506 0.069243
O O1 0.093242 0.223743 0.500000
O O2 0.122958 0.122958 0.422083
O O3 0.133316 0.259843 0.388167
O O4 0.000000 0.205601 0.412820
O O5 0.620037 0.925261 0.406354
O O6 0.500000 0.000000 0.404786
O O7 0.583294 0.000000 0.500000
O O8 0.857109 0.857109 0.792941
O O9 0.723935 0.913472 0.774596
O O10 0.775047 0.901241 0.881379
O O11 0.829271 0.000000 0.807149
O O12 0.137987 0.632944 0.696177
O O13 0.221489 0.623111 0.599330
O O14 0.592400 0.900492 0.187405
O O15 0.623193 0.000000 0.267213
O O16 0.711143 0.587131 0.500000
O O17 0.699882 0.500000 0.591362
O O18 0.634423 0.634423 0.589937
O O19 0.500000 0.102074 0.903827
O O20 0.647025 0.136589 0.916348
O O21 0.599716 0.000000 0.895158
O O22 0.229896 0.770105 0.076795
O O23 0.253373 0.873520 0.000000
#
# Coordination Sequence:
#
# PCOD9562017 Si02
#       8
#    16   8  16  16  16  16  16  16
#     4  10  20  33  49  69  95 127 164 207 252 298
#     4  11  22  32  46  72 105 133 154 186 237 300
#     4   9  18  31  47  66  93 127 167 212 250 283
#     4  12  20  33  53  76 100 129 163 199 244 299
#     4   9  18  33  47  67  95 131 165 193 237 295
#     4  10  22  39  57  77 100 125 156 197 244 295
#     4   9  18  31  48  71 100 129 161 206 248 283
#     4   9  17  30  48  69  96 132 167 196 235 291
#
# _framework density 16.455507999999998
#
# number of rings (size 3 to 8) (size 9 to 14) (size 15 to 20)
#    0.000    2.200    1.333    3.200    0.000    6.000 
#    0.000    2.000    0.000    0.000    0.000    3.733 
#    0.000    0.267    0.000    1.467    0.000    0.000 
#
# Total GULP energy -669011.658829 kJ/mol
# GULP energy per Si atom -5575.097157 kJ/mol
# Density = 1.641805 g / cm^3
# Si number density = 16.455508 Si / 1000 Ang^3
#
#
#
# Elastic Constant Matrix: (Units=GPa)
#
#
# Indices 1 2 3 4 5 6 
#
# 1 73.8893 43.3265 7.5782 0.0000 0.0000 0.0000
# 2 43.3265 73.8893 7.5782 0.0000 0.0000 0.0000
# 3 7.5782 7.5782 29.2807 0.0000 0.0000 0.0000
# 4 0.0000 0.0000 0.0000 -1.8588 0.0000 0.0000
# 5 0.0000 0.0000 0.0000 0.0000 -1.8588 0.0000
# 6 0.0000 0.0000 0.0000 0.0000 0.0000 12.5006
#
#
#
# Elastic Compliance Matrix: (Units=1/GPa)
#
#
# Indices 1 2 3 4 5 6 
#
# 1 0.020773 -0.011946 -0.002284 0.000000 0.000000 0.000000
# 2 -0.011946 0.020773 -0.002284 0.000000 0.000000 0.000000
# 3 -0.002284 -0.002284 0.035335 0.000000 0.000000 0.000000
# 4 0.000000 0.000000 0.000000 -0.537987 0.000000 0.000000
# 5 0.000000 0.000000 0.000000 0.000000 -0.537987 0.000000
# 6 0.000000 0.000000 0.000000 0.000000 0.000000 0.079996
#
#
# Mechanical properties :
#
#
# Convention : Reuss Voigt Hill
#
# Bulk Modulus (GPa) = 22.80487 32.66943 27.73715
# Shear Modulus (GPa) = -5.73756 9.66172 1.96208
#
# Velocity S-wave (km/s) = -1.86930 2.42573 1.09313
# Velocity P-wave (km/s) = 3.03802 5.26705 4.29950
#
# Compressibility (1/GPa) = 0.04385028
#
# Stress axis : x y z
#
# Youngs Moduli (GPa) = 48.13929 48.13929 28.30079
#
# Poissons Ratio (x) = 0.57509 0.06465
# Poissons Ratio (y) = 0.57509 0.06465
# Poissons Ratio (z) = 0.10997 0.10997
#
# Static dielectric constant tensor:
#      x y z
#    x 1.562630 0.000000 0.000000 
#    y 0.000000 1.562630 0.000000 
#    z 0.000000 0.000000 1.568890 
# 
# From -- ./inp_files/6831.got.cif
#   From: 2010.05.17/outbox.cif.g08.bks.cpg/sg123_4_cif.got.tgz:6831.got - 2010.05.20 11:43:04.
