data_PCOD9562565
_publ_section_title
;
Structure prediction by ZEFSAII (Michael W. Deem and Ramdas Pophale) SiO2 
 PCOD9562565
Probable space group: P 4/M C C
;
_chemical_formula_sum "Si O2"
_cell_formula_units_Z 64
_cell_length_a 15.011240
_cell_length_b 15.011240
_cell_length_c 14.429368
_cell_angle_alpha 90.000000
_cell_angle_beta 90.000000
_cell_angle_gamma 90.000000
_cell_volume 3251.475206
_symmetry_space_group_name_H-M "P 4/M C C"
_symmetry_group_IT_number 124
_symmetry_cell_setting 'tetragonal'
loop_
_space_group_symop_operation_xyz
x,y,z
-y,x,z
-x,-y,z
y,-x,z
x,-y,1/2-z
-x,y,1/2-z
y,x,1/2-z
-y,-x,1/2-z
-x,-y,-z
y,-x,-z
x,y,-z
-y,x,-z
-x,y,1/2+z
x,-y,1/2+z
-y,-x,1/2+z
y,x,1/2+z
loop_
_atom_site_type_symbol
_atom_site_label
_atom_site_fract_x
_atom_site_fract_y
_atom_site_fract_z
Si Si1 0.731124 0.018682 0.500000
Si Si2 0.566574 0.075117 0.606317
Si Si3 0.703787 0.679632 0.138613
Si Si4 0.204664 0.816500 0.000000
Si Si5 0.734885 0.481874 0.849639
O O1 0.664575 0.035942 0.587761
O O2 0.801301 0.098768 0.500000
O O3 0.768414 0.919672 0.500000
O O4 0.537198 0.099427 0.500000
O O5 0.557757 0.165517 0.661997
O O6 0.500000 0.000000 0.640527
O O7 0.699022 0.699022 0.250000
O O8 0.739579 0.581575 0.112472
O O9 0.600987 0.685131 0.105325
O O10 0.764432 0.751992 0.087272
O O11 0.691360 0.500000 0.750000
#
# Coordination Sequence:
#
# PCOD9562565 Si02
#       5
#     8  16  16   8  16
#     4  10  21  35  62  87 110 159 198 245 309 361
#     4   9  17  32  52  81 112 138 197 241 294 335
#     4  10  22  37  58  88 121 160 202 243 299 362
#     4  12  22  41  64  82 123 158 199 258 311 359
#     4  10  20  35  54  82 119 156 195 242 293 357
#
# _framework density 19.683371999999999
#
# number of rings (size 3 to 8) (size 9 to 14) (size 15 to 20)
#    0.750    1.250    2.500    1.500    1.750    1.250 
#    0.000    3.750    0.000    1.500    0.000    1.750 
#    0.000    0.000    0.000    0.000    0.000    0.000 
#
# Total GULP energy -356326.296929 kJ/mol
# GULP energy per Si atom -5567.598390 kJ/mol
# Density = 1.963857 g / cm^3
# Si number density = 19.683372 Si / 1000 Ang^3
#
#
#
# Elastic Constant Matrix: (Units=GPa)
#
#
# Indices 1 2 3 4 5 6 
#
# 1 150.7640 58.4081 18.9685 0.0000 0.0000 0.0000
# 2 58.4081 150.7640 18.9685 0.0000 0.0000 0.0000
# 3 18.9685 18.9685 82.8987 0.0000 0.0000 0.0000
# 4 0.0000 0.0000 0.0000 16.7620 0.0000 0.0000
# 5 0.0000 0.0000 0.0000 0.0000 16.7620 0.0000
# 6 0.0000 0.0000 0.0000 0.0000 0.0000 41.5876
#
#
#
# Elastic Compliance Matrix: (Units=1/GPa)
#
#
# Indices 1 2 3 4 5 6 
#
# 1 0.007908 -0.002920 -0.001141 0.000000 0.000000 0.000000
# 2 -0.002920 0.007908 -0.001141 0.000000 0.000000 0.000000
# 3 -0.001141 -0.001141 0.012585 0.000000 0.000000 0.000000
# 4 0.000000 0.000000 0.000000 0.059659 0.000000 0.000000
# 5 0.000000 0.000000 0.000000 0.000000 0.059659 0.000000
# 6 0.000000 0.000000 0.000000 0.000000 0.000000 0.024046
#
#
# Mechanical properties :
#
#
# Convention : Reuss Voigt Hill
#
# Bulk Modulus (GPa) = 55.56919 64.12413 59.84666
# Shear Modulus (GPa) = 26.57208 34.22775 30.39992
#
# Velocity S-wave (km/s) = 3.67819 4.17456 3.93421
# Velocity P-wave (km/s) = 6.80673 7.47559 7.14899
#
# Compressibility (1/GPa) = 0.01799558
#
# Stress axis : x y z
#
# Youngs Moduli (GPa) = 126.45890 126.45890 79.45841
#
# Poissons Ratio (x) = 0.36926 0.09068
# Poissons Ratio (y) = 0.36926 0.09068
# Poissons Ratio (z) = 0.14432 0.14432
#
# Static dielectric constant tensor:
#      x y z
#    x 1.705850 0.000000 0.000000 
#    y 0.000000 1.705850 0.000000 
#    z 0.000000 0.000000 1.773280 
# 
# From -- ./inp_files/3965.got.cif
#   From: 2010.05.17/outbox.cif.g08.bks.cpg/sg124_2_cif.got.tgz:3965.got - 2010.05.20 11:49:17.
