data_PCOD9562391
_publ_section_title
;
Structure prediction by ZEFSAII (Michael W. Deem and Ramdas Pophale) SiO2 
 PCOD9562391
Probable space group: P 4/M C C
;
_chemical_formula_sum "Si O2"
_cell_formula_units_Z 96
_cell_length_a 25.971878
_cell_length_b 25.971878
_cell_length_c 8.473214
_cell_angle_alpha 90.000000
_cell_angle_beta 90.000000
_cell_angle_gamma 90.000000
_cell_volume 5715.508611
_symmetry_space_group_name_H-M "P 4/M C C"
_symmetry_group_IT_number 124
_symmetry_cell_setting 'tetragonal'
loop_
_space_group_symop_operation_xyz
x,y,z
-y,x,z
-x,-y,z
y,-x,z
x,-y,1/2-z
-x,y,1/2-z
y,x,1/2-z
-y,-x,1/2-z
-x,-y,-z
y,-x,-z
x,y,-z
-y,x,-z
-x,y,1/2+z
x,-y,1/2+z
-y,-x,1/2+z
y,x,1/2+z
loop_
_atom_site_type_symbol
_atom_site_label
_atom_site_fract_x
_atom_site_fract_y
_atom_site_fract_z
Si Si1 0.248494 0.445110 0.189952
Si Si2 0.331387 0.751477 0.311271
Si Si3 0.251982 0.169369 0.688311
Si Si4 0.130816 0.447764 0.188792
Si Si5 0.249057 0.055423 0.814971
Si Si6 0.051603 0.363684 0.810189
O O1 0.271495 0.500000 0.250000
O O2 0.264073 0.388342 0.249933
O O3 0.189087 0.446009 0.247372
O O4 0.250941 0.445379 0.000000
O O5 0.291525 0.708476 0.250000
O O6 0.331731 0.753023 0.500000
O O7 0.306124 0.805811 0.250921
O O8 0.208066 0.208066 0.750000
O O9 0.255042 0.170684 0.500000
O O10 0.236880 0.111307 0.740002
O O11 0.105861 0.500000 0.250000
O O12 0.099756 0.397870 0.234908
O O13 0.132287 0.449393 0.000000
O O14 0.309937 0.053088 0.779634
O O15 0.228392 0.000000 0.750000
O O16 0.238417 0.057266 0.000000
O O17 0.000000 0.390948 0.750000
O O18 0.050806 0.355413 0.000000
#
# Coordination Sequence:
#
# PCOD9562391 Si02
#       6
#    16  16  16  16  16  16
#     4  10  19  33  50  70  95 126 162 203 247 297
#     4  11  21  34  52  76 103 135 170 209 255 305
#     4  11  21  35  53  76 104 135 169 209 253 303
#     4   9  19  31  44  59  80 110 148 192 239 283
#     4  11  21  34  51  72  96 127 162 200 244 294
#     4  10  19  31  44  61  83 113 151 195 241 286
#
# _framework density 16.796405
#
# number of rings (size 3 to 8) (size 9 to 14) (size 15 to 20)
#    0.000    1.667    0.000    8.500    0.000    3.667 
#    0.000    1.667    0.000    0.000    0.000    0.000 
#    0.000    0.667    0.000    6.667    0.000    4.000 
#
# Total GULP energy -534803.843620 kJ/mol
# GULP energy per Si atom -5570.873371 kJ/mol
# Density = 1.675818 g / cm^3
# Si number density = 16.796405 Si / 1000 Ang^3
#
#
#
# Elastic Constant Matrix: (Units=GPa)
#
#
# Indices 1 2 3 4 5 6 
#
# 1 78.1408 27.8137 26.7736 0.0000 0.0000 0.0000
# 2 27.8137 78.1401 26.7709 0.0000 0.0000 0.0000
# 3 26.7736 26.7709 104.7319 0.0000 0.0000 0.0000
# 4 0.0000 0.0000 0.0000 27.3905 0.0000 0.0000
# 5 0.0000 0.0000 0.0000 0.0000 27.3897 0.0000
# 6 0.0000 0.0000 0.0000 0.0000 0.0000 7.1913
#
#
#
# Elastic Compliance Matrix: (Units=1/GPa)
#
#
# Indices 1 2 3 4 5 6 
#
# 1 0.015354 -0.004516 -0.002771 0.000000 0.000000 0.000000
# 2 -0.004516 0.015354 -0.002770 0.000000 0.000000 0.000000
# 3 -0.002771 -0.002770 0.010965 0.000000 0.000000 0.000000
# 4 0.000000 0.000000 0.000000 0.036509 0.000000 0.000000
# 5 0.000000 0.000000 0.000000 0.000000 0.036510 0.000000
# 6 0.000000 0.000000 0.000000 0.000000 0.000000 0.139056
#
#
# Mechanical properties :
#
#
# Convention : Reuss Voigt Hill
#
# Bulk Modulus (GPa) = 46.38469 47.08102 46.73286
# Shear Modulus (GPa) = 17.79051 24.37127 21.08089
#
# Velocity S-wave (km/s) = 3.25804 3.81331 3.54656
# Velocity P-wave (km/s) = 6.46753 6.89055 6.68239
#
# Compressibility (1/GPa) = 0.02155884
#
# Stress axis : x y z
#
# Youngs Moduli (GPa) = 65.12868 65.12933 91.20242
#
# Poissons Ratio (x) = 0.29412 0.25270
# Poissons Ratio (y) = 0.29412 0.25265
# Poissons Ratio (z) = 0.18046 0.18042
#
# Static dielectric constant tensor:
#      x y z
#    x 1.620450 0.000000 0.000000 
#    y 0.000000 1.620450 0.000000 
#    z 0.000000 0.000000 1.569230 
# 
# From -- ./inp_files/1391.got.cif
#   From: 2010.05.17/outbox.cif.g08.bks.cpg/sg124_1_cif.got.tgz:1391.got - 2010.05.20 11:49:17.
