data_PCOD9562205
_publ_section_title
;
Structure prediction by ZEFSAII (Michael W. Deem and Ramdas Pophale) SiO2 
 PCOD9562205
Probable space group: P 4/M M M
;
_chemical_formula_sum "Si O2"
_cell_formula_units_Z 72
_cell_length_a 21.788300
_cell_length_b 21.788300
_cell_length_c 8.647585
_cell_angle_alpha 90.000000
_cell_angle_beta 90.000000
_cell_angle_gamma 90.000000
_cell_volume 4105.268173
_symmetry_space_group_name_H-M "P 4/M M M"
_symmetry_group_IT_number 123
_symmetry_cell_setting 'tetragonal'
loop_
_space_group_symop_operation_xyz
x,y,z
-y,x,z
-x,-y,z
y,-x,z
x,-y,-z
-x,y,-z
y,x,-z
-y,-x,-z
-x,-y,-z
y,-x,-z
x,y,-z
-y,x,-z
-x,y,z
x,-y,z
-y,-x,z
y,x,z
loop_
_atom_site_type_symbol
_atom_site_label
_atom_site_fract_x
_atom_site_fract_y
_atom_site_fract_z
Si Si1 0.332617 0.094554 0.316047
Si Si2 0.000000 0.763130 0.815878
Si Si3 0.100493 0.000000 0.686351
Si Si4 0.230630 0.668453 0.813682
Si Si5 0.571355 0.000000 0.185824
Si Si6 0.668447 0.430141 0.188535
O O1 0.332813 0.089010 0.500000
O O2 0.273602 0.058601 0.249792
O O3 0.331680 0.164859 0.264636
O O4 0.391706 0.058789 0.248897
O O5 0.000000 0.833344 0.763105
O O6 0.000000 0.758586 0.000000
O O7 0.059389 0.059389 0.727757
O O8 0.107331 0.000000 0.500000
O O9 0.271686 0.728315 0.776664
O O10 0.271998 0.609730 0.768012
O O11 0.223130 0.666876 0.000000
O O12 0.500000 0.000000 0.231311
O O13 0.574984 0.000000 0.000000
O O14 0.669283 0.500000 0.243326
O O15 0.608727 0.391274 0.237196
O O16 0.667708 0.431153 0.000000
#
# Coordination Sequence:
#
# PCOD9562205 Si02
#       6
#    16   8   8  16   8  16
#     4  11  22  36  55  78 106 136 170 216 264 310
#     4  11  22  37  57  79 106 138 173 211 253 306
#     4   9  19  37  59  82 110 142 174 211 257 307
#     4   9  18  33  51  72 102 139 178 217 257 307
#     4  10  21  38  59  80 104 136 172 209 254 313
#     4   8  14  25  43  69 100 133 169 210 255 302
#
# _framework density 17.538440000000001
#
# number of rings (size 3 to 8) (size 9 to 14) (size 15 to 20)
#    0.000    2.444    0.000    6.333    0.000    3.778 
#    0.000    3.889    0.000    0.000    0.000    0.000 
#    0.000    0.000    0.000    4.889    0.000    4.889 
#
# Total GULP energy -401757.557606 kJ/mol
# GULP energy per Si atom -5579.966078 kJ/mol
# Density = 1.749852 g / cm^3
# Si number density = 17.538440 Si / 1000 Ang^3
#
#
#
# Elastic Constant Matrix: (Units=GPa)
#
#
# Indices 1 2 3 4 5 6 
#
# 1 183.6709 97.4581 60.1138 0.0000 0.0000 0.0000
# 2 97.4581 183.6709 60.1138 0.0000 0.0000 0.0000
# 3 60.1138 60.1138 73.1937 0.0000 0.0000 0.0000
# 4 0.0000 0.0000 0.0000 6.2254 0.0000 0.0000
# 5 0.0000 0.0000 0.0000 0.0000 6.2254 0.0000
# 6 0.0000 0.0000 0.0000 0.0000 0.0000 4.3164
#
#
#
# Elastic Compliance Matrix: (Units=1/GPa)
#
#
# Indices 1 2 3 4 5 6 
#
# 1 0.008541 -0.003058 -0.004503 0.000000 0.000000 0.000000
# 2 -0.003058 0.008541 -0.004503 0.000000 0.000000 0.000000
# 3 -0.004503 -0.004503 0.021059 0.000000 0.000000 0.000000
# 4 0.000000 0.000000 0.000000 0.160632 0.000000 0.000000
# 5 0.000000 0.000000 0.000000 0.000000 0.160632 0.000000
# 6 0.000000 0.000000 0.000000 0.000000 0.000000 0.231673
#
#
# Mechanical properties :
#
#
# Convention : Reuss Voigt Hill
#
# Bulk Modulus (GPa) = 71.36453 97.32300 84.34377
# Shear Modulus (GPa) = 8.06612 18.21010 13.13811
#
# Velocity S-wave (km/s) = 2.14688 3.22576 2.73995
# Velocity P-wave (km/s) = 6.85012 8.33581 7.62922
#
# Compressibility (1/GPa) = 0.01401256
#
# Stress axis : x y z
#
# Youngs Moduli (GPa) = 117.08177 117.08177 47.48542
#
# Poissons Ratio (x) = 0.35806 0.21383
# Poissons Ratio (y) = 0.35806 0.21383
# Poissons Ratio (z) = 0.52723 0.52723
#
# Static dielectric constant tensor:
#      x y z
#    x 1.578470 0.000000 0.000000 
#    y 0.000000 1.578470 0.000000 
#    z 0.000000 0.000000 1.585930 
# 
# From -- ./inp_files/1231.got.cif
#   From: 2010.05.17/outbox.cif.g08.bks.cpg/sg123_1_cif.got.tgz:1231.got - 2010.05.20 11:43:04.
