data_PCOD9562295
_publ_section_title
;
Structure prediction by ZEFSAII (Michael W. Deem and Ramdas Pophale) SiO2 
 PCOD9562295
Probable space group: P 4/M M M
;
_chemical_formula_sum "Si O2"
_cell_formula_units_Z 104
_cell_length_a 18.000000
_cell_length_b 18.000000
_cell_length_c 18.000000
_cell_angle_alpha 90.000000
_cell_angle_beta 90.000000
_cell_angle_gamma 90.000000
_cell_volume 5832.000000
_symmetry_space_group_name_H-M "P 4/M M M"
_symmetry_group_IT_number 123
_symmetry_cell_setting 'tetragonal'
loop_
_space_group_symop_operation_xyz
x,y,z
-y,x,z
-x,-y,z
y,-x,z
x,-y,-z
-x,y,-z
y,x,-z
-y,-x,-z
-x,-y,-z
y,-x,-z
x,y,-z
-y,x,-z
-x,y,z
x,-y,z
-y,-x,z
y,x,z
loop_
_atom_site_type_symbol
_atom_site_label
_atom_site_fract_x
_atom_site_fract_y
_atom_site_fract_z
Si Si1 0.299468 0.417068 0.170697
Si Si2 0.195242 0.082660 0.589226
Si Si3 0.144430 0.341075 0.650565
Si Si4 0.416143 0.297406 0.352434
Si Si5 0.180954 0.306390 0.184388
Si Si6 0.587900 0.000000 0.583312
Si Si7 0.795644 0.916282 0.911624
O O1 0.300452 0.500000 0.144036
O O2 0.371378 0.371378 0.147874
O O3 0.297738 0.416775 0.261544
O O4 0.226955 0.372314 0.147251
O O5 0.197572 0.080559 0.500000
O O6 0.116507 0.116507 0.611803
O O7 0.259561 0.135756 0.617341
O O8 0.207940 0.000000 0.618172
O O9 0.219637 0.380269 0.625131
O O10 0.146758 0.333646 0.739007
O O11 0.073371 0.385858 0.624155
O O12 0.500000 0.304115 0.378315
O O13 0.364645 0.364645 0.376868
O O14 0.242940 0.242940 0.202316
O O15 0.121194 0.271762 0.130715
O O16 0.500000 0.000000 0.578618
O O17 0.620714 0.000000 0.500000
O O18 0.867815 0.867815 0.894673
O O19 0.806087 0.000000 0.887860
O O20 0.783833 0.913559 0.000000
#
# Coordination Sequence:
#
# PCOD9562295 Si02
#       7
#    16  16  16  16  16   8  16
#     4   8  14  25  42  67  98 129 163 204 247 293
#     4  10  20  33  49  69  93 123 160 201 248 301
#     4  11  19  33  52  73 101 133 170 212 259 306
#     4   9  17  29  47  72 101 132 165 204 253 306
#     4   9  18  31  50  74 101 135 173 211 251 301
#     4  11  24  38  52  74 104 134 168 217 268 316
#     4   9  18  32  51  75 104 137 172 213 260 309
#
# _framework density 17.832647000000001
#
# number of rings (size 3 to 8) (size 9 to 14) (size 15 to 20)
#    0.000    2.538    0.769    3.231    1.077    1.231 
#    0.000    3.077    0.000    0.462    0.000    3.231 
#    0.000    0.000    0.000   15.538    0.000   15.846 
#
# Total GULP energy -579375.303577 kJ/mol
# GULP energy per Si atom -5570.916381 kJ/mol
# Density = 1.779206 g / cm^3
# Si number density = 17.832647 Si / 1000 Ang^3
#
#
#
# Elastic Constant Matrix: (Units=GPa)
#
#
# Indices 1 2 3 4 5 6 
#
# 1 127.4909 87.1671 41.0773 0.0000 0.0000 0.0000
# 2 87.1671 127.4909 41.0773 0.0000 0.0000 0.0000
# 3 41.0773 41.0773 -14.3409 0.0000 0.0000 0.0000
# 4 0.0000 0.0000 0.0000 28.8656 0.0000 0.0000
# 5 0.0000 0.0000 0.0000 0.0000 28.8656 0.0000
# 6 0.0000 0.0000 0.0000 0.0000 0.0000 15.7633
#
#
#
# Elastic Compliance Matrix: (Units=1/GPa)
#
#
# Indices 1 2 3 4 5 6 
#
# 1 0.013511 -0.011288 0.006366 0.000000 0.000000 0.000000
# 2 -0.011288 0.013511 0.006366 0.000000 0.000000 0.000000
# 3 0.006366 0.006366 -0.033264 0.000000 0.000000 0.000000
# 4 0.000000 0.000000 0.000000 0.034643 0.000000 0.000000
# 5 0.000000 0.000000 0.000000 0.000000 0.034643 0.000000
# 6 0.000000 0.000000 0.000000 0.000000 0.000000 0.063439
#
#
# Mechanical properties :
#
#
# Convention : Reuss Voigt Hill
#
# Bulk Modulus (GPa) = -297.82974 64.36493 -116.73240
# Shear Modulus (GPa) = 40.82370 19.45352 30.13861
#
# Velocity S-wave (km/s) = 4.78982 3.30645 4.11552
# Velocity P-wave (km/s) = 11.69558 7.12384 6.55887
#
# Compressibility (1/GPa) = -0.00335762
#
# Stress axis : x y z
#
# Youngs Moduli (GPa) = 74.01487 74.01487 -30.06215
#
# Poissons Ratio (x) = 0.83551 0.19136
# Poissons Ratio (y) = 0.83551 0.19136
# Poissons Ratio (z) = -0.47114 -0.47114
#
# Static dielectric constant tensor:
#      x y z
#    x 1.614730 0.000000 0.000000 
#    y 0.000000 1.614730 0.000000 
#    z 0.000000 0.000000 1.592180 
# 
# From -- ./inp_files/5649.got.cif
#   From: 2010.05.17/outbox.ucp.g08.bks.cvg/sg123_3_cif.got.tgz:5649.got - 2010.06.11 11:35:48.
