data_PCOD9562401
_publ_section_title
;
Structure prediction by ZEFSAII (Michael W. Deem and Ramdas Pophale) SiO2 
 PCOD9562401
Probable space group: P 4/M C C
;
_chemical_formula_sum "Si O2"
_cell_formula_units_Z 116
_cell_length_a 18.457644
_cell_length_b 18.457644
_cell_length_c 17.216651
_cell_angle_alpha 90.000000
_cell_angle_beta 90.000000
_cell_angle_gamma 90.000000
_cell_volume 5865.448239
_symmetry_space_group_name_H-M "P 4/M C C"
_symmetry_group_IT_number 124
_symmetry_cell_setting 'tetragonal'
loop_
_space_group_symop_operation_xyz
x,y,z
-y,x,z
-x,-y,z
y,-x,z
x,-y,1/2-z
-x,y,1/2-z
y,x,1/2-z
-y,-x,1/2-z
-x,-y,-z
y,-x,-z
x,y,-z
-y,x,-z
-x,y,1/2+z
x,-y,1/2+z
-y,-x,1/2+z
y,x,1/2+z
loop_
_atom_site_type_symbol
_atom_site_label
_atom_site_fract_x
_atom_site_fract_y
_atom_site_fract_z
Si Si1 0.500000 0.500000 0.394019
Si Si2 0.497373 0.791091 0.661997
Si Si3 0.266339 0.284843 0.158492
Si Si4 0.631528 0.866173 0.408035
Si Si5 0.010731 0.286025 0.594610
Si Si6 0.837401 0.347675 0.908920
Si Si7 0.362889 0.580371 0.333959
Si Si8 0.881729 0.999699 0.905386
O O1 0.424285 0.546832 0.387422
O O2 0.500000 0.817386 0.750000
O O3 0.550068 0.841965 0.611744
O O4 0.416282 0.801009 0.632391
O O5 0.527578 0.707929 0.665791
O O6 0.270451 0.270451 0.250000
O O7 0.191106 0.320369 0.137780
O O8 0.280484 0.214802 0.107784
O O9 0.328865 0.343735 0.140305
O O10 0.642525 0.857659 0.500000
O O11 0.660956 0.944675 0.385507
O O12 0.014361 0.282641 0.500000
O O13 0.084373 0.324073 0.621691
O O14 0.001633 0.202179 0.620804
O O15 0.842334 0.363388 0.000000
O O16 0.402681 0.597319 0.250000
O O17 0.929040 0.070543 0.882106
O O18 0.880592 0.999995 0.000000
#
# Coordination Sequence:
#
# PCOD9562401 Si02
#       8
#     4  16  16  16  16  16  16  16
#     4  12  17  24  48  80 105 130 169 224 281 326
#     4  11  22  39  58  80 115 155 197 250 302 362
#     4  10  21  38  57  83 118 157 199 241 292 358
#     4  10  21  38  59  84 114 152 198 250 304 357
#     4   9  20  34  53  85 119 152 194 247 302 357
#     4  11  22  37  59  88 118 154 199 251 304 356
#     4  10  19  31  53  82 109 142 187 235 284 346
#     4   8  14  26  48  80 116 150 185 235 297 355
#
# _framework density 19.776835999999999
#
# number of rings (size 3 to 8) (size 9 to 14) (size 15 to 20)
#    0.000    2.069    0.000    6.000    1.931    0.552 
#    0.000    5.517    0.000    0.000    0.000   17.379 
#    0.000    1.103    0.000    0.000    0.000    0.000 
#
# Total GULP energy -646024.522520 kJ/mol
# GULP energy per Si atom -5569.176918 kJ/mol
# Density = 1.973182 g / cm^3
# Si number density = 19.776836 Si / 1000 Ang^3
#
#
#
# Elastic Constant Matrix: (Units=GPa)
#
#
# Indices 1 2 3 4 5 6 
#
# 1 61.6146 6.8029 -0.0165 0.0000 0.0000 0.0000
# 2 6.8029 61.6143 -0.0164 0.0000 0.0000 0.0000
# 3 -0.0165 -0.0164 20.5369 0.0000 0.0000 0.0000
# 4 0.0000 0.0000 0.0000 -76.8269 0.0000 0.0000
# 5 0.0000 0.0000 0.0000 0.0000 -76.7915 0.0000
# 6 0.0000 0.0000 0.0000 0.0000 0.0000 19.7598
#
#
#
# Elastic Compliance Matrix: (Units=1/GPa)
#
#
# Indices 1 2 3 4 5 6 
#
# 1 0.016430 -0.001814 0.000012 0.000000 0.000000 0.000000
# 2 -0.001814 0.016430 0.000012 0.000000 0.000000 0.000000
# 3 0.000012 0.000012 0.048693 0.000000 0.000000 0.000000
# 4 0.000000 0.000000 0.000000 -0.013016 0.000000 0.000000
# 5 0.000000 0.000000 0.000000 0.000000 -0.013022 0.000000
# 6 0.000000 0.000000 0.000000 0.000000 0.000000 0.050608
#
#
# Mechanical properties :
#
#
# Convention : Reuss Voigt Hill
#
# Bulk Modulus (GPa) = 12.82513 17.47844 15.15179
# Shear Modulus (GPa) = 36.84744 -17.63866 9.60439
#
# Velocity S-wave (km/s) = 4.32112 -2.98968 2.20611
# Velocity P-wave (km/s) = 5.60313 1.74945 3.76394
#
# Compressibility (1/GPa) = 0.07797191
#
# Stress axis : x y z
#
# Youngs Moduli (GPa) = 60.86349 60.86320 20.53691
#
# Poissons Ratio (x) = 0.11041 -0.00024
# Poissons Ratio (y) = 0.11041 -0.00024
# Poissons Ratio (z) = -0.00071 -0.00071
#
# Static dielectric constant tensor:
#      x y z
#    x 1.696940 0.000000 0.000000 
#    y 0.000000 1.696940 0.000000 
#    z 0.000000 0.000000 1.701740 
# 
# From -- ./inp_files/4429.got.cif
#   From: 2010.05.17/outbox.cif.g08.bks.cpg/sg124_3_cif.got.tgz:4429.got - 2010.05.20 11:49:17.
