data_PCOD9562408
_publ_section_title
;
Structure prediction by ZEFSAII (Michael W. Deem and Ramdas Pophale) SiO2 
 PCOD9562408
Probable space group: P 4/M C C
;
_chemical_formula_sum "Si O2"
_cell_formula_units_Z 96
_cell_length_a 23.710434
_cell_length_b 23.710434
_cell_length_c 9.202368
_cell_angle_alpha 90.000000
_cell_angle_beta 90.000000
_cell_angle_gamma 90.000000
_cell_volume 5173.430314
_symmetry_space_group_name_H-M "P 4/M C C"
_symmetry_group_IT_number 124
_symmetry_cell_setting 'tetragonal'
loop_
_space_group_symop_operation_xyz
x,y,z
-y,x,z
-x,-y,z
y,-x,z
x,-y,1/2-z
-x,y,1/2-z
y,x,1/2-z
-y,-x,1/2-z
-x,-y,-z
y,-x,-z
x,y,-z
-y,x,-z
-x,y,1/2+z
x,-y,1/2+z
-y,-x,1/2+z
y,x,1/2+z
loop_
_atom_site_type_symbol
_atom_site_label
_atom_site_fract_x
_atom_site_fract_y
_atom_site_fract_z
Si Si1 0.560850 0.818853 0.824556
Si Si2 0.945457 0.129302 0.663050
Si Si3 0.831874 0.249018 0.833846
Si Si4 0.055927 0.265110 0.165206
Si Si5 0.265013 0.655604 0.833924
Si Si6 0.944815 0.438094 0.825122
O O1 0.500000 0.815246 0.750000
O O2 0.601169 0.768109 0.774294
O O3 0.585860 0.881997 0.796976
O O4 0.555213 0.815315 0.000000
O O5 0.891808 0.108193 0.750000
O O6 0.944393 0.107321 0.500000
O O7 0.947792 0.196844 0.657152
O O8 0.000000 0.109049 0.750000
O O9 0.803087 0.196914 0.750000
O O10 0.886518 0.273425 0.753411
O O11 0.783620 0.296599 0.837033
O O12 0.846244 0.233283 0.000000
O O13 0.000000 0.283927 0.250000
O O14 0.058076 0.287004 0.000000
O O15 0.317564 0.682437 0.750000
O O16 0.281676 0.644044 0.000000
O O17 0.941788 0.500000 0.750000
O O18 0.000000 0.411273 0.750000
O O19 0.952659 0.441898 0.000000
#
# Coordination Sequence:
#
# PCOD9562408 Si02
#       6
#    16  16  16  16  16  16
#     4   9  18  32  50  74 105 139 176 218 263 310
#     4  10  20  32  45  60  78 100 128 165 212 268
#     4  10  19  32  51  71  93 123 159 199 243 292
#     4  10  20  33  49  68  90 115 146 188 237 289
#     4   9  19  35  53  75 104 136 171 213 256 299
#     4   9  15  24  40  62  91 127 167 211 256 302
#
# _framework density 18.556353000000001
#
# number of rings (size 3 to 8) (size 9 to 14) (size 15 to 20)
#    0.000    2.500    0.000    3.000    0.000    5.500 
#    0.000    1.667    0.000    2.000    0.000    0.000 
#    0.000    0.333    0.000    3.667    0.000    2.667 
#
# Total GULP energy -535358.427681 kJ/mol
# GULP energy per Si atom -5576.650288 kJ/mol
# Density = 1.851412 g / cm^3
# Si number density = 18.556353 Si / 1000 Ang^3
#
#
#
# Elastic Constant Matrix: (Units=GPa)
#
#
# Indices 1 2 3 4 5 6 
#
# 1 79.5670 35.4559 31.8901 0.0000 0.0000 0.0000
# 2 35.4559 79.5671 31.8927 0.0000 0.0000 0.0000
# 3 31.8901 31.8927 105.2804 0.0000 0.0000 0.0000
# 4 0.0000 0.0000 0.0000 14.6428 0.0000 0.0000
# 5 0.0000 0.0000 0.0000 0.0000 14.6426 0.0000
# 6 0.0000 0.0000 0.0000 0.0000 0.0000 11.3193
#
#
#
# Elastic Compliance Matrix: (Units=1/GPa)
#
#
# Indices 1 2 3 4 5 6 
#
# 1 0.016559 -0.006110 -0.003165 0.000000 0.000000 0.000000
# 2 -0.006110 0.016560 -0.003166 0.000000 0.000000 0.000000
# 3 -0.003165 -0.003166 0.011416 0.000000 0.000000 0.000000
# 4 0.000000 0.000000 0.000000 0.068293 0.000000 0.000000
# 5 0.000000 0.000000 0.000000 0.000000 0.068294 0.000000
# 6 0.000000 0.000000 0.000000 0.000000 0.000000 0.088345
#
#
# Mechanical properties :
#
#
# Convention : Reuss Voigt Hill
#
# Bulk Modulus (GPa) = 50.88191 51.43245 51.15718
# Shear Modulus (GPa) = 16.61684 19.13266 17.87475
#
# Velocity S-wave (km/s) = 2.99570 3.21449 3.10702
# Velocity P-wave (km/s) = 6.28056 6.44627 6.36395
#
# Compressibility (1/GPa) = 0.01965335
#
# Stress axis : x y z
#
# Youngs Moduli (GPa) = 60.38874 60.38740 87.59590
#
# Poissons Ratio (x) = 0.36899 0.27723
# Poissons Ratio (y) = 0.36900 0.27729
# Poissons Ratio (z) = 0.19112 0.19116
#
# Static dielectric constant tensor:
#      x y z
#    x 1.665550 0.000000 0.000000 
#    y 0.000000 1.665550 0.000000 
#    z 0.000000 0.000000 1.658970 
# 
# From -- ./inp_files/1400.got.cif
#   From: 2010.05.17/outbox.cif.g08.bks.cpg/sg124_1_cif.got.tgz:1400.got - 2010.05.20 11:49:17.
