data_PCOD9562605
_publ_section_title
;
Structure prediction by ZEFSAII (Michael W. Deem and Ramdas Pophale) SiO2 
 PCOD9562605
Probable space group: P 4/M C C
;
_chemical_formula_sum "Si O2"
_cell_formula_units_Z 116
_cell_length_a 18.752575
_cell_length_b 18.752575
_cell_length_c 17.074031
_cell_angle_alpha 90.000000
_cell_angle_beta 90.000000
_cell_angle_gamma 90.000000
_cell_volume 6004.237848
_symmetry_space_group_name_H-M "P 4/M C C"
_symmetry_group_IT_number 124
_symmetry_cell_setting 'tetragonal'
loop_
_space_group_symop_operation_xyz
x,y,z
-y,x,z
-x,-y,z
y,-x,z
x,-y,1/2-z
-x,y,1/2-z
y,x,1/2-z
-y,-x,1/2-z
-x,-y,-z
y,-x,-z
x,y,-z
-y,x,-z
-x,y,1/2+z
x,-y,1/2+z
-y,-x,1/2+z
y,x,1/2+z
loop_
_atom_site_type_symbol
_atom_site_label
_atom_site_fract_x
_atom_site_fract_y
_atom_site_fract_z
Si Si1 0.847693 0.901287 0.329908
Si Si2 0.401755 0.253294 0.590968
Si Si3 0.500000 0.500000 0.106052
Si Si4 0.379318 0.590550 0.163473
Si Si5 0.783927 0.457869 0.830489
Si Si6 0.221387 0.264377 0.832274
Si Si7 0.801731 0.045398 0.591157
Si Si8 0.152376 0.676967 0.092279
O O1 0.893075 0.893075 0.250000
O O2 0.778760 0.851131 0.319446
O O3 0.896030 0.863644 0.395920
O O4 0.822222 0.978606 0.355469
O O5 0.385437 0.257609 0.500000
O O6 0.392441 0.331348 0.629228
O O7 0.479997 0.222666 0.605230
O O8 0.342436 0.207515 0.635881
O O9 0.418253 0.531650 0.110792
O O10 0.413949 0.586052 0.250000
O O11 0.295927 0.574806 0.174093
O O12 0.800088 0.500000 0.750000
O O13 0.835759 0.393931 0.856451
O O14 0.263048 0.263048 0.750000
O O15 0.271541 0.220259 0.891569
O O16 0.797827 0.024796 0.500000
O O17 0.727430 0.084895 0.612894
O O18 0.149297 0.659720 0.000000
#
# Coordination Sequence:
#
# PCOD9562605 Si02
#       8
#    16  16   4  16  16  16  16  16
#     4  10  21  38  64  95 129 162 201 242 287 346
#     4  12  24  34  51  80 112 147 198 259 316 367
#     4  12  21  36  53  70 101 148 189 238 321 408
#     4  12  21  36  53  72 103 148 195 245 318 391
#     4  12  22  36  57  78 110 154 209 264 316 373
#     4  10  20  37  59  84 113 155 204 253 302 361
#     4  10  21  38  62  95 130 168 201 236 293 364
#     4  10  21  37  58  83 120 161 205 254 307 366
#
# _framework density 19.319687999999999
#
# number of rings (size 3 to 8) (size 9 to 14) (size 15 to 20)
#    0.000    1.103    4.138    3.517    0.000    2.483 
#    0.000    1.724    0.000    0.828    0.000    3.862 
#    0.000    0.000    0.000    0.000    0.000    0.000 
#
# Total GULP energy -647046.943023 kJ/mol
# GULP energy per Si atom -5577.990888 kJ/mol
# Density = 1.927572 g / cm^3
# Si number density = 19.319688 Si / 1000 Ang^3
#
#
#
# Elastic Constant Matrix: (Units=GPa)
#
#
# Indices 1 2 3 4 5 6 
#
# 1 99.7089 62.0618 38.4130 0.0000 0.0000 0.0000
# 2 62.0618 99.7093 38.4133 0.0000 0.0000 0.0000
# 3 38.4130 38.4133 78.8597 0.0000 0.0000 0.0000
# 4 0.0000 0.0000 0.0000 21.9423 0.0000 0.0000
# 5 0.0000 0.0000 0.0000 0.0000 21.9423 0.0000
# 6 0.0000 0.0000 0.0000 0.0000 0.0000 24.5121
#
#
#
# Elastic Compliance Matrix: (Units=1/GPa)
#
#
# Indices 1 2 3 4 5 6 
#
# 1 0.017302 -0.009260 -0.003917 0.000000 0.000000 0.000000
# 2 -0.009260 0.017302 -0.003917 0.000000 0.000000 0.000000
# 3 -0.003917 -0.003917 0.016497 0.000000 0.000000 0.000000
# 4 0.000000 0.000000 0.000000 0.045574 0.000000 0.000000
# 5 0.000000 0.000000 0.000000 0.000000 0.045574 0.000000
# 6 0.000000 0.000000 0.000000 0.000000 0.000000 0.040796
#
#
# Mechanical properties :
#
#
# Convention : Reuss Voigt Hill
#
# Bulk Modulus (GPa) = 59.13050 61.78380 60.45715
# Shear Modulus (GPa) = 22.43435 22.97198 22.70316
#
# Velocity S-wave (km/s) = 3.41136 3.45199 3.43174
# Velocity P-wave (km/s) = 6.79627 6.92369 6.86028
#
# Compressibility (1/GPa) = 0.01691175
#
# Stress axis : x y z
#
# Youngs Moduli (GPa) = 57.79627 57.79640 60.61700
#
# Poissons Ratio (x) = 0.53521 0.23745
# Poissons Ratio (y) = 0.53521 0.23746
# Poissons Ratio (z) = 0.22640 0.22641
#
# Static dielectric constant tensor:
#      x y z
#    x 1.674820 0.000000 0.000000 
#    y 0.000000 1.674830 0.000000 
#    z 0.000000 0.000000 1.725660 
# 
# From -- ./inp_files/4437.got.cif
#   From: 2010.05.17/outbox.cif.g08.bks.cpg/sg124_3_cif.got.tgz:4437.got - 2010.05.20 11:49:17.
