data_PCOD9562413
_publ_section_title
;
Structure prediction by ZEFSAII (Michael W. Deem and Ramdas Pophale) SiO2 
 PCOD9562413
Probable space group: P 4/M C C
;
_chemical_formula_sum "Si O2"
_cell_formula_units_Z 72
_cell_length_a 20.391368
_cell_length_b 20.391368
_cell_length_c 10.108948
_cell_angle_alpha 90.000000
_cell_angle_beta 90.000000
_cell_angle_gamma 90.000000
_cell_volume 4203.380327
_symmetry_space_group_name_H-M "P 4/M C C"
_symmetry_group_IT_number 124
_symmetry_cell_setting 'tetragonal'
loop_
_space_group_symop_operation_xyz
x,y,z
-y,x,z
-x,-y,z
y,-x,z
x,-y,1/2-z
-x,y,1/2-z
y,x,1/2-z
-y,-x,1/2-z
-x,-y,-z
y,-x,-z
x,y,-z
-y,x,-z
-x,y,1/2+z
x,-y,1/2+z
-y,-x,1/2+z
y,x,1/2+z
loop_
_atom_site_type_symbol
_atom_site_label
_atom_site_fract_x
_atom_site_fract_y
_atom_site_fract_z
Si Si1 0.902378 0.944073 0.000000
Si Si2 0.846479 0.762949 0.000000
Si Si3 0.748792 0.627840 0.500000
Si Si4 0.686717 0.575570 0.755165
Si Si5 0.250987 0.645996 0.500000
Si Si6 0.721995 0.859702 0.000000
Si Si7 0.924026 0.206222 0.774064
O O1 0.859873 0.922832 0.130022
O O2 0.976125 0.913171 0.000000
O O3 0.781366 0.807082 0.000000
O O4 0.885608 0.783107 0.865420
O O5 0.816859 0.688261 0.000000
O O6 0.730244 0.587538 0.627108
O O7 0.701102 0.691567 0.500000
O O8 0.821754 0.654629 0.500000
O O9 0.666392 0.500000 0.750000
O O10 0.623533 0.623533 0.750000
O O11 0.732273 0.600566 0.874976
O O12 0.735783 0.900206 0.869120
O O13 0.000000 0.213325 0.750000
#
# Coordination Sequence:
#
# PCOD9562413 Si02
#       7
#     8   8   8  16   8   8  16
#     4  10  25  43  53  65 100 149 187 217 259 323
#     4  11  21  36  56  79  99 133 178 235 294 327
#     4   9  18  34  52  76 104 140 189 225 276 315
#     4  10  19  32  52  80 119 158 189 221 251 300
#     4   9  19  34  53  77 109 142 184 236 278 318
#     4  10  21  35  56  73  98 138 172 226 288 335
#     4  11  24  35  55  75 103 129 179 226 281 333
#
# _framework density 17.129071
#
# number of rings (size 3 to 8) (size 9 to 14) (size 15 to 20)
#    0.000    1.889    0.000    4.000    9.333    3.778 
#    0.000    1.111    0.000    5.333    0.000    0.000 
#    0.000   62.222    0.000    0.000    0.000    0.000 
#
# Total GULP energy -401008.439549 kJ/mol
# GULP energy per Si atom -5569.561660 kJ/mol
# Density = 1.709008 g / cm^3
# Si number density = 17.129071 Si / 1000 Ang^3
#
#
#
# Elastic Constant Matrix: (Units=GPa)
#
#
# Indices 1 2 3 4 5 6 
#
# 1 85.8034 61.2540 53.9412 0.0000 0.0000 0.0000
# 2 61.2540 85.8034 53.9412 0.0000 0.0000 0.0000
# 3 53.9412 53.9412 168.8388 0.0000 0.0000 0.0000
# 4 0.0000 0.0000 0.0000 35.8865 0.0000 0.0000
# 5 0.0000 0.0000 0.0000 0.0000 35.8865 0.0000
# 6 0.0000 0.0000 0.0000 0.0000 0.0000 20.6105
#
#
#
# Elastic Compliance Matrix: (Units=1/GPa)
#
#
# Indices 1 2 3 4 5 6 
#
# 1 0.024808 -0.015926 -0.002838 0.000000 0.000000 0.000000
# 2 -0.015926 0.024808 -0.002838 0.000000 0.000000 0.000000
# 3 -0.002838 -0.002838 0.007736 0.000000 0.000000 0.000000
# 4 0.000000 0.000000 0.000000 0.027866 0.000000 0.000000
# 5 0.000000 0.000000 0.000000 0.000000 0.027866 0.000000
# 6 0.000000 0.000000 0.000000 0.000000 0.000000 0.048519
#
#
# Mechanical properties :
#
#
# Convention : Reuss Voigt Hill
#
# Bulk Modulus (GPa) = 70.67585 75.41318 73.04452
# Shear Modulus (GPa) = 23.86394 29.89732 26.88063
#
# Velocity S-wave (km/s) = 3.73659 4.18235 3.96574
# Velocity P-wave (km/s) = 7.74380 8.21247 7.98158
#
# Compressibility (1/GPa) = 0.01414910
#
# Stress axis : x y z
#
# Youngs Moduli (GPa) = 40.30968 40.30968 129.26712
#
# Poissons Ratio (x) = 0.64198 0.36680
# Poissons Ratio (y) = 0.64198 0.36680
# Poissons Ratio (z) = 0.11438 0.11438
#
# Static dielectric constant tensor:
#      x y z
#    x 1.590370 0.000000 0.000000 
#    y 0.000000 1.590370 0.000000 
#    z 0.000000 0.000000 0.698030 
# 
# From -- ./inp_files/1105.got.cif
#   From: 2010.05.17/outbox.cif.g08.bks.cpg/sg124_1_cif.got.tgz:1105.got - 2010.05.20 11:49:17.
