data_PCOD9562034
_publ_section_title
;
Structure prediction by ZEFSAII (Michael W. Deem and Ramdas Pophale) SiO2 
 PCOD9562034
Probable space group: P 4/M M M
;
_chemical_formula_sum "Si O2"
_cell_formula_units_Z 80
_cell_length_a 15.674598
_cell_length_b 15.674598
_cell_length_c 18.700562
_cell_angle_alpha 90.000000
_cell_angle_beta 90.000000
_cell_angle_gamma 90.000000
_cell_volume 4594.597600
_symmetry_space_group_name_H-M "P 4/M M M"
_symmetry_group_IT_number 123
_symmetry_cell_setting 'tetragonal'
loop_
_space_group_symop_operation_xyz
x,y,z
-y,x,z
-x,-y,z
y,-x,z
x,-y,-z
-x,y,-z
y,x,-z
-y,-x,-z
-x,-y,-z
y,-x,-z
x,y,-z
-y,x,-z
-x,y,z
x,-y,z
-y,-x,z
y,x,z
loop_
_atom_site_type_symbol
_atom_site_label
_atom_site_fract_x
_atom_site_fract_y
_atom_site_fract_z
Si Si1 0.728584 0.407177 0.413470
Si Si2 0.096479 0.234060 0.275859
Si Si3 0.904794 0.674482 0.417047
Si Si4 0.098260 0.402693 0.816091
Si Si5 0.738017 0.597784 0.085555
O O1 0.719906 0.408452 0.500000
O O2 0.703017 0.500000 0.386038
O O3 0.668787 0.331214 0.386131
O O4 0.827486 0.388518 0.400102
O O5 0.167211 0.167211 0.252020
O O6 0.101776 0.248924 0.361057
O O7 0.108918 0.327560 0.241375
O O8 0.000000 0.206255 0.258156
O O9 0.895352 0.700610 0.500000
O O10 0.000000 0.637024 0.408558
O O11 0.107821 0.500000 0.787887
O O12 0.171463 0.390159 0.875214
O O13 0.000000 0.396262 0.843054
O O14 0.709795 0.500000 0.100429
O O15 0.667580 0.667580 0.107941
O O16 0.749110 0.605151 0.000000
#
# Coordination Sequence:
#
# PCOD9562034 Si02
#       5
#    16  16  16  16  16
#     4   9  17  28  42  61  85 112 141 174 213 260
#     4  10  20  33  50  70  93 123 155 191 237 285
#     4   9  18  32  49  68  89 115 150 193 241 289
#     4   9  18  32  49  70  96 125 159 198 237 277
#     4   9  17  29  47  72 101 132 163 194 229 271
#
# _framework density 17.411753000000001
#
# number of rings (size 3 to 8) (size 9 to 14) (size 15 to 20)
#    0.000    2.800    0.000    1.200    0.000    3.400 
#    0.000    8.000    0.000    0.000    0.000    2.800 
#    0.000    4.800    0.000   18.800    0.000    0.400 
#
# Total GULP energy -445396.809340 kJ/mol
# GULP energy per Si atom -5567.460117 kJ/mol
# Density = 1.737212 g / cm^3
# Si number density = 17.411753 Si / 1000 Ang^3
#
#
#
# Elastic Constant Matrix: (Units=GPa)
#
#
# Indices 1 2 3 4 5 6 
#
# 1 117.6673 93.9390 33.9949 0.0000 0.0000 0.0000
# 2 93.9390 117.6673 33.9949 0.0000 0.0000 0.0000
# 3 33.9949 33.9949 31.8783 0.0000 0.0000 0.0000
# 4 0.0000 0.0000 0.0000 15.5725 0.0000 0.0000
# 5 0.0000 0.0000 0.0000 0.0000 15.5725 0.0000
# 6 0.0000 0.0000 0.0000 0.0000 0.0000 15.9964
#
#
#
# Elastic Compliance Matrix: (Units=1/GPa)
#
#
# Indices 1 2 3 4 5 6 
#
# 1 0.024666 -0.017477 -0.007666 0.000000 0.000000 0.000000
# 2 -0.017477 0.024666 -0.007666 0.000000 0.000000 0.000000
# 3 -0.007666 -0.007666 0.047720 0.000000 0.000000 0.000000
# 4 0.000000 0.000000 0.000000 0.064216 0.000000 0.000000
# 5 0.000000 0.000000 0.000000 0.000000 0.064216 0.000000
# 6 0.000000 0.000000 0.000000 0.000000 0.000000 0.062514
#
#
# Mechanical properties :
#
#
# Convention : Reuss Voigt Hill
#
# Bulk Modulus (GPa) = 31.81398 65.67452 48.74425
# Shear Modulus (GPa) = 13.73262 16.44719 15.08990
#
# Velocity S-wave (km/s) = 2.81142 3.07677 2.94709
# Velocity P-wave (km/s) = 5.37122 7.10087 6.29573
#
# Compressibility (1/GPa) = 0.03143272
#
# Stress axis : x y z
#
# Youngs Moduli (GPa) = 40.54090 40.54090 20.95557
#
# Poissons Ratio (x) = 0.70855 0.16065
# Poissons Ratio (y) = 0.70855 0.16065
# Poissons Ratio (z) = 0.31080 0.31080
#
# Static dielectric constant tensor:
#      x y z
#    x 1.599780 0.000000 0.000000 
#    y 0.000000 1.599780 0.000000 
#    z 0.000000 0.000000 1.593830 
# 
# From -- ./inp_files/6302.got.cif
#   From: 2010.05.17/outbox.cif.g08.bks.cpg/sg123_4_cif.got.tgz:6302.got - 2010.05.20 11:43:04.
