data_PCOD9562971
_publ_section_title
;
Structure prediction by ZEFSAII (Michael W. Deem and Ramdas Pophale) SiO2 
 PCOD9562971
Probable space group: P 4/N B M
;
_chemical_formula_sum "Si O2"
_cell_formula_units_Z 96
_cell_length_a 26.050715
_cell_length_b 26.050715
_cell_length_c 7.896581
_cell_angle_alpha 90.000000
_cell_angle_beta 90.000000
_cell_angle_gamma 90.000000
_cell_volume 5358.933772
_symmetry_space_group_name_H-M "P 4/N B M"
_symmetry_group_IT_number 125
_space_group.IT_coordinate_system_code '2'
_symmetry_cell_setting 'tetragonal'
loop_
_space_group_symop_operation_xyz
x,y,z
1/2-y,x,z
1/2-x,1/2-y,z
y,1/2-x,z
x,1/2-y,-z
1/2-x,y,-z
y,x,-z
1/2-y,1/2-x,-z
-x,-y,-z
1/2+y,-x,-z
1/2+x,1/2+y,-z
-y,1/2+x,-z
-x,1/2+y,z
1/2+x,-y,z
-y,-x,z
1/2+y,1/2+x,z
loop_
_atom_site_type_symbol
_atom_site_label
_atom_site_fract_x
_atom_site_fract_y
_atom_site_fract_z
Si Si1 0.751501 0.041008 0.699298
Si Si2 0.108805 0.023296 0.483544
Si Si3 0.427223 0.212467 0.358981
Si Si4 0.947070 0.135770 0.817954
Si Si5 0.364252 0.950118 0.202226
Si Si6 0.827799 0.766616 0.196676
O O1 0.750000 0.054069 0.500000
O O2 0.803955 0.060857 0.781545
O O3 0.697011 0.057155 0.775016
O O4 0.760256 0.979312 0.705392
O O5 0.058264 0.058264 0.500000
O O6 0.158523 0.058293 0.442879
O O7 0.990669 0.118422 0.345566
O O8 0.111148 0.984002 0.324633
O O9 0.404771 0.250000 0.500000
O O10 0.384024 0.210914 0.219329
O O11 0.893563 0.106438 0.808718
O O12 0.968175 0.127980 0.008297
O O13 0.398828 0.898828 0.225195
O O14 0.787944 0.808488 0.269117
O O15 0.823555 0.750000 0.000000
#
# Coordination Sequence:
#
# PCOD9562971 Si02
#       6
#    16  16  16  16  16  16
#     4  10  19  38  61  88 118 153 192 242 290 346
#     4  11  24  40  57  86 122 155 198 256 303 350
#     4  10  20  35  55  77 107 141 192 236 291 346
#     4  10  22  39  63  91 120 160 202 239 295 363
#     4  11  22  39  63  89 120 161 201 242 298 356
#     4   9  20  36  52  75 107 146 190 239 299 358
#
# _framework density 17.914010000000001
#
# number of rings (size 3 to 8) (size 9 to 14) (size 15 to 20)
#    0.000    1.833    5.000    1.500    2.333    4.667 
#    0.000    2.500    0.000    0.500    0.000    3.500 
#    0.000    0.000    0.000    0.000    0.000    0.000 
#
# Total GULP energy -534487.535713 kJ/mol
# GULP energy per Si atom -5567.578497 kJ/mol
# Density = 1.787324 g / cm^3
# Si number density = 17.914010 Si / 1000 Ang^3
#
#
#
# Elastic Constant Matrix: (Units=GPa)
#
#
# Indices 1 2 3 4 5 6 
#
# 1 81.8501 71.0995 58.1516 0.0000 0.0000 0.0000
# 2 71.0995 81.8501 58.1516 0.0000 0.0000 0.0000
# 3 58.1516 58.1516 114.7966 0.0000 0.0000 0.0000
# 4 0.0000 0.0000 0.0000 19.5533 0.0000 0.0000
# 5 0.0000 0.0000 0.0000 0.0000 19.5533 0.0000
# 6 0.0000 0.0000 0.0000 0.0000 0.0000 5.3557
#
#
#
# Elastic Compliance Matrix: (Units=1/GPa)
#
#
# Indices 1 2 3 4 5 6 
#
# 1 0.051826 -0.041192 -0.005387 0.000000 0.000000 0.000000
# 2 -0.041192 0.051826 -0.005387 0.000000 0.000000 0.000000
# 3 -0.005387 -0.005387 0.014169 0.000000 0.000000 0.000000
# 4 0.000000 0.000000 0.000000 0.051142 0.000000 0.000000
# 5 0.000000 0.000000 0.000000 0.000000 0.051142 0.000000
# 6 0.000000 0.000000 0.000000 0.000000 0.000000 0.186716
#
#
# Mechanical properties :
#
#
# Convention : Reuss Voigt Hill
#
# Bulk Modulus (GPa) = 71.99640 72.58916 72.29278
# Shear Modulus (GPa) = 9.70151 14.96539 12.33345
#
# Velocity S-wave (km/s) = 2.32967 2.89347 2.62674
# Velocity P-wave (km/s) = 6.89302 7.19526 7.04576
#
# Compressibility (1/GPa) = 0.01388958
#
# Stress axis : x y z
#
# Youngs Moduli (GPa) = 19.29522 19.29522 70.57798
#
# Poissons Ratio (x) = 0.79481 0.38020
# Poissons Ratio (y) = 0.79481 0.38020
# Poissons Ratio (z) = 0.10394 0.10394
#
# Static dielectric constant tensor:
#      x y z
#    x 1.625350 0.000000 0.000000 
#    y 0.000000 1.625350 0.000000 
#    z 0.000000 0.000000 1.682800 
# 
# From -- ./inp_files/2901.got.cif
#   From: 2010.05.17/outbox.cif.g08.bks.cpg/sg125_2_cif.got.tgz:2901.got - 2010.05.20 11:54:10.
