data_PCOD9562546
_publ_section_title
;
Structure prediction by ZEFSAII (Michael W. Deem and Ramdas Pophale) SiO2 
 PCOD9562546
Probable space group: P 4/M C C
;
_chemical_formula_sum "Si O2"
_cell_formula_units_Z 112
_cell_length_a 17.635208
_cell_length_b 17.635208
_cell_length_c 17.154980
_cell_angle_alpha 90.000000
_cell_angle_beta 90.000000
_cell_angle_gamma 90.000000
_cell_volume 5335.208407
_symmetry_space_group_name_H-M "P 4/M C C"
_symmetry_group_IT_number 124
_symmetry_cell_setting 'tetragonal'
loop_
_space_group_symop_operation_xyz
x,y,z
-y,x,z
-x,-y,z
y,-x,z
x,-y,1/2-z
-x,y,1/2-z
y,x,1/2-z
-y,-x,1/2-z
-x,-y,-z
y,-x,-z
x,y,-z
-y,x,-z
-x,y,1/2+z
x,-y,1/2+z
-y,-x,1/2+z
y,x,1/2+z
loop_
_atom_site_type_symbol
_atom_site_label
_atom_site_fract_x
_atom_site_fract_y
_atom_site_fract_z
Si Si1 0.150528 0.448994 0.818687
Si Si2 0.320530 0.459626 0.825889
Si Si3 0.026897 0.278479 0.409916
Si Si4 0.740113 0.182862 0.642696
Si Si5 0.881158 0.721918 0.818574
Si Si6 0.066789 0.445607 0.408114
Si Si7 0.383073 0.692500 0.592751
O O1 0.115977 0.500000 0.750000
O O2 0.237374 0.433344 0.797415
O O3 0.114885 0.368073 0.833405
O O4 0.141524 0.507003 0.889605
O O5 0.358084 0.500000 0.750000
O O6 0.355479 0.384829 0.864099
O O7 0.307592 0.527813 0.886515
O O8 0.998748 0.282396 0.500000
O O9 0.109658 0.240952 0.409560
O O10 0.961371 0.248396 0.352356
O O11 0.052953 0.361756 0.378335
O O12 0.733376 0.144451 0.728812
O O13 0.810630 0.240113 0.637465
O O14 0.665831 0.234277 0.622665
O O15 0.061487 0.437570 0.500000
O O16 0.000000 0.500000 0.380252
O O17 0.371380 0.687746 0.500000
#
# Coordination Sequence:
#
# PCOD9562546 Si02
#       7
#    16  16  16  16  16  16  16
#     4  11  21  36  59  91 122 168 219 266 322 399
#     4  11  24  42  66  90 129 174 230 282 344 400
#     4  11  23  41  63  95 135 175 222 277 343 408
#     4  11  24  43  67  95 134 177 226 278 337 409
#     4  11  23  41  67  94 130 176 226 273 336 412
#     4  10  20  34  53  83 127 167 203 257 322 390
#     4  12  25  43  66  96 131 175 229 290 345 395
#
# _framework density 20.992619999999999
#
# number of rings (size 3 to 8) (size 9 to 14) (size 15 to 20)
#    0.000    1.000    2.857    5.143    2.000    4.000 
#    0.000    1.429    0.000    0.429    0.000    3.000 
#    0.000    0.000    0.000    0.000    0.000    0.000 
#
# Total GULP energy -624378.733629 kJ/mol
# GULP energy per Si atom -5574.810122 kJ/mol
# Density = 2.094484 g / cm^3
# Si number density = 20.992620 Si / 1000 Ang^3
#
#
#
# Elastic Constant Matrix: (Units=GPa)
#
#
# Indices 1 2 3 4 5 6 
#
# 1 96.4181 27.8556 31.0788 0.0000 0.0000 0.0000
# 2 27.8556 96.4181 31.0788 0.0000 0.0000 0.0000
# 3 31.0788 31.0788 82.2571 0.0000 0.0000 0.0000
# 4 0.0000 0.0000 0.0000 19.4142 0.0000 0.0000
# 5 0.0000 0.0000 0.0000 0.0000 19.4142 0.0000
# 6 0.0000 0.0000 0.0000 0.0000 0.0000 13.7801
#
#
#
# Elastic Compliance Matrix: (Units=1/GPa)
#
#
# Indices 1 2 3 4 5 6 
#
# 1 0.012253 -0.002332 -0.003749 0.000000 0.000000 0.000000
# 2 -0.002332 0.012253 -0.003749 0.000000 0.000000 0.000000
# 3 -0.003749 -0.003749 0.014990 0.000000 0.000000 0.000000
# 4 0.000000 0.000000 0.000000 0.051509 0.000000 0.000000
# 5 0.000000 0.000000 0.000000 0.000000 0.051509 0.000000
# 6 0.000000 0.000000 0.000000 0.000000 0.000000 0.072568
#
#
# Mechanical properties :
#
#
# Convention : Reuss Voigt Hill
#
# Bulk Modulus (GPa) = 50.40722 50.56886 50.48804
# Shear Modulus (GPa) = 20.71651 22.86037 21.78844
#
# Velocity S-wave (km/s) = 3.14482 3.30354 3.22516
# Velocity P-wave (km/s) = 6.10332 6.22031 6.16210
#
# Compressibility (1/GPa) = 0.01983843
#
# Stress axis : x y z
#
# Youngs Moduli (GPa) = 81.60947 81.60947 66.71249
#
# Poissons Ratio (x) = 0.19029 0.25008
# Poissons Ratio (y) = 0.19029 0.25008
# Poissons Ratio (z) = 0.30593 0.30593
#
# Static dielectric constant tensor:
#      x y z
#    x 1.812840 0.000000 0.000000 
#    y 0.000000 1.812840 0.000000 
#    z 0.000000 0.000000 1.909470 
# 
# From -- ./inp_files/4539.got.cif
#   From: 2010.05.17/outbox.cif.g08.bks.cpg/sg124_3_cif.got.tgz:4539.got - 2010.05.20 11:49:17.
