data_PCOD9562623
_publ_section_title
;
Structure prediction by ZEFSAII (Michael W. Deem and Ramdas Pophale) SiO2 
 PCOD9562623
Probable space group: P 4/M C C
;
_chemical_formula_sum "Si O2"
_cell_formula_units_Z 108
_cell_length_a 14.253515
_cell_length_b 14.253515
_cell_length_c 26.867962
_cell_angle_alpha 90.000000
_cell_angle_beta 90.000000
_cell_angle_gamma 90.000000
_cell_volume 5458.567431
_symmetry_space_group_name_H-M "P 4/M C C"
_symmetry_group_IT_number 124
_symmetry_cell_setting 'tetragonal'
loop_
_space_group_symop_operation_xyz
x,y,z
-y,x,z
-x,-y,z
y,-x,z
x,-y,1/2-z
-x,y,1/2-z
y,x,1/2-z
-y,-x,1/2-z
-x,-y,-z
y,-x,-z
x,y,-z
-y,x,-z
-x,y,1/2+z
x,-y,1/2+z
-y,-x,1/2+z
y,x,1/2+z
loop_
_atom_site_type_symbol
_atom_site_label
_atom_site_fract_x
_atom_site_fract_y
_atom_site_fract_z
Si Si1 0.871630 0.443445 0.199798
Si Si2 0.000000 0.000000 0.887330
Si Si3 0.787545 0.610160 0.859415
Si Si4 0.801866 0.088177 0.600025
Si Si5 0.110388 0.116850 0.500000
Si Si6 0.004519 0.605064 0.609761
Si Si7 0.361261 0.424211 0.943738
Si Si8 0.204596 0.760386 0.198578
O O1 0.894493 0.500000 0.250000
O O2 0.804988 0.509988 0.166629
O O3 0.958371 0.412776 0.164469
O O4 0.820426 0.346578 0.210439
O O5 0.884307 0.987795 0.890128
O O6 0.707869 0.608533 0.900902
O O7 0.767477 0.688241 0.818413
O O8 0.887606 0.631340 0.884341
O O9 0.834169 0.143028 0.550398
O O10 0.697069 0.047679 0.589149
O O11 0.792996 0.146473 0.650719
O O12 0.995321 0.126333 0.500000
O O13 0.000000 0.500000 0.585464
O O14 0.463809 0.377601 0.939140
O O15 0.326556 0.405508 0.000000
O O16 0.185155 0.814846 0.250000
#
# Coordination Sequence:
#
# PCOD9562623 Si02
#       8
#    16   4  16  16   8  16  16  16
#     4  10  20  39  62  84 117 163 212 255 305 377
#     4  12  20  41  69  96 134 164 209 281 336 386
#     4  11  20  36  62  90 120 157 204 259 303 374
#     4  11  22  41  65  95 127 163 215 267 321 393
#     4  11  20  40  71  92 122 168 217 265 326 398
#     4   9  22  39  60  86 123 163 210 254 309 377
#     4   9  19  38  63  89 119 156 196 247 316 381
#     4  11  23  40  60  95 128 165 212 264 320 380
#
# _framework density 19.785409999999999
#
# number of rings (size 3 to 8) (size 9 to 14) (size 15 to 20)
#    0.000    1.704    2.963    2.222    0.000    2.667 
#    2.667    2.963   13.037    0.000    0.000    0.000 
#    0.000    0.000    0.000    0.000    0.000    0.000 
#
# Total GULP energy -601229.984815 kJ/mol
# GULP energy per Si atom -5566.944304 kJ/mol
# Density = 1.974038 g / cm^3
# Si number density = 19.785410 Si / 1000 Ang^3
#
#
#
# Elastic Constant Matrix: (Units=GPa)
#
#
# Indices 1 2 3 4 5 6 
#
# 1 52.6948 25.8704 30.8298 0.0000 0.0000 0.0000
# 2 25.8704 52.6942 30.8292 0.0000 0.0000 0.0000
# 3 30.8298 30.8292 115.2115 0.0000 0.0000 0.0000
# 4 0.0000 0.0000 0.0000 25.1876 0.0000 0.0000
# 5 0.0000 0.0000 0.0000 0.0000 25.1880 0.0000
# 6 0.0000 0.0000 0.0000 0.0000 0.0000 -2.6757
#
#
#
# Elastic Compliance Matrix: (Units=1/GPa)
#
#
# Indices 1 2 3 4 5 6 
#
# 1 0.026696 -0.010584 -0.004312 0.000000 0.000000 0.000000
# 2 -0.010584 0.026696 -0.004311 0.000000 0.000000 0.000000
# 3 -0.004312 -0.004311 0.010987 0.000000 0.000000 0.000000
# 4 0.000000 0.000000 0.000000 0.039702 0.000000 0.000000
# 5 0.000000 0.000000 0.000000 0.000000 0.039701 0.000000
# 6 0.000000 0.000000 0.000000 0.000000 0.000000 -0.373729
#
#
# Mechanical properties :
#
#
# Convention : Reuss Voigt Hill
#
# Bulk Modulus (GPa) = 38.51277 43.96215 41.23746
# Shear Modulus (GPa) = -27.34071 18.41136 -4.46467
#
# Velocity S-wave (km/s) = -3.72137 3.05381 -1.50381
# Velocity P-wave (km/s) = 1.02111 5.89084 4.22757
#
# Compressibility (1/GPa) = 0.02596541
#
# Stress axis : x y z
#
# Youngs Moduli (GPa) = 37.45893 37.45874 91.01597
#
# Poissons Ratio (x) = 0.39646 0.39242
# Poissons Ratio (y) = 0.39646 0.39240
# Poissons Ratio (z) = 0.16150 0.16150
#
# Static dielectric constant tensor:
#      x y z
#    x 1.721440 0.000000 0.000000 
#    y 0.000000 1.721440 0.000000 
#    z 0.000000 0.000000 1.723860 
# 
# From -- ./inp_files/6140.got.cif
#   From: 2010.05.17/outbox.cif.g08.bks.cpg/sg124_4_cif.got.tgz:6140.got - 2010.05.20 11:49:17.
