data_PCOD9562124
_publ_section_title
;
Structure prediction by ZEFSAII (Michael W. Deem and Ramdas Pophale) SiO2 
 PCOD9562124
Probable space group: P 4/M M M
;
_chemical_formula_sum "Si O2"
_cell_formula_units_Z 44
_cell_length_a 17.296206
_cell_length_b 17.296206
_cell_length_c 8.004619
_cell_angle_alpha 90.000000
_cell_angle_beta 90.000000
_cell_angle_gamma 90.000000
_cell_volume 2394.651750
_symmetry_space_group_name_H-M "P 4/M M M"
_symmetry_group_IT_number 123
_symmetry_cell_setting 'tetragonal'
loop_
_space_group_symop_operation_xyz
x,y,z
-y,x,z
-x,-y,z
y,-x,z
x,-y,-z
-x,y,-z
y,x,-z
-y,-x,-z
-x,-y,-z
y,-x,-z
x,y,-z
-y,x,-z
-x,y,z
x,-y,z
-y,-x,z
y,x,z
loop_
_atom_site_type_symbol
_atom_site_label
_atom_site_fract_x
_atom_site_fract_y
_atom_site_fract_z
Si Si1 0.211691 0.338484 0.698582
Si Si2 0.786963 0.088455 0.202340
Si Si3 0.500000 0.258604 0.185352
Si Si4 0.500000 0.371298 0.500000
O O1 0.217947 0.351472 0.500000
O O2 0.285662 0.285662 0.750416
O O3 0.136807 0.286649 0.735371
O O4 0.211590 0.420671 0.789067
O O5 0.862469 0.137532 0.254315
O O6 0.788086 0.000000 0.259595
O O7 0.785036 0.088591 0.000000
O O8 0.500000 0.320615 0.333568
O O9 0.500000 0.292986 0.000000
O O10 0.574886 0.425115 0.500000
#
# Coordination Sequence:
#
# PCOD9562124 Si02
#       4
#    16  16   8   4
#     4  10  20  36  57  80 110 148 192 241 289 341
#     4   9  18  33  54  82 115 150 190 236 287 345
#     4  12  23  37  60  85 113 152 196 240 289 346
#     4  11  24  40  56  82 119 150 188 242 291 344
#
# _framework density 18.374279999999999
#
# number of rings (size 3 to 8) (size 9 to 14) (size 15 to 20)
#    0.000    1.909    1.818    2.182    0.000    5.455 
#    0.000    3.636    0.000    5.455    0.000    5.091 
#    0.000    0.000    0.000    0.000    0.000    0.000 
#
# Total GULP energy -245683.120901 kJ/mol
# GULP energy per Si atom -5583.707293 kJ/mol
# Density = 1.833246 g / cm^3
# Si number density = 18.374280 Si / 1000 Ang^3
#
#
#
# Elastic Constant Matrix: (Units=GPa)
#
#
# Indices 1 2 3 4 5 6 
#
# 1 147.9996 67.6965 35.9309 0.0000 0.0000 0.0000
# 2 67.6965 148.0000 35.9308 0.0000 0.0000 0.0000
# 3 35.9309 35.9308 77.5056 0.0000 0.0000 0.0000
# 4 0.0000 0.0000 0.0000 18.6163 0.0000 0.0000
# 5 0.0000 0.0000 0.0000 0.0000 18.6094 0.0000
# 6 0.0000 0.0000 0.0000 0.0000 0.0000 15.5562
#
#
#
# Elastic Compliance Matrix: (Units=1/GPa)
#
#
# Indices 1 2 3 4 5 6 
#
# 1 0.008968 -0.003485 -0.002542 0.000000 0.000000 0.000000
# 2 -0.003485 0.008968 -0.002542 0.000000 0.000000 0.000000
# 3 -0.002542 -0.002542 0.015259 0.000000 0.000000 0.000000
# 4 0.000000 0.000000 0.000000 0.053716 0.000000 0.000000
# 5 0.000000 0.000000 0.000000 0.000000 0.053736 0.000000
# 6 0.000000 0.000000 0.000000 0.000000 0.000000 0.064283
#
#
# Mechanical properties :
#
#
# Convention : Reuss Voigt Hill
#
# Bulk Modulus (GPa) = 62.27582 72.51351 67.39467
# Shear Modulus (GPa) = 21.98570 26.15283 24.06927
#
# Velocity S-wave (km/s) = 3.46287 3.77681 3.62324
# Velocity P-wave (km/s) = 7.06789 7.65307 7.36629
#
# Compressibility (1/GPa) = 0.01605760
#
# Stress axis : x y z
#
# Youngs Moduli (GPa) = 111.50865 111.50905 65.53487
#
# Poissons Ratio (x) = 0.38860 0.16658
# Poissons Ratio (y) = 0.38860 0.16658
# Poissons Ratio (z) = 0.28344 0.28344
#
# Static dielectric constant tensor:
#      x y z
#    x 1.622260 0.000000 0.000000 
#    y 0.000000 1.622260 0.000000 
#    z 0.000000 0.000000 1.647770 
# 
# From -- ./inp_files/439.got.cif
#   From: 2010.05.17/outbox.cif.g08.bks.cpg/sg123_1_cif.got.tgz:439.got - 2010.05.20 11:43:04.
