data_PCOD9562231
_publ_section_title
;
Structure prediction by ZEFSAII (Michael W. Deem and Ramdas Pophale) SiO2 
 PCOD9562231
Probable space group: P 4/M M M
;
_chemical_formula_sum "Si O2"
_cell_formula_units_Z 64
_cell_length_a 19.435170
_cell_length_b 19.435170
_cell_length_c 8.577832
_cell_angle_alpha 90.000000
_cell_angle_beta 90.000000
_cell_angle_gamma 90.000000
_cell_volume 3240.068737
_symmetry_space_group_name_H-M "P 4/M M M"
_symmetry_group_IT_number 123
_symmetry_cell_setting 'tetragonal'
loop_
_space_group_symop_operation_xyz
x,y,z
-y,x,z
-x,-y,z
y,-x,z
x,-y,-z
-x,y,-z
y,x,-z
-y,-x,-z
-x,-y,-z
y,-x,-z
x,y,-z
-y,x,-z
-x,y,z
x,-y,z
-y,-x,z
y,x,z
loop_
_atom_site_type_symbol
_atom_site_label
_atom_site_fract_x
_atom_site_fract_y
_atom_site_fract_z
Si Si1 0.822682 0.822682 0.824283
Si Si2 0.290214 0.077601 0.312261
Si Si3 0.081118 0.918883 0.327392
Si Si4 0.842698 0.421953 0.688208
Si Si5 0.691299 0.579335 0.188337
O O1 0.861065 0.759092 0.743849
O O2 0.881105 0.881105 0.810023
O O3 0.804566 0.804566 0.000000
O O4 0.286835 0.075812 0.500000
O O5 0.366937 0.100030 0.264332
O O6 0.272358 0.000000 0.256966
O O7 0.105593 0.894408 0.500000
O O8 0.000000 0.906845 0.322078
O O9 0.840109 0.421778 0.500000
O O10 0.856941 0.500000 0.740544
O O11 0.767004 0.402317 0.749574
O O12 0.676802 0.500000 0.235749
O O13 0.633027 0.633027 0.240750
O O14 0.693033 0.580832 0.000000
#
# Coordination Sequence:
#
# PCOD9562231 Si02
#       5
#     8  16   8  16  16
#     4  12  25  37  53  80 114 146 179 225 272 319
#     4  10  22  40  61  84 111 146 186 227 276 335
#     4   9  18  34  56  78 102 138 180 219 265 323
#     4   9  19  36  58  84 111 141 181 231 283 331
#     4   9  18  32  51  77 111 151 193 234 276 325
#
# _framework density 19.752668
#
# number of rings (size 3 to 8) (size 9 to 14) (size 15 to 20)
#    0.000    2.375    0.000    2.250    1.750    6.250 
#    0.000    4.375    0.000    0.000    0.000    8.750 
#    0.000    0.000    0.000    0.000    0.000    0.000 
#
# Total GULP energy -356956.556375 kJ/mol
# GULP energy per Si atom -5577.446193 kJ/mol
# Density = 1.970771 g / cm^3
# Si number density = 19.752668 Si / 1000 Ang^3
#
#
#
# Elastic Constant Matrix: (Units=GPa)
#
#
# Indices 1 2 3 4 5 6 
#
# 1 143.5970 9.3138 15.6052 0.0000 0.0000 0.0000
# 2 9.3138 143.5974 15.6046 0.0000 0.0000 0.0000
# 3 15.6052 15.6046 13.5089 0.0000 0.0000 0.0000
# 4 0.0000 0.0000 0.0000 13.1711 0.0000 0.0000
# 5 0.0000 0.0000 0.0000 0.0000 13.1716 0.0000
# 6 0.0000 0.0000 0.0000 0.0000 0.0000 36.1733
#
#
#
# Elastic Compliance Matrix: (Units=1/GPa)
#
#
# Indices 1 2 3 4 5 6 
#
# 1 0.008002 0.000555 -0.009885 0.000000 0.000000 0.000000
# 2 0.000555 0.008002 -0.009885 0.000000 0.000000 0.000000
# 3 -0.009885 -0.009885 0.096863 0.000000 0.000000 0.000000
# 4 0.000000 0.000000 0.000000 0.075924 0.000000 0.000000
# 5 0.000000 0.000000 0.000000 0.000000 0.075921 0.000000
# 6 0.000000 0.000000 0.000000 0.000000 0.000000 0.027645
#
#
# Mechanical properties :
#
#
# Convention : Reuss Voigt Hill
#
# Bulk Modulus (GPa) = 13.43412 42.41670 27.92541
# Shear Modulus (GPa) = 14.06080 29.84853 21.95466
#
# Velocity S-wave (km/s) = 2.67093 3.89152 3.33750
# Velocity P-wave (km/s) = 4.04076 6.45852 5.38703
#
# Compressibility (1/GPa) = 0.07443731
#
# Stress axis : x y z
#
# Youngs Moduli (GPa) = 124.96568 124.96762 10.32387
#
# Poissons Ratio (x) = -0.06938 0.10205
# Poissons Ratio (y) = -0.06938 0.10205
# Poissons Ratio (z) = 1.23532 1.23528
#
# Static dielectric constant tensor:
#      x y z
#    x 1.705170 0.000000 0.000000 
#    y 0.000000 1.705170 0.000000 
#    z 0.000000 0.000000 1.699120 
# 
# From -- ./inp_files/930.got.cif
#   From: 2010.05.17/outbox.cif.g08.bks.cpg/sg123_1_cif.got.tgz:930.got - 2010.05.20 11:43:04.
