data_PCOD9562540
_publ_section_title
;
Structure prediction by ZEFSAII (Michael W. Deem and Ramdas Pophale) SiO2 
 PCOD9562540
Probable space group: P 4/M C C
;
_chemical_formula_sum "Si O2"
_cell_formula_units_Z 84
_cell_length_a 12.556600
_cell_length_b 12.556600
_cell_length_c 31.019742
_cell_angle_alpha 90.000000
_cell_angle_beta 90.000000
_cell_angle_gamma 90.000000
_cell_volume 4890.826996
_symmetry_space_group_name_H-M "P 4/M C C"
_symmetry_group_IT_number 124
_symmetry_cell_setting 'tetragonal'
loop_
_space_group_symop_operation_xyz
x,y,z
-y,x,z
-x,-y,z
y,-x,z
x,-y,1/2-z
-x,y,1/2-z
y,x,1/2-z
-y,-x,1/2-z
-x,-y,-z
y,-x,-z
x,y,-z
-y,x,-z
-x,y,1/2+z
x,-y,1/2+z
-y,-x,1/2+z
y,x,1/2+z
loop_
_atom_site_type_symbol
_atom_site_label
_atom_site_fract_x
_atom_site_fract_y
_atom_site_fract_z
Si Si1 0.126322 0.622072 0.353768
Si Si2 0.625346 0.374655 0.000000
Si Si3 0.622076 0.126318 0.646231
Si Si4 0.000000 0.000000 0.327190
Si Si5 0.126561 0.126554 0.500000
Si Si6 0.174666 0.825338 0.800740
Si Si7 0.748280 0.748281 0.426537
O O1 0.161399 0.499997 0.346238
O O2 0.150469 0.704653 0.315267
O O3 0.182165 0.673340 0.395492
O O4 0.000002 0.621100 0.360495
O O5 0.645062 0.500001 0.000000
O O6 0.677797 0.322205 0.041702
O O7 0.704660 0.150467 0.684731
O O8 0.673344 0.182159 0.604506
O O9 0.906264 0.093747 0.324551
O O10 0.178721 0.178713 0.457482
O O11 0.000004 0.145324 0.500000
O O12 0.158396 0.841605 0.750000
#
# Coordination Sequence:
#
# PCOD9562540 Si02
#       7
#    16   8  16   4   8  16  16
#     4  10  21  36  54  79 110 144 183 223 269 325
#     4  10  20  34  54  76  96 126 174 226 268 312
#     4  10  21  36  54  79 110 144 183 223 269 325
#     4  12  21  36  56  84 116 141 178 221 276 336
#     4  10  20  34  52  80 114 144 180 220 268 328
#     4  11  22  36  57  82 112 146 180 225 274 326
#     4  10  20  35  54  76 105 142 178 220 274 318
#
# _framework density 17.17501
#
# number of rings (size 3 to 8) (size 9 to 14) (size 15 to 20)
#    0.000    1.714    1.905    3.143    0.000    0.762 
#    0.000    1.905    0.000   14.286    0.000    5.333 
#    0.000    0.000    0.000    0.000    0.000    0.000 
#
# Total GULP energy -467709.910032 kJ/mol
# GULP energy per Si atom -5567.975119 kJ/mol
# Density = 1.713592 g / cm^3
# Si number density = 17.175010 Si / 1000 Ang^3
#
#
#
# Elastic Constant Matrix: (Units=GPa)
#
#
# Indices 1 2 3 4 5 6 
#
# 1 122.7887 43.9944 10.9624 0.0000 0.0000 0.0000
# 2 43.9944 122.7881 10.9619 0.0000 0.0000 0.0000
# 3 10.9624 10.9619 25.4291 0.0000 0.0000 0.0000
# 4 0.0000 0.0000 0.0000 4.6176 0.0000 0.0000
# 5 0.0000 0.0000 0.0000 0.0000 4.6177 0.0000
# 6 0.0000 0.0000 0.0000 0.0000 0.0000 29.7781
#
#
#
# Elastic Compliance Matrix: (Units=1/GPa)
#
#
# Indices 1 2 3 4 5 6 
#
# 1 0.009524 -0.003168 -0.002740 0.000000 0.000000 0.000000
# 2 -0.003168 0.009524 -0.002740 0.000000 0.000000 0.000000
# 3 -0.002740 -0.002740 0.041687 0.000000 0.000000 0.000000
# 4 0.000000 0.000000 0.000000 0.216565 0.000000 0.000000
# 5 0.000000 0.000000 0.000000 0.000000 0.216559 0.000000
# 6 0.000000 0.000000 0.000000 0.000000 0.000000 0.033582
#
#
# Mechanical properties :
#
#
# Convention : Reuss Voigt Hill
#
# Bulk Modulus (GPa) = 23.02055 44.76037 33.89046
# Shear Modulus (GPa) = 8.94109 21.47516 15.20813
#
# Velocity S-wave (km/s) = 2.28411 3.53990 2.97893
# Velocity P-wave (km/s) = 4.51540 6.54414 5.62204
#
# Compressibility (1/GPa) = 0.04343944
#
# Stress axis : x y z
#
# Youngs Moduli (GPa) = 105.00174 105.00156 23.98807
#
# Poissons Ratio (x) = 0.33261 0.06573
# Poissons Ratio (y) = 0.33261 0.06572
# Poissons Ratio (z) = 0.28771 0.28769
#
# Static dielectric constant tensor:
#      x y z
#    x 1.573530 0.000000 0.000000 
#    y 0.000000 1.573530 0.000000 
#    z 0.000000 0.000000 1.572990 
# 
# From -- ./inp_files/7133.got.cif
#   From: 2010.05.17/outbox.cif.g08.bks.cpg/sg124_4_cif.got.tgz:7133.got - 2010.05.20 11:49:17.
