data_PCOD9562820
_publ_section_title
;
Structure prediction by ZEFSAII (Michael W. Deem and Ramdas Pophale) SiO2 
 PCOD9562820
Probable space group: P 4/M C C
;
_chemical_formula_sum "Si O2"
_cell_formula_units_Z 56
_cell_length_a 10.892472
_cell_length_b 10.892472
_cell_length_c 26.561860
_cell_angle_alpha 90.000000
_cell_angle_beta 90.000000
_cell_angle_gamma 90.000000
_cell_volume 3151.457014
_symmetry_space_group_name_H-M "P 4/M C C"
_symmetry_group_IT_number 124
_symmetry_cell_setting 'tetragonal'
loop_
_space_group_symop_operation_xyz
x,y,z
-y,x,z
-x,-y,z
y,-x,z
x,-y,1/2-z
-x,y,1/2-z
y,x,1/2-z
-y,-x,1/2-z
-x,-y,-z
y,-x,-z
x,y,-z
-y,x,-z
-x,y,1/2+z
x,-y,1/2+z
-y,-x,1/2+z
y,x,1/2+z
loop_
_atom_site_type_symbol
_atom_site_label
_atom_site_fract_x
_atom_site_fract_y
_atom_site_fract_z
Si Si1 0.137292 0.451542 0.404070
Si Si2 0.705477 0.511540 0.000000
Si Si3 0.086545 0.815637 0.939719
Si Si4 0.502584 0.707045 0.806831
O O1 0.213789 0.509780 0.449919
O O2 0.135098 0.304230 0.411753
O O3 0.196243 0.489096 0.351248
O O4 0.000000 0.500000 0.407855
O O5 0.611862 0.624158 0.000000
O O6 0.942484 0.841956 0.928650
O O7 0.095958 0.794172 0.000000
O O8 0.384046 0.619234 0.811720
O O9 0.500000 0.758476 0.750000
#
# Coordination Sequence:
#
# PCOD9562820 Si02
#       4
#    16   8  16  16
#     4  12  24  33  59  89 118 147 191 243 284 342
#     4  11  25  40  56  83 124 158 186 235 297 346
#     4   9  20  37  55  78 118 166 196 224 273 341
#     4   9  20  41  64  83 110 150 192 238 296 350
#
# _framework density 17.769559000000001
#
# number of rings (size 3 to 8) (size 9 to 14) (size 15 to 20)
#    0.000    1.857    1.429    3.857    8.000    2.857 
#    0.000    0.000    0.000    0.000    0.000    0.000 
#    0.000    0.000    0.000    0.000    0.000    0.000 
#
# Total GULP energy -312948.401135 kJ/mol
# GULP energy per Si atom -5588.364306 kJ/mol
# Density = 1.772911 g / cm^3
# Si number density = 17.769559 Si / 1000 Ang^3
#
#
#
# Elastic Constant Matrix: (Units=GPa)
#
#
# Indices 1 2 3 4 5 6 
#
# 1 67.2176 21.4201 62.9498 0.0000 0.0000 0.0000
# 2 21.4201 67.2176 62.9498 0.0000 0.0000 0.0000
# 3 62.9498 62.9498 146.2761 0.0000 0.0000 0.0000
# 4 0.0000 0.0000 0.0000-1724.5771 0.0000 0.0000
# 5 0.0000 0.0000 0.0000 0.0000-1724.5771 0.0000
# 6 0.0000 0.0000 0.0000 0.0000 0.0000 12.4752
#
#
#
# Elastic Compliance Matrix: (Units=1/GPa)
#
#
# Indices 1 2 3 4 5 6 
#
# 1 0.025429 0.003593 -0.012490 0.000000 0.000000 0.000000
# 2 0.003593 0.025429 -0.012490 0.000000 0.000000 0.000000
# 3 -0.012490 -0.012490 0.017586 0.000000 0.000000 0.000000
# 4 0.000000 0.000000 0.000000 -0.000580 0.000000 0.000000
# 5 0.000000 0.000000 0.000000 0.000000 -0.000580 0.000000
# 6 0.000000 0.000000 0.000000 0.000000 0.000000 0.080159
#
#
# Mechanical properties :
#
#
# Convention : Reuss Voigt Hill
#
# Bulk Modulus (GPa) = 38.95349 63.92787 51.44068
# Shear Modulus (GPa) = 25.15456 -678.44304 -326.64424
#
# Velocity S-wave (km/s) = 3.76653 -19.56092 -13.57282
# Velocity P-wave (km/s) = 6.39411 21.77427 14.71791
#
# Compressibility (1/GPa) = 0.02567164
#
# Stress axis : x y z
#
# Youngs Moduli (GPa) = 39.32588 39.32588 56.86311
#
# Poissons Ratio (x) = -0.14131 0.71019
# Poissons Ratio (y) = -0.14131 0.71019
# Poissons Ratio (z) = 0.49116 0.49116
#
# Static dielectric constant tensor:
#      x y z
#    x 1.608280 0.000000 0.000000 
#    y 0.000000 1.608280 0.000000 
#    z 0.000000 0.000000 1.578290 
# 
# From -- ./inp_files/4945.got.cif
#   From: 2010.05.17/outbox.cif.g08.bks.cpg/sg124_3_cif.got.tgz:4945.got - 2010.05.20 11:49:17.
