data_PCOD9562381
_publ_section_title
;
Structure prediction by ZEFSAII (Michael W. Deem and Ramdas Pophale) SiO2 
 PCOD9562381
Probable space group: P 4/M C C
;
_chemical_formula_sum "Si O2"
_cell_formula_units_Z 96
_cell_length_a 25.779723
_cell_length_b 25.779723
_cell_length_c 9.066290
_cell_angle_alpha 90.000000
_cell_angle_beta 90.000000
_cell_angle_gamma 90.000000
_cell_volume 6025.403006
_symmetry_space_group_name_H-M "P 4/M C C"
_symmetry_group_IT_number 124
_symmetry_cell_setting 'tetragonal'
loop_
_space_group_symop_operation_xyz
x,y,z
-y,x,z
-x,-y,z
y,-x,z
x,-y,1/2-z
-x,y,1/2-z
y,x,1/2-z
-y,-x,1/2-z
-x,-y,-z
y,-x,-z
x,y,-z
-y,x,-z
-x,y,1/2+z
x,-y,1/2+z
-y,-x,1/2+z
y,x,1/2+z
loop_
_atom_site_type_symbol
_atom_site_label
_atom_site_fract_x
_atom_site_fract_y
_atom_site_fract_z
Si Si1 0.759817 0.839039 0.177084
Si Si2 0.244178 0.554847 0.823426
Si Si3 0.365054 0.052157 0.331023
Si Si4 0.761124 0.947346 0.670295
Si Si5 0.555621 0.365172 0.677173
Si Si6 0.159261 0.361662 0.677176
O O1 0.795192 0.795192 0.250000
O O2 0.775191 0.895322 0.241669
O O3 0.698812 0.831054 0.214597
O O4 0.764887 0.838627 0.000000
O O5 0.230769 0.500000 0.750000
O O6 0.304457 0.566517 0.790562
O O7 0.205935 0.600845 0.776371
O O8 0.239966 0.549413 0.000000
O O9 0.382247 0.052812 0.500000
O O10 0.301940 0.050798 0.330241
O O11 0.379048 0.105166 0.248896
O O12 0.382987 0.000000 0.250000
O O13 0.778023 0.945044 0.500000
O O14 0.778991 0.000000 0.750000
O O15 0.500000 0.377329 0.750000
O O16 0.598658 0.401343 0.750000
O O17 0.553664 0.371967 0.500000
O O18 0.154164 0.363985 0.500000
#
# Coordination Sequence:
#
# PCOD9562381 Si02
#       6
#    16  16  16  16  16  16
#     4  10  19  30  44  65  96 129 158 192 234 279
#     4   9  19  35  53  72  95 124 158 195 233 276
#     4   9  16  26  43  67  92 119 153 193 235 279
#     4   9  16  27  43  63  88 120 158 195 232 277
#     4  10  20  35  54  76 100 125 154 189 231 278
#     4   9  18  32  48  67  93 125 158 192 234 282
#
# _framework density 15.932544
#
# number of rings (size 3 to 8) (size 9 to 14) (size 15 to 20)
#    0.000    2.667    0.000    2.000    0.000    6.833 
#    0.000    0.833    0.000    0.500    0.000    3.500 
#    0.000    0.333    0.000    3.333    0.000    2.333 
#
# Total GULP energy -535081.214117 kJ/mol
# GULP energy per Si atom -5573.762647 kJ/mol
# Density = 1.589628 g / cm^3
# Si number density = 15.932544 Si / 1000 Ang^3
#
#
#
# Elastic Constant Matrix: (Units=GPa)
#
#
# Indices 1 2 3 4 5 6 
#
# 1 102.6165 85.6813 56.3131 0.0000 0.0000 0.0000
# 2 85.6813 102.6234 56.3140 0.0000 0.0000 0.0000
# 3 56.3131 56.3140 74.4218 0.0000 0.0000 0.0000
# 4 0.0000 0.0000 0.0000 24.9652 0.0000 0.0000
# 5 0.0000 0.0000 0.0000 0.0000 24.9653 0.0000
# 6 0.0000 0.0000 0.0000 0.0000 0.0000 -3.9534
#
#
#
# Elastic Compliance Matrix: (Units=1/GPa)
#
#
# Indices 1 2 3 4 5 6 
#
# 1 0.034371 -0.024668 -0.007342 0.000000 0.000000 0.000000
# 2 -0.024668 0.034367 -0.007340 0.000000 0.000000 0.000000
# 3 -0.007342 -0.007340 0.024546 0.000000 0.000000 0.000000
# 4 0.000000 0.000000 0.000000 0.040056 0.000000 0.000000
# 5 0.000000 0.000000 0.000000 0.000000 0.040056 0.000000
# 6 0.000000 0.000000 0.000000 0.000000 0.000000 -0.252950
#
#
# Mechanical properties :
#
#
# Convention : Reuss Voigt Hill
#
# Bulk Modulus (GPa) = 68.56060 75.14207 71.85134
# Shear Modulus (GPa) = 1248.06941 14.61897 631.34419
#
# Velocity S-wave (km/s) = 28.01868 3.03240 19.92790
# Velocity P-wave (km/s) = 33.01294 7.71529 23.97269
#
# Compressibility (1/GPa) = 0.01458564
#
# Stress axis : x y z
#
# Youngs Moduli (GPa) = 29.09471 29.09737 40.73942
#
# Poissons Ratio (x) = 0.71776 0.29910
# Poissons Ratio (y) = 0.71770 0.29903
# Poissons Ratio (z) = 0.21360 0.21357
#
# Static dielectric constant tensor:
#      x y z
#    x 1.515740 0.000000 0.000000 
#    y 0.000000 1.515740 0.000000 
#    z 0.000000 0.000000 1.534850 
# 
# From -- ./inp_files/1333.got.cif
#   From: 2010.05.17/outbox.cif.g08.bks.cpg/sg124_1_cif.got.tgz:1333.got - 2010.05.20 11:49:17.
