data_PCOD9562846
_publ_section_title
;
Structure prediction by ZEFSAII (Michael W. Deem and Ramdas Pophale) SiO2 
 PCOD9562846
Probable space group: P 4/M C C
;
_chemical_formula_sum "Si O2"
_cell_formula_units_Z 72
_cell_length_a 10.754030
_cell_length_b 10.754030
_cell_length_c 32.733139
_cell_angle_alpha 90.000000
_cell_angle_beta 90.000000
_cell_angle_gamma 90.000000
_cell_volume 3785.560070
_symmetry_space_group_name_H-M "P 4/M C C"
_symmetry_group_IT_number 124
_symmetry_cell_setting 'tetragonal'
loop_
_space_group_symop_operation_xyz
x,y,z
-y,x,z
-x,-y,z
y,-x,z
x,-y,1/2-z
-x,y,1/2-z
y,x,1/2-z
-y,-x,1/2-z
-x,-y,-z
y,-x,-z
x,y,-z
-y,x,-z
-x,y,1/2+z
x,-y,1/2+z
-y,-x,1/2+z
y,x,1/2+z
loop_
_atom_site_type_symbol
_atom_site_label
_atom_site_fract_x
_atom_site_fract_y
_atom_site_fract_z
Si Si1 0.691280 0.410741 0.590544
Si Si2 0.413636 0.308646 0.500000
Si Si3 0.209742 0.998318 0.795203
Si Si4 0.789896 0.996182 0.955257
Si Si5 0.948746 0.362189 0.375425
O O1 0.658919 0.558266 0.594393
O O2 0.745820 0.388246 0.544562
O O3 0.798627 0.366745 0.620688
O O4 0.559481 0.342502 0.500000
O O5 0.298157 0.991243 0.833796
O O6 0.117871 0.879852 0.797538
O O7 0.269486 0.000000 0.750000
O O8 0.707166 0.997599 0.915205
O O9 0.879013 0.116814 0.953970
O O10 0.725943 0.993009 0.000000
O O11 0.000000 0.500000 0.376620
#
# Coordination Sequence:
#
# PCOD9562846 Si02
#       5
#    16   8  16  16  16
#     4   9  20  37  54  76 115 165 207 238 278 335
#     4   7  12  30  53  68  94 151 212 240 258 299
#     4   9  20  42  70  91 110 142 186 239 299 356
#     4   9  20  40  60  79 114 162 202 244 300 349
#     4  12  25  33  56  92 122 147 191 240 295 343
#
# _framework density 19.019644
#
# number of rings (size 3 to 8) (size 9 to 14) (size 15 to 20)
#    0.000    2.556    0.000    4.000    7.778    2.667 
#    0.000    0.000    0.000    0.000    0.000    0.000 
#    0.000    0.000    0.000    0.000    0.000    0.000 
#
# Total GULP energy -401897.334776 kJ/mol
# GULP energy per Si atom -5581.907427 kJ/mol
# Density = 1.897635 g / cm^3
# Si number density = 19.019644 Si / 1000 Ang^3
#
#
#
# Elastic Constant Matrix: (Units=GPa)
#
#
# Indices 1 2 3 4 5 6 
#
# 1 54.2794 17.3484 61.3860 0.0000 0.0000 0.0000
# 2 17.3484 54.2794 61.3860 0.0000 0.0000 0.0000
# 3 61.3860 61.3860 192.7990 0.0000 0.0000 0.0000
# 4 0.0000 0.0000 0.0000 8.3408 0.0000 0.0000
# 5 0.0000 0.0000 0.0000 0.0000 8.3408 0.0000
# 6 0.0000 0.0000 0.0000 0.0000 0.0000 14.1991
#
#
#
# Elastic Compliance Matrix: (Units=1/GPa)
#
#
# Indices 1 2 3 4 5 6 
#
# 1 0.028905 0.001828 -0.009785 0.000000 0.000000 0.000000
# 2 0.001828 0.028905 -0.009785 0.000000 0.000000 0.000000
# 3 -0.009785 -0.009785 0.011418 0.000000 0.000000 0.000000
# 4 0.000000 0.000000 0.000000 0.119892 0.000000 0.000000
# 5 0.000000 0.000000 0.000000 0.000000 0.119892 0.000000
# 6 0.000000 0.000000 0.000000 0.000000 0.000000 0.070427
#
#
# Mechanical properties :
#
#
# Convention : Reuss Voigt Hill
#
# Bulk Modulus (GPa) = 29.63540 64.62207 47.12874
# Shear Modulus (GPa) = 11.73231 16.92529 14.32880
#
# Velocity S-wave (km/s) = 2.48635 2.98633 2.74773
# Velocity P-wave (km/s) = 4.88445 6.77799 5.90758
#
# Compressibility (1/GPa) = 0.03374342
#
# Stress axis : x y z
#
# Youngs Moduli (GPa) = 34.59550 34.59550 87.58150
#
# Poissons Ratio (x) = -0.06324 0.85701
# Poissons Ratio (y) = -0.06324 0.85701
# Poissons Ratio (z) = 0.33853 0.33853
#
# Static dielectric constant tensor:
#      x y z
#    x 1.670190 0.000000 0.000000 
#    y 0.000000 1.670190 0.000000 
#    z 0.000000 0.000000 1.671680 
# 
# From -- ./inp_files/6466.got.cif
#   From: 2010.05.17/outbox.cif.g08.bks.cpg/sg124_4_cif.got.tgz:6466.got - 2010.05.20 11:49:17.
