data_PCOD9562768
_publ_section_title
;
Structure prediction by ZEFSAII (Michael W. Deem and Ramdas Pophale) SiO2 
 PCOD9562768
Probable space group: P 4/M C C
;
_chemical_formula_sum "Si O2"
_cell_formula_units_Z 88
_cell_length_a 15.204179
_cell_length_b 15.204179
_cell_length_c 19.424760
_cell_angle_alpha 90.000000
_cell_angle_beta 90.000000
_cell_angle_gamma 90.000000
_cell_volume 4490.364642
_symmetry_space_group_name_H-M "P 4/M C C"
_symmetry_group_IT_number 124
_symmetry_cell_setting 'tetragonal'
loop_
_space_group_symop_operation_xyz
x,y,z
-y,x,z
-x,-y,z
y,-x,z
x,-y,1/2-z
-x,y,1/2-z
y,x,1/2-z
-y,-x,1/2-z
-x,-y,-z
y,-x,-z
x,y,-z
-y,x,-z
-x,y,1/2+z
x,-y,1/2+z
-y,-x,1/2+z
y,x,1/2+z
loop_
_atom_site_type_symbol
_atom_site_label
_atom_site_fract_x
_atom_site_fract_y
_atom_site_fract_z
Si Si1 0.529389 0.803937 0.671101
Si Si2 0.069078 0.581833 0.079432
Si Si3 0.460463 0.357591 0.423066
Si Si4 0.326153 0.049018 0.317500
Si Si5 0.062320 0.865993 0.500000
Si Si6 0.862291 0.056782 0.152679
O O1 0.500000 0.795293 0.750000
O O2 0.453266 0.849417 0.624456
O O3 0.553409 0.712534 0.635907
O O4 0.613341 0.867751 0.668478
O O5 0.000000 0.500000 0.078802
O O6 0.019801 0.660097 0.119815
O O7 0.090630 0.602957 0.000000
O O8 0.558927 0.396381 0.418086
O O9 0.449859 0.318501 0.500000
O O10 0.224862 0.074001 0.304091
O O11 0.362321 0.000000 0.250000
O O12 0.078995 0.828237 0.424961
O O13 0.959279 0.888614 0.500000
O O14 0.953999 0.109148 0.161760
#
# Coordination Sequence:
#
# PCOD9562768 Si02
#       6
#    16  16  16  16   8  16
#     4  11  21  38  62  88 126 161 196 248 305 366
#     4   9  19  35  58  82 110 157 205 241 292 359
#     4   9  20  42  69  93 122 161 202 250 312 379
#     4  11  22  37  57  86 122 160 203 253 308 361
#     4   7  12  28  54  76  99 140 192 243 298 351
#     4   9  19  37  58  79 112 159 207 255 307 359
#
# _framework density 19.597517
#
# number of rings (size 3 to 8) (size 9 to 14) (size 15 to 20)
#    0.000    2.455    1.818    2.182    1.273    2.182 
#    3.273    3.636    0.000    0.000    0.000    0.000 
#    0.000    0.000    0.000    0.000    0.000    0.000 
#
# Total GULP energy -490607.393782 kJ/mol
# GULP energy per Si atom -5575.084020 kJ/mol
# Density = 1.955291 g / cm^3
# Si number density = 19.597517 Si / 1000 Ang^3
#
#
#
# Elastic Constant Matrix: (Units=GPa)
#
#
# Indices 1 2 3 4 5 6 
#
# 1 66.2707 11.0559 26.7438 0.0000 0.0000 0.0000
# 2 11.0559 66.2707 26.7438 0.0000 0.0000 0.0000
# 3 26.7438 26.7438 123.4933 0.0000 0.0000 0.0000
# 4 0.0000 0.0000 0.0000 27.5353 0.0000 0.0000
# 5 0.0000 0.0000 0.0000 0.0000 27.5353 0.0000
# 6 0.0000 0.0000 0.0000 0.0000 0.0000 4.1048
#
#
#
# Elastic Compliance Matrix: (Units=1/GPa)
#
#
# Indices 1 2 3 4 5 6 
#
# 1 0.016661 -0.001450 -0.003294 0.000000 0.000000 0.000000
# 2 -0.001450 0.016661 -0.003294 0.000000 0.000000 0.000000
# 3 -0.003294 -0.003294 0.009524 0.000000 0.000000 0.000000
# 4 0.000000 0.000000 0.000000 0.036317 0.000000 0.000000
# 5 0.000000 0.000000 0.000000 0.000000 0.036317 0.000000
# 6 0.000000 0.000000 0.000000 0.000000 0.000000 0.243619
#
#
# Mechanical properties :
#
#
# Convention : Reuss Voigt Hill
#
# Bulk Modulus (GPa) = 37.35587 42.79129 40.07358
# Shear Modulus (GPa) = 13.01749 24.60113 18.80931
#
# Velocity S-wave (km/s) = 2.58009 3.54689 3.10139
# Velocity P-wave (km/s) = 5.28949 6.21743 5.77213
#
# Compressibility (1/GPa) = 0.02676956
#
# Stress axis : x y z
#
# Youngs Moduli (GPa) = 60.02077 60.02077 104.99422
#
# Poissons Ratio (x) = 0.08704 0.34586
# Poissons Ratio (y) = 0.08704 0.34586
# Poissons Ratio (z) = 0.19771 0.19771
#
# Static dielectric constant tensor:
#      x y z
#    x 1.673280 0.000000 0.000000 
#    y 0.000000 1.673280 0.000000 
#    z 0.000000 0.000000 1.761130 
# 
# From -- ./inp_files/5170.got.cif
#   From: 2010.05.17/outbox.cif.g08.bks.cpg/sg124_3_cif.got.tgz:5170.got - 2010.05.20 11:49:17.
