data_PCOD9562161
_publ_section_title
;
Structure prediction by ZEFSAII (Michael W. Deem and Ramdas Pophale) SiO2 
 PCOD9562161
Probable space group: P 4/M M M
;
_chemical_formula_sum "Si O2"
_cell_formula_units_Z 120
_cell_length_a 18.284363
_cell_length_b 18.284363
_cell_length_c 22.597721
_cell_angle_alpha 90.000000
_cell_angle_beta 90.000000
_cell_angle_gamma 90.000000
_cell_volume 7554.823315
_symmetry_space_group_name_H-M "P 4/M M M"
_symmetry_group_IT_number 123
_symmetry_cell_setting 'tetragonal'
loop_
_space_group_symop_operation_xyz
x,y,z
-y,x,z
-x,-y,z
y,-x,z
x,-y,-z
-x,y,-z
y,x,-z
-y,-x,-z
-x,-y,-z
y,-x,-z
x,y,-z
-y,x,-z
-x,y,z
x,-y,z
-y,-x,z
y,x,z
loop_
_atom_site_type_symbol
_atom_site_label
_atom_site_fract_x
_atom_site_fract_y
_atom_site_fract_z
Si Si1 0.086198 0.207725 0.428564
Si Si2 0.500000 0.913141 0.566531
Si Si3 0.801841 0.916701 0.811556
Si Si4 0.152990 0.643448 0.625911
Si Si5 0.643994 0.915324 0.248830
Si Si6 0.702666 0.586109 0.570368
Si Si7 0.580161 0.088839 0.877204
Si Si8 0.270746 0.911274 0.065278
O O1 0.089286 0.217296 0.500000
O O2 0.137605 0.137605 0.414092
O O3 0.119580 0.280479 0.398416
O O4 0.000000 0.198762 0.412561
O O5 0.500000 0.882996 0.500000
O O6 0.573824 0.887491 0.597413
O O7 0.500000 0.000000 0.564630
O O8 0.861343 0.861343 0.787732
O O9 0.727150 0.914821 0.774661
O O10 0.780028 0.895363 0.878760
O O11 0.828815 0.000000 0.812080
O O12 0.137164 0.638037 0.695525
O O13 0.236419 0.631150 0.606283
O O14 0.596178 0.894250 0.191604
O O15 0.626099 0.000000 0.265392
O O16 0.718982 0.592613 0.500000
O O17 0.704448 0.500000 0.585463
O O18 0.624403 0.624403 0.580023
O O19 0.500000 0.114360 0.895375
O O20 0.647640 0.114268 0.917158
O O21 0.580922 0.000000 0.880164
O O22 0.273215 0.000000 0.063470
O O23 0.249059 0.885619 0.000000
#
# Coordination Sequence:
#
# PCOD9562161 Si02
#       8
#    16   8  16  16  16  16  16  16
#     4  10  21  36  53  72  95 125 162 205 252 300
#     4  11  22  32  46  72 105 133 156 190 237 297
#     4   9  18  32  47  64  87 116 155 203 247 287
#     4  12  21  33  52  75 100 128 160 196 244 299
#     4   9  19  32  45  63  90 124 155 185 227 282
#     4  10  21  37  55  75  99 125 155 192 235 285
#     4   8  14  24  39  59  84 113 146 182 213 254
#     4   8  14  25  40  60  86 114 143 179 231 286
#
# _framework density 15.883893
#
# number of rings (size 3 to 8) (size 9 to 14) (size 15 to 20)
#    0.000    2.467    0.667    4.400    0.933    4.133 
#    0.000    2.667    0.000    0.000    0.000    3.733 
#    0.000    0.000    0.000    0.000    0.000    0.000 
#
# Total GULP energy -668683.631750 kJ/mol
# GULP energy per Si atom -5572.363598 kJ/mol
# Density = 1.584774 g / cm^3
# Si number density = 15.883893 Si / 1000 Ang^3
#
#
#
# Elastic Constant Matrix: (Units=GPa)
#
#
# Indices 1 2 3 4 5 6 
#
# 1 52.1004 33.1436 5.3533 0.0000 0.0000 0.0000
# 2 33.1436 52.1004 5.3533 0.0000 0.0000 0.0000
# 3 5.3533 5.3533 47.7940 0.0000 0.0000 0.0000
# 4 0.0000 0.0000 0.0000 3.3913 0.0000 0.0000
# 5 0.0000 0.0000 0.0000 0.0000 3.3913 0.0000
# 6 0.0000 0.0000 0.0000 0.0000 0.0000 2.2235
#
#
#
# Elastic Compliance Matrix: (Units=1/GPa)
#
#
# Indices 1 2 3 4 5 6 
#
# 1 0.032325 -0.020427 -0.001333 0.000000 0.000000 0.000000
# 2 -0.020427 0.032325 -0.001333 0.000000 0.000000 0.000000
# 3 -0.001333 -0.001333 0.021222 0.000000 0.000000 0.000000
# 4 0.000000 0.000000 0.000000 0.294875 0.000000 0.000000
# 5 0.000000 0.000000 0.000000 0.000000 0.294875 0.000000
# 6 0.000000 0.000000 0.000000 0.000000 0.000000 0.449738
#
#
# Mechanical properties :
#
#
# Convention : Reuss Voigt Hill
#
# Bulk Modulus (GPa) = 25.19676 26.63281 25.91478
# Shear Modulus (GPa) = 4.22022 9.01085 6.61553
#
# Velocity S-wave (km/s) = 1.63177 2.38438 2.04303
# Velocity P-wave (km/s) = 4.40996 4.93801 4.68144
#
# Compressibility (1/GPa) = 0.03968764
#
# Stress axis : x y z
#
# Youngs Moduli (GPa) = 30.93582 30.93582 47.12165
#
# Poissons Ratio (x) = 0.63191 0.06280
# Poissons Ratio (y) = 0.63191 0.06280
# Poissons Ratio (z) = 0.04123 0.04123
#
# Static dielectric constant tensor:
#      x y z
#    x 1.532720 0.000000 0.000000 
#    y 0.000000 1.532720 0.000000 
#    z 0.000000 0.000000 1.540500 
# 
# From -- ./inp_files/6830.got.cif
#   From: 2010.05.17/outbox.cif.g08.bks.cpg/sg123_4_cif.got.tgz:6830.got - 2010.05.20 11:43:04.
