data_PCOD9562888
_publ_section_title
;
Structure prediction by ZEFSAII (Michael W. Deem and Ramdas Pophale) SiO2 
 PCOD9562888
Probable space group: P 4/N B M
;
_chemical_formula_sum "Si O2"
_cell_formula_units_Z 96
_cell_length_a 25.306933
_cell_length_b 25.306933
_cell_length_c 9.722086
_cell_angle_alpha 90.000000
_cell_angle_beta 90.000000
_cell_angle_gamma 90.000000
_cell_volume 6226.421098
_symmetry_space_group_name_H-M "P 4/N B M"
_symmetry_group_IT_number 125
_space_group.IT_coordinate_system_code '2'
_symmetry_cell_setting 'tetragonal'
loop_
_space_group_symop_operation_xyz
x,y,z
1/2-y,x,z
1/2-x,1/2-y,z
y,1/2-x,z
x,1/2-y,-z
1/2-x,y,-z
y,x,-z
1/2-y,1/2-x,-z
-x,-y,-z
1/2+y,-x,-z
1/2+x,1/2+y,-z
-y,1/2+x,-z
-x,1/2+y,z
1/2+x,-y,z
-y,-x,z
1/2+y,1/2+x,z
loop_
_atom_site_type_symbol
_atom_site_label
_atom_site_fract_x
_atom_site_fract_y
_atom_site_fract_z
Si Si1 0.891326 0.803262 0.724734
Si Si2 0.005729 0.418173 0.585822
Si Si3 0.809438 0.538557 0.475614
Si Si4 0.311147 0.394475 0.209912
Si Si5 0.007333 0.419367 0.912658
Si Si6 0.694776 0.971951 0.959149
O O1 0.907846 0.810493 0.567392
O O2 0.868173 0.745488 0.755045
O O3 0.856277 0.851342 0.775076
O O4 0.946506 0.801564 0.808369
O O5 0.050627 0.449374 0.500000
O O6 0.004186 0.358538 0.528959
O O7 0.019052 0.418932 0.748815
O O8 0.951937 0.451937 0.568381
O O9 0.750000 0.516685 0.500000
O O10 0.817561 0.558112 0.320274
O O11 0.309803 0.421874 0.061869
O O12 0.997127 0.359924 0.962952
O O13 0.957529 0.457529 0.934351
O O14 0.055266 0.444735 0.000000
O O15 0.750000 0.998991 0.000000
#
# Coordination Sequence:
#
# PCOD9562888 Si02
#       6
#    16  16  16  16  16  16
#     4  10  18  31  43  61  85 113 158 194 234 272
#     4  10  20  33  50  72  97 123 153 193 238 283
#     4  10  20  32  46  65  89 120 155 191 230 275
#     4  10  20  29  45  61  83 119 152 198 234 266
#     4  10  20  33  50  72  97 123 153 193 238 283
#     4  10  20  32  46  65  89 120 155 191 230 275
#
# _framework density 15.418167
#
# number of rings (size 3 to 8) (size 9 to 14) (size 15 to 20)
#    0.000    2.000    1.667    3.000    2.333    0.333 
#    0.000    0.000    0.000    6.000    0.000    0.000 
#    0.000    0.667    0.000    3.667    0.000    0.000 
#
# Total GULP energy -535115.981986 kJ/mol
# GULP energy per Si atom -5574.124812 kJ/mol
# Density = 1.538307 g / cm^3
# Si number density = 15.418167 Si / 1000 Ang^3
#
#
#
# Elastic Constant Matrix: (Units=GPa)
#
#
# Indices 1 2 3 4 5 6 
#
# 1 80.1364 34.8847 19.1443 0.0000 0.0000 0.0000
# 2 34.8847 80.1376 19.1452 0.0000 0.0000 0.0000
# 3 19.1443 19.1452 55.2106 0.0000 0.0000 0.0000
# 4 0.0000 0.0000 0.0000 18.3970 0.0000 0.0000
# 5 0.0000 0.0000 0.0000 0.0000 18.3967 0.0000
# 6 0.0000 0.0000 0.0000 0.0000 0.0000 20.2823
#
#
#
# Elastic Compliance Matrix: (Units=1/GPa)
#
#
# Indices 1 2 3 4 5 6 
#
# 1 0.015963 -0.006135 -0.003408 0.000000 0.000000 0.000000
# 2 -0.006135 0.015963 -0.003408 0.000000 0.000000 0.000000
# 3 -0.003408 -0.003408 0.020476 0.000000 0.000000 0.000000
# 4 0.000000 0.000000 0.000000 0.054357 0.000000 0.000000
# 5 0.000000 0.000000 0.000000 0.000000 0.054358 0.000000
# 6 0.000000 0.000000 0.000000 0.000000 0.000000 0.049304
#
#
# Mechanical properties :
#
#
# Convention : Reuss Voigt Hill
#
# Bulk Modulus (GPa) = 37.73496 40.20366 38.96931
# Shear Modulus (GPa) = 20.39508 20.90256 20.64882
#
# Velocity S-wave (km/s) = 3.64097 3.68599 3.66355
# Velocity P-wave (km/s) = 6.49639 6.65188 6.57459
#
# Compressibility (1/GPa) = 0.02650062
#
# Stress axis : x y z
#
# Youngs Moduli (GPa) = 62.64293 62.64340 48.83750
#
# Poissons Ratio (x) = 0.38431 0.16644
# Poissons Ratio (y) = 0.38431 0.16645
# Poissons Ratio (z) = 0.21349 0.21351
#
# Static dielectric constant tensor:
#      x y z
#    x 1.524660 0.000000 0.000000 
#    y 0.000000 1.524660 0.000000 
#    z 0.000000 0.000000 1.529780 
# 
# From -- ./inp_files/2995.got.cif
#   From: 2010.05.17/outbox.cif.g08.bks.cpg/sg125_2_cif.got.tgz:2995.got - 2010.05.20 11:54:10.
