data_PCOD9562066
_publ_section_title
;
Structure prediction by ZEFSAII (Michael W. Deem and Ramdas Pophale) SiO2 
 PCOD9562066
Probable space group: P 4/M M M
;
_chemical_formula_sum "Si O2"
_cell_formula_units_Z 68
_cell_length_a 12.533143
_cell_length_b 12.533143
_cell_length_c 26.447390
_cell_angle_alpha 90.000000
_cell_angle_beta 90.000000
_cell_angle_gamma 90.000000
_cell_volume 4154.347385
_symmetry_space_group_name_H-M "P 4/M M M"
_symmetry_group_IT_number 123
_symmetry_cell_setting 'tetragonal'
loop_
_space_group_symop_operation_xyz
x,y,z
-y,x,z
-x,-y,z
y,-x,z
x,-y,-z
-x,y,-z
y,x,-z
-y,-x,-z
-x,-y,-z
y,-x,-z
x,y,-z
-y,x,-z
-x,y,z
x,-y,z
-y,-x,z
y,x,z
loop_
_atom_site_type_symbol
_atom_site_label
_atom_site_fract_x
_atom_site_fract_y
_atom_site_fract_z
Si Si1 0.000000 0.370360 0.057814
Si Si2 0.500000 0.876060 0.417483
Si Si3 0.685227 0.500000 0.500000
Si Si4 0.374745 0.200283 0.757070
Si Si5 0.706726 0.117682 0.346712
Si Si6 0.197023 0.373434 0.127762
O O1 0.105420 0.339756 0.088822
O O2 0.000000 0.500000 0.057081
O O3 0.000000 0.332827 0.000000
O O4 0.500000 0.771983 0.453876
O O5 0.396285 0.869511 0.381948
O O6 0.500000 0.000000 0.438926
O O7 0.604017 0.604017 0.500000
O O8 0.500000 0.214460 0.749273
O O9 0.312157 0.312157 0.754467
O O10 0.329025 0.130100 0.711684
O O11 0.358511 0.158392 0.814127
O O12 0.791833 0.208168 0.358064
O O13 0.751705 0.000000 0.354785
O O14 0.218875 0.500000 0.121528
O O15 0.301986 0.301986 0.120922
#
# Coordination Sequence:
#
# PCOD9562066 Si02
#       6
#     8   8   4  16  16  16
#     4   9  18  32  48  69  95 127 165 204 249 299
#     4  10  20  37  58  81 105 139 181 224 257 302
#     4  11  23  38  58  82 113 149 180 216 260 307
#     4   9  17  29  46  71 102 134 169 206 251 306
#     4  10  20  33  51  75 104 137 173 217 261 305
#     4   9  18  31  49  73  98 129 165 206 254 303
#
# _framework density 16.368393999999999
#
# number of rings (size 3 to 8) (size 9 to 14) (size 15 to 20)
#    0.000    2.529    1.176    0.882    1.647    1.176 
#    0.000    2.353    0.000    0.353    0.000    4.118 
#    0.000    8.471    0.000    0.000    0.000    0.000 
#
# Total GULP energy -378604.304689 kJ/mol
# GULP energy per Si atom -5567.710363 kJ/mol
# Density = 1.633114 g / cm^3
# Si number density = 16.368394 Si / 1000 Ang^3
#
#
#
# Elastic Constant Matrix: (Units=GPa)
#
#
# Indices 1 2 3 4 5 6 
#
# 1 93.6062 57.6898 51.1559 0.0000 0.0000 0.0000
# 2 57.6898 93.6062 51.1559 0.0000 0.0000 0.0000
# 3 51.1559 51.1559 87.7356 0.0000 0.0000 0.0000
# 4 0.0000 0.0000 0.0000 22.7458 0.0000 0.0000
# 5 0.0000 0.0000 0.0000 0.0000 22.7458 0.0000
# 6 0.0000 0.0000 0.0000 0.0000 0.0000 10.9956
#
#
#
# Elastic Compliance Matrix: (Units=1/GPa)
#
#
# Indices 1 2 3 4 5 6 
#
# 1 0.019377 -0.008465 -0.006363 0.000000 0.000000 0.000000
# 2 -0.008465 0.019377 -0.006363 0.000000 0.000000 0.000000
# 3 -0.006363 -0.006363 0.018817 0.000000 0.000000 0.000000
# 4 0.000000 0.000000 0.000000 0.043964 0.000000 0.000000
# 5 0.000000 0.000000 0.000000 0.000000 0.043964 0.000000
# 6 0.000000 0.000000 0.000000 0.000000 0.000000 0.090945
#
#
# Mechanical properties :
#
#
# Convention : Reuss Voigt Hill
#
# Bulk Modulus (GPa) = 65.82576 66.10571 65.96573
# Shear Modulus (GPa) = 17.61244 18.96051 18.28647
#
# Velocity S-wave (km/s) = 3.28381 3.40716 3.34605
# Velocity P-wave (km/s) = 7.39461 7.48012 7.43749
#
# Compressibility (1/GPa) = 0.01519162
#
# Stress axis : x y z
#
# Youngs Moduli (GPa) = 51.60676 51.60676 53.14208
#
# Poissons Ratio (x) = 0.43686 0.33812
# Poissons Ratio (y) = 0.43686 0.33812
# Poissons Ratio (z) = 0.32835 0.32835
#
# Static dielectric constant tensor:
#      x y z
#    x 1.528900 0.000000 0.000000 
#    y 0.000000 1.528900 0.000000 
#    z 0.000000 0.000000 1.569320 
# 
# From -- ./inp_files/7903.got.cif
#   From: 2010.05.17/outbox.cif.g08.bks.cpg/sg123_4_cif.got.tgz:7903.got - 2010.05.20 11:43:04.
