data_PCOD9562980
_publ_section_title
;
Structure prediction by ZEFSAII (Michael W. Deem and Ramdas Pophale) SiO2 
 PCOD9562980
Probable space group: P 4/N B M
;
_chemical_formula_sum "Si O2"
_cell_formula_units_Z 112
_cell_length_a 23.832414
_cell_length_b 23.832414
_cell_length_c 12.640343
_cell_angle_alpha 90.000000
_cell_angle_beta 90.000000
_cell_angle_gamma 90.000000
_cell_volume 7179.512036
_symmetry_space_group_name_H-M "P 4/N B M"
_symmetry_group_IT_number 125
_space_group.IT_coordinate_system_code '2'
_symmetry_cell_setting 'tetragonal'
loop_
_space_group_symop_operation_xyz
x,y,z
1/2-y,x,z
1/2-x,1/2-y,z
y,1/2-x,z
x,1/2-y,-z
1/2-x,y,-z
y,x,-z
1/2-y,1/2-x,-z
-x,-y,-z
1/2+y,-x,-z
1/2+x,1/2+y,-z
-y,1/2+x,-z
-x,1/2+y,z
1/2+x,-y,z
-y,-x,z
1/2+y,1/2+x,z
loop_
_atom_site_type_symbol
_atom_site_label
_atom_site_fract_x
_atom_site_fract_y
_atom_site_fract_z
Si Si1 0.091256 0.816283 1.000000
Si Si2 0.813842 0.813843 0.128398
Si Si3 0.592301 0.315507 0.625363
Si Si4 0.375715 0.530798 0.805358
Si Si5 0.875715 0.030798 0.805357
Si Si6 0.407701 0.684493 0.625362
Si Si7 0.905684 0.594316 0.128415
O O1 0.149552 0.850449 0.999999
O O2 0.056615 0.836997 0.102079
O O3 0.098823 0.750000 0.000000
O O4 0.056615 0.836995 0.897921
O O5 0.750000 0.827194 0.161912
O O6 0.859460 0.859461 0.160172
O O7 0.813631 0.813631 0.000000
O O8 0.648989 0.351012 0.647556
O O9 0.544523 0.344409 0.695851
O O10 0.581020 0.320022 0.500001
O O11 0.598721 0.250000 0.651862
O O12 0.433248 0.566753 0.807420
O O13 0.344409 0.544523 0.695851
O O14 0.388152 0.466372 0.828338
O O15 0.933250 0.066751 0.807416
O O16 0.888152 0.966372 0.828337
O O17 0.351014 0.648987 0.647554
O O18 0.908390 0.591611 0.000000
#
# Coordination Sequence:
#
# PCOD9562980 Si02
#       7
#    16  16  16  16  16  16  16
#     4  10  20  32  47  69 100 134 166 204 247 292
#     4   8  16  30  44  63  93 120 146 190 242 289
#     4   9  18  33  52  74 102 136 173 214 257 298
#     4  10  20  33  48  70 100 129 164 209 252 289
#     4  10  20  33  48  70 100 129 164 209 252 289
#     4   9  18  33  52  74 102 136 173 214 257 298
#     4  11  20  32  51  75  93 130 170 200 243 312
#
# _framework density 15.599947
#
# number of rings (size 3 to 8) (size 9 to 14) (size 15 to 20)
#    0.000    2.429    1.429    1.714    0.000    3.286 
#    0.000    2.143    0.000    8.571    0.000    0.000 
#    0.000    0.000    0.000    6.286    0.000    0.286 
#
# Total GULP energy -624417.820514 kJ/mol
# GULP energy per Si atom -5575.159112 kJ/mol
# Density = 1.556444 g / cm^3
# Si number density = 15.599947 Si / 1000 Ang^3
#
#
#
# Elastic Constant Matrix: (Units=GPa)
#
#
# Indices 1 2 3 4 5 6 
#
# 1 124.2995 130.3584 48.0248 0.0000 0.0000 0.0000
# 2 130.3584 124.3004 48.0255 0.0000 0.0000 0.0000
# 3 48.0248 48.0255 48.1771 0.0000 0.0000 0.0000
# 4 0.0000 0.0000 0.0000 20.2108 0.0000 0.0000
# 5 0.0000 0.0000 0.0000 0.0000 20.2109 0.0000
# 6 0.0000 0.0000 0.0000 0.0000 0.0000 10.9697
#
#
#
# Elastic Compliance Matrix: (Units=1/GPa)
#
#
# Indices 1 2 3 4 5 6 
#
# 1 -0.079383 0.085676 -0.006275 0.000000 0.000000 0.000000
# 2 0.085676 -0.079384 -0.006271 0.000000 0.000000 0.000000
# 3 -0.006275 -0.006271 0.033263 0.000000 0.000000 0.000000
# 4 0.000000 0.000000 0.000000 0.049478 0.000000 0.000000
# 5 0.000000 0.000000 0.000000 0.000000 0.049478 0.000000
# 6 0.000000 0.000000 0.000000 0.000000 0.000000 0.091160
#
#
# Mechanical properties :
#
#
# Convention : Reuss Voigt Hill
#
# Bulk Modulus (GPa) = 48.17684 83.28828 65.73256
# Shear Modulus (GPa) = -66.90907 14.96950 -25.96978
#
# Velocity S-wave (km/s) = -6.55619 3.10108 -4.08454
# Velocity P-wave (km/s) = 5.13438 8.14422 4.47026
#
# Compressibility (1/GPa) = 0.02075686
#
# Stress axis : x y z
#
# Youngs Moduli (GPa) = -12.59714 -12.59705 30.06332
#
# Poissons Ratio (x) = 1.07927 0.18863
# Poissons Ratio (y) = 1.07928 0.18854
# Poissons Ratio (z) = -0.07904 -0.07900
#
# Static dielectric constant tensor:
#      x y z
#    x 1.503180 0.000000 0.000000 
#    y 0.000000 1.503180 0.000000 
#    z 0.000000 0.000000 1.522610 
# 
# From -- ./inp_files/4318.got.cif
#   From: 2010.05.17/outbox.cif.g08.bks.cpg/sg125_3_cif.got.tgz:4318.got - 2010.05.20 11:54:10.
