data_PCOD9562789
_publ_section_title
;
Structure prediction by ZEFSAII (Michael W. Deem and Ramdas Pophale) SiO2 
 PCOD9562789
Probable space group: P 4/M C C
;
_chemical_formula_sum "Si O2"
_cell_formula_units_Z 112
_cell_length_a 14.213206
_cell_length_b 14.213206
_cell_length_c 29.738540
_cell_angle_alpha 90.000000
_cell_angle_beta 90.000000
_cell_angle_gamma 90.000000
_cell_volume 6007.637843
_symmetry_space_group_name_H-M "P 4/M C C"
_symmetry_group_IT_number 124
_symmetry_cell_setting 'tetragonal'
loop_
_space_group_symop_operation_xyz
x,y,z
-y,x,z
-x,-y,z
y,-x,z
x,-y,1/2-z
-x,y,1/2-z
y,x,1/2-z
-y,-x,1/2-z
-x,-y,-z
y,-x,-z
x,y,-z
-y,x,-z
-x,y,1/2+z
x,-y,1/2+z
-y,-x,1/2+z
y,x,1/2+z
loop_
_atom_site_type_symbol
_atom_site_label
_atom_site_fract_x
_atom_site_fract_y
_atom_site_fract_z
Si Si1 0.772825 0.434304 0.552363
Si Si2 0.435491 0.356143 0.634859
Si Si3 0.064509 0.856143 0.365141
Si Si4 0.934303 0.272825 0.552363
Si Si5 0.744076 0.601072 0.773435
Si Si6 0.076217 0.423783 0.445474
Si Si7 0.898928 0.244077 0.726565
O O1 0.744349 0.440320 0.500000
O O2 0.689897 0.415190 0.586680
O O3 0.852915 0.352915 0.554933
O O4 0.823233 0.533041 0.566506
O O5 0.545779 0.380669 0.639368
O O6 0.409194 0.285005 0.674593
O O7 0.084810 0.810103 0.413320
O O8 0.090806 0.785004 0.325407
O O9 0.954221 0.880669 0.360632
O O10 0.940320 0.244349 0.500000
O O11 0.033041 0.323233 0.566506
O O12 0.750878 0.500000 0.750000
O O13 0.661359 0.661359 0.750000
O O14 0.839085 0.660914 0.768764
O O15 0.073694 0.426306 0.500000
O O16 0.000000 0.500000 0.429053
O O17 0.838640 0.161360 0.750000
O O18 0.000000 0.250879 0.750000
#
# Coordination Sequence:
#
# PCOD9562789 Si02
#       7
#    16  16  16  16  16  16  16
#     4   9  18  36  59  84 118 156 199 251 302 358
#     4  11  23  39  61  86 119 163 202 242 298 368
#     4  11  23  39  61  86 119 163 202 242 298 368
#     4   9  18  36  59  84 118 156 199 251 302 358
#     4  11  23  43  70  95 124 162 204 254 307 368
#     4   7  12  28  54  78 106 149 190 233 297 354
#     4  11  23  43  70  95 124 162 204 254 307 368
#
# _framework density 18.642935000000001
#
# number of rings (size 3 to 8) (size 9 to 14) (size 15 to 20)
#    0.000    2.143    2.857    2.571    0.000    1.714 
#    7.714    1.429    0.000    0.000    0.000    0.000 
#    0.000    0.000    0.000    0.000    0.000    0.000 
#
# Total GULP energy -624737.882860 kJ/mol
# GULP energy per Si atom -5578.016811 kJ/mol
# Density = 1.860050 g / cm^3
# Si number density = 18.642935 Si / 1000 Ang^3
#
#
#
# Elastic Constant Matrix: (Units=GPa)
#
#
# Indices 1 2 3 4 5 6 
#
# 1 85.8104 49.4125 38.5925 0.0000 0.0000 0.0000
# 2 49.4125 85.8108 38.5929 0.0000 0.0000 0.0000
# 3 38.5925 38.5929 91.4457 0.0000 0.0000 0.0000
# 4 0.0000 0.0000 0.0000 32.3237 0.0000 0.0000
# 5 0.0000 0.0000 0.0000 0.0000 32.3235 0.0000
# 6 0.0000 0.0000 0.0000 0.0000 0.0000 2.6116
#
#
#
# Elastic Compliance Matrix: (Units=1/GPa)
#
#
# Indices 1 2 3 4 5 6 
#
# 1 0.018608 -0.008866 -0.004111 0.000000 0.000000 0.000000
# 2 -0.008866 0.018608 -0.004111 0.000000 0.000000 0.000000
# 3 -0.004111 -0.004111 0.014406 0.000000 0.000000 0.000000
# 4 0.000000 0.000000 0.000000 0.030937 0.000000 0.000000
# 5 0.000000 0.000000 0.000000 0.000000 0.030937 0.000000
# 6 0.000000 0.000000 0.000000 0.000000 0.000000 0.382910
#
#
# Mechanical properties :
#
#
# Convention : Reuss Voigt Hill
#
# Bulk Modulus (GPa) = 57.32606 57.36254 57.34430
# Shear Modulus (GPa) = 9.32143 22.54970 15.93557
#
# Velocity S-wave (km/s) = 2.23849 3.48164 2.92683
# Velocity P-wave (km/s) = 6.12351 6.85553 6.49983
#
# Compressibility (1/GPa) = 0.01744407
#
# Stress axis : x y z
#
# Youngs Moduli (GPa) = 53.74046 53.74049 69.41700
#
# Poissons Ratio (x) = 0.47646 0.28540
# Poissons Ratio (y) = 0.47646 0.28540
# Poissons Ratio (z) = 0.22094 0.22095
#
# Static dielectric constant tensor:
#      x y z
#    x 1.665840 0.000000 0.000000 
#    y 0.000000 1.665840 0.000000 
#    z 0.000000 0.000000 1.616040 
# 
# From -- ./inp_files/6120.got.cif
#   From: 2010.05.17/outbox.cif.g08.bks.cpg/sg124_4_cif.got.tgz:6120.got - 2010.05.20 11:49:17.
