data_PCOD9562458
_publ_section_title
;
Structure prediction by ZEFSAII (Michael W. Deem and Ramdas Pophale) SiO2 
 PCOD9562458
Probable space group: P 4/M C C
;
_chemical_formula_sum "Si O2"
_cell_formula_units_Z 112
_cell_length_a 15.500634
_cell_length_b 15.500634
_cell_length_c 22.313803
_cell_angle_alpha 90.000000
_cell_angle_beta 90.000000
_cell_angle_gamma 90.000000
_cell_volume 5361.329735
_symmetry_space_group_name_H-M "P 4/M C C"
_symmetry_group_IT_number 124
_symmetry_cell_setting 'tetragonal'
loop_
_space_group_symop_operation_xyz
x,y,z
-y,x,z
-x,-y,z
y,-x,z
x,-y,1/2-z
-x,y,1/2-z
y,x,1/2-z
-y,-x,1/2-z
-x,-y,-z
y,-x,-z
x,y,-z
-y,x,-z
-x,y,1/2+z
x,-y,1/2+z
-y,-x,1/2+z
y,x,1/2+z
loop_
_atom_site_type_symbol
_atom_site_label
_atom_site_fract_x
_atom_site_fract_y
_atom_site_fract_z
Si Si1 0.663515 0.096033 0.669147
Si Si2 0.906707 0.500374 0.595245
Si Si3 0.785505 0.244981 0.373667
Si Si4 0.909126 0.361503 0.304465
Si Si5 0.921985 0.116055 0.427939
Si Si6 0.645668 0.509369 0.184043
Si Si7 0.415796 0.267002 0.566508
O O1 0.597603 0.110815 0.614828
O O2 0.732607 0.170041 0.658880
O O3 0.621240 0.101829 0.734730
O O4 0.690961 0.995362 0.674649
O O5 0.916276 0.447666 0.657322
O O6 0.831085 0.450068 0.562895
O O7 0.000000 0.500000 0.565412
O O8 0.827457 0.307428 0.324901
O O9 0.862224 0.194514 0.407491
O O10 0.734695 0.313984 0.415573
O O11 0.922817 0.116021 0.500000
O O12 0.022589 0.116622 0.408522
O O13 0.577275 0.588298 0.182907
O O14 0.690765 0.500000 0.250000
O O15 0.697373 0.527787 0.122857
O O16 0.427513 0.307052 0.500000
#
# Coordination Sequence:
#
# PCOD9562458 Si02
#       7
#    16  16  16  16  16  16  16
#     4  10  19  34  57  81 111 155 202 245 300 367
#     4   9  20  39  59  80 113 161 207 248 301 364
#     4  11  21  34  52  83 120 156 191 244 313 373
#     4   9  19  35  54  81 116 150 197 255 301 356
#     4   9  18  34  56  78 103 146 204 255 298 355
#     4   9  21  45  71  93 119 158 205 252 306 377
#     4  11  25  40  59  93 131 161 201 261 315 377
#
# _framework density 20.890339999999998
#
# number of rings (size 3 to 8) (size 9 to 14) (size 15 to 20)
#    0.000    2.286    0.000    3.000    2.000    4.857 
#    5.143    1.429    0.000    0.857    0.000    6.000 
#    0.000    0.000    0.000    0.000    0.000    0.000 
#
# Total GULP energy -623759.789722 kJ/mol
# GULP energy per Si atom -5569.283837 kJ/mol
# Density = 2.084279 g / cm^3
# Si number density = 20.890340 Si / 1000 Ang^3
#
#
#
# Elastic Constant Matrix: (Units=GPa)
#
#
# Indices 1 2 3 4 5 6 
#
# 1 32.3577 33.7294 25.1549 0.0000 0.0000 0.0000
# 2 33.7294 32.3577 25.1549 0.0000 0.0000 0.0000
# 3 25.1549 25.1549 124.0189 0.0000 0.0000 0.0000
# 4 0.0000 0.0000 0.0000 8.2231 0.0000 0.0000
# 5 0.0000 0.0000 0.0000 0.0000 8.2231 0.0000
# 6 0.0000 0.0000 0.0000 0.0000 0.0000 25.4067
#
#
#
# Elastic Compliance Matrix: (Units=1/GPa)
#
#
# Indices 1 2 3 4 5 6 
#
# 1 -0.355546 0.373441 -0.003630 0.000000 0.000000 0.000000
# 2 0.373441 -0.355546 -0.003630 0.000000 0.000000 0.000000
# 3 -0.003630 -0.003630 0.009536 0.000000 0.000000 0.000000
# 4 0.000000 0.000000 0.000000 0.121608 0.000000 0.000000
# 5 0.000000 0.000000 0.000000 0.000000 0.121608 0.000000
# 6 0.000000 0.000000 0.000000 0.000000 0.000000 0.039360
#
#
# Mechanical properties :
#
#
# Convention : Reuss Voigt Hill
#
# Bulk Modulus (GPa) = 32.46060 39.64584 36.05322
# Shear Modulus (GPa) = -4.38184 15.35027 5.48422
#
# Velocity S-wave (km/s) = -1.44986 2.71366 1.62202
# Velocity P-wave (km/s) = 3.57344 5.37009 4.56111
#
# Compressibility (1/GPa) = 0.03080658
#
# Stress axis : x y z
#
# Youngs Moduli (GPa) = -2.81258 -2.81258 104.86937
#
# Poissons Ratio (x) = 1.05033 0.38063
# Poissons Ratio (y) = 1.05033 0.38063
# Poissons Ratio (z) = -0.01021 -0.01021
#
# Static dielectric constant tensor:
#      x y z
#    x 1.780440 0.000000 0.000000 
#    y 0.000000 1.780440 0.000000 
#    z 0.000000 0.000000 1.768740 
# 
# From -- ./inp_files/6107.got.cif
#   From: 2010.05.17/outbox.cif.g08.bks.cpg/sg124_4_cif.got.tgz:6107.got - 2010.05.20 11:49:17.
