data_PCOD9562883
_publ_section_title
;
Structure prediction by ZEFSAII (Michael W. Deem and Ramdas Pophale) SiO2 
 PCOD9562883
Probable space group: P 4/N B M
;
_chemical_formula_sum "Si O2"
_cell_formula_units_Z 80
_cell_length_a 16.175530
_cell_length_b 16.175530
_cell_length_c 15.512321
_cell_angle_alpha 90.000000
_cell_angle_beta 90.000000
_cell_angle_gamma 90.000000
_cell_volume 4058.764209
_symmetry_space_group_name_H-M "P 4/N B M"
_symmetry_group_IT_number 125
_space_group.IT_coordinate_system_code '2'
_symmetry_cell_setting 'tetragonal'
loop_
_space_group_symop_operation_xyz
x,y,z
1/2-y,x,z
1/2-x,1/2-y,z
y,1/2-x,z
x,1/2-y,-z
1/2-x,y,-z
y,x,-z
1/2-y,1/2-x,-z
-x,-y,-z
1/2+y,-x,-z
1/2+x,1/2+y,-z
-y,1/2+x,-z
-x,1/2+y,z
1/2+x,-y,z
-y,-x,z
1/2+y,1/2+x,z
loop_
_atom_site_type_symbol
_atom_site_label
_atom_site_fract_x
_atom_site_fract_y
_atom_site_fract_z
Si Si1 0.068392 0.428599 0.097882
Si Si2 0.371502 0.486555 0.730045
Si Si3 0.118301 0.746109 0.736684
Si Si4 0.150001 0.346237 0.599353
Si Si5 0.301566 0.564336 0.082939
O O1 0.132866 0.450655 0.172281
O O2 0.009053 0.509053 0.091791
O O3 0.010524 0.352330 0.125249
O O4 0.093194 0.406807 0.000000
O O5 0.445097 0.554904 0.728304
O O6 0.286679 0.533610 0.704440
O O7 0.389054 0.411597 0.665777
O O8 0.188830 0.811171 0.711660
O O9 0.155217 0.655217 0.715127
O O10 0.108041 0.747623 0.840585
O O11 0.138366 0.247370 0.611670
O O12 0.131748 0.368253 0.500000
O O13 0.370322 0.629679 0.050886
O O14 0.250000 0.538896 0.000000
#
# Coordination Sequence:
#
# PCOD9562883 Si02
#       5
#    16  16  16  16  16
#     4   9  18  31  44  67 107 151 192 234 281 331
#     4  10  20  34  57  86 116 151 189 237 292 342
#     4   9  18  31  47  73 110 147 186 232 282 336
#     4   9  20  40  63  84 109 143 183 232 288 342
#     4  10  18  27  43  66  98 144 198 246 286 331
#
# _framework density 19.710433999999999
#
# number of rings (size 3 to 8) (size 9 to 14) (size 15 to 20)
#    0.000    2.600    0.000    2.400    2.800    4.600 
#    0.000    0.000    0.000    1.200    0.000    1.400 
#    0.000    0.000    0.000    0.000    0.000    0.400 
#
# Total GULP energy -445491.250278 kJ/mol
# GULP energy per Si atom -5568.640628 kJ/mol
# Density = 1.966557 g / cm^3
# Si number density = 19.710434 Si / 1000 Ang^3
#
#
#
# Elastic Constant Matrix: (Units=GPa)
#
#
# Indices 1 2 3 4 5 6 
#
# 1 53.5352 16.5032 26.7872 0.0000 0.0000 0.0000
# 2 16.5032 53.5348 26.7871 0.0000 0.0000 0.0000
# 3 26.7872 26.7871 63.0246 0.0000 0.0000 0.0000
# 4 0.0000 0.0000 0.0000 26.8462 0.0000 0.0000
# 5 0.0000 0.0000 0.0000 0.0000 26.8465 0.0000
# 6 0.0000 0.0000 0.0000 0.0000 0.0000 13.1121
#
#
#
# Elastic Compliance Matrix: (Units=1/GPa)
#
#
# Indices 1 2 3 4 5 6 
#
# 1 0.024080 -0.002924 -0.008992 0.000000 0.000000 0.000000
# 2 -0.002924 0.024080 -0.008992 0.000000 0.000000 0.000000
# 3 -0.008992 -0.008992 0.023510 0.000000 0.000000 0.000000
# 4 0.000000 0.000000 0.000000 0.037249 0.000000 0.000000
# 5 0.000000 0.000000 0.000000 0.000000 0.037249 0.000000
# 6 0.000000 0.000000 0.000000 0.000000 0.000000 0.076265
#
#
# Mechanical properties :
#
#
# Convention : Reuss Voigt Hill
#
# Bulk Modulus (GPa) = 33.49524 34.47218 33.98371
# Shear Modulus (GPa) = 18.23482 20.02878 19.13180
#
# Velocity S-wave (km/s) = 3.04490 3.19117 3.11889
# Velocity P-wave (km/s) = 5.42148 5.57722 5.49990
#
# Compressibility (1/GPa) = 0.02985499
#
# Stress axis : x y z
#
# Youngs Moduli (GPa) = 41.52850 41.52815 42.53430
#
# Poissons Ratio (x) = 0.12142 0.38246
# Poissons Ratio (y) = 0.12142 0.38247
# Poissons Ratio (z) = 0.37342 0.37342
#
# Static dielectric constant tensor:
#      x y z
#    x 1.739430 0.000000 0.000000 
#    y 0.000000 1.739430 0.000000 
#    z 0.000000 0.000000 1.673690 
# 
# From -- ./inp_files/4752.got.cif
#   From: 2010.05.17/outbox.cif.g08.bks.cpg/sg125_3_cif.got.tgz:4752.got - 2010.05.20 11:54:10.
