data_PCOD9562698
_publ_section_title
;
Structure prediction by ZEFSAII (Michael W. Deem and Ramdas Pophale) SiO2 
 PCOD9562698
Probable space group: P 4/M C C
;
_chemical_formula_sum "Si O2"
_cell_formula_units_Z 80
_cell_length_a 10.727588
_cell_length_b 10.727588
_cell_length_c 29.233224
_cell_angle_alpha 90.000000
_cell_angle_beta 90.000000
_cell_angle_gamma 90.000000
_cell_volume 3364.192869
_symmetry_space_group_name_H-M "P 4/M C C"
_symmetry_group_IT_number 124
_symmetry_cell_setting 'tetragonal'
loop_
_space_group_symop_operation_xyz
x,y,z
-y,x,z
-x,-y,z
y,-x,z
x,-y,1/2-z
-x,y,1/2-z
y,x,1/2-z
-y,-x,1/2-z
-x,-y,-z
y,-x,-z
x,y,-z
-y,x,-z
-x,y,1/2+z
x,-y,1/2+z
-y,-x,1/2+z
y,x,1/2+z
loop_
_atom_site_type_symbol
_atom_site_label
_atom_site_fract_x
_atom_site_fract_y
_atom_site_fract_z
Si Si1 0.186906 0.914362 0.919005
Si Si2 0.922447 0.815298 0.808606
Si Si3 0.325117 0.710083 0.201838
Si Si4 0.143689 0.460988 0.049140
Si Si5 0.846406 0.468697 0.148708
O O1 0.203201 0.915619 0.863782
O O2 0.312532 0.859735 0.940214
O O3 0.059934 0.840103 0.930948
O O4 0.853707 0.703935 0.784458
O O5 0.060990 0.847371 0.797231
O O6 0.354054 0.645947 0.250000
O O7 0.434215 0.741233 0.167056
O O8 0.206270 0.651020 0.175749
O O9 0.181066 0.535457 0.094641
O O10 0.000000 0.500000 0.044937
O O11 0.205580 0.485782 0.000000
O O12 0.000000 0.500000 0.153922
#
# Coordination Sequence:
#
# PCOD9562698 Si02
#       5
#    16  16  16  16  16
#     4   9  18  34  60  93 132 174 218 272 341 410
#     4   9  18  33  57  92 130 166 210 267 337 409
#     4  12  25  42  67  96 129 178 231 278 339 405
#     4  10  22  38  60  92 129 173 222 268 328 406
#     4  11  26  46  70  98 139 178 228 289 349 405
#
# _framework density 23.779851000000001
#
# number of rings (size 3 to 8) (size 9 to 14) (size 15 to 20)
#    0.000    1.800    2.000    3.000    8.400    5.200 
#    0.000    6.000    0.000    0.000    0.000    1.400 
#    0.000    0.000    0.000    0.000    0.000    0.000 
#
# Total GULP energy -445754.425440 kJ/mol
# GULP energy per Si atom -5571.930318 kJ/mol
# Density = 2.372573 g / cm^3
# Si number density = 23.779851 Si / 1000 Ang^3
#
#
#
# Elastic Constant Matrix: (Units=GPa)
#
#
# Indices 1 2 3 4 5 6 
#
# 1 60.8411 27.6535 26.7759 0.0000 0.0000 0.0000
# 2 27.6535 60.8410 26.7762 0.0000 0.0000 0.0000
# 3 26.7759 26.7762 181.8151 0.0000 0.0000 0.0000
# 4 0.0000 0.0000 0.0000-5312.9413 0.0000 0.0000
# 5 0.0000 0.0000 0.0000 0.0000-5325.8436 0.0000
# 6 0.0000 0.0000 0.0000 0.0000 0.0000 35.7021
#
#
#
# Elastic Compliance Matrix: (Units=1/GPa)
#
#
# Indices 1 2 3 4 5 6 
#
# 1 0.021269 -0.008863 -0.001827 0.000000 0.000000 0.000000
# 2 -0.008863 0.021269 -0.001827 0.000000 0.000000 0.000000
# 3 -0.001827 -0.001827 0.006038 0.000000 0.000000 0.000000
# 4 0.000000 0.000000 0.000000 -0.000188 0.000000 0.000000
# 5 0.000000 0.000000 0.000000 0.000000 -0.000188 0.000000
# 6 0.000000 0.000000 0.000000 0.000000 0.000000 0.028010
#
#
# Mechanical properties :
#
#
# Convention : Reuss Voigt Hill
#
# Bulk Modulus (GPa) = 42.47785 51.76760 47.12273
# Shear Modulus (GPa) = 45.83353 -2105.79710 -1029.98179
#
# Velocity S-wave (km/s) = 4.39499 -29.79028 -20.83441
# Velocity P-wave (km/s) = 6.60729 34.08026 23.64115
#
# Compressibility (1/GPa) = 0.02354168
#
# Stress axis : x y z
#
# Youngs Moduli (GPa) = 47.01748 47.01732 165.61166
#
# Poissons Ratio (x) = 0.41671 0.30257
# Poissons Ratio (y) = 0.41672 0.30258
# Poissons Ratio (z) = 0.08590 0.08590
#
# Static dielectric constant tensor:
#      x y z
#    x 1.965340 0.000000 0.000000 
#    y 0.000000 1.965340 0.000000 
#    z 0.000000 0.000000 2.038270 
# 
# From -- ./inp_files/6923.got.cif
#   From: 2010.05.17/outbox.cif.g08.bks.cpg/sg124_4_cif.got.tgz:6923.got - 2010.05.20 11:49:17.
