data_PCOD9562396
_publ_section_title
;
Structure prediction by ZEFSAII (Michael W. Deem and Ramdas Pophale) SiO2 
 PCOD9562396
Probable space group: P 4/M C C
;
_chemical_formula_sum "Si O2"
_cell_formula_units_Z 96
_cell_length_a 23.607634
_cell_length_b 23.607634
_cell_length_c 8.937314
_cell_angle_alpha 90.000000
_cell_angle_beta 90.000000
_cell_angle_gamma 90.000000
_cell_volume 4980.947262
_symmetry_space_group_name_H-M "P 4/M C C"
_symmetry_group_IT_number 124
_symmetry_cell_setting 'tetragonal'
loop_
_space_group_symop_operation_xyz
x,y,z
-y,x,z
-x,-y,z
y,-x,z
x,-y,1/2-z
-x,y,1/2-z
y,x,1/2-z
-y,-x,1/2-z
-x,-y,-z
y,-x,-z
x,y,-z
-y,x,-z
-x,y,1/2+z
x,-y,1/2+z
-y,-x,1/2+z
y,x,1/2+z
loop_
_atom_site_type_symbol
_atom_site_label
_atom_site_fract_x
_atom_site_fract_y
_atom_site_fract_z
Si Si1 0.055895 0.863799 0.169315
Si Si2 0.436773 0.349839 0.680190
Si Si3 0.891529 0.438309 0.177981
Si Si4 0.848351 0.233582 0.170984
Si Si5 0.236408 0.562596 0.821179
Si Si6 0.940690 0.321476 0.181954
O O1 0.081801 0.918200 0.250000
O O2 0.104541 0.816287 0.170106
O O3 0.000000 0.842666 0.250000
O O4 0.041686 0.877615 0.000000
O O5 0.500000 0.353522 0.750000
O O6 0.399831 0.399831 0.750000
O O7 0.439011 0.351680 0.500000
O O8 0.410730 0.290040 0.737932
O O9 0.900113 0.500000 0.250000
O O10 0.827150 0.416072 0.204709
O O11 0.931948 0.387223 0.225159
O O12 0.896834 0.445986 0.000000
O O13 0.793464 0.206537 0.250000
O O14 0.885284 0.285985 0.232998
O O15 0.832775 0.247298 0.000000
O O16 0.233896 0.500000 0.750000
O O17 0.246676 0.560343 0.000000
O O18 0.000000 0.300875 0.250000
O O19 0.942706 0.316974 0.000000
#
# Coordination Sequence:
#
# PCOD9562396 Si02
#       6
#    16  16  16  16  16  16
#     4  10  19  31  47  68  92 122 158 200 246 298
#     4  11  21  34  51  74 103 138 180 229 284 346
#     4   9  19  35  56  80 111 146 183 226 276 331
#     4   9  19  35  55  76 102 135 175 219 266 313
#     4   9  16  30  51  73  96 129 170 216 266 320
#     4  10  21  37  56  83 116 151 187 229 275 326
#
# _framework density 19.273440999999998
#
# number of rings (size 3 to 8) (size 9 to 14) (size 15 to 20)
#    0.000    2.333    0.000    4.000    0.000    3.333 
#    0.000    4.167    0.000    2.000    0.000    0.000 
#    0.000    0.000    0.000    0.000    0.000    0.000 
#
# Total GULP energy -534907.696165 kJ/mol
# GULP energy per Si atom -5571.955168 kJ/mol
# Density = 1.922957 g / cm^3
# Si number density = 19.273441 Si / 1000 Ang^3
#
#
#
# Elastic Constant Matrix: (Units=GPa)
#
#
# Indices 1 2 3 4 5 6 
#
# 1 81.6040 31.6669 29.9812 0.0000 0.0000 0.0000
# 2 31.6669 81.6022 29.9807 0.0000 0.0000 0.0000
# 3 29.9812 29.9807 90.6696 0.0000 0.0000 0.0000
# 4 0.0000 0.0000 0.0000 17.4656 0.0000 0.0000
# 5 0.0000 0.0000 0.0000 0.0000 17.4660 0.0000
# 6 0.0000 0.0000 0.0000 0.0000 0.0000 28.6301
#
#
#
# Elastic Compliance Matrix: (Units=1/GPa)
#
#
# Indices 1 2 3 4 5 6 
#
# 1 0.015363 -0.004662 -0.003539 0.000000 0.000000 0.000000
# 2 -0.004662 0.015364 -0.003539 0.000000 0.000000 0.000000
# 3 -0.003539 -0.003539 0.013369 0.000000 0.000000 0.000000
# 4 0.000000 0.000000 0.000000 0.057256 0.000000 0.000000
# 5 0.000000 0.000000 0.000000 0.000000 0.057254 0.000000
# 6 0.000000 0.000000 0.000000 0.000000 0.000000 0.034928
#
#
# Mechanical properties :
#
#
# Convention : Reuss Voigt Hill
#
# Bulk Modulus (GPa) = 48.50108 48.57038 48.53573
# Shear Modulus (GPa) = 22.33286 23.52881 22.93083
#
# Velocity S-wave (km/s) = 3.40772 3.49777 3.45304
# Velocity P-wave (km/s) = 6.37987 6.44732 6.41368
#
# Compressibility (1/GPa) = 0.02061810
#
# Stress axis : x y z
#
# Youngs Moduli (GPa) = 65.08950 65.08813 74.79856
#
# Poissons Ratio (x) = 0.30343 0.26469
# Poissons Ratio (y) = 0.30344 0.26469
# Poissons Ratio (z) = 0.23033 0.23032
#
# Static dielectric constant tensor:
#      x y z
#    x 1.747520 0.000000 0.000000 
#    y 0.000000 1.747520 0.000000 
#    z 0.000000 0.000000 1.657150 
# 
# From -- ./inp_files/1384.got.cif
#   From: 2010.05.17/outbox.cif.g08.bks.cpg/sg124_1_cif.got.tgz:1384.got - 2010.05.20 11:49:17.
