data_PCOD9562358
_publ_section_title
;
Structure prediction by ZEFSAII (Michael W. Deem and Ramdas Pophale) SiO2 
 PCOD9562358
Probable space group: P 4/M C C
;
_chemical_formula_sum "Si O2"
_cell_formula_units_Z 96
_cell_length_a 15.270835
_cell_length_b 15.270835
_cell_length_c 19.733367
_cell_angle_alpha 90.000000
_cell_angle_beta 90.000000
_cell_angle_gamma 90.000000
_cell_volume 4601.789643
_symmetry_space_group_name_H-M "P 4/M C C"
_symmetry_group_IT_number 124
_symmetry_cell_setting 'tetragonal'
loop_
_space_group_symop_operation_xyz
x,y,z
-y,x,z
-x,-y,z
y,-x,z
x,-y,1/2-z
-x,y,1/2-z
y,x,1/2-z
-y,-x,1/2-z
-x,-y,-z
y,-x,-z
x,y,-z
-y,x,-z
-x,y,1/2+z
x,-y,1/2+z
-y,-x,1/2+z
y,x,1/2+z
loop_
_atom_site_type_symbol
_atom_site_label
_atom_site_fract_x
_atom_site_fract_y
_atom_site_fract_z
Si Si1 0.229287 0.552528 0.311701
Si Si2 0.747210 0.926180 0.899648
Si Si3 0.874171 0.222085 0.395224
Si Si4 0.098482 0.303079 0.246606
Si Si5 0.425425 0.826245 0.574664
Si Si6 0.704461 0.337785 0.424622
O O1 0.270607 0.500000 0.250000
O O2 0.168243 0.623285 0.273334
O O3 0.171407 0.492344 0.362915
O O4 0.298153 0.596662 0.362163
O O5 0.829508 0.866923 0.920575
O O6 0.739442 0.897458 0.820279
O O7 0.651103 0.898346 0.924533
O O8 0.762247 0.026694 0.917817
O O9 0.888657 0.233357 0.313795
O O10 0.801075 0.293384 0.417232
O O11 0.000000 0.341577 0.250000
O O12 0.467851 0.828364 0.500000
O O13 0.368829 0.736959 0.581846
O O14 0.696048 0.375804 0.500000
#
# Coordination Sequence:
#
# PCOD9562358 Si02
#       6
#    16  16  16  16  16  16
#     4  11  20  34  58  87 108 141 186 233 279 334
#     4  10  18  34  51  79 110 149 197 236 287 327
#     4   9  19  31  54  76 109 152 193 241 281 332
#     4   9  18  33  50  73 112 145 181 228 287 339
#     4  10  21  37  57  81 114 152 187 226 278 343
#     4   9  20  38  56  79 115 152 186 226 281 342
#
# _framework density 20.861450000000001
#
# number of rings (size 3 to 8) (size 9 to 14) (size 15 to 20)
#    0.000    2.333    1.667    1.000    0.000    2.000 
#    3.000    0.000    0.000    7.500    0.000    8.167 
#    0.000    0.000    0.000    0.000    0.000    0.000 
#
# Total GULP energy -534878.381712 kJ/mol
# GULP energy per Si atom -5571.649809 kJ/mol
# Density = 2.081397 g / cm^3
# Si number density = 20.861450 Si / 1000 Ang^3
#
#
#
# Elastic Constant Matrix: (Units=GPa)
#
#
# Indices 1 2 3 4 5 6 
#
# 1 45.9784 7.1366 2.3671 0.0000 0.0000 0.0000
# 2 7.1366 45.9784 2.3671 0.0000 0.0000 0.0000
# 3 2.3671 2.3671 122.8648 0.0000 0.0000 0.0000
# 4 0.0000 0.0000 0.0000 -5.6082 0.0000 0.0000
# 5 0.0000 0.0000 0.0000 0.0000 -5.6082 0.0000
# 6 0.0000 0.0000 0.0000 0.0000 0.0000 -2.0667
#
#
#
# Elastic Compliance Matrix: (Units=1/GPa)
#
#
# Indices 1 2 3 4 5 6 
#
# 1 0.022302 -0.003443 -0.000363 0.000000 0.000000 0.000000
# 2 -0.003443 0.022302 -0.000363 0.000000 0.000000 0.000000
# 3 -0.000363 -0.000363 0.008153 0.000000 0.000000 0.000000
# 4 0.000000 0.000000 0.000000 -0.178309 0.000000 0.000000
# 5 0.000000 0.000000 0.000000 0.000000 -0.178309 0.000000
# 6 0.000000 0.000000 0.000000 0.000000 0.000000 -0.483861
#
#
# Mechanical properties :
#
#
# Convention : Reuss Voigt Hill
#
# Bulk Modulus (GPa) = 22.51310 26.50701 24.51005
# Shear Modulus (GPa) = -6.53958 10.87341 2.16691
#
# Velocity S-wave (km/s) = -1.77245 2.28550 1.02028
# Velocity P-wave (km/s) = 2.57418 4.43830 3.62801
#
# Compressibility (1/GPa) = 0.04441858
#
# Stress axis : x y z
#
# Youngs Moduli (GPa) = 44.83805 44.83805 122.65383
#
# Poissons Ratio (x) = 0.15438 0.04457
# Poissons Ratio (y) = 0.15438 0.04457
# Poissons Ratio (z) = 0.01629 0.01629
#
# Static dielectric constant tensor:
#      x y z
#    x 1.764050 0.000000 0.000000 
#    y 0.000000 1.764050 0.000000 
#    z 0.000000 0.000000 1.856060 
# 
# From -- ./inp_files/5294.got.cif
#   From: 2010.05.17/outbox.cif.g08.bks.cpg/sg124_3_cif.got.tgz:5294.got - 2010.05.20 11:49:17.
