data_PCOD9562514
_publ_section_title
;
Structure prediction by ZEFSAII (Michael W. Deem and Ramdas Pophale) SiO2 
 PCOD9562514
Probable space group: P 4/M C C
;
_chemical_formula_sum "Si O2"
_cell_formula_units_Z 80
_cell_length_a 12.242524
_cell_length_b 12.242524
_cell_length_c 30.307208
_cell_angle_alpha 90.000000
_cell_angle_beta 90.000000
_cell_angle_gamma 90.000000
_cell_volume 4542.425966
_symmetry_space_group_name_H-M "P 4/M C C"
_symmetry_group_IT_number 124
_symmetry_cell_setting 'tetragonal'
loop_
_space_group_symop_operation_xyz
x,y,z
-y,x,z
-x,-y,z
y,-x,z
x,-y,1/2-z
-x,y,1/2-z
y,x,1/2-z
-y,-x,1/2-z
-x,-y,-z
y,-x,-z
x,y,-z
-y,x,-z
-x,y,1/2+z
x,-y,1/2+z
-y,-x,1/2+z
y,x,1/2+z
loop_
_atom_site_type_symbol
_atom_site_label
_atom_site_fract_x
_atom_site_fract_y
_atom_site_fract_z
Si Si1 0.498664 0.872423 0.321584
Si Si2 0.778513 0.406885 0.091760
Si Si3 0.991882 0.367698 0.050262
Si Si4 0.764219 0.632959 0.051096
Si Si5 0.687716 0.872319 0.253269
O O1 0.468864 0.795763 0.362346
O O2 0.614242 0.853547 0.297275
O O3 0.401459 0.859499 0.285949
O O4 0.500000 0.000000 0.336189
O O5 0.890874 0.342294 0.081369
O O6 0.763461 0.502342 0.055770
O O7 0.682234 0.322515 0.084592
O O8 0.000000 0.500000 0.050392
O O9 0.112699 0.328997 0.062624
O O10 0.968863 0.333469 0.000000
O O11 0.742293 0.663033 0.000000
O O12 0.786548 0.786548 0.250000
O O13 0.722804 0.000000 0.250000
#
# Coordination Sequence:
#
# PCOD9562514 Si02
#       5
#    16  16  16  16  16
#     4   9  19  35  55  79 106 144 183 213 254 317
#     4  11  20  32  53  77 105 139 179 222 268 315
#     4   8  15  30  49  70  97 135 179 218 255 306
#     4  10  20  32  50  76 106 141 179 221 268 314
#     4   9  19  36  59  84 112 140 170 216 270 322
#
# _framework density 17.611734999999999
#
# number of rings (size 3 to 8) (size 9 to 14) (size 15 to 20)
#    0.000    2.600    0.000    6.000    2.800    0.600 
#    0.000    1.000    0.000    5.400    0.000    2.800 
#    0.000    0.000    0.000    0.000    0.000    0.000 
#
# Total GULP energy -445556.968291 kJ/mol
# GULP energy per Si atom -5569.462104 kJ/mol
# Density = 1.757165 g / cm^3
# Si number density = 17.611735 Si / 1000 Ang^3
#
#
#
# Elastic Constant Matrix: (Units=GPa)
#
#
# Indices 1 2 3 4 5 6 
#
# 1 84.3970 57.6517 30.3425 0.0000 0.0000 0.0000
# 2 57.6517 84.3970 30.3425 0.0000 0.0000 0.0000
# 3 30.3425 30.3425 66.7360 0.0000 0.0000 0.0000
# 4 0.0000 0.0000 0.0000 18.2455 0.0000 0.0000
# 5 0.0000 0.0000 0.0000 0.0000 18.2455 0.0000
# 6 0.0000 0.0000 0.0000 0.0000 0.0000 11.9805
#
#
#
# Elastic Compliance Matrix: (Units=1/GPa)
#
#
# Indices 1 2 3 4 5 6 
#
# 1 0.023063 -0.014326 -0.003972 0.000000 0.000000 0.000000
# 2 -0.014326 0.023063 -0.003972 0.000000 0.000000 0.000000
# 3 -0.003972 -0.003972 0.018597 0.000000 0.000000 0.000000
# 4 0.000000 0.000000 0.000000 0.054808 0.000000 0.000000
# 5 0.000000 0.000000 0.000000 0.000000 0.054808 0.000000
# 6 0.000000 0.000000 0.000000 0.000000 0.000000 0.083469
#
#
# Mechanical properties :
#
#
# Convention : Reuss Voigt Hill
#
# Bulk Modulus (GPa) = 49.55171 52.46707 51.00939
# Shear Modulus (GPa) = 16.17716 17.50718 16.84217
#
# Velocity S-wave (km/s) = 3.03404 3.15630 3.09577
# Velocity P-wave (km/s) = 6.36165 6.56800 6.46565
#
# Compressibility (1/GPa) = 0.02018094
#
# Stress axis : x y z
#
# Youngs Moduli (GPa) = 43.35889 43.35889 53.77326
#
# Poissons Ratio (x) = 0.62118 0.21361
# Poissons Ratio (y) = 0.62118 0.21361
# Poissons Ratio (z) = 0.17224 0.17224
#
# Static dielectric constant tensor:
#      x y z
#    x 1.609840 0.000000 0.000000 
#    y 0.000000 1.609840 0.000000 
#    z 0.000000 0.000000 1.643840 
# 
# From -- ./inp_files/6955.got.cif
#   From: 2010.05.17/outbox.cif.g08.bks.cpg/sg124_4_cif.got.tgz:6955.got - 2010.05.20 11:49:17.
