data_PCOD9562792
_publ_section_title
;
Structure prediction by ZEFSAII (Michael W. Deem and Ramdas Pophale) SiO2 
 PCOD9562792
Probable space group: P 4/M C C
;
_chemical_formula_sum "Si O2"
_cell_formula_units_Z 112
_cell_length_a 14.354066
_cell_length_b 14.354066
_cell_length_c 26.160119
_cell_angle_alpha 90.000000
_cell_angle_beta 90.000000
_cell_angle_gamma 90.000000
_cell_volume 5390.010271
_symmetry_space_group_name_H-M "P 4/M C C"
_symmetry_group_IT_number 124
_symmetry_cell_setting 'tetragonal'
loop_
_space_group_symop_operation_xyz
x,y,z
-y,x,z
-x,-y,z
y,-x,z
x,-y,1/2-z
-x,y,1/2-z
y,x,1/2-z
-y,-x,1/2-z
-x,-y,-z
y,-x,-z
x,y,-z
-y,x,-z
-x,y,1/2+z
x,-y,1/2+z
-y,-x,1/2+z
y,x,1/2+z
loop_
_atom_site_type_symbol
_atom_site_label
_atom_site_fract_x
_atom_site_fract_y
_atom_site_fract_z
Si Si1 0.367032 0.262475 0.440286
Si Si2 0.426205 0.750323 0.601120
Si Si3 0.879085 0.092829 0.570548
Si Si4 0.105777 0.264993 0.124271
Si Si5 0.109025 0.737468 0.259353
Si Si6 0.600060 0.256766 0.278087
Si Si7 0.323760 0.926352 0.441844
O O1 0.371991 0.239671 0.500000
O O2 0.468234 0.262251 0.415292
O O3 0.318348 0.361086 0.431192
O O4 0.307282 0.186424 0.410024
O O5 0.412106 0.728876 0.661198
O O6 0.393055 0.854112 0.584772
O O7 0.884526 0.150931 0.624120
O O8 0.777732 0.122481 0.552201
O O9 0.983869 0.121111 0.555905
O O10 0.117101 0.294630 0.181992
O O11 0.011232 0.301263 0.097066
O O12 0.169532 0.830469 0.250000
O O13 0.159828 0.656879 0.227189
O O14 0.000000 0.751263 0.250000
O O15 0.500000 0.253755 0.250000
O O16 0.665243 0.334757 0.250000
O O17 0.352895 0.953508 0.500000
#
# Coordination Sequence:
#
# PCOD9562792 Si02
#       7
#    16  16  16  16  16  16  16
#     4  12  25  44  68  98 131 172 213 260 326 392
#     4  12  25  45  69  96 133 167 214 270 323 389
#     4   9  20  35  60  91 131 169 216 255 314 365
#     4  11  23  41  66  93 133 172 219 270 321 384
#     4  11  25  42  65  96 132 176 227 275 332 385
#     4  11  24  45  72 101 130 166 217 272 336 392
#     4  11  23  40  64  95 132 176 218 264 321 385
#
# _framework density 20.779181999999999
#
# number of rings (size 3 to 8) (size 9 to 14) (size 15 to 20)
#    0.000    1.000    1.429    6.000    4.000    3.714 
#    0.000    9.286    0.000    0.000    0.000    0.000 
#    0.000    0.000    0.000    0.000    0.000    0.000 
#
# Total GULP energy -624005.653989 kJ/mol
# GULP energy per Si atom -5571.479053 kJ/mol
# Density = 2.073189 g / cm^3
# Si number density = 20.779182 Si / 1000 Ang^3
#
#
#
# Elastic Constant Matrix: (Units=GPa)
#
#
# Indices 1 2 3 4 5 6 
#
# 1 115.2622 30.7880 16.5915 0.0000 0.0000 0.0000
# 2 30.7880 115.2632 16.5929 0.0000 0.0000 0.0000
# 3 16.5915 16.5929 138.5500 0.0000 0.0000 0.0000
# 4 0.0000 0.0000 0.0000 12.0091 0.0000 0.0000
# 5 0.0000 0.0000 0.0000 0.0000 12.0105 0.0000
# 6 0.0000 0.0000 0.0000 0.0000 0.0000 10.2370
#
#
#
# Elastic Compliance Matrix: (Units=1/GPa)
#
#
# Indices 1 2 3 4 5 6 
#
# 1 0.009438 -0.002400 -0.000843 0.000000 0.000000 0.000000
# 2 -0.002400 0.009438 -0.000843 0.000000 0.000000 0.000000
# 3 -0.000843 -0.000843 0.007419 0.000000 0.000000 0.000000
# 4 0.000000 0.000000 0.000000 0.083270 0.000000 0.000000
# 5 0.000000 0.000000 0.000000 0.000000 0.083260 0.000000
# 6 0.000000 0.000000 0.000000 0.000000 0.000000 0.097685
#
#
# Mechanical properties :
#
#
# Convention : Reuss Voigt Hill
#
# Bulk Modulus (GPa) = 55.17301 55.22449 55.19875
# Shear Modulus (GPa) = 16.40831 27.19153 21.79992
#
# Velocity S-wave (km/s) = 2.81312 3.62137 3.24253
# Velocity P-wave (km/s) = 6.09600 6.64231 6.37501
#
# Compressibility (1/GPa) = 0.01812481
#
# Stress axis : x y z
#
# Youngs Moduli (GPa) = 105.95256 105.95320 134.78006
#
# Poissons Ratio (x) = 0.25426 0.11360
# Poissons Ratio (y) = 0.25425 0.11361
# Poissons Ratio (z) = 0.08930 0.08931
#
# Static dielectric constant tensor:
#      x y z
#    x 1.778890 0.000000 0.000000 
#    y 0.000000 1.778890 0.000000 
#    z 0.000000 0.000000 1.781370 
# 
# From -- ./inp_files/6116.got.cif
#   From: 2010.05.17/outbox.cif.g08.bks.cpg/sg124_4_cif.got.tgz:6116.got - 2010.05.20 11:49:17.
