data_PCOD9562700
_publ_section_title
;
Structure prediction by ZEFSAII (Michael W. Deem and Ramdas Pophale) SiO2 
 PCOD9562700
Probable space group: P 4/M C C
;
_chemical_formula_sum "Si O2"
_cell_formula_units_Z 120
_cell_length_a 19.993665
_cell_length_b 19.993665
_cell_length_c 15.000736
_cell_angle_alpha 90.000000
_cell_angle_beta 90.000000
_cell_angle_gamma 90.000000
_cell_volume 5996.493816
_symmetry_space_group_name_H-M "P 4/M C C"
_symmetry_group_IT_number 124
_symmetry_cell_setting 'tetragonal'
loop_
_space_group_symop_operation_xyz
x,y,z
-y,x,z
-x,-y,z
y,-x,z
x,-y,1/2-z
-x,y,1/2-z
y,x,1/2-z
-y,-x,1/2-z
-x,-y,-z
y,-x,-z
x,y,-z
-y,x,-z
-x,y,1/2+z
x,-y,1/2+z
-y,-x,1/2+z
y,x,1/2+z
loop_
_atom_site_type_symbol
_atom_site_label
_atom_site_fract_x
_atom_site_fract_y
_atom_site_fract_z
Si Si1 0.772391 0.670293 0.268672
Si Si2 0.007572 0.106772 0.143180
Si Si3 0.651673 0.101590 0.391827
Si Si4 0.859086 0.360681 0.393240
Si Si5 0.860247 0.508424 0.394035
Si Si6 0.458192 0.709226 0.665816
Si Si7 0.263089 0.975580 0.105975
Si Si8 0.478852 0.388736 0.000000
O O1 0.741751 0.741751 0.250000
O O2 0.832343 0.673384 0.339374
O O3 0.796876 0.642921 0.173194
O O4 0.718213 0.619466 0.309290
O O5 0.939689 0.069471 0.111635
O O6 0.000000 0.103449 0.250000
O O7 0.018171 0.184191 0.121557
O O8 0.658147 0.108935 0.500000
O O9 0.572625 0.095334 0.369853
O O10 0.696489 0.039927 0.360397
O O11 0.844624 0.355644 0.500000
O O12 0.888709 0.434845 0.375851
O O13 0.908582 0.301102 0.364564
O O14 0.850922 0.511920 0.500000
O O15 0.785893 0.517990 0.354225
O O16 0.500000 0.684773 0.750000
O O17 0.469581 0.659673 0.584520
O O18 0.273187 0.975735 0.000000
O O19 0.551402 0.424455 0.000000
#
# Coordination Sequence:
#
# PCOD9562700 Si02
#       8
#    16  16  16  16  16  16  16   8
#     4  11  25  39  60  95 121 167 218 263 326 383
#     4   9  20  39  62  86 113 158 216 262 311 384
#     4   9  21  39  60  89 127 166 211 263 315 390
#     4  10  22  39  60  91 128 165 215 264 319 391
#     4   9  17  37  62  86 121 165 204 251 304 375
#     4  11  22  41  67  92 123 167 212 264 318 394
#     4  10  22  39  60  91 129 166 203 265 333 377
#     4  11  28  46  66  98 130 165 214 276 344 389
#
# _framework density 20.011693000000001
#
# number of rings (size 3 to 8) (size 9 to 14) (size 15 to 20)
#    0.000    2.067    2.000    0.400    4.667    2.667 
#    0.000    6.667    0.000    1.600    0.000    0.000 
#    0.000    0.000    0.000    0.000    0.000    0.000 
#
# Total GULP energy -669322.193615 kJ/mol
# GULP energy per Si atom -5577.684947 kJ/mol
# Density = 1.996615 g / cm^3
# Si number density = 20.011693 Si / 1000 Ang^3
#
#
#
# Elastic Constant Matrix: (Units=GPa)
#
#
# Indices 1 2 3 4 5 6 
#
# 1 85.9002 52.7510 23.0029 0.0000 0.0000 0.0000
# 2 52.7510 85.9002 23.0029 0.0000 0.0000 0.0000
# 3 23.0029 23.0029 70.2529 0.0000 0.0000 0.0000
# 4 0.0000 0.0000 0.0000 28.7202 0.0000 0.0000
# 5 0.0000 0.0000 0.0000 0.0000 28.7202 0.0000
# 6 0.0000 0.0000 0.0000 0.0000 0.0000 27.5384
#
#
#
# Elastic Compliance Matrix: (Units=1/GPa)
#
#
# Indices 1 2 3 4 5 6 
#
# 1 0.019129 -0.011038 -0.002649 0.000000 0.000000 0.000000
# 2 -0.011038 0.019129 -0.002649 0.000000 0.000000 0.000000
# 3 -0.002649 -0.002649 0.015969 0.000000 0.000000 0.000000
# 4 0.000000 0.000000 0.000000 0.034819 0.000000 0.000000
# 5 0.000000 0.000000 0.000000 0.000000 0.034819 0.000000
# 6 0.000000 0.000000 0.000000 0.000000 0.000000 0.036313
#
#
# Mechanical properties :
#
#
# Convention : Reuss Voigt Hill
#
# Bulk Modulus (GPa) = 46.39376 48.84076 47.61726
# Shear Modulus (GPa) = 24.99561 26.54888 25.77224
#
# Velocity S-wave (km/s) = 3.53802 3.64630 3.59257
# Velocity P-wave (km/s) = 6.31853 6.49511 6.40743
#
# Compressibility (1/GPa) = 0.02155462
#
# Stress axis : x y z
#
# Youngs Moduli (GPa) = 52.27659 52.27659 62.62027
#
# Poissons Ratio (x) = 0.57701 0.16590
# Poissons Ratio (y) = 0.57701 0.16590
# Poissons Ratio (z) = 0.13850 0.13850
#
# Static dielectric constant tensor:
#      x y z
#    x 1.717700 0.000000 0.000000 
#    y 0.000000 1.717700 0.000000 
#    z 0.000000 0.000000 1.731490 
# 
# From -- ./inp_files/3517.got.cif
#   From: 2010.05.17/outbox.cif.g08.bks.cpg/sg124_2_cif.got.tgz:3517.got - 2010.05.20 11:49:17.
