data_PCOD9562595
_publ_section_title
;
Structure prediction by ZEFSAII (Michael W. Deem and Ramdas Pophale) SiO2 
 PCOD9562595
Probable space group: P 4/M C C
;
_chemical_formula_sum "Si O2"
_cell_formula_units_Z 86
_cell_length_a 11.681502
_cell_length_b 11.681502
_cell_length_c 29.634815
_cell_angle_alpha 90.000000
_cell_angle_beta 90.000000
_cell_angle_gamma 90.000000
_cell_volume 4043.892441
_symmetry_space_group_name_H-M "P 4/M C C"
_symmetry_group_IT_number 124
_symmetry_cell_setting 'tetragonal'
loop_
_space_group_symop_operation_xyz
x,y,z
-y,x,z
-x,-y,z
y,-x,z
x,-y,1/2-z
-x,y,1/2-z
y,x,1/2-z
-y,-x,1/2-z
-x,-y,-z
y,-x,-z
x,y,-z
-y,x,-z
-x,y,1/2+z
x,-y,1/2+z
-y,-x,1/2+z
y,x,1/2+z
loop_
_atom_site_type_symbol
_atom_site_label
_atom_site_fract_x
_atom_site_fract_y
_atom_site_fract_z
Si Si1 0.295151 0.721031 0.801515
Si Si2 0.324251 0.696388 0.500000
Si Si3 0.161242 0.896933 0.845518
Si Si4 0.500000 0.500000 0.000000
Si Si5 0.367922 0.034375 0.000000
Si Si6 0.243594 0.483719 0.637701
Si Si7 0.138449 0.659805 0.576406
Si Si8 0.500000 0.500000 0.608944
O O1 0.313136 0.686865 0.750000
O O2 0.230187 0.841666 0.804150
O O3 0.224552 0.630238 0.832624
O O4 0.417835 0.731431 0.825370
O O5 0.441614 0.626890 0.500000
O O6 0.348773 0.831495 0.500000
O O7 0.246474 0.666985 0.543189
O O8 0.237023 0.858699 0.888185
O O9 0.033282 0.848410 0.845649
O O10 0.500000 0.000000 0.000000
O O11 0.323185 0.972436 0.954887
O O12 0.150440 0.539831 0.604083
O O13 0.362687 0.467163 0.610938
#
# Coordination Sequence:
#
# PCOD9562595 Si02
#       8
#    16   8  16   2   8  16  16   4
#     4  10  20  36  59  87 120 158 200 251 312 375
#     4  11  24  41  62  90 127 164 207 258 308 374
#     4  10  22  40  62  87 116 155 204 256 307 363
#     4  12  28  42  56  88 122 160 198 236 290 348
#     4  11  24  40  60  91 127 167 208 255 313 372
#     4   9  19  34  57  89 122 157 199 251 307 375
#     4  10  22  40  64  91 121 161 205 256 314 369
#     4   8  16  29  53  85 117 152 190 236 301 361
#
# _framework density 21.266638
#
# number of rings (size 3 to 8) (size 9 to 14) (size 15 to 20)
#    0.000    2.047    0.000    2.791    0.000   11.907 
#    0.000    6.512    0.000    8.930    0.000    0.000 
#    0.000    0.000    0.000    0.000    0.000    0.000 
#
# Total GULP energy -478793.993813 kJ/mol
# GULP energy per Si atom -5567.372021 kJ/mol
# Density = 2.121823 g / cm^3
# Si number density = 21.266638 Si / 1000 Ang^3
#
#
#
# Elastic Constant Matrix: (Units=GPa)
#
#
# Indices 1 2 3 4 5 6 
#
# 1 92.2075 20.7171 21.0564 0.0000 0.0000 0.0000
# 2 20.7171 92.2080 21.0570 0.0000 0.0000 0.0000
# 3 21.0564 21.0570 81.0739 0.0000 0.0000 0.0000
# 4 0.0000 0.0000 0.0000 1.3044 0.0000 0.0000
# 5 0.0000 0.0000 0.0000 0.0000 1.3052 0.0000
# 6 0.0000 0.0000 0.0000 0.0000 0.0000 36.2909
#
#
#
# Elastic Compliance Matrix: (Units=1/GPa)
#
#
# Indices 1 2 3 4 5 6 
#
# 1 0.011897 -0.002091 -0.002547 0.000000 0.000000 0.000000
# 2 -0.002091 0.011896 -0.002547 0.000000 0.000000 0.000000
# 3 -0.002547 -0.002547 0.013657 0.000000 0.000000 0.000000
# 4 0.000000 0.000000 0.000000 0.766629 0.000000 0.000000
# 5 0.000000 0.000000 0.000000 0.000000 0.766169 0.000000
# 6 0.000000 0.000000 0.000000 0.000000 0.000000 0.027555
#
#
# Mechanical properties :
#
#
# Convention : Reuss Voigt Hill
#
# Bulk Modulus (GPa) = 43.32550 43.46117 43.39333
# Shear Modulus (GPa) = 3.08667 21.29069 12.18868
#
# Velocity S-wave (km/s) = 1.20605 3.16750 2.39662
# Velocity P-wave (km/s) = 4.72823 5.81877 5.30161
#
# Compressibility (1/GPa) = 0.02308110
#
# Stress axis : x y z
#
# Youngs Moduli (GPa) = 84.05822 84.05835 73.22120
#
# Poissons Ratio (x) = 0.17579 0.18646
# Poissons Ratio (y) = 0.17579 0.18647
# Poissons Ratio (z) = 0.21406 0.21407
#
# Static dielectric constant tensor:
#      x y z
#    x 4.020580 0.000000 0.000000 
#    y 0.000000 3.991280 0.000000 
#    z 0.000000 0.000000 1.858370 
# 
# From -- ./inp_files/7156.got.cif
#   From: 2010.05.17/outbox.cif.g08.bks.cpg/sg124_4_cif.got.tgz:7156.got - 2010.05.20 11:49:17.
