data_PCOD9562962
_publ_section_title
;
Structure prediction by ZEFSAII (Michael W. Deem and Ramdas Pophale) SiO2 
 PCOD9562962
Probable space group: P 4/N B M
;
_chemical_formula_sum "Si O2"
_cell_formula_units_Z 88
_cell_length_a 15.063281
_cell_length_b 15.063281
_cell_length_c 21.517889
_cell_angle_alpha 90.000000
_cell_angle_beta 90.000000
_cell_angle_gamma 90.000000
_cell_volume 4882.461399
_symmetry_space_group_name_H-M "P 4/N B M"
_symmetry_group_IT_number 125
_space_group.IT_coordinate_system_code '2'
_symmetry_cell_setting 'tetragonal'
loop_
_space_group_symop_operation_xyz
x,y,z
1/2-y,x,z
1/2-x,1/2-y,z
y,1/2-x,z
x,1/2-y,-z
1/2-x,y,-z
y,x,-z
1/2-y,1/2-x,-z
-x,-y,-z
1/2+y,-x,-z
1/2+x,1/2+y,-z
-y,1/2+x,-z
-x,1/2+y,z
1/2+x,-y,z
-y,-x,z
1/2+y,1/2+x,z
loop_
_atom_site_type_symbol
_atom_site_label
_atom_site_fract_x
_atom_site_fract_y
_atom_site_fract_z
Si Si1 0.324897 0.675104 0.336156
Si Si2 0.250595 0.486921 0.637462
Si Si3 0.674444 0.325557 0.803940
Si Si4 0.750000 0.101941 0.000000
Si Si5 0.103651 0.282170 0.769404
Si Si6 0.044906 0.804959 0.868648
Si Si7 0.573382 0.573872 0.574119
O O1 0.250000 0.750000 0.335062
O O2 0.283927 0.587281 0.364958
O O3 0.350583 0.649418 0.265543
O O4 0.279167 0.456429 0.706994
O O5 0.167967 0.431606 0.609270
O O6 0.338155 0.475244 0.597149
O O7 0.750000 0.250000 0.800471
O O8 0.720338 0.404870 0.839546
O O9 0.715376 0.044590 0.942096
O O10 0.669515 0.169515 0.018199
O O11 0.148423 0.184788 0.769084
O O12 0.044856 0.307472 0.829430
O O13 0.108357 0.891644 0.859236
O O14 0.581675 0.581675 0.500000
O O15 0.512622 0.487379 0.588299
#
# Coordination Sequence:
#
# PCOD9562962 Si02
#       7
#     8  16   8   8  16  16  16
#     4  11  22  36  61  97 128 157 201 253 320 377
#     4  12  22  41  66  92 121 166 208 256 312 371
#     4   9  16  28  52  85 121 149 179 238 300 350
#     4   9  16  30  58  91 126 162 196 247 308 360
#     4  11  24  42  60  84 122 161 204 253 307 366
#     4  10  19  35  58  91 122 157 200 244 302 360
#     4  11  25  43  64  92 130 165 208 256 312 378
#
# _framework density 18.023696000000001
#
# number of rings (size 3 to 8) (size 9 to 14) (size 15 to 20)
#    0.000    1.364    5.455    1.091    0.000    1.091 
#    3.273    1.818    0.000    3.273    0.000    0.000 
#    0.000    0.000    0.000    0.000    0.000    0.000 
#
# Total GULP energy -490774.083202 kJ/mol
# GULP energy per Si atom -5576.978218 kJ/mol
# Density = 1.798267 g / cm^3
# Si number density = 18.023696 Si / 1000 Ang^3
#
#
#
# Elastic Constant Matrix: (Units=GPa)
#
#
# Indices 1 2 3 4 5 6 
#
# 1 68.2011 30.2552 46.0387 0.0000 0.0000 0.0000
# 2 30.2552 68.2011 46.0387 0.0000 0.0000 0.0000
# 3 46.0387 46.0387 102.9554 0.0000 0.0000 0.0000
# 4 0.0000 0.0000 0.0000 26.5957 0.0000 0.0000
# 5 0.0000 0.0000 0.0000 0.0000 26.5957 0.0000
# 6 0.0000 0.0000 0.0000 0.0000 0.0000 23.0208
#
#
#
# Elastic Compliance Matrix: (Units=1/GPa)
#
#
# Indices 1 2 3 4 5 6 
#
# 1 0.021905 -0.004448 -0.007806 0.000000 0.000000 0.000000
# 2 -0.004448 0.021905 -0.007806 0.000000 0.000000 0.000000
# 3 -0.007806 -0.007806 0.016695 0.000000 0.000000 0.000000
# 4 0.000000 0.000000 0.000000 0.037600 0.000000 0.000000
# 5 0.000000 0.000000 0.000000 0.000000 0.037600 0.000000
# 6 0.000000 0.000000 0.000000 0.000000 0.000000 0.043439
#
#
# Mechanical properties :
#
#
# Convention : Reuss Voigt Hill
#
# Bulk Modulus (GPa) = 49.05891 53.78029 51.41960
# Shear Modulus (GPa) = 22.11795 23.04412 22.58103
#
# Velocity S-wave (km/s) = 3.50688 3.57955 3.54341
# Velocity P-wave (km/s) = 6.60877 6.85476 6.73289
#
# Compressibility (1/GPa) = 0.02038366
#
# Stress axis : x y z
#
# Youngs Moduli (GPa) = 45.65087 45.65087 59.89958
#
# Poissons Ratio (x) = 0.20305 0.46760
# Poissons Ratio (y) = 0.20305 0.46760
# Poissons Ratio (z) = 0.35637 0.35637
#
# Static dielectric constant tensor:
#      x y z
#    x 1.611370 0.000000 0.000000 
#    y 0.000000 1.611370 0.000000 
#    z 0.000000 0.000000 1.632110 
# 
# From -- ./inp_files/5883.got.cif
#   From: 2010.05.17/outbox.cif.g08.bks.cpg/sg125_3_cif.got.tgz:5883.got - 2010.05.20 11:54:10.
