data_PCOD9562611
_publ_section_title
;
Structure prediction by ZEFSAII (Michael W. Deem and Ramdas Pophale) SiO2 
 PCOD9562611
Probable space group: P 4/M C C
;
_chemical_formula_sum "Si O2"
_cell_formula_units_Z 108
_cell_length_a 15.848357
_cell_length_b 15.848357
_cell_length_c 24.185848
_cell_angle_alpha 90.000000
_cell_angle_beta 90.000000
_cell_angle_gamma 90.000000
_cell_volume 6074.769591
_symmetry_space_group_name_H-M "P 4/M C C"
_symmetry_group_IT_number 124
_symmetry_cell_setting 'tetragonal'
loop_
_space_group_symop_operation_xyz
x,y,z
-y,x,z
-x,-y,z
y,-x,z
x,-y,1/2-z
-x,y,1/2-z
y,x,1/2-z
-y,-x,1/2-z
-x,-y,-z
y,-x,-z
x,y,-z
-y,x,-z
-x,y,1/2+z
x,-y,1/2+z
-y,-x,1/2+z
y,x,1/2+z
loop_
_atom_site_type_symbol
_atom_site_label
_atom_site_fract_x
_atom_site_fract_y
_atom_site_fract_z
Si Si1 0.901619 0.339388 0.250000
Si Si2 0.350370 0.207226 0.937541
Si Si3 0.295281 0.500000 0.129151
Si Si4 0.350370 0.207226 0.562459
Si Si5 0.239283 0.097930 0.635958
Si Si6 0.221730 0.500000 0.750000
Si Si7 0.500000 0.500000 0.383305
Si Si8 0.097930 0.239283 0.635958
O O1 0.888486 0.282824 0.304396
O O2 0.838271 0.417886 0.250000
O O3 0.888486 0.282824 0.195604
O O4 0.000000 0.367659 0.250000
O O5 0.420552 0.248939 0.898836
O O6 0.275503 0.275503 0.940515
O O7 0.308734 0.126011 0.909116
O O8 0.381298 0.191976 0.000000
O O9 0.248939 0.420552 0.101163
O O10 0.277953 0.500000 0.194708
O O11 0.394904 0.500000 0.117152
O O12 0.381298 0.191976 0.500000
O O13 0.308734 0.126011 0.590884
O O14 0.158785 0.158785 0.630943
O O15 0.217037 0.000000 0.630420
#
# Coordination Sequence:
#
# PCOD9562611 Si02
#       8
#    16  16  16  16  16   8   4  16
#     4  10  20  37  60  90 124 158 204 255 307 367
#     4  10  21  39  61  85 118 161 207 248 296 357
#     4  12  23  42  61  89 124 162 203 256 302 356
#     4  10  21  39  61  85 118 161 207 248 296 357
#     4  10  21  38  62  91 123 159 200 250 307 367
#     4  12  23  37  66  88 122 168 202 251 309 372
#     4  12  28  45  57  96 134 160 213 249 304 354
#     4  10  21  38  62  91 123 159 200 250 307 367
#
# _framework density 17.778452999999999
#
# number of rings (size 3 to 8) (size 9 to 14) (size 15 to 20)
#    0.000    1.481    4.444    1.111    0.000    1.778 
#    2.667    2.222    0.000    4.444    0.000    4.148 
#    0.000    0.000    0.000    0.000    0.000    0.000 
#
# Total GULP energy -601693.617832 kJ/mol
# GULP energy per Si atom -5571.237202 kJ/mol
# Density = 1.773799 g / cm^3
# Si number density = 17.778453 Si / 1000 Ang^3
#
#
#
# Elastic Constant Matrix: (Units=GPa)
#
#
# Indices 1 2 3 4 5 6 
#
# 1 108.0465 51.7649 33.9919 0.0000 0.0000 0.0000
# 2 51.7649 108.0465 33.9919 0.0000 0.0000 0.0000
# 3 33.9919 33.9919 131.8045 0.0000 0.0000 0.0000
# 4 0.0000 0.0000 0.0000 10.3658 0.0000 0.0000
# 5 0.0000 0.0000 0.0000 0.0000 10.3658 0.0000
# 6 0.0000 0.0000 0.0000 0.0000 0.0000 19.6944
#
#
#
# Elastic Compliance Matrix: (Units=1/GPa)
#
#
# Indices 1 2 3 4 5 6 
#
# 1 0.012398 -0.005370 -0.001813 0.000000 0.000000 0.000000
# 2 -0.005370 0.012398 -0.001813 0.000000 0.000000 0.000000
# 3 -0.001813 -0.001813 0.008522 0.000000 0.000000 0.000000
# 4 0.000000 0.000000 0.000000 0.096471 0.000000 0.000000
# 5 0.000000 0.000000 0.000000 0.000000 0.096471 0.000000
# 6 0.000000 0.000000 0.000000 0.000000 0.000000 0.050776
#
#
# Mechanical properties :
#
#
# Convention : Reuss Voigt Hill
#
# Bulk Modulus (GPa) = 65.23843 65.26612 65.25228
# Shear Modulus (GPa) = 16.65919 23.29513 19.97716
#
# Velocity S-wave (km/s) = 3.06444 3.62374 3.35576
# Velocity P-wave (km/s) = 7.02111 7.36879 7.19705
#
# Compressibility (1/GPa) = 0.01532839
#
# Stress axis : x y z
#
# Youngs Moduli (GPa) = 80.65732 80.65732 117.34432
#
# Poissons Ratio (x) = 0.43310 0.21270
# Poissons Ratio (y) = 0.43310 0.21270
# Poissons Ratio (z) = 0.14620 0.14620
#
# Static dielectric constant tensor:
#      x y z
#    x 1.585070 0.000000 0.000000 
#    y 0.000000 1.585070 0.000000 
#    z 0.000000 0.000000 1.619920 
# 
# From -- ./inp_files/6138.got.cif
#   From: 2010.05.17/outbox.cif.g08.bks.cpg/sg124_4_cif.got.tgz:6138.got - 2010.05.20 11:49:17.
