data_PCOD9562035
_publ_section_title
;
Structure prediction by ZEFSAII (Michael W. Deem and Ramdas Pophale) SiO2 
 PCOD9562035
Probable space group: P 4/M M M
;
_chemical_formula_sum "Si O2"
_cell_formula_units_Z 72
_cell_length_a 13.809168
_cell_length_b 13.809168
_cell_length_c 23.808372
_cell_angle_alpha 90.000000
_cell_angle_beta 90.000000
_cell_angle_gamma 90.000000
_cell_volume 4540.092759
_symmetry_space_group_name_H-M "P 4/M M M"
_symmetry_group_IT_number 123
_symmetry_cell_setting 'tetragonal'
loop_
_space_group_symop_operation_xyz
x,y,z
-y,x,z
-x,-y,z
y,-x,z
x,-y,-z
-x,y,-z
y,x,-z
-y,-x,-z
-x,-y,-z
y,-x,-z
x,y,-z
-y,x,-z
-x,y,z
x,-y,z
-y,-x,z
y,x,z
loop_
_atom_site_type_symbol
_atom_site_label
_atom_site_fract_x
_atom_site_fract_y
_atom_site_fract_z
Si Si1 0.117095 0.610766 0.500000
Si Si2 0.114870 0.726985 0.062112
Si Si3 0.615613 0.888071 0.174455
Si Si4 0.615938 0.225868 0.712327
Si Si5 0.116095 0.724311 0.613846
O O1 0.153790 0.500000 0.500000
O O2 0.143141 0.669232 0.556065
O O3 0.000000 0.605383 0.500000
O O4 0.173853 0.826148 0.065632
O O5 0.142165 0.662462 0.115515
O O6 0.000000 0.743136 0.064875
O O7 0.135630 0.683775 0.000000
O O8 0.500000 0.886714 0.168334
O O9 0.640120 0.820864 0.227107
O O10 0.644322 0.000000 0.186175
O O11 0.500000 0.235146 0.707510
O O12 0.673338 0.326663 0.706344
O O13 0.657942 0.154044 0.664892
O O14 0.175046 0.824954 0.616362
O O15 0.000000 0.736816 0.615976
#
# Coordination Sequence:
#
# PCOD9562035 Si02
#       5
#     8  16  16  16  16
#     4   9  17  30  49  71  95 125 161 199 234 269
#     4   9  17  28  42  61  86 116 148 182 220 263
#     4   9  17  29  46  67  89 114 146 185 229 276
#     4  10  20  33  50  71  94 122 156 194 237 284
#     4  10  20  33  50  73 100 130 164 200 239 284
#
# _framework density 15.858708
#
# number of rings (size 3 to 8) (size 9 to 14) (size 15 to 20)
#    0.000    2.556    0.000    2.333    0.000    3.333 
#    0.000    3.333    0.000    2.000    0.000    3.111 
#    0.000    8.000    0.000   20.667    0.000    0.444 
#
# Total GULP energy -401062.793935 kJ/mol
# GULP energy per Si atom -5570.316582 kJ/mol
# Density = 1.582261 g / cm^3
# Si number density = 15.858708 Si / 1000 Ang^3
#
#
#
# Elastic Constant Matrix: (Units=GPa)
#
#
# Indices 1 2 3 4 5 6 
#
# 1 74.5827 48.4536 53.8626 0.0000 0.0000 0.0000
# 2 48.4536 74.5827 53.8626 0.0000 0.0000 0.0000
# 3 53.8626 53.8626 145.5846 0.0000 0.0000 0.0000
# 4 0.0000 0.0000 0.0000 24.0565 0.0000 0.0000
# 5 0.0000 0.0000 0.0000 0.0000 24.0565 0.0000
# 6 0.0000 0.0000 0.0000 0.0000 0.0000 14.3631
#
#
#
# Elastic Compliance Matrix: (Units=1/GPa)
#
#
# Indices 1 2 3 4 5 6 
#
# 1 0.025147 -0.013125 -0.004448 0.000000 0.000000 0.000000
# 2 -0.013125 0.025147 -0.004448 0.000000 0.000000 0.000000
# 3 -0.004448 -0.004448 0.010160 0.000000 0.000000 0.000000
# 4 0.000000 0.000000 0.000000 0.041569 0.000000 0.000000
# 5 0.000000 0.000000 0.000000 0.000000 0.041569 0.000000
# 6 0.000000 0.000000 0.000000 0.000000 0.000000 0.069623
#
#
# Mechanical properties :
#
#
# Convention : Reuss Voigt Hill
#
# Bulk Modulus (GPa) = 60.92840 67.45641 64.19241
# Shear Modulus (GPa) = 19.03125 21.73329 20.38227
#
# Velocity S-wave (km/s) = 3.46793 3.70595 3.58892
# Velocity P-wave (km/s) = 7.38501 7.80643 7.59864
#
# Compressibility (1/GPa) = 0.01641271
#
# Stress axis : x y z
#
# Youngs Moduli (GPa) = 39.76648 39.76648 98.42477
#
# Poissons Ratio (x) = 0.52193 0.43778
# Poissons Ratio (y) = 0.52193 0.43778
# Poissons Ratio (z) = 0.17688 0.17688
#
# Static dielectric constant tensor:
#      x y z
#    x 1.510610 0.000000 0.000000 
#    y 0.000000 1.510610 0.000000 
#    z 0.000000 0.000000 1.544120 
# 
# From -- ./inp_files/7784.got.cif
#   From: 2010.05.17/outbox.cif.g08.bks.cpg/sg123_4_cif.got.tgz:7784.got - 2010.05.20 11:43:04.
