data_PCOD9562117
_publ_section_title
;
Structure prediction by ZEFSAII (Michael W. Deem and Ramdas Pophale) SiO2 
 PCOD9562117
Probable space group: P 4/M M M
;
_chemical_formula_sum "Si O2"
_cell_formula_units_Z 120
_cell_length_a 17.925962
_cell_length_b 17.925962
_cell_length_c 22.392555
_cell_angle_alpha 90.000000
_cell_angle_beta 90.000000
_cell_angle_gamma 90.000000
_cell_volume 7195.626168
_symmetry_space_group_name_H-M "P 4/M M M"
_symmetry_group_IT_number 123
_symmetry_cell_setting 'tetragonal'
loop_
_space_group_symop_operation_xyz
x,y,z
-y,x,z
-x,-y,z
y,-x,z
x,-y,-z
-x,y,-z
y,x,-z
-y,-x,-z
-x,-y,-z
y,-x,-z
x,y,-z
-y,x,-z
-x,y,z
x,-y,z
-y,-x,z
y,x,z
loop_
_atom_site_type_symbol
_atom_site_label
_atom_site_fract_x
_atom_site_fract_y
_atom_site_fract_z
Si Si1 0.793277 0.910548 0.295307
Si Si2 0.915811 0.719064 0.169610
Si Si3 0.290144 0.411965 0.428088
Si Si4 0.804001 0.321833 0.933187
Si Si5 0.712426 0.412950 0.844797
Si Si6 0.584697 0.149729 0.766293
Si Si7 0.000000 0.412650 0.428748
Si Si8 0.352044 0.855863 0.362679
O O1 0.872488 0.872488 0.307555
O O2 0.772013 0.895647 0.225615
O O3 0.730821 0.870342 0.336414
O O4 0.790515 0.000000 0.304055
O O5 0.863215 0.714181 0.112301
O O6 0.907536 0.638211 0.200410
O O7 0.000000 0.735458 0.151824
O O8 0.279949 0.409750 0.500000
O O9 0.292645 0.500000 0.410811
O O10 0.365866 0.365866 0.414315
O O11 0.220807 0.369664 0.397055
O O12 0.737923 0.262078 0.937476
O O13 0.765564 0.392612 0.901045
O O14 0.832278 0.337338 0.000000
O O15 0.692601 0.500000 0.844255
O O16 0.641506 0.358495 0.844955
O O17 0.766746 0.395230 0.788751
O O18 0.500000 0.136885 0.783410
O O19 0.596656 0.143456 0.696241
O O20 0.926113 0.374400 0.402975
O O21 0.000000 0.500000 0.411594
O O22 0.000000 0.408176 0.500000
#
# Coordination Sequence:
#
# PCOD9562117 Si02
#       8
#    16  16  16  16  16  16   8  16
#     4  10  20  35  54  78 107 136 171 216 264 317
#     4   9  18  30  46  72 100 126 160 203 250 292
#     4  10  21  36  54  77 106 141 180 219 259 306
#     4   9  17  30  48  67  91 128 167 200 244 304
#     4   9  18  32  48  69  95 125 166 214 262 308
#     4   9  18  30  47  68  96 130 160 194 239 301
#     4  11  22  34  52  80 115 145 170 212 265 318
#     4  11  20  35  53  80 105 137 175 214 263 317
#
# _framework density 16.676798000000002
#
# number of rings (size 3 to 8) (size 9 to 14) (size 15 to 20)
#    0.000    2.333    0.667    2.400    0.933    6.000 
#    0.000    0.667    0.000    0.000    0.000    7.467 
#    0.000    0.533    0.000   12.400    0.000    0.000 
#
# Total GULP energy -668486.137480 kJ/mol
# GULP energy per Si atom -5570.717812 kJ/mol
# Density = 1.663884 g / cm^3
# Si number density = 16.676798 Si / 1000 Ang^3
#
#
#
# Elastic Constant Matrix: (Units=GPa)
#
#
# Indices 1 2 3 4 5 6 
#
# 1 72.5440 46.7331 22.2048 0.0000 0.0000 0.0000
# 2 46.7331 72.5440 22.2048 0.0000 0.0000 0.0000
# 3 22.2048 22.2048 61.9977 0.0000 0.0000 0.0000
# 4 0.0000 0.0000 0.0000 10.6214 0.0000 0.0000
# 5 0.0000 0.0000 0.0000 0.0000 10.6214 0.0000
# 6 0.0000 0.0000 0.0000 0.0000 0.0000 21.2260
#
#
#
# Elastic Compliance Matrix: (Units=1/GPa)
#
#
# Indices 1 2 3 4 5 6 
#
# 1 0.024209 -0.014535 -0.003465 0.000000 0.000000 0.000000
# 2 -0.014535 0.024209 -0.003465 0.000000 0.000000 0.000000
# 3 -0.003465 -0.003465 0.018611 0.000000 0.000000 0.000000
# 4 0.000000 0.000000 0.000000 0.094149 0.000000 0.000000
# 5 0.000000 0.000000 0.000000 0.000000 0.094149 0.000000
# 6 0.000000 0.000000 0.000000 0.000000 0.000000 0.047112
#
#
# Mechanical properties :
#
#
# Convention : Reuss Voigt Hill
#
# Bulk Modulus (GPa) = 41.49345 43.26347 42.37846
# Shear Modulus (GPa) = 14.14823 16.22331 15.18577
#
# Velocity S-wave (km/s) = 2.91585 3.12237 3.02088
# Velocity P-wave (km/s) = 6.02256 6.24480 6.13469
#
# Compressibility (1/GPa) = 0.02410019
#
# Stress axis : x y z
#
# Youngs Moduli (GPa) = 41.30760 41.30760 53.73033
#
# Poissons Ratio (x) = 0.60040 0.18616
# Poissons Ratio (y) = 0.60040 0.18616
# Poissons Ratio (z) = 0.14312 0.14312
#
# Static dielectric constant tensor:
#      x y z
#    x 1.563820 0.000000 0.000000 
#    y 0.000000 1.563820 0.000000 
#    z 0.000000 0.000000 1.574270 
# 
# From -- ./inp_files/6819.got.cif
#   From: 2010.05.17/outbox.cif.g08.bks.cpg/sg123_4_cif.got.tgz:6819.got - 2010.05.20 11:43:04.
