data_PCOD9562439
_publ_section_title
;
Structure prediction by ZEFSAII (Michael W. Deem and Ramdas Pophale) SiO2 
 PCOD9562439
Probable space group: P 4/M C C
;
_chemical_formula_sum "Si O2"
_cell_formula_units_Z 80
_cell_length_a 9.941186
_cell_length_b 9.941186
_cell_length_c 31.017741
_cell_angle_alpha 90.000000
_cell_angle_beta 90.000000
_cell_angle_gamma 90.000000
_cell_volume 3065.395845
_symmetry_space_group_name_H-M "P 4/M C C"
_symmetry_group_IT_number 124
_symmetry_cell_setting 'tetragonal'
loop_
_space_group_symop_operation_xyz
x,y,z
-y,x,z
-x,-y,z
y,-x,z
x,-y,1/2-z
-x,y,1/2-z
y,x,1/2-z
-y,-x,1/2-z
-x,-y,-z
y,-x,-z
x,y,-z
-y,x,-z
-x,y,1/2+z
x,-y,1/2+z
-y,-x,1/2+z
y,x,1/2+z
loop_
_atom_site_type_symbol
_atom_site_label
_atom_site_fract_x
_atom_site_fract_y
_atom_site_fract_z
Si Si1 0.101523 0.635815 0.575911
Si Si2 0.641362 0.171350 0.776028
Si Si3 0.270283 0.485790 0.000000
Si Si4 0.634609 0.324831 0.866994
Si Si5 0.779162 0.984841 0.000000
Si Si6 0.229939 0.008363 0.658428
O O1 0.173394 0.531783 0.541980
O O2 0.235367 0.700471 0.595962
O O3 0.997533 0.702990 0.544021
O O4 0.017594 0.653833 0.621372
O O5 0.500000 0.174020 0.750000
O O6 0.762446 0.237555 0.750000
O O7 0.639085 0.269301 0.818403
O O8 0.687220 0.029994 0.797332
O O9 0.379029 0.361238 0.000000
O O10 0.681377 0.474721 0.873821
O O11 0.862893 0.122236 0.000000
O O12 0.121473 0.133045 0.656250
#
# Coordination Sequence:
#
# PCOD9562439 Si02
#       6
#    16  16   8  16   8  16
#     4  10  20  33  60  92 124 158 222 279 323 388
#     4  11  22  39  68  97 132 165 218 280 345 413
#     4  10  20  36  60  92 136 186 230 278 342 424
#     4  10  19  33  59  88 120 165 208 253 316 401
#     4  10  20  36  60  84 108 152 210 268 320 382
#     4  10  23  45  70  94 128 183 236 281 344 425
#
# _framework density 26.097770000000001
#
# number of rings (size 3 to 8) (size 9 to 14) (size 15 to 20)
#    0.000    1.800    2.000    2.400    0.000    4.200 
#    0.000    3.000    0.000   49.200    0.000    0.000 
#    0.000    0.000    0.000    0.000    0.000    0.000 
#
# Total GULP energy -445501.171310 kJ/mol
# GULP energy per Si atom -5568.764641 kJ/mol
# Density = 2.603837 g / cm^3
# Si number density = 26.097770 Si / 1000 Ang^3
#
#
#
# Elastic Constant Matrix: (Units=GPa)
#
#
# Indices 1 2 3 4 5 6 
#
# 1 97.8022 67.2324 54.7399 0.0000 0.0000 0.0000
# 2 67.2324 97.8026 54.7398 0.0000 0.0000 0.0000
# 3 54.7399 54.7398 204.4580 0.0000 0.0000 0.0000
# 4 0.0000 0.0000 0.0000 125.0583 0.0000 0.0000
# 5 0.0000 0.0000 0.0000 0.0000 125.0577 0.0000
# 6 0.0000 0.0000 0.0000 0.0000 0.0000 51.4057
#
#
#
# Elastic Compliance Matrix: (Units=1/GPa)
#
#
# Indices 1 2 3 4 5 6 
#
# 1 0.020040 -0.012672 -0.001973 0.000000 0.000000 0.000000
# 2 -0.012672 0.020040 -0.001973 0.000000 0.000000 0.000000
# 3 -0.001973 -0.001973 0.005947 0.000000 0.000000 0.000000
# 4 0.000000 0.000000 0.000000 0.007996 0.000000 0.000000
# 5 0.000000 0.000000 0.000000 0.000000 0.007996 0.000000
# 6 0.000000 0.000000 0.000000 0.000000 0.000000 0.019453
#
#
# Mechanical properties :
#
#
# Convention : Reuss Voigt Hill
#
# Bulk Modulus (GPa) = 78.17031 83.72078 80.94555
# Shear Modulus (GPa) = 42.02700 75.19439 58.61069
#
# Velocity S-wave (km/s) = 4.01729 5.37356 4.74414
# Velocity P-wave (km/s) = 7.17886 8.40532 7.81619
#
# Compressibility (1/GPa) = 0.01279258
#
# Stress axis : x y z
#
# Youngs Moduli (GPa) = 49.90047 49.90072 168.14505
#
# Poissons Ratio (x) = 0.63234 0.33169
# Poissons Ratio (y) = 0.63234 0.33168
# Poissons Ratio (z) = 0.09844 0.09843
#
# Static dielectric constant tensor:
#      x y z
#    x 2.098880 0.000000 0.000000 
#    y 0.000000 2.098880 0.000000 
#    z 0.000000 0.000000 2.010270 
# 
# From -- ./inp_files/7011.got.cif
#   From: 2010.05.17/outbox.cif.g08.bks.cpg/sg124_4_cif.got.tgz:7011.got - 2010.05.20 11:49:17.
