data_PCOD9562667
_publ_section_title
;
Structure prediction by ZEFSAII (Michael W. Deem and Ramdas Pophale) SiO2 
 PCOD9562667
Probable space group: P 4/M C C
;
_chemical_formula_sum "Si O2"
_cell_formula_units_Z 112
_cell_length_a 15.297079
_cell_length_b 15.297079
_cell_length_c 27.821745
_cell_angle_alpha 90.000000
_cell_angle_beta 90.000000
_cell_angle_gamma 90.000000
_cell_volume 6510.305745
_symmetry_space_group_name_H-M "P 4/M C C"
_symmetry_group_IT_number 124
_symmetry_cell_setting 'tetragonal'
loop_
_space_group_symop_operation_xyz
x,y,z
-y,x,z
-x,-y,z
y,-x,z
x,-y,1/2-z
-x,y,1/2-z
y,x,1/2-z
-y,-x,1/2-z
-x,-y,-z
y,-x,-z
x,y,-z
-y,x,-z
-x,y,1/2+z
x,-y,1/2+z
-y,-x,1/2+z
y,x,1/2+z
loop_
_atom_site_type_symbol
_atom_site_label
_atom_site_fract_x
_atom_site_fract_y
_atom_site_fract_z
Si Si1 0.647716 0.499822 0.303941
Si Si2 0.104499 0.103597 0.806029
Si Si3 0.692965 0.679487 0.557091
Si Si4 0.983907 0.758622 0.056720
Si Si5 0.490574 0.742241 0.096981
Si Si6 0.082448 0.436851 0.945214
Si Si7 0.186982 0.833675 0.600819
O O1 0.583981 0.583716 0.308136
O O2 0.685537 0.500000 0.250000
O O3 0.713951 0.498867 0.347796
O O4 0.122257 0.122257 0.750000
O O5 0.162582 0.158439 0.843024
O O6 0.000582 0.119001 0.814115
O O7 0.702401 0.694774 0.500000
O O8 0.593045 0.694197 0.573418
O O9 0.719703 0.580821 0.570292
O O10 0.756108 0.747673 0.585114
O O11 0.948895 0.660726 0.065086
O O12 0.905800 0.820511 0.074187
O O13 0.074254 0.773707 0.083891
O O14 0.999077 0.769464 0.000000
O O15 0.469979 0.843791 0.090244
O O16 0.000000 0.500000 0.944128
O O17 0.118824 0.437961 0.000000
#
# Coordination Sequence:
#
# PCOD9562667 Si02
#       7
#    16  16  16  16  16  16  16
#     4   9  18  36  61  89 119 152 191 241 303 365
#     4   9  18  36  61  88 116 151 195 248 311 373
#     4  12  25  39  58  87 126 162 201 252 303 364
#     4  11  22  35  55  83 122 160 199 249 299 357
#     4  12  22  39  62  89 120 156 202 252 305 356
#     4  10  21  39  59  81 117 168 209 233 285 367
#     4  12  22  38  58  87 119 157 205 251 305 359
#
# _framework density 17.203493000000002
#
# number of rings (size 3 to 8) (size 9 to 14) (size 15 to 20)
#    0.000    1.286    4.286    4.286    0.000    1.714 
#    0.000    2.857    0.000    0.429    0.000    0.000 
#    0.000    0.000    0.000    0.000    0.000    0.000 
#
# Total GULP energy -625420.381307 kJ/mol
# GULP energy per Si atom -5584.110547 kJ/mol
# Density = 1.716434 g / cm^3
# Si number density = 17.203493 Si / 1000 Ang^3
#
#
#
# Elastic Constant Matrix: (Units=GPa)
#
#
# Indices 1 2 3 4 5 6 
#
# 1 84.8153 23.3432 57.0451 0.0000 0.0000 0.0000
# 2 23.3432 84.8153 57.0451 0.0000 0.0000 0.0000
# 3 57.0451 57.0451 141.6062 0.0000 0.0000 0.0000
# 4 0.0000 0.0000 0.0000 28.0895 0.0000 0.0000
# 5 0.0000 0.0000 0.0000 0.0000 28.0895 0.0000
# 6 0.0000 0.0000 0.0000 0.0000 0.0000 15.9724
#
#
#
# Elastic Compliance Matrix: (Units=1/GPa)
#
#
# Indices 1 2 3 4 5 6 
#
# 1 0.016173 -0.000095 -0.006477 0.000000 0.000000 0.000000
# 2 -0.000095 0.016173 -0.006477 0.000000 0.000000 0.000000
# 3 -0.006477 -0.006477 0.012280 0.000000 0.000000 0.000000
# 4 0.000000 0.000000 0.000000 0.035601 0.000000 0.000000
# 5 0.000000 0.000000 0.000000 0.000000 0.035601 0.000000
# 6 0.000000 0.000000 0.000000 0.000000 0.000000 0.062608
#
#
# Mechanical properties :
#
#
# Convention : Reuss Voigt Hill
#
# Bulk Modulus (GPa) = 53.97146 65.12261 59.54704
# Shear Modulus (GPa) = 23.72958 26.01716 24.87337
#
# Velocity S-wave (km/s) = 3.71798 3.89307 3.80654
# Velocity P-wave (km/s) = 7.06199 7.62525 7.34902
#
# Compressibility (1/GPa) = 0.01852831
#
# Stress axis : x y z
#
# Youngs Moduli (GPa) = 61.83293 61.83293 81.43259
#
# Poissons Ratio (x) = 0.00587 0.52742
# Poissons Ratio (y) = 0.00587 0.52742
# Poissons Ratio (z) = 0.40048 0.40048
#
# Static dielectric constant tensor:
#      x y z
#    x 1.579620 0.000000 0.000000 
#    y 0.000000 1.579620 0.000000 
#    z 0.000000 0.000000 1.581820 
# 
# From -- ./inp_files/6613.got.cif
#   From: 2010.05.17/outbox.cif.g08.bks.cpg/sg124_4_cif.got.tgz:6613.got - 2010.05.20 11:49:17.
