data_PCOD9562291
_publ_section_title
;
Structure prediction by ZEFSAII (Michael W. Deem and Ramdas Pophale) SiO2 
 PCOD9562291
Probable space group: P 4/M M M
;
_chemical_formula_sum "Si O2"
_cell_formula_units_Z 80
_cell_length_a 24.000000
_cell_length_b 24.000000
_cell_length_c 9.000000
_cell_angle_alpha 90.000000
_cell_angle_beta 90.000000
_cell_angle_gamma 90.000000
_cell_volume 5184.000000
_symmetry_space_group_name_H-M "P 4/M M M"
_symmetry_group_IT_number 123
_symmetry_cell_setting 'tetragonal'
loop_
_space_group_symop_operation_xyz
x,y,z
-y,x,z
-x,-y,z
y,-x,z
x,-y,-z
-x,y,-z
y,x,-z
-y,-x,-z
-x,-y,-z
y,-x,-z
x,y,-z
-y,x,-z
-x,y,z
x,-y,z
-y,-x,z
y,x,z
loop_
_atom_site_type_symbol
_atom_site_label
_atom_site_fract_x
_atom_site_fract_y
_atom_site_fract_z
Si Si1 0.627431 0.064080 0.320764
Si Si2 0.821826 0.564885 0.320450
Si Si3 0.727475 0.872577 0.823059
Si Si4 0.852019 0.852019 0.821861
Si Si5 0.335278 0.244526 0.176994
Si Si6 0.065206 0.065206 0.325699
O O1 0.628499 0.063926 0.500000
O O2 0.586301 0.115553 0.276425
O O3 0.687177 0.083980 0.258548
O O4 0.613985 0.000000 0.273907
O O5 0.819036 0.568258 0.500000
O O6 0.814468 0.500000 0.277546
O O7 0.775154 0.607030 0.254361
O O8 0.790915 0.870730 0.768685
O O9 0.703618 0.810036 0.802179
O O10 0.725951 0.884251 0.000000
O O11 0.896798 0.896798 0.774531
O O12 0.847503 0.847503 0.000000
O O13 0.299189 0.299189 0.226018
O O14 0.344985 0.250693 0.000000
O O15 0.076186 0.076186 0.500000
O O16 0.000000 0.075676 0.298863
#
# Coordination Sequence:
#
# PCOD9562291 Si02
#       6
#    16  16  16   8  16   8
#     4   9  18  31  45  63  89 122 159 194 227 266
#     4   9  18  31  46  67  95 125 158 195 230 264
#     4   9  17  30  46  65  90 115 142 180 227 276
#     4  10  19  31  49  70  88 108 138 178 227 281
#     4   9  16  29  49  69  91 121 153 185 224 268
#     4   9  20  38  52  60  76 104 136 172 220 277
#
# _framework density 15.432098999999999
#
# number of rings (size 3 to 8) (size 9 to 14) (size 15 to 20)
#    0.000    2.900    1.000    0.300    0.000    3.600 
#    0.000    6.500    0.000    0.000    0.000    5.600 
#    0.000    0.400    0.000    4.400    0.000    3.200 
#
# Total GULP energy -445352.330992 kJ/mol
# GULP energy per Si atom -5566.904137 kJ/mol
# Density = 1.539697 g / cm^3
# Si number density = 15.432099 Si / 1000 Ang^3
#
#
#
# Elastic Constant Matrix: (Units=GPa)
#
#
# Indices 1 2 3 4 5 6 
#
# 1 44.6896 87.3383 21.6315 0.0000 0.0000 0.0000
# 2 87.3383 44.6896 21.6315 0.0000 0.0000 0.0000
# 3 21.6315 21.6315 9.3619 0.0000 0.0000 0.0000
# 4 0.0000 0.0000 0.0000 25.2301 0.0000 0.0000
# 5 0.0000 0.0000 0.0000 0.0000 25.2301 0.0000
# 6 0.0000 0.0000 0.0000 0.0000 0.0000 20.4662
#
#
#
# Elastic Compliance Matrix: (Units=1/GPa)
#
#
# Indices 1 2 3 4 5 6 
#
# 1 0.003870 0.027317 -0.072060 0.000000 0.000000 0.000000
# 2 0.027317 0.003870 -0.072060 0.000000 0.000000 0.000000
# 3 -0.072060 -0.072060 0.439818 0.000000 0.000000 0.000000
# 4 0.000000 0.000000 0.000000 0.039635 0.000000 0.000000
# 5 0.000000 0.000000 0.000000 0.000000 0.039635 0.000000
# 6 0.000000 0.000000 0.000000 0.000000 0.000000 0.048861
#
#
# Mechanical properties :
#
#
# Convention : Reuss Voigt Hill
#
# Bulk Modulus (GPa) = 4.67395 39.99375 22.33385
# Shear Modulus (GPa) = 5.67788 12.06127 8.86957
#
# Velocity S-wave (km/s) = 1.92022 2.79869 2.39999
# Velocity P-wave (km/s) = 2.81986 6.03455 4.70996
#
# Compressibility (1/GPa) = 0.21395202
#
# Stress axis : x y z
#
# Youngs Moduli (GPa) = 258.41849 258.41849 2.27367
#
# Poissons Ratio (x) = -7.05923 0.16384
# Poissons Ratio (y) = -7.05923 0.16384
# Poissons Ratio (z) = 18.62159 18.62159
#
# Static dielectric constant tensor:
#      x y z
#    x 1.510360 0.000000 0.000000 
#    y 0.000000 1.510360 0.000000 
#    z 0.000000 0.000000 1.524550 
# 
# From -- ./inp_files/1451.got.cif
#   From: 2010.05.17/outbox.ucp.g08.bks.cvg/sg123_1_cif.got.tgz:1451.got - 2010.06.11 11:35:48.
