data_PCOD9562634
_publ_section_title
;
Structure prediction by ZEFSAII (Michael W. Deem and Ramdas Pophale) SiO2 
 PCOD9562634
Probable space group: P 4/M C C
;
_chemical_formula_sum "Si O2"
_cell_formula_units_Z 96
_cell_length_a 19.603112
_cell_length_b 19.603112
_cell_length_c 11.395109
_cell_angle_alpha 90.000000
_cell_angle_beta 90.000000
_cell_angle_gamma 90.000000
_cell_volume 4378.935278
_symmetry_space_group_name_H-M "P 4/M C C"
_symmetry_group_IT_number 124
_symmetry_cell_setting 'tetragonal'
loop_
_space_group_symop_operation_xyz
x,y,z
-y,x,z
-x,-y,z
y,-x,z
x,-y,1/2-z
-x,y,1/2-z
y,x,1/2-z
-y,-x,1/2-z
-x,-y,-z
y,-x,-z
x,y,-z
-y,x,-z
-x,y,1/2+z
x,-y,1/2+z
-y,-x,1/2+z
y,x,1/2+z
loop_
_atom_site_type_symbol
_atom_site_label
_atom_site_fract_x
_atom_site_fract_y
_atom_site_fract_z
Si Si1 0.189340 0.628917 0.627527
Si Si2 0.491147 0.108870 0.874165
Si Si3 0.041169 0.299276 0.132169
Si Si4 0.844557 0.202231 0.875854
Si Si5 0.194304 0.646595 0.875041
Si Si6 0.996663 0.854739 0.625337
O O1 0.220220 0.644947 0.500000
O O2 0.167489 0.549493 0.628328
O O3 0.116806 0.669223 0.635585
O O4 0.229355 0.645127 0.747137
O O5 0.500000 0.072044 0.750000
O O6 0.417396 0.143520 0.874331
O O7 0.501249 0.073767 0.000000
O O8 0.000000 0.321236 0.250000
O O9 0.039415 0.216294 0.135764
O O10 0.013524 0.317052 0.000000
O O11 0.813888 0.186113 0.750000
O O12 0.848152 0.283647 0.878249
O O13 0.918420 0.168846 0.880685
O O14 0.808813 0.182730 0.000000
O O15 0.233087 0.643651 0.000000
O O16 0.016100 0.886632 0.500000
O O17 0.000000 0.891472 0.750000
#
# Coordination Sequence:
#
# PCOD9562634 Si02
#       6
#    16  16  16  16  16  16
#     4   9  16  25  40  63  85 106 137 172 205 246
#     4   8  14  24  38  57  80 106 138 174 209 247
#     4   9  16  25  38  56  78 105 137 170 203 243
#     4  10  21  34  47  65  87 112 146 186 226 268
#     4   9  16  27  43  59  79 110 142 175 218 259
#     4   9  17  29  45  64  85 110 139 170 209 259
#
# _framework density 21.923138999999999
#
# number of rings (size 3 to 8) (size 9 to 14) (size 15 to 20)
#    0.000    3.000    0.000    2.000    0.000    3.333 
#    0.000    0.000    0.000   12.500    0.000   54.833 
#    0.000    0.333    0.000    3.667    0.000    2.667 
#
# Total GULP energy -535142.777661 kJ/mol
# GULP energy per Si atom -5574.403934 kJ/mol
# Density = 2.187324 g / cm^3
# Si number density = 21.923139 Si / 1000 Ang^3
#
#
#
# Elastic Constant Matrix: (Units=GPa)
#
#
# Indices 1 2 3 4 5 6 
#
# 1 57.3615 28.3710 19.0730 0.0000 0.0000 0.0000
# 2 28.3710 57.3610 19.0732 0.0000 0.0000 0.0000
# 3 19.0730 19.0732 325.9946 0.0000 0.0000 0.0000
# 4 0.0000 0.0000 0.0000 13.0495 0.0000 0.0000
# 5 0.0000 0.0000 0.0000 0.0000 13.0494 0.0000
# 6 0.0000 0.0000 0.0000 0.0000 0.0000 73.0772
#
#
#
# Elastic Compliance Matrix: (Units=1/GPa)
#
#
# Indices 1 2 3 4 5 6 
#
# 1 0.023235 -0.011259 -0.000701 0.000000 0.000000 0.000000
# 2 -0.011259 0.023235 -0.000701 0.000000 0.000000 0.000000
# 3 -0.000701 -0.000701 0.003150 0.000000 0.000000 0.000000
# 4 0.000000 0.000000 0.000000 0.076631 0.000000 0.000000
# 5 0.000000 0.000000 0.000000 0.000000 0.076632 0.000000
# 6 0.000000 0.000000 0.000000 0.000000 0.000000 0.013684
#
#
# Mechanical properties :
#
#
# Convention : Reuss Voigt Hill
#
# Bulk Modulus (GPa) = 41.15435 63.75018 52.45226
# Shear Modulus (GPa) = 20.00098 44.78189 32.39144
#
# Velocity S-wave (km/s) = 3.02375 4.52450 3.84800
# Velocity P-wave (km/s) = 5.56809 7.51245 6.61213
#
# Compressibility (1/GPa) = 0.02429877
#
# Stress axis : x y z
#
# Youngs Moduli (GPa) = 43.03842 43.03803 317.50809
#
# Poissons Ratio (x) = 0.48457 0.22247
# Poissons Ratio (y) = 0.48458 0.22248
# Poissons Ratio (z) = 0.03016 0.03016
#
# Static dielectric constant tensor:
#      x y z
#    x 1.780560 0.000000 0.000000 
#    y 0.000000 1.780560 0.000000 
#    z 0.000000 0.000000 2.018280 
# 
# From -- ./inp_files/2442.got.cif
#   From: 2010.05.17/outbox.cif.g08.bks.cpg/sg124_2_cif.got.tgz:2442.got - 2010.05.20 11:49:17.
