data_PCOD9562306
_publ_section_title
;
Structure prediction by ZEFSAII (Michael W. Deem and Ramdas Pophale) SiO2 
 PCOD9562306
Probable space group: P 4/M C C
;
_chemical_formula_sum "Si O2"
_cell_formula_units_Z 96
_cell_length_a 25.591532
_cell_length_b 25.591532
_cell_length_c 8.933092
_cell_angle_alpha 90.000000
_cell_angle_beta 90.000000
_cell_angle_gamma 90.000000
_cell_volume 5850.518768
_symmetry_space_group_name_H-M "P 4/M C C"
_symmetry_group_IT_number 124
_symmetry_cell_setting 'tetragonal'
loop_
_space_group_symop_operation_xyz
x,y,z
-y,x,z
-x,-y,z
y,-x,z
x,-y,1/2-z
-x,y,1/2-z
y,x,1/2-z
-y,-x,1/2-z
-x,-y,-z
y,-x,-z
x,y,-z
-y,x,-z
-x,y,1/2+z
x,-y,1/2+z
-y,-x,1/2+z
y,x,1/2+z
loop_
_atom_site_type_symbol
_atom_site_label
_atom_site_fract_x
_atom_site_fract_y
_atom_site_fract_z
Si Si1 0.221764 0.856534 0.177133
Si Si2 0.257813 0.447997 0.178774
Si Si3 0.943636 0.134599 0.321229
Si Si4 0.552783 0.859028 0.818506
Si Si5 0.331507 0.140967 0.172711
Si Si6 0.657547 0.266587 0.326587
O O1 0.194731 0.805270 0.250000
O O2 0.182957 0.904702 0.211256
O O3 0.279690 0.870065 0.233740
O O4 0.222930 0.848093 0.000000
O O5 0.282345 0.500000 0.250000
O O6 0.198808 0.446534 0.245589
O O7 0.282482 0.394419 0.236821
O O8 0.256104 0.450899 0.000000
O O9 0.915948 0.084053 0.250000
O O10 0.947401 0.128929 0.500000
O O11 0.000000 0.143061 0.250000
O O12 0.500000 0.884397 0.750000
O O13 0.610962 0.880899 0.782945
O O14 0.548866 0.855185 0.000000
O O15 0.337074 0.203978 0.178748
O O16 0.322406 0.126098 0.000000
O O17 0.706682 0.293319 0.250000
O O18 0.653160 0.281533 0.500000
#
# Coordination Sequence:
#
# PCOD9562306 Si02
#       6
#    16  16  16  16  16  16
#     4  10  20  32  48  69  95 126 160 195 235 280
#     4  10  17  26  39  53  71  99 132 169 212 258
#     4  10  21  37  56  79 104 132 164 201 241 284
#     4   9  16  26  39  57  81 112 150 191 230 270
#     4   9  18  29  42  61  88 121 156 190 227 271
#     4  10  19  29  39  56  80 107 140 176 212 255
#
# _framework density 16.408801
#
# number of rings (size 3 to 8) (size 9 to 14) (size 15 to 20)
#    0.000    2.333    0.000    6.000    0.000    7.500 
#    0.000    0.833    0.000    0.000    0.000    0.000 
#    0.000    1.000    0.000   10.667    0.000    7.667 
#
# Total GULP energy -534709.880584 kJ/mol
# GULP energy per Si atom -5569.894589 kJ/mol
# Density = 1.637145 g / cm^3
# Si number density = 16.408801 Si / 1000 Ang^3
#
#
#
# Elastic Constant Matrix: (Units=GPa)
#
#
# Indices 1 2 3 4 5 6 
#
# 1 70.5995 20.2362 38.9199 0.0000 0.0000 0.0000
# 2 20.2362 70.5918 38.9188 0.0000 0.0000 0.0000
# 3 38.9199 38.9188 87.2000 0.0000 0.0000 0.0000
# 4 0.0000 0.0000 0.0000 42.7114 0.0000 0.0000
# 5 0.0000 0.0000 0.0000 0.0000 42.7006 0.0000
# 6 0.0000 0.0000 0.0000 0.0000 0.0000 6.6703
#
#
#
# Elastic Compliance Matrix: (Units=1/GPa)
#
#
# Indices 1 2 3 4 5 6 
#
# 1 0.018842 -0.001014 -0.007957 0.000000 0.000000 0.000000
# 2 -0.001014 0.018844 -0.007958 0.000000 0.000000 0.000000
# 3 -0.007957 -0.007958 0.018571 0.000000 0.000000 0.000000
# 4 0.000000 0.000000 0.000000 0.023413 0.000000 0.000000
# 5 0.000000 0.000000 0.000000 0.000000 0.023419 0.000000
# 6 0.000000 0.000000 0.000000 0.000000 0.000000 0.149918
#
#
# Mechanical properties :
#
#
# Convention : Reuss Voigt Hill
#
# Bulk Modulus (GPa) = 44.64544 47.17124 45.90834
# Shear Modulus (GPa) = 16.98773 27.10422 22.04598
#
# Velocity S-wave (km/s) = 3.22107 4.06866 3.66942
# Velocity P-wave (km/s) = 6.41101 7.13315 6.78170
#
# Compressibility (1/GPa) = 0.02239870
#
# Stress axis : x y z
#
# Youngs Moduli (GPa) = 53.07408 53.06747 53.84791
#
# Poissons Ratio (x) = 0.05384 0.42846
# Poissons Ratio (y) = 0.05384 0.42850
# Poissons Ratio (z) = 0.42230 0.42229
#
# Static dielectric constant tensor:
#      x y z
#    x 1.583580 0.000000 0.000000 
#    y 0.000000 1.583570 0.000000 
#    z 0.000000 0.000000 1.550630 
# 
# From -- ./inp_files/1346.got.cif
#   From: 2010.05.17/outbox.cif.g08.bks.cpg/sg124_1_cif.got.tgz:1346.got - 2010.05.20 11:49:17.
