data_PCOD9562299
_publ_section_title
;
Structure prediction by ZEFSAII (Michael W. Deem and Ramdas Pophale) SiO2 
 PCOD9562299
Probable space group: P 4/M M M
;
_chemical_formula_sum "Si O2"
_cell_formula_units_Z 56
_cell_length_a 18.000000
_cell_length_b 18.000000
_cell_length_c 9.000000
_cell_angle_alpha 90.000000
_cell_angle_beta 90.000000
_cell_angle_gamma 90.000000
_cell_volume 2916.000000
_symmetry_space_group_name_H-M "P 4/M M M"
_symmetry_group_IT_number 123
_symmetry_cell_setting 'tetragonal'
loop_
_space_group_symop_operation_xyz
x,y,z
-y,x,z
-x,-y,z
y,-x,z
x,-y,-z
-x,y,-z
y,x,-z
-y,-x,-z
-x,-y,-z
y,-x,-z
x,y,-z
-y,x,-z
-x,y,z
x,-y,z
-y,-x,z
y,x,z
loop_
_atom_site_type_symbol
_atom_site_label
_atom_site_fract_x
_atom_site_fract_y
_atom_site_fract_z
Si Si1 0.000000 0.416211 0.819535
Si Si2 0.335989 0.848257 0.177973
Si Si3 0.915796 0.198286 0.676362
Si Si4 0.706304 0.414054 0.321205
O O1 0.923860 0.377714 0.773791
O O2 0.000000 0.500000 0.766215
O O3 0.000000 0.415858 0.000000
O O4 0.254081 0.862173 0.238572
O O5 0.374876 0.776792 0.246908
O O6 0.336915 0.842850 0.000000
O O7 0.913247 0.215125 0.500000
O O8 0.884259 0.115742 0.695480
O O9 0.000000 0.206530 0.729107
O O10 0.715111 0.411314 0.500000
O O11 0.701287 0.500000 0.276326
O O12 0.633041 0.366960 0.283172
#
# Coordination Sequence:
#
# PCOD9562299 Si02
#       4
#     8  16  16  16
#     4   9  18  32  51  77 110 145 180 222 271 327
#     4  11  21  36  58  85 117 152 190 233 285 344
#     4  10  21  37  57  81 112 150 192 238 285 335
#     4  10  22  40  61  86 117 153 194 240 289 342
#
# _framework density 19.20439
#
# number of rings (size 3 to 8) (size 9 to 14) (size 15 to 20)
#    0.000    1.857    1.429    2.571    0.000    6.857 
#    0.000    2.857    0.000    3.429    0.000    4.000 
#    0.000    0.000    0.000    0.000    0.000    0.000 
#
# Total GULP energy -312525.060281 kJ/mol
# GULP energy per Si atom -5580.804648 kJ/mol
# Density = 1.916068 g / cm^3
# Si number density = 19.204390 Si / 1000 Ang^3
#
#
#
# Elastic Constant Matrix: (Units=GPa)
#
#
# Indices 1 2 3 4 5 6 
#
# 1 73.0245 165.9983 38.2151 0.0000 0.0000 0.0000
# 2 165.9983 73.0245 38.2151 0.0000 0.0000 0.0000
# 3 38.2151 38.2151 15.2069 0.0000 0.0000 0.0000
# 4 0.0000 0.0000 0.0000 14.8406 0.0000 0.0000
# 5 0.0000 0.0000 0.0000 0.0000 14.8406 0.0000
# 6 0.0000 0.0000 0.0000 0.0000 0.0000 -128.6297
#
#
#
# Elastic Compliance Matrix: (Units=1/GPa)
#
#
# Indices 1 2 3 4 5 6 
#
# 1 0.005271 0.016027 -0.053521 0.000000 0.000000 0.000000
# 2 0.016027 0.005271 -0.053521 0.000000 0.000000 0.000000
# 3 -0.053521 -0.053521 0.334758 0.000000 0.000000 0.000000
# 4 0.000000 0.000000 0.000000 0.067383 0.000000 0.000000
# 5 0.000000 0.000000 0.000000 0.000000 0.067383 0.000000
# 6 0.000000 0.000000 0.000000 0.000000 0.000000 -0.007774
#
#
# Mechanical properties :
#
#
# Convention : Reuss Voigt Hill
#
# Bulk Modulus (GPa) = 6.12489 71.79030 38.95760
# Shear Modulus (GPa) = 7.05471 -25.20123 -9.07326
#
# Velocity S-wave (km/s) = 1.91871 -3.62645 -2.17597
# Velocity P-wave (km/s) = 2.84690 4.46414 3.74389
#
# Compressibility (1/GPa) = 0.16326829
#
# Stress axis : x y z
#
# Youngs Moduli (GPa) = 189.71717 189.71717 2.98723
#
# Poissons Ratio (x) = -3.04054 0.15988
# Poissons Ratio (y) = -3.04054 0.15988
# Poissons Ratio (z) = 10.15391 10.15391
#
# Static dielectric constant tensor:
#      x y z
#    x 1.679760 0.000000 0.000000 
#    y 0.000000 1.679760 0.000000 
#    z 0.000000 0.000000 1.639830 
# 
# From -- ./inp_files/587.got.cif
#   From: 2010.05.17/outbox.ucp.g08.bks.cvg/sg123_1_cif.got.tgz:587.got - 2010.06.11 11:35:48.
