data_PCOD9562922
_publ_section_title
;
Structure prediction by ZEFSAII (Michael W. Deem and Ramdas Pophale) SiO2 
 PCOD9562922
Probable space group: P 4/N B M
;
_chemical_formula_sum "Si O2"
_cell_formula_units_Z 112
_cell_length_a 14.727266
_cell_length_b 14.727266
_cell_length_c 27.944338
_cell_angle_alpha 90.000000
_cell_angle_beta 90.000000
_cell_angle_gamma 90.000000
_cell_volume 6060.913525
_symmetry_space_group_name_H-M "P 4/N B M"
_symmetry_group_IT_number 125
_space_group.IT_coordinate_system_code '2'
_symmetry_cell_setting 'tetragonal'
loop_
_space_group_symop_operation_xyz
x,y,z
1/2-y,x,z
1/2-x,1/2-y,z
y,1/2-x,z
x,1/2-y,-z
1/2-x,y,-z
y,x,-z
1/2-y,1/2-x,-z
-x,-y,-z
1/2+y,-x,-z
1/2+x,1/2+y,-z
-y,1/2+x,-z
-x,1/2+y,z
1/2+x,-y,z
-y,-x,z
1/2+y,1/2+x,z
loop_
_atom_site_type_symbol
_atom_site_label
_atom_site_fract_x
_atom_site_fract_y
_atom_site_fract_z
Si Si1 0.773807 0.422620 0.618425
Si Si2 0.402263 0.258225 0.894981
Si Si3 0.425141 0.420474 0.388941
Si Si4 0.515952 0.339176 0.531460
Si Si5 0.399064 0.269283 0.781812
Si Si6 0.100618 0.749518 0.057720
Si Si7 0.015007 0.839539 0.301576
O O1 0.840141 0.340141 0.609613
O O2 0.831829 0.515206 0.616728
O O3 0.701060 0.430458 0.576977
O O4 0.726462 0.418556 0.669429
O O5 0.333055 0.342502 0.905303
O O6 0.421533 0.266432 0.838064
O O7 0.499088 0.255859 0.921340
O O8 0.495010 0.504991 0.388984
O O9 0.379528 0.427813 0.441399
O O10 0.363108 0.438722 0.342263
O O11 0.499849 0.250000 0.500000
O O12 0.580735 0.419266 0.509766
O O13 0.325266 0.348231 0.772733
O O14 0.477997 0.290170 0.744936
O O15 0.164365 0.835636 0.071488
O O16 0.158807 0.658807 0.071212
O O17 0.094582 0.750000 0.000000
O O18 0.068324 0.931677 0.289230
#
# Coordination Sequence:
#
# PCOD9562922 Si02
#       7
#    16  16  16  16  16  16  16
#     4  10  19  32  50  68  91 123 157 195 237 288
#     4   9  19  35  54  80 113 146 186 235 281 330
#     4   8  17  32  47  67  92 120 157 194 230 280
#     4  10  20  32  47  68  93 119 148 187 236 290
#     4   9  18  34  54  74 100 137 177 214 255 304
#     4   9  19  36  56  79 110 148 189 233 282 337
#     4  10  19  31  49  74 101 126 159 203 251 303
#
# _framework density 18.479061999999999
#
# number of rings (size 3 to 8) (size 9 to 14) (size 15 to 20)
#    0.000    2.714    0.000    3.857    0.000    4.143 
#    0.000    7.143    0.000    3.857    0.000    4.000 
#    0.000    0.000    0.000    0.000    0.000    0.000 
#
# Total GULP energy -624022.218381 kJ/mol
# GULP energy per Si atom -5571.626950 kJ/mol
# Density = 1.843700 g / cm^3
# Si number density = 18.479062 Si / 1000 Ang^3
#
#
#
# Elastic Constant Matrix: (Units=GPa)
#
#
# Indices 1 2 3 4 5 6 
#
# 1 89.3549 41.8929 39.4716 0.0000 0.0000 0.0000
# 2 41.8929 89.3549 39.4716 0.0000 0.0000 0.0000
# 3 39.4716 39.4716 60.4047 0.0000 0.0000 0.0000
# 4 0.0000 0.0000 0.0000 17.0998 0.0000 0.0000
# 5 0.0000 0.0000 0.0000 0.0000 17.0998 0.0000
# 6 0.0000 0.0000 0.0000 0.0000 0.0000 -15.2861
#
#
#
# Elastic Compliance Matrix: (Units=1/GPa)
#
#
# Indices 1 2 3 4 5 6 
#
# 1 0.016811 -0.004258 -0.008203 0.000000 0.000000 0.000000
# 2 -0.004258 0.016811 -0.008203 0.000000 0.000000 0.000000
# 3 -0.008203 -0.008203 0.027275 0.000000 0.000000 0.000000
# 4 0.000000 0.000000 0.000000 0.058480 0.000000 0.000000
# 5 0.000000 0.000000 0.000000 0.000000 0.058480 0.000000
# 6 0.000000 0.000000 0.000000 0.000000 0.000000 -0.065419
#
#
# Mechanical properties :
#
#
# Convention : Reuss Voigt Hill
#
# Bulk Modulus (GPa) = 51.09833 53.42075 52.25954
# Shear Modulus (GPa) = 31.19341 11.66793 21.43067
#
# Velocity S-wave (km/s) = 4.11303 2.51552 3.40917
# Velocity P-wave (km/s) = 7.09000 6.11626 6.62106
#
# Compressibility (1/GPa) = 0.01957011
#
# Stress axis : x y z
#
# Youngs Moduli (GPa) = 59.48391 59.48391 36.66315
#
# Poissons Ratio (x) = 0.25330 0.30074
# Poissons Ratio (y) = 0.25330 0.30074
# Poissons Ratio (z) = 0.48794 0.48794
#
# Static dielectric constant tensor:
#      x y z
#    x 1.659550 0.000000 0.000000 
#    y 0.000000 1.659550 0.000000 
#    z 0.000000 0.000000 1.641100 
# 
# From -- ./inp_files/6422.got.cif
#   From: 2010.05.17/outbox.cif.g08.bks.cpg/sg125_4_cif.got.tgz:6422.got - 2010.05.20 11:54:10.
