data_PCOD9562675
_publ_section_title
;
Structure prediction by ZEFSAII (Michael W. Deem and Ramdas Pophale) SiO2 
 PCOD9562675
Probable space group: P 4/M C C
;
_chemical_formula_sum "Si O2"
_cell_formula_units_Z 88
_cell_length_a 16.698607
_cell_length_b 16.698607
_cell_length_c 15.862194
_cell_angle_alpha 90.000000
_cell_angle_beta 90.000000
_cell_angle_gamma 90.000000
_cell_volume 4423.069308
_symmetry_space_group_name_H-M "P 4/M C C"
_symmetry_group_IT_number 124
_symmetry_cell_setting 'tetragonal'
loop_
_space_group_symop_operation_xyz
x,y,z
-y,x,z
-x,-y,z
y,-x,z
x,-y,1/2-z
-x,y,1/2-z
y,x,1/2-z
-y,-x,1/2-z
-x,-y,-z
y,-x,-z
x,y,-z
-y,x,-z
-x,y,1/2+z
x,-y,1/2+z
-y,-x,1/2+z
y,x,1/2+z
loop_
_atom_site_type_symbol
_atom_site_label
_atom_site_fract_x
_atom_site_fract_y
_atom_site_fract_z
Si Si1 0.047571 0.777115 0.162242
Si Si2 0.483773 0.632530 0.500000
Si Si3 0.818574 0.883565 0.403995
Si Si4 0.687397 0.759882 0.600690
Si Si5 0.358505 0.167758 0.102136
Si Si6 0.507170 0.747243 0.344342
O O1 0.152381 0.886733 0.344267
O O2 0.095352 0.696606 0.136258
O O3 0.000000 0.769523 0.250000
O O4 0.977249 0.804215 0.099618
O O5 0.414144 0.567569 0.500000
O O6 0.480378 0.685947 0.416877
O O7 0.837550 0.857159 0.500000
O O8 0.735923 0.840403 0.379886
O O9 0.675303 0.754232 0.500000
O O10 0.749706 0.689419 0.624145
O O11 0.600947 0.761906 0.641539
O O12 0.446764 0.177945 0.141671
O O13 0.363275 0.162505 0.000000
O O14 0.500000 0.715395 0.250000
#
# Coordination Sequence:
#
# PCOD9562675 Si02
#       6
#    16   8  16  16  16  16
#     4  11  23  39  64  99 131 165 213 269 334 395
#     4  11  24  42  62  92 137 176 216 286 353 406
#     4  10  21  40  65  92 127 170 213 264 327 404
#     4   9  19  38  64  90 125 170 222 267 323 395
#     4  10  21  41  67  93 130 180 222 273 329 398
#     4  12  24  38  64  97 129 172 233 279 335 393
#
# _framework density 19.895686000000001
#
# number of rings (size 3 to 8) (size 9 to 14) (size 15 to 20)
#    0.000    1.545    1.818    4.364    2.545    3.273 
#    0.000    3.636    0.000    3.273    0.000    0.000 
#    0.000    0.000    0.000    0.000    0.000    0.000 
#
# Total GULP energy -491426.539599 kJ/mol
# GULP energy per Si atom -5584.392495 kJ/mol
# Density = 1.985040 g / cm^3
# Si number density = 19.895686 Si / 1000 Ang^3
#
#
#
# Elastic Constant Matrix: (Units=GPa)
#
#
# Indices 1 2 3 4 5 6 
#
# 1 119.2002 45.7299 41.9810 0.0000 0.0000 0.0000
# 2 45.7299 119.2002 41.9810 0.0000 0.0000 0.0000
# 3 41.9810 41.9810 113.0992 0.0000 0.0000 0.0000
# 4 0.0000 0.0000 0.0000 0.2424 0.0000 0.0000
# 5 0.0000 0.0000 0.0000 0.0000 0.2424 0.0000
# 6 0.0000 0.0000 0.0000 0.0000 0.0000 9.9032
#
#
#
# Elastic Compliance Matrix: (Units=1/GPa)
#
#
# Indices 1 2 3 4 5 6 
#
# 1 0.010543 -0.003068 -0.002775 0.000000 0.000000 0.000000
# 2 -0.003068 0.010543 -0.002775 0.000000 0.000000 0.000000
# 3 -0.002775 -0.002775 0.010902 0.000000 0.000000 0.000000
# 4 0.000000 0.000000 0.000000 4.125564 0.000000 0.000000
# 5 0.000000 0.000000 0.000000 0.000000 4.125564 0.000000
# 6 0.000000 0.000000 0.000000 0.000000 0.000000 0.100977
#
#
# Mechanical properties :
#
#
# Convention : Reuss Voigt Hill
#
# Bulk Modulus (GPa) = 67.77931 67.87591 67.82761
# Shear Modulus (GPa) = 0.59480 16.86479 8.72979
#
# Velocity S-wave (km/s) = 0.54736 2.91462 2.09698
# Velocity P-wave (km/s) = 5.87714 6.74660 6.32682
#
# Compressibility (1/GPa) = 0.01475376
#
# Stress axis : x y z
#
# Youngs Moduli (GPa) = 94.84622 94.84622 91.72764
#
# Poissons Ratio (x) = 0.29095 0.25454
# Poissons Ratio (y) = 0.29095 0.25454
# Poissons Ratio (z) = 0.26319 0.26319
#
# Static dielectric constant tensor:
#      x y z
#    x 1.707700 0.000000 0.000000 
#    y 0.000000 1.707700 0.000000 
#    z 0.000000 0.000000 1.750070 
# 
# From -- ./inp_files/3233.got.cif
#   From: 2010.05.17/outbox.cif.g08.bks.cpg/sg124_2_cif.got.tgz:3233.got - 2010.05.20 11:49:17.
