data_PCOD9562150
_publ_section_title
;
Structure prediction by ZEFSAII (Michael W. Deem and Ramdas Pophale) SiO2 
 PCOD9562150
Probable space group: P 4/M M M
;
_chemical_formula_sum "Si O2"
_cell_formula_units_Z 42
_cell_length_a 12.434621
_cell_length_b 12.434621
_cell_length_c 17.360261
_cell_angle_alpha 90.000000
_cell_angle_beta 90.000000
_cell_angle_gamma 90.000000
_cell_volume 2684.240074
_symmetry_space_group_name_H-M "P 4/M M M"
_symmetry_group_IT_number 123
_symmetry_cell_setting 'tetragonal'
loop_
_space_group_symop_operation_xyz
x,y,z
-y,x,z
-x,-y,z
y,-x,z
x,-y,-z
-x,y,-z
y,x,-z
-y,-x,-z
-x,-y,-z
y,-x,-z
x,y,-z
-y,x,-z
-x,y,z
x,-y,z
-y,-x,z
y,x,z
loop_
_atom_site_type_symbol
_atom_site_label
_atom_site_fract_x
_atom_site_fract_y
_atom_site_fract_z
Si Si1 0.000000 0.258991 0.248196
Si Si2 0.000000 0.000000 0.220162
Si Si3 0.000000 0.182401 0.586193
Si Si4 0.375076 0.199083 0.833210
Si Si5 0.872216 0.697540 0.000000
O O1 0.000000 0.259453 0.341025
O O2 0.104537 0.317637 0.214565
O O3 0.000000 0.133587 0.223653
O O4 0.102555 0.102555 0.592852
O O5 0.000000 0.229122 0.500000
O O6 0.500000 0.208427 0.813762
O O7 0.308217 0.308217 0.821609
O O8 0.362120 0.165712 0.922931
O O9 0.813199 0.813199 0.000000
O O10 0.000000 0.708698 0.000000
#
# Coordination Sequence:
#
# PCOD9562150 Si02
#       5
#     8   2   8  16   8
#     4  12  19  33  53  82 110 139 170 206 260 318
#     4  12  20  32  53  81 120 136 158 220 248 317
#     4   9  15  26  46  74 108 143 170 196 243 310
#     4  11  23  37  55  75 102 139 181 224 267 308
#     4  10  21  36  50  76 104 138 177 216 259 311
#
# _framework density 15.646888000000001
#
# number of rings (size 3 to 8) (size 9 to 14) (size 15 to 20)
#    0.000    1.333    5.714    1.714    0.000    1.333 
#    0.000    0.000    0.000    5.714    0.000    0.000 
#    0.000    0.000    0.000    8.000    0.000    0.000 
#
# Total GULP energy -233905.437262 kJ/mol
# GULP energy per Si atom -5569.177078 kJ/mol
# Density = 1.561127 g / cm^3
# Si number density = 15.646888 Si / 1000 Ang^3
#
#
#
# Elastic Constant Matrix: (Units=GPa)
#
#
# Indices 1 2 3 4 5 6 
#
# 1 143.6883 66.3491 38.8249 0.0000 0.0000 0.0000
# 2 66.3491 143.6883 38.8249 0.0000 0.0000 0.0000
# 3 38.8249 38.8249 121.5838 0.0000 0.0000 0.0000
# 4 0.0000 0.0000 0.0000 -1.8396 0.0000 0.0000
# 5 0.0000 0.0000 0.0000 0.0000 -1.8396 0.0000
# 6 0.0000 0.0000 0.0000 0.0000 0.0000 8.5586
#
#
#
# Elastic Compliance Matrix: (Units=1/GPa)
#
#
# Indices 1 2 3 4 5 6 
#
# 1 0.009164 -0.003766 -0.001724 0.000000 0.000000 0.000000
# 2 -0.003766 0.009164 -0.001724 0.000000 0.000000 0.000000
# 3 -0.001724 -0.001724 0.009326 0.000000 0.000000 0.000000
# 4 0.000000 0.000000 0.000000 -0.543592 0.000000 0.000000
# 5 0.000000 0.000000 0.000000 0.000000 -0.543592 0.000000
# 6 0.000000 0.000000 0.000000 0.000000 0.000000 0.116842
#
#
# Mechanical properties :
#
#
# Convention : Reuss Voigt Hill
#
# Bulk Modulus (GPa) = 75.60251 77.43979 76.52115
# Shear Modulus (GPa) = -5.41213 18.63996 6.61392
#
# Velocity S-wave (km/s) = -1.86183 3.45525 2.05819
# Velocity P-wave (km/s) = 6.61823 8.09431 7.39320
#
# Compressibility (1/GPa) = 0.01322707
#
# Stress axis : x y z
#
# Youngs Moduli (GPa) = 109.12022 109.12022 107.23046
#
# Poissons Ratio (x) = 0.41093 0.18485
# Poissons Ratio (y) = 0.41093 0.18485
# Poissons Ratio (z) = 0.18811 0.18811
#
# Static dielectric constant tensor:
#      x y z
#    x 1.504300 0.000000 0.000000 
#    y 0.000000 1.504300 0.000000 
#    z 0.000000 0.000000 1.547390 
# 
# From -- ./inp_files/4795.got.cif
#   From: 2010.05.17/outbox.cif.g08.bks.cpg/sg123_3_cif.got.tgz:4795.got - 2010.05.20 11:43:04.
