data_PCOD9562588
_publ_section_title
;
Structure prediction by ZEFSAII (Michael W. Deem and Ramdas Pophale) SiO2 
 PCOD9562588
Probable space group: P 4/M C C
;
_chemical_formula_sum "Si O2"
_cell_formula_units_Z 96
_cell_length_a 23.646609
_cell_length_b 23.646609
_cell_length_c 9.491712
_cell_angle_alpha 90.000000
_cell_angle_beta 90.000000
_cell_angle_gamma 90.000000
_cell_volume 5307.405778
_symmetry_space_group_name_H-M "P 4/M C C"
_symmetry_group_IT_number 124
_symmetry_cell_setting 'tetragonal'
loop_
_space_group_symop_operation_xyz
x,y,z
-y,x,z
-x,-y,z
y,-x,z
x,-y,1/2-z
-x,y,1/2-z
y,x,1/2-z
-y,-x,1/2-z
-x,-y,-z
y,-x,-z
x,y,-z
-y,x,-z
-x,y,1/2+z
x,-y,1/2+z
-y,-x,1/2+z
y,x,1/2+z
loop_
_atom_site_type_symbol
_atom_site_label
_atom_site_fract_x
_atom_site_fract_y
_atom_site_fract_z
Si Si1 0.232135 0.845981 0.662946
Si Si2 0.434699 0.336436 0.500000
Si Si3 0.719093 0.628572 0.743204
Si Si4 0.058366 0.438832 0.825527
Si Si5 0.942878 0.861665 0.667067
Si Si6 0.149257 0.637777 0.830591
Si Si7 0.568581 0.349188 0.500000
O O1 0.204765 0.795236 0.750000
O O2 0.232395 0.828580 0.500000
O O3 0.190759 0.899563 0.678131
O O4 0.296040 0.861697 0.699325
O O5 0.408214 0.299772 0.624808
O O6 0.501624 0.344063 0.500000
O O7 0.409590 0.400266 0.500000
O O8 0.691443 0.691443 0.750000
O O9 0.784998 0.628629 0.708259
O O10 0.684397 0.595433 0.627156
O O11 0.067123 0.500000 0.750000
O O12 0.108943 0.399707 0.768096
O O13 0.000000 0.418162 0.750000
O O14 0.054959 0.441751 0.000000
O O15 0.913238 0.913238 0.750000
O O16 0.951472 0.873407 0.500000
O O17 0.000000 0.848388 0.750000
O O18 0.140826 0.627116 0.000000
#
# Coordination Sequence:
#
# PCOD9562588 Si02
#       7
#    16   8  16  16  16  16   8
#     4   9  20  37  58  84 118 155 193 242 295 349
#     4  10  22  35  60  80 119 151 209 245 314 364
#     4  10  21  38  58  83 122 159 198 251 311 364
#     4  11  24  44  66  89 119 155 193 240 295 349
#     4  10  20  36  57  83 116 154 197 242 293 344
#     4  11  22  39  61  90 120 156 200 243 297 359
#     4  10  20  39  54  86 111 163 193 259 304 364
#
# _framework density 18.087933
#
# number of rings (size 3 to 8) (size 9 to 14) (size 15 to 20)
#    0.000    1.833    0.833    3.500    1.167    3.667 
#    0.000    2.500    0.000    3.000    0.000    0.000 
#    0.000    0.000    0.000    0.000    0.000    0.000 
#
# Total GULP energy -534877.754951 kJ/mol
# GULP energy per Si atom -5571.643281 kJ/mol
# Density = 1.804676 g / cm^3
# Si number density = 18.087933 Si / 1000 Ang^3
#
#
#
# Elastic Constant Matrix: (Units=GPa)
#
#
# Indices 1 2 3 4 5 6 
#
# 1 91.6126 51.3794 49.2174 0.0000 0.0000 0.0000
# 2 51.3794 91.6164 49.2153 0.0000 0.0000 0.0000
# 3 49.2174 49.2153 148.2124 0.0000 0.0000 0.0000
# 4 0.0000 0.0000 0.0000 31.3935 0.0000 0.0000
# 5 0.0000 0.0000 0.0000 0.0000 31.3934 0.0000
# 6 0.0000 0.0000 0.0000 0.0000 0.0000 18.0077
#
#
#
# Elastic Compliance Matrix: (Units=1/GPa)
#
#
# Indices 1 2 3 4 5 6 
#
# 1 0.016960 -0.007894 -0.003011 0.000000 0.000000 0.000000
# 2 -0.007894 0.016959 -0.003010 0.000000 0.000000 0.000000
# 3 -0.003011 -0.003010 0.008746 0.000000 0.000000 0.000000
# 4 0.000000 0.000000 0.000000 0.031854 0.000000 0.000000
# 5 0.000000 0.000000 0.000000 0.000000 0.031854 0.000000
# 6 0.000000 0.000000 0.000000 0.000000 0.000000 0.055532
#
#
# Mechanical properties :
#
#
# Convention : Reuss Voigt Hill
#
# Bulk Modulus (GPa) = 67.40363 70.11840 68.76101
# Shear Modulus (GPa) = 25.68312 28.26753 26.97532
#
# Velocity S-wave (km/s) = 3.77225 3.95749 3.86598
# Velocity P-wave (km/s) = 7.50456 7.72864 7.61742
#
# Compressibility (1/GPa) = 0.01483600
#
# Stress axis : x y z
#
# Youngs Moduli (GPa) = 58.96118 58.96525 114.33336
#
# Poissons Ratio (x) = 0.46548 0.34423
# Poissons Ratio (y) = 0.46545 0.34414
# Poissons Ratio (z) = 0.17752 0.17748
#
# Static dielectric constant tensor:
#      x y z
#    x 1.605570 0.000000 0.000000 
#    y 0.000000 1.605570 0.000000 
#    z 0.000000 0.000000 1.606050 
# 
# From -- ./inp_files/1424.got.cif
#   From: 2010.05.17/outbox.cif.g08.bks.cpg/sg124_1_cif.got.tgz:1424.got - 2010.05.20 11:49:17.
