data_PCOD9562519
_publ_section_title
;
Structure prediction by ZEFSAII (Michael W. Deem and Ramdas Pophale) SiO2 
 PCOD9562519
Probable space group: P 4/M C C
;
_chemical_formula_sum "Si O2"
_cell_formula_units_Z 64
_cell_length_a 22.136569
_cell_length_b 22.136569
_cell_length_c 8.833989
_cell_angle_alpha 90.000000
_cell_angle_beta 90.000000
_cell_angle_gamma 90.000000
_cell_volume 4328.899197
_symmetry_space_group_name_H-M "P 4/M C C"
_symmetry_group_IT_number 124
_symmetry_cell_setting 'tetragonal'
loop_
_space_group_symop_operation_xyz
x,y,z
-y,x,z
-x,-y,z
y,-x,z
x,-y,1/2-z
-x,y,1/2-z
y,x,1/2-z
-y,-x,1/2-z
-x,-y,-z
y,-x,-z
x,y,-z
-y,x,-z
-x,y,1/2+z
x,-y,1/2+z
-y,-x,1/2+z
y,x,1/2+z
loop_
_atom_site_type_symbol
_atom_site_label
_atom_site_fract_x
_atom_site_fract_y
_atom_site_fract_z
Si Si1 0.742684 0.345622 0.674962
Si Si2 0.758993 0.154123 0.827158
Si Si3 0.433268 0.835111 0.681296
Si Si4 0.341650 0.933374 0.184026
O O1 0.683559 0.316442 0.750000
O O2 0.732737 0.362429 0.500000
O O3 0.793077 0.292078 0.675325
O O4 0.773682 0.399471 0.767265
O O5 0.817545 0.182456 0.750000
O O6 0.722387 0.096551 0.765621
O O7 0.774414 0.141343 0.000000
O O8 0.500000 0.836866 0.750000
O O9 0.434268 0.839733 0.500000
O O10 0.393890 0.889778 0.751838
O O11 0.348187 0.000000 0.250000
O O12 0.343854 0.932776 0.000000
#
# Coordination Sequence:
#
# PCOD9562519 Si02
#       4
#    16  16  16  16
#     4   9  16  28  45  66  88 112 143 181 224 269
#     4   8  15  26  42  62  84 107 137 175 217 261
#     4  11  21  33  47  64  88 120 154 190 226 264
#     4  10  20  33  46  64  88 117 152 188 222 264
#
# _framework density 14.784357999999999
#
# number of rings (size 3 to 8) (size 9 to 14) (size 15 to 20)
#    0.000    2.500    0.000    5.250    0.000    7.500 
#    0.000    2.500    0.000    0.000    0.000    0.000 
#    0.000    1.000    0.000   10.500    0.000    7.500 
#
# Total GULP energy -356426.733657 kJ/mol
# GULP energy per Si atom -5569.167713 kJ/mol
# Density = 1.475071 g / cm^3
# Si number density = 14.784358 Si / 1000 Ang^3
#
#
#
# Elastic Constant Matrix: (Units=GPa)
#
#
# Indices 1 2 3 4 5 6 
#
# 1 73.8684 76.6740 46.7881 0.0000 0.0000 0.0000
# 2 76.6740 73.8686 46.7883 0.0000 0.0000 0.0000
# 3 46.7881 46.7883 104.4676 0.0000 0.0000 0.0000
# 4 0.0000 0.0000 0.0000 20.5326 0.0000 0.0000
# 5 0.0000 0.0000 0.0000 0.0000 20.5322 0.0000
# 6 0.0000 0.0000 0.0000 0.0000 0.0000 14.9510
#
#
#
# Elastic Compliance Matrix: (Units=1/GPa)
#
#
# Indices 1 2 3 4 5 6 
#
# 1 -0.173618 0.182823 -0.004123 0.000000 0.000000 0.000000
# 2 0.182823 -0.173618 -0.004123 0.000000 0.000000 0.000000
# 3 -0.004123 -0.004123 0.013265 0.000000 0.000000 0.000000
# 4 0.000000 0.000000 0.000000 0.048703 0.000000 0.000000
# 5 0.000000 0.000000 0.000000 0.000000 0.048704 0.000000
# 6 0.000000 0.000000 0.000000 0.000000 0.000000 0.066885
#
#
# Mechanical properties :
#
#
# Convention : Reuss Voigt Hill
#
# Bulk Modulus (GPa) = 65.85549 65.85615 65.85582
# Shear Modulus (GPa) = -9.73196 16.66677 3.46740
#
# Velocity S-wave (km/s) = -2.56844 3.36121 1.53310
# Velocity P-wave (km/s) = 5.98706 7.72689 6.91193
#
# Compressibility (1/GPa) = 0.01518476
#
# Stress axis : x y z
#
# Youngs Moduli (GPa) = -5.75977 -5.75979 75.38430
#
# Poissons Ratio (x) = 1.05302 0.31082
# Poissons Ratio (y) = 1.05302 0.31078
# Poissons Ratio (z) = -0.02375 -0.02375
#
# Static dielectric constant tensor:
#      x y z
#    x 1.484600 0.000000 0.000000 
#    y 0.000000 1.484600 0.000000 
#    z 0.000000 0.000000 1.502260 
# 
# From -- ./inp_files/853.got.cif
#   From: 2010.05.17/outbox.cif.g08.bks.cpg/sg124_1_cif.got.tgz:853.got - 2010.05.20 11:49:17.
