data_PCOD9562323
_publ_section_title
;
Structure prediction by ZEFSAII (Michael W. Deem and Ramdas Pophale) SiO2 
 PCOD9562323
Probable space group: P 4/M C C
;
_chemical_formula_sum "Si O2"
_cell_formula_units_Z 112
_cell_length_a 18.175713
_cell_length_b 18.175713
_cell_length_c 18.420258
_cell_angle_alpha 90.000000
_cell_angle_beta 90.000000
_cell_angle_gamma 90.000000
_cell_volume 6085.252755
_symmetry_space_group_name_H-M "P 4/M C C"
_symmetry_group_IT_number 124
_symmetry_cell_setting 'tetragonal'
loop_
_space_group_symop_operation_xyz
x,y,z
-y,x,z
-x,-y,z
y,-x,z
x,-y,1/2-z
-x,y,1/2-z
y,x,1/2-z
-y,-x,1/2-z
-x,-y,-z
y,-x,-z
x,y,-z
-y,x,-z
-x,y,1/2+z
x,-y,1/2+z
-y,-x,1/2+z
y,x,1/2+z
loop_
_atom_site_type_symbol
_atom_site_label
_atom_site_fract_x
_atom_site_fract_y
_atom_site_fract_z
Si Si1 0.341856 0.171131 0.701483
Si Si2 0.083241 0.518659 0.336246
Si Si3 0.717635 0.037283 0.582601
Si Si4 0.854984 0.140584 0.421315
Si Si5 0.617745 0.169582 0.637386
Si Si6 0.274769 0.262619 0.419814
Si Si7 0.215834 0.934990 0.806875
O O1 0.398672 0.114003 0.663847
O O2 0.375954 0.192780 0.778581
O O3 0.325602 0.237523 0.646590
O O4 0.264724 0.131574 0.723906
O O5 0.081278 0.500000 0.250000
O O6 0.142638 0.465423 0.374628
O O7 0.000000 0.500000 0.362673
O O8 0.693279 0.024810 0.500000
O O9 0.798475 0.073891 0.580844
O O10 0.664018 0.094745 0.621826
O O11 0.731341 0.966050 0.629706
O O12 0.894154 0.141040 0.500000
O O13 0.801015 0.211628 0.419858
O O14 0.904694 0.145780 0.350139
O O15 0.660453 0.232084 0.592669
O O16 0.309088 0.262092 0.500000
O O17 0.203438 0.000000 0.750000
#
# Coordination Sequence:
#
# PCOD9562323 Si02
#       7
#    16  16  16  16  16  16  16
#     4  10  19  31  48  72 101 130 166 205 244 293
#     4   9  18  29  47  71 108 142 169 202 245 302
#     4  10  19  31  48  66  89 120 155 197 243 291
#     4   8  17  31  44  62  88 116 149 197 250 287
#     4  10  17  31  50  71  93 130 171 203 239 291
#     4   9  18  32  49  67  93 125 164 213 253 284
#     4  11  19  28  46  69  92 118 158 195 238 287
#
# _framework density 18.405152000000001
#
# number of rings (size 3 to 8) (size 9 to 14) (size 15 to 20)
#    0.000    2.429    1.429    3.000    2.000    1.143 
#    0.000    1.429    0.000    3.429    0.000    3.000 
#    0.000    0.571    0.000    6.571    0.000    2.571 
#
# Total GULP energy -623884.819306 kJ/mol
# GULP energy per Si atom -5570.400172 kJ/mol
# Density = 1.836326 g / cm^3
# Si number density = 18.405152 Si / 1000 Ang^3
#
#
#
# Elastic Constant Matrix: (Units=GPa)
#
#
# Indices 1 2 3 4 5 6 
#
# 1 36.7472 18.5644 12.3498 0.0000 0.0000 0.0000
# 2 18.5644 36.7472 12.3498 0.0000 0.0000 0.0000
# 3 12.3498 12.3498 73.3664 0.0000 0.0000 0.0000
# 4 0.0000 0.0000 0.0000 9.1813 0.0000 0.0000
# 5 0.0000 0.0000 0.0000 0.0000 9.1813 0.0000
# 6 0.0000 0.0000 0.0000 0.0000 0.0000 18.6576
#
#
#
# Elastic Compliance Matrix: (Units=1/GPa)
#
#
# Indices 1 2 3 4 5 6 
#
# 1 0.037273 -0.017724 -0.003291 0.000000 0.000000 0.000000
# 2 -0.017724 0.037273 -0.003291 0.000000 0.000000 0.000000
# 3 -0.003291 -0.003291 0.014738 0.000000 0.000000 0.000000
# 4 0.000000 0.000000 0.000000 0.108916 0.000000 0.000000
# 5 0.000000 0.000000 0.000000 0.000000 0.108916 0.000000
# 6 0.000000 0.000000 0.000000 0.000000 0.000000 0.053598
#
#
# Mechanical properties :
#
#
# Convention : Reuss Voigt Hill
#
# Bulk Modulus (GPa) = 24.58627 25.93209 25.25918
# Shear Modulus (GPa) = 11.82359 14.31050 13.06704
#
# Velocity S-wave (km/s) = 2.53732 2.79144 2.66741
# Velocity P-wave (km/s) = 4.68736 4.95073 4.82084
#
# Compressibility (1/GPa) = 0.04067310
#
# Stress axis : x y z
#
# Youngs Moduli (GPa) = 26.82905 26.82905 67.85158
#
# Poissons Ratio (x) = 0.47552 0.22328
# Poissons Ratio (y) = 0.47552 0.22328
# Poissons Ratio (z) = 0.08829 0.08829
#
# Static dielectric constant tensor:
#      x y z
#    x 1.654580 0.000000 0.000000 
#    y 0.000000 1.654580 0.000000 
#    z 0.000000 0.000000 1.688330 
# 
# From -- ./inp_files/4504.got.cif
#   From: 2010.05.17/outbox.cif.g08.bks.cpg/sg124_3_cif.got.tgz:4504.got - 2010.05.20 11:49:17.
