data_PCOD9562203
_publ_section_title
;
Structure prediction by ZEFSAII (Michael W. Deem and Ramdas Pophale) SiO2 
 PCOD9562203
Probable space group: P 4/M M M
;
_chemical_formula_sum "Si O2"
_cell_formula_units_Z 72
_cell_length_a 21.281233
_cell_length_b 21.281233
_cell_length_c 8.195535
_cell_angle_alpha 90.000000
_cell_angle_beta 90.000000
_cell_angle_gamma 90.000000
_cell_volume 3711.683042
_symmetry_space_group_name_H-M "P 4/M M M"
_symmetry_group_IT_number 123
_symmetry_cell_setting 'tetragonal'
loop_
_space_group_symop_operation_xyz
x,y,z
-y,x,z
-x,-y,z
y,-x,z
x,-y,-z
-x,y,-z
y,x,-z
-y,-x,-z
-x,-y,-z
y,-x,-z
x,y,-z
-y,x,-z
-x,y,z
x,-y,z
-y,-x,z
y,x,z
loop_
_atom_site_type_symbol
_atom_site_label
_atom_site_fract_x
_atom_site_fract_y
_atom_site_fract_z
Si Si1 0.074198 0.500000 0.194952
Si Si2 0.429906 0.673151 0.803156
Si Si3 0.164040 0.265327 0.696531
Si Si4 0.183170 0.406198 0.303951
Si Si5 0.930301 0.170225 0.803413
O O1 0.120615 0.443012 0.247565
O O2 0.000000 0.500000 0.254144
O O3 0.070351 0.500000 0.000000
O O4 0.500000 0.650489 0.752799
O O5 0.372733 0.627268 0.744794
O O6 0.425874 0.746738 0.752410
O O7 0.427582 0.671954 0.000000
O O8 0.165703 0.265320 0.500000
O O9 0.218482 0.218482 0.756545
O O10 0.175523 0.334993 0.754076
O O11 0.098709 0.236363 0.753229
O O12 0.183816 0.409848 0.500000
O O13 0.883141 0.116859 0.741035
O O14 0.000000 0.161034 0.741320
O O15 0.931061 0.166731 0.000000
#
# Coordination Sequence:
#
# PCOD9562203 Si02
#       5
#     8  16  16  16  16
#     4  11  25  43  61  83 114 151 190 235 289 352
#     4  10  21  37  59  88 123 163 203 244 293 350
#     4   9  19  35  54  78 108 141 178 222 273 328
#     4  11  22  38  61  86 114 150 192 240 292 347
#     4   9  18  32  50  74 104 138 178 224 274 329
#
# _framework density 19.398208
#
# number of rings (size 3 to 8) (size 9 to 14) (size 15 to 20)
#    0.000    2.111    1.111    1.667    0.000    5.778 
#    0.000    8.889    0.000    0.000    0.000    4.667 
#    0.000    0.000    0.000    0.000    0.000    0.000 
#
# Total GULP energy -401191.178476 kJ/mol
# GULP energy per Si atom -5572.099701 kJ/mol
# Density = 1.935406 g / cm^3
# Si number density = 19.398208 Si / 1000 Ang^3
#
#
#
# Elastic Constant Matrix: (Units=GPa)
#
#
# Indices 1 2 3 4 5 6 
#
# 1 149.0897 66.9702 14.3062 0.0000 0.0000 0.0000
# 2 66.9702 149.0897 14.3062 0.0000 0.0000 0.0000
# 3 14.3062 14.3062 17.4638 0.0000 0.0000 0.0000
# 4 0.0000 0.0000 0.0000 24.1754 0.0000 0.0000
# 5 0.0000 0.0000 0.0000 0.0000 24.1754 0.0000
# 6 0.0000 0.0000 0.0000 0.0000 0.0000 13.3885
#
#
#
# Elastic Compliance Matrix: (Units=1/GPa)
#
#
# Indices 1 2 3 4 5 6 
#
# 1 0.008684 -0.003493 -0.004253 0.000000 0.000000 0.000000
# 2 -0.003493 0.008684 -0.004253 0.000000 0.000000 0.000000
# 3 -0.004253 -0.004253 0.064229 0.000000 0.000000 0.000000
# 4 0.000000 0.000000 0.000000 0.041364 0.000000 0.000000
# 5 0.000000 0.000000 0.000000 0.000000 0.041364 0.000000
# 6 0.000000 0.000000 0.000000 0.000000 0.000000 0.074691
#
#
# Mechanical properties :
#
#
# Convention : Reuss Voigt Hill
#
# Bulk Modulus (GPa) = 17.36090 56.31206 36.83648
# Shear Modulus (GPa) = 17.71696 27.01854 22.36775
#
# Velocity S-wave (km/s) = 3.02541 3.73612 3.39939
# Velocity P-wave (km/s) = 4.60145 6.90681 5.86845
#
# Compressibility (1/GPa) = 0.05760069
#
# Stress axis : x y z
#
# Youngs Moduli (GPa) = 115.14815 115.14815 15.56927
#
# Poissons Ratio (x) = 0.40220 0.06621
# Poissons Ratio (y) = 0.40220 0.06621
# Poissons Ratio (z) = 0.48971 0.48971
#
# Static dielectric constant tensor:
#      x y z
#    x 1.691560 0.000000 0.000000 
#    y 0.000000 1.691560 0.000000 
#    z 0.000000 0.000000 1.678260 
# 
# From -- ./inp_files/1086.got.cif
#   From: 2010.05.17/outbox.cif.g08.bks.cpg/sg123_1_cif.got.tgz:1086.got - 2010.05.20 11:43:04.
