data_PCOD9562443
_publ_section_title
;
Structure prediction by ZEFSAII (Michael W. Deem and Ramdas Pophale) SiO2 
 PCOD9562443
Probable space group: P 4/M C C
;
_chemical_formula_sum "Si O2"
_cell_formula_units_Z 96
_cell_length_a 24.006042
_cell_length_b 24.006042
_cell_length_c 9.193255
_cell_angle_alpha 90.000000
_cell_angle_beta 90.000000
_cell_angle_gamma 90.000000
_cell_volume 5297.981407
_symmetry_space_group_name_H-M "P 4/M C C"
_symmetry_group_IT_number 124
_symmetry_cell_setting 'tetragonal'
loop_
_space_group_symop_operation_xyz
x,y,z
-y,x,z
-x,-y,z
y,-x,z
x,-y,1/2-z
-x,y,1/2-z
y,x,1/2-z
-y,-x,1/2-z
-x,-y,-z
y,-x,-z
x,y,-z
-y,x,-z
-x,y,1/2+z
x,-y,1/2+z
-y,-x,1/2+z
y,x,1/2+z
loop_
_atom_site_type_symbol
_atom_site_label
_atom_site_fract_x
_atom_site_fract_y
_atom_site_fract_z
Si Si1 0.445213 0.921247 0.665655
Si Si2 0.786757 0.556230 0.666752
Si Si3 0.855207 0.061302 0.822479
Si Si4 0.248344 0.144232 0.335989
Si Si5 0.953069 0.664513 0.161937
Si Si6 0.682791 0.238528 0.675097
O O1 0.500000 0.938807 0.750000
O O2 0.446275 0.940354 0.500000
O O3 0.444439 0.854022 0.665788
O O4 0.390923 0.940676 0.749655
O O5 0.768588 0.500000 0.750000
O O6 0.767403 0.552157 0.500000
O O7 0.771555 0.618380 0.721582
O O8 0.909428 0.090573 0.750000
O O9 0.804613 0.105801 0.793287
O O10 0.846474 0.000000 0.750000
O O11 0.859277 0.056374 0.000000
O O12 0.237628 0.167060 0.500000
O O13 0.298850 0.101179 0.346306
O O14 0.274171 0.190550 0.229757
O O15 0.000000 0.697190 0.250000
O O16 0.972472 0.652165 0.000000
O O17 0.705982 0.294019 0.750000
O O18 0.684003 0.240419 0.500000
#
# Coordination Sequence:
#
# PCOD9562443 Si02
#       6
#    16  16  16  16  16  16
#     4  10  19  34  52  73 100 135 180 230 280 328
#     4   9  19  34  54  79 109 147 189 231 278 328
#     4  11  24  43  65  90 115 143 178 221 274 336
#     4  10  22  39  59  84 113 147 184 223 275 332
#     4  11  22  35  52  75 103 139 183 230 278 330
#     4  11  22  36  56  86 119 153 191 232 277 327
#
# _framework density 18.120108999999999
#
# number of rings (size 3 to 8) (size 9 to 14) (size 15 to 20)
#    0.000    1.667    1.667    3.000    0.000    5.833 
#    0.000    2.500    0.000    0.000    0.000    0.000 
#    0.000    0.333    0.000    3.667    0.000    2.667 
#
# Total GULP energy -535377.141475 kJ/mol
# GULP energy per Si atom -5576.845224 kJ/mol
# Density = 1.807887 g / cm^3
# Si number density = 18.120109 Si / 1000 Ang^3
#
#
#
# Elastic Constant Matrix: (Units=GPa)
#
#
# Indices 1 2 3 4 5 6 
#
# 1 93.8463 56.3153 48.5616 0.0000 0.0000 0.0000
# 2 56.3153 93.8476 48.5623 0.0000 0.0000 0.0000
# 3 48.5616 48.5623 113.9243 0.0000 0.0000 0.0000
# 4 0.0000 0.0000 0.0000 25.4932 0.0000 0.0000
# 5 0.0000 0.0000 0.0000 0.0000 25.4933 0.0000
# 6 0.0000 0.0000 0.0000 0.0000 0.0000 23.6350
#
#
#
# Elastic Compliance Matrix: (Units=1/GPa)
#
#
# Indices 1 2 3 4 5 6 
#
# 1 0.017919 -0.008725 -0.003919 0.000000 0.000000 0.000000
# 2 -0.008725 0.017919 -0.003919 0.000000 0.000000 0.000000
# 3 -0.003919 -0.003919 0.012119 0.000000 0.000000 0.000000
# 4 0.000000 0.000000 0.000000 0.039226 0.000000 0.000000
# 5 0.000000 0.000000 0.000000 0.000000 0.039226 0.000000
# 6 0.000000 0.000000 0.000000 0.000000 0.000000 0.042310
#
#
# Mechanical properties :
#
#
# Convention : Reuss Voigt Hill
#
# Bulk Modulus (GPa) = 67.42706 67.61073 67.51889
# Shear Modulus (GPa) = 24.17908 24.80290 24.49099
#
# Velocity S-wave (km/s) = 3.65688 3.70375 3.68039
# Velocity P-wave (km/s) = 7.42444 7.46216 7.44333
#
# Compressibility (1/GPa) = 0.01483084
#
# Stress axis : x y z
#
# Youngs Moduli (GPa) = 55.80551 55.80604 82.51481
#
# Poissons Ratio (x) = 0.48690 0.32339
# Poissons Ratio (y) = 0.48690 0.32340
# Poissons Ratio (z) = 0.21871 0.21872
#
# Static dielectric constant tensor:
#      x y z
#    x 1.636680 0.000000 0.000000 
#    y 0.000000 1.636680 0.000000 
#    z 0.000000 0.000000 1.652920 
# 
# From -- ./inp_files/1314.got.cif
#   From: 2010.05.17/outbox.cif.g08.bks.cpg/sg124_1_cif.got.tgz:1314.got - 2010.05.20 11:49:17.
