data_PCOD9562797
_publ_section_title
;
Structure prediction by ZEFSAII (Michael W. Deem and Ramdas Pophale) SiO2 
 PCOD9562797
Probable space group: P 4/M C C
;
_chemical_formula_sum "Si O2"
_cell_formula_units_Z 72
_cell_length_a 11.072434
_cell_length_b 11.072434
_cell_length_c 32.364593
_cell_angle_alpha 90.000000
_cell_angle_beta 90.000000
_cell_angle_gamma 90.000000
_cell_volume 3967.860092
_symmetry_space_group_name_H-M "P 4/M C C"
_symmetry_group_IT_number 124
_symmetry_cell_setting 'tetragonal'
loop_
_space_group_symop_operation_xyz
x,y,z
-y,x,z
-x,-y,z
y,-x,z
x,-y,1/2-z
-x,y,1/2-z
y,x,1/2-z
-y,-x,1/2-z
-x,-y,-z
y,-x,-z
x,y,-z
-y,x,-z
-x,y,1/2+z
x,-y,1/2+z
-y,-x,1/2+z
y,x,1/2+z
loop_
_atom_site_type_symbol
_atom_site_label
_atom_site_fract_x
_atom_site_fract_y
_atom_site_fract_z
Si Si1 0.649724 0.000001 0.662603
Si Si2 0.358405 0.641598 0.207084
Si Si3 0.356341 0.356342 0.952551
Si Si4 0.000000 0.792333 0.750000
Si Si5 0.247252 0.247250 0.372237
O O1 0.708550 0.886794 0.638747
O O2 0.500000 0.000000 0.663059
O O3 0.706353 1.000000 0.709191
O O4 0.708549 0.113209 0.638747
O O5 0.335504 0.500002 0.208913
O O6 0.305357 0.694644 0.250000
O O7 0.319122 0.680884 0.162725
O O8 0.499999 0.335838 0.947105
O O9 0.284253 0.284255 0.918105
O O10 0.325602 0.325604 0.000000
O O11 0.115486 0.884515 0.750000
#
# Coordination Sequence:
#
# PCOD9562797 Si02
#       5
#    16  16  16   8  16
#     4  12  26  41  63  91 122 169 222 269 321 375
#     4   9  18  32  51  77 110 147 188 243 313 371
#     4   9  18  36  65  96 124 157 200 260 335 401
#     4  11  23  46  66  86 127 181 224 264 310 359
#     4  12  24  40  57  87 124 164 208 264 309 377
#
# _framework density 18.145800000000001
#
# number of rings (size 3 to 8) (size 9 to 14) (size 15 to 20)
#    0.000    1.444    2.222    5.667    3.111    2.222 
#    0.000    1.111    0.000    4.000    0.000    1.556 
#    0.000    0.000    0.000    0.000    0.000    0.000 
#
# Total GULP energy -401165.673272 kJ/mol
# GULP energy per Si atom -5571.745462 kJ/mol
# Density = 1.810450 g / cm^3
# Si number density = 18.145800 Si / 1000 Ang^3
#
#
#
# Elastic Constant Matrix: (Units=GPa)
#
#
# Indices 1 2 3 4 5 6 
#
# 1 133.4608 61.0702 78.4925 0.0000 0.0000 0.0000
# 2 61.0702 133.4609 78.4924 0.0000 0.0000 0.0000
# 3 78.4925 78.4924 176.6630 0.0000 0.0000 0.0000
# 4 0.0000 0.0000 0.0000 23.5631 0.0000 0.0000
# 5 0.0000 0.0000 0.0000 0.0000 23.5625 0.0000
# 6 0.0000 0.0000 0.0000 0.0000 0.0000 23.9405
#
#
#
# Elastic Compliance Matrix: (Units=1/GPa)
#
#
# Indices 1 2 3 4 5 6 
#
# 1 0.010914 -0.002900 -0.003561 0.000000 0.000000 0.000000
# 2 -0.002900 0.010914 -0.003561 0.000000 0.000000 0.000000
# 3 -0.003561 -0.003561 0.008825 0.000000 0.000000 0.000000
# 4 0.000000 0.000000 0.000000 0.042439 0.000000 0.000000
# 5 0.000000 0.000000 0.000000 0.000000 0.042440 0.000000
# 6 0.000000 0.000000 0.000000 0.000000 0.000000 0.041770
#
#
# Mechanical properties :
#
#
# Convention : Reuss Voigt Hill
#
# Bulk Modulus (GPa) = 94.25186 97.74387 95.99786
# Shear Modulus (GPa) = 27.64239 29.24851 28.44545
#
# Velocity S-wave (km/s) = 3.90724 4.01915 3.96359
# Velocity P-wave (km/s) = 8.50938 8.69028 8.60031
#
# Compressibility (1/GPa) = 0.01060987
#
# Stress axis : x y z
#
# Youngs Moduli (GPa) = 91.62565 91.62574 113.32024
#
# Poissons Ratio (x) = 0.26571 0.40350
# Poissons Ratio (y) = 0.26571 0.40350
# Poissons Ratio (z) = 0.32625 0.32625
#
# Static dielectric constant tensor:
#      x y z
#    x 0.851540 0.000000 0.000000 
#    y 0.000000 0.851460 0.000000 
#    z 0.000000 0.000000 1.610950 
# 
# From -- ./inp_files/6851.got.cif
#   From: 2010.05.17/outbox.cif.g08.bks.cpg/sg124_4_cif.got.tgz:6851.got - 2010.05.20 11:49:17.
