data_PCOD9562585
_publ_section_title
;
Structure prediction by ZEFSAII (Michael W. Deem and Ramdas Pophale) SiO2 
 PCOD9562585
Probable space group: P 4/M C C
;
_chemical_formula_sum "Si O2"
_cell_formula_units_Z 96
_cell_length_a 14.421311
_cell_length_b 14.421311
_cell_length_c 21.181145
_cell_angle_alpha 90.000000
_cell_angle_beta 90.000000
_cell_angle_gamma 90.000000
_cell_volume 4405.131919
_symmetry_space_group_name_H-M "P 4/M C C"
_symmetry_group_IT_number 124
_symmetry_cell_setting 'tetragonal'
loop_
_space_group_symop_operation_xyz
x,y,z
-y,x,z
-x,-y,z
y,-x,z
x,-y,1/2-z
-x,y,1/2-z
y,x,1/2-z
-y,-x,1/2-z
-x,-y,-z
y,-x,-z
x,y,-z
-y,x,-z
-x,y,1/2+z
x,-y,1/2+z
-y,-x,1/2+z
y,x,1/2+z
loop_
_atom_site_type_symbol
_atom_site_label
_atom_site_fract_x
_atom_site_fract_y
_atom_site_fract_z
Si Si1 0.697905 0.775856 0.926983
Si Si2 0.456223 0.642772 0.423869
Si Si3 0.795086 0.297893 0.694456
Si Si4 0.953627 0.401662 0.685814
Si Si5 0.731949 0.996362 0.927439
Si Si6 0.860336 0.061719 0.828594
O O1 0.592305 0.742068 0.911605
O O2 0.755985 0.722909 0.874359
O O3 0.724625 0.884198 0.921897
O O4 0.715786 0.748645 0.000000
O O5 0.386686 0.559336 0.402121
O O6 0.462174 0.638115 0.500000
O O7 0.724056 0.275945 0.750000
O O8 0.844070 0.396818 0.698108
O O9 0.879996 0.223443 0.700956
O O10 0.000000 0.500000 0.677364
O O11 0.000000 0.363251 0.750000
O O12 0.970984 0.345196 0.622013
O O13 0.826017 0.044602 0.901380
O O14 0.716064 0.020975 0.000000
O O15 0.954387 0.117122 0.813777
#
# Coordination Sequence:
#
# PCOD9562585 Si02
#       6
#    16  16  16  16  16  16
#     4  10  20  36  56  83 119 155 188 236 304 365
#     4   8  15  30  55  86 114 143 187 242 295 351
#     4  11  23  38  63  88 119 153 203 260 304 362
#     4  10  23  42  62  82 115 162 206 251 306 368
#     4  10  21  37  58  87 125 159 198 252 303 363
#     4  10  21  37  57  86 116 157 202 253 307 353
#
# _framework density 21.792763000000001
#
# number of rings (size 3 to 8) (size 9 to 14) (size 15 to 20)
#    0.000    2.167    1.667    1.500    2.333    5.000 
#    0.000    3.333    0.000    0.000    0.000    1.167 
#    0.000    0.000    0.000    0.000    0.000    0.000 
#
# Total GULP energy -534551.736968 kJ/mol
# GULP energy per Si atom -5568.247260 kJ/mol
# Density = 2.174316 g / cm^3
# Si number density = 21.792763 Si / 1000 Ang^3
#
#
#
# Elastic Constant Matrix: (Units=GPa)
#
#
# Indices 1 2 3 4 5 6 
#
# 1 48.4823 24.1444 19.7265 0.0000 0.0000 0.0000
# 2 24.1444 48.4821 19.7263 0.0000 0.0000 0.0000
# 3 19.7265 19.7263 110.8641 0.0000 0.0000 0.0000
# 4 0.0000 0.0000 0.0000 20.7672 0.0000 0.0000
# 5 0.0000 0.0000 0.0000 0.0000 20.7669 0.0000
# 6 0.0000 0.0000 0.0000 0.0000 0.0000 27.9629
#
#
#
# Elastic Compliance Matrix: (Units=1/GPa)
#
#
# Indices 1 2 3 4 5 6 
#
# 1 0.028165 -0.012923 -0.002712 0.000000 0.000000 0.000000
# 2 -0.012923 0.028165 -0.002712 0.000000 0.000000 0.000000
# 3 -0.002712 -0.002712 0.009985 0.000000 0.000000 0.000000
# 4 0.000000 0.000000 0.000000 0.048153 0.000000 0.000000
# 5 0.000000 0.000000 0.000000 0.000000 0.048154 0.000000
# 6 0.000000 0.000000 0.000000 0.000000 0.000000 0.035762
#
#
# Mechanical properties :
#
#
# Convention : Reuss Voigt Hill
#
# Bulk Modulus (GPa) = 33.75932 37.22476 35.49204
# Shear Modulus (GPa) = 20.41213 23.51481 21.96347
#
# Velocity S-wave (km/s) = 3.06379 3.28841 3.17808
# Velocity P-wave (km/s) = 5.29532 5.61574 5.45788
#
# Compressibility (1/GPa) = 0.02962145
#
# Stress axis : x y z
#
# Youngs Moduli (GPa) = 35.50465 35.50459 100.14813
#
# Poissons Ratio (x) = 0.45883 0.27162
# Poissons Ratio (y) = 0.45883 0.27161
# Poissons Ratio (z) = 0.09629 0.09629
#
# Static dielectric constant tensor:
#      x y z
#    x 1.874160 0.000000 0.000000 
#    y 0.000000 1.874160 0.000000 
#    z 0.000000 0.000000 1.812170 
# 
# From -- ./inp_files/5273.got.cif
#   From: 2010.05.17/outbox.cif.g08.bks.cpg/sg124_3_cif.got.tgz:5273.got - 2010.05.20 11:49:17.
