data_PCOD9562712
_publ_section_title
;
Structure prediction by ZEFSAII (Michael W. Deem and Ramdas Pophale) SiO2 
 PCOD9562712
Probable space group: P 4/M C C
;
_chemical_formula_sum "Si O2"
_cell_formula_units_Z 72
_cell_length_a 14.460632
_cell_length_b 14.460632
_cell_length_c 15.281537
_cell_angle_alpha 90.000000
_cell_angle_beta 90.000000
_cell_angle_gamma 90.000000
_cell_volume 3195.520335
_symmetry_space_group_name_H-M "P 4/M C C"
_symmetry_group_IT_number 124
_symmetry_cell_setting 'tetragonal'
loop_
_space_group_symop_operation_xyz
x,y,z
-y,x,z
-x,-y,z
y,-x,z
x,-y,1/2-z
-x,y,1/2-z
y,x,1/2-z
-y,-x,1/2-z
-x,-y,-z
y,-x,-z
x,y,-z
-y,x,-z
-x,y,1/2+z
x,-y,1/2+z
-y,-x,1/2+z
y,x,1/2+z
loop_
_atom_site_type_symbol
_atom_site_label
_atom_site_fract_x
_atom_site_fract_y
_atom_site_fract_z
Si Si1 0.145343 0.960893 0.894251
Si Si2 0.649647 0.026141 0.849019
Si Si3 0.292698 0.292698 0.750000
Si Si4 0.541821 0.796525 0.342769
Si Si5 0.820918 0.349412 0.906504
O O1 0.109167 0.063476 0.870845
O O2 0.243530 0.944250 0.852114
O O3 0.155123 0.958305 0.000000
O O4 0.592635 0.114272 0.881476
O O5 0.624299 0.000000 0.750000
O O6 0.638256 0.931191 0.901673
O O7 0.384056 0.280429 0.688774
O O8 0.294391 0.210999 0.820750
O O9 0.500000 0.828241 0.250000
O O10 0.450662 0.773303 0.397656
O O11 0.796504 0.305877 0.000000
#
# Coordination Sequence:
#
# PCOD9562712 Si02
#       5
#    16  16   8  16  16
#     4   9  21  39  54  79 127 177 219 265 311 364
#     4  12  22  35  64  89 129 172 225 271 324 379
#     4  10  22  42  70  95 135 172 212 276 336 398
#     4  10  22  41  64  92 130 175 210 271 336 398
#     4  11  25  42  65 100 133 173 226 274 335 411
#
# _framework density 22.531541000000001
#
# number of rings (size 3 to 8) (size 9 to 14) (size 15 to 20)
#    0.000    1.556    4.444    2.000    3.111    4.444 
#    0.000    1.111    0.000   27.000    0.000   14.000 
#    0.000    0.000    0.000    0.000    0.000    0.000 
#
# Total GULP energy -402192.326082 kJ/mol
# GULP energy per Si atom -5586.004529 kJ/mol
# Density = 2.248026 g / cm^3
# Si number density = 22.531541 Si / 1000 Ang^3
#
#
#
# Elastic Constant Matrix: (Units=GPa)
#
#
# Indices 1 2 3 4 5 6 
#
# 1 76.9035 28.4140 6.8848 0.0000 0.0000 0.0000
# 2 28.4140 76.9035 6.8848 0.0000 0.0000 0.0000
# 3 6.8848 6.8848 95.0379 0.0000 0.0000 0.0000
# 4 0.0000 0.0000 0.0000 -13.8084 0.0000 0.0000
# 5 0.0000 0.0000 0.0000 0.0000 -13.8084 0.0000
# 6 0.0000 0.0000 0.0000 0.0000 0.0000 23.7970
#
#
#
# Elastic Compliance Matrix: (Units=1/GPa)
#
#
# Indices 1 2 3 4 5 6 
#
# 1 0.015104 -0.005519 -0.000694 0.000000 0.000000 0.000000
# 2 -0.005519 0.015104 -0.000694 0.000000 0.000000 0.000000
# 3 -0.000694 -0.000694 0.010623 0.000000 0.000000 0.000000
# 4 0.000000 0.000000 0.000000 -0.072420 0.000000 0.000000
# 5 0.000000 0.000000 0.000000 0.000000 -0.072420 0.000000
# 6 0.000000 0.000000 0.000000 0.000000 0.000000 0.042022
#
#
# Mechanical properties :
#
#
# Convention : Reuss Voigt Hill
#
# Bulk Modulus (GPa) = 37.01401 37.02357 37.01879
# Shear Modulus (GPa) = -127.66316 13.01346 -57.32485
#
# Velocity S-wave (km/s) = -7.53543 2.40587 -5.04948
# Velocity P-wave (km/s) = 7.69721 4.91784 4.18700
#
# Compressibility (1/GPa) = 0.02701680
#
# Stress axis : x y z
#
# Youngs Moduli (GPa) = 66.20561 66.20561 94.13775
#
# Poissons Ratio (x) = 0.36536 0.06537
# Poissons Ratio (y) = 0.36536 0.06537
# Poissons Ratio (z) = 0.04598 0.04598
#
# Static dielectric constant tensor:
#      x y z
#    x 1.873750 0.000000 0.000000 
#    y 0.000000 1.873750 0.000000 
#    z 0.000000 0.000000 1.842180 
# 
# From -- ./inp_files/4092.got.cif
#   From: 2010.05.17/outbox.cif.g08.bks.cpg/sg124_3_cif.got.tgz:4092.got - 2010.05.20 11:49:17.
