data_PCOD9562269
_publ_section_title
;
Structure prediction by ZEFSAII (Michael W. Deem and Ramdas Pophale) SiO2 
 PCOD9562269
Probable space group: P 4/M M M
;
_chemical_formula_sum "Si O2"
_cell_formula_units_Z 96
_cell_length_a 24.377845
_cell_length_b 24.377845
_cell_length_c 7.410989
_cell_angle_alpha 90.000000
_cell_angle_beta 90.000000
_cell_angle_gamma 90.000000
_cell_volume 4404.197554
_symmetry_space_group_name_H-M "P 4/M M M"
_symmetry_group_IT_number 123
_symmetry_cell_setting 'tetragonal'
loop_
_space_group_symop_operation_xyz
x,y,z
-y,x,z
-x,-y,z
y,-x,z
x,-y,-z
-x,y,-z
y,x,-z
-y,-x,-z
-x,-y,-z
y,-x,-z
x,y,-z
-y,x,-z
-x,y,z
x,-y,z
-y,-x,z
y,x,z
loop_
_atom_site_type_symbol
_atom_site_label
_atom_site_fract_x
_atom_site_fract_y
_atom_site_fract_z
Si Si1 0.437484 0.818548 0.284565
Si Si2 0.727212 0.059375 0.795127
Si Si3 0.146706 0.059851 0.282889
Si Si4 0.738094 0.177596 0.219331
Si Si5 0.563519 0.059715 0.784074
Si Si6 0.647254 0.268505 0.289761
O O1 0.439369 0.812019 0.500000
O O2 0.500000 0.819275 0.215032
O O3 0.412813 0.879955 0.256718
O O4 0.403744 0.766216 0.212365
O O5 0.793415 0.060423 0.801712
O O6 0.718322 0.118745 0.710253
O O7 0.712614 0.000000 0.713944
O O8 0.704732 0.059520 0.000000
O O9 0.154080 0.064728 0.500000
O O10 0.107825 0.107825 0.219072
O O11 0.121713 0.000000 0.248509
O O12 0.797784 0.202217 0.273597
O O13 0.694706 0.222735 0.278343
O O14 0.738305 0.174540 0.000000
O O15 0.500000 0.061504 0.719904
O O16 0.586065 0.000000 0.722045
O O17 0.562733 0.057245 0.000000
O O18 0.635346 0.280159 0.500000
O O19 0.676184 0.323817 0.213594
#
# Coordination Sequence:
#
# PCOD9562269 Si02
#       6
#    16  16  16  16  16  16
#     4   9  17  29  46  68  93 121 153 188 226 269
#     4   9  17  29  44  60  78 100 127 162 204 248
#     4   9  17  27  38  53  72  94 121 154 195 245
#     4   9  17  29  45  63  82 107 140 175 211 253
#     4   8  14  25  41  62  89 121 156 191 226 266
#     4   9  18  32  48  66  89 116 146 181 219 257
#
# _framework density 21.797385999999999
#
# number of rings (size 3 to 8) (size 9 to 14) (size 15 to 20)
#    0.000    3.167    0.000    1.000    0.000    2.833 
#    0.000    5.000    0.000    3.000    0.000    2.333 
#    0.000    0.333    0.000    4.667    0.000    0.000 
#
# Total GULP energy -534703.250343 kJ/mol
# GULP energy per Si atom -5569.825524 kJ/mol
# Density = 2.174777 g / cm^3
# Si number density = 21.797386 Si / 1000 Ang^3
#
#
#
# Elastic Constant Matrix: (Units=GPa)
#
#
# Indices 1 2 3 4 5 6 
#
# 1 99.5780 48.9264 0.7092 0.0000 0.0000 0.0000
# 2 48.9264 99.5780 0.7092 0.0000 0.0000 0.0000
# 3 0.7092 0.7092 77.0955 0.0000 0.0000 0.0000
# 4 0.0000 0.0000 0.0000 9.5414 0.0000 0.0000
# 5 0.0000 0.0000 0.0000 0.0000 9.5414 0.0000
# 6 0.0000 0.0000 0.0000 0.0000 0.0000 19.5382
#
#
#
# Elastic Compliance Matrix: (Units=1/GPa)
#
#
# Indices 1 2 3 4 5 6 
#
# 1 0.013239 -0.006504 -0.000062 0.000000 0.000000 0.000000
# 2 -0.006504 0.013239 -0.000062 0.000000 0.000000 0.000000
# 3 -0.000062 -0.000062 0.012972 0.000000 0.000000 0.000000
# 4 0.000000 0.000000 0.000000 0.104807 0.000000 0.000000
# 5 0.000000 0.000000 0.000000 0.000000 0.104807 0.000000
# 6 0.000000 0.000000 0.000000 0.000000 0.000000 0.051182
#
#
# Mechanical properties :
#
#
# Convention : Reuss Voigt Hill
#
# Bulk Modulus (GPa) = 38.17803 41.88233 40.03018
# Shear Modulus (GPa) = 15.51680 22.78464 19.15072
#
# Velocity S-wave (km/s) = 2.67097 3.23661 2.96730
# Velocity P-wave (km/s) = 5.20242 5.76399 5.49039
#
# Compressibility (1/GPa) = 0.02619307
#
# Stress axis : x y z
#
# Youngs Moduli (GPa) = 75.53693 75.53693 77.08870
#
# Poissons Ratio (x) = 0.49130 0.00478
# Poissons Ratio (y) = 0.49130 0.00478
# Poissons Ratio (z) = 0.00468 0.00468
#
# Static dielectric constant tensor:
#      x y z
#    x 1.854580 0.000000 0.000000 
#    y 0.000000 1.854580 0.000000 
#    z 0.000000 0.000000 1.826320 
# 
# From -- ./inp_files/1646.got.cif
#   From: 2010.05.17/outbox.cif.g08.bks.cpg/sg123_1_cif.got.tgz:1646.got - 2010.05.20 11:43:04.
