data_PCOD9562721
_publ_section_title
;
Structure prediction by ZEFSAII (Michael W. Deem and Ramdas Pophale) SiO2 
 PCOD9562721
Probable space group: P 4/M C C
;
_chemical_formula_sum "Si O2"
_cell_formula_units_Z 116
_cell_length_a 17.611127
_cell_length_b 17.611127
_cell_length_c 16.220128
_cell_angle_alpha 90.000000
_cell_angle_beta 90.000000
_cell_angle_gamma 90.000000
_cell_volume 5030.701802
_symmetry_space_group_name_H-M "P 4/M C C"
_symmetry_group_IT_number 124
_symmetry_cell_setting 'tetragonal'
loop_
_space_group_symop_operation_xyz
x,y,z
-y,x,z
-x,-y,z
y,-x,z
x,-y,1/2-z
-x,y,1/2-z
y,x,1/2-z
-y,-x,1/2-z
-x,-y,-z
y,-x,-z
x,y,-z
-y,x,-z
-x,y,1/2+z
x,-y,1/2+z
-y,-x,1/2+z
y,x,1/2+z
loop_
_atom_site_type_symbol
_atom_site_label
_atom_site_fract_x
_atom_site_fract_y
_atom_site_fract_z
Si Si1 0.758167 0.291297 0.841121
Si Si2 0.010031 0.779748 0.595529
Si Si3 0.191331 0.536187 0.658812
Si Si4 0.500000 0.500000 0.606535
Si Si5 0.607491 0.874951 0.089077
Si Si6 0.359730 0.606213 0.653770
Si Si7 0.381584 0.967028 0.161781
Si Si8 0.850108 0.844195 0.349595
O O1 0.727651 0.272350 0.750000
O O2 0.836901 0.337892 0.842750
O O3 0.692020 0.344082 0.878072
O O4 0.780651 0.210253 0.878575
O O5 0.011690 0.757144 0.500000
O O6 0.032204 0.708565 0.651625
O O7 0.073028 0.842371 0.613000
O O8 0.927706 0.807673 0.620582
O O9 0.187808 0.500000 0.750000
O O10 0.172130 0.469238 0.596051
O O11 0.275543 0.569617 0.649634
O O12 0.118612 0.590939 0.650004
O O13 0.424020 0.556213 0.610455
O O14 0.592109 0.963960 0.102396
O O15 0.644186 0.863464 0.000000
O O16 0.387477 0.612524 0.750000
O O17 0.405474 0.000000 0.250000
O O18 0.847357 0.847357 0.250000
#
# Coordination Sequence:
#
# PCOD9562721 Si02
#       8
#    16  16  16   4  16  16  16  16
#     4  10  22  42  70 101 136 193 246 303 366 441
#     4  12  26  43  67 100 140 184 230 299 367 433
#     4  12  24  43  67 105 141 191 254 306 370 455
#     4  12  21  36  60 104 145 186 233 304 377 426
#     4  12  26  44  70 104 149 192 240 312 386 447
#     4  11  22  37  67 101 144 187 245 313 367 431
#     4  12  25  42  69 100 139 190 247 296 370 449
#     4  11  23  43  69  97 133 182 244 296 358 436
#
# _framework density 23.058413000000002
#
# number of rings (size 3 to 8) (size 9 to 14) (size 15 to 20)
#    0.000    0.552    2.759    7.241    1.931    2.483 
#    0.000    2.069    0.000    0.000    0.000    1.931 
#    0.000    0.000    0.000    0.000    0.000    0.000 
#
# Total GULP energy -647568.892889 kJ/mol
# GULP energy per Si atom -5582.490456 kJ/mol
# Density = 2.300593 g / cm^3
# Si number density = 23.058413 Si / 1000 Ang^3
#
#
#
# Elastic Constant Matrix: (Units=GPa)
#
#
# Indices 1 2 3 4 5 6 
#
# 1 155.8073 67.9100 9.6096 0.0000 0.0000 0.0000
# 2 67.9100 155.8068 9.6100 0.0000 0.0000 0.0000
# 3 9.6096 9.6100 60.4396 0.0000 0.0000 0.0000
# 4 0.0000 0.0000 0.0000 0.9967 0.0000 0.0000
# 5 0.0000 0.0000 0.0000 0.0000 0.9967 0.0000
# 6 0.0000 0.0000 0.0000 0.0000 0.0000 50.2166
#
#
#
# Elastic Compliance Matrix: (Units=1/GPa)
#
#
# Indices 1 2 3 4 5 6 
#
# 1 0.007954 -0.003423 -0.000721 0.000000 0.000000 0.000000
# 2 -0.003423 0.007954 -0.000721 0.000000 0.000000 0.000000
# 3 -0.000721 -0.000721 0.016775 0.000000 0.000000 0.000000
# 4 0.000000 0.000000 0.000000 1.003294 0.000000 0.000000
# 5 0.000000 0.000000 0.000000 0.000000 1.003279 0.000000
# 6 0.000000 0.000000 0.000000 0.000000 0.000000 0.019914
#
#
# Mechanical properties :
#
#
# Convention : Reuss Voigt Hill
#
# Bulk Modulus (GPa) = 43.56154 60.70144 52.13149
# Shear Modulus (GPa) = 2.40784 29.43695 15.92240
#
# Velocity S-wave (km/s) = 1.02299 3.57687 2.63063
# Velocity P-wave (km/s) = 4.50868 6.59097 5.64664
#
# Compressibility (1/GPa) = 0.02295603
#
# Stress axis : x y z
#
# Youngs Moduli (GPa) = 125.71694 125.71643 59.61402
#
# Poissons Ratio (x) = 0.43027 0.04295
# Poissons Ratio (y) = 0.43027 0.04296
# Poissons Ratio (z) = 0.09058 0.09059
#
# Static dielectric constant tensor:
#      x y z
#    x 1.871190 0.000000 0.000000 
#    y 0.000000 1.871190 0.000000 
#    z 0.000000 0.000000 1.899950 
# 
# From -- ./inp_files/4432.got.cif
#   From: 2010.05.17/outbox.cif.g08.bks.cpg/sg124_3_cif.got.tgz:4432.got - 2010.05.20 11:49:17.
