data_PCOD9562676
_publ_section_title
;
Structure prediction by ZEFSAII (Michael W. Deem and Ramdas Pophale) SiO2 
 PCOD9562676
Probable space group: P 4/M C C
;
_chemical_formula_sum "Si O2"
_cell_formula_units_Z 96
_cell_length_a 14.035673
_cell_length_b 14.035673
_cell_length_c 24.111782
_cell_angle_alpha 90.000000
_cell_angle_beta 90.000000
_cell_angle_gamma 90.000000
_cell_volume 4750.023865
_symmetry_space_group_name_H-M "P 4/M C C"
_symmetry_group_IT_number 124
_symmetry_cell_setting 'tetragonal'
loop_
_space_group_symop_operation_xyz
x,y,z
-y,x,z
-x,-y,z
y,-x,z
x,-y,1/2-z
-x,y,1/2-z
y,x,1/2-z
-y,-x,1/2-z
-x,-y,-z
y,-x,-z
x,y,-z
-y,x,-z
-x,y,1/2+z
x,-y,1/2+z
-y,-x,1/2+z
y,x,1/2+z
loop_
_atom_site_type_symbol
_atom_site_label
_atom_site_fract_x
_atom_site_fract_y
_atom_site_fract_z
Si Si1 0.936825 0.147568 0.329550
Si Si2 0.268303 0.109656 0.562402
Si Si3 0.776323 0.394542 0.851876
Si Si4 0.154717 0.310193 0.241513
Si Si5 0.061033 0.588557 0.062638
Si Si6 0.611902 0.761214 0.362677
O O1 0.902279 0.191301 0.388551
O O2 0.912889 0.226999 0.283161
O O3 0.047951 0.120261 0.325051
O O4 0.233205 0.131972 0.500000
O O5 0.348106 0.185079 0.583046
O O6 0.322479 0.009317 0.560689
O O7 0.844888 0.369593 0.798656
O O8 0.846846 0.383517 0.903416
O O9 0.686473 0.324110 0.853811
O O10 0.736523 0.501502 0.858660
O O11 0.251864 0.251864 0.250000
O O12 0.165823 0.377640 0.188822
O O13 0.000000 0.500000 0.087080
O O14 0.087299 0.559845 0.000000
#
# Coordination Sequence:
#
# PCOD9562676 Si02
#       6
#    16  16  16  16  16  16
#     4  10  23  42  62  93 135 176 217 267 333 405
#     4  10  22  40  64  93 127 171 224 276 329 393
#     4  11  22  41  65  95 127 169 219 274 342 406
#     4   9  21  40  61  87 123 166 214 266 319 390
#     4  10  21  40  66  92 123 164 216 274 331 393
#     4  10  22  40  63  92 131 166 219 277 339 399
#
# _framework density 20.210424
#
# number of rings (size 3 to 8) (size 9 to 14) (size 15 to 20)
#    0.000    2.000    1.667    0.500    7.000    2.333 
#    6.000    1.667    0.000    3.000    0.000    2.333 
#    0.000    0.000    0.000    0.000    0.000    0.000 
#
# Total GULP energy -534804.977668 kJ/mol
# GULP energy per Si atom -5570.885184 kJ/mol
# Density = 2.016442 g / cm^3
# Si number density = 20.210424 Si / 1000 Ang^3
#
#
#
# Elastic Constant Matrix: (Units=GPa)
#
#
# Indices 1 2 3 4 5 6 
#
# 1 98.1945 45.3427 55.1341 0.0000 0.0000 0.0000
# 2 45.3427 98.1945 55.1341 0.0000 0.0000 0.0000
# 3 55.1341 55.1341 127.9847 0.0000 0.0000 0.0000
# 4 0.0000 0.0000 0.0000 18.4803 0.0000 0.0000
# 5 0.0000 0.0000 0.0000 0.0000 18.4803 0.0000
# 6 0.0000 0.0000 0.0000 0.0000 0.0000 16.9018
#
#
#
# Elastic Compliance Matrix: (Units=1/GPa)
#
#
# Indices 1 2 3 4 5 6 
#
# 1 0.014667 -0.004254 -0.004486 0.000000 0.000000 0.000000
# 2 -0.004254 0.014667 -0.004486 0.000000 0.000000 0.000000
# 3 -0.004486 -0.004486 0.011678 0.000000 0.000000 0.000000
# 4 0.000000 0.000000 0.000000 0.054112 0.000000 0.000000
# 5 0.000000 0.000000 0.000000 0.000000 0.054112 0.000000
# 6 0.000000 0.000000 0.000000 0.000000 0.000000 0.059165
#
#
# Mechanical properties :
#
#
# Convention : Reuss Voigt Hill
#
# Bulk Modulus (GPa) = 68.67637 70.62170 69.64904
# Shear Modulus (GPa) = 20.85898 22.02334 21.44116
#
# Velocity S-wave (km/s) = 3.21610 3.30464 3.26067
# Velocity P-wave (km/s) = 6.91705 7.04130 6.97945
#
# Compressibility (1/GPa) = 0.01456105
#
# Stress axis : x y z
#
# Youngs Moduli (GPa) = 68.18102 68.18102 85.62953
#
# Poissons Ratio (x) = 0.29004 0.38411
# Poissons Ratio (y) = 0.29004 0.38411
# Poissons Ratio (z) = 0.30584 0.30584
#
# Static dielectric constant tensor:
#      x y z
#    x 1.735270 0.000000 0.000000 
#    y 0.000000 1.735270 0.000000 
#    z 0.000000 0.000000 1.793900 
# 
# From -- ./inp_files/5292.got.cif
#   From: 2010.05.17/outbox.cif.g08.bks.cpg/sg124_3_cif.got.tgz:5292.got - 2010.05.20 11:49:17.
