data_PCOD9562110
_publ_section_title
;
Structure prediction by ZEFSAII (Michael W. Deem and Ramdas Pophale) SiO2 
 PCOD9562110
Probable space group: P 4/M M M
;
_chemical_formula_sum "Si O2"
_cell_formula_units_Z 58
_cell_length_a 12.601411
_cell_length_b 12.601411
_cell_length_c 20.327039
_cell_angle_alpha 90.000000
_cell_angle_beta 90.000000
_cell_angle_gamma 90.000000
_cell_volume 3227.843525
_symmetry_space_group_name_H-M "P 4/M M M"
_symmetry_group_IT_number 123
_symmetry_cell_setting 'tetragonal'
loop_
_space_group_symop_operation_xyz
x,y,z
-y,x,z
-x,-y,z
y,-x,z
x,-y,-z
-x,y,-z
y,x,-z
-y,-x,-z
-x,-y,-z
y,-x,-z
x,y,-z
-y,x,-z
-x,y,z
x,-y,z
-y,-x,z
y,x,z
loop_
_atom_site_type_symbol
_atom_site_label
_atom_site_fract_x
_atom_site_fract_y
_atom_site_fract_z
Si Si1 0.628163 0.119671 0.000000
Si Si2 0.000000 0.621706 0.232908
Si Si3 0.792309 0.623412 0.857270
Si Si4 0.000000 0.258449 0.633449
Si Si5 0.792585 0.377785 0.420529
Si Si6 0.000000 0.000000 0.377056
O O1 0.654406 0.176442 0.931905
O O2 0.500000 0.112318 0.000000
O O3 0.671154 0.000000 0.000000
O O4 0.103425 0.633012 0.187460
O O5 0.000000 0.707774 0.290152
O O6 0.000000 0.500000 0.259660
O O7 0.760143 0.500000 0.857510
O O8 0.699488 0.699488 0.833451
O O9 0.104170 0.313674 0.602734
O O10 0.000000 0.132390 0.623139
O O11 0.793771 0.380061 0.500000
O O12 0.793608 0.500000 0.397120
O O13 0.688406 0.311595 0.399734
#
# Coordination Sequence:
#
# PCOD9562110 Si02
#       6
#     8   8  16   8  16   2
#     4   9  15  30  53  76 106 138 181 227 264 320
#     4  10  22  38  59  81 106 146 193 231 272 334
#     4  10  20  34  54  82 109 142 181 224 278 332
#     4  12  23  43  58  85 118 154 196 240 294 345
#     4  10  21  38  62  90 120 155 193 235 285 341
#     4  12  28  40  61  88 116 153 192 244 294 340
#
# _framework density 17.968651999999999
#
# number of rings (size 3 to 8) (size 9 to 14) (size 15 to 20)
#    0.000    1.793    2.759    2.069    1.931    1.655 
#    0.000    2.759    0.000    2.483    0.000    4.828 
#    0.000    0.000    0.000    0.000    0.000    0.000 
#
# Total GULP energy -323094.553751 kJ/mol
# GULP energy per Si atom -5570.595754 kJ/mol
# Density = 1.792775 g / cm^3
# Si number density = 17.968652 Si / 1000 Ang^3
#
#
#
# Elastic Constant Matrix: (Units=GPa)
#
#
# Indices 1 2 3 4 5 6 
#
# 1 161.9051 92.6194 22.3977 0.0000 0.0000 0.0000
# 2 92.6194 161.9051 22.3977 0.0000 0.0000 0.0000
# 3 22.3977 22.3977 23.6165 0.0000 0.0000 0.0000
# 4 0.0000 0.0000 0.0000 3.1054 0.0000 0.0000
# 5 0.0000 0.0000 0.0000 0.0000 3.1054 0.0000
# 6 0.0000 0.0000 0.0000 0.0000 0.0000 43.9083
#
#
#
# Elastic Compliance Matrix: (Units=1/GPa)
#
#
# Indices 1 2 3 4 5 6 
#
# 1 0.009575 -0.004858 -0.004473 0.000000 0.000000 0.000000
# 2 -0.004858 0.009575 -0.004473 0.000000 0.000000 0.000000
# 3 -0.004473 -0.004473 0.050827 0.000000 0.000000 0.000000
# 4 0.000000 0.000000 0.000000 0.322021 0.000000 0.000000
# 5 0.000000 0.000000 0.000000 0.000000 0.322021 0.000000
# 6 0.000000 0.000000 0.000000 0.000000 0.000000 0.022775
#
#
# Mechanical properties :
#
#
# Convention : Reuss Voigt Hill
#
# Bulk Modulus (GPa) = 23.60252 69.13959 46.37106
# Shear Modulus (GPa) = 6.42241 24.02460 15.22350
#
# Velocity S-wave (km/s) = 1.89261 3.66051 2.91387
# Velocity P-wave (km/s) = 4.23555 7.51180 6.09783
#
# Compressibility (1/GPa) = 0.04236835
#
# Stress axis : x y z
#
# Youngs Moduli (GPa) = 104.44366 104.44366 19.67461
#
# Poissons Ratio (x) = 0.50744 0.08800
# Poissons Ratio (y) = 0.50744 0.08800
# Poissons Ratio (z) = 0.46714 0.46714
#
# Static dielectric constant tensor:
#      x y z
#    x 1.602990 0.000000 0.000000 
#    y 0.000000 1.602990 0.000000 
#    z 0.000000 0.000000 1.624010 
# 
# From -- ./inp_files/6197.got.cif
#   From: 2010.05.17/outbox.cif.g08.bks.cpg/sg123_4_cif.got.tgz:6197.got - 2010.05.20 11:43:04.
