data_PCOD9562387
_publ_section_title
;
Structure prediction by ZEFSAII (Michael W. Deem and Ramdas Pophale) SiO2 
 PCOD9562387
Probable space group: P 4/M C C
;
_chemical_formula_sum "Si O2"
_cell_formula_units_Z 72
_cell_length_a 19.785783
_cell_length_b 19.785783
_cell_length_c 9.865011
_cell_angle_alpha 90.000000
_cell_angle_beta 90.000000
_cell_angle_gamma 90.000000
_cell_volume 3861.926972
_symmetry_space_group_name_H-M "P 4/M C C"
_symmetry_group_IT_number 124
_symmetry_cell_setting 'tetragonal'
loop_
_space_group_symop_operation_xyz
x,y,z
-y,x,z
-x,-y,z
y,-x,z
x,-y,1/2-z
-x,y,1/2-z
y,x,1/2-z
-y,-x,1/2-z
-x,-y,-z
y,-x,-z
x,y,-z
-y,x,-z
-x,y,1/2+z
x,-y,1/2+z
-y,-x,1/2+z
y,x,1/2+z
loop_
_atom_site_type_symbol
_atom_site_label
_atom_site_fract_x
_atom_site_fract_y
_atom_site_fract_z
Si Si1 0.208184 0.208184 0.250000
Si Si2 0.927689 0.276131 0.237849
Si Si3 0.576657 0.179892 0.500000
Si Si4 0.732059 0.411182 0.500000
Si Si5 0.752236 0.500000 0.250000
Si Si6 0.636388 0.889927 0.500000
Si Si7 0.715018 0.737695 0.000000
Si Si8 0.038700 0.618219 0.000000
O O1 0.224209 0.131844 0.208489
O O2 0.251482 0.236698 0.373292
O O3 0.901165 0.316449 0.369123
O O4 0.944501 0.333373 0.127312
O O5 0.000000 0.240268 0.250000
O O6 0.545204 0.206323 0.358503
O O7 0.653511 0.208930 0.500000
O O8 0.566148 0.099700 0.500000
O O9 0.716110 0.451126 0.360275
O O10 0.815255 0.397719 0.500000
O O11 0.693513 0.340113 0.500000
O O12 0.594052 0.961111 0.500000
#
# Coordination Sequence:
#
# PCOD9562387 Si02
#       8
#     8  16   8   8   8   8   8   8
#     4  12  18  32  50  85 102 134 180 241 272 326
#     4  10  19  30  47  74 108 139 173 228 282 321
#     4  11  20  39  52  83 104 149 172 227 259 315
#     4  11  20  39  52  83 104 149 172 227 259 315
#     4  10  24  36  55  70 122 143 176 206 276 316
#     4  10  19  33  52  74 107 143 183 222 263 309
#     4  12  22  32  64  82 108 124 192 226 270 304
#     4  10  19  33  52  74 107 143 183 222 263 309
#
# _framework density 18.643543000000001
#
# number of rings (size 3 to 8) (size 9 to 14) (size 15 to 20)
#    0.000    1.333    4.444    2.667    0.000    0.000 
#    0.000    3.333    0.000    0.333    0.000    0.000 
#    0.000   38.222    0.000    0.000    0.000    1.111 
#
# Total GULP energy -400805.011385 kJ/mol
# GULP energy per Si atom -5566.736269 kJ/mol
# Density = 1.860111 g / cm^3
# Si number density = 18.643543 Si / 1000 Ang^3
#
#
#
# Elastic Constant Matrix: (Units=GPa)
#
#
# Indices 1 2 3 4 5 6 
#
# 1 64.9673 -1.2503 4.9198 0.0000 0.0000 0.0000
# 2 -1.2503 64.9673 4.9198 0.0000 0.0000 0.0000
# 3 4.9198 4.9198 119.9626 0.0000 0.0000 0.0000
# 4 0.0000 0.0000 0.0000 -131.7905 0.0000 0.0000
# 5 0.0000 0.0000 0.0000 0.0000 -131.7905 0.0000
# 6 0.0000 0.0000 0.0000 0.0000 0.0000 14.7446
#
#
#
# Elastic Compliance Matrix: (Units=1/GPa)
#
#
# Indices 1 2 3 4 5 6 
#
# 1 0.015448 0.000346 -0.000648 0.000000 0.000000 0.000000
# 2 0.000346 0.015448 -0.000648 0.000000 0.000000 0.000000
# 3 -0.000648 -0.000648 0.008389 0.000000 0.000000 0.000000
# 4 0.000000 0.000000 0.000000 -0.007588 0.000000 0.000000
# 5 0.000000 0.000000 0.000000 0.000000 -0.007588 0.000000
# 6 0.000000 0.000000 0.000000 0.000000 0.000000 0.067821
#
#
# Mechanical properties :
#
#
# Convention : Reuss Voigt Hill
#
# Bulk Modulus (GPa) = 26.74731 29.67509 28.21120
# Shear Modulus (GPa) = 47.04040 -33.68008 6.68016
#
# Velocity S-wave (km/s) = 5.02854 -4.25494 1.89496
# Velocity P-wave (km/s) = 6.93490 2.86141 4.46683
#
# Compressibility (1/GPa) = 0.03738693
#
# Stress axis : x y z
#
# Youngs Moduli (GPa) = 64.73293 64.73293 119.20281
#
# Poissons Ratio (x) = -0.02242 0.07721
# Poissons Ratio (y) = -0.02242 0.07721
# Poissons Ratio (z) = 0.04193 0.04193
#
# Static dielectric constant tensor:
#      x y z
#    x 1.723800 0.000000 0.000000 
#    y 0.000000 1.723800 0.000000 
#    z 0.000000 0.000000 1.672100 
# 
# From -- ./inp_files/1122.got.cif
#   From: 2010.05.17/outbox.cif.g08.bks.cpg/sg124_1_cif.got.tgz:1122.got - 2010.05.20 11:49:17.
