data_PCOD9562617
_publ_section_title
;
Structure prediction by ZEFSAII (Michael W. Deem and Ramdas Pophale) SiO2 
 PCOD9562617
Probable space group: P 4/M C C
;
_chemical_formula_sum "Si O2"
_cell_formula_units_Z 72
_cell_length_a 14.272751
_cell_length_b 14.272751
_cell_length_c 18.249939
_cell_angle_alpha 90.000000
_cell_angle_beta 90.000000
_cell_angle_gamma 90.000000
_cell_volume 3717.721009
_symmetry_space_group_name_H-M "P 4/M C C"
_symmetry_group_IT_number 124
_symmetry_cell_setting 'tetragonal'
loop_
_space_group_symop_operation_xyz
x,y,z
-y,x,z
-x,-y,z
y,-x,z
x,-y,1/2-z
-x,y,1/2-z
y,x,1/2-z
-y,-x,1/2-z
-x,-y,-z
y,-x,-z
x,y,-z
-y,x,-z
-x,y,1/2+z
x,-y,1/2+z
-y,-x,1/2+z
y,x,1/2+z
loop_
_atom_site_type_symbol
_atom_site_label
_atom_site_fract_x
_atom_site_fract_y
_atom_site_fract_z
Si Si1 0.106037 0.684105 0.725766
Si Si2 0.690219 0.629575 0.582809
Si Si3 0.540694 0.734926 0.326494
Si Si4 0.858285 0.935234 0.000000
Si Si5 0.210753 0.820166 0.630517
O O1 0.171728 0.600303 0.694778
O O2 0.120612 0.766276 0.664747
O O3 0.151083 0.727027 0.799534
O O4 0.000000 0.660240 0.750000
O O5 0.661979 0.607120 0.500000
O O6 0.749676 0.545262 0.617926
O O7 0.604662 0.656406 0.635615
O O8 0.748973 0.725339 0.584883
O O9 0.500000 0.700366 0.250000
O O10 0.810033 0.903927 0.924627
O O11 0.956008 0.879508 0.000000
#
# Coordination Sequence:
#
# PCOD9562617 Si02
#       5
#    16  16  16   8  16
#     4  10  21  38  63  90 120 162 207 253 308 366
#     4  11  22  40  62  87 124 164 200 252 309 371
#     4  11  22  39  63  91 121 158 207 253 305 362
#     4  11  22  36  60  92 124 161 208 260 308 367
#     4  10  20  38  61  85 123 163 202 250 309 368
#
# _framework density 19.366702
#
# number of rings (size 3 to 8) (size 9 to 14) (size 15 to 20)
#    0.000    1.444    3.333    2.667    0.000    0.889 
#    0.000    2.222    0.000    6.667    0.000    0.000 
#    0.000    0.000    0.000    0.000    0.000    0.000 
#
# Total GULP energy -401340.525605 kJ/mol
# GULP energy per Si atom -5574.173967 kJ/mol
# Density = 1.932262 g / cm^3
# Si number density = 19.366702 Si / 1000 Ang^3
#
#
#
# Elastic Constant Matrix: (Units=GPa)
#
#
# Indices 1 2 3 4 5 6 
#
# 1 86.1352 15.1182 41.9689 0.0000 0.0000 0.0000
# 2 15.1182 86.1352 41.9689 0.0000 0.0000 0.0000
# 3 41.9689 41.9689 131.6170 0.0000 0.0000 0.0000
# 4 0.0000 0.0000 0.0000 23.6716 0.0000 0.0000
# 5 0.0000 0.0000 0.0000 0.0000 23.6716 0.0000
# 6 0.0000 0.0000 0.0000 0.0000 0.0000 23.0388
#
#
#
# Elastic Compliance Matrix: (Units=1/GPa)
#
#
# Indices 1 2 3 4 5 6 
#
# 1 0.013753 -0.000328 -0.004281 0.000000 0.000000 0.000000
# 2 -0.000328 0.013753 -0.004281 0.000000 0.000000 0.000000
# 3 -0.004281 -0.004281 0.010328 0.000000 0.000000 0.000000
# 4 0.000000 0.000000 0.000000 0.042245 0.000000 0.000000
# 5 0.000000 0.000000 0.000000 0.000000 0.042245 0.000000
# 6 0.000000 0.000000 0.000000 0.000000 0.000000 0.043405
#
#
# Mechanical properties :
#
#
# Convention : Reuss Voigt Hill
#
# Bulk Modulus (GPa) = 49.86418 55.77769 52.82094
# Shear Modulus (GPa) = 26.28909 27.73181 27.01045
#
# Velocity S-wave (km/s) = 3.68834 3.78819 3.73860
# Velocity P-wave (km/s) = 6.62886 6.92800 6.78008
#
# Compressibility (1/GPa) = 0.02005447
#
# Stress axis : x y z
#
# Youngs Moduli (GPa) = 72.71112 72.71112 96.82527
#
# Poissons Ratio (x) = 0.02385 0.41449
# Poissons Ratio (y) = 0.02385 0.41449
# Poissons Ratio (z) = 0.31126 0.31126
#
# Static dielectric constant tensor:
#      x y z
#    x 1.707370 0.000000 0.000000 
#    y 0.000000 1.707370 0.000000 
#    z 0.000000 0.000000 1.683860 
# 
# From -- ./inp_files/4035.got.cif
#   From: 2010.05.17/outbox.cif.g08.bks.cpg/sg124_3_cif.got.tgz:4035.got - 2010.05.20 11:49:17.
