data_PCOD9562510
_publ_section_title
;
Structure prediction by ZEFSAII (Michael W. Deem and Ramdas Pophale) SiO2 
 PCOD9562510
Probable space group: P 4/M C C
;
_chemical_formula_sum "Si O2"
_cell_formula_units_Z 128
_cell_length_a 20.740317
_cell_length_b 20.740317
_cell_length_c 17.391897
_cell_angle_alpha 90.000000
_cell_angle_beta 90.000000
_cell_angle_gamma 90.000000
_cell_volume 7481.311445
_symmetry_space_group_name_H-M "P 4/M C C"
_symmetry_group_IT_number 124
_symmetry_cell_setting 'tetragonal'
loop_
_space_group_symop_operation_xyz
x,y,z
-y,x,z
-x,-y,z
y,-x,z
x,-y,1/2-z
-x,y,1/2-z
y,x,1/2-z
-y,-x,1/2-z
-x,-y,-z
y,-x,-z
x,y,-z
-y,x,-z
-x,y,1/2+z
x,-y,1/2+z
-y,-x,1/2+z
y,x,1/2+z
loop_
_atom_site_type_symbol
_atom_site_label
_atom_site_fract_x
_atom_site_fract_y
_atom_site_fract_z
Si Si1 0.491670 0.137006 0.659265
Si Si2 0.354303 0.669279 0.338535
Si Si3 0.627978 0.905326 0.092472
Si Si4 0.054276 0.627053 0.405902
Si Si5 0.246849 0.413356 0.086839
Si Si6 0.283129 0.209246 0.906441
Si Si7 0.598835 0.541698 0.589580
Si Si8 0.161473 0.717740 0.412527
O O1 0.500000 0.130623 0.750000
O O2 0.560642 0.123534 0.621495
O O3 0.437835 0.086857 0.627283
O O4 0.464193 0.207232 0.636630
O O5 0.336073 0.663928 0.250000
O O6 0.313078 0.613724 0.380949
O O7 0.331322 0.736815 0.373294
O O8 0.428217 0.653130 0.356586
O O9 0.687687 0.859733 0.116059
O O10 0.632288 0.979798 0.116585
O O11 0.626650 0.904825 0.000000
O O12 0.059113 0.623825 0.500000
O O13 0.095116 0.689814 0.378786
O O14 0.203577 0.348111 0.084424
O O15 0.254131 0.437705 0.000000
O O16 0.211023 0.229450 0.879208
O O17 0.282842 0.214420 0.000000
O O18 0.531917 0.579767 0.602358
O O19 0.617253 0.549977 0.500000
O O20 0.147193 0.738557 0.500000
#
# Coordination Sequence:
#
# PCOD9562510 Si02
#       8
#    16  16  16  16  16  16  16  16
#     4  11  22  32  49  70 103 136 170 211 253 296
#     4  11  22  33  53  74  99 126 157 208 261 308
#     4  10  20  32  49  73 101 131 167 215 257 298
#     4   9  17  32  52  71  94 133 179 209 244 305
#     4   9  18  35  53  68  90 130 173 202 243 311
#     4   9  18  33  51  71  97 127 163 202 249 299
#     4   9  19  37  56  70  85 113 158 205 253 314
#     4   7  12  27  50  68  84 117 165 205 234 282
#
# _framework density 17.109300000000001
#
# number of rings (size 3 to 8) (size 9 to 14) (size 15 to 20)
#    0.000    2.625    0.000    4.500    1.750    3.500 
#    0.000    1.875    0.000    0.000    0.000    0.000 
#    0.000    0.500    0.000    7.000    0.000    0.000 
#
# Total GULP energy -713401.262916 kJ/mol
# GULP energy per Si atom -5573.447367 kJ/mol
# Density = 1.707036 g / cm^3
# Si number density = 17.109300 Si / 1000 Ang^3
#
#
#
# Elastic Constant Matrix: (Units=GPa)
#
#
# Indices 1 2 3 4 5 6 
#
# 1 56.5207 51.6172 12.2989 0.0000 0.0000 0.0000
# 2 51.6172 56.5212 12.2990 0.0000 0.0000 0.0000
# 3 12.2989 12.2990 24.8914 0.0000 0.0000 0.0000
# 4 0.0000 0.0000 0.0000 8.9947 0.0000 0.0000
# 5 0.0000 0.0000 0.0000 0.0000 8.9921 0.0000
# 6 0.0000 0.0000 0.0000 0.0000 0.0000 22.2845
#
#
#
# Elastic Compliance Matrix: (Units=1/GPa)
#
#
# Indices 1 2 3 4 5 6 
#
# 1 0.107172 -0.096753 -0.005147 0.000000 0.000000 0.000000
# 2 -0.096753 0.107171 -0.005148 0.000000 0.000000 0.000000
# 3 -0.005147 -0.005148 0.045262 0.000000 0.000000 0.000000
# 4 0.000000 0.000000 0.000000 0.111177 0.000000 0.000000
# 5 0.000000 0.000000 0.000000 0.000000 0.111209 0.000000
# 6 0.000000 0.000000 0.000000 0.000000 0.000000 0.044874
#
#
# Mechanical properties :
#
#
# Convention : Reuss Voigt Hill
#
# Bulk Modulus (GPa) = 21.97448 32.26259 27.11854
# Shear Modulus (GPa) = 6.61262 12.16882 9.39072
#
# Velocity S-wave (km/s) = 1.96808 2.66980 2.34533
# Velocity P-wave (km/s) = 4.24687 5.32930 4.81858
#
# Compressibility (1/GPa) = 0.04550733
#
# Stress axis : x y z
#
# Youngs Moduli (GPa) = 9.33083 9.33088 22.09377
#
# Poissons Ratio (x) = 0.90279 0.11372
# Poissons Ratio (y) = 0.90279 0.11374
# Poissons Ratio (z) = 0.04803 0.04804
#
# Static dielectric constant tensor:
#      x y z
#    x 1.601490 0.000000 0.000000 
#    y 0.000000 1.601490 0.000000 
#    z 0.000000 0.000000 1.590650 
# 
# From -- ./inp_files/4613.got.cif
#   From: 2010.05.17/outbox.cif.g08.bks.cpg/sg124_3_cif.got.tgz:4613.got - 2010.05.20 11:49:17.
