data_PCOD9562760
_publ_section_title
;
Structure prediction by ZEFSAII (Michael W. Deem and Ramdas Pophale) SiO2 
 PCOD9562760
Probable space group: P 4/M C C
;
_chemical_formula_sum "Si O2"
_cell_formula_units_Z 64
_cell_length_a 20.119175
_cell_length_b 20.119175
_cell_length_c 8.524090
_cell_angle_alpha 90.000000
_cell_angle_beta 90.000000
_cell_angle_gamma 90.000000
_cell_volume 3450.391402
_symmetry_space_group_name_H-M "P 4/M C C"
_symmetry_group_IT_number 124
_symmetry_cell_setting 'tetragonal'
loop_
_space_group_symop_operation_xyz
x,y,z
-y,x,z
-x,-y,z
y,-x,z
x,-y,1/2-z
-x,y,1/2-z
y,x,1/2-z
-y,-x,1/2-z
-x,-y,-z
y,-x,-z
x,y,-z
-y,x,-z
-x,y,1/2+z
x,-y,1/2+z
-y,-x,1/2+z
y,x,1/2+z
loop_
_atom_site_type_symbol
_atom_site_label
_atom_site_fract_x
_atom_site_fract_y
_atom_site_fract_z
Si Si1 0.320431 0.782669 0.187434
Si Si2 0.169689 0.067368 0.312398
Si Si3 0.675343 0.425659 0.187880
Si Si4 0.319043 0.929219 0.313964
O O1 0.251495 0.748506 0.250000
O O2 0.378307 0.733534 0.246076
O O3 0.338219 0.857116 0.244828
O O4 0.316214 0.782850 0.000000
O O5 0.128921 0.128921 0.250000
O O6 0.175967 0.067249 0.500000
O O7 0.241571 0.068880 0.232924
O O8 0.136160 0.000000 0.250000
O O9 0.682867 0.500000 0.250000
O O10 0.607404 0.392597 0.250000
O O11 0.676628 0.423897 0.000000
O O12 0.327555 0.928505 0.500000
O O13 0.347500 0.000000 0.250000
#
# Coordination Sequence:
#
# PCOD9562760 Si02
#       4
#    16  16  16  16
#     4  11  21  36  57  84 114 150 191 237 285 338
#     4  11  21  34  48  66  90 122 162 210 265 327
#     4  11  22  39  61  90 123 159 196 235 277 328
#     4  11  21  35  53  77 105 138 178 228 282 336
#
# _framework density 18.54862
#
# number of rings (size 3 to 8) (size 9 to 14) (size 15 to 20)
#    0.000    1.000    0.000   12.750    0.000    0.500 
#    0.000    2.500    0.000    0.750    0.000    5.250 
#    0.000    0.000    0.000    0.000    0.000    0.000 
#
# Total GULP energy -357313.029432 kJ/mol
# GULP energy per Si atom -5583.016085 kJ/mol
# Density = 1.850640 g / cm^3
# Si number density = 18.548620 Si / 1000 Ang^3
#
#
#
# Elastic Constant Matrix: (Units=GPa)
#
#
# Indices 1 2 3 4 5 6 
#
# 1 103.1157 30.6960 41.2415 0.0000 0.0000 0.0000
# 2 30.6960 103.1083 41.2393 0.0000 0.0000 0.0000
# 3 41.2415 41.2393 204.4650 0.0000 0.0000 0.0000
# 4 0.0000 0.0000 0.0000 31.8268 0.0000 0.0000
# 5 0.0000 0.0000 0.0000 0.0000 31.8273 0.0000
# 6 0.0000 0.0000 0.0000 0.0000 0.0000 15.6770
#
#
#
# Elastic Compliance Matrix: (Units=1/GPa)
#
#
# Indices 1 2 3 4 5 6 
#
# 1 0.011171 -0.002637 -0.001721 0.000000 0.000000 0.000000
# 2 -0.002637 0.011172 -0.001721 0.000000 0.000000 0.000000
# 3 -0.001721 -0.001721 0.005585 0.000000 0.000000 0.000000
# 4 0.000000 0.000000 0.000000 0.031420 0.000000 0.000000
# 5 0.000000 0.000000 0.000000 0.000000 0.031420 0.000000
# 6 0.000000 0.000000 0.000000 0.000000 0.000000 0.063788
#
#
# Mechanical properties :
#
#
# Convention : Reuss Voigt Hill
#
# Bulk Modulus (GPa) = 63.41718 70.78251 67.09984
# Shear Modulus (GPa) = 29.07438 35.70035 32.38737
#
# Velocity S-wave (km/s) = 3.96342 4.39189 4.18314
# Velocity P-wave (km/s) = 7.43027 7.99760 7.71915
#
# Compressibility (1/GPa) = 0.01576860
#
# Stress axis : x y z
#
# Youngs Moduli (GPa) = 89.51427 89.50812 179.04389
#
# Poissons Ratio (x) = 0.23606 0.30821
# Poissons Ratio (y) = 0.23608 0.30821
# Poissons Ratio (z) = 0.15409 0.15408
#
# Static dielectric constant tensor:
#      x y z
#    x 1.820470 0.000000 0.000000 
#    y 0.000000 1.820530 0.000000 
#    z 0.000000 0.000000 1.616580 
# 
# From -- ./inp_files/866.got.cif
#   From: 2010.05.17/outbox.cif.g08.bks.cpg/sg124_1_cif.got.tgz:866.got - 2010.05.20 11:49:17.
