data_PCOD9562930
_publ_section_title
;
Structure prediction by ZEFSAII (Michael W. Deem and Ramdas Pophale) SiO2 
 PCOD9562930
Probable space group: P 4/N B M
;
_chemical_formula_sum "Si O2"
_cell_formula_units_Z 112
_cell_length_a 16.839988
_cell_length_b 16.839988
_cell_length_c 21.273626
_cell_angle_alpha 90.000000
_cell_angle_beta 90.000000
_cell_angle_gamma 90.000000
_cell_volume 6032.885395
_symmetry_space_group_name_H-M "P 4/N B M"
_symmetry_group_IT_number 125
_space_group.IT_coordinate_system_code '2'
_symmetry_cell_setting 'tetragonal'
loop_
_space_group_symop_operation_xyz
x,y,z
1/2-y,x,z
1/2-x,1/2-y,z
y,1/2-x,z
x,1/2-y,-z
1/2-x,y,-z
y,x,-z
1/2-y,1/2-x,-z
-x,-y,-z
1/2+y,-x,-z
1/2+x,1/2+y,-z
-y,1/2+x,-z
-x,1/2+y,z
1/2+x,-y,z
-y,-x,z
1/2+y,1/2+x,z
loop_
_atom_site_type_symbol
_atom_site_label
_atom_site_fract_x
_atom_site_fract_y
_atom_site_fract_z
Si Si1 0.815148 0.859774 0.851403
Si Si2 0.247560 0.881518 0.802505
Si Si3 0.039555 0.674661 0.686755
Si Si4 0.754020 0.382089 0.569063
Si Si5 0.187783 0.362754 0.700375
Si Si6 0.059490 0.069149 0.070519
Si Si7 0.201674 0.571580 0.062881
O O1 0.723900 0.854979 0.871360
O O2 0.815654 0.862807 0.776339
O O3 0.867957 0.926847 0.882242
O O4 0.161543 0.838458 0.793093
O O5 0.311856 0.811856 0.795360
O O6 0.272376 0.944921 0.749570
O O7 0.250777 0.912703 0.873727
O O8 0.098352 0.598352 0.689337
O O9 0.065175 0.727746 0.627278
O O10 0.947188 0.653443 0.680259
O O11 0.750000 0.420985 0.500000
O O12 0.688568 0.311433 0.565891
O O13 0.838009 0.338009 0.579066
O O14 0.145315 0.280674 0.681102
O O15 0.993735 0.136443 0.082424
O O16 0.086700 0.086700 0.000000
O O17 0.015184 0.984817 0.071424
O O18 0.151835 0.651835 0.048125
O O19 0.250000 0.549900 0.000000
#
# Coordination Sequence:
#
# PCOD9562930 Si02
#       7
#    16  16  16  16  16  16  16
#     4   9  20  37  58  77  92 125 173 217 262 317
#     4   9  18  31  48  74 106 137 172 217 268 324
#     4  10  19  31  54  87 114 139 179 231 280 321
#     4   8  14  27  50  82 122 163 193 220 266 328
#     4   9  20  38  56  75 104 144 184 219 260 321
#     4  10  23  37  50  73 100 126 161 216 277 324
#     4  10  21  34  50  70  96 137 176 210 258 326
#
# _framework density 18.564913000000001
#
# number of rings (size 3 to 8) (size 9 to 14) (size 15 to 20)
#    0.000    2.714    0.000    2.143    6.000    3.000 
#    0.000    5.000    0.000    0.857    0.000    4.000 
#    0.000    0.000    0.000    0.000    0.000    0.000 
#
# Total GULP energy -624411.279169 kJ/mol
# GULP energy per Si atom -5575.100707 kJ/mol
# Density = 1.852266 g / cm^3
# Si number density = 18.564913 Si / 1000 Ang^3
#
#
#
# Elastic Constant Matrix: (Units=GPa)
#
#
# Indices 1 2 3 4 5 6 
#
# 1 61.4145 14.7744 19.5494 0.0000 0.0000 0.0000
# 2 14.7744 61.4145 19.5494 0.0000 0.0000 0.0000
# 3 19.5494 19.5494 60.1804 0.0000 0.0000 0.0000
# 4 0.0000 0.0000 0.0000 10.3207 0.0000 0.0000
# 5 0.0000 0.0000 0.0000 0.0000 10.3207 0.0000
# 6 0.0000 0.0000 0.0000 0.0000 0.0000 12.6880
#
#
#
# Elastic Compliance Matrix: (Units=1/GPa)
#
#
# Indices 1 2 3 4 5 6 
#
# 1 0.018596 -0.002845 -0.005117 0.000000 0.000000 0.000000
# 2 -0.002845 0.018596 -0.005117 0.000000 0.000000 0.000000
# 3 -0.005117 -0.005117 0.019941 0.000000 0.000000 0.000000
# 4 0.000000 0.000000 0.000000 0.096893 0.000000 0.000000
# 5 0.000000 0.000000 0.000000 0.000000 0.096893 0.000000
# 6 0.000000 0.000000 0.000000 0.000000 0.000000 0.078814
#
#
# Mechanical properties :
#
#
# Convention : Reuss Voigt Hill
#
# Bulk Modulus (GPa) = 32.28262 32.30617 32.29439
# Shear Modulus (GPa) = 13.65317 15.27495 14.46406
#
# Velocity S-wave (km/s) = 2.71482 2.87154 2.79428
# Velocity P-wave (km/s) = 5.22052 5.33234 5.27672
#
# Compressibility (1/GPa) = 0.03097642
#
# Stress axis : x y z
#
# Youngs Moduli (GPa) = 53.77522 53.77522 50.14799
#
# Poissons Ratio (x) = 0.15298 0.25659
# Poissons Ratio (y) = 0.15298 0.25659
# Poissons Ratio (z) = 0.27515 0.27515
#
# Static dielectric constant tensor:
#      x y z
#    x 1.674940 0.000000 0.000000 
#    y 0.000000 1.674940 0.000000 
#    z 0.000000 0.000000 1.628580 
# 
# From -- ./inp_files/6060.got.cif
#   From: 2010.05.17/outbox.cif.g08.bks.cpg/sg125_4_cif.got.tgz:6060.got - 2010.05.20 11:54:10.
