data_PCOD9562180
_publ_section_title
;
Structure prediction by ZEFSAII (Michael W. Deem and Ramdas Pophale) SiO2 
 PCOD9562180
Probable space group: P 4/M M M
;
_chemical_formula_sum "Si O2"
_cell_formula_units_Z 72
_cell_length_a 21.719777
_cell_length_b 21.719777
_cell_length_c 8.854097
_cell_angle_alpha 90.000000
_cell_angle_beta 90.000000
_cell_angle_gamma 90.000000
_cell_volume 4176.908864
_symmetry_space_group_name_H-M "P 4/M M M"
_symmetry_group_IT_number 123
_symmetry_cell_setting 'tetragonal'
loop_
_space_group_symop_operation_xyz
x,y,z
-y,x,z
-x,-y,z
y,-x,z
x,-y,-z
-x,y,-z
y,x,-z
-y,-x,-z
-x,-y,-z
y,-x,-z
x,y,-z
-y,x,-z
-x,y,z
x,-y,z
-y,-x,z
y,x,z
loop_
_atom_site_type_symbol
_atom_site_label
_atom_site_fract_x
_atom_site_fract_y
_atom_site_fract_z
Si Si1 0.072286 0.500000 0.681053
Si Si2 0.163152 0.598211 0.181344
Si Si3 0.400444 0.500000 0.681969
Si Si4 0.165204 0.733483 0.319358
Si Si5 0.828476 0.928771 0.181639
Si Si6 0.734163 0.500000 0.180729
O O1 0.079302 0.500000 0.500000
O O2 0.106712 0.440576 0.749388
O O3 0.000000 0.500000 0.717382
O O4 0.166401 0.666812 0.244259
O O5 0.224451 0.559296 0.221809
O O6 0.157690 0.598440 0.000000
O O7 0.440342 0.440342 0.728922
O O8 0.398339 0.500000 0.500000
O O9 0.332198 0.500000 0.745031
O O10 0.162393 0.727697 0.500000
O O11 0.225296 0.774705 0.280498
O O12 0.107117 0.772653 0.260192
O O13 0.890286 0.890286 0.217397
O O14 0.832355 0.000000 0.225904
O O15 0.819962 0.925885 0.000000
O O16 0.727113 0.500000 0.000000
#
# Coordination Sequence:
#
# PCOD9562180 Si02
#       6
#     8  16   8  16  16   8
#     4  10  21  37  57  81 108 137 172 216 262 309
#     4  10  21  37  56  78 106 139 174 214 261 313
#     4   9  19  35  53  75 104 137 172 208 247 295
#     4  10  21  36  54  77 105 138 177 219 262 310
#     4   9  18  33  53  77 105 137 173 214 261 312
#     4   9  20  36  53  77 104 131 167 209 253 301
#
# _framework density 17.237627
#
# number of rings (size 3 to 8) (size 9 to 14) (size 15 to 20)
#    0.000    2.444    0.000    2.667    0.000    7.778 
#    0.000    6.111    0.000    0.000    0.000    3.111 
#    0.000    0.000    0.000    0.000    0.000    0.000 
#
# Total GULP energy -401772.199963 kJ/mol
# GULP energy per Si atom -5580.169444 kJ/mol
# Density = 1.719839 g / cm^3
# Si number density = 17.237627 Si / 1000 Ang^3
#
#
#
# Elastic Constant Matrix: (Units=GPa)
#
#
# Indices 1 2 3 4 5 6 
#
# 1 190.2876 102.9405 65.5748 0.0000 0.0000 0.0000
# 2 102.9405 190.2876 65.5748 0.0000 0.0000 0.0000
# 3 65.5748 65.5748 50.1284 0.0000 0.0000 0.0000
# 4 0.0000 0.0000 0.0000 25.2002 0.0000 0.0000
# 5 0.0000 0.0000 0.0000 0.0000 25.2002 0.0000
# 6 0.0000 0.0000 0.0000 0.0000 0.0000 5.1982
#
#
#
# Elastic Compliance Matrix: (Units=1/GPa)
#
#
# Indices 1 2 3 4 5 6 
#
# 1 0.009834 -0.001615 -0.010752 0.000000 0.000000 0.000000
# 2 -0.001615 0.009834 -0.010752 0.000000 0.000000 0.000000
# 3 -0.010752 -0.010752 0.048079 0.000000 0.000000 0.000000
# 4 0.000000 0.000000 0.000000 0.039682 0.000000 0.000000
# 5 0.000000 0.000000 0.000000 0.000000 0.039682 0.000000
# 6 0.000000 0.000000 0.000000 0.000000 0.000000 0.192376
#
#
# Mechanical properties :
#
#
# Convention : Reuss Voigt Hill
#
# Bulk Modulus (GPa) = 46.49088 99.87599 73.18344
# Shear Modulus (GPa) = 12.72611 24.22728 18.47669
#
# Velocity S-wave (km/s) = 2.72007 3.75305 3.27751
# Velocity P-wave (km/s) = 6.07406 8.76624 7.54126
#
# Compressibility (1/GPa) = 0.02150959
#
# Stress axis : x y z
#
# Youngs Moduli (GPa) = 101.68922 101.68922 20.79930
#
# Poissons Ratio (x) = 0.16420 0.22363
# Poissons Ratio (y) = 0.16420 0.22363
# Poissons Ratio (z) = 1.09335 1.09335
#
# Static dielectric constant tensor:
#      x y z
#    x 1.561640 0.000000 0.000000 
#    y 0.000000 1.561640 0.000000 
#    z 0.000000 0.000000 1.576770 
# 
# From -- ./inp_files/1195.got.cif
#   From: 2010.05.17/outbox.cif.g08.bks.cpg/sg123_1_cif.got.tgz:1195.got - 2010.05.20 11:43:04.
