data_PCOD9562830
_publ_section_title
;
Structure prediction by ZEFSAII (Michael W. Deem and Ramdas Pophale) SiO2 
 PCOD9562830
Probable space group: P 4/M C C
;
_chemical_formula_sum "Si O2"
_cell_formula_units_Z 56
_cell_length_a 10.401288
_cell_length_b 10.401288
_cell_length_c 22.064036
_cell_angle_alpha 90.000000
_cell_angle_beta 90.000000
_cell_angle_gamma 90.000000
_cell_volume 2387.037275
_symmetry_space_group_name_H-M "P 4/M C C"
_symmetry_group_IT_number 124
_symmetry_cell_setting 'tetragonal'
loop_
_space_group_symop_operation_xyz
x,y,z
-y,x,z
-x,-y,z
y,-x,z
x,-y,1/2-z
-x,y,1/2-z
y,x,1/2-z
-y,-x,1/2-z
-x,-y,-z
y,-x,-z
x,y,-z
-y,x,-z
-x,y,1/2+z
x,-y,1/2+z
-y,-x,1/2+z
y,x,1/2+z
loop_
_atom_site_type_symbol
_atom_site_label
_atom_site_fract_x
_atom_site_fract_y
_atom_site_fract_z
Si Si1 0.596198 0.305153 0.634817
Si Si2 0.410999 0.302245 0.000000
Si Si3 0.043580 0.647547 0.186891
Si Si4 0.784050 0.982958 0.565289
O O1 0.665004 0.443495 0.641083
O O2 0.615348 0.247836 0.566536
O O3 0.646445 0.197575 0.679880
O O4 0.561566 0.337250 0.000000
O O5 0.000000 0.500000 0.187706
O O6 0.000000 0.709521 0.250000
O O7 0.980183 0.706004 0.126898
O O8 0.713157 0.975251 0.500000
O O9 0.887671 0.868724 0.565672
#
# Coordination Sequence:
#
# PCOD9562830 Si02
#       4
#    16   8  16  16
#     4   9  19  39  67  96 134 178 215 260 331 407
#     4   7  12  28  57  96 128 157 206 258 308 391
#     4  11  26  43  59  98 137 172 219 281 324 383
#     4   9  21  45  73  99 127 169 225 274 326 395
#
# _framework density 23.460044
#
# number of rings (size 3 to 8) (size 9 to 14) (size 15 to 20)
#    0.000    2.714    0.000    2.571    6.000    1.714 
#    5.143    1.429    0.000    6.857    0.000    0.000 
#    0.000    0.000    0.000    0.000    0.000    0.000 
#
# Total GULP energy -313078.669448 kJ/mol
# GULP energy per Si atom -5590.690526 kJ/mol
# Density = 2.340665 g / cm^3
# Si number density = 23.460044 Si / 1000 Ang^3
#
#
#
# Elastic Constant Matrix: (Units=GPa)
#
#
# Indices 1 2 3 4 5 6 
#
# 1 77.5430 9.5755 53.3487 0.0000 0.0000 0.0000
# 2 9.5755 77.5430 53.3487 0.0000 0.0000 0.0000
# 3 53.3487 53.3487 218.5634 0.0000 0.0000 0.0000
# 4 0.0000 0.0000 0.0000 7.3022 0.0000 0.0000
# 5 0.0000 0.0000 0.0000 0.0000 7.3022 0.0000
# 6 0.0000 0.0000 0.0000 0.0000 0.0000 24.2287
#
#
#
# Elastic Compliance Matrix: (Units=1/GPa)
#
#
# Indices 1 2 3 4 5 6 
#
# 1 0.015543 0.000830 -0.003997 0.000000 0.000000 0.000000
# 2 0.000830 0.015543 -0.003997 0.000000 0.000000 0.000000
# 3 -0.003997 -0.003997 0.006526 0.000000 0.000000 0.000000
# 4 0.000000 0.000000 0.000000 0.136945 0.000000 0.000000
# 5 0.000000 0.000000 0.000000 0.000000 0.136945 0.000000
# 6 0.000000 0.000000 0.000000 0.000000 0.000000 0.041273
#
#
# Mechanical properties :
#
#
# Convention : Reuss Voigt Hill
#
# Bulk Modulus (GPa) = 42.94264 67.35502 55.14883
# Shear Modulus (GPa) = 13.33815 24.92504 19.13160
#
# Velocity S-wave (km/s) = 2.38701 3.26306 2.85879
# Velocity P-wave (km/s) = 5.09327 6.55512 5.86988
#
# Compressibility (1/GPa) = 0.02328688
#
# Stress axis : x y z
#
# Youngs Moduli (GPa) = 64.33711 64.33711 153.22511
#
# Poissons Ratio (x) = -0.05341 0.61237
# Poissons Ratio (y) = -0.05341 0.61237
# Poissons Ratio (z) = 0.25713 0.25713
#
# Static dielectric constant tensor:
#      x y z
#    x 1.894320 0.000000 0.000000 
#    y 0.000000 1.894320 0.000000 
#    z 0.000000 0.000000 1.952470 
# 
# From -- ./inp_files/4851.got.cif
#   From: 2010.05.17/outbox.cif.g08.bks.cpg/sg124_3_cif.got.tgz:4851.got - 2010.05.20 11:49:17.
