data_PCOD9562644
_publ_section_title
;
Structure prediction by ZEFSAII (Michael W. Deem and Ramdas Pophale) SiO2 
 PCOD9562644
Probable space group: P 4/M C C
;
_chemical_formula_sum "Si O2"
_cell_formula_units_Z 80
_cell_length_a 10.659912
_cell_length_b 10.659912
_cell_length_c 37.279411
_cell_angle_alpha 90.000000
_cell_angle_beta 90.000000
_cell_angle_gamma 90.000000
_cell_volume 4236.198295
_symmetry_space_group_name_H-M "P 4/M C C"
_symmetry_group_IT_number 124
_symmetry_cell_setting 'tetragonal'
loop_
_space_group_symop_operation_xyz
x,y,z
-y,x,z
-x,-y,z
y,-x,z
x,-y,1/2-z
-x,y,1/2-z
y,x,1/2-z
-y,-x,1/2-z
-x,-y,-z
y,-x,-z
x,y,-z
-y,x,-z
-x,y,1/2+z
x,-y,1/2+z
-y,-x,1/2+z
y,x,1/2+z
loop_
_atom_site_type_symbol
_atom_site_label
_atom_site_fract_x
_atom_site_fract_y
_atom_site_fract_z
Si Si1 0.012930 0.651937 0.689914
Si Si2 0.211216 0.996370 0.960867
Si Si3 0.641879 0.048374 0.389732
Si Si4 0.288328 0.742628 0.288783
Si Si5 0.403285 0.318288 0.136014
O O1 0.999384 0.694412 0.648393
O O2 0.894523 0.705755 0.711840
O O3 0.000000 0.500000 0.691425
O O4 0.148893 0.695670 0.702078
O O5 0.293099 0.000595 0.925416
O O6 0.121997 0.118337 0.959872
O O7 0.276642 0.995398 0.000000
O O8 0.645529 0.199203 0.385848
O O9 0.500000 0.000000 0.390498
O O10 0.315941 0.684060 0.250000
O O11 0.379737 0.707428 0.321663
O O12 0.550528 0.335541 0.128413
#
# Coordination Sequence:
#
# PCOD9562644 Si02
#       5
#    16  16  16  16  16
#     4  10  23  39  55  84 117 151 198 253 296 350
#     4   9  20  37  58  88 120 146 180 235 290 340
#     4  10  21  35  61  84 113 151 192 232 288 354
#     4  11  22  37  58  80 114 157 197 244 305 355
#     4  10  22  38  56  82 116 149 196 249 287 335
#
# _framework density 18.884855999999999
#
# number of rings (size 3 to 8) (size 9 to 14) (size 15 to 20)
#    0.000    2.000    0.000    4.800    8.400    4.800 
#    0.000    2.000    0.000    0.000    0.000    1.400 
#    0.000    0.000    0.000    0.000    0.000    0.000 
#
# Total GULP energy -446537.196268 kJ/mol
# GULP energy per Si atom -5581.714953 kJ/mol
# Density = 1.884187 g / cm^3
# Si number density = 18.884856 Si / 1000 Ang^3
#
#
#
# Elastic Constant Matrix: (Units=GPa)
#
#
# Indices 1 2 3 4 5 6 
#
# 1 43.2145 15.6565 3.2928 0.0000 0.0000 0.0000
# 2 15.6565 43.2147 3.2929 0.0000 0.0000 0.0000
# 3 3.2928 3.2929 83.4426 0.0000 0.0000 0.0000
# 4 0.0000 0.0000 0.0000 -0.9869 0.0000 0.0000
# 5 0.0000 0.0000 0.0000 0.0000 -0.9874 0.0000
# 6 0.0000 0.0000 0.0000 0.0000 0.0000 20.4831
#
#
#
# Elastic Compliance Matrix: (Units=1/GPa)
#
#
# Indices 1 2 3 4 5 6 
#
# 1 0.026674 -0.009613 -0.000673 0.000000 0.000000 0.000000
# 2 -0.009613 0.026674 -0.000673 0.000000 0.000000 0.000000
# 3 -0.000673 -0.000673 0.012037 0.000000 0.000000 0.000000
# 4 0.000000 0.000000 0.000000 -1.013230 0.000000 0.000000
# 5 0.000000 0.000000 0.000000 0.000000 -1.012754 0.000000
# 6 0.000000 0.000000 0.000000 0.000000 0.000000 0.048821
#
#
# Mechanical properties :
#
#
# Convention : Reuss Voigt Hill
#
# Bulk Modulus (GPa) = 23.00574 23.81736 23.41155
# Shear Modulus (GPa) = -2.66614 13.54373 5.43880
#
# Velocity S-wave (km/s) = -1.18948 2.68092 1.69889
# Velocity P-wave (km/s) = 3.21280 4.71406 4.03388
#
# Compressibility (1/GPa) = 0.04346742
#
# Stress axis : x y z
#
# Youngs Moduli (GPa) = 37.48920 37.48935 83.07426
#
# Poissons Ratio (x) = 0.36037 0.05593
# Poissons Ratio (y) = 0.36037 0.05593
# Poissons Ratio (z) = 0.02524 0.02524
#
# Static dielectric constant tensor:
#      x y z
#    x 1.657310 0.000000 0.000000 
#    y 0.000000 1.657310 0.000000 
#    z 0.000000 0.000000 1.671270 
# 
# From -- ./inp_files/6928.got.cif
#   From: 2010.05.17/outbox.cif.g08.bks.cpg/sg124_4_cif.got.tgz:6928.got - 2010.05.20 11:49:17.
