data_PCOD9562713
_publ_section_title
;
Structure prediction by ZEFSAII (Michael W. Deem and Ramdas Pophale) SiO2 
 PCOD9562713
Probable space group: P 4/M C C
;
_chemical_formula_sum "Si O2"
_cell_formula_units_Z 64
_cell_length_a 13.020787
_cell_length_b 13.020787
_cell_length_c 13.483704
_cell_angle_alpha 90.000000
_cell_angle_beta 90.000000
_cell_angle_gamma 90.000000
_cell_volume 2286.039232
_symmetry_space_group_name_H-M "P 4/M C C"
_symmetry_group_IT_number 124
_symmetry_cell_setting 'tetragonal'
loop_
_space_group_symop_operation_xyz
x,y,z
-y,x,z
-x,-y,z
y,-x,z
x,-y,1/2-z
-x,y,1/2-z
y,x,1/2-z
-y,-x,1/2-z
-x,-y,-z
y,-x,-z
x,y,-z
-y,x,-z
-x,y,1/2+z
x,-y,1/2+z
-y,-x,1/2+z
y,x,1/2+z
loop_
_atom_site_type_symbol
_atom_site_label
_atom_site_fract_x
_atom_site_fract_y
_atom_site_fract_z
Si Si1 0.662035 0.471288 0.133905
Si Si2 0.936364 0.606571 0.888439
Si Si3 0.096830 0.136550 0.618544
Si Si4 0.149277 0.339434 0.674895
O O1 0.615204 0.580308 0.100176
O O2 0.658879 0.500000 0.250000
O O3 0.774067 0.420215 0.122189
O O4 0.869630 0.623659 0.788783
O O5 0.000000 0.500000 0.880008
O O6 0.038592 0.673862 0.877324
O O7 0.891359 0.615813 0.000000
O O8 0.100628 0.139054 0.500000
O O9 0.178402 0.221520 0.656500
O O10 0.976819 0.135534 0.648321
#
# Coordination Sequence:
#
# PCOD9562713 Si02
#       4
#    16  16  16  16
#     4   9  19  39  68 107 148 185 243 312 369 440
#     4  10  22  41  65 100 152 193 242 316 374 440
#     4   9  20  43  73 108 154 202 254 316 377 452
#     4  11  20  40  73 109 135 196 255 302 379 458
#
# _framework density 27.996020999999999
#
# number of rings (size 3 to 8) (size 9 to 14) (size 15 to 20)
#    0.000    2.250    0.000    5.250    0.000    0.000 
#   27.000    0.000    0.000   16.500    0.000   21.000 
#    0.000   32.000    0.000    0.000    0.000    0.000 
#
# Total GULP energy -356905.390576 kJ/mol
# GULP energy per Si atom -5576.646728 kJ/mol
# Density = 2.793230 g / cm^3
# Si number density = 27.996021 Si / 1000 Ang^3
#
#
#
# Elastic Constant Matrix: (Units=GPa)
#
#
# Indices 1 2 3 4 5 6 
#
# 1 146.7442 47.6807 21.9333 0.0000 0.0000 0.0000
# 2 47.6807 146.7442 21.9333 0.0000 0.0000 0.0000
# 3 21.9333 21.9333 233.3861 0.0000 0.0000 0.0000
# 4 0.0000 0.0000 0.0000 0.5403 0.0000 0.0000
# 5 0.0000 0.0000 0.0000 0.0000 0.5403 0.0000
# 6 0.0000 0.0000 0.0000 0.0000 0.0000 32.4778
#
#
#
# Elastic Compliance Matrix: (Units=1/GPa)
#
#
# Indices 1 2 3 4 5 6 
#
# 1 0.007675 -0.002420 -0.000494 0.000000 0.000000 0.000000
# 2 -0.002420 0.007675 -0.000494 0.000000 0.000000 0.000000
# 3 -0.000494 -0.000494 0.004378 0.000000 0.000000 0.000000
# 4 0.000000 0.000000 0.000000 1.850733 0.000000 0.000000
# 5 0.000000 0.000000 0.000000 0.000000 1.850733 0.000000
# 6 0.000000 0.000000 0.000000 0.000000 0.000000 0.030790
#
#
# Mechanical properties :
#
#
# Convention : Reuss Voigt Hill
#
# Bulk Modulus (GPa) = 77.44851 78.88545 78.16698
# Shear Modulus (GPa) = 1.32869 35.73350 18.53110
#
# Velocity S-wave (km/s) = 0.68966 3.57652 2.57557
# Velocity P-wave (km/s) = 5.32526 6.73007 6.06845
#
# Compressibility (1/GPa) = 0.01291180
#
# Stress axis : x y z
#
# Youngs Moduli (GPa) = 130.29888 130.29888 228.43751
#
# Poissons Ratio (x) = 0.31531 0.11281
# Poissons Ratio (y) = 0.31531 0.11281
# Poissons Ratio (z) = 0.06435 0.06435
#
# Static dielectric constant tensor:
#      x y z
#    x 2.796470 0.000000 0.000000 
#    y 0.000000 2.796470 0.000000 
#    z 0.000000 0.000000 2.223970 
# 
# From -- ./inp_files/2979.got.cif
#   From: 2010.05.17/outbox.cif.g08.bks.cpg/sg124_2_cif.got.tgz:2979.got - 2010.05.20 11:49:17.
