data_PCOD9562968
_publ_section_title
;
Structure prediction by ZEFSAII (Michael W. Deem and Ramdas Pophale) SiO2 
 PCOD9562968
Probable space group: P 4/N B M
;
_chemical_formula_sum "Si O2"
_cell_formula_units_Z 96
_cell_length_a 15.117785
_cell_length_b 15.117785
_cell_length_c 20.350580
_cell_angle_alpha 90.000000
_cell_angle_beta 90.000000
_cell_angle_gamma 90.000000
_cell_volume 4651.072622
_symmetry_space_group_name_H-M "P 4/N B M"
_symmetry_group_IT_number 125
_space_group.IT_coordinate_system_code '2'
_symmetry_cell_setting 'tetragonal'
loop_
_space_group_symop_operation_xyz
x,y,z
1/2-y,x,z
1/2-x,1/2-y,z
y,1/2-x,z
x,1/2-y,-z
1/2-x,y,-z
y,x,-z
1/2-y,1/2-x,-z
-x,-y,-z
1/2+y,-x,-z
1/2+x,1/2+y,-z
-y,1/2+x,-z
-x,1/2+y,z
1/2+x,-y,z
-y,-x,z
1/2+y,1/2+x,z
loop_
_atom_site_type_symbol
_atom_site_label
_atom_site_fract_x
_atom_site_fract_y
_atom_site_fract_z
Si Si1 0.475556 0.667096 0.548125
Si Si2 0.153009 0.362693 0.376328
Si Si3 0.877910 0.528760 0.255312
Si Si4 0.914445 0.566594 0.110853
Si Si5 0.838754 0.484717 0.984847
Si Si6 0.106282 0.744888 0.317010
O O1 0.487412 0.750000 0.500000
O O2 0.404100 0.595901 0.523118
O O3 0.567735 0.621297 0.569212
O O4 0.436284 0.707576 0.616311
O O5 0.131278 0.259211 0.382375
O O6 0.107155 0.389109 0.307922
O O7 0.872351 0.568084 0.182210
O O8 0.792170 0.469087 0.273675
O O9 0.961756 0.461756 0.259877
O O10 0.851262 0.546339 0.048888
O O11 0.985783 0.485783 0.114269
O O12 0.965685 0.652967 0.084560
O O13 0.920615 0.420615 0.985613
O O14 0.750000 0.433916 0.000000
O O15 0.177791 0.822209 0.332283
O O16 0.163789 0.663789 0.286701
#
# Coordination Sequence:
#
# PCOD9562968 Si02
#       6
#    16  16  16  16  16  16
#     4  11  23  42  67  95 122 157 202 253 311 372
#     4  11  24  42  59  84 124 165 204 251 302 361
#     4  10  19  37  63  89 118 160 210 259 316 380
#     4   8  17  33  55  80 113 158 202 245 302 372
#     4   9  17  32  52  80 116 156 202 253 305 363
#     4   9  18  35  60  90 123 154 194 256 317 366
#
# _framework density 20.640402000000002
#
# number of rings (size 3 to 8) (size 9 to 14) (size 15 to 20)
#    0.000    2.333    1.667    2.000    0.000    3.000 
#    0.000    2.500    0.000    7.000    0.000    0.000 
#    0.000    0.000    0.000    0.000    0.000    0.000 
#
# Total GULP energy -534845.588423 kJ/mol
# GULP energy per Si atom -5571.308213 kJ/mol
# Density = 2.059342 g / cm^3
# Si number density = 20.640402 Si / 1000 Ang^3
#
#
#
# Elastic Constant Matrix: (Units=GPa)
#
#
# Indices 1 2 3 4 5 6 
#
# 1 52.8552 49.8189 45.1377 0.0000 0.0000 0.0000
# 2 49.8189 52.8552 45.1377 0.0000 0.0000 0.0000
# 3 45.1377 45.1377 131.6470 0.0000 0.0000 0.0000
# 4 0.0000 0.0000 0.0000 21.1715 0.0000 0.0000
# 5 0.0000 0.0000 0.0000 0.0000 21.1715 0.0000
# 6 0.0000 0.0000 0.0000 0.0000 0.0000 -3.1191
#
#
#
# Elastic Compliance Matrix: (Units=1/GPa)
#
#
# Indices 1 2 3 4 5 6 
#
# 1 0.171646 -0.157703 -0.004781 0.000000 0.000000 0.000000
# 2 -0.157703 0.171646 -0.004781 0.000000 0.000000 0.000000
# 3 -0.004781 -0.004781 0.010874 0.000000 0.000000 0.000000
# 4 0.000000 0.000000 0.000000 0.047233 0.000000 0.000000
# 5 0.000000 0.000000 0.000000 0.000000 0.047233 0.000000
# 6 0.000000 0.000000 0.000000 0.000000 0.000000 -0.320608
#
#
# Mechanical properties :
#
#
# Convention : Reuss Voigt Hill
#
# Bulk Modulus (GPa) = 50.92247 57.50511 54.21379
# Shear Modulus (GPa) = 10.65873 14.32899 12.49386
#
# Velocity S-wave (km/s) = 2.27491 2.63766 2.46298
# Velocity P-wave (km/s) = 5.62362 6.09896 5.86611
#
# Compressibility (1/GPa) = 0.01963770
#
# Stress axis : x y z
#
# Youngs Moduli (GPa) = 5.82595 5.82595 91.95992
#
# Poissons Ratio (x) = 0.91877 0.43962
# Poissons Ratio (y) = 0.91877 0.43962
# Poissons Ratio (z) = 0.02785 0.02785
#
# Static dielectric constant tensor:
#      x y z
#    x 1.778450 0.000000 0.000000 
#    y 0.000000 1.778450 0.000000 
#    z 0.000000 0.000000 1.715710 
# 
# From -- ./inp_files/5916.got.cif
#   From: 2010.05.17/outbox.cif.g08.bks.cpg/sg125_3_cif.got.tgz:5916.got - 2010.05.20 11:54:10.
