data_PCOD9562701
_publ_section_title
;
Structure prediction by ZEFSAII (Michael W. Deem and Ramdas Pophale) SiO2 
 PCOD9562701
Probable space group: P 4/M C C
;
_chemical_formula_sum "Si O2"
_cell_formula_units_Z 56
_cell_length_a 16.476894
_cell_length_b 16.476894
_cell_length_c 10.118100
_cell_angle_alpha 90.000000
_cell_angle_beta 90.000000
_cell_angle_gamma 90.000000
_cell_volume 2746.943096
_symmetry_space_group_name_H-M "P 4/M C C"
_symmetry_group_IT_number 124
_symmetry_cell_setting 'tetragonal'
loop_
_space_group_symop_operation_xyz
x,y,z
-y,x,z
-x,-y,z
y,-x,z
x,-y,1/2-z
-x,y,1/2-z
y,x,1/2-z
-y,-x,1/2-z
-x,-y,-z
y,-x,-z
x,y,-z
-y,x,-z
-x,y,1/2+z
x,-y,1/2+z
-y,-x,1/2+z
y,x,1/2+z
loop_
_atom_site_type_symbol
_atom_site_label
_atom_site_fract_x
_atom_site_fract_y
_atom_site_fract_z
Si Si1 0.596460 0.269449 0.248262
Si Si2 0.844055 0.577483 0.000000
Si Si3 0.384823 0.161291 0.000000
Si Si4 0.930103 0.843880 0.152401
Si Si5 0.304481 0.012162 0.500000
O O1 0.500000 0.288520 0.250000
O O2 0.649707 0.350294 0.250000
O O3 0.604813 0.209958 0.123798
O O4 0.625776 0.216969 0.372494
O O5 0.931295 0.618038 0.000000
O O6 0.858407 0.481054 0.000000
O O7 0.329574 0.081328 0.000000
O O8 0.853275 0.853275 0.250000
O O9 0.000000 0.878816 0.250000
O O10 0.960016 0.753394 0.120261
O O11 0.918706 0.878088 0.000000
#
# Coordination Sequence:
#
# PCOD9562701 Si02
#       5
#    16   8   8  16   8
#     4  10  22  41  64  96 134 174 219 271 333 391
#     4  10  22  39  61  93 129 175 210 270 324 385
#     4  10  22  41  63  93 131 164 219 268 321 394
#     4  10  23  42  63  91 126 160 216 272 327 388
#     4  10  25  38  68  89 132 169 222 257 338 397
#
# _framework density 20.386296000000002
#
# number of rings (size 3 to 8) (size 9 to 14) (size 15 to 20)
#    0.857    1.143    0.000    2.143    4.000    1.714 
#    5.143    5.714    0.000    5.143    0.000    0.000 
#    0.000    0.000    0.000    0.000    0.000    0.000 
#
# Total GULP energy -311915.288898 kJ/mol
# GULP energy per Si atom -5569.915873 kJ/mol
# Density = 2.033990 g / cm^3
# Si number density = 20.386296 Si / 1000 Ang^3
#
#
#
# Elastic Constant Matrix: (Units=GPa)
#
#
# Indices 1 2 3 4 5 6 
#
# 1 87.5444 73.6549 40.5383 0.0000 0.0000 0.0000
# 2 73.6549 87.5342 40.5366 0.0000 0.0000 0.0000
# 3 40.5383 40.5366 172.4150 0.0000 0.0000 0.0000
# 4 0.0000 0.0000 0.0000 18.4883 0.0000 0.0000
# 5 0.0000 0.0000 0.0000 0.0000 18.4923 0.0000
# 6 0.0000 0.0000 0.0000 0.0000 0.0000 45.9056
#
#
#
# Elastic Compliance Matrix: (Units=1/GPa)
#
#
# Indices 1 2 3 4 5 6 
#
# 1 0.039527 -0.032494 -0.001654 0.000000 0.000000 0.000000
# 2 -0.032494 0.039532 -0.001654 0.000000 0.000000 0.000000
# 3 -0.001654 -0.001654 0.006578 0.000000 0.000000 0.000000
# 4 0.000000 0.000000 0.000000 0.054088 0.000000 0.000000
# 5 0.000000 0.000000 0.000000 0.000000 0.054077 0.000000
# 6 0.000000 0.000000 0.000000 0.000000 0.000000 0.021784
#
#
# Mechanical properties :
#
#
# Convention : Reuss Voigt Hill
#
# Bulk Modulus (GPa) = 71.26361 72.99481 72.12921
# Shear Modulus (GPa) = 17.13105 29.42815 23.27960
#
# Velocity S-wave (km/s) = 2.90198 3.80350 3.38290
# Velocity P-wave (km/s) = 6.80155 7.42781 7.12157
#
# Compressibility (1/GPa) = 0.01403241
#
# Stress axis : x y z
#
# Youngs Moduli (GPa) = 25.29903 25.29596 152.02607
#
# Poissons Ratio (x) = 0.82196 0.25145
# Poissons Ratio (y) = 0.82206 0.25152
# Poissons Ratio (z) = 0.04184 0.04185
#
# Static dielectric constant tensor:
#      x y z
#    x 1.760900 0.000000 0.000000 
#    y 0.000000 1.760900 0.000000 
#    z 0.000000 0.000000 1.761210 
# 
# From -- ./inp_files/691.got.cif
#   From: 2010.05.17/outbox.cif.g08.bks.cpg/sg124_1_cif.got.tgz:691.got - 2010.05.20 11:49:17.
