data_PCOD9562926
_publ_section_title
;
Structure prediction by ZEFSAII (Michael W. Deem and Ramdas Pophale) SiO2 
 PCOD9562926
Probable space group: P 4/N B M
;
_chemical_formula_sum "Si O2"
_cell_formula_units_Z 64
_cell_length_a 14.088534
_cell_length_b 14.088534
_cell_length_c 16.459630
_cell_angle_alpha 90.000000
_cell_angle_beta 90.000000
_cell_angle_gamma 90.000000
_cell_volume 3267.019128
_symmetry_space_group_name_H-M "P 4/N B M"
_symmetry_group_IT_number 125
_space_group.IT_coordinate_system_code '2'
_symmetry_cell_setting 'tetragonal'
loop_
_space_group_symop_operation_xyz
x,y,z
1/2-y,x,z
1/2-x,1/2-y,z
y,1/2-x,z
x,1/2-y,-z
1/2-x,y,-z
y,x,-z
1/2-y,1/2-x,-z
-x,-y,-z
1/2+y,-x,-z
1/2+x,1/2+y,-z
-y,1/2+x,-z
-x,1/2+y,z
1/2+x,-y,z
-y,-x,z
1/2+y,1/2+x,z
loop_
_atom_site_type_symbol
_atom_site_label
_atom_site_fract_x
_atom_site_fract_y
_atom_site_fract_z
Si Si1 0.750941 0.094251 0.842431
Si Si2 0.883042 0.958511 0.758519
Si Si3 0.365011 0.360795 0.587294
Si Si4 0.044724 0.117908 0.080309
O O1 0.838417 0.161584 0.870192
O O2 0.666023 0.166023 0.817755
O O3 0.791435 0.026194 0.771885
O O4 0.708430 0.023783 0.909634
O O5 0.891096 0.908349 0.672410
O O6 0.893327 0.891448 0.837419
O O7 0.971162 0.028839 0.763141
O O8 0.252710 0.378600 0.587311
O O9 0.400352 0.400352 0.500000
O O10 0.107599 0.107599 0.000000
O O11 0.971600 0.028401 0.079084
#
# Coordination Sequence:
#
# PCOD9562926 Si02
#       4
#    16  16  16  16
#     4   9  18  33  52  75 106 146 189 229 273 330
#     4  10  19  31  51  77 103 135 175 220 270 322
#     4   9  18  33  52  72  96 128 166 211 266 324
#     4   9  18  32  48  70 103 139 176 220 267 315
#
# _framework density 19.589721000000001
#
# number of rings (size 3 to 8) (size 9 to 14) (size 15 to 20)
#    0.000    2.750    0.000    2.250    0.000    1.500 
#    0.000    3.750    0.000   12.000    0.000    1.750 
#    0.000    8.000    0.000    0.000    0.000    0.000 
#
# Total GULP energy -356486.433537 kJ/mol
# GULP energy per Si atom -5570.100524 kJ/mol
# Density = 1.954513 g / cm^3
# Si number density = 19.589721 Si / 1000 Ang^3
#
#
#
# Elastic Constant Matrix: (Units=GPa)
#
#
# Indices 1 2 3 4 5 6 
#
# 1 -2150.9207 2239.7226 52.0937 0.0000 0.0000 0.0000
# 2 2239.7226-2150.9207 52.0937 0.0000 0.0000 0.0000
# 3 52.0937 52.0937 190.6177 0.0000 0.0000 0.0000
# 4 0.0000 0.0000 0.0000 29.3539 0.0000 0.0000
# 5 0.0000 0.0000 0.0000 0.0000 29.3539 0.0000
# 6 0.0000 0.0000 0.0000 0.0000 0.0000 16.5951
#
#
#
# Elastic Compliance Matrix: (Units=1/GPa)
#
#
# Indices 1 2 3 4 5 6 
#
# 1 0.008174 0.008402 -0.004530 0.000000 0.000000 0.000000
# 2 0.008402 0.008174 -0.004530 0.000000 0.000000 0.000000
# 3 -0.004530 -0.004530 0.007722 0.000000 0.000000 0.000000
# 4 0.000000 0.000000 0.000000 0.034067 0.000000 0.000000
# 5 0.000000 0.000000 0.000000 0.000000 0.034067 0.000000
# 6 0.000000 0.000000 0.000000 0.000000 0.000000 0.060259
#
#
# Mechanical properties :
#
#
# Convention : Reuss Voigt Hill
#
# Bulk Modulus (GPa) = 43.94863 64.06624 54.00743
# Shear Modulus (GPa) = 30.98585 -415.28167 -192.14791
#
# Velocity S-wave (km/s) = 3.98142 -14.57566 -9.91459
# Velocity P-wave (km/s) = 6.60446 15.82692 10.17036
#
# Compressibility (1/GPa) = 0.02275384
#
# Stress axis : x y z
#
# Youngs Moduli (GPa) = 122.33832 122.33832 129.49852
#
# Poissons Ratio (x) = -1.02786 0.58663
# Poissons Ratio (y) = -1.02786 0.58663
# Poissons Ratio (z) = 0.55419 0.55419
#
# Static dielectric constant tensor:
#      x y z
#    x 1.717630 0.000000 0.000000 
#    y 0.000000 1.717630 0.000000 
#    z 0.000000 0.000000 1.737520 
# 
# From -- ./inp_files/4600.got.cif
#   From: 2010.05.17/outbox.cif.g08.bks.cpg/sg125_3_cif.got.tgz:4600.got - 2010.05.20 11:54:10.
