data_PCOD9562503
_publ_section_title
;
Structure prediction by ZEFSAII (Michael W. Deem and Ramdas Pophale) SiO2 
 PCOD9562503
Probable space group: P 4/M C C
;
_chemical_formula_sum "Si O2"
_cell_formula_units_Z 96
_cell_length_a 25.906705
_cell_length_b 25.906705
_cell_length_c 8.852503
_cell_angle_alpha 90.000000
_cell_angle_beta 90.000000
_cell_angle_gamma 90.000000
_cell_volume 5941.422578
_symmetry_space_group_name_H-M "P 4/M C C"
_symmetry_group_IT_number 124
_symmetry_cell_setting 'tetragonal'
loop_
_space_group_symop_operation_xyz
x,y,z
-y,x,z
-x,-y,z
y,-x,z
x,-y,1/2-z
-x,y,1/2-z
y,x,1/2-z
-y,-x,1/2-z
-x,-y,-z
y,-x,-z
x,y,-z
-y,x,-z
-x,y,1/2+z
x,-y,1/2+z
-y,-x,1/2+z
y,x,1/2+z
loop_
_atom_site_type_symbol
_atom_site_label
_atom_site_fract_x
_atom_site_fract_y
_atom_site_fract_z
Si Si1 0.138161 0.666274 0.680912
Si Si2 0.746875 0.333294 0.818970
Si Si3 0.944309 0.135368 0.819708
Si Si4 0.252938 0.448694 0.680288
Si Si5 0.137764 0.551084 0.680099
Si Si6 0.743657 0.055812 0.319480
O O1 0.142021 0.671387 0.500000
O O2 0.195475 0.671079 0.750882
O O3 0.116852 0.608277 0.713587
O O4 0.100021 0.708375 0.748940
O O5 0.709451 0.290550 0.750000
O O6 0.726117 0.391459 0.785674
O O7 0.750024 0.327972 0.000000
O O8 0.900643 0.099358 0.750000
O O9 0.934390 0.195809 0.785910
O O10 0.000000 0.122107 0.750000
O O11 0.946054 0.129194 0.000000
O O12 0.278516 0.500000 0.750000
O O13 0.249753 0.454514 0.500000
O O14 0.195314 0.447313 0.749884
O O15 0.111948 0.500000 0.750000
O O16 0.141089 0.545017 0.500000
O O17 0.737394 0.054343 0.500000
O O18 0.730555 0.000000 0.250000
#
# Coordination Sequence:
#
# PCOD9562503 Si02
#       6
#    16  16  16  16  16  16
#     4  10  20  33  50  72  98 129 164 200 242 292
#     4  10  20  32  46  68  99 132 164 200 243 289
#     4  10  21  37  57  80 104 129 158 193 234 280
#     4   9  16  26  42  63  88 121 160 198 237 283
#     4   9  16  26  43  67  93 122 156 196 240 284
#     4  10  21  37  56  76  99 129 165 203 241 283
#
# _framework density 16.157747000000001
#
# number of rings (size 3 to 8) (size 9 to 14) (size 15 to 20)
#    0.000    2.333    0.000    4.000    0.000    6.833 
#    0.000    2.500    0.000    0.500    0.000    3.500 
#    0.000    0.333    0.000    3.667    0.000    2.667 
#
# Total GULP energy -534990.433820 kJ/mol
# GULP energy per Si atom -5572.817019 kJ/mol
# Density = 1.612097 g / cm^3
# Si number density = 16.157747 Si / 1000 Ang^3
#
#
#
# Elastic Constant Matrix: (Units=GPa)
#
#
# Indices 1 2 3 4 5 6 
#
# 1 101.8732 79.0726 55.6665 0.0000 0.0000 0.0000
# 2 79.0726 101.8666 55.6674 0.0000 0.0000 0.0000
# 3 55.6665 55.6674 78.4773 0.0000 0.0000 0.0000
# 4 0.0000 0.0000 0.0000 28.8352 0.0000 0.0000
# 5 0.0000 0.0000 0.0000 0.0000 28.8358 0.0000
# 6 0.0000 0.0000 0.0000 0.0000 0.0000 -5.1884
#
#
#
# Elastic Compliance Matrix: (Units=1/GPa)
#
#
# Indices 1 2 3 4 5 6 
#
# 1 0.026834 -0.017029 -0.006955 0.000000 0.000000 0.000000
# 2 -0.017029 0.026838 -0.006958 0.000000 0.000000 0.000000
# 3 -0.006955 -0.006958 0.022611 0.000000 0.000000 0.000000
# 4 0.000000 0.000000 0.000000 0.034680 0.000000 0.000000
# 5 0.000000 0.000000 0.000000 0.000000 0.034679 0.000000
# 6 0.000000 0.000000 0.000000 0.000000 0.000000 -0.192739
#
#
# Mechanical properties :
#
#
# Convention : Reuss Voigt Hill
#
# Bulk Modulus (GPa) = 69.44642 73.67003 71.55823
# Shear Modulus (GPa) = 255.28191 16.61723 135.94957
#
# Velocity S-wave (km/s) = 12.58318 3.21041 9.18268
# Velocity P-wave (km/s) = 15.94330 7.70944 12.52247
#
# Compressibility (1/GPa) = 0.01439959
#
# Stress axis : x y z
#
# Youngs Moduli (GPa) = 37.26592 37.26116 44.22541
#
# Poissons Ratio (x) = 0.63452 0.30758
# Poissons Ratio (y) = 0.63460 0.30772
# Poissons Ratio (z) = 0.25918 0.25926
#
# Static dielectric constant tensor:
#      x y z
#    x 1.543740 0.000000 0.000000 
#    y 0.000000 1.543740 0.000000 
#    z 0.000000 0.000000 1.537090 
# 
# From -- ./inp_files/1401.got.cif
#   From: 2010.05.17/outbox.cif.g08.bks.cpg/sg124_1_cif.got.tgz:1401.got - 2010.05.20 11:49:17.
