data_PCOD9562537
_publ_section_title
;
Structure prediction by ZEFSAII (Michael W. Deem and Ramdas Pophale) SiO2 
 PCOD9562537
Probable space group: P 4/M C C
;
_chemical_formula_sum "Si O2"
_cell_formula_units_Z 96
_cell_length_a 24.169760
_cell_length_b 24.169760
_cell_length_c 8.879271
_cell_angle_alpha 90.000000
_cell_angle_beta 90.000000
_cell_angle_gamma 90.000000
_cell_volume 5187.068545
_symmetry_space_group_name_H-M "P 4/M C C"
_symmetry_group_IT_number 124
_symmetry_cell_setting 'tetragonal'
loop_
_space_group_symop_operation_xyz
x,y,z
-y,x,z
-x,-y,z
y,-x,z
x,-y,1/2-z
-x,y,1/2-z
y,x,1/2-z
-y,-x,1/2-z
-x,-y,-z
y,-x,-z
x,y,-z
-y,x,-z
-x,y,1/2+z
x,-y,1/2+z
-y,-x,1/2+z
y,x,1/2+z
loop_
_atom_site_type_symbol
_atom_site_label
_atom_site_fract_x
_atom_site_fract_y
_atom_site_fract_z
Si Si1 0.852399 0.443655 0.176836
Si Si2 0.055889 0.259238 0.169650
Si Si3 0.262920 0.177894 0.182270
Si Si4 0.626048 0.753150 0.182468
Si Si5 0.561351 0.356411 0.682692
Si Si6 0.947329 0.610169 0.167266
O O1 0.870898 0.500000 0.250000
O O2 0.793005 0.423892 0.231882
O O3 0.895359 0.397682 0.226239
O O4 0.850723 0.449377 0.000000
O O5 0.114778 0.258350 0.256881
O O6 0.044160 0.324647 0.152432
O O7 0.000000 0.236389 0.250000
O O8 0.062309 0.236217 0.000000
O O9 0.211620 0.211620 0.250000
O O10 0.317399 0.215011 0.230468
O O11 0.262824 0.176726 0.000000
O O12 0.604989 0.692546 0.227730
O O13 0.629074 0.752581 0.000000
O O14 0.500000 0.346447 0.750000
O O15 0.587610 0.412391 0.750000
O O16 0.558492 0.358015 0.500000
O O17 0.000000 0.584631 0.250000
O O18 0.938245 0.587024 0.000000
#
# Coordination Sequence:
#
# PCOD9562537 Si02
#       6
#    16  16  16  16  16  16
#     4  11  21  35  52  74 103 139 182 231 280 331
#     4  10  20  35  56  82 112 151 194 237 286 339
#     4  11  21  36  57  86 120 155 193 237 282 334
#     4   9  20  37  58  82 113 147 183 224 276 333
#     4  11  23  42  64  89 114 143 178 222 277 341
#     4  10  20  34  52  74 100 136 182 231 281 332
#
# _framework density 18.507565
#
# number of rings (size 3 to 8) (size 9 to 14) (size 15 to 20)
#    0.000    1.667    1.667    3.500    0.000    1.833 
#    0.000    7.500    0.000    0.000    0.000    0.000 
#    0.000    0.333    0.000    3.333    0.000    2.000 
#
# Total GULP energy -534660.687571 kJ/mol
# GULP energy per Si atom -5569.382162 kJ/mol
# Density = 1.846544 g / cm^3
# Si number density = 18.507565 Si / 1000 Ang^3
#
#
#
# Elastic Constant Matrix: (Units=GPa)
#
#
# Indices 1 2 3 4 5 6 
#
# 1 82.2566 36.6693 35.0233 0.0000 0.0000 0.0000
# 2 36.6693 82.2518 35.0220 0.0000 0.0000 0.0000
# 3 35.0233 35.0220 76.9809 0.0000 0.0000 0.0000
# 4 0.0000 0.0000 0.0000 23.6470 0.0000 0.0000
# 5 0.0000 0.0000 0.0000 0.0000 23.6473 0.0000
# 6 0.0000 0.0000 0.0000 0.0000 0.0000 34.0126
#
#
#
# Elastic Compliance Matrix: (Units=1/GPa)
#
#
# Indices 1 2 3 4 5 6 
#
# 1 0.016711 -0.005225 -0.005226 0.000000 0.000000 0.000000
# 2 -0.005225 0.016712 -0.005226 0.000000 0.000000 0.000000
# 3 -0.005226 -0.005226 0.017745 0.000000 0.000000 0.000000
# 4 0.000000 0.000000 0.000000 0.042289 0.000000 0.000000
# 5 0.000000 0.000000 0.000000 0.000000 0.042288 0.000000
# 6 0.000000 0.000000 0.000000 0.000000 0.000000 0.029401
#
#
# Mechanical properties :
#
#
# Convention : Reuss Voigt Hill
#
# Bulk Modulus (GPa) = 50.46637 50.54650 50.50644
# Shear Modulus (GPa) = 24.61767 25.24635 24.93201
#
# Velocity S-wave (km/s) = 3.65107 3.69739 3.67430
# Velocity P-wave (km/s) = 6.71572 6.75264 6.73421
#
# Compressibility (1/GPa) = 0.01981517
#
# Stress axis : x y z
#
# Youngs Moduli (GPa) = 59.83905 59.83575 56.35265
#
# Poissons Ratio (x) = 0.31265 0.29450
# Poissons Ratio (y) = 0.31267 0.29450
# Poissons Ratio (z) = 0.31272 0.31270
#
# Static dielectric constant tensor:
#      x y z
#    x 1.607210 0.000000 0.000000 
#    y 0.000000 1.607210 0.000000 
#    z 0.000000 0.000000 1.657980 
# 
# From -- ./inp_files/1359.got.cif
#   From: 2010.05.17/outbox.cif.g08.bks.cpg/sg124_1_cif.got.tgz:1359.got - 2010.05.20 11:49:17.
