data_PCOD9562974
_publ_section_title
;
Structure prediction by ZEFSAII (Michael W. Deem and Ramdas Pophale) SiO2 
 PCOD9562974
Probable space group: P 4/N B M
;
_chemical_formula_sum "Si O2"
_cell_formula_units_Z 128
_cell_length_a 25.138454
_cell_length_b 25.138454
_cell_length_c 11.574803
_cell_angle_alpha 90.000000
_cell_angle_beta 90.000000
_cell_angle_gamma 90.000000
_cell_volume 7314.602647
_symmetry_space_group_name_H-M "P 4/N B M"
_symmetry_group_IT_number 125
_space_group.IT_coordinate_system_code '2'
_symmetry_cell_setting 'tetragonal'
loop_
_space_group_symop_operation_xyz
x,y,z
1/2-y,x,z
1/2-x,1/2-y,z
y,1/2-x,z
x,1/2-y,-z
1/2-x,y,-z
y,x,-z
1/2-y,1/2-x,-z
-x,-y,-z
1/2+y,-x,-z
1/2+x,1/2+y,-z
-y,1/2+x,-z
-x,1/2+y,z
1/2+x,-y,z
-y,-x,z
1/2+y,1/2+x,z
loop_
_atom_site_type_symbol
_atom_site_label
_atom_site_fract_x
_atom_site_fract_y
_atom_site_fract_z
Si Si1 0.951455 0.962043 0.631229
Si Si2 0.241670 0.163427 0.637554
Si Si3 0.846751 0.541097 0.919156
Si Si4 0.431920 0.373675 0.830235
Si Si5 0.336231 0.750014 0.640381
Si Si6 0.246220 0.438460 0.777755
Si Si7 0.621375 0.036939 0.729096
Si Si8 0.265094 0.957016 0.366477
O O1 0.942379 0.942379 0.500000
O O2 0.902360 0.959550 0.720496
O O3 0.995188 0.921549 0.681516
O O4 0.980124 0.019877 0.625715
O O5 0.296076 0.194323 0.669995
O O6 0.250000 0.157380 0.500000
O O7 0.230634 0.106833 0.693972
O O8 0.882477 0.588799 0.865243
O O9 0.785814 0.554973 0.886603
O O10 0.859208 0.487613 0.849260
O O11 0.865459 0.535185 0.050913
O O12 0.418370 0.312991 0.802519
O O13 0.336905 0.750000 0.500000
O O14 0.302657 0.697344 0.675194
O O15 0.300859 0.800859 0.676366
O O16 0.397850 0.751183 0.675528
O O17 0.243287 0.494889 0.711618
O O18 0.592922 0.092922 0.741705
O O19 0.671276 0.040109 0.645071
O O20 0.250000 0.963846 0.500000
#
# Coordination Sequence:
#
# PCOD9562974 Si02
#       8
#    16  16  16  16  16  16  16  16
#     4   9  19  35  53  76 104 133 169 208 254 318
#     4   9  18  33  50  69  96 133 179 223 260 309
#     4   9  20  36  52  75  98 125 182 221 251 312
#     4  10  20  35  55  73  98 137 169 215 265 305
#     4   8  14  27  46  65  89 128 173 207 236 283
#     4  11  20  32  48  73 103 136 164 211 269 320
#     4   9  18  33  53  72  98 133 167 213 256 297
#     4  10  20  29  43  72 107 133 167 201 252 319
#
# _framework density 17.499241000000001
#
# number of rings (size 3 to 8) (size 9 to 14) (size 15 to 20)
#    0.000    2.625    0.000    2.625    1.750    1.000 
#    4.500    3.125    0.000    0.000    0.000    5.250 
#    0.000    0.000    0.000   19.750    0.000    1.750 
#
# Total GULP energy -712549.513576 kJ/mol
# GULP energy per Si atom -5566.793075 kJ/mol
# Density = 1.745941 g / cm^3
# Si number density = 17.499241 Si / 1000 Ang^3
#
#
#
# Elastic Constant Matrix: (Units=GPa)
#
#
# Indices 1 2 3 4 5 6 
#
# 1 77.3138 6.4835 35.2230 0.0000 0.0000 0.0000
# 2 6.4835 77.3138 35.2230 0.0000 0.0000 0.0000
# 3 35.2230 35.2230 97.0696 0.0000 0.0000 0.0000
# 4 0.0000 0.0000 0.0000 13.8627 0.0000 0.0000
# 5 0.0000 0.0000 0.0000 0.0000 13.8627 0.0000
# 6 0.0000 0.0000 0.0000 0.0000 0.0000 4.9145
#
#
#
# Elastic Compliance Matrix: (Units=1/GPa)
#
#
# Indices 1 2 3 4 5 6 
#
# 1 0.015645 0.001527 -0.006231 0.000000 0.000000 0.000000
# 2 0.001527 0.015645 -0.006231 0.000000 0.000000 0.000000
# 3 -0.006231 -0.006231 0.014824 0.000000 0.000000 0.000000
# 4 0.000000 0.000000 0.000000 0.072136 0.000000 0.000000
# 5 0.000000 0.000000 0.000000 0.000000 0.072136 0.000000
# 6 0.000000 0.000000 0.000000 0.000000 0.000000 0.203479
#
#
# Mechanical properties :
#
#
# Convention : Reuss Voigt Hill
#
# Bulk Modulus (GPa) = 41.24830 45.06182 43.15506
# Shear Modulus (GPa) = 11.79757 18.17917 14.98837
#
# Velocity S-wave (km/s) = 2.59931 3.22662 2.92980
# Velocity P-wave (km/s) = 5.71237 6.29985 6.01329
#
# Compressibility (1/GPa) = 0.02424342
#
# Stress axis : x y z
#
# Youngs Moduli (GPa) = 63.91808 63.91808 67.45860
#
# Poissons Ratio (x) = -0.09759 0.42034
# Poissons Ratio (y) = -0.09759 0.42034
# Poissons Ratio (z) = 0.39827 0.39827
#
# Static dielectric constant tensor:
#      x y z
#    x 1.611300 0.000000 0.000000 
#    y 0.000000 1.611300 0.000000 
#    z 0.000000 0.000000 1.603450 
# 
# From -- ./inp_files/4387.got.cif
#   From: 2010.05.17/outbox.cif.g08.bks.cpg/sg125_3_cif.got.tgz:4387.got - 2010.05.20 11:54:10.
