data_PCOD9562298
_publ_section_title
;
Structure prediction by ZEFSAII (Michael W. Deem and Ramdas Pophale) SiO2 
 PCOD9562298
Probable space group: P 4/M M M
;
_chemical_formula_sum "Si O2"
_cell_formula_units_Z 120
_cell_length_a 21.000000
_cell_length_b 21.000000
_cell_length_c 15.000000
_cell_angle_alpha 90.000000
_cell_angle_beta 90.000000
_cell_angle_gamma 90.000000
_cell_volume 6615.000000
_symmetry_space_group_name_H-M "P 4/M M M"
_symmetry_group_IT_number 123
_symmetry_cell_setting 'tetragonal'
loop_
_space_group_symop_operation_xyz
x,y,z
-y,x,z
-x,-y,z
y,-x,z
x,-y,-z
-x,y,-z
y,x,-z
-y,-x,-z
-x,-y,-z
y,-x,-z
x,y,-z
-y,x,-z
-x,y,z
x,-y,z
-y,-x,z
y,x,z
loop_
_atom_site_type_symbol
_atom_site_label
_atom_site_fract_x
_atom_site_fract_y
_atom_site_fract_z
Si Si1 0.259429 0.846529 0.104954
Si Si2 0.000000 0.576543 0.894760
Si Si3 0.742000 0.427447 0.899373
Si Si4 0.607681 0.134546 0.196770
Si Si5 0.812125 0.388851 0.607366
Si Si6 0.180612 0.074405 0.236549
Si Si7 0.245306 0.137403 0.401002
Si Si8 0.577505 0.317447 0.290581
O O1 0.218591 0.781410 0.111969
O O2 0.319884 0.845955 0.170515
O O3 0.214598 0.901466 0.146014
O O4 0.275444 0.856180 0.000000
O O5 0.063202 0.597821 0.840405
O O6 0.000000 0.500000 0.896711
O O7 0.000000 0.598198 0.000000
O O8 0.719722 0.500000 0.908162
O O9 0.815285 0.428767 0.866749
O O10 0.705572 0.403321 0.810441
O O11 0.736300 0.398080 0.000000
O O12 0.589983 0.146613 0.302097
O O13 0.820795 0.409687 0.500000
O O14 0.830105 0.314303 0.606109
O O15 0.740337 0.404500 0.641088
O O16 0.117706 0.117706 0.248197
O O17 0.227435 0.091129 0.319712
O O18 0.167275 0.000000 0.234345
O O19 0.241188 0.107120 0.500000
O O20 0.193453 0.193453 0.396938
O O21 0.500000 0.326051 0.293467
O O22 0.619582 0.380418 0.310312
#
# Coordination Sequence:
#
# PCOD9562298 Si02
#       8
#    16   8  16  16  16  16  16  16
#     4  10  21  35  51  77 111 141 175 227 287 339
#     4  11  24  40  59  87 123 161 199 233 269 328
#     4   9  18  34  55  80 113 152 194 239 286 339
#     4  11  21  35  58  85 116 153 193 236 286 343
#     4  10  21  38  60  85 112 147 191 240 292 346
#     4  10  21  36  54  77 109 146 187 234 281 337
#     4   9  17  32  55  81 108 140 178 226 285 338
#     4  10  22  38  58  86 118 154 197 245 298 360
#
# _framework density 18.14059
#
# number of rings (size 3 to 8) (size 9 to 14) (size 15 to 20)
#    0.000    2.067    1.333    2.000    0.933    5.867 
#    0.000    0.333    0.000    0.400    0.000    6.533 
#    0.000    0.000    0.000    0.000    0.000    0.000 
#
# Total GULP energy -668033.861136 kJ/mol
# GULP energy per Si atom -5566.948843 kJ/mol
# Density = 1.809930 g / cm^3
# Si number density = 18.140590 Si / 1000 Ang^3
#
#
#
# Elastic Constant Matrix: (Units=GPa)
#
#
# Indices 1 2 3 4 5 6 
#
# 1 82.8847 29.5459 25.8542 0.0000 0.0000 0.0000
# 2 29.5459 82.8847 25.8542 0.0000 0.0000 0.0000
# 3 25.8542 25.8542 147.2484 0.0000 0.0000 0.0000
# 4 0.0000 0.0000 0.0000 21.6770 0.0000 0.0000
# 5 0.0000 0.0000 0.0000 0.0000 21.6770 0.0000
# 6 0.0000 0.0000 0.0000 0.0000 0.0000 15.3526
#
#
#
# Elastic Compliance Matrix: (Units=1/GPa)
#
#
# Indices 1 2 3 4 5 6 
#
# 1 0.014212 -0.004536 -0.001699 0.000000 0.000000 0.000000
# 2 -0.004536 0.014212 -0.001699 0.000000 0.000000 0.000000
# 3 -0.001699 -0.001699 0.007388 0.000000 0.000000 0.000000
# 4 0.000000 0.000000 0.000000 0.046132 0.000000 0.000000
# 5 0.000000 0.000000 0.000000 0.000000 0.046132 0.000000
# 6 0.000000 0.000000 0.000000 0.000000 0.000000 0.065136
#
#
# Mechanical properties :
#
#
# Convention : Reuss Voigt Hill
#
# Bulk Modulus (GPa) = 50.14110 52.83630 51.48870
# Shear Modulus (GPa) = 23.17747 27.19222 25.18484
#
# Velocity S-wave (km/s) = 3.57831 3.87585 3.73005
# Velocity P-wave (km/s) = 6.69124 7.01562 6.85535
#
# Compressibility (1/GPa) = 0.01994372
#
# Stress axis : x y z
#
# Youngs Moduli (GPa) = 70.36359 70.36359 135.35770
#
# Poissons Ratio (x) = 0.31918 0.22996
# Poissons Ratio (y) = 0.31918 0.22996
# Poissons Ratio (z) = 0.11954 0.11954
#
# Static dielectric constant tensor:
#      x y z
#    x 1.644890 0.000000 0.000000 
#    y 0.000000 1.644890 0.000000 
#    z 0.000000 0.000000 1.669510 
# 
# From -- ./inp_files/4592.got.cif
#   From: 2010.05.17/outbox.ucp.g08.bks.cvg/sg123_3_cif.got.tgz:4592.got - 2010.06.11 11:35:48.
