data_PCOD9562814
_publ_section_title
;
Structure prediction by ZEFSAII (Michael W. Deem and Ramdas Pophale) SiO2 
 PCOD9562814
Probable space group: P 4/M C C
;
_chemical_formula_sum "Si O2"
_cell_formula_units_Z 112
_cell_length_a 14.485660
_cell_length_b 14.485660
_cell_length_c 23.031498
_cell_angle_alpha 90.000000
_cell_angle_beta 90.000000
_cell_angle_gamma 90.000000
_cell_volume 4832.799312
_symmetry_space_group_name_H-M "P 4/M C C"
_symmetry_group_IT_number 124
_symmetry_cell_setting 'tetragonal'
loop_
_space_group_symop_operation_xyz
x,y,z
-y,x,z
-x,-y,z
y,-x,z
x,-y,1/2-z
-x,y,1/2-z
y,x,1/2-z
-y,-x,1/2-z
-x,-y,-z
y,-x,-z
x,y,-z
-y,x,-z
-x,y,1/2+z
x,-y,1/2+z
-y,-x,1/2+z
y,x,1/2+z
loop_
_atom_site_type_symbol
_atom_site_label
_atom_site_fract_x
_atom_site_fract_y
_atom_site_fract_z
Si Si1 0.830263 0.345451 0.362645
Si Si2 0.603850 0.172937 0.733852
Si Si3 0.040594 0.681732 0.863083
Si Si4 0.471216 0.873147 0.565590
Si Si5 0.856437 0.940579 0.933562
Si Si6 0.633861 0.563901 0.675149
Si Si7 0.347861 0.308343 0.934984
O O1 0.732922 0.596002 0.302545
O O2 0.803578 0.350227 0.295248
O O3 0.750103 0.302439 0.402032
O O4 0.931442 0.301323 0.359801
O O5 0.500000 0.140625 0.750000
O O6 0.653464 0.094522 0.695436
O O7 0.049442 0.593335 0.905809
O O8 0.082852 0.774230 0.890383
O O9 0.504568 0.892196 0.500000
O O10 0.552835 0.843646 0.608849
O O11 0.398802 0.789123 0.561583
O O12 0.884840 0.048372 0.926827
O O13 0.823972 0.927243 0.000000
O O14 0.542053 0.618845 0.692874
O O15 0.583871 0.365689 0.606236
O O16 0.334436 0.345552 0.000000
#
# Coordination Sequence:
#
# PCOD9562814 Si02
#       7
#    16  16  16  16  16  16  16
#     4  12  27  44  71 100 143 198 250 302 372 442
#     4  12  25  47  69  98 146 195 246 309 361 425
#     4  12  25  43  71 106 143 191 244 306 373 445
#     4  11  24  43  66 101 145 183 234 302 369 437
#     4   9  21  44  74 108 148 190 235 299 377 456
#     4  11  25  46  73 106 142 193 249 304 367 435
#     4  11  24  45  70 102 143 188 238 302 369 442
#
# _framework density 23.174973000000001
#
# number of rings (size 3 to 8) (size 9 to 14) (size 15 to 20)
#    0.000    0.857    2.857    3.857    2.000    8.571 
#    0.000    2.857    0.000    0.000    0.000    4.000 
#    0.000    0.000    0.000    0.000    0.000    0.000 
#
# Total GULP energy -626966.985454 kJ/mol
# GULP energy per Si atom -5597.919513 kJ/mol
# Density = 2.312223 g / cm^3
# Si number density = 23.174973 Si / 1000 Ang^3
#
#
#
# Elastic Constant Matrix: (Units=GPa)
#
#
# Indices 1 2 3 4 5 6 
#
# 1 106.3202 14.3584 44.6584 0.0000 0.0000 0.0000
# 2 14.3584 106.3202 44.6584 0.0000 0.0000 0.0000
# 3 44.6584 44.6584 183.9243 0.0000 0.0000 0.0000
# 4 0.0000 0.0000 0.0000 38.3691 0.0000 0.0000
# 5 0.0000 0.0000 0.0000 0.0000 38.3691 0.0000
# 6 0.0000 0.0000 0.0000 0.0000 0.0000 23.7822
#
#
#
# Elastic Compliance Matrix: (Units=1/GPa)
#
#
# Indices 1 2 3 4 5 6 
#
# 1 0.010488 -0.000386 -0.002453 0.000000 0.000000 0.000000
# 2 -0.000386 0.010488 -0.002453 0.000000 0.000000 0.000000
# 3 -0.002453 -0.002453 0.006628 0.000000 0.000000 0.000000
# 4 0.000000 0.000000 0.000000 0.026063 0.000000 0.000000
# 5 0.000000 0.000000 0.000000 0.000000 0.026063 0.000000
# 6 0.000000 0.000000 0.000000 0.000000 0.000000 0.042048
#
#
# Mechanical properties :
#
#
# Convention : Reuss Voigt Hill
#
# Bulk Modulus (GPa) = 58.75237 67.10169 62.92703
# Shear Modulus (GPa) = 36.22279 39.63005 37.92642
#
# Velocity S-wave (km/s) = 3.95779 4.13974 4.04979
# Velocity P-wave (km/s) = 6.80383 7.20189 7.00569
#
# Compressibility (1/GPa) = 0.01702059
#
# Stress axis : x y z
#
# Youngs Moduli (GPa) = 95.34730 95.34730 150.87159
#
# Poissons Ratio (x) = 0.03681 0.37006
# Poissons Ratio (y) = 0.03681 0.37006
# Poissons Ratio (z) = 0.23387 0.23387
#
# Static dielectric constant tensor:
#      x y z
#    x 1.893770 0.000000 0.000000 
#    y 0.000000 1.893770 0.000000 
#    z 0.000000 0.000000 1.909970 
# 
# From -- ./inp_files/6125.got.cif
#   From: 2010.05.17/outbox.cif.g08.bks.cpg/sg124_4_cif.got.tgz:6125.got - 2010.05.20 11:49:17.
