data_PCOD9562614
_publ_section_title
;
Structure prediction by ZEFSAII (Michael W. Deem and Ramdas Pophale) SiO2 
 PCOD9562614
Probable space group: P 4/M C C
;
_chemical_formula_sum "Si O2"
_cell_formula_units_Z 112
_cell_length_a 15.341947
_cell_length_b 15.341947
_cell_length_c 25.418102
_cell_angle_alpha 90.000000
_cell_angle_beta 90.000000
_cell_angle_gamma 90.000000
_cell_volume 5982.794343
_symmetry_space_group_name_H-M "P 4/M C C"
_symmetry_group_IT_number 124
_symmetry_cell_setting 'tetragonal'
loop_
_space_group_symop_operation_xyz
x,y,z
-y,x,z
-x,-y,z
y,-x,z
x,-y,1/2-z
-x,y,1/2-z
y,x,1/2-z
-y,-x,1/2-z
-x,-y,-z
y,-x,-z
x,y,-z
-y,x,-z
-x,y,1/2+z
x,-y,1/2+z
-y,-x,1/2+z
y,x,1/2+z
loop_
_atom_site_type_symbol
_atom_site_label
_atom_site_fract_x
_atom_site_fract_y
_atom_site_fract_z
Si Si1 0.697819 0.356864 0.102267
Si Si2 0.595579 0.725916 0.777544
Si Si3 0.746969 0.535611 0.060509
Si Si4 0.791883 0.170075 0.436000
Si Si5 0.429959 0.075016 0.382748
Si Si6 0.093862 0.602523 0.264784
Si Si7 0.255240 0.975460 0.936962
O O1 0.709669 0.398113 0.160249
O O2 0.707543 0.439349 0.063965
O O3 0.605514 0.309695 0.092938
O O4 0.770914 0.283902 0.089500
O O5 0.500000 0.723606 0.750000
O O6 0.653397 0.653397 0.750000
O O7 0.635057 0.821662 0.765754
O O8 0.843237 0.532259 0.085663
O O9 0.752551 0.565574 0.000000
O O10 0.783556 0.177120 0.500000
O O11 0.887581 0.204890 0.420752
O O12 0.782683 0.068857 0.420753
O O13 0.393287 0.107770 0.327030
O O14 0.352518 0.033438 0.415828
O O15 0.500000 0.000000 0.371556
O O16 0.089418 0.500000 0.250000
O O17 0.000000 0.641445 0.250000
O O18 0.256056 0.975104 0.000000
#
# Coordination Sequence:
#
# PCOD9562614 Si02
#       7
#    16  16  16  16  16  16  16
#     4  12  24  42  64  89 128 172 211 263 319 373
#     4  11  24  41  62  90 120 157 209 258 310 367
#     4  12  25  41  63  91 128 170 214 261 316 389
#     4  10  21  40  61  90 125 162 209 260 317 385
#     4  12  22  36  61  92 124 164 208 264 330 382
#     4  10  20  38  58  85 118 153 201 260 307 362
#     4  10  22  37  60  88 124 164 208 259 317 388
#
# _framework density 18.72035
#
# number of rings (size 3 to 8) (size 9 to 14) (size 15 to 20)
#    0.000    1.000    2.857    6.000    2.000    3.000 
#    0.000    3.571    0.000    0.000    0.000    0.000 
#    0.000    0.286    0.000    0.000    0.000    0.000 
#
# Total GULP energy -625556.678807 kJ/mol
# GULP energy per Si atom -5585.327489 kJ/mol
# Density = 1.867774 g / cm^3
# Si number density = 18.720350 Si / 1000 Ang^3
#
#
#
# Elastic Constant Matrix: (Units=GPa)
#
#
# Indices 1 2 3 4 5 6 
#
# 1 84.9019 32.2257 28.6676 0.0000 0.0000 0.0000
# 2 32.2257 84.9019 28.6676 0.0000 0.0000 0.0000
# 3 28.6676 28.6676 61.2601 0.0000 0.0000 0.0000
# 4 0.0000 0.0000 0.0000 22.7565 0.0000 0.0000
# 5 0.0000 0.0000 0.0000 0.0000 22.7565 0.0000
# 6 0.0000 0.0000 0.0000 0.0000 0.0000 15.7630
#
#
#
# Elastic Compliance Matrix: (Units=1/GPa)
#
#
# Indices 1 2 3 4 5 6 
#
# 1 0.015029 -0.003955 -0.005183 0.000000 0.000000 0.000000
# 2 -0.003955 0.015029 -0.005183 0.000000 0.000000 0.000000
# 3 -0.005183 -0.005183 0.021174 0.000000 0.000000 0.000000
# 4 0.000000 0.000000 0.000000 0.043943 0.000000 0.000000
# 5 0.000000 0.000000 0.000000 0.000000 0.043943 0.000000
# 6 0.000000 0.000000 0.000000 0.000000 0.000000 0.063440
#
#
# Mechanical properties :
#
#
# Convention : Reuss Voigt Hill
#
# Bulk Modulus (GPa) = 44.26070 45.57619 44.91844
# Shear Modulus (GPa) = 20.94420 21.68877 21.31648
#
# Velocity S-wave (km/s) = 3.34847 3.40746 3.37809
# Velocity P-wave (km/s) = 6.21643 6.31504 6.26593
#
# Compressibility (1/GPa) = 0.02259341
#
# Stress axis : x y z
#
# Youngs Moduli (GPa) = 66.53697 66.53697 47.22708
#
# Poissons Ratio (x) = 0.26313 0.24476
# Poissons Ratio (y) = 0.26313 0.24476
# Poissons Ratio (z) = 0.34483 0.34483
#
# Static dielectric constant tensor:
#      x y z
#    x 1.683150 0.000000 0.000000 
#    y 0.000000 1.683150 0.000000 
#    z 0.000000 0.000000 1.684660 
# 
# From -- ./inp_files/6079.got.cif
#   From: 2010.05.17/outbox.cif.g08.bks.cpg/sg124_4_cif.got.tgz:6079.got - 2010.05.20 11:49:17.
