data_PCOD9562901
_publ_section_title
;
Structure prediction by ZEFSAII (Michael W. Deem and Ramdas Pophale) SiO2 
 PCOD9562901
Probable space group: P 4/N B M
;
_chemical_formula_sum "Si O2"
_cell_formula_units_Z 120
_cell_length_a 23.369812
_cell_length_b 23.369812
_cell_length_c 11.909801
_cell_angle_alpha 90.000000
_cell_angle_beta 90.000000
_cell_angle_gamma 90.000000
_cell_volume 6504.515341
_symmetry_space_group_name_H-M "P 4/N B M"
_symmetry_group_IT_number 125
_space_group.IT_coordinate_system_code '2'
_symmetry_cell_setting 'tetragonal'
loop_
_space_group_symop_operation_xyz
x,y,z
1/2-y,x,z
1/2-x,1/2-y,z
y,1/2-x,z
x,1/2-y,-z
1/2-x,y,-z
y,x,-z
1/2-y,1/2-x,-z
-x,-y,-z
1/2+y,-x,-z
1/2+x,1/2+y,-z
-y,1/2+x,-z
-x,1/2+y,z
1/2+x,-y,z
-y,-x,z
1/2+y,1/2+x,z
loop_
_atom_site_type_symbol
_atom_site_label
_atom_site_fract_x
_atom_site_fract_y
_atom_site_fract_z
Si Si1 0.199879 0.613154 0.079833
Si Si2 0.250000 0.919052 0.500000
Si Si3 0.137162 0.773596 0.268570
Si Si4 0.411582 0.008849 0.198333
Si Si5 0.016449 0.314704 0.981350
Si Si6 0.535214 0.130292 0.573417
Si Si7 0.045041 0.864167 0.187946
Si Si8 0.518355 0.576097 0.375201
O O1 0.140016 0.640016 0.045211
O O2 0.214796 0.630022 0.205252
O O3 0.199599 0.545885 0.068293
O O4 0.250000 0.637152 0.000000
O O5 0.269565 0.880413 0.603435
O O6 0.195485 0.955393 0.539966
O O7 0.198677 0.801324 0.255815
O O8 0.092225 0.815247 0.204855
O O9 0.464157 0.964157 0.162935
O O10 0.368168 0.032710 0.102258
O O11 0.376046 0.974948 0.293962
O O12 0.436862 0.060077 0.276420
O O13 0.043824 0.250000 0.000000
O O14 0.002670 0.342872 0.101871
O O15 0.590401 0.090401 0.545297
O O16 0.482282 0.102258 0.501700
O O17 0.077832 0.922169 0.150723
O O18 0.020557 0.877425 0.310309
O O19 0.482613 0.517388 0.384597
#
# Coordination Sequence:
#
# PCOD9562901 Si02
#       8
#    16   8  16  16  16  16  16  16
#     4  11  21  33  48  64  86 123 168 215 256 294
#     4  12  22  32  52  71  90 128 170 203 258 318
#     4  11  22  35  47  63  90 124 165 218 261 303
#     4  10  20  33  51  75  97 122 165 215 257 302
#     4  11  21  32  48  69  97 128 162 205 251 302
#     4  10  20  34  52  72  98 128 167 216 258 305
#     4  10  18  33  51  66  91 125 163 206 253 301
#     4   9  18  33  53  73  94 122 159 210 265 307
#
# _framework density 18.448723000000001
#
# number of rings (size 3 to 8) (size 9 to 14) (size 15 to 20)
#    0.000    1.600    4.000    3.200    0.000    5.200 
#    0.000    2.000    0.000    1.800    0.000    0.000 
#    0.000    0.000    0.000    0.000    0.000   46.667 
#
# Total GULP energy -668105.930836 kJ/mol
# GULP energy per Si atom -5567.549424 kJ/mol
# Density = 1.840673 g / cm^3
# Si number density = 18.448723 Si / 1000 Ang^3
#
#
#
# Elastic Constant Matrix: (Units=GPa)
#
#
# Indices 1 2 3 4 5 6 
#
# 1 37.1714 2.2495 -5.5017 0.0000 0.0000 0.0000
# 2 2.2495 37.1714 -5.5017 0.0000 0.0000 0.0000
# 3 -5.5017 -5.5017 76.0666 0.0000 0.0000 0.0000
# 4 0.0000 0.0000 0.0000 23.4143 0.0000 0.0000
# 5 0.0000 0.0000 0.0000 0.0000 23.4143 0.0000
# 6 0.0000 0.0000 0.0000 0.0000 0.0000 11.0124
#
#
#
# Elastic Compliance Matrix: (Units=1/GPa)
#
#
# Indices 1 2 3 4 5 6 
#
# 1 0.027263 -0.001373 0.001873 0.000000 0.000000 0.000000
# 2 -0.001373 0.027263 0.001873 0.000000 0.000000 0.000000
# 3 0.001873 0.001873 0.013417 0.000000 0.000000 0.000000
# 4 0.000000 0.000000 0.000000 0.042709 0.000000 0.000000
# 5 0.000000 0.000000 0.000000 0.000000 0.042709 0.000000
# 6 0.000000 0.000000 0.000000 0.000000 0.000000 0.090807
#
#
# Mechanical properties :
#
#
# Convention : Reuss Voigt Hill
#
# Bulk Modulus (GPa) = 13.75756 14.76685 14.26221
# Shear Modulus (GPa) = 18.96441 22.17908 20.57175
#
# Velocity S-wave (km/s) = 3.20965 3.47104 3.34290
# Velocity P-wave (km/s) = 4.60534 4.90773 4.75894
#
# Compressibility (1/GPa) = 0.07268729
#
# Stress axis : x y z
#
# Youngs Moduli (GPa) = 36.68020 36.68020 74.53094
#
# Poissons Ratio (x) = 0.05035 -0.13956
# Poissons Ratio (y) = 0.05035 -0.13956
# Poissons Ratio (z) = -0.06869 -0.06869
#
# Static dielectric constant tensor:
#      x y z
#    x 1.704600 0.000000 0.000000 
#    y 0.000000 1.704600 0.000000 
#    z 0.000000 0.000000 1.726450 
# 
# From -- ./inp_files/4365.got.cif
#   From: 2010.05.17/outbox.cif.g08.bks.cpg/sg125_3_cif.got.tgz:4365.got - 2010.05.20 11:54:10.
