data_PCOD9562916
_publ_section_title
;
Structure prediction by ZEFSAII (Michael W. Deem and Ramdas Pophale) SiO2 
 PCOD9562916
Probable space group: P 4/N B M
;
_chemical_formula_sum "Si O2"
_cell_formula_units_Z 96
_cell_length_a 27.564036
_cell_length_b 27.564036
_cell_length_c 8.699861
_cell_angle_alpha 90.000000
_cell_angle_beta 90.000000
_cell_angle_gamma 90.000000
_cell_volume 6609.946292
_symmetry_space_group_name_H-M "P 4/N B M"
_symmetry_group_IT_number 125
_space_group.IT_coordinate_system_code '2'
_symmetry_cell_setting 'tetragonal'
loop_
_space_group_symop_operation_xyz
x,y,z
1/2-y,x,z
1/2-x,1/2-y,z
y,1/2-x,z
x,1/2-y,-z
1/2-x,y,-z
y,x,-z
1/2-y,1/2-x,-z
-x,-y,-z
1/2+y,-x,-z
1/2+x,1/2+y,-z
-y,1/2+x,-z
-x,1/2+y,z
1/2+x,-y,z
-y,-x,z
1/2+y,1/2+x,z
loop_
_atom_site_type_symbol
_atom_site_label
_atom_site_fract_x
_atom_site_fract_y
_atom_site_fract_z
Si Si1 0.093028 0.509269 0.658620
Si Si2 0.343815 0.925315 0.836188
Si Si3 0.039676 0.623134 0.332001
Si Si4 0.056266 0.472871 0.163631
Si Si5 0.641835 0.222754 0.337196
Si Si6 0.393893 0.811324 0.155317
O O1 0.051310 0.551310 0.656173
O O2 0.131765 0.524526 0.788609
O O3 0.119292 0.513144 0.495217
O O4 0.064591 0.460896 0.704942
O O5 0.388781 0.888781 0.862417
O O6 0.314336 0.902522 0.692932
O O7 0.312581 0.920728 0.990830
O O8 0.082439 0.582439 0.336305
O O9 0.066527 0.672142 0.282249
O O10 0.001193 0.605068 0.204978
O O11 0.014889 0.514889 0.159991
O O12 0.053274 0.446727 0.000000
O O13 0.641676 0.250000 0.500000
O O14 0.690456 0.190456 0.321376
O O15 0.633650 0.263114 0.206948
O O16 0.352861 0.852861 0.150819
#
# Coordination Sequence:
#
# PCOD9562916 Si02
#       6
#    16  16  16  16  16  16
#     4   9  15  24  38  55  76  97 116 139 168 209
#     4   9  18  31  44  57  72  91 115 145 186 234
#     4   9  16  25  38  56  75  95 117 140 172 215
#     4   9  15  22  34  54  78 100 119 137 161 201
#     4  11  22  34  46  58  71  89 118 158 203 248
#     4  10  19  31  45  57  71  91 116 150 193 238
#
# _framework density 14.523567
#
# number of rings (size 3 to 8) (size 9 to 14) (size 15 to 20)
#    0.000    2.500    0.000    3.500    0.000    9.833 
#    0.000    0.833    0.000    6.000    0.000    0.000 
#    0.000    0.000    0.000    0.000    0.000    0.000 
#
# Total GULP energy -534564.282549 kJ/mol
# GULP energy per Si atom -5568.377943 kJ/mol
# Density = 1.449051 g / cm^3
# Si number density = 14.523567 Si / 1000 Ang^3
#
#
#
# Elastic Constant Matrix: (Units=GPa)
#
#
# Indices 1 2 3 4 5 6 
#
# 1 20.9313 22.0548 3.9679 0.0000 0.0000 0.0000
# 2 22.0548 20.9314 3.9678 0.0000 0.0000 0.0000
# 3 3.9679 3.9678 50.1658 0.0000 0.0000 0.0000
# 4 0.0000 0.0000 0.0000 13.6860 0.0000 0.0000
# 5 0.0000 0.0000 0.0000 0.0000 13.6859 0.0000
# 6 0.0000 0.0000 0.0000 0.0000 0.0000 15.2405
#
#
#
# Elastic Compliance Matrix: (Units=1/GPa)
#
#
# Indices 1 2 3 4 5 6 
#
# 1 -0.433249 0.456855 -0.001866 0.000000 0.000000 0.000000
# 2 0.456855 -0.433245 -0.001868 0.000000 0.000000 0.000000
# 3 -0.001866 -0.001868 0.020229 0.000000 0.000000 0.000000
# 4 0.000000 0.000000 0.000000 0.073067 0.000000 0.000000
# 5 0.000000 0.000000 0.000000 0.000000 0.073068 0.000000
# 6 0.000000 0.000000 0.000000 0.000000 0.000000 0.065615
#
#
# Mechanical properties :
#
#
# Convention : Reuss Voigt Hill
#
# Bulk Modulus (GPa) = 16.67328 16.88996 16.78162
# Shear Modulus (GPa) = -3.28782 12.65834 4.68526
#
# Velocity S-wave (km/s) = -1.50622 2.95544 1.79805
# Velocity P-wave (km/s) = 2.91207 4.82709 3.98628
#
# Compressibility (1/GPa) = 0.05997622
#
# Stress axis : x y z
#
# Youngs Moduli (GPa) = -2.30814 -2.30816 49.43331
#
# Poissons Ratio (x) = 1.05450 0.09226
# Poissons Ratio (y) = 1.05449 0.09235
# Poissons Ratio (z) = -0.00431 -0.00431
#
# Static dielectric constant tensor:
#      x y z
#    x 1.478630 0.000000 0.000000 
#    y 0.000000 1.478630 0.000000 
#    z 0.000000 0.000000 1.558000 
# 
# From -- ./inp_files/2966.got.cif
#   From: 2010.05.17/outbox.cif.g08.bks.cpg/sg125_2_cif.got.tgz:2966.got - 2010.05.20 11:54:10.
