data_PCOD9562586
_publ_section_title
;
Structure prediction by ZEFSAII (Michael W. Deem and Ramdas Pophale) SiO2 
 PCOD9562586
Probable space group: P 4/M C C
;
_chemical_formula_sum "Si O2"
_cell_formula_units_Z 64
_cell_length_a 17.183617
_cell_length_b 17.183617
_cell_length_c 11.026924
_cell_angle_alpha 90.000000
_cell_angle_beta 90.000000
_cell_angle_gamma 90.000000
_cell_volume 3255.993655
_symmetry_space_group_name_H-M "P 4/M C C"
_symmetry_group_IT_number 124
_symmetry_cell_setting 'tetragonal'
loop_
_space_group_symop_operation_xyz
x,y,z
-y,x,z
-x,-y,z
y,-x,z
x,-y,1/2-z
-x,y,1/2-z
y,x,1/2-z
-y,-x,1/2-z
-x,-y,-z
y,-x,-z
x,y,-z
-y,x,-z
-x,y,1/2+z
x,-y,1/2+z
-y,-x,1/2+z
y,x,1/2+z
loop_
_atom_site_type_symbol
_atom_site_label
_atom_site_fract_x
_atom_site_fract_y
_atom_site_fract_z
Si Si1 0.580099 0.180864 0.500000
Si Si2 0.760692 0.746443 0.500000
Si Si3 0.089380 0.616513 0.748850
Si Si4 0.790908 0.894822 0.189206
Si Si5 0.822100 0.590077 0.000000
Si Si6 0.012575 0.130569 0.500000
O O1 0.652944 0.239208 0.500000
O O2 0.591751 0.129970 0.623782
O O3 0.494651 0.218855 0.500000
O O4 0.815790 0.774482 0.389549
O O5 0.672936 0.777564 0.500000
O O6 0.093118 0.710452 0.743389
O O7 0.129286 0.588593 0.625193
O O8 0.000000 0.592169 0.750000
O O9 0.871266 0.871266 0.250000
O O10 0.812102 0.970553 0.111283
O O11 0.933517 0.082419 0.500000
#
# Coordination Sequence:
#
# PCOD9562586 Si02
#       6
#     8   8  16  16   8   8
#     4  10  24  41  58  92 125 154 193 245 296 362
#     4   9  20  39  58  84 114 147 202 233 286 358
#     4  11  24  38  60  90 119 157 199 245 304 357
#     4  10  20  36  57  77 107 149 206 255 285 356
#     4  12  22  39  66  86 121 162 191 241 304 354
#     4  10  24  37  50  76 114 157 204 266 322 354
#
# _framework density 19.656057000000001
#
# number of rings (size 3 to 8) (size 9 to 14) (size 15 to 20)
#    0.000    1.625    2.500    2.250    3.500    3.000 
#    0.000    1.250    0.000    0.375    0.000    0.000 
#    0.000    4.500    0.000    0.000    0.000    0.750 
#
# Total GULP energy -356889.818086 kJ/mol
# GULP energy per Si atom -5576.403408 kJ/mol
# Density = 1.961132 g / cm^3
# Si number density = 19.656057 Si / 1000 Ang^3
#
#
#
# Elastic Constant Matrix: (Units=GPa)
#
#
# Indices 1 2 3 4 5 6 
#
# 1 105.9065 26.3852 20.7315 0.0000 0.0000 0.0000
# 2 26.3852 105.9065 20.7315 0.0000 0.0000 0.0000
# 3 20.7315 20.7315 106.4120 0.0000 0.0000 0.0000
# 4 0.0000 0.0000 0.0000 52.4387 0.0000 0.0000
# 5 0.0000 0.0000 0.0000 0.0000 52.4387 0.0000
# 6 0.0000 0.0000 0.0000 0.0000 0.0000 9.3212
#
#
#
# Elastic Compliance Matrix: (Units=1/GPa)
#
#
# Indices 1 2 3 4 5 6 
#
# 1 0.010313 -0.002262 -0.001568 0.000000 0.000000 0.000000
# 2 -0.002262 0.010313 -0.001568 0.000000 0.000000 0.000000
# 3 -0.001568 -0.001568 0.010009 0.000000 0.000000 0.000000
# 4 0.000000 0.000000 0.000000 0.019070 0.000000 0.000000
# 5 0.000000 0.000000 0.000000 0.000000 0.019070 0.000000
# 6 0.000000 0.000000 0.000000 0.000000 0.000000 0.107282
#
#
# Mechanical properties :
#
#
# Convention : Reuss Voigt Hill
#
# Bulk Modulus (GPa) = 50.41327 50.43573 50.42450
# Shear Modulus (GPa) = 25.84423 39.53151 32.68787
#
# Velocity S-wave (km/s) = 3.62998 4.48946 4.08240
# Velocity P-wave (km/s) = 6.57818 7.25180 6.92318
#
# Compressibility (1/GPa) = 0.01983605
#
# Stress axis : x y z
#
# Youngs Moduli (GPa) = 96.96557 96.96557 99.91435
#
# Poissons Ratio (x) = 0.21937 0.15671
# Poissons Ratio (y) = 0.21937 0.15671
# Poissons Ratio (z) = 0.15209 0.15209
#
# Static dielectric constant tensor:
#      x y z
#    x 1.665460 0.000000 0.000000 
#    y 0.000000 1.665460 0.000000 
#    z 0.000000 0.000000 1.836370 
# 
# From -- ./inp_files/2257.got.cif
#   From: 2010.05.17/outbox.cif.g08.bks.cpg/sg124_2_cif.got.tgz:2257.got - 2010.05.20 11:49:17.
