data_PCOD9562331
_publ_section_title
;
Structure prediction by ZEFSAII (Michael W. Deem and Ramdas Pophale) SiO2 
 PCOD9562331
Probable space group: P 4/M C C
;
_chemical_formula_sum "Si O2"
_cell_formula_units_Z 96
_cell_length_a 17.583417
_cell_length_b 17.583417
_cell_length_c 17.465807
_cell_angle_alpha 90.000000
_cell_angle_beta 90.000000
_cell_angle_gamma 90.000000
_cell_volume 5400.018011
_symmetry_space_group_name_H-M "P 4/M C C"
_symmetry_group_IT_number 124
_symmetry_cell_setting 'tetragonal'
loop_
_space_group_symop_operation_xyz
x,y,z
-y,x,z
-x,-y,z
y,-x,z
x,-y,1/2-z
-x,y,1/2-z
y,x,1/2-z
-y,-x,1/2-z
-x,-y,-z
y,-x,-z
x,y,-z
-y,x,-z
-x,y,1/2+z
x,-y,1/2+z
-y,-x,1/2+z
y,x,1/2+z
loop_
_atom_site_type_symbol
_atom_site_label
_atom_site_fract_x
_atom_site_fract_y
_atom_site_fract_z
Si Si1 0.414563 0.119138 0.266661
Si Si2 0.473222 0.624461 0.411756
Si Si3 0.044958 0.727326 0.822841
Si Si4 0.619305 0.720214 0.196335
Si Si5 0.770966 0.789249 0.157996
Si Si6 0.317456 0.099399 0.589088
O O1 0.500000 0.094327 0.250000
O O2 0.352292 0.076022 0.213729
O O3 0.405192 0.207615 0.245822
O O4 0.389096 0.108966 0.354182
O O5 0.412860 0.555690 0.400734
O O6 0.468255 0.649635 0.500000
O O7 0.449913 0.688881 0.353047
O O8 0.120255 0.768774 0.853144
O O9 0.000000 0.763924 0.750000
O O10 0.983438 0.714537 0.888481
O O11 0.655002 0.655002 0.250000
O O12 0.689074 0.750154 0.142987
O O13 0.780301 0.780301 0.250000
O O14 0.837095 0.743812 0.115582
O O15 0.334455 0.106568 0.500000
#
# Coordination Sequence:
#
# PCOD9562331 Si02
#       6
#    16  16  16  16  16  16
#     4  10  21  38  57  82 113 153 189 236 284 340
#     4   9  20  36  50  71 106 143 181 234 296 341
#     4   9  18  35  60  84 115 154 195 225 273 351
#     4  10  19  33  54  78 102 139 191 230 274 341
#     4  10  17  36  58  86 115 148 191 228 277 342
#     4  11  22  37  60  90 118 150 190 241 292 334
#
# _framework density 17.777718
#
# number of rings (size 3 to 8) (size 9 to 14) (size 15 to 20)
#    0.000    2.167    6.667    0.500    2.333    4.333 
#    0.000    5.833    0.000    0.500    0.000    1.167 
#    0.000    0.000    0.000    0.000    0.000    0.000 
#
# Total GULP energy -535358.304797 kJ/mol
# GULP energy per Si atom -5576.649008 kJ/mol
# Density = 1.773726 g / cm^3
# Si number density = 17.777718 Si / 1000 Ang^3
#
#
#
# Elastic Constant Matrix: (Units=GPa)
#
#
# Indices 1 2 3 4 5 6 
#
# 1 53.9895 7.9066 33.7092 0.0000 0.0000 0.0000
# 2 7.9066 53.9895 33.7092 0.0000 0.0000 0.0000
# 3 33.7092 33.7092 94.1538 0.0000 0.0000 0.0000
# 4 0.0000 0.0000 0.0000 19.1001 0.0000 0.0000
# 5 0.0000 0.0000 0.0000 0.0000 19.1001 0.0000
# 6 0.0000 0.0000 0.0000 0.0000 0.0000 8.7428
#
#
#
# Elastic Compliance Matrix: (Units=1/GPa)
#
#
# Indices 1 2 3 4 5 6 
#
# 1 0.024092 0.002392 -0.009482 0.000000 0.000000 0.000000
# 2 0.002392 0.024092 -0.009482 0.000000 0.000000 0.000000
# 3 -0.009482 -0.009482 0.017410 0.000000 0.000000 0.000000
# 4 0.000000 0.000000 0.000000 0.052356 0.000000 0.000000
# 5 0.000000 0.000000 0.000000 0.000000 0.052356 0.000000
# 6 0.000000 0.000000 0.000000 0.000000 0.000000 0.114380
#
#
# Mechanical properties :
#
#
# Convention : Reuss Voigt Hill
#
# Bulk Modulus (GPa) = 30.81588 39.19811 35.00700
# Shear Modulus (GPa) = 15.21393 17.84245 16.52819
#
# Velocity S-wave (km/s) = 2.92856 3.17147 3.05243
# Velocity P-wave (km/s) = 5.36720 5.95884 5.67074
#
# Compressibility (1/GPa) = 0.03245080
#
# Stress axis : x y z
#
# Youngs Moduli (GPa) = 41.50762 41.50762 57.43703
#
# Poissons Ratio (x) = -0.09928 0.54461
# Poissons Ratio (y) = -0.09928 0.54461
# Poissons Ratio (z) = 0.39357 0.39357
#
# Static dielectric constant tensor:
#      x y z
#    x 1.637810 0.000000 0.000000 
#    y 0.000000 1.637810 0.000000 
#    z 0.000000 0.000000 1.593730 
# 
# From -- ./inp_files/4287.got.cif
#   From: 2010.05.17/outbox.cif.g08.bks.cpg/sg124_3_cif.got.tgz:4287.got - 2010.05.20 11:49:17.
