data_PCOD9562641
_publ_section_title
;
Structure prediction by ZEFSAII (Michael W. Deem and Ramdas Pophale) SiO2 
 PCOD9562641
Probable space group: P 4/M C C
;
_chemical_formula_sum "Si O2"
_cell_formula_units_Z 96
_cell_length_a 17.813310
_cell_length_b 17.813310
_cell_length_c 17.104404
_cell_angle_alpha 90.000000
_cell_angle_beta 90.000000
_cell_angle_gamma 90.000000
_cell_volume 5427.467076
_symmetry_space_group_name_H-M "P 4/M C C"
_symmetry_group_IT_number 124
_symmetry_cell_setting 'tetragonal'
loop_
_space_group_symop_operation_xyz
x,y,z
-y,x,z
-x,-y,z
y,-x,z
x,-y,1/2-z
-x,y,1/2-z
y,x,1/2-z
-y,-x,1/2-z
-x,-y,-z
y,-x,-z
x,y,-z
-y,x,-z
-x,y,1/2+z
x,-y,1/2+z
-y,-x,1/2+z
y,x,1/2+z
loop_
_atom_site_type_symbol
_atom_site_label
_atom_site_fract_x
_atom_site_fract_y
_atom_site_fract_z
Si Si1 0.458921 0.707029 0.591900
Si Si2 0.411054 0.996816 0.084219
Si Si3 0.780374 0.748950 0.841228
Si Si4 0.691251 0.924484 0.709884
Si Si5 0.383794 0.668172 0.837367
Si Si6 0.351755 0.845959 0.631557
O O1 0.478312 0.713912 0.500000
O O2 0.531328 0.691697 0.645453
O O3 0.399560 0.640071 0.605695
O O4 0.413068 0.781013 0.619419
O O5 0.376707 0.080374 0.086015
O O6 0.500000 0.000000 0.093525
O O7 0.374416 0.952768 0.154578
O O8 0.394345 0.961461 0.000000
O O9 0.766236 0.766236 0.750000
O O10 0.870194 0.743277 0.842919
O O11 0.739494 0.669545 0.855607
O O12 0.730114 0.809972 0.887199
O O13 0.655845 0.874684 0.779233
O O14 0.725377 0.000000 0.750000
O O15 0.361776 0.638225 0.750000
#
# Coordination Sequence:
#
# PCOD9562641 Si02
#       6
#    16  16  16  16  16  16
#     4  11  22  37  55  76 100 135 180 235 291 337
#     4  10  21  35  48  76 114 145 181 227 276 327
#     4   8  16  33  52  77 102 132 177 223 267 326
#     4   9  18  33  54  79 102 139 178 221 276 336
#     4  10  21  36  53  74  99 134 180 231 280 340
#     4   9  19  35  55  75 107 144 178 219 273 340
#
# _framework density 17.687808
#
# number of rings (size 3 to 8) (size 9 to 14) (size 15 to 20)
#    0.000    2.500    0.000    2.500    2.333    3.333 
#    6.000    5.833    0.000    0.000    0.000    0.000 
#    0.000  175.667    0.000   24.000    0.000    0.000 
#
# Total GULP energy -534453.059717 kJ/mol
# GULP energy per Si atom -5567.219372 kJ/mol
# Density = 1.764755 g / cm^3
# Si number density = 17.687808 Si / 1000 Ang^3
#
#
#
# Elastic Constant Matrix: (Units=GPa)
#
#
# Indices 1 2 3 4 5 6 
#
# 1 82.7205 30.5954 35.5933 0.0000 0.0000 0.0000
# 2 30.5954 82.7204 35.5932 0.0000 0.0000 0.0000
# 3 35.5933 35.5932 58.9736 0.0000 0.0000 0.0000
# 4 0.0000 0.0000 0.0000 -2.4617 0.0000 0.0000
# 5 0.0000 0.0000 0.0000 0.0000 -2.4615 0.0000
# 6 0.0000 0.0000 0.0000 0.0000 0.0000 10.0040
#
#
#
# Elastic Compliance Matrix: (Units=1/GPa)
#
#
# Indices 1 2 3 4 5 6 
#
# 1 0.016699 -0.002485 -0.008579 0.000000 0.000000 0.000000
# 2 -0.002485 0.016699 -0.008579 0.000000 0.000000 0.000000
# 3 -0.008579 -0.008579 0.027312 0.000000 0.000000 0.000000
# 4 0.000000 0.000000 0.000000 -0.406227 0.000000 0.000000
# 5 0.000000 0.000000 0.000000 0.000000 -0.406260 0.000000
# 6 0.000000 0.000000 0.000000 0.000000 0.000000 0.099960
#
#
# Mechanical properties :
#
#
# Convention : Reuss Voigt Hill
#
# Bulk Modulus (GPa) = 46.67436 47.55316 47.11376
# Shear Modulus (GPa) = -8.25916 9.19168 0.46626
#
# Velocity S-wave (km/s) = -2.16323 2.28208 0.51398
# Velocity P-wave (km/s) = 4.49508 5.82125 5.20061
#
# Compressibility (1/GPa) = 0.02142504
#
# Stress axis : x y z
#
# Youngs Moduli (GPa) = 59.88205 59.88212 36.61343
#
# Poissons Ratio (x) = 0.14882 0.31411
# Poissons Ratio (y) = 0.14882 0.31411
# Poissons Ratio (z) = 0.51373 0.51373
#
# Static dielectric constant tensor:
#      x y z
#    x 1.635870 0.000000 0.000000 
#    y 0.000000 1.635880 0.000000 
#    z 0.000000 0.000000 1.641530 
# 
# From -- ./inp_files/4283.got.cif
#   From: 2010.05.17/outbox.cif.g08.bks.cpg/sg124_3_cif.got.tgz:4283.got - 2010.05.20 11:49:17.
