data_PCOD9562191
_publ_section_title
;
Structure prediction by ZEFSAII (Michael W. Deem and Ramdas Pophale) SiO2 
 PCOD9562191
Probable space group: P 4/M M M
;
_chemical_formula_sum "Si O2"
_cell_formula_units_Z 58
_cell_length_a 12.460727
_cell_length_b 12.460727
_cell_length_c 21.484717
_cell_angle_alpha 90.000000
_cell_angle_beta 90.000000
_cell_angle_gamma 90.000000
_cell_volume 3335.925936
_symmetry_space_group_name_H-M "P 4/M M M"
_symmetry_group_IT_number 123
_symmetry_cell_setting 'tetragonal'
loop_
_space_group_symop_operation_xyz
x,y,z
-y,x,z
-x,-y,z
y,-x,z
x,-y,-z
-x,y,-z
y,x,-z
-y,-x,-z
-x,-y,-z
y,-x,-z
x,y,-z
-y,x,-z
-x,y,z
x,-y,z
-y,-x,z
y,x,z
loop_
_atom_site_type_symbol
_atom_site_label
_atom_site_fract_x
_atom_site_fract_y
_atom_site_fract_z
Si Si1 0.623724 0.801720 0.428363
Si Si2 0.000000 0.738121 0.205918
Si Si3 0.000000 0.000000 0.803973
Si Si4 0.371407 0.120151 0.000000
Si Si5 0.628648 0.201709 0.137476
Si Si6 0.374186 0.000000 0.663587
O O1 0.637708 0.839874 0.500000
O O2 0.500000 0.766899 0.422264
O O3 0.704663 0.704663 0.417892
O O4 0.642558 0.896660 0.379883
O O5 0.104397 0.682842 0.174984
O O6 0.000000 0.865897 0.196705
O O7 0.000000 0.704527 0.278166
O O8 0.347430 0.177934 0.935388
O O9 0.500000 0.109778 0.000000
O O10 0.323917 0.000000 0.000000
O O11 0.500000 0.203541 0.146405
O O12 0.687778 0.312223 0.154706
O O13 0.500000 0.000000 0.684118
#
# Coordination Sequence:
#
# PCOD9562191 Si02
#       6
#    16   8   2   8  16   8
#     4   9  18  33  54  81 112 145 183 227 273 326
#     4  12  24  42  61  84 114 152 194 244 294 348
#     4  12  28  44  60  85 117 148 188 248 298 340
#     4   9  17  32  57  85 113 151 194 233 280 338
#     4  11  22  38  61  87 119 154 194 239 290 350
#     4  10  21  36  57  81 109 148 190 226 274 336
#
# _framework density 17.386476999999999
#
# number of rings (size 3 to 8) (size 9 to 14) (size 15 to 20)
#    0.000    1.793    2.759    2.069    1.931    2.207 
#    0.000    1.379    0.000    3.310    0.000    6.759 
#    0.000    0.000    0.000    0.000    0.000    0.000 
#
# Total GULP energy -322961.715608 kJ/mol
# GULP energy per Si atom -5568.305442 kJ/mol
# Density = 1.734690 g / cm^3
# Si number density = 17.386477 Si / 1000 Ang^3
#
#
#
# Elastic Constant Matrix: (Units=GPa)
#
#
# Indices 1 2 3 4 5 6 
#
# 1 136.9925 82.6693 54.3604 0.0000 0.0000 0.0000
# 2 82.6693 136.9925 54.3604 0.0000 0.0000 0.0000
# 3 54.3604 54.3604 79.8006 0.0000 0.0000 0.0000
# 4 0.0000 0.0000 0.0000 12.6499 0.0000 0.0000
# 5 0.0000 0.0000 0.0000 0.0000 12.6499 0.0000
# 6 0.0000 0.0000 0.0000 0.0000 0.0000 24.4454
#
#
#
# Elastic Compliance Matrix: (Units=1/GPa)
#
#
# Indices 1 2 3 4 5 6 
#
# 1 0.012638 -0.005770 -0.004679 0.000000 0.000000 0.000000
# 2 -0.005770 0.012638 -0.004679 0.000000 0.000000 0.000000
# 3 -0.004679 -0.004679 0.018905 0.000000 0.000000 0.000000
# 4 0.000000 0.000000 0.000000 0.079052 0.000000 0.000000
# 5 0.000000 0.000000 0.000000 0.000000 0.079052 0.000000
# 6 0.000000 0.000000 0.000000 0.000000 0.000000 0.040908
#
#
# Mechanical properties :
#
#
# Convention : Reuss Voigt Hill
#
# Bulk Modulus (GPa) = 71.80163 81.84064 76.82113
# Shear Modulus (GPa) = 17.97975 20.77538 19.37757
#
# Velocity S-wave (km/s) = 3.21927 3.46051 3.34206
# Velocity P-wave (km/s) = 7.43003 7.94609 7.69239
#
# Compressibility (1/GPa) = 0.01392726
#
# Stress axis : x y z
#
# Youngs Moduli (GPa) = 79.12506 79.12506 52.89511
#
# Poissons Ratio (x) = 0.45656 0.24747
# Poissons Ratio (y) = 0.45656 0.24747
# Poissons Ratio (z) = 0.37019 0.37019
#
# Static dielectric constant tensor:
#      x y z
#    x 1.576530 0.000000 0.000000 
#    y 0.000000 1.576530 0.000000 
#    z 0.000000 0.000000 1.597490 
# 
# From -- ./inp_files/6203.got.cif
#   From: 2010.05.17/outbox.cif.g08.bks.cpg/sg123_4_cif.got.tgz:6203.got - 2010.05.20 11:43:04.
