data_PCOD9562464
_publ_section_title
;
Structure prediction by ZEFSAII (Michael W. Deem and Ramdas Pophale) SiO2 
 PCOD9562464
Probable space group: P 4/M C C
;
_chemical_formula_sum "Si O2"
_cell_formula_units_Z 80
_cell_length_a 15.652872
_cell_length_b 15.652872
_cell_length_c 15.054975
_cell_angle_alpha 90.000000
_cell_angle_beta 90.000000
_cell_angle_gamma 90.000000
_cell_volume 3688.655585
_symmetry_space_group_name_H-M "P 4/M C C"
_symmetry_group_IT_number 124
_symmetry_cell_setting 'tetragonal'
loop_
_space_group_symop_operation_xyz
x,y,z
-y,x,z
-x,-y,z
y,-x,z
x,-y,1/2-z
-x,y,1/2-z
y,x,1/2-z
-y,-x,1/2-z
-x,-y,-z
y,-x,-z
x,y,-z
-y,x,-z
-x,y,1/2+z
x,-y,1/2+z
-y,-x,1/2+z
y,x,1/2+z
loop_
_atom_site_type_symbol
_atom_site_label
_atom_site_fract_x
_atom_site_fract_y
_atom_site_fract_z
Si Si1 0.170706 0.189271 0.356404
Si Si2 0.014116 0.246708 0.148821
Si Si3 0.738831 0.473512 0.395540
Si Si4 0.303307 0.659498 0.892695
Si Si5 0.555149 0.071695 0.843031
O O1 0.174860 0.174860 0.250000
O O2 0.200422 0.096750 0.392392
O O3 0.239072 0.263754 0.372627
O O4 0.078780 0.223297 0.390118
O O5 0.037366 0.347597 0.158067
O O6 0.000000 0.216291 0.250000
O O7 0.718391 0.479331 0.500000
O O8 0.727966 0.568208 0.357715
O O9 0.681272 0.397622 0.358020
O O10 0.836254 0.445003 0.385911
O O11 0.306887 0.655798 0.000000
O O12 0.500000 0.082578 0.750000
O O13 0.500000 0.000000 0.892470
#
# Coordination Sequence:
#
# PCOD9562464 Si02
#       5
#    16  16  16  16  16
#     4  10  21  36  59  81 115 145 192 229 282 333
#     4  10  19  35  54  87 110 149 182 234 280 326
#     4  10  22  37  56  81 112 147 186 229 278 331
#     4  10  21  38  56  82 114 148 187 231 278 335
#     4  11  20  33  57  82 115 141 186 230 282 336
#
# _framework density 21.688119
#
# number of rings (size 3 to 8) (size 9 to 14) (size 15 to 20)
#    0.000    1.800    4.000    1.200    2.800    1.200 
#    0.000    6.000    0.000    0.000    0.000    4.200 
#    0.000    0.000    0.000    0.000    0.000    0.000 
#
# Total GULP energy -445976.229564 kJ/mol
# GULP energy per Si atom -5574.702870 kJ/mol
# Density = 2.163876 g / cm^3
# Si number density = 21.688119 Si / 1000 Ang^3
#
#
#
# Elastic Constant Matrix: (Units=GPa)
#
#
# Indices 1 2 3 4 5 6 
#
# 1 184.3489 99.5963 10.8186 0.0000 0.0000 0.0000
# 2 99.5963 184.3489 10.8186 0.0000 0.0000 0.0000
# 3 10.8186 10.8186 41.9621 0.0000 0.0000 0.0000
# 4 0.0000 0.0000 0.0000 12.8135 0.0000 0.0000
# 5 0.0000 0.0000 0.0000 0.0000 12.8135 0.0000
# 6 0.0000 0.0000 0.0000 0.0000 0.0000 48.1670
#
#
#
# Elastic Compliance Matrix: (Units=1/GPa)
#
#
# Indices 1 2 3 4 5 6 
#
# 1 0.007696 -0.004103 -0.000926 0.000000 0.000000 0.000000
# 2 -0.004103 0.007696 -0.000926 0.000000 0.000000 0.000000
# 3 -0.000926 -0.000926 0.024309 0.000000 0.000000 0.000000
# 4 0.000000 0.000000 0.000000 0.078043 0.000000 0.000000
# 5 0.000000 0.000000 0.000000 0.000000 0.078043 0.000000
# 6 0.000000 0.000000 0.000000 0.000000 0.000000 0.020761
#
#
# Mechanical properties :
#
#
# Convention : Reuss Voigt Hill
#
# Bulk Modulus (GPa) = 35.98593 72.56968 54.27780
# Shear Modulus (GPa) = 21.03307 34.05389 27.54348
#
# Velocity S-wave (km/s) = 3.11753 3.96683 3.56754
# Velocity P-wave (km/s) = 5.43941 7.38337 6.48465
#
# Compressibility (1/GPa) = 0.02778864
#
# Stress axis : x y z
#
# Youngs Moduli (GPa) = 129.94239 129.94239 41.13767
#
# Poissons Ratio (x) = 0.53320 0.03810
# Poissons Ratio (y) = 0.53320 0.03810
# Poissons Ratio (z) = 0.12035 0.12035
#
# Static dielectric constant tensor:
#      x y z
#    x 1.802530 0.000000 0.000000 
#    y 0.000000 1.802530 0.000000 
#    z 0.000000 0.000000 1.876390 
# 
# From -- ./inp_files/5083.got.cif
#   From: 2010.05.17/outbox.cif.g08.bks.cpg/sg124_3_cif.got.tgz:5083.got - 2010.05.20 11:49:17.
