data_PCOD9562615
_publ_section_title
;
Structure prediction by ZEFSAII (Michael W. Deem and Ramdas Pophale) SiO2 
 PCOD9562615
Probable space group: P 4/M C C
;
_chemical_formula_sum "Si O2"
_cell_formula_units_Z 112
_cell_length_a 14.441429
_cell_length_b 14.441429
_cell_length_c 25.521661
_cell_angle_alpha 90.000000
_cell_angle_beta 90.000000
_cell_angle_gamma 90.000000
_cell_volume 5322.666732
_symmetry_space_group_name_H-M "P 4/M C C"
_symmetry_group_IT_number 124
_symmetry_cell_setting 'tetragonal'
loop_
_space_group_symop_operation_xyz
x,y,z
-y,x,z
-x,-y,z
y,-x,z
x,-y,1/2-z
-x,y,1/2-z
y,x,1/2-z
-y,-x,1/2-z
-x,-y,-z
y,-x,-z
x,y,-z
-y,x,-z
-x,y,1/2+z
x,-y,1/2+z
-y,-x,1/2+z
y,x,1/2+z
loop_
_atom_site_type_symbol
_atom_site_label
_atom_site_fract_x
_atom_site_fract_y
_atom_site_fract_z
Si Si1 0.901205 0.673963 0.941341
Si Si2 0.188664 0.844979 0.310730
Si Si3 0.593424 0.374939 0.557946
Si Si4 0.642280 0.030591 0.346530
Si Si5 0.529210 0.141457 0.190354
Si Si6 0.657402 0.739291 0.363576
Si Si7 0.921095 0.127308 0.411529
O O1 0.813280 0.635731 0.910073
O O2 0.881843 0.783982 0.940291
O O3 0.991398 0.658507 0.905021
O O4 0.911013 0.639285 0.000000
O O5 0.162097 0.837904 0.250000
O O6 0.266463 0.922629 0.322654
O O7 0.232407 0.748437 0.331365
O O8 0.101706 0.860716 0.349684
O O9 0.624303 0.482679 0.560569
O O10 0.620605 0.338733 0.500000
O O11 0.643021 0.328667 0.607087
O O12 0.557687 0.102902 0.342666
O O13 0.608380 0.938232 0.315873
O O14 0.500000 0.142997 0.250000
O O15 0.570627 0.240045 0.173761
O O16 0.028911 0.121993 0.424848
#
# Coordination Sequence:
#
# PCOD9562615 Si02
#       7
#    16  16  16  16  16  16  16
#     4  10  21  39  60  85 119 154 195 252 299 349
#     4  11  23  38  60  86 120 155 195 252 297 347
#     4   9  19  38  64  90 117 155 195 236 295 360
#     4  10  20  38  58  86 117 149 201 244 294 357
#     4  10  21  38  64  88 116 160 198 242 300 363
#     4  10  22  38  60  91 121 151 196 250 294 359
#     4  10  21  39  56  81 115 152 204 242 286 350
#
# _framework density 21.042083000000002
#
# number of rings (size 3 to 8) (size 9 to 14) (size 15 to 20)
#    0.000    2.000    1.429    2.571    2.000    3.429 
#    0.000    8.571    0.000    0.000    0.000    0.000 
#    0.000    0.000    0.000    0.000    0.000    0.000 
#
# Total GULP energy -625188.758714 kJ/mol
# GULP energy per Si atom -5582.042489 kJ/mol
# Density = 2.099419 g / cm^3
# Si number density = 21.042083 Si / 1000 Ang^3
#
#
#
# Elastic Constant Matrix: (Units=GPa)
#
#
# Indices 1 2 3 4 5 6 
#
# 1 45.7038 2.4710 7.5814 0.0000 0.0000 0.0000
# 2 2.4710 45.7037 7.5812 0.0000 0.0000 0.0000
# 3 7.5814 7.5812 109.2120 0.0000 0.0000 0.0000
# 4 0.0000 0.0000 0.0000 8.0264 0.0000 0.0000
# 5 0.0000 0.0000 0.0000 0.0000 8.0270 0.0000
# 6 0.0000 0.0000 0.0000 0.0000 0.0000 19.2263
#
#
#
# Elastic Compliance Matrix: (Units=1/GPa)
#
#
# Indices 1 2 3 4 5 6 
#
# 1 0.022176 -0.000955 -0.001473 0.000000 0.000000 0.000000
# 2 -0.000955 0.022176 -0.001473 0.000000 0.000000 0.000000
# 3 -0.001473 -0.001473 0.009361 0.000000 0.000000 0.000000
# 4 0.000000 0.000000 0.000000 0.124588 0.000000 0.000000
# 5 0.000000 0.000000 0.000000 0.000000 0.124579 0.000000
# 6 0.000000 0.000000 0.000000 0.000000 0.000000 0.052012
#
#
# Mechanical properties :
#
#
# Convention : Reuss Voigt Hill
#
# Bulk Modulus (GPa) = 21.78112 26.20962 23.99537
# Shear Modulus (GPa) = 13.22759 19.25502 16.24130
#
# Velocity S-wave (km/s) = 2.50996 3.02830 2.78123
# Velocity P-wave (km/s) = 4.33285 4.97095 4.66282
#
# Compressibility (1/GPa) = 0.04591131
#
# Stress axis : x y z
#
# Youngs Moduli (GPa) = 45.09375 45.09370 106.82589
#
# Poissons Ratio (x) = 0.04305 0.15737
# Poissons Ratio (y) = 0.04305 0.15737
# Poissons Ratio (z) = 0.06643 0.06643
#
# Static dielectric constant tensor:
#      x y z
#    x 1.787460 0.000000 0.000000 
#    y 0.000000 1.787460 0.000000 
#    z 0.000000 0.000000 1.778510 
# 
# From -- ./inp_files/6610.got.cif
#   From: 2010.05.17/outbox.cif.g08.bks.cpg/sg124_4_cif.got.tgz:6610.got - 2010.05.20 11:49:17.
