data_PCOD9562662
_publ_section_title
;
Structure prediction by ZEFSAII (Michael W. Deem and Ramdas Pophale) SiO2 
 PCOD9562662
Probable space group: P 4/M C C
;
_chemical_formula_sum "Si O2"
_cell_formula_units_Z 96
_cell_length_a 15.739405
_cell_length_b 15.739405
_cell_length_c 21.263523
_cell_angle_alpha 90.000000
_cell_angle_beta 90.000000
_cell_angle_gamma 90.000000
_cell_volume 5267.588520
_symmetry_space_group_name_H-M "P 4/M C C"
_symmetry_group_IT_number 124
_symmetry_cell_setting 'tetragonal'
loop_
_space_group_symop_operation_xyz
x,y,z
-y,x,z
-x,-y,z
y,-x,z
x,-y,1/2-z
-x,y,1/2-z
y,x,1/2-z
-y,-x,1/2-z
-x,-y,-z
y,-x,-z
x,y,-z
-y,x,-z
-x,y,1/2+z
x,-y,1/2+z
-y,-x,1/2+z
y,x,1/2+z
loop_
_atom_site_type_symbol
_atom_site_label
_atom_site_fract_x
_atom_site_fract_y
_atom_site_fract_z
Si Si1 0.550738 0.367731 0.426659
Si Si2 0.729391 0.672118 0.655341
Si Si3 0.407573 0.221778 0.724385
Si Si4 0.176640 0.812076 0.073556
Si Si5 0.404874 0.966742 0.179629
Si Si6 0.992381 0.737657 0.925348
O O1 0.605505 0.453580 0.415799
O O2 0.559149 0.345517 0.500000
O O3 0.588986 0.293899 0.384472
O O4 0.642130 0.707315 0.685426
O O5 0.790781 0.648003 0.712514
O O6 0.769588 0.745470 0.613695
O O7 0.500000 0.247063 0.750000
O O8 0.410802 0.135094 0.685859
O O9 0.206925 0.907771 0.086783
O O10 0.077322 0.793098 0.084165
O O11 0.193741 0.796120 0.000000
O O12 0.340165 0.991810 0.124150
O O13 0.500000 0.000000 0.167143
O O14 0.380544 0.000000 0.250000
O O15 0.990933 0.711688 0.000000
#
# Coordination Sequence:
#
# PCOD9562662 Si02
#       6
#    16  16  16  16  16  16
#     4   9  18  34  55  79 110 152 196 239 294 353
#     4  11  21  35  58  81 120 150 194 248 289 347
#     4  11  22  36  54  86 113 152 199 236 290 352
#     4  10  21  38  61  86 116 151 192 244 298 353
#     4  11  21  38  61  83 118 160 194 237 293 354
#     4  10  22  41  62  89 120 153 198 246 298 357
#
# _framework density 18.224658999999999
#
# number of rings (size 3 to 8) (size 9 to 14) (size 15 to 20)
#    0.000    1.667    3.333    3.000    0.000    0.667 
#    0.000    1.667    0.000    4.000    0.000    1.167 
#    0.000    0.000    0.000    0.000    0.000    0.000 
#
# Total GULP energy -535643.498435 kJ/mol
# GULP energy per Si atom -5579.619775 kJ/mol
# Density = 1.818318 g / cm^3
# Si number density = 18.224659 Si / 1000 Ang^3
#
#
#
# Elastic Constant Matrix: (Units=GPa)
#
#
# Indices 1 2 3 4 5 6 
#
# 1 71.5572 19.4500 51.4919 0.0000 0.0000 0.0000
# 2 19.4500 71.5572 51.4919 0.0000 0.0000 0.0000
# 3 51.4919 51.4919 97.0184 0.0000 0.0000 0.0000
# 4 0.0000 0.0000 0.0000 28.5469 0.0000 0.0000
# 5 0.0000 0.0000 0.0000 0.0000 28.5469 0.0000
# 6 0.0000 0.0000 0.0000 0.0000 0.0000 24.1254
#
#
#
# Elastic Compliance Matrix: (Units=1/GPa)
#
#
# Indices 1 2 3 4 5 6 
#
# 1 0.023351 0.004160 -0.014601 0.000000 0.000000 0.000000
# 2 0.004160 0.023351 -0.014601 0.000000 0.000000 0.000000
# 3 -0.014601 -0.014601 0.025806 0.000000 0.000000 0.000000
# 4 0.000000 0.000000 0.000000 0.035030 0.000000 0.000000
# 5 0.000000 0.000000 0.000000 0.000000 0.035030 0.000000
# 6 0.000000 0.000000 0.000000 0.000000 0.000000 0.041450
#
#
# Mechanical properties :
#
#
# Convention : Reuss Voigt Hill
#
# Bulk Modulus (GPa) = 44.59664 53.88893 49.24279
# Shear Modulus (GPa) = 20.69721 24.09044 22.39383
#
# Velocity S-wave (km/s) = 3.37363 3.63968 3.50918
# Velocity P-wave (km/s) = 6.30070 6.87724 6.59527
#
# Compressibility (1/GPa) = 0.02242321
#
# Stress axis : x y z
#
# Youngs Moduli (GPa) = 42.82462 42.82462 38.75009
#
# Poissons Ratio (x) = -0.17815 0.56580
# Poissons Ratio (y) = -0.17815 0.56580
# Poissons Ratio (z) = 0.62529 0.62529
#
# Static dielectric constant tensor:
#      x y z
#    x 1.614370 0.000000 0.000000 
#    y 0.000000 1.614370 0.000000 
#    z 0.000000 0.000000 1.629400 
# 
# From -- ./inp_files/5282.got.cif
#   From: 2010.05.17/outbox.cif.g08.bks.cpg/sg124_3_cif.got.tgz:5282.got - 2010.05.20 11:49:17.
