data_PCOD9562646
_publ_section_title
;
Structure prediction by ZEFSAII (Michael W. Deem and Ramdas Pophale) SiO2 
 PCOD9562646
Probable space group: P 4/M C C
;
_chemical_formula_sum "Si O2"
_cell_formula_units_Z 96
_cell_length_a 23.619988
_cell_length_b 23.619988
_cell_length_c 10.196981
_cell_angle_alpha 90.000000
_cell_angle_beta 90.000000
_cell_angle_gamma 90.000000
_cell_volume 5688.934786
_symmetry_space_group_name_H-M "P 4/M C C"
_symmetry_group_IT_number 124
_symmetry_cell_setting 'tetragonal'
loop_
_space_group_symop_operation_xyz
x,y,z
-y,x,z
-x,-y,z
y,-x,z
x,-y,1/2-z
-x,y,1/2-z
y,x,1/2-z
-y,-x,1/2-z
-x,-y,-z
y,-x,-z
x,y,-z
-y,x,-z
-x,y,1/2+z
x,-y,1/2+z
-y,-x,1/2+z
y,x,1/2+z
loop_
_atom_site_type_symbol
_atom_site_label
_atom_site_fract_x
_atom_site_fract_y
_atom_site_fract_z
Si Si1 0.881358 0.458163 0.000000
Si Si2 0.425346 0.245927 0.500000
Si Si3 0.607839 0.939533 0.771546
Si Si4 0.445165 0.253963 0.000000
Si Si5 0.182045 0.740395 0.157578
Si Si6 0.358943 0.263358 0.233905
Si Si7 0.889042 0.585679 0.000000
Si Si8 0.951311 0.735804 0.350040
O O1 0.901550 0.427736 0.868687
O O2 0.908419 0.520458 0.000000
O O3 0.813887 0.452970 0.000000
O O4 0.488797 0.271767 0.500000
O O5 0.391267 0.260993 0.370420
O O6 0.423205 0.177821 0.500000
O O7 0.615717 0.910398 0.630963
O O8 0.667609 0.952382 0.839785
O O9 0.578870 0.000000 0.750000
O O10 0.406961 0.271102 0.123928
O O11 0.216175 0.783825 0.250000
O O12 0.207359 0.678487 0.197009
O O13 0.114816 0.748395 0.180127
O O14 0.192521 0.747341 0.000000
O O15 0.313342 0.313342 0.250000
O O16 0.963174 0.753077 0.500000
O O17 0.000000 0.756753 0.250000
#
# Coordination Sequence:
#
# PCOD9562646 Si02
#       8
#     8   8  16   8  16  16   8  16
#     4  11  21  35  50  65  92 131 167 213 269 306
#     4  11  23  36  55  80 104 138 176 208 263 335
#     4  11  22  34  46  65  91 127 176 224 267 306
#     4  11  21  38  57  76 108 138 168 212 265 331
#     4  10  21  36  56  82 112 146 186 232 282 329
#     4  11  22  37  56  82 110 138 174 221 272 323
#     4  11  23  33  48  69  90 127 175 215 259 314
#     4  10  21  36  53  74 102 139 180 225 273 324
#
# _framework density 16.874863999999999
#
# number of rings (size 3 to 8) (size 9 to 14) (size 15 to 20)
#    0.000    1.333    1.667    5.000    7.000    5.333 
#    0.000    0.000    0.000    0.000    0.000    0.000 
#    0.000   23.667    0.000    3.667    0.000    2.667 
#
# Total GULP energy -535538.067790 kJ/mol
# GULP energy per Si atom -5578.521539 kJ/mol
# Density = 1.683646 g / cm^3
# Si number density = 16.874864 Si / 1000 Ang^3
#
#
#
# Elastic Constant Matrix: (Units=GPa)
#
#
# Indices 1 2 3 4 5 6 
#
# 1 71.1957 32.4804 49.2800 0.0000 0.0000 0.0000
# 2 32.4804 71.1987 49.2804 0.0000 0.0000 0.0000
# 3 49.2800 49.2804 154.6926 0.0000 0.0000 0.0000
# 4 0.0000 0.0000 0.0000 40.8184 0.0000 0.0000
# 5 0.0000 0.0000 0.0000 0.0000 40.8196 0.0000
# 6 0.0000 0.0000 0.0000 0.0000 0.0000 9.0782
#
#
#
# Elastic Compliance Matrix: (Units=1/GPa)
#
#
# Indices 1 2 3 4 5 6 
#
# 1 0.019832 -0.005997 -0.004408 0.000000 0.000000 0.000000
# 2 -0.005997 0.019831 -0.004407 0.000000 0.000000 0.000000
# 3 -0.004408 -0.004407 0.009273 0.000000 0.000000 0.000000
# 4 0.000000 0.000000 0.000000 0.024499 0.000000 0.000000
# 5 0.000000 0.000000 0.000000 0.000000 0.024498 0.000000
# 6 0.000000 0.000000 0.000000 0.000000 0.000000 0.110153
#
#
# Mechanical properties :
#
#
# Convention : Reuss Voigt Hill
#
# Bulk Modulus (GPa) = 51.77818 62.12985 56.95402
# Shear Modulus (GPa) = 20.47942 29.21300 24.84621
#
# Velocity S-wave (km/s) = 3.48746 4.16523 3.84132
# Velocity P-wave (km/s) = 6.85323 7.74791 7.31426
#
# Compressibility (1/GPa) = 0.01931315
#
# Stress axis : x y z
#
# Youngs Moduli (GPa) = 50.42251 50.42504 107.84472
#
# Poissons Ratio (x) = 0.30238 0.47534
# Poissons Ratio (y) = 0.30237 0.47531
# Poissons Ratio (z) = 0.22224 0.22224
#
# Static dielectric constant tensor:
#      x y z
#    x 1.584650 0.000000 0.000000 
#    y 0.000000 1.584650 0.000000 
#    z 0.000000 0.000000 1.589000 
# 
# From -- ./inp_files/1473.got.cif
#   From: 2010.05.17/outbox.cif.g08.bks.cpg/sg124_1_cif.got.tgz:1473.got - 2010.05.20 11:49:17.
