data_PCOD9562100
_publ_section_title
;
Structure prediction by ZEFSAII (Michael W. Deem and Ramdas Pophale) SiO2 
 PCOD9562100
Probable space group: P 4/M M M
;
_chemical_formula_sum "Si O2"
_cell_formula_units_Z 96
_cell_length_a 20.100316
_cell_length_b 20.100316
_cell_length_c 14.160948
_cell_angle_alpha 90.000000
_cell_angle_beta 90.000000
_cell_angle_gamma 90.000000
_cell_volume 5721.344492
_symmetry_space_group_name_H-M "P 4/M M M"
_symmetry_group_IT_number 123
_symmetry_cell_setting 'tetragonal'
loop_
_space_group_symop_operation_xyz
x,y,z
-y,x,z
-x,-y,z
y,-x,z
x,-y,-z
-x,y,-z
y,x,-z
-y,-x,-z
-x,-y,-z
y,-x,-z
x,y,-z
-y,x,-z
-x,y,z
x,-y,z
-y,-x,z
y,x,z
loop_
_atom_site_type_symbol
_atom_site_label
_atom_site_fract_x
_atom_site_fract_y
_atom_site_fract_z
Si Si1 0.333998 0.224530 0.108991
Si Si2 0.074969 0.812179 0.690313
Si Si3 0.777737 0.110818 0.102790
Si Si4 0.331182 0.920767 0.390016
Si Si5 0.577931 0.181707 0.720453
Si Si6 0.574621 0.318684 0.613495
O O1 0.288782 0.288782 0.135591
O O2 0.283817 0.161607 0.112055
O O3 0.392499 0.207636 0.180598
O O4 0.355031 0.232982 0.000000
O O5 0.129254 0.870747 0.680957
O O6 0.072964 0.787333 0.799492
O O7 0.094323 0.746372 0.631556
O O8 0.000000 0.833220 0.663311
O O9 0.842532 0.157469 0.097652
O O10 0.771613 0.076820 0.000000
O O11 0.345937 0.906649 0.500000
O O12 0.378251 0.877961 0.322128
O O13 0.339739 0.000000 0.374173
O O14 0.500000 0.164302 0.727106
O O15 0.585278 0.244633 0.650833
O O16 0.576913 0.318031 0.500000
O O17 0.500000 0.339763 0.642019
O O18 0.630325 0.369676 0.648312
#
# Coordination Sequence:
#
# PCOD9562100 Si02
#       6
#    16  16  16  16  16  16
#     4   9  17  31  52  77 106 139 174 211 252 303
#     4  10  20  34  53  78 107 137 173 217 264 317
#     4   8  14  27  49  74  98 128 168 210 250 296
#     4  10  22  39  56  74  98 134 180 221 262 321
#     4  11  21  33  53  79 107 134 167 219 271 310
#     4   9  18  31  47  71 102 134 168 205 249 303
#
# _framework density 16.779271999999999
#
# number of rings (size 3 to 8) (size 9 to 14) (size 15 to 20)
#    0.000    2.500    1.667    2.000    0.000    3.333 
#    0.000    1.667    0.000    0.500    0.000    5.833 
#    0.000    0.000    0.000   15.500    0.000    0.167 
#
# Total GULP energy -534685.568562 kJ/mol
# GULP energy per Si atom -5569.641339 kJ/mol
# Density = 1.674108 g / cm^3
# Si number density = 16.779272 Si / 1000 Ang^3
#
#
#
# Elastic Constant Matrix: (Units=GPa)
#
#
# Indices 1 2 3 4 5 6 
#
# 1 83.1932 55.9974 34.2443 0.0000 0.0000 0.0000
# 2 55.9974 83.1932 34.2443 0.0000 0.0000 0.0000
# 3 34.2443 34.2443 56.5965 0.0000 0.0000 0.0000
# 4 0.0000 0.0000 0.0000 19.9741 0.0000 0.0000
# 5 0.0000 0.0000 0.0000 0.0000 19.9741 0.0000
# 6 0.0000 0.0000 0.0000 0.0000 0.0000 23.5503
#
#
#
# Elastic Compliance Matrix: (Units=1/GPa)
#
#
# Indices 1 2 3 4 5 6 
#
# 1 0.023500 -0.013270 -0.006190 0.000000 0.000000 0.000000
# 2 -0.013270 0.023500 -0.006190 0.000000 0.000000 0.000000
# 3 -0.006190 -0.006190 0.025159 0.000000 0.000000 0.000000
# 4 0.000000 0.000000 0.000000 0.050065 0.000000 0.000000
# 5 0.000000 0.000000 0.000000 0.000000 0.050065 0.000000
# 6 0.000000 0.000000 0.000000 0.000000 0.000000 0.042462
#
#
# Mechanical properties :
#
#
# Convention : Reuss Voigt Hill
#
# Bulk Modulus (GPa) = 47.93804 52.43942 50.18873
# Shear Modulus (GPa) = 18.31472 19.26618 18.79045
#
# Velocity S-wave (km/s) = 3.30738 3.39221 3.35006
# Velocity P-wave (km/s) = 6.57395 6.83104 6.70373
#
# Compressibility (1/GPa) = 0.02086026
#
# Stress axis : x y z
#
# Youngs Moduli (GPa) = 42.55287 42.55287 39.74667
#
# Poissons Ratio (x) = 0.56468 0.24602
# Poissons Ratio (y) = 0.56468 0.24602
# Poissons Ratio (z) = 0.26339 0.26339
#
# Static dielectric constant tensor:
#      x y z
#    x 1.555430 0.000000 0.000000 
#    y 0.000000 1.555430 0.000000 
#    z 0.000000 0.000000 1.596480 
# 
# From -- ./inp_files/3148.got.cif
#   From: 2010.05.17/outbox.cif.g08.bks.cpg/sg123_2_cif.got.tgz:3148.got - 2010.05.20 11:43:04.
