data_PCOD9562243
_publ_section_title
;
Structure prediction by ZEFSAII (Michael W. Deem and Ramdas Pophale) SiO2 
 PCOD9562243
Probable space group: P 4/M M M
;
_chemical_formula_sum "Si O2"
_cell_formula_units_Z 88
_cell_length_a 25.827934
_cell_length_b 25.827934
_cell_length_c 7.952268
_cell_angle_alpha 90.000000
_cell_angle_beta 90.000000
_cell_angle_gamma 90.000000
_cell_volume 5304.816231
_symmetry_space_group_name_H-M "P 4/M M M"
_symmetry_group_IT_number 123
_symmetry_cell_setting 'tetragonal'
loop_
_space_group_symop_operation_xyz
x,y,z
-y,x,z
-x,-y,z
y,-x,z
x,-y,-z
-x,y,-z
y,x,-z
-y,-x,-z
-x,-y,-z
y,-x,-z
x,y,-z
-y,x,-z
-x,y,z
x,-y,z
-y,-x,z
y,x,z
loop_
_atom_site_type_symbol
_atom_site_label
_atom_site_fract_x
_atom_site_fract_y
_atom_site_fract_z
Si Si1 0.894043 0.396101 0.693900
Si Si2 0.665059 0.747771 0.294832
Si Si3 0.748828 0.168354 0.298625
Si Si4 0.559175 0.215893 0.294368
Si Si5 0.710731 0.941628 0.196486
Si Si6 0.060336 0.500000 0.189142
O O1 0.886923 0.380109 0.500000
O O2 0.838549 0.415371 0.759577
O O3 0.923278 0.348752 0.779656
O O4 0.925631 0.448683 0.710825
O O5 0.665257 0.748960 0.500000
O O6 0.699148 0.699148 0.240379
O O7 0.697818 0.799020 0.241444
O O8 0.605141 0.745461 0.243434
O O9 0.749119 0.172061 0.500000
O O10 0.799083 0.200918 0.237357
O O11 0.743867 0.107752 0.258486
O O12 0.556490 0.214854 0.500000
O O13 0.500000 0.222464 0.235484
O O14 0.717853 0.000000 0.269980
O O15 0.721193 0.945556 0.000000
O O16 0.000000 0.500000 0.167492
O O17 0.084279 0.500000 0.000000
#
# Coordination Sequence:
#
# PCOD9562243 Si02
#       6
#    16  16  16  16  16   8
#     4  11  20  32  48  64  81 112 158 200 235 271
#     4   8  13  23  41  63  85 108 138 183 236 280
#     4   9  17  31  52  73  90 114 153 197 237 278
#     4   9  15  24  40  62  85 107 141 190 234 273
#     4  11  23  35  46  65  96 129 157 189 232 278
#     4  11  23  35  43  55  81 115 151 195 242 281
#
# _framework density 16.588699999999999
#
# number of rings (size 3 to 8) (size 9 to 14) (size 15 to 20)
#    0.000    2.273    2.727    3.000    0.000    4.727 
#    0.000    0.000    0.000    0.000    0.000    0.000 
#    0.000    0.727    0.000    9.091    0.000    2.909 
#
# Total GULP energy -489894.330230 kJ/mol
# GULP energy per Si atom -5566.981025 kJ/mol
# Density = 1.655094 g / cm^3
# Si number density = 16.588700 Si / 1000 Ang^3
#
#
#
# Elastic Constant Matrix: (Units=GPa)
#
#
# Indices 1 2 3 4 5 6 
#
# 1 112.3890 73.6138 5.6111 0.0000 0.0000 0.0000
# 2 73.6138 112.3890 5.6111 0.0000 0.0000 0.0000
# 3 5.6111 5.6111 16.0171 0.0000 0.0000 0.0000
# 4 0.0000 0.0000 0.0000 -889.1626 0.0000 0.0000
# 5 0.0000 0.0000 0.0000 0.0000 -889.1626 0.0000
# 6 0.0000 0.0000 0.0000 0.0000 0.0000 41.4874
#
#
#
# Elastic Compliance Matrix: (Units=1/GPa)
#
#
# Indices 1 2 3 4 5 6 
#
# 1 0.015641 -0.010149 -0.001924 0.000000 0.000000 0.000000
# 2 -0.010149 0.015641 -0.001924 0.000000 0.000000 0.000000
# 3 -0.001924 -0.001924 0.063781 0.000000 0.000000 0.000000
# 4 0.000000 0.000000 0.000000 -0.001125 0.000000 0.000000
# 5 0.000000 0.000000 0.000000 0.000000 -0.001125 0.000000
# 6 0.000000 0.000000 0.000000 0.000000 0.000000 0.024104
#
#
# Mechanical properties :
#
#
# Convention : Reuss Voigt Hill
#
# Bulk Modulus (GPa) = 14.90985 45.60746 30.25866
# Shear Modulus (GPa) = 29.89212 -336.97029 -153.53908
#
# Velocity S-wave (km/s) = 4.24955 -14.26792 -9.63106
# Velocity P-wave (km/s) = 5.75202 15.61661 10.26627
#
# Compressibility (1/GPa) = 0.06706974
#
# Stress axis : x y z
#
# Youngs Moduli (GPa) = 63.93437 63.93437 15.67856
#
# Poissons Ratio (x) = 0.64885 0.03017
# Poissons Ratio (y) = 0.64885 0.03017
# Poissons Ratio (z) = 0.12302 0.12302
#
# Static dielectric constant tensor:
#      x y z
#    x 1.583380 0.000000 0.000000 
#    y 0.000000 1.583380 0.000000 
#    z 0.000000 0.000000 1.635140 
# 
# From -- ./inp_files/1798.got.cif
#   From: 2010.05.17/outbox.cif.g08.bks.cpg/sg123_1_cif.got.tgz:1798.got - 2010.05.20 11:43:04.
