data_PCOD9562993
_publ_section_title
;
Structure prediction by ZEFSAII (Michael W. Deem and Ramdas Pophale) SiO2 
 PCOD9562993
Probable space group: P 4/N B M
;
_chemical_formula_sum "Si O2"
_cell_formula_units_Z 96
_cell_length_a 19.049393
_cell_length_b 19.049393
_cell_length_c 13.172470
_cell_angle_alpha 90.000000
_cell_angle_beta 90.000000
_cell_angle_gamma 90.000000
_cell_volume 4780.017663
_symmetry_space_group_name_H-M "P 4/N B M"
_symmetry_group_IT_number 125
_space_group.IT_coordinate_system_code '2'
_symmetry_cell_setting 'tetragonal'
loop_
_space_group_symop_operation_xyz
x,y,z
1/2-y,x,z
1/2-x,1/2-y,z
y,1/2-x,z
x,1/2-y,-z
1/2-x,y,-z
y,x,-z
1/2-y,1/2-x,-z
-x,-y,-z
1/2+y,-x,-z
1/2+x,1/2+y,-z
-y,1/2+x,-z
-x,1/2+y,z
1/2+x,-y,z
-y,-x,z
1/2+y,1/2+x,z
loop_
_atom_site_type_symbol
_atom_site_label
_atom_site_fract_x
_atom_site_fract_y
_atom_site_fract_z
Si Si1 0.431504 0.931504 0.086673
Si Si2 0.546716 0.046716 0.145188
Si Si3 0.832796 0.536844 0.265932
Si Si4 0.501223 0.723854 0.894541
Si Si5 0.831724 0.664549 0.384960
Si Si6 0.294918 0.913052 0.601486
Si Si7 0.862147 0.253784 0.816696
O O1 0.473074 0.856766 0.115745
O O2 0.488371 0.988371 0.122505
O O3 0.427567 0.927567 0.964622
O O4 0.509532 0.109429 0.206975
O O5 0.761846 0.542222 0.197738
O O6 0.861776 0.611982 0.301184
O O7 0.814862 0.491715 0.366488
O O8 0.426544 0.763153 0.886823
O O9 0.534568 0.750000 0.000000
O O10 0.845108 0.747287 0.375085
O O11 0.853808 0.646193 0.500000
O O12 0.250000 0.909219 0.500000
O O13 0.362857 0.862857 0.593095
O O14 0.251450 0.884831 0.699202
O O15 0.803071 0.196930 0.832504
O O16 0.829026 0.329026 0.839024
#
# Coordination Sequence:
#
# PCOD9562993 Si02
#       7
#     8   8  16  16  16  16  16
#     4  11  24  42  63  90 128 180 220 264 325 398
#     4  11  24  44  63  89 135 175 215 264 336 397
#     4  11  23  40  65  93 130 170 215 274 325 391
#     4  11  22  36  59  89 126 169 220 260 306 376
#     4   9  21  43  71  95 118 154 210 274 343 404
#     4  10  20  33  53  80 119 168 212 253 306 367
#     4   9  18  30  48  76 112 158 207 255 295 337
#
# _framework density 20.083607000000001
#
# number of rings (size 3 to 8) (size 9 to 14) (size 15 to 20)
#    0.000    1.833    3.333    1.000    7.000    0.833 
#    0.000    1.250    0.000    0.000    0.000    1.167 
#    0.000    0.000    0.000    0.000    0.000    0.000 
#
# Total GULP energy -534527.624580 kJ/mol
# GULP energy per Si atom -5567.996089 kJ/mol
# Density = 2.003790 g / cm^3
# Si number density = 20.083607 Si / 1000 Ang^3
#
#
#
# Elastic Constant Matrix: (Units=GPa)
#
#
# Indices 1 2 3 4 5 6 
#
# 1 71.8497 5.9990 24.8947 0.0000 0.0000 0.0000
# 2 5.9990 71.8498 24.8946 0.0000 0.0000 0.0000
# 3 24.8947 24.8946 85.8394 0.0000 0.0000 0.0000
# 4 0.0000 0.0000 0.0000 21.7035 0.0000 0.0000
# 5 0.0000 0.0000 0.0000 0.0000 21.7035 0.0000
# 6 0.0000 0.0000 0.0000 0.0000 0.0000 15.6682
#
#
#
# Elastic Compliance Matrix: (Units=1/GPa)
#
#
# Indices 1 2 3 4 5 6 
#
# 1 0.015478 0.000292 -0.004574 0.000000 0.000000 0.000000
# 2 0.000292 0.015478 -0.004574 0.000000 0.000000 0.000000
# 3 -0.004574 -0.004574 0.014303 0.000000 0.000000 0.000000
# 4 0.000000 0.000000 0.000000 0.046076 0.000000 0.000000
# 5 0.000000 0.000000 0.000000 0.000000 0.046076 0.000000
# 6 0.000000 0.000000 0.000000 0.000000 0.000000 0.063824
#
#
# Mechanical properties :
#
#
# Convention : Reuss Voigt Hill
#
# Bulk Modulus (GPa) = 36.29903 37.90172 37.10038
# Shear Modulus (GPa) = 21.91764 23.39840 22.65802
#
# Velocity S-wave (km/s) = 3.30710 3.41699 3.36249
# Velocity P-wave (km/s) = 5.71802 5.87202 5.79553
#
# Compressibility (1/GPa) = 0.02754894
#
# Stress axis : x y z
#
# Youngs Moduli (GPa) = 64.60677 64.60693 69.91760
#
# Poissons Ratio (x) = -0.01889 0.31978
# Poissons Ratio (y) = -0.01889 0.31978
# Poissons Ratio (z) = 0.29549 0.29549
#
# Static dielectric constant tensor:
#      x y z
#    x 1.747320 0.000000 0.000000 
#    y 0.000000 1.747320 0.000000 
#    z 0.000000 0.000000 1.732390 
# 
# From -- ./inp_files/4198.got.cif
#   From: 2010.05.17/outbox.cif.g08.bks.cpg/sg125_3_cif.got.tgz:4198.got - 2010.05.20 11:54:10.
