data_PCOD9562691
_publ_section_title
;
Structure prediction by ZEFSAII (Michael W. Deem and Ramdas Pophale) SiO2 
 PCOD9562691
Probable space group: P 4/M C C
;
_chemical_formula_sum "Si O2"
_cell_formula_units_Z 80
_cell_length_a 11.795576
_cell_length_b 11.795576
_cell_length_c 32.922267
_cell_angle_alpha 90.000000
_cell_angle_beta 90.000000
_cell_angle_gamma 90.000000
_cell_volume 4580.659806
_symmetry_space_group_name_H-M "P 4/M C C"
_symmetry_group_IT_number 124
_symmetry_cell_setting 'tetragonal'
loop_
_space_group_symop_operation_xyz
x,y,z
-y,x,z
-x,-y,z
y,-x,z
x,-y,1/2-z
-x,y,1/2-z
y,x,1/2-z
-y,-x,1/2-z
-x,-y,-z
y,-x,-z
x,y,-z
-y,x,-z
-x,y,1/2+z
x,-y,1/2+z
-y,-x,1/2+z
y,x,1/2+z
loop_
_atom_site_type_symbol
_atom_site_label
_atom_site_fract_x
_atom_site_fract_y
_atom_site_fract_z
Si Si1 0.000296 0.370743 0.680151
Si Si2 0.191446 0.007297 0.107699
Si Si3 0.185218 0.372730 0.751104
Si Si4 0.929179 0.386188 0.951273
Si Si5 0.674451 0.442459 0.950592
O O1 0.007705 0.274522 0.646482
O O2 0.102799 0.361267 0.712296
O O3 0.000000 0.500000 0.663413
O O4 0.889681 0.358522 0.708375
O O5 0.276409 0.017512 0.069704
O O6 0.104924 0.113545 0.107613
O O7 0.230917 0.500000 0.750000
O O8 0.281442 0.281442 0.750000
O O9 0.798833 0.404451 0.937121
O O10 0.000000 0.500000 0.942165
O O11 0.928888 0.372350 0.000000
O O12 0.639404 0.570452 0.938191
O O13 0.676052 0.442577 0.000000
#
# Coordination Sequence:
#
# PCOD9562691 Si02
#       5
#    16  16  16  16  16
#     4   9  18  35  56  78 105 139 182 221 258 309
#     4  11  24  38  53  76 108 145 182 225 273 320
#     4   9  17  30  54  84 110 139 172 211 260 316
#     4  10  22  37  56  78 103 139 180 220 272 331
#     4   8  15  30  54  80 100 122 163 221 271 311
#
# _framework density 17.464732000000001
#
# number of rings (size 3 to 8) (size 9 to 14) (size 15 to 20)
#    0.000    2.600    0.000    3.600    2.800    1.000 
#    0.000    1.000    0.000    4.800    0.000    0.000 
#    0.000    0.000    0.000    0.000    0.000    0.000 
#
# Total GULP energy -446131.372419 kJ/mol
# GULP energy per Si atom -5576.642155 kJ/mol
# Density = 1.742498 g / cm^3
# Si number density = 17.464732 Si / 1000 Ang^3
#
#
#
# Elastic Constant Matrix: (Units=GPa)
#
#
# Indices 1 2 3 4 5 6 
#
# 1 133.6419 83.6933 44.8910 0.0000 0.0000 0.0000
# 2 83.6933 133.6419 44.8910 0.0000 0.0000 0.0000
# 3 44.8910 44.8910 57.8439 0.0000 0.0000 0.0000
# 4 0.0000 0.0000 0.0000 0.6146 0.0000 0.0000
# 5 0.0000 0.0000 0.0000 0.0000 0.6146 0.0000
# 6 0.0000 0.0000 0.0000 0.0000 0.0000 27.2562
#
#
#
# Elastic Compliance Matrix: (Units=1/GPa)
#
#
# Indices 1 2 3 4 5 6 
#
# 1 0.013397 -0.006624 -0.005256 0.000000 0.000000 0.000000
# 2 -0.006624 0.013397 -0.005256 0.000000 0.000000 0.000000
# 3 -0.005256 -0.005256 0.025446 0.000000 0.000000 0.000000
# 4 0.000000 0.000000 0.000000 1.627160 0.000000 0.000000
# 5 0.000000 0.000000 0.000000 0.000000 1.627160 0.000000
# 6 0.000000 0.000000 0.000000 0.000000 0.000000 0.036689
#
#
# Mechanical properties :
#
#
# Convention : Reuss Voigt Hill
#
# Bulk Modulus (GPa) = 55.65731 74.67538 65.16635
# Shear Modulus (GPa) = 1.47776 15.80723 8.64249
#
# Velocity S-wave (km/s) = 0.92086 3.01174 2.22694
# Velocity P-wave (km/s) = 5.75050 7.41247 6.63374
#
# Compressibility (1/GPa) = 0.01796709
#
# Stress axis : x y z
#
# Youngs Moduli (GPa) = 74.64633 74.64633 39.29926
#
# Poissons Ratio (x) = 0.49446 0.20655
# Poissons Ratio (y) = 0.49446 0.20655
# Poissons Ratio (z) = 0.39233 0.39233
#
# Static dielectric constant tensor:
#      x y z
#    x 1.579690 0.000000 0.000000 
#    y 0.000000 1.579690 0.000000 
#    z 0.000000 0.000000 1.588000 
# 
# From -- ./inp_files/6944.got.cif
#   From: 2010.05.17/outbox.cif.g08.bks.cpg/sg124_4_cif.got.tgz:6944.got - 2010.05.20 11:49:17.
