data_PCOD9562283
_publ_section_title
;
Structure prediction by ZEFSAII (Michael W. Deem and Ramdas Pophale) SiO2 
 PCOD9562283
Probable space group: P 4/M M M
;
_chemical_formula_sum "Si O2"
_cell_formula_units_Z 112
_cell_length_a 14.702903
_cell_length_b 14.702903
_cell_length_c 31.814797
_cell_angle_alpha 90.000000
_cell_angle_beta 90.000000
_cell_angle_gamma 90.000000
_cell_volume 6877.575088
_symmetry_space_group_name_H-M "P 4/M M M"
_symmetry_group_IT_number 123
_symmetry_cell_setting 'tetragonal'
loop_
_space_group_symop_operation_xyz
x,y,z
-y,x,z
-x,-y,z
y,-x,z
x,-y,-z
-x,y,-z
y,x,-z
-y,-x,-z
-x,-y,-z
y,-x,-z
x,y,-z
-y,x,-z
-x,y,z
x,-y,z
-y,-x,z
y,x,z
loop_
_atom_site_type_symbol
_atom_site_label
_atom_site_fract_x
_atom_site_fract_y
_atom_site_fract_z
Si Si1 0.246019 0.605150 0.695353
Si Si2 0.896413 0.749540 0.068729
Si Si3 0.393603 0.892839 0.622561
Si Si4 0.251269 0.397078 0.050365
Si Si5 0.393158 0.242681 0.205116
Si Si6 0.892720 0.742541 0.452017
Si Si7 0.250941 0.104146 0.169939
O O1 0.270171 0.500000 0.688269
O O2 0.329823 0.670178 0.686045
O O3 0.163979 0.628700 0.664202
O O4 0.223961 0.614051 0.744784
O O5 0.833696 0.833696 0.053647
O O6 0.841626 0.657914 0.057967
O O7 0.899120 0.754604 0.119372
O O8 0.000000 0.751428 0.053225
O O9 0.500000 0.877905 0.612652
O O10 0.331315 0.867482 0.583031
O O11 0.381423 0.000000 0.630585
O O12 0.251299 0.500000 0.067068
O O13 0.333239 0.333239 0.067156
O O14 0.262723 0.402340 0.000000
O O15 0.500000 0.250624 0.194414
O O16 0.334600 0.334600 0.196672
O O17 0.340857 0.160641 0.182169
O O18 0.878612 0.709197 0.500000
O O19 0.831649 0.831649 0.446440
O O20 0.000000 0.762691 0.447615
O O21 0.165027 0.165027 0.184923
O O22 0.250800 0.000000 0.185360
#
# Coordination Sequence:
#
# PCOD9562283 Si02
#       7
#    16  16  16  16  16  16  16
#     4   9  17  29  45  64  86 112 141 174 211 250
#     4   9  18  32  49  69  93 120 150 185 224 266
#     4   9  17  28  42  61  84 109 137 169 206 248
#     4   9  18  32  49  69  93 121 153 189 227 266
#     4   9  18  31  46  66  91 118 149 183 219 261
#     4   9  17  28  42  60  81 106 136 169 205 245
#     4   9  18  32  49  69  92 118 149 185 224 265
#
# _framework density 16.28481
#
# number of rings (size 3 to 8) (size 9 to 14) (size 15 to 20)
#    0.000    3.000    0.000    0.429    0.000    3.143 
#    0.000    9.286    0.000    0.000    0.000    6.000 
#    0.000    3.429    0.000   13.286    0.000    0.429 
#
# Total GULP energy -623712.040799 kJ/mol
# GULP energy per Si atom -5568.857507 kJ/mol
# Density = 1.624775 g / cm^3
# Si number density = 16.284810 Si / 1000 Ang^3
#
#
#
# Elastic Constant Matrix: (Units=GPa)
#
#
# Indices 1 2 3 4 5 6 
#
# 1 105.8405 57.9534 21.1545 0.0000 0.0000 0.0000
# 2 57.9534 105.8405 21.1545 0.0000 0.0000 0.0000
# 3 21.1545 21.1545 26.3548 0.0000 0.0000 0.0000
# 4 0.0000 0.0000 0.0000 25.0580 0.0000 0.0000
# 5 0.0000 0.0000 0.0000 0.0000 25.0580 0.0000
# 6 0.0000 0.0000 0.0000 0.0000 0.0000 16.4806
#
#
#
# Elastic Compliance Matrix: (Units=1/GPa)
#
#
# Indices 1 2 3 4 5 6 
#
# 1 0.014292 -0.006590 -0.006182 0.000000 0.000000 0.000000
# 2 -0.006590 0.014292 -0.006182 0.000000 0.000000 0.000000
# 3 -0.006182 -0.006182 0.047869 0.000000 0.000000 0.000000
# 4 0.000000 0.000000 0.000000 0.039907 0.000000 0.000000
# 5 0.000000 0.000000 0.000000 0.000000 0.039907 0.000000
# 6 0.000000 0.000000 0.000000 0.000000 0.000000 0.060677
#
#
# Mechanical properties :
#
#
# Convention : Reuss Voigt Hill
#
# Bulk Modulus (GPa) = 25.94467 48.72895 37.33681
# Shear Modulus (GPa) = 18.67739 22.50422 20.59081
#
# Velocity S-wave (km/s) = 3.39030 3.72144 3.55972
# Velocity P-wave (km/s) = 5.59392 6.96085 6.31448
#
# Compressibility (1/GPa) = 0.03854356
#
# Stress axis : x y z
#
# Youngs Moduli (GPa) = 69.96763 69.96763 20.89041
#
# Poissons Ratio (x) = 0.46110 0.12915
# Poissons Ratio (y) = 0.46110 0.12915
# Poissons Ratio (z) = 0.43257 0.43257
#
# Static dielectric constant tensor:
#      x y z
#    x 1.538630 0.000000 0.000000 
#    y 0.000000 1.538630 0.000000 
#    z 0.000000 0.000000 1.557810 
# 
# From -- ./inp_files/8163.got.cif
#   From: 2010.05.17/outbox.cif.g08.bks.cpg/sg123_5_cif.got.tgz:8163.got - 2010.05.20 11:43:04.
