data_PCOD9562613
_publ_section_title
;
Structure prediction by ZEFSAII (Michael W. Deem and Ramdas Pophale) SiO2 
 PCOD9562613
Probable space group: P 4/M C C
;
_chemical_formula_sum "Si O2"
_cell_formula_units_Z 120
_cell_length_a 14.503002
_cell_length_b 14.503002
_cell_length_c 32.055744
_cell_angle_alpha 90.000000
_cell_angle_beta 90.000000
_cell_angle_gamma 90.000000
_cell_volume 6742.511174
_symmetry_space_group_name_H-M "P 4/M C C"
_symmetry_group_IT_number 124
_symmetry_cell_setting 'tetragonal'
loop_
_space_group_symop_operation_xyz
x,y,z
-y,x,z
-x,-y,z
y,-x,z
x,-y,1/2-z
-x,y,1/2-z
y,x,1/2-z
-y,-x,1/2-z
-x,-y,-z
y,-x,-z
x,y,-z
-y,x,-z
-x,y,1/2+z
x,-y,1/2+z
-y,-x,1/2+z
y,x,1/2+z
loop_
_atom_site_type_symbol
_atom_site_label
_atom_site_fract_x
_atom_site_fract_y
_atom_site_fract_z
Si Si1 0.354302 0.548027 0.645004
Si Si2 0.721817 0.996737 0.871775
Si Si3 0.397092 0.039639 0.452197
Si Si4 0.381790 0.399284 0.000000
Si Si5 0.795298 0.195856 0.134729
Si Si6 0.602286 0.957904 0.291212
Si Si7 0.342815 0.250487 0.709655
Si Si8 0.638940 0.753064 0.573456
O O1 0.387787 0.444149 0.639386
O O2 0.314529 0.578296 0.689506
O O3 0.277484 0.571874 0.610915
O O4 0.769268 0.898922 0.865337
O O5 0.669349 0.000728 0.916145
O O6 0.788724 0.085144 0.868170
O O7 0.650242 0.014725 0.834255
O O8 0.368898 0.018515 0.500000
O O9 0.394020 0.150452 0.446004
O O10 0.500000 0.000000 0.446241
O O11 0.489379 0.375015 0.000000
O O12 0.328235 0.362059 0.040088
O O13 0.737402 0.232238 0.174888
O O14 0.738005 0.232508 0.094845
O O15 0.609363 0.848632 0.284382
O O16 0.500000 0.000000 0.292959
O O17 0.649571 0.000000 0.250000
O O18 0.296433 0.296433 0.750000
#
# Coordination Sequence:
#
# PCOD9562613 Si02
#       8
#    16  16  16   8  16  16  16  16
#     4  10  22  37  53  77 113 154 195 234 275 334
#     4  10  20  38  57  81 114 148 183 238 289 345
#     4  10  21  37  56  83 113 142 182 235 289 345
#     4  11  22  34  53  80 110 143 181 224 266 322
#     4   9  21  37  58  82 108 145 185 229 290 344
#     4  10  21  35  57  87 115 147 193 244 290 347
#     4  10  21  37  57  84 116 152 191 239 291 350
#     4  10  20  38  55  79 110 143 185 229 279 336
#
# _framework density 17.797523999999999
#
# number of rings (size 3 to 8) (size 9 to 14) (size 15 to 20)
#    0.000    2.067    0.667    2.800    0.000    9.333 
#    1.200    0.667    0.000    0.000    0.000    3.733 
#    0.000    0.000    0.000    0.000    0.000    0.000 
#
# Total GULP energy -669511.638706 kJ/mol
# GULP energy per Si atom -5579.263656 kJ/mol
# Density = 1.775702 g / cm^3
# Si number density = 17.797524 Si / 1000 Ang^3
#
#
#
# Elastic Constant Matrix: (Units=GPa)
#
#
# Indices 1 2 3 4 5 6 
#
# 1 48.0942 16.7877 16.0034 0.0000 0.0000 0.0000
# 2 16.7877 48.0942 16.0034 0.0000 0.0000 0.0000
# 3 16.0034 16.0034 100.8254 0.0000 0.0000 0.0000
# 4 0.0000 0.0000 0.0000 21.6011 0.0000 0.0000
# 5 0.0000 0.0000 0.0000 0.0000 21.6011 0.0000
# 6 0.0000 0.0000 0.0000 0.0000 0.0000 23.0518
#
#
#
# Elastic Compliance Matrix: (Units=1/GPa)
#
#
# Indices 1 2 3 4 5 6 
#
# 1 0.024332 -0.007610 -0.002654 0.000000 0.000000 0.000000
# 2 -0.007610 0.024332 -0.002654 0.000000 0.000000 0.000000
# 3 -0.002654 -0.002654 0.010761 0.000000 0.000000 0.000000
# 4 0.000000 0.000000 0.000000 0.046294 0.000000 0.000000
# 5 0.000000 0.000000 0.000000 0.000000 0.046294 0.000000
# 6 0.000000 0.000000 0.000000 0.000000 0.000000 0.043380
#
#
# Mechanical properties :
#
#
# Convention : Reuss Voigt Hill
#
# Bulk Modulus (GPa) = 29.77263 32.73365 31.25314
# Shear Modulus (GPa) = 21.51221 23.13210 22.32215
#
# Velocity S-wave (km/s) = 3.48044 3.60910 3.54535
# Velocity P-wave (km/s) = 5.73725 5.98328 5.86156
#
# Compressibility (1/GPa) = 0.03358789
#
# Stress axis : x y z
#
# Youngs Moduli (GPa) = 41.09800 41.09800 92.93080
#
# Poissons Ratio (x) = 0.31276 0.24665
# Poissons Ratio (y) = 0.31276 0.24665
# Poissons Ratio (z) = 0.10908 0.10908
#
# Static dielectric constant tensor:
#      x y z
#    x 1.602170 0.000000 0.000000 
#    y 0.000000 1.602170 0.000000 
#    z 0.000000 0.000000 1.633890 
# 
# From -- ./inp_files/7346.got.cif
#   From: 2010.05.17/outbox.cif.g08.bks.cpg/sg124_4_cif.got.tgz:7346.got - 2010.05.20 11:49:17.
