data_PCOD9562005
_publ_section_title
;
Structure prediction by ZEFSAII (Michael W. Deem and Ramdas Pophale) SiO2 
 PCOD9562005
Probable space group: P 4/M M M
;
_chemical_formula_sum "Si O2"
_cell_formula_units_Z 120
_cell_length_a 18.511628
_cell_length_b 18.511628
_cell_length_c 20.751067
_cell_angle_alpha 90.000000
_cell_angle_beta 90.000000
_cell_angle_gamma 90.000000
_cell_volume 7110.983343
_symmetry_space_group_name_H-M "P 4/M M M"
_symmetry_group_IT_number 123
_symmetry_cell_setting 'tetragonal'
loop_
_space_group_symop_operation_xyz
x,y,z
-y,x,z
-x,-y,z
y,-x,z
x,-y,-z
-x,y,-z
y,x,-z
-y,-x,-z
-x,-y,-z
y,-x,-z
x,y,-z
-y,x,-z
-x,y,z
x,-y,z
-y,-x,z
y,x,z
loop_
_atom_site_type_symbol
_atom_site_label
_atom_site_fract_x
_atom_site_fract_y
_atom_site_fract_z
Si Si1 0.798698 0.081124 0.000000
Si Si2 0.795677 0.915430 0.624993
Si Si3 0.301967 0.585118 0.191419
Si Si4 0.915998 0.201930 0.220075
Si Si5 0.681624 0.805460 0.573659
Si Si6 0.586894 0.206194 0.927170
Si Si7 0.413129 0.708500 0.662546
Si Si8 0.313594 0.083257 0.116865
O O1 0.747917 0.089143 0.937712
O O2 0.860067 0.139934 0.000000
O O3 0.828552 0.000000 0.000000
O O4 0.865191 0.865191 0.606753
O O5 0.790438 0.912577 0.702847
O O6 0.723887 0.876855 0.597462
O O7 0.803002 0.000000 0.606353
O O8 0.305799 0.500000 0.185594
O O9 0.380367 0.619633 0.190886
O O10 0.258914 0.612870 0.129552
O O11 0.270691 0.600878 0.262447
O O12 0.863682 0.136319 0.201213
O O13 0.893227 0.274622 0.182955
O O14 0.000000 0.187918 0.202377
O O15 0.657475 0.814665 0.500000
O O16 0.743716 0.743716 0.575126
O O17 0.618454 0.772182 0.617828
O O18 0.500000 0.204302 0.926452
O O19 0.620088 0.130023 0.907241
O O20 0.609736 0.225821 0.000000
O O21 0.500000 0.697267 0.654341
O O22 0.364259 0.635742 0.650549
O O23 0.334756 0.000000 0.123301
#
# Coordination Sequence:
#
# PCOD9562005 Si02
#       8
#     8  16  16  16  16  16  16  16
#     4  10  20  33  47  67  95 125 162 202 244 298
#     4   9  18  32  51  76 104 136 175 218 263 309
#     4   9  19  34  52  76 104 133 165 203 246 295
#     4   9  18  31  48  71  99 130 164 205 251 301
#     4   9  18  32  50  74 105 140 175 209 250 305
#     4  10  21  36  52  73 100 129 166 211 257 302
#     4   9  18  33  54  80 108 138 172 210 254 304
#     4  10  20  34  49  69  95 124 162 208 254 303
#
# _framework density 16.875302999999999
#
# number of rings (size 3 to 8) (size 9 to 14) (size 15 to 20)
#    0.000    2.667    0.667    0.400    1.867    2.733 
#    0.000    3.333    0.000    2.800    0.000    6.533 
#    0.000    0.000    0.000    0.000    0.000    0.000 
#
# Total GULP energy -668120.205655 kJ/mol
# GULP energy per Si atom -5567.668380 kJ/mol
# Density = 1.683689 g / cm^3
# Si number density = 16.875303 Si / 1000 Ang^3
#
#
#
# Elastic Constant Matrix: (Units=GPa)
#
#
# Indices 1 2 3 4 5 6 
#
# 1 44.2393 41.6617 42.5155 0.0000 0.0000 0.0000
# 2 41.6617 44.2391 42.5157 0.0000 0.0000 0.0000
# 3 42.5155 42.5157 85.5338 0.0000 0.0000 0.0000
# 4 0.0000 0.0000 0.0000 20.8252 0.0000 0.0000
# 5 0.0000 0.0000 0.0000 0.0000 20.8258 0.0000
# 6 0.0000 0.0000 0.0000 0.0000 0.0000 28.6320
#
#
#
# Elastic Compliance Matrix: (Units=1/GPa)
#
#
# Indices 1 2 3 4 5 6 
#
# 1 0.205444 -0.182529 -0.011390 0.000000 0.000000 0.000000
# 2 -0.182529 0.205448 -0.011393 0.000000 0.000000 0.000000
# 3 -0.011390 -0.011393 0.023016 0.000000 0.000000 0.000000
# 4 0.000000 0.000000 0.000000 0.048019 0.000000 0.000000
# 5 0.000000 0.000000 0.000000 0.000000 0.048017 0.000000
# 6 0.000000 0.000000 0.000000 0.000000 0.000000 0.034926
#
#
# Mechanical properties :
#
#
# Convention : Reuss Voigt Hill
#
# Bulk Modulus (GPa) = 42.94610 47.48867 45.21738
# Shear Modulus (GPa) = 5.08516 17.21122 11.14819
#
# Velocity S-wave (km/s) = 1.73779 3.19706 2.57304
# Velocity P-wave (km/s) = 5.43423 6.46763 5.97332
#
# Compressibility (1/GPa) = 0.02328500
#
# Stress axis : x y z
#
# Youngs Moduli (GPa) = 4.86750 4.86742 43.44866
#
# Poissons Ratio (x) = 0.88844 0.49488
# Poissons Ratio (y) = 0.88846 0.49499
# Poissons Ratio (z) = 0.05544 0.05545
#
# Static dielectric constant tensor:
#      x y z
#    x 1.556220 0.000000 0.000000 
#    y 0.000000 1.556220 0.000000 
#    z 0.000000 0.000000 1.605110 
# 
# From -- ./inp_files/6813.got.cif
#   From: 2010.05.17/outbox.cif.g08.bks.cpg/sg123_4_cif.got.tgz:6813.got - 2010.05.20 11:43:04.
