data_PCOD9562046
_publ_section_title
;
Structure prediction by ZEFSAII (Michael W. Deem and Ramdas Pophale) SiO2 
 PCOD9562046
Probable space group: P 4/M M M
;
_chemical_formula_sum "Si O2"
_cell_formula_units_Z 72
_cell_length_a 13.535901
_cell_length_b 13.535901
_cell_length_c 23.730940
_cell_angle_alpha 90.000000
_cell_angle_beta 90.000000
_cell_angle_gamma 90.000000
_cell_volume 4347.997442
_symmetry_space_group_name_H-M "P 4/M M M"
_symmetry_group_IT_number 123
_symmetry_cell_setting 'tetragonal'
loop_
_space_group_symop_operation_xyz
x,y,z
-y,x,z
-x,-y,z
y,-x,z
x,-y,-z
-x,y,-z
y,x,-z
-y,-x,-z
-x,-y,-z
y,-x,-z
x,y,-z
-y,x,-z
-x,y,z
x,-y,z
-y,-x,z
y,x,z
loop_
_atom_site_type_symbol
_atom_site_label
_atom_site_fract_x
_atom_site_fract_y
_atom_site_fract_z
Si Si1 0.117306 0.278769 0.937062
Si Si2 0.617185 0.218527 0.606809
Si Si3 0.281501 0.117587 0.500000
Si Si4 0.722579 0.881942 0.710384
Si Si5 0.880256 0.611089 0.824566
O O1 0.177088 0.177088 0.933284
O O2 0.150042 0.346759 0.885219
O O3 0.000000 0.262158 0.931935
O O4 0.135239 0.320737 0.000000
O O5 0.500000 0.232535 0.603332
O O6 0.679063 0.320938 0.605899
O O7 0.657839 0.154100 0.554578
O O8 0.648398 0.160737 0.663457
O O9 0.178354 0.178354 0.500000
O O10 0.268233 0.000000 0.500000
O O11 0.826239 0.826239 0.701739
O O12 0.680462 0.855283 0.772065
O O13 0.730649 0.000000 0.705796
O O14 0.843376 0.500000 0.815750
O O15 0.000000 0.607166 0.825506
#
# Coordination Sequence:
#
# PCOD9562046 Si02
#       5
#    16  16   8  16  16
#     4   9  17  28  42  62  89 120 153 189 230 280
#     4  10  21  36  54  77 103 132 169 210 251 296
#     4  10  21  36  54  78 106 136 171 208 248 298
#     4  10  20  33  50  73 100 130 164 200 240 290
#     4   9  17  29  45  64  87 118 155 193 234 279
#
# _framework density 16.559346999999999
#
# number of rings (size 3 to 8) (size 9 to 14) (size 15 to 20)
#    0.000    2.444    0.000    2.333    0.000    4.333 
#    0.000    3.333    0.000   10.000    0.000    0.000 
#    0.000    4.000    0.000    9.778    0.000    0.889 
#
# Total GULP energy -401279.053277 kJ/mol
# GULP energy per Si atom -5573.320184 kJ/mol
# Density = 1.652166 g / cm^3
# Si number density = 16.559347 Si / 1000 Ang^3
#
#
#
# Elastic Constant Matrix: (Units=GPa)
#
#
# Indices 1 2 3 4 5 6 
#
# 1 95.9020 67.1683 43.9926 0.0000 0.0000 0.0000
# 2 67.1683 95.9020 43.9926 0.0000 0.0000 0.0000
# 3 43.9926 43.9926 117.8589 0.0000 0.0000 0.0000
# 4 0.0000 0.0000 0.0000 17.7883 0.0000 0.0000
# 5 0.0000 0.0000 0.0000 0.0000 17.7883 0.0000
# 6 0.0000 0.0000 0.0000 0.0000 0.0000 6.2253
#
#
#
# Elastic Compliance Matrix: (Units=1/GPa)
#
#
# Indices 1 2 3 4 5 6 
#
# 1 0.021241 -0.013562 -0.002866 0.000000 0.000000 0.000000
# 2 -0.013562 0.021241 -0.002866 0.000000 0.000000 0.000000
# 3 -0.002866 -0.002866 0.010624 0.000000 0.000000 0.000000
# 4 0.000000 0.000000 0.000000 0.056217 0.000000 0.000000
# 5 0.000000 0.000000 0.000000 0.000000 0.056217 0.000000
# 6 0.000000 0.000000 0.000000 0.000000 0.000000 0.160635
#
#
# Mechanical properties :
#
#
# Convention : Reuss Voigt Hill
#
# Bulk Modulus (GPa) = 68.88406 68.88554 68.88480
# Shear Modulus (GPa) = 13.52806 18.66099 16.09453
#
# Velocity S-wave (km/s) = 2.86132 3.36060 3.12096
# Velocity P-wave (km/s) = 7.25292 7.53310 7.39434
#
# Compressibility (1/GPa) = 0.01451715
#
# Stress axis : x y z
#
# Youngs Moduli (GPa) = 47.07979 47.07979 94.12256
#
# Poissons Ratio (x) = 0.63848 0.26978
# Poissons Ratio (y) = 0.63848 0.26978
# Poissons Ratio (z) = 0.13494 0.13494
#
# Static dielectric constant tensor:
#      x y z
#    x 1.534370 0.000000 0.000000 
#    y 0.000000 1.534370 0.000000 
#    z 0.000000 0.000000 1.581170 
# 
# From -- ./inp_files/7809.got.cif
#   From: 2010.05.17/outbox.cif.g08.bks.cpg/sg123_4_cif.got.tgz:7809.got - 2010.05.20 11:43:04.
