data_PCOD9562728
_publ_section_title
;
Structure prediction by ZEFSAII (Michael W. Deem and Ramdas Pophale) SiO2 
 PCOD9562728
Probable space group: P 4/M C C
;
_chemical_formula_sum "Si O2"
_cell_formula_units_Z 40
_cell_length_a 13.557918
_cell_length_b 13.557918
_cell_length_c 10.071383
_cell_angle_alpha 90.000000
_cell_angle_beta 90.000000
_cell_angle_gamma 90.000000
_cell_volume 1851.292824
_symmetry_space_group_name_H-M "P 4/M C C"
_symmetry_group_IT_number 124
_symmetry_cell_setting 'tetragonal'
loop_
_space_group_symop_operation_xyz
x,y,z
-y,x,z
-x,-y,z
y,-x,z
x,-y,1/2-z
-x,y,1/2-z
y,x,1/2-z
-y,-x,1/2-z
-x,-y,-z
y,-x,-z
x,y,-z
-y,x,-z
-x,y,1/2+z
x,-y,1/2+z
-y,-x,1/2+z
y,x,1/2+z
loop_
_atom_site_type_symbol
_atom_site_label
_atom_site_fract_x
_atom_site_fract_y
_atom_site_fract_z
Si Si1 0.339143 0.464105 0.500000
Si Si2 0.207562 0.338646 0.348047
Si Si3 0.163207 0.971568 0.000000
Si Si4 0.699864 0.000000 0.250000
O O1 0.428956 0.385928 0.500000
O O2 0.271314 0.436798 0.374797
O O3 0.265572 0.265572 0.250000
O O4 0.202531 0.296607 0.500000
O O5 0.097059 0.357131 0.298330
O O6 0.108407 0.076956 0.000000
O O7 0.230319 0.965753 0.129685
#
# Coordination Sequence:
#
# PCOD9562728 Si02
#       4
#     8  16   8   8
#     4   9  21  46  78 112 139 170 230 307 368 410
#     4  10  23  40  65 104 140 188 230 286 349 425
#     4  11  21  32  52  86 127 180 242 303 348 391
#     4  12  22  37  58  89 146 186 232 277 344 421
#
# _framework density 21.606522999999999
#
# number of rings (size 3 to 8) (size 9 to 14) (size 15 to 20)
#    1.200    0.400    2.000    3.600    2.800    3.200 
#    0.000    2.000    0.000    7.200    0.000    0.000 
#    0.000    0.000    0.000    0.000    0.000    0.000 
#
# Total GULP energy -223324.669679 kJ/mol
# GULP energy per Si atom -5583.116742 kJ/mol
# Density = 2.155735 g / cm^3
# Si number density = 21.606523 Si / 1000 Ang^3
#
#
#
# Elastic Constant Matrix: (Units=GPa)
#
#
# Indices 1 2 3 4 5 6 
#
# 1 82.1557 61.5807 43.1485 0.0000 0.0000 0.0000
# 2 61.5807 82.1557 43.1485 0.0000 0.0000 0.0000
# 3 43.1485 43.1485 152.7607 0.0000 0.0000 0.0000
# 4 0.0000 0.0000 0.0000 10.3810 0.0000 0.0000
# 5 0.0000 0.0000 0.0000 0.0000 10.3810 0.0000
# 6 0.0000 0.0000 0.0000 0.0000 0.0000 32.9251
#
#
#
# Elastic Compliance Matrix: (Units=1/GPa)
#
#
# Indices 1 2 3 4 5 6 
#
# 1 0.028490 -0.020112 -0.002366 0.000000 0.000000 0.000000
# 2 -0.020112 0.028490 -0.002366 0.000000 0.000000 0.000000
# 3 -0.002366 -0.002366 0.007883 0.000000 0.000000 0.000000
# 4 0.000000 0.000000 0.000000 0.096330 0.000000 0.000000
# 5 0.000000 0.000000 0.000000 0.000000 0.096330 0.000000
# 6 0.000000 0.000000 0.000000 0.000000 0.000000 0.030372
#
#
# Mechanical properties :
#
#
# Convention : Reuss Voigt Hill
#
# Bulk Modulus (GPa) = 65.90556 68.09193 66.99875
# Shear Modulus (GPa) = 14.59243 22.01704 18.30474
#
# Velocity S-wave (km/s) = 2.60161 3.19564 2.91380
# Velocity P-wave (km/s) = 6.29232 6.72303 6.51124
#
# Compressibility (1/GPa) = 0.01517323
#
# Stress axis : x y z
#
# Youngs Moduli (GPa) = 35.09963 35.09963 126.85505
#
# Poissons Ratio (x) = 0.70594 0.30019
# Poissons Ratio (y) = 0.70594 0.30019
# Poissons Ratio (z) = 0.08306 0.08306
#
# Static dielectric constant tensor:
#      x y z
#    x 1.783050 0.000000 0.000000 
#    y 0.000000 1.783050 0.000000 
#    z 0.000000 0.000000 1.783720 
# 
# From -- ./inp_files/364.got.cif
#   From: 2010.05.17/outbox.cif.g08.bks.cpg/sg124_1_cif.got.tgz:364.got - 2010.05.20 11:49:17.
