data_PCOD9562570
_publ_section_title
;
Structure prediction by ZEFSAII (Michael W. Deem and Ramdas Pophale) SiO2 
 PCOD9562570
Probable space group: P 4/M C C
;
_chemical_formula_sum "Si O2"
_cell_formula_units_Z 96
_cell_length_a 17.024565
_cell_length_b 17.024565
_cell_length_c 18.377290
_cell_angle_alpha 90.000000
_cell_angle_beta 90.000000
_cell_angle_gamma 90.000000
_cell_volume 5326.396796
_symmetry_space_group_name_H-M "P 4/M C C"
_symmetry_group_IT_number 124
_symmetry_cell_setting 'tetragonal'
loop_
_space_group_symop_operation_xyz
x,y,z
-y,x,z
-x,-y,z
y,-x,z
x,-y,1/2-z
-x,y,1/2-z
y,x,1/2-z
-y,-x,1/2-z
-x,-y,-z
y,-x,-z
x,y,-z
-y,x,-z
-x,y,1/2+z
x,-y,1/2+z
-y,-x,1/2+z
y,x,1/2+z
loop_
_atom_site_type_symbol
_atom_site_label
_atom_site_fract_x
_atom_site_fract_y
_atom_site_fract_z
Si Si1 0.304069 0.500454 0.668182
Si Si2 0.662054 0.070233 0.913400
Si Si3 0.784704 0.759681 0.916090
Si Si4 0.493720 0.121944 0.666855
Si Si5 0.356113 0.642042 0.917348
Si Si6 0.337888 0.889808 0.413166
O O1 0.335578 0.500000 0.750000
O O2 0.214193 0.528024 0.670583
O O3 0.306766 0.414931 0.633621
O O4 0.351787 0.557984 0.616233
O O5 0.726193 0.133490 0.885093
O O6 0.577444 0.080571 0.875319
O O7 0.687992 0.980200 0.905301
O O8 0.651116 0.085591 0.000000
O O9 0.726627 0.684938 0.916690
O O10 0.730140 0.830231 0.885832
O O11 0.801262 0.782917 0.000000
O O12 0.500000 0.093657 0.750000
O O13 0.577944 0.116938 0.626780
O O14 0.356307 0.613290 0.000000
O O15 0.350234 0.873022 0.500000
#
# Coordination Sequence:
#
# PCOD9562570 Si02
#       6
#    16  16  16  16  16  16
#     4  11  23  37  53  77 109 142 178 225 275 318
#     4  10  20  35  56  80 107 141 180 218 261 315
#     4   9  18  33  54  79 105 136 175 221 262 307
#     4  11  22  34  52  79 113 142 171 216 270 321
#     4  11  21  36  58  77 100 141 190 228 263 312
#     4  10  20  35  56  80 107 141 180 218 261 315
#
# _framework density 18.023440999999998
#
# number of rings (size 3 to 8) (size 9 to 14) (size 15 to 20)
#    0.000    1.667    3.333    2.000    0.000    4.333 
#    0.000    2.500    0.000    0.500    0.000    3.500 
#    0.000    0.000    0.000    3.000    0.000    3.333 
#
# Total GULP energy -535296.497933 kJ/mol
# GULP energy per Si atom -5576.005187 kJ/mol
# Density = 1.798242 g / cm^3
# Si number density = 18.023441 Si / 1000 Ang^3
#
#
#
# Elastic Constant Matrix: (Units=GPa)
#
#
# Indices 1 2 3 4 5 6 
#
# 1 84.9266 34.0012 27.6232 0.0000 0.0000 0.0000
# 2 34.0012 84.9266 27.6232 0.0000 0.0000 0.0000
# 3 27.6232 27.6232 76.2914 0.0000 0.0000 0.0000
# 4 0.0000 0.0000 0.0000 7.8554 0.0000 0.0000
# 5 0.0000 0.0000 0.0000 0.0000 7.8554 0.0000
# 6 0.0000 0.0000 0.0000 0.0000 0.0000 23.5052
#
#
#
# Elastic Compliance Matrix: (Units=1/GPa)
#
#
# Indices 1 2 3 4 5 6 
#
# 1 0.014873 -0.004764 -0.003660 0.000000 0.000000 0.000000
# 2 -0.004764 0.014873 -0.003660 0.000000 0.000000 0.000000
# 3 -0.003660 -0.003660 0.015758 0.000000 0.000000 0.000000
# 4 0.000000 0.000000 0.000000 0.127302 0.000000 0.000000
# 5 0.000000 0.000000 0.000000 0.000000 0.127302 0.000000
# 6 0.000000 0.000000 0.000000 0.000000 0.000000 0.042544
#
#
# Mechanical properties :
#
#
# Convention : Reuss Voigt Hill
#
# Bulk Modulus (GPa) = 46.87113 47.18220 47.02667
# Shear Modulus (GPa) = 13.37147 18.30299 15.83723
#
# Velocity S-wave (km/s) = 2.72673 3.19016 2.96751
# Velocity P-wave (km/s) = 5.99796 6.30909 6.15549
#
# Compressibility (1/GPa) = 0.02133509
#
# Stress axis : x y z
#
# Youngs Moduli (GPa) = 67.23750 67.23750 63.45940
#
# Poissons Ratio (x) = 0.32031 0.23227
# Poissons Ratio (y) = 0.32031 0.23227
# Poissons Ratio (z) = 0.24610 0.24610
#
# Static dielectric constant tensor:
#      x y z
#    x 1.609470 0.000000 0.000000 
#    y 0.000000 1.609470 0.000000 
#    z 0.000000 0.000000 1.625680 
# 
# From -- ./inp_files/4281.got.cif
#   From: 2010.05.17/outbox.cif.g08.bks.cpg/sg124_3_cif.got.tgz:4281.got - 2010.05.20 11:49:17.
