data_PCOD9562079
_publ_section_title
;
Structure prediction by ZEFSAII (Michael W. Deem and Ramdas Pophale) SiO2 
 PCOD9562079
Probable space group: P 4/M M M
;
_chemical_formula_sum "Si O2"
_cell_formula_units_Z 64
_cell_length_a 20.542639
_cell_length_b 20.542639
_cell_length_c 7.970273
_cell_angle_alpha 90.000000
_cell_angle_beta 90.000000
_cell_angle_gamma 90.000000
_cell_volume 3363.455342
_symmetry_space_group_name_H-M "P 4/M M M"
_symmetry_group_IT_number 123
_symmetry_cell_setting 'tetragonal'
loop_
_space_group_symop_operation_xyz
x,y,z
-y,x,z
-x,-y,z
y,-x,z
x,-y,-z
-x,y,-z
y,x,-z
-y,-x,-z
-x,-y,-z
y,-x,-z
x,y,-z
-y,x,-z
-x,y,z
x,-y,z
-y,-x,z
y,x,z
loop_
_atom_site_type_symbol
_atom_site_label
_atom_site_fract_x
_atom_site_fract_y
_atom_site_fract_z
Si Si1 0.358636 0.104452 0.800034
Si Si2 0.095684 0.500000 0.195429
Si Si3 0.744983 0.358052 0.702005
Si Si4 0.000000 0.894448 0.294916
Si Si5 0.500000 0.244906 0.296356
Si Si6 0.000000 0.253695 0.698805
O O1 0.428861 0.078519 0.731515
O O2 0.350183 0.179761 0.751539
O O3 0.297321 0.061889 0.747533
O O4 0.363850 0.100760 0.000000
O O5 0.174115 0.500000 0.210778
O O6 0.075931 0.500000 0.000000
O O7 0.743049 0.355121 0.500000
O O8 0.697702 0.302299 0.769530
O O9 0.723405 0.431308 0.750209
O O10 0.063353 0.936648 0.244494
O O11 0.000000 0.893540 0.500000
O O12 0.000000 0.820122 0.232948
O O13 0.500000 0.235429 0.500000
O O14 0.000000 0.247411 0.500000
#
# Coordination Sequence:
#
# PCOD9562079 Si02
#       6
#    16   8  16   8   8   8
#     4  10  20  34  50  70  98 131 167 204 242 286
#     4   8  16  31  49  66  90 129 170 202 233 277
#     4   9  17  30  49  72  98 129 166 207 249 294
#     4   8  16  34  58  77  91 115 154 193 228 273
#     4   8  14  26  45  68  94 126 164 204 245 290
#     4  11  22  34  51  78 106 127 152 194 246 293
#
# _framework density 19.028051999999999
#
# number of rings (size 3 to 8) (size 9 to 14) (size 15 to 20)
#    0.000    2.875    0.000    1.500    0.000    3.000 
#    0.000    5.000    0.000    2.625    0.000    6.125 
#    0.000    0.000    0.000   18.375    0.000   12.750 
#
# Total GULP energy -356501.310781 kJ/mol
# GULP energy per Si atom -5570.332981 kJ/mol
# Density = 1.898474 g / cm^3
# Si number density = 19.028052 Si / 1000 Ang^3
#
#
#
# Elastic Constant Matrix: (Units=GPa)
#
#
# Indices 1 2 3 4 5 6 
#
# 1 166.3892 102.2560 12.6249 0.0000 0.0000 0.0000
# 2 102.2560 166.3892 12.6249 0.0000 0.0000 0.0000
# 3 12.6249 12.6249 20.1505 0.0000 0.0000 0.0000
# 4 0.0000 0.0000 0.0000 -13.9761 0.0000 0.0000
# 5 0.0000 0.0000 0.0000 0.0000 -13.9761 0.0000
# 6 0.0000 0.0000 0.0000 0.0000 0.0000 56.6656
#
#
#
# Elastic Compliance Matrix: (Units=1/GPa)
#
#
# Indices 1 2 3 4 5 6 
#
# 1 0.009774 -0.005819 -0.002478 0.000000 0.000000 0.000000
# 2 -0.005819 0.009774 -0.002478 0.000000 0.000000 0.000000
# 3 -0.002478 -0.002478 0.052732 0.000000 0.000000 0.000000
# 4 0.000000 0.000000 0.000000 -0.071551 0.000000 0.000000
# 5 0.000000 0.000000 0.000000 0.000000 -0.071551 0.000000
# 6 0.000000 0.000000 0.000000 0.000000 0.000000 0.017647
#
#
# Mechanical properties :
#
#
# Convention : Reuss Voigt Hill
#
# Bulk Modulus (GPa) = 19.71219 67.54893 43.63056
# Shear Modulus (GPa) = -339.80282 20.77088 -159.51597
#
# Velocity S-wave (km/s) = -13.37788 3.30751 -9.16591
# Velocity P-wave (km/s) = 15.10766 7.08258 9.43606
#
# Compressibility (1/GPa) = 0.05073002
#
# Stress axis : x y z
#
# Youngs Moduli (GPa) = 102.31307 102.31307 18.96386
#
# Poissons Ratio (x) = 0.59532 0.04699
# Poissons Ratio (y) = 0.59532 0.04699
# Poissons Ratio (z) = 0.25354 0.25354
#
# Static dielectric constant tensor:
#      x y z
#    x 1.676100 0.000000 0.000000 
#    y 0.000000 1.676100 0.000000 
#    z 0.000000 0.000000 1.688360 
# 
# From -- ./inp_files/1010.got.cif
#   From: 2010.05.17/outbox.cif.g08.bks.cpg/sg123_1_cif.got.tgz:1010.got - 2010.05.20 11:43:04.
