data_PCOD9562184
_publ_section_title
;
Structure prediction by ZEFSAII (Michael W. Deem and Ramdas Pophale) SiO2 
 PCOD9562184
Probable space group: P 4/M M M
;
_chemical_formula_sum "Si O2"
_cell_formula_units_Z 64
_cell_length_a 20.485268
_cell_length_b 20.485268
_cell_length_c 7.989796
_cell_angle_alpha 90.000000
_cell_angle_beta 90.000000
_cell_angle_gamma 90.000000
_cell_volume 3352.887570
_symmetry_space_group_name_H-M "P 4/M M M"
_symmetry_group_IT_number 123
_symmetry_cell_setting 'tetragonal'
loop_
_space_group_symop_operation_xyz
x,y,z
-y,x,z
-x,-y,z
y,-x,z
x,-y,-z
-x,y,-z
y,x,-z
-y,-x,-z
-x,-y,-z
y,-x,-z
x,y,-z
-y,x,-z
-x,y,z
x,-y,z
-y,-x,z
y,x,z
loop_
_atom_site_type_symbol
_atom_site_label
_atom_site_fract_x
_atom_site_fract_y
_atom_site_fract_z
Si Si1 0.000000 0.424668 0.296014
Si Si2 0.316654 0.426935 0.500000
Si Si3 0.885792 0.673643 0.300141
Si Si4 0.926148 0.180314 0.797320
Si Si5 0.365766 0.254971 0.184820
O O1 0.062662 0.381749 0.245765
O O2 0.000000 0.500000 0.238658
O O3 0.000000 0.426091 0.500000
O O4 0.341738 0.500000 0.500000
O O5 0.375296 0.375296 0.500000
O O6 0.273681 0.413355 0.664500
O O7 0.876765 0.667899 0.500000
O O8 0.911193 0.746331 0.262422
O O9 0.817203 0.661448 0.211976
O O10 0.871498 0.128503 0.739611
O O11 0.000000 0.162321 0.745985
O O12 0.924347 0.180953 0.000000
O O13 0.305339 0.305339 0.195076
O O14 0.395299 0.261374 0.000000
#
# Coordination Sequence:
#
# PCOD9562184 Si02
#       5
#     8   8  16  16  16
#     4   9  20  36  53  77 112 152 190 232 288 357
#     4  10  22  41  64  93 127 161 200 246 298 358
#     4  11  20  35  58  85 114 151 195 245 300 363
#     4  10  21  36  55  79 110 151 199 253 309 366
#     4  10  21  38  61  89 121 157 198 247 299 350
#
# _framework density 19.088024999999998
#
# number of rings (size 3 to 8) (size 9 to 14) (size 15 to 20)
#    0.000    1.875    2.500    1.500    0.000    5.375 
#    0.000    1.250    0.000    5.250    0.000    5.250 
#    0.000    0.000    0.000    0.000    0.000    0.000 
#
# Total GULP energy -357386.539217 kJ/mol
# GULP energy per Si atom -5584.164675 kJ/mol
# Density = 1.904458 g / cm^3
# Si number density = 19.088025 Si / 1000 Ang^3
#
#
#
# Elastic Constant Matrix: (Units=GPa)
#
#
# Indices 1 2 3 4 5 6 
#
# 1 111.9315 31.0448 30.5870 0.0000 0.0000 0.0000
# 2 31.0448 111.9315 30.5870 0.0000 0.0000 0.0000
# 3 30.5870 30.5870 89.1211 0.0000 0.0000 0.0000
# 4 0.0000 0.0000 0.0000 -40.8605 0.0000 0.0000
# 5 0.0000 0.0000 0.0000 0.0000 -40.8605 0.0000
# 6 0.0000 0.0000 0.0000 0.0000 0.0000 -1.5268
#
#
#
# Elastic Compliance Matrix: (Units=1/GPa)
#
#
# Indices 1 2 3 4 5 6 
#
# 1 0.010280 -0.002082 -0.002814 0.000000 0.000000 0.000000
# 2 -0.002082 0.010280 -0.002814 0.000000 0.000000 0.000000
# 3 -0.002814 -0.002814 0.013152 0.000000 0.000000 0.000000
# 4 0.000000 0.000000 0.000000 -0.024474 0.000000 0.000000
# 5 0.000000 0.000000 0.000000 0.000000 -0.024474 0.000000
# 6 0.000000 0.000000 0.000000 0.000000 0.000000 -0.654965
#
#
# Mechanical properties :
#
#
# Convention : Reuss Voigt Hill
#
# Bulk Modulus (GPa) = 54.66410 55.26908 54.96659
# Shear Modulus (GPa) = -7.70794 -1.93188 -4.81991
#
# Velocity S-wave (km/s) = -2.01168 -1.00712 -1.59078
# Velocity P-wave (km/s) = 4.82745 5.25978 5.04825
#
# Compressibility (1/GPa) = 0.01829354
#
# Stress axis : x y z
#
# Youngs Moduli (GPa) = 97.27162 97.27162 76.03410
#
# Poissons Ratio (x) = 0.20257 0.21393
# Poissons Ratio (y) = 0.20257 0.21393
# Poissons Ratio (z) = 0.27368 0.27368
#
# Static dielectric constant tensor:
#      x y z
#    x 1.635020 0.000000 0.000000 
#    y 0.000000 1.635020 0.000000 
#    z 0.000000 0.000000 1.697920 
# 
# From -- ./inp_files/934.got.cif
#   From: 2010.05.17/outbox.cif.g08.bks.cpg/sg123_1_cif.got.tgz:934.got - 2010.05.20 11:43:04.
