data_PCOD9562521
_publ_section_title
;
Structure prediction by ZEFSAII (Michael W. Deem and Ramdas Pophale) SiO2 
 PCOD9562521
Probable space group: P 4/M C C
;
_chemical_formula_sum "Si O2"
_cell_formula_units_Z 96
_cell_length_a 25.741464
_cell_length_b 25.741464
_cell_length_c 8.740241
_cell_angle_alpha 90.000000
_cell_angle_beta 90.000000
_cell_angle_gamma 90.000000
_cell_volume 5791.484440
_symmetry_space_group_name_H-M "P 4/M C C"
_symmetry_group_IT_number 124
_symmetry_cell_setting 'tetragonal'
loop_
_space_group_symop_operation_xyz
x,y,z
-y,x,z
-x,-y,z
y,-x,z
x,-y,1/2-z
-x,y,1/2-z
y,x,1/2-z
-y,-x,1/2-z
-x,-y,-z
y,-x,-z
x,y,-z
-y,x,-z
-x,y,1/2+z
x,-y,1/2+z
-y,-x,1/2+z
y,x,1/2+z
loop_
_atom_site_type_symbol
_atom_site_label
_atom_site_fract_x
_atom_site_fract_y
_atom_site_fract_z
Si Si1 0.750209 0.332034 0.816537
Si Si2 0.445402 0.754163 0.825209
Si Si3 0.879105 0.553355 0.825008
Si Si4 0.054258 0.745860 0.681299
Si Si5 0.368121 0.050459 0.179980
Si Si6 0.166762 0.248596 0.316071
O O1 0.705394 0.294607 0.750000
O O2 0.743051 0.390790 0.758096
O O3 0.805291 0.303773 0.772679
O O4 0.747801 0.331596 0.000000
O O5 0.500000 0.736340 0.750000
O O6 0.447972 0.816921 0.827689
O O7 0.442840 0.735518 0.000000
O O8 0.897885 0.500000 0.750000
O O9 0.899300 0.598814 0.717674
O O10 0.897343 0.559911 0.000000
O O11 0.054101 0.752753 0.500000
O O12 0.053596 0.685140 0.726636
O O13 0.109415 0.762376 0.751630
O O14 0.000000 0.767730 0.750000
O O15 0.396483 0.000000 0.250000
O O16 0.358003 0.045107 0.000000
O O17 0.205413 0.205413 0.250000
O O18 0.164823 0.247007 0.500000
#
# Coordination Sequence:
#
# PCOD9562521 Si02
#       6
#    16  16  16  16  16  16
#     4  10  20  33  51  74 102 133 167 205 248 296
#     4  10  20  33  50  70  95 125 159 197 240 289
#     4  10  20  33  47  64  85 113 150 193 239 286
#     4  11  21  34  51  71  96 127 162 201 244 293
#     4  11  21  33  47  63  84 113 151 195 241 288
#     4  10  20  34  52  76 104 135 169 207 251 300
#
# _framework density 16.576060999999999
#
# number of rings (size 3 to 8) (size 9 to 14) (size 15 to 20)
#    0.000    1.667    0.000    7.000    0.000    7.000 
#    0.000    1.667    0.000    0.000    0.000    0.000 
#    0.000    0.667    0.000    6.667    0.000    4.000 
#
# Total GULP energy -535325.182592 kJ/mol
# GULP energy per Si atom -5576.303985 kJ/mol
# Density = 1.653833 g / cm^3
# Si number density = 16.576061 Si / 1000 Ang^3
#
#
#
# Elastic Constant Matrix: (Units=GPa)
#
#
# Indices 1 2 3 4 5 6 
#
# 1 81.5069 28.4637 35.6956 0.0000 0.0000 0.0000
# 2 28.4637 81.5079 35.6960 0.0000 0.0000 0.0000
# 3 35.6956 35.6960 113.0098 0.0000 0.0000 0.0000
# 4 0.0000 0.0000 0.0000 20.0546 0.0000 0.0000
# 5 0.0000 0.0000 0.0000 0.0000 20.1183 0.0000
# 6 0.0000 0.0000 0.0000 0.0000 0.0000 6.9983
#
#
#
# Elastic Compliance Matrix: (Units=1/GPa)
#
#
# Indices 1 2 3 4 5 6 
#
# 1 0.015146 -0.003707 -0.003613 0.000000 0.000000 0.000000
# 2 -0.003707 0.015146 -0.003613 0.000000 0.000000 0.000000
# 3 -0.003613 -0.003613 0.011131 0.000000 0.000000 0.000000
# 4 0.000000 0.000000 0.000000 0.049864 0.000000 0.000000
# 5 0.000000 0.000000 0.000000 0.000000 0.049706 0.000000
# 6 0.000000 0.000000 0.000000 0.000000 0.000000 0.142892
#
#
# Mechanical properties :
#
#
# Convention : Reuss Voigt Hill
#
# Bulk Modulus (GPa) = 51.13378 52.85945 51.99662
# Shear Modulus (GPa) = 16.01185 21.17888 18.59536
#
# Velocity S-wave (km/s) = 3.11136 3.57834 3.35299
# Velocity P-wave (km/s) = 6.61985 7.00221 6.81371
#
# Compressibility (1/GPa) = 0.01955654
#
# Stress axis : x y z
#
# Youngs Moduli (GPa) = 66.02531 66.02596 89.83665
#
# Poissons Ratio (x) = 0.24474 0.32459
# Poissons Ratio (y) = 0.24474 0.32459
# Poissons Ratio (z) = 0.23856 0.23856
#
# Static dielectric constant tensor:
#      x y z
#    x 1.604310 0.000000 0.000000 
#    y 0.000000 1.604310 0.000000 
#    z 0.000000 0.000000 1.565080 
# 
# From -- ./inp_files/1337.got.cif
#   From: 2010.05.17/outbox.cif.g08.bks.cpg/sg124_1_cif.got.tgz:1337.got - 2010.05.20 11:49:17.
