data_PCOD9562495
_publ_section_title
;
Structure prediction by ZEFSAII (Michael W. Deem and Ramdas Pophale) SiO2 
 PCOD9562495
Probable space group: P 4/M C C
;
_chemical_formula_sum "Si O2"
_cell_formula_units_Z 96
_cell_length_a 15.842182
_cell_length_b 15.842182
_cell_length_c 17.013937
_cell_angle_alpha 90.000000
_cell_angle_beta 90.000000
_cell_angle_gamma 90.000000
_cell_volume 4270.068254
_symmetry_space_group_name_H-M "P 4/M C C"
_symmetry_group_IT_number 124
_symmetry_cell_setting 'tetragonal'
loop_
_space_group_symop_operation_xyz
x,y,z
-y,x,z
-x,-y,z
y,-x,z
x,-y,1/2-z
-x,y,1/2-z
y,x,1/2-z
-y,-x,1/2-z
-x,-y,-z
y,-x,-z
x,y,-z
-y,x,-z
-x,y,1/2+z
x,-y,1/2+z
-y,-x,1/2+z
y,x,1/2+z
loop_
_atom_site_type_symbol
_atom_site_label
_atom_site_fract_x
_atom_site_fract_y
_atom_site_fract_z
Si Si1 0.851611 0.456350 0.911692
Si Si2 0.989867 0.694483 0.587410
Si Si3 0.761463 0.863415 0.801706
Si Si4 0.385146 0.569883 0.596125
Si Si5 0.601940 0.908801 0.297084
Si Si6 0.697117 0.725820 0.909157
O O1 0.926821 0.387027 0.914823
O O2 0.869158 0.517169 0.836619
O O3 0.769287 0.396565 0.906171
O O4 0.849677 0.497251 0.000000
O O5 0.997261 0.727728 0.500000
O O6 0.949177 0.758886 0.649215
O O7 0.072557 0.656214 0.624687
O O8 0.842016 0.842016 0.750000
O O9 0.670321 0.860497 0.756630
O O10 0.756645 0.786635 0.862281
O O11 0.389772 0.474031 0.621418
O O12 0.383691 0.570111 0.500000
O O13 0.310865 0.630878 0.622472
O O14 0.589970 0.000000 0.250000
O O15 0.721240 0.724041 0.000000
#
# Coordination Sequence:
#
# PCOD9562495 Si02
#       6
#    16  16  16  16  16  16
#     4   9  17  29  46  70  97 124 158 199 243 292
#     4   9  18  34  53  71  97 130 160 195 239 284
#     4  10  21  34  46  67 100 133 159 188 235 290
#     4   8  14  26  44  62  78 106 161 227 273 298
#     4  10  20  31  48  72  97 125 160 200 236 280
#     4   9  18  31  45  63  91 127 163 203 255 306
#
# _framework density 22.482075999999999
#
# number of rings (size 3 to 8) (size 9 to 14) (size 15 to 20)
#    0.000    2.833    0.000    3.000    0.000   12.000 
#    0.000    5.000    0.000    0.000    0.000    1.167 
#    0.000   27.000    0.000   13.500    0.000    0.000 
#
# Total GULP energy -535051.855616 kJ/mol
# GULP energy per Si atom -5573.456829 kJ/mol
# Density = 2.243091 g / cm^3
# Si number density = 22.482076 Si / 1000 Ang^3
#
#
#
# Elastic Constant Matrix: (Units=GPa)
#
#
# Indices 1 2 3 4 5 6 
#
# 1 8.3173 -1.4871 2.1154 0.0000 0.0000 0.0000
# 2 -1.4871 8.3173 2.1154 0.0000 0.0000 0.0000
# 3 2.1154 2.1154 92.4705 0.0000 0.0000 0.0000
# 4 0.0000 0.0000 0.0000 16.5319 0.0000 0.0000
# 5 0.0000 0.0000 0.0000 0.0000 16.5319 0.0000
# 6 0.0000 0.0000 0.0000 0.0000 0.0000 19.0134
#
#
#
# Elastic Compliance Matrix: (Units=1/GPa)
#
#
# Indices 1 2 3 4 5 6 
#
# 1 0.125253 0.023258 -0.003397 0.000000 0.000000 0.000000
# 2 0.023258 0.125253 -0.003397 0.000000 0.000000 0.000000
# 3 -0.003397 -0.003397 0.010970 0.000000 0.000000 0.000000
# 4 0.000000 0.000000 0.000000 0.060489 0.000000 0.000000
# 5 0.000000 0.000000 0.000000 0.000000 0.060489 0.000000
# 6 0.000000 0.000000 0.000000 0.000000 0.000000 0.052594
#
#
# Mechanical properties :
#
#
# Convention : Reuss Voigt Hill
#
# Bulk Modulus (GPa) = 3.39670 12.73252 8.06461
# Shear Modulus (GPa) = 9.99487 17.50621 13.75054
#
# Velocity S-wave (km/s) = 2.11077 2.79350 2.47578
# Velocity P-wave (km/s) = 2.73031 4.01006 3.43039
#
# Compressibility (1/GPa) = 0.29440311
#
# Stress axis : x y z
#
# Youngs Moduli (GPa) = 7.98382 7.98382 91.16013
#
# Poissons Ratio (x) = -0.18569 0.30971
# Poissons Ratio (y) = -0.18569 0.30971
# Poissons Ratio (z) = 0.02712 0.02712
#
# Static dielectric constant tensor:
#      x y z
#    x 1.893950 0.000000 0.000000 
#    y 0.000000 1.893950 0.000000 
#    z 0.000000 0.000000 1.925800 
# 
# From -- ./inp_files/4271.got.cif
#   From: 2010.05.17/outbox.cif.g08.bks.cpg/sg124_3_cif.got.tgz:4271.got - 2010.05.20 11:49:17.
