data_PCOD9562951
_publ_section_title
;
Structure prediction by ZEFSAII (Michael W. Deem and Ramdas Pophale) SiO2 
 PCOD9562951
Probable space group: P 4/N B M
;
_chemical_formula_sum "Si O2"
_cell_formula_units_Z 96
_cell_length_a 28.255258
_cell_length_b 28.255258
_cell_length_c 6.328188
_cell_angle_alpha 90.000000
_cell_angle_beta 90.000000
_cell_angle_gamma 90.000000
_cell_volume 5052.169670
_symmetry_space_group_name_H-M "P 4/N B M"
_symmetry_group_IT_number 125
_space_group.IT_coordinate_system_code '2'
_symmetry_cell_setting 'tetragonal'
loop_
_space_group_symop_operation_xyz
x,y,z
1/2-y,x,z
1/2-x,1/2-y,z
y,1/2-x,z
x,1/2-y,-z
1/2-x,y,-z
y,x,-z
1/2-y,1/2-x,-z
-x,-y,-z
1/2+y,-x,-z
1/2+x,1/2+y,-z
-y,1/2+x,-z
-x,1/2+y,z
1/2+x,-y,z
-y,-x,z
1/2+y,1/2+x,z
loop_
_atom_site_type_symbol
_atom_site_label
_atom_site_fract_x
_atom_site_fract_y
_atom_site_fract_z
Si Si1 0.207314 0.866947 0.847482
Si Si2 0.915905 0.488456 0.646509
Si Si3 0.561901 0.561901 0.000000
Si Si4 0.439283 0.633773 0.988794
Si Si5 0.250000 0.935011 0.500000
Si Si6 0.134265 0.429933 0.626351
Si Si7 0.510031 0.707297 0.174952
O O1 0.178021 0.821980 0.772657
O O2 0.221478 0.900212 0.653509
O O3 0.250000 0.853262 0.000000
O O4 0.173334 0.899328 0.991606
O O5 0.958753 0.458753 0.544040
O O6 0.935732 0.515753 0.853328
O O7 0.888591 0.526775 0.508674
O O8 0.879098 0.451745 0.746699
O O9 0.604588 0.568805 0.839603
O O10 0.414242 0.585759 0.079572
O O11 0.485632 0.660197 0.074780
O O12 0.276476 0.970861 0.657117
O O13 0.117724 0.382276 0.500000
O O14 0.187609 0.444110 0.695885
O O15 0.516884 0.750000 0.000000
#
# Coordination Sequence:
#
# PCOD9562951 Si02
#       7
#    16  16   8  16   8  16  16
#     4  11  23  40  58  80 108 141 183 249 323 380
#     4  10  20  33  51  79 110 148 189 235 284 337
#     4  10  19  34  54  72 114 152 188 229 276 334
#     4  10  19  36  57  78 109 144 185 243 300 344
#     4  12  22  38  64  89 108 144 198 255 304 382
#     4  10  23  36  55  81 114 149 194 242 285 343
#     4  12  23  39  61  85 112 149 196 247 297 358
#
# _framework density 19.001736000000001
#
# number of rings (size 3 to 8) (size 9 to 14) (size 15 to 20)
#    0.000    1.333    5.000    1.250    0.000    5.833 
#    0.000    0.000    0.000    0.000    0.000    0.000 
#    0.000    0.000    0.000    0.000    0.000   29.167 
#
# Total GULP energy -534546.647771 kJ/mol
# GULP energy per Si atom -5568.194248 kJ/mol
# Density = 1.895849 g / cm^3
# Si number density = 19.001736 Si / 1000 Ang^3
#
#
#
# Elastic Constant Matrix: (Units=GPa)
#
#
# Indices 1 2 3 4 5 6 
#
# 1 67.3760 52.8911 34.3056 0.0000 0.0000 0.0000
# 2 52.8911 67.3774 34.3059 0.0000 0.0000 0.0000
# 3 34.3056 34.3059 80.7421 0.0000 0.0000 0.0000
# 4 0.0000 0.0000 0.0000 14.8071 0.0000 0.0000
# 5 0.0000 0.0000 0.0000 0.0000 14.8069 0.0000
# 6 0.0000 0.0000 0.0000 0.0000 0.0000 38.4696
#
#
#
# Elastic Compliance Matrix: (Units=1/GPa)
#
#
# Indices 1 2 3 4 5 6 
#
# 1 0.040005 -0.029029 -0.004663 0.000000 0.000000 0.000000
# 2 -0.029029 0.040004 -0.004663 0.000000 0.000000 0.000000
# 3 -0.004663 -0.004663 0.016348 0.000000 0.000000 0.000000
# 4 0.000000 0.000000 0.000000 0.067535 0.000000 0.000000
# 5 0.000000 0.000000 0.000000 0.000000 0.067536 0.000000
# 6 0.000000 0.000000 0.000000 0.000000 0.000000 0.025995
#
#
# Mechanical properties :
#
#
# Convention : Reuss Voigt Hill
#
# Bulk Modulus (GPa) = 50.90263 50.94453 50.92358
# Shear Modulus (GPa) = 14.67645 19.88290 17.27968
#
# Velocity S-wave (km/s) = 2.78218 3.23828 3.01885
# Velocity P-wave (km/s) = 6.09649 6.39145 6.24571
#
# Compressibility (1/GPa) = 0.01964535
#
# Stress axis : x y z
#
# Youngs Moduli (GPa) = 24.99696 24.99752 61.17101
#
# Poissons Ratio (x) = 0.72566 0.28525
# Poissons Ratio (y) = 0.72565 0.28524
# Poissons Ratio (z) = 0.11656 0.11656
#
# Static dielectric constant tensor:
#      x y z
#    x 1.733380 0.000000 0.000000 
#    y 0.000000 1.733370 0.000000 
#    z 0.000000 0.000000 1.750930 
# 
# From -- ./inp_files/1322.got.cif
#   From: 2010.05.17/outbox.cif.g08.bks.cpg/sg125_1_cif.got.tgz:1322.got - 2010.05.20 11:54:10.
