data_PCOD9562099
_publ_section_title
;
Structure prediction by ZEFSAII (Michael W. Deem and Ramdas Pophale) SiO2 
 PCOD9562099
Probable space group: P 4/M M M
;
_chemical_formula_sum "Si O2"
_cell_formula_units_Z 84
_cell_length_a 12.762955
_cell_length_b 12.762955
_cell_length_c 29.847561
_cell_angle_alpha 90.000000
_cell_angle_beta 90.000000
_cell_angle_gamma 90.000000
_cell_volume 4861.959361
_symmetry_space_group_name_H-M "P 4/M M M"
_symmetry_group_IT_number 123
_symmetry_cell_setting 'tetragonal'
loop_
_space_group_symop_operation_xyz
x,y,z
-y,x,z
-x,-y,z
y,-x,z
x,-y,-z
-x,y,-z
y,x,-z
-y,-x,-z
-x,-y,-z
y,-x,-z
x,y,-z
-y,x,-z
-x,y,z
x,-y,z
-y,-x,z
y,x,z
loop_
_atom_site_type_symbol
_atom_site_label
_atom_site_fract_x
_atom_site_fract_y
_atom_site_fract_z
Si Si1 0.618167 0.792327 0.132288
Si Si2 0.706997 0.116325 0.500000
Si Si3 0.000000 0.816436 0.000000
Si Si4 0.879027 0.296004 0.676295
Si Si5 0.792652 0.616125 0.587779
Si Si6 0.623862 0.000000 0.071631
Si Si7 0.876072 0.703500 0.776381
O O1 0.500000 0.752455 0.126340
O O2 0.704962 0.704962 0.121801
O O3 0.635241 0.828836 0.183633
O O4 0.631007 0.895426 0.101726
O O5 0.799671 0.200330 0.500000
O O6 0.640694 0.135695 0.544903
O O7 0.750128 0.000000 0.500000
O O8 0.102613 0.897388 0.000000
O O9 0.000000 0.729001 0.959616
O O10 0.804543 0.195458 0.671584
O O11 0.853059 0.369689 0.634595
O O12 0.859618 0.341006 0.726190
O O13 0.000000 0.264993 0.674531
O O14 0.750166 0.500000 0.584017
O O15 0.699825 0.699825 0.587333
O O16 0.500000 0.000000 0.053670
O O17 0.813829 0.813829 0.777798
O O18 0.000000 0.716785 0.783301
#
# Coordination Sequence:
#
# PCOD9562099 Si02
#       7
#    16   8   4  16  16   8  16
#     4  10  20  34  53  77 107 142 181 225 270 318
#     4  10  21  36  54  76 102 128 157 194 238 294
#     4  11  23  38  58  86 121 153 180 220 274 327
#     4   9  18  31  48  72 101 132 168 209 253 305
#     4  10  21  36  52  72  96 124 162 207 254 304
#     4  10  20  37  60  83 109 145 189 229 267 314
#     4   9  17  30  48  72 103 137 174 216 261 313
#
# _framework density 17.276986000000001
#
# number of rings (size 3 to 8) (size 9 to 14) (size 15 to 20)
#    0.000    2.333    0.952    1.571    0.000    3.524 
#    0.000    3.810    0.000    5.143    0.000    5.333 
#    0.000    6.857    0.000    0.000    0.000    0.000 
#
# Total GULP energy -467758.350210 kJ/mol
# GULP energy per Si atom -5568.551788 kJ/mol
# Density = 1.723766 g / cm^3
# Si number density = 17.276986 Si / 1000 Ang^3
#
#
#
# Elastic Constant Matrix: (Units=GPa)
#
#
# Indices 1 2 3 4 5 6 
#
# 1 102.3401 24.2168 44.0968 0.0000 0.0000 0.0000
# 2 24.2168 102.3431 44.0974 0.0000 0.0000 0.0000
# 3 44.0968 44.0974 99.4693 0.0000 0.0000 0.0000
# 4 0.0000 0.0000 0.0000 13.4898 0.0000 0.0000
# 5 0.0000 0.0000 0.0000 0.0000 13.4903 0.0000
# 6 0.0000 0.0000 0.0000 0.0000 0.0000 9.0941
#
#
#
# Elastic Compliance Matrix: (Units=1/GPa)
#
#
# Indices 1 2 3 4 5 6 
#
# 1 0.012117 -0.000683 -0.005069 0.000000 0.000000 0.000000
# 2 -0.000683 0.012117 -0.005069 0.000000 0.000000 0.000000
# 3 -0.005069 -0.005069 0.014548 0.000000 0.000000 0.000000
# 4 0.000000 0.000000 0.000000 0.074130 0.000000 0.000000
# 5 0.000000 0.000000 0.000000 0.000000 0.074128 0.000000
# 6 0.000000 0.000000 0.000000 0.000000 0.000000 0.109961
#
#
# Mechanical properties :
#
#
# Convention : Reuss Voigt Hill
#
# Bulk Modulus (GPa) = 58.34383 58.77494 58.55939
# Shear Modulus (GPa) = 15.41518 19.99759 17.70638
#
# Velocity S-wave (km/s) = 2.99028 3.40585 3.20481
# Velocity P-wave (km/s) = 6.76501 7.03985 6.90380
#
# Compressibility (1/GPa) = 0.01713977
#
# Stress axis : x y z
#
# Youngs Moduli (GPa) = 82.52800 82.53031 68.73950
#
# Poissons Ratio (x) = 0.05638 0.34843
# Poissons Ratio (y) = 0.05638 0.34843
# Poissons Ratio (z) = 0.41833 0.41833
#
# Static dielectric constant tensor:
#      x y z
#    x 1.555990 0.000000 0.000000 
#    y 0.000000 1.555990 0.000000 
#    z 0.000000 0.000000 1.625050 
# 
# From -- ./inp_files/8557.got.cif
#   From: 2010.05.17/outbox.cif.g08.bks.cpg/sg123_5_cif.got.tgz:8557.got - 2010.05.20 11:43:04.
