data_PCOD9562958
_publ_section_title
;
Structure prediction by ZEFSAII (Michael W. Deem and Ramdas Pophale) SiO2 
 PCOD9562958
Probable space group: P 4/N B M
;
_chemical_formula_sum "Si O2"
_cell_formula_units_Z 88
_cell_length_a 16.477281
_cell_length_b 16.477281
_cell_length_c 16.753780
_cell_angle_alpha 90.000000
_cell_angle_beta 90.000000
_cell_angle_gamma 90.000000
_cell_volume 4548.664491
_symmetry_space_group_name_H-M "P 4/N B M"
_symmetry_group_IT_number 125
_space_group.IT_coordinate_system_code '2'
_symmetry_cell_setting 'tetragonal'
loop_
_space_group_symop_operation_xyz
x,y,z
1/2-y,x,z
1/2-x,1/2-y,z
y,1/2-x,z
x,1/2-y,-z
1/2-x,y,-z
y,x,-z
1/2-y,1/2-x,-z
-x,-y,-z
1/2+y,-x,-z
1/2+x,1/2+y,-z
-y,1/2+x,-z
-x,1/2+y,z
1/2+x,-y,z
-y,-x,z
1/2+y,1/2+x,z
loop_
_atom_site_type_symbol
_atom_site_label
_atom_site_fract_x
_atom_site_fract_y
_atom_site_fract_z
Si Si1 0.074503 0.796877 0.252636
Si Si2 0.911312 0.545474 0.584425
Si Si3 0.162082 0.531422 0.143115
Si Si4 0.078514 0.439199 0.759993
Si Si5 0.277779 0.904712 0.410553
Si Si6 0.887792 0.250000 0.000000
O O1 0.154166 0.845835 0.227184
O O2 0.069497 0.706514 0.220075
O O3 0.073668 0.792258 0.348475
O O4 0.996273 0.845462 0.221465
O O5 0.997393 0.497393 0.584348
O O6 0.905878 0.589610 0.669908
O O7 0.841447 0.477978 0.585662
O O8 0.907659 0.592342 0.500000
O O9 0.083304 0.583304 0.120684
O O10 0.128782 0.445142 0.174804
O O11 0.224596 0.552935 0.072513
O O12 0.000870 0.500870 0.756635
O O13 0.250000 0.889644 0.500000
O O14 0.324984 0.824984 0.380993
O O15 0.826031 0.173970 0.983178
#
# Coordination Sequence:
#
# PCOD9562958 Si02
#       6
#    16  16  16  16  16   8
#     4  11  21  32  51  78 105 137 177 221 273 327
#     4   9  16  29  47  65  93 138 183 216 255 313
#     4  10  19  35  55  77 108 143 178 217 267 329
#     4   9  18  33  50  72 102 139 181 219 257 313
#     4  11  21  31  44  71 108 143 177 221 281 337
#     4   9  18  32  54  84 114 145 178 216 274 345
#
# _framework density 19.346337999999999
#
# number of rings (size 3 to 8) (size 9 to 14) (size 15 to 20)
#    0.000    2.091    1.818    2.727    0.000    6.000 
#    0.000    0.909    0.000    4.909    0.000    0.000 
#    0.000    1.455    0.000    0.000    0.000    0.000 
#
# Total GULP energy -490137.428187 kJ/mol
# GULP energy per Si atom -5569.743502 kJ/mol
# Density = 1.930230 g / cm^3
# Si number density = 19.346338 Si / 1000 Ang^3
#
#
#
# Elastic Constant Matrix: (Units=GPa)
#
#
# Indices 1 2 3 4 5 6 
#
# 1 23.1780 36.0472 14.6690 0.0000 0.0000 0.0000
# 2 36.0472 23.1770 14.6691 0.0000 0.0000 0.0000
# 3 14.6690 14.6691 93.6886 0.0000 0.0000 0.0000
# 4 0.0000 0.0000 0.0000 16.7351 0.0000 0.0000
# 5 0.0000 0.0000 0.0000 0.0000 16.7351 0.0000
# 6 0.0000 0.0000 0.0000 0.0000 0.0000 14.6568
#
#
#
# Elastic Compliance Matrix: (Units=1/GPa)
#
#
# Indices 1 2 3 4 5 6 
#
# 1 -0.029698 0.048003 -0.002866 0.000000 0.000000 0.000000
# 2 0.048003 -0.029699 -0.002866 0.000000 0.000000 0.000000
# 3 -0.002866 -0.002866 0.011571 0.000000 0.000000 0.000000
# 4 0.000000 0.000000 0.000000 0.059755 0.000000 0.000000
# 5 0.000000 0.000000 0.000000 0.000000 0.059755 0.000000
# 6 0.000000 0.000000 0.000000 0.000000 0.000000 0.068228
#
#
# Mechanical properties :
#
#
# Convention : Reuss Voigt Hill
#
# Bulk Modulus (GPa) = 27.23583 30.09044 28.66314
# Shear Modulus (GPa) = 73.95676 14.60261 44.27968
#
# Velocity S-wave (km/s) = 6.18957 2.75034 4.78932
# Velocity P-wave (km/s) = 8.07401 5.06687 6.74028
#
# Compressibility (1/GPa) = 0.03671634
#
# Stress axis : x y z
#
# Youngs Moduli (GPa) = -33.67234 -33.67073 86.42201
#
# Poissons Ratio (x) = 1.61630 0.24770
# Poissons Ratio (y) = 1.61638 0.24767
# Poissons Ratio (z) = -0.09651 -0.09650
#
# Static dielectric constant tensor:
#      x y z
#    x 1.690010 0.000000 0.000000 
#    y 0.000000 1.690010 0.000000 
#    z 0.000000 0.000000 1.727630 
# 
# From -- ./inp_files/4858.got.cif
#   From: 2010.05.17/outbox.cif.g08.bks.cpg/sg125_3_cif.got.tgz:4858.got - 2010.05.20 11:54:10.
