data_PCOD9562030
_publ_section_title
;
Structure prediction by ZEFSAII (Michael W. Deem and Ramdas Pophale) SiO2 
 PCOD9562030
Probable space group: P 4/M M M
;
_chemical_formula_sum "Si O2"
_cell_formula_units_Z 120
_cell_length_a 22.544851
_cell_length_b 22.544851
_cell_length_c 13.982437
_cell_angle_alpha 90.000000
_cell_angle_beta 90.000000
_cell_angle_gamma 90.000000
_cell_volume 7106.857541
_symmetry_space_group_name_H-M "P 4/M M M"
_symmetry_group_IT_number 123
_symmetry_cell_setting 'tetragonal'
loop_
_space_group_symop_operation_xyz
x,y,z
-y,x,z
-x,-y,z
y,-x,z
x,-y,-z
-x,y,-z
y,x,-z
-y,-x,-z
-x,-y,-z
y,-x,-z
x,y,-z
-y,x,-z
-x,y,z
x,-y,z
-y,-x,z
y,x,z
loop_
_atom_site_type_symbol
_atom_site_label
_atom_site_fract_x
_atom_site_fract_y
_atom_site_fract_z
Si Si1 0.710741 0.892366 0.389316
Si Si2 0.105403 0.646193 0.199328
Si Si3 0.167624 0.069666 0.706975
Si Si4 0.663636 0.567398 0.885820
Si Si5 0.759010 0.666056 0.611808
Si Si6 0.430589 0.779889 0.760099
Si Si7 0.871902 0.775400 0.112222
Si Si8 0.431111 0.000000 0.114245
O O1 0.698005 0.908458 0.500000
O O2 0.667121 0.915674 0.305685
O O3 0.776965 0.911372 0.360134
O O4 0.701392 0.821289 0.379665
O O5 0.162686 0.604713 0.205509
O O6 0.123158 0.707014 0.144675
O O7 0.055765 0.607106 0.149192
O O8 0.111215 0.111215 0.686364
O O9 0.189456 0.085069 0.815080
O O10 0.156066 0.000000 0.696883
O O11 0.643450 0.500000 0.865717
O O12 0.615312 0.615312 0.854721
O O13 0.726046 0.576093 0.834020
O O14 0.671399 0.572628 0.000000
O O15 0.748883 0.657356 0.500000
O O16 0.707320 0.707320 0.653033
O O17 0.762325 0.603638 0.663901
O O18 0.500000 0.791837 0.746465
O O19 0.807463 0.807463 0.125315
O O20 0.887075 0.780827 0.000000
O O21 0.500000 0.000000 0.148665
O O22 0.433112 0.000000 0.000000
#
# Coordination Sequence:
#
# PCOD9562030 Si02
#       8
#    16  16  16  16  16  16  16   8
#     4   9  19  35  56  80 104 131 169 220 272 316
#     4  10  21  36  56  79 104 138 180 221 268 321
#     4  10  21  35  52  77 107 141 178 215 260 318
#     4   9  18  31  47  69  97 131 170 208 249 300
#     4   9  17  31  53  78 101 129 167 211 260 312
#     4  10  20  33  49  71 103 137 168 209 259 310
#     4   9  19  35  55  81 109 134 170 225 283 330
#     4  11  24  40  57  79 109 147 189 226 262 316
#
# _framework density 16.885100000000001
#
# number of rings (size 3 to 8) (size 9 to 14) (size 15 to 20)
#    0.000    2.467    0.000    1.600    3.733    6.667 
#    0.000    3.333    0.000    1.600    0.000    2.800 
#    0.000    0.000    0.000   12.400    0.000    0.133 
#
# Total GULP energy -668786.854392 kJ/mol
# GULP energy per Si atom -5573.223787 kJ/mol
# Density = 1.684667 g / cm^3
# Si number density = 16.885100 Si / 1000 Ang^3
#
#
#
# Elastic Constant Matrix: (Units=GPa)
#
#
# Indices 1 2 3 4 5 6 
#
# 1 98.0845 74.3403 31.7205 0.0000 0.0000 0.0000
# 2 74.3403 98.0845 31.7205 0.0000 0.0000 0.0000
# 3 31.7205 31.7205 72.3774 0.0000 0.0000 0.0000
# 4 0.0000 0.0000 0.0000 19.3726 0.0000 0.0000
# 5 0.0000 0.0000 0.0000 0.0000 19.3726 0.0000
# 6 0.0000 0.0000 0.0000 0.0000 0.0000 9.7290
#
#
#
# Elastic Compliance Matrix: (Units=1/GPa)
#
#
# Indices 1 2 3 4 5 6 
#
# 1 0.024515 -0.017600 -0.003030 0.000000 0.000000 0.000000
# 2 -0.017600 0.024515 -0.003030 0.000000 0.000000 0.000000
# 3 -0.003030 -0.003030 0.016473 0.000000 0.000000 0.000000
# 4 0.000000 0.000000 0.000000 0.051619 0.000000 0.000000
# 5 0.000000 0.000000 0.000000 0.000000 0.051619 0.000000
# 6 0.000000 0.000000 0.000000 0.000000 0.000000 0.102785
#
#
# Mechanical properties :
#
#
# Convention : Reuss Voigt Hill
#
# Bulk Modulus (GPa) = 55.00479 60.45655 57.73067
# Shear Modulus (GPa) = 15.38891 18.41253 16.90072
#
# Velocity S-wave (km/s) = 3.02220 3.30579 3.16717
# Velocity P-wave (km/s) = 6.69514 7.10306 6.90211
#
# Compressibility (1/GPa) = 0.01818023
#
# Stress axis : x y z
#
# Youngs Moduli (GPa) = 40.79124 40.79124 60.70638
#
# Poissons Ratio (x) = 0.71794 0.18397
# Poissons Ratio (y) = 0.71794 0.18397
# Poissons Ratio (z) = 0.12362 0.12362
#
# Static dielectric constant tensor:
#      x y z
#    x 1.563500 0.000000 0.000000 
#    y 0.000000 1.563500 0.000000 
#    z 0.000000 0.000000 1.580090 
# 
# From -- ./inp_files/4595.got.cif
#   From: 2010.05.17/outbox.cif.g08.bks.cpg/sg123_3_cif.got.tgz:4595.got - 2010.05.20 11:43:04.
