data_PCOD9562226
_publ_section_title
;
Structure prediction by ZEFSAII (Michael W. Deem and Ramdas Pophale) SiO2 
 PCOD9562226
Probable space group: P 4/M M M
;
_chemical_formula_sum "Si O2"
_cell_formula_units_Z 120
_cell_length_a 28.425148
_cell_length_b 28.425148
_cell_length_c 7.794451
_cell_angle_alpha 90.000000
_cell_angle_beta 90.000000
_cell_angle_gamma 90.000000
_cell_volume 6297.830972
_symmetry_space_group_name_H-M "P 4/M M M"
_symmetry_group_IT_number 123
_symmetry_cell_setting 'tetragonal'
loop_
_space_group_symop_operation_xyz
x,y,z
-y,x,z
-x,-y,z
y,-x,z
x,-y,-z
-x,y,-z
y,x,-z
-y,-x,-z
-x,-y,-z
y,-x,-z
x,y,-z
-y,x,-z
-x,y,z
x,-y,z
-y,-x,z
y,x,z
loop_
_atom_site_type_symbol
_atom_site_label
_atom_site_fract_x
_atom_site_fract_y
_atom_site_fract_z
Si Si1 0.873470 0.206306 0.303037
Si Si2 0.555151 0.366536 0.000000
Si Si3 0.444298 0.291370 0.702495
Si Si4 0.148261 0.308541 0.193189
Si Si5 0.552920 0.101112 0.709930
Si Si6 0.131384 0.054262 0.289780
Si Si7 0.645416 0.948643 0.292382
Si Si8 0.196194 0.398493 0.698067
O O1 0.884142 0.219514 0.500000
O O2 0.833871 0.166130 0.302380
O O3 0.852499 0.252952 0.220787
O O4 0.919521 0.179402 0.231924
O O5 0.563689 0.334618 0.830674
O O6 0.500000 0.379501 0.000000
O O7 0.589094 0.410907 0.000000
O O8 0.434265 0.301596 0.500000
O O9 0.500000 0.278931 0.712982
O O10 0.413700 0.246760 0.765867
O O11 0.094735 0.324225 0.227976
O O12 0.182072 0.343534 0.297539
O O13 0.161230 0.319383 0.000000
O O14 0.552529 0.102002 0.500000
O O15 0.500000 0.092879 0.768112
O O16 0.591614 0.062509 0.758003
O O17 0.573238 0.151416 0.771482
O O18 0.132236 0.055114 0.500000
O O19 0.086979 0.086979 0.238485
O O20 0.127900 0.000000 0.236186
O O21 0.647678 0.947705 0.500000
O O22 0.660474 0.000000 0.232928
O O23 0.198568 0.413383 0.500000
#
# Coordination Sequence:
#
# PCOD9562226 Si02
#       8
#    16   8  16  16  16  16  16  16
#     4   9  18  34  53  70  93 127 166 202 236 287
#     4  10  22  39  60  88 122 158 195 235 275 325
#     4   9  18  34  59  88 116 150 190 234 283 333
#     4  11  22  33  49  72  99 130 167 216 268 317
#     4   8  13  23  43  71  97 121 158 209 257 302
#     4   8  14  25  44  72 101 126 153 189 238 298
#     4   9  18  32  48  66  92 129 171 212 256 307
#     4   9  17  31  52  76 104 136 173 217 267 324
#
# _framework density 19.054178
#
# number of rings (size 3 to 8) (size 9 to 14) (size 15 to 20)
#    0.000    2.933    0.000    3.200    0.933    3.400 
#    0.000    4.000    0.000    4.400    0.000    5.600 
#    0.000    0.000    0.000    2.933    0.000    2.933 
#
# Total GULP energy -668488.059073 kJ/mol
# GULP energy per Si atom -5570.733826 kJ/mol
# Density = 1.901081 g / cm^3
# Si number density = 19.054178 Si / 1000 Ang^3
#
#
#
# Elastic Constant Matrix: (Units=GPa)
#
#
# Indices 1 2 3 4 5 6 
#
# 1 61.0097 26.8328 6.4270 0.0000 0.0000 0.0000
# 2 26.8328 61.0019 6.4264 0.0000 0.0000 0.0000
# 3 6.4270 6.4264 39.4194 0.0000 0.0000 0.0000
# 4 0.0000 0.0000 0.0000 -11.5720 0.0000 0.0000
# 5 0.0000 0.0000 0.0000 0.0000 -11.5891 0.0000
# 6 0.0000 0.0000 0.0000 0.0000 0.0000 14.6806
#
#
#
# Elastic Compliance Matrix: (Units=1/GPa)
#
#
# Indices 1 2 3 4 5 6 
#
# 1 0.020462 -0.008800 -0.001901 0.000000 0.000000 0.000000
# 2 -0.008800 0.020464 -0.001901 0.000000 0.000000 0.000000
# 3 -0.001901 -0.001901 0.025988 0.000000 0.000000 0.000000
# 4 0.000000 0.000000 0.000000 -0.086415 0.000000 0.000000
# 5 0.000000 0.000000 0.000000 0.000000 -0.086288 0.000000
# 6 0.000000 0.000000 0.000000 0.000000 0.000000 0.068117
#
#
# Mechanical properties :
#
#
# Convention : Reuss Voigt Hill
#
# Bulk Modulus (GPa) = 23.97622 26.75595 25.36609
# Shear Modulus (GPa) = 3481.40508 6.42021 1743.91265
#
# Velocity S-wave (km/s) = 42.79106 1.83760 30.28574
# Velocity P-wave (km/s) = 49.53831 4.30986 35.16119
#
# Compressibility (1/GPa) = 0.04170799
#
# Stress axis : x y z
#
# Youngs Moduli (GPa) = 48.87226 48.86602 38.47898
#
# Poissons Ratio (x) = 0.43002 0.07317
# Poissons Ratio (y) = 0.43008 0.07316
# Poissons Ratio (z) = 0.09293 0.09291
#
# Static dielectric constant tensor:
#      x y z
#    x 1.653310 0.000000 0.000000 
#    y 0.000000 1.653310 0.000000 
#    z 0.000000 0.000000 1.726700 
# 
# From -- ./inp_files/2001.got.cif
#   From: 2010.05.17/outbox.cif.g08.bks.cpg/sg123_2_cif.got.tgz:2001.got - 2010.05.20 11:43:04.
