data_PCOD9562378
_publ_section_title
;
Structure prediction by ZEFSAII (Michael W. Deem and Ramdas Pophale) SiO2 
 PCOD9562378
Probable space group: P 4/M C C
;
_chemical_formula_sum "Si O2"
_cell_formula_units_Z 84
_cell_length_a 15.073607
_cell_length_b 15.073607
_cell_length_c 20.841005
_cell_angle_alpha 90.000000
_cell_angle_beta 90.000000
_cell_angle_gamma 90.000000
_cell_volume 4735.360357
_symmetry_space_group_name_H-M "P 4/M C C"
_symmetry_group_IT_number 124
_symmetry_cell_setting 'tetragonal'
loop_
_space_group_symop_operation_xyz
x,y,z
-y,x,z
-x,-y,z
y,-x,z
x,-y,1/2-z
-x,y,1/2-z
y,x,1/2-z
-y,-x,1/2-z
-x,-y,-z
y,-x,-z
x,y,-z
-y,x,-z
-x,y,1/2+z
x,-y,1/2+z
-y,-x,1/2+z
y,x,1/2+z
loop_
_atom_site_type_symbol
_atom_site_label
_atom_site_fract_x
_atom_site_fract_y
_atom_site_fract_z
Si Si1 0.000000 0.271797 0.625298
Si Si2 0.327094 0.819288 0.173657
Si Si3 0.000000 0.849983 0.500000
Si Si4 0.699584 0.500000 0.173838
Si Si5 0.000000 0.851838 0.750000
Si Si6 0.672906 0.180713 0.673657
Si Si7 0.500000 0.500000 0.370417
O O1 1.000000 0.212306 0.562149
O O2 0.090545 0.326766 0.633417
O O3 0.909456 0.326766 0.633418
O O4 0.000000 0.206444 0.686505
O O5 0.412763 0.758265 0.162229
O O6 0.326623 0.840720 0.250000
O O7 0.239539 0.760462 0.160298
O O8 0.085443 0.914557 0.500000
O O9 0.673946 0.500000 0.250000
O O10 0.758265 0.412763 0.162228
O O11 0.609318 0.500000 0.134752
O O12 0.914394 0.914394 0.750000
#
# Coordination Sequence:
#
# PCOD9562378 Si02
#       7
#    16  16   8  16   8  16   4
#     4  12  22  36  55  80 117 149 187 238 290 348
#     4  10  19  32  51  80 114 155 194 232 286 343
#     4  11  24  40  58  81 108 150 206 257 290 329
#     4  10  19  29  52  81 119 159 192 231 285 350
#     4  11  20  32  54  79 104 146 188 227 278 335
#     4  10  19  32  51  80 114 155 194 232 286 343
#     4  12  17  32  52  88 128 161 186 237 292 341
#
# _framework density 17.738883000000001
#
# number of rings (size 3 to 8) (size 9 to 14) (size 15 to 20)
#    0.000    1.333    3.810    4.286    0.000    2.286 
#    0.000    2.857    0.000    2.286    0.000    0.000 
#    0.000    3.048    0.000    0.000    0.000    0.000 
#
# Total GULP energy -468197.287637 kJ/mol
# GULP energy per Si atom -5573.777234 kJ/mol
# Density = 1.769851 g / cm^3
# Si number density = 17.738883 Si / 1000 Ang^3
#
#
#
# Elastic Constant Matrix: (Units=GPa)
#
#
# Indices 1 2 3 4 5 6 
#
# 1 123.1489 33.1777 26.0882 0.0000 0.0000 0.0000
# 2 33.1777 123.1489 26.0882 0.0000 0.0000 0.0000
# 3 26.0882 26.0882 66.8338 0.0000 0.0000 0.0000
# 4 0.0000 0.0000 0.0000 0.8645 0.0000 0.0000
# 5 0.0000 0.0000 0.0000 0.0000 0.8645 0.0000
# 6 0.0000 0.0000 0.0000 0.0000 0.0000 289.6164
#
#
#
# Elastic Compliance Matrix: (Units=1/GPa)
#
#
# Indices 1 2 3 4 5 6 
#
# 1 0.009235 -0.001880 -0.002871 0.000000 0.000000 0.000000
# 2 -0.001880 0.009235 -0.002871 0.000000 0.000000 0.000000
# 3 -0.002871 -0.002871 0.017204 0.000000 0.000000 0.000000
# 4 0.000000 0.000000 0.000000 1.156742 0.000000 0.000000
# 5 0.000000 0.000000 0.000000 0.000000 1.156742 0.000000
# 6 0.000000 0.000000 0.000000 0.000000 0.000000 0.003453
#
#
# Mechanical properties :
#
#
# Convention : Reuss Voigt Hill
#
# Bulk Modulus (GPa) = 48.94768 53.75999 51.35384
# Shear Modulus (GPa) = 2.10556 73.45424 37.77990
#
# Velocity S-wave (km/s) = 1.09067 6.44193 4.61996
# Velocity P-wave (km/s) = 5.40735 9.25761 7.58099
#
# Compressibility (1/GPa) = 0.02042998
#
# Stress axis : x y z
#
# Youngs Moduli (GPa) = 108.28493 108.28493 58.12647
#
# Poissons Ratio (x) = 0.20355 0.16688
# Poissons Ratio (y) = 0.20355 0.16688
# Poissons Ratio (z) = 0.31089 0.31089
#
# Static dielectric constant tensor:
#      x y z
#    x 1.614890 0.000000 0.000000 
#    y 0.000000 1.614890 0.000000 
#    z 0.000000 0.000000 1.575110 
# 
# From -- ./inp_files/6020.got.cif
#   From: 2010.05.17/outbox.cif.g08.bks.cpg/sg124_4_cif.got.tgz:6020.got - 2010.05.20 11:49:17.
