data_PCOD9562532
_publ_section_title
;
Structure prediction by ZEFSAII (Michael W. Deem and Ramdas Pophale) SiO2 
 PCOD9562532
Probable space group: P 4/M C C
;
_chemical_formula_sum "Si O2"
_cell_formula_units_Z 80
_cell_length_a 15.393999
_cell_length_b 15.393999
_cell_length_c 14.874287
_cell_angle_alpha 90.000000
_cell_angle_beta 90.000000
_cell_angle_gamma 90.000000
_cell_volume 3524.837214
_symmetry_space_group_name_H-M "P 4/M C C"
_symmetry_group_IT_number 124
_symmetry_cell_setting 'tetragonal'
loop_
_space_group_symop_operation_xyz
x,y,z
-y,x,z
-x,-y,z
y,-x,z
x,-y,1/2-z
-x,y,1/2-z
y,x,1/2-z
-y,-x,1/2-z
-x,-y,-z
y,-x,-z
x,y,-z
-y,x,-z
-x,y,1/2+z
x,-y,1/2+z
-y,-x,1/2+z
y,x,1/2+z
loop_
_atom_site_type_symbol
_atom_site_label
_atom_site_fract_x
_atom_site_fract_y
_atom_site_fract_z
Si Si1 0.585295 0.054814 0.608711
Si Si2 0.902716 0.298973 0.392635
Si Si3 0.079479 0.114295 0.890337
Si Si4 0.728970 0.603306 0.858797
Si Si5 0.411522 0.259678 0.144859
O O1 0.582784 0.055292 0.500000
O O2 0.594307 0.155285 0.635041
O O3 0.500000 0.000000 0.638228
O O4 0.665450 0.995154 0.639795
O O5 0.911784 0.290644 0.500000
O O6 0.878196 0.203413 0.358045
O O7 0.827169 0.367605 0.377193
O O8 0.978248 0.116756 0.862406
O O9 0.083303 0.111381 0.000000
O O10 0.665051 0.679184 0.892470
O O11 0.713486 0.505796 0.892858
O O12 0.722957 0.593581 0.751334
#
# Coordination Sequence:
#
# PCOD9562532 Si02
#       5
#    16  16  16  16  16
#     4  10  20  36  58  85 115 143 180 234 294 348
#     4  10  20  33  53  84 114 146 188 235 288 344
#     4   8  15  28  46  72 108 146 184 222 266 330
#     4  10  22  39  58  82 113 151 196 242 290 351
#     4  10  22  40  59  83 113 149 195 242 293 351
#
# _framework density 22.696082000000001
#
# number of rings (size 3 to 8) (size 9 to 14) (size 15 to 20)
#    0.000    2.400    2.000    0.600    2.800    2.000 
#    0.000    2.000    0.000    0.000    0.000    2.800 
#    0.000    0.000    0.000    0.000    0.000    0.000 
#
# Total GULP energy -446419.146689 kJ/mol
# GULP energy per Si atom -5580.239334 kJ/mol
# Density = 2.264442 g / cm^3
# Si number density = 22.696082 Si / 1000 Ang^3
#
#
#
# Elastic Constant Matrix: (Units=GPa)
#
#
# Indices 1 2 3 4 5 6 
#
# 1 128.5264 48.5490 2.2111 0.0000 0.0000 0.0000
# 2 48.5490 128.5264 2.2111 0.0000 0.0000 0.0000
# 3 2.2111 2.2111 55.0399 0.0000 0.0000 0.0000
# 4 0.0000 0.0000 0.0000 15.3268 0.0000 0.0000
# 5 0.0000 0.0000 0.0000 0.0000 15.3268 0.0000
# 6 0.0000 0.0000 0.0000 0.0000 0.0000 28.6608
#
#
#
# Elastic Compliance Matrix: (Units=1/GPa)
#
#
# Indices 1 2 3 4 5 6 
#
# 1 0.009078 -0.003425 -0.000227 0.000000 0.000000 0.000000
# 2 -0.003425 0.009078 -0.000227 0.000000 0.000000 0.000000
# 3 -0.000227 -0.000227 0.018187 0.000000 0.000000 0.000000
# 4 0.000000 0.000000 0.000000 0.065245 0.000000 0.000000
# 5 0.000000 0.000000 0.000000 0.000000 0.065245 0.000000
# 6 0.000000 0.000000 0.000000 0.000000 0.000000 0.034891
#
#
# Mechanical properties :
#
#
# Convention : Reuss Voigt Hill
#
# Bulk Modulus (GPa) = 34.98407 46.44836 40.71621
# Shear Modulus (GPa) = 22.82981 29.13764 25.98372
#
# Velocity S-wave (km/s) = 3.17502 3.58693 3.38724
# Velocity P-wave (km/s) = 5.37481 6.13714 5.76858
#
# Compressibility (1/GPa) = 0.02858444
#
# Stress axis : x y z
#
# Youngs Moduli (GPa) = 110.15331 110.15331 54.98473
#
# Poissons Ratio (x) = 0.37731 0.01249
# Poissons Ratio (y) = 0.37731 0.01249
# Poissons Ratio (z) = 0.02502 0.02502
#
# Static dielectric constant tensor:
#      x y z
#    x 1.858180 0.000000 0.000000 
#    y 0.000000 1.858180 0.000000 
#    z 0.000000 0.000000 1.885740 
# 
# From -- ./inp_files/5113.got.cif
#   From: 2010.05.17/outbox.cif.g08.bks.cpg/sg124_3_cif.got.tgz:5113.got - 2010.05.20 11:49:17.
