data_PCOD9562531
_publ_section_title
;
Structure prediction by ZEFSAII (Michael W. Deem and Ramdas Pophale) SiO2 
 PCOD9562531
Probable space group: P 4/M C C
;
_chemical_formula_sum "Si O2"
_cell_formula_units_Z 120
_cell_length_a 21.104546
_cell_length_b 21.104546
_cell_length_c 14.659491
_cell_angle_alpha 90.000000
_cell_angle_beta 90.000000
_cell_angle_gamma 90.000000
_cell_volume 6529.364585
_symmetry_space_group_name_H-M "P 4/M C C"
_symmetry_group_IT_number 124
_symmetry_cell_setting 'tetragonal'
loop_
_space_group_symop_operation_xyz
x,y,z
-y,x,z
-x,-y,z
y,-x,z
x,-y,1/2-z
-x,y,1/2-z
y,x,1/2-z
-y,-x,1/2-z
-x,-y,-z
y,-x,-z
x,y,-z
-y,x,-z
-x,y,1/2+z
x,-y,1/2+z
-y,-x,1/2+z
y,x,1/2+z
loop_
_atom_site_type_symbol
_atom_site_label
_atom_site_fract_x
_atom_site_fract_y
_atom_site_fract_z
Si Si1 0.589058 0.821044 0.394828
Si Si2 0.107956 0.003328 0.000000
Si Si3 0.490184 0.601979 0.110711
Si Si4 0.473387 0.741010 0.391384
Si Si5 0.913071 0.691751 0.897802
Si Si6 0.753248 0.150318 0.720401
Si Si7 0.978836 0.218379 0.145468
Si Si8 0.748441 0.650238 0.729670
O O1 0.598261 0.800797 0.500000
O O2 0.516836 0.802686 0.373529
O O3 0.617951 0.892088 0.388273
O O4 0.628863 0.779027 0.325083
O O5 0.063299 0.940632 0.000000
O O6 0.156756 0.005871 0.085233
O O7 0.432868 0.555703 0.139562
O O8 0.490558 0.675755 0.136847
O O9 0.488711 0.601012 0.000000
O O10 0.461823 0.736984 0.500000
O O11 0.408767 0.744901 0.336894
O O12 0.878880 0.725216 0.813509
O O13 0.983649 0.719060 0.888760
O O14 0.891054 0.710363 0.000000
O O15 0.818553 0.181448 0.750000
O O16 0.765245 0.095195 0.648561
O O17 0.705123 0.205437 0.690172
O O18 0.000000 0.206473 0.250000
O O19 0.681245 0.681245 0.750000
#
# Coordination Sequence:
#
# PCOD9562531 Si02
#       8
#    16   8  16  16  16  16  16  16
#     4   9  19  35  56  75 103 142 187 232 287 342
#     4  11  26  40  54  86 124 157 198 236 276 339
#     4   8  15  28  46  68  98 137 181 224 266 326
#     4  10  20  33  53  80 109 147 183 229 293 348
#     4   9  17  34  56  81 103 138 190 235 276 334
#     4   9  20  36  54  80 112 147 186 234 283 333
#     4  10  21  36  61  84 112 153 192 234 282 333
#     4  10  21  36  52  79 113 142 185 238 286 341
#
# _framework density 18.378512000000001
#
# number of rings (size 3 to 8) (size 9 to 14) (size 15 to 20)
#    0.000    2.600    0.667    0.800    5.600    0.533 
#    1.200    2.000    0.000    0.800    0.000    7.467 
#    0.000    0.000    0.000    0.000    0.000    0.000 
#
# Total GULP energy -668076.679959 kJ/mol
# GULP energy per Si atom -5567.305666 kJ/mol
# Density = 1.833668 g / cm^3
# Si number density = 18.378512 Si / 1000 Ang^3
#
#
#
# Elastic Constant Matrix: (Units=GPa)
#
#
# Indices 1 2 3 4 5 6 
#
# 1 104.0420 60.5682 22.0611 0.0000 0.0000 0.0000
# 2 60.5682 104.0431 22.0606 0.0000 0.0000 0.0000
# 3 22.0611 22.0606 59.3223 0.0000 0.0000 0.0000
# 4 0.0000 0.0000 0.0000 5.6424 0.0000 0.0000
# 5 0.0000 0.0000 0.0000 0.0000 5.5996 0.0000
# 6 0.0000 0.0000 0.0000 0.0000 0.0000 25.4497
#
#
#
# Elastic Compliance Matrix: (Units=1/GPa)
#
#
# Indices 1 2 3 4 5 6 
#
# 1 0.014875 -0.008127 -0.002509 0.000000 0.000000 0.000000
# 2 -0.008127 0.014875 -0.002509 0.000000 0.000000 0.000000
# 3 -0.002509 -0.002509 0.018723 0.000000 0.000000 0.000000
# 4 0.000000 0.000000 0.000000 0.177231 0.000000 0.000000
# 5 0.000000 0.000000 0.000000 0.000000 0.178586 0.000000
# 6 0.000000 0.000000 0.000000 0.000000 0.000000 0.039293
#
#
# Mechanical properties :
#
#
# Convention : Reuss Voigt Hill
#
# Bulk Modulus (GPa) = 45.08300 52.97635 49.02968
# Shear Modulus (GPa) = 10.47629 18.18616 14.33122
#
# Velocity S-wave (km/s) = 2.39012 3.14910 2.79549
# Velocity P-wave (km/s) = 5.67454 6.48923 6.09551
#
# Compressibility (1/GPa) = 0.02218131
#
# Stress axis : x y z
#
# Youngs Moduli (GPa) = 67.22728 67.22832 53.40914
#
# Poissons Ratio (x) = 0.54638 0.13403
# Poissons Ratio (y) = 0.54638 0.13401
# Poissons Ratio (z) = 0.16870 0.16868
#
# Static dielectric constant tensor:
#      x y z
#    x 1.655690 0.000000 0.000000 
#    y 0.000000 1.655690 0.000000 
#    z 0.000000 0.000000 1.683910 
# 
# From -- ./inp_files/3481.got.cif
#   From: 2010.05.17/outbox.cif.g08.bks.cpg/sg124_2_cif.got.tgz:3481.got - 2010.05.20 11:49:17.
