data_PCOD9562896
_publ_section_title
;
Structure prediction by ZEFSAII (Michael W. Deem and Ramdas Pophale) SiO2 
 PCOD9562896
Probable space group: P 4/N B M
;
_chemical_formula_sum "Si O2"
_cell_formula_units_Z 88
_cell_length_a 14.765221
_cell_length_b 14.765221
_cell_length_c 21.829158
_cell_angle_alpha 90.000000
_cell_angle_beta 90.000000
_cell_angle_gamma 90.000000
_cell_volume 4759.012962
_symmetry_space_group_name_H-M "P 4/N B M"
_symmetry_group_IT_number 125
_space_group.IT_coordinate_system_code '2'
_symmetry_cell_setting 'tetragonal'
loop_
_space_group_symop_operation_xyz
x,y,z
1/2-y,x,z
1/2-x,1/2-y,z
y,1/2-x,z
x,1/2-y,-z
1/2-x,y,-z
y,x,-z
1/2-y,1/2-x,-z
-x,-y,-z
1/2+y,-x,-z
1/2+x,1/2+y,-z
-y,1/2+x,-z
-x,1/2+y,z
1/2+x,-y,z
-y,-x,z
1/2+y,1/2+x,z
loop_
_atom_site_type_symbol
_atom_site_label
_atom_site_fract_x
_atom_site_fract_y
_atom_site_fract_z
Si Si1 0.186777 0.111185 0.645859
Si Si2 0.312542 0.111453 0.215382
Si Si3 0.796591 0.450307 0.868272
Si Si4 0.705236 0.447867 0.434879
Si Si5 0.171886 0.671886 0.789037
Si Si6 0.827602 0.172399 0.648887
Si Si7 0.250000 0.903221 0.000000
O O1 0.293522 0.135190 0.639243
O O2 0.171788 0.076889 0.715335
O O3 0.162689 0.035902 0.596586
O O4 0.364579 0.206142 0.209778
O O5 0.334737 0.039221 0.163841
O O6 0.872987 0.372987 0.868883
O O7 0.715581 0.411054 0.826057
O O8 0.764218 0.459454 0.938129
O O9 0.750000 0.468082 0.500000
O O10 0.631075 0.368926 0.442795
O O11 0.782069 0.408994 0.388749
O O12 0.250000 0.750000 0.787830
O O13 0.148755 0.648755 0.718867
O O14 0.750000 0.250000 0.651756
O O15 0.335660 0.835660 0.991118
#
# Coordination Sequence:
#
# PCOD9562896 Si02
#       7
#    16  16  16  16   8   8   8
#     4   9  20  40  61  79 104 143 187 232 281 328
#     4   9  19  38  59  77 106 146 184 227 283 335
#     4  10  18  31  54  82 112 140 181 226 273 320
#     4  11  21  36  56  80 112 147 180 217 273 335
#     4   9  16  28  48  80 104 132 176 225 271 315
#     4   9  18  30  50  73 107 142 174 214 270 325
#     4   9  16  30  50  77 114 156 180 213 270 336
#
# _framework density 18.491228
#
# number of rings (size 3 to 8) (size 9 to 14) (size 15 to 20)
#    0.000    2.455    1.818    2.182    0.000    2.909 
#    3.273    2.727    0.000    3.273    0.000    0.000 
#    0.000    0.000    0.000    0.000    0.000    0.000 
#
# Total GULP energy -490943.990112 kJ/mol
# GULP energy per Si atom -5578.908979 kJ/mol
# Density = 1.844914 g / cm^3
# Si number density = 18.491228 Si / 1000 Ang^3
#
#
#
# Elastic Constant Matrix: (Units=GPa)
#
#
# Indices 1 2 3 4 5 6 
#
# 1 34.2613 -20.8610 19.7907 0.0000 0.0000 0.0000
# 2 -20.8610 34.2613 19.7907 0.0000 0.0000 0.0000
# 3 19.7907 19.7907 135.7983 0.0000 0.0000 0.0000
# 4 0.0000 0.0000 0.0000 18.1580 0.0000 0.0000
# 5 0.0000 0.0000 0.0000 0.0000 18.1580 0.0000
# 6 0.0000 0.0000 0.0000 0.0000 0.0000 1.8305
#
#
#
# Elastic Compliance Matrix: (Units=1/GPa)
#
#
# Indices 1 2 3 4 5 6 
#
# 1 0.074586 0.056444 -0.019096 0.000000 0.000000 0.000000
# 2 0.056444 0.074586 -0.019096 0.000000 0.000000 0.000000
# 3 -0.019096 -0.019096 0.012930 0.000000 0.000000 0.000000
# 4 0.000000 0.000000 0.000000 0.055072 0.000000 0.000000
# 5 0.000000 0.000000 0.000000 0.000000 0.055072 0.000000
# 6 0.000000 0.000000 0.000000 0.000000 0.000000 0.546291
#
#
# Mechanical properties :
#
#
# Convention : Reuss Voigt Hill
#
# Bulk Modulus (GPa) = 5.03509 26.86243 15.94876
# Shear Modulus (GPa) = 5.89460 20.00266 12.94863
#
# Velocity S-wave (km/s) = 1.78737 3.29255 2.64911
# Velocity P-wave (km/s) = 2.64357 5.38638 4.24274
#
# Compressibility (1/GPa) = 0.19860615
#
# Stress axis : x y z
#
# Youngs Moduli (GPa) = 13.40741 13.40741 77.34090
#
# Poissons Ratio (x) = -0.75677 1.47689
# Poissons Ratio (y) = -0.75677 1.47689
# Poissons Ratio (z) = 0.25603 0.25603
#
# Static dielectric constant tensor:
#      x y z
#    x 1.630520 0.000000 0.000000 
#    y 0.000000 1.630520 0.000000 
#    z 0.000000 0.000000 1.632330 
# 
# From -- ./inp_files/5873.got.cif
#   From: 2010.05.17/outbox.cif.g08.bks.cpg/sg125_3_cif.got.tgz:5873.got - 2010.05.20 11:54:10.
