data_PCOD9562603
_publ_section_title
;
Structure prediction by ZEFSAII (Michael W. Deem and Ramdas Pophale) SiO2 
 PCOD9562603
Probable space group: P 4/M C C
;
_chemical_formula_sum "Si O2"
_cell_formula_units_Z 112
_cell_length_a 15.272056
_cell_length_b 15.272056
_cell_length_c 23.075012
_cell_angle_alpha 90.000000
_cell_angle_beta 90.000000
_cell_angle_gamma 90.000000
_cell_volume 5381.916449
_symmetry_space_group_name_H-M "P 4/M C C"
_symmetry_group_IT_number 124
_symmetry_cell_setting 'tetragonal'
loop_
_space_group_symop_operation_xyz
x,y,z
-y,x,z
-x,-y,z
y,-x,z
x,-y,1/2-z
-x,y,1/2-z
y,x,1/2-z
-y,-x,1/2-z
-x,-y,-z
y,-x,-z
x,y,-z
-y,x,-z
-x,y,1/2+z
x,-y,1/2+z
-y,-x,1/2+z
y,x,1/2+z
loop_
_atom_site_type_symbol
_atom_site_label
_atom_site_fract_x
_atom_site_fract_y
_atom_site_fract_z
Si Si1 0.122868 0.661601 0.296630
Si Si2 0.221274 0.222911 0.119665
Si Si3 0.802662 0.509674 0.347845
Si Si4 0.440517 0.374627 0.169648
Si Si5 0.072137 0.341255 0.662577
Si Si6 0.118220 0.073181 0.569311
Si Si7 0.315359 0.390853 0.068333
O O1 0.191108 0.732815 0.320287
O O2 0.167783 0.568065 0.306497
O O3 0.097895 0.670377 0.230066
O O4 0.033039 0.664084 0.335067
O O5 0.272982 0.132617 0.128194
O O6 0.131350 0.198209 0.088352
O O7 0.274184 0.295722 0.083671
O O8 0.727945 0.574185 0.321177
O O9 0.888862 0.566149 0.359552
O O10 0.750747 0.460867 0.400571
O O11 0.540381 0.388525 0.191369
O O12 0.408681 0.389750 0.102201
O O13 0.115940 0.071200 0.500000
O O14 0.026665 0.115640 0.589940
O O15 0.322669 0.404529 0.000000
#
# Coordination Sequence:
#
# PCOD9562603 Si02
#       7
#    16  16  16  16  16  16  16
#     4  10  23  37  61  84 114 149 196 247 295 354
#     4  11  20  36  56  85 116 150 187 245 292 349
#     4  10  20  37  58  84 113 149 191 241 284 338
#     4   9  18  34  54  81 113 147 186 228 278 329
#     4  11  21  39  59  86 111 153 198 240 299 355
#     4   9  18  33  54  80 111 150 193 234 284 350
#     4  10  21  36  56  86 120 153 191 235 283 343
#
# _framework density 20.810428999999999
#
# number of rings (size 3 to 8) (size 9 to 14) (size 15 to 20)
#    0.000    2.000    1.429    3.000    0.000    3.429 
#    0.000    2.857    0.000    8.571    0.000   10.000 
#    0.000    0.000    0.000    0.000    0.000    0.000 
#
# Total GULP energy -623793.563428 kJ/mol
# GULP energy per Si atom -5569.585388 kJ/mol
# Density = 2.076306 g / cm^3
# Si number density = 20.810429 Si / 1000 Ang^3
#
#
#
# Elastic Constant Matrix: (Units=GPa)
#
#
# Indices 1 2 3 4 5 6 
#
# 1 76.8828 16.2587 6.9407 0.0000 0.0000 0.0000
# 2 16.2587 76.8828 6.9407 0.0000 0.0000 0.0000
# 3 6.9407 6.9407 51.5519 0.0000 0.0000 0.0000
# 4 0.0000 0.0000 0.0000 20.7617 0.0000 0.0000
# 5 0.0000 0.0000 0.0000 0.0000 20.7617 0.0000
# 6 0.0000 0.0000 0.0000 0.0000 0.0000 40.6641
#
#
#
# Elastic Compliance Matrix: (Units=1/GPa)
#
#
# Indices 1 2 3 4 5 6 
#
# 1 0.013726 -0.002769 -0.001475 0.000000 0.000000 0.000000
# 2 -0.002769 0.013726 -0.001475 0.000000 0.000000 0.000000
# 3 -0.001475 -0.001475 0.019795 0.000000 0.000000 0.000000
# 4 0.000000 0.000000 0.000000 0.048166 0.000000 0.000000
# 5 0.000000 0.000000 0.000000 0.000000 0.048166 0.000000
# 6 0.000000 0.000000 0.000000 0.000000 0.000000 0.024592
#
#
# Mechanical properties :
#
#
# Convention : Reuss Voigt Hill
#
# Bulk Modulus (GPa) = 27.92740 29.51087 28.71913
# Shear Modulus (GPa) = 26.10363 28.11600 27.10982
#
# Velocity S-wave (km/s) = 3.54553 3.67966 3.61321
# Velocity P-wave (km/s) = 5.49637 5.68021 5.58904
#
# Compressibility (1/GPa) = 0.03580713
#
# Stress axis : x y z
#
# Youngs Moduli (GPa) = 72.85636 72.85636 50.51752
#
# Poissons Ratio (x) = 0.20177 0.07452
# Poissons Ratio (y) = 0.20177 0.07452
# Poissons Ratio (z) = 0.10747 0.10747
#
# Static dielectric constant tensor:
#      x y z
#    x 1.772940 0.000000 0.000000 
#    y 0.000000 1.772940 0.000000 
#    z 0.000000 0.000000 1.759720 
# 
# From -- ./inp_files/6101.got.cif
#   From: 2010.05.17/outbox.cif.g08.bks.cpg/sg124_4_cif.got.tgz:6101.got - 2010.05.20 11:49:17.
