data_PCOD9562854
_publ_section_title
;
Structure prediction by ZEFSAII (Michael W. Deem and Ramdas Pophale) SiO2 
 PCOD9562854
Probable space group: P 4/M C C
;
_chemical_formula_sum "Si O2"
_cell_formula_units_Z 48
_cell_length_a 12.771395
_cell_length_b 12.771395
_cell_length_c 14.514012
_cell_angle_alpha 90.000000
_cell_angle_beta 90.000000
_cell_angle_gamma 90.000000
_cell_volume 2367.359165
_symmetry_space_group_name_H-M "P 4/M C C"
_symmetry_group_IT_number 124
_symmetry_cell_setting 'tetragonal'
loop_
_space_group_symop_operation_xyz
x,y,z
-y,x,z
-x,-y,z
y,-x,z
x,-y,1/2-z
-x,y,1/2-z
y,x,1/2-z
-y,-x,1/2-z
-x,-y,-z
y,-x,-z
x,y,-z
-y,x,-z
-x,y,1/2+z
x,-y,1/2+z
-y,-x,1/2+z
y,x,1/2+z
loop_
_atom_site_type_symbol
_atom_site_label
_atom_site_fract_x
_atom_site_fract_y
_atom_site_fract_z
Si Si1 0.904677 0.852410 0.607236
Si Si2 0.663943 0.125339 0.263670
Si Si3 0.126707 0.477160 0.894925
O O1 0.888246 0.823795 0.500000
O O2 0.859977 0.769046 0.677772
O O3 0.030473 0.861125 0.621499
O O4 0.628003 0.158121 0.160890
O O5 0.573409 0.164892 0.332693
O O6 0.656050 0.000000 0.250000
O O7 0.000000 0.500000 0.897722
O O8 0.162092 0.475007 0.000000
#
# Coordination Sequence:
#
# PCOD9562854 Si02
#       3
#    16  16  16
#     4   9  18  31  44  58  80 115 158 197 226 252
#     4   9  16  25  41  61  78 101 134 178 227 268
#     4   8  14  25  41  61  80  96 123 170 228 281
#
# _framework density 20.275758
#
# number of rings (size 3 to 8) (size 9 to 14) (size 15 to 20)
#    0.000    3.333    0.000    4.000    0.000    2.667 
#    0.000    1.667    0.000    2.000    0.000    2.333 
#    0.000    0.000    0.000    0.000    0.000   26.667 
#
# Total GULP energy -267295.615578 kJ/mol
# GULP energy per Si atom -5568.658658 kJ/mol
# Density = 2.022961 g / cm^3
# Si number density = 20.275758 Si / 1000 Ang^3
#
#
#
# Elastic Constant Matrix: (Units=GPa)
#
#
# Indices 1 2 3 4 5 6 
#
# 1 70.6402 14.5096 63.3127 0.0000 0.0000 0.0000
# 2 14.5096 70.6402 63.3127 0.0000 0.0000 0.0000
# 3 63.3127 63.3127 216.6299 0.0000 0.0000 0.0000
# 4 0.0000 0.0000 0.0000 18.9744 0.0000 0.0000
# 5 0.0000 0.0000 0.0000 0.0000 18.9744 0.0000
# 6 0.0000 0.0000 0.0000 0.0000 0.0000 3.6073
#
#
#
# Elastic Compliance Matrix: (Units=1/GPa)
#
#
# Indices 1 2 3 4 5 6 
#
# 1 0.019294 0.001478 -0.006071 0.000000 0.000000 0.000000
# 2 0.001478 0.019294 -0.006071 0.000000 0.000000 0.000000
# 3 -0.006071 -0.006071 0.008165 0.000000 0.000000 0.000000
# 4 0.000000 0.000000 0.000000 0.052703 0.000000 0.000000
# 5 0.000000 0.000000 0.000000 0.000000 0.052703 0.000000
# 6 0.000000 0.000000 0.000000 0.000000 0.000000 0.277219
#
#
# Mechanical properties :
#
#
# Convention : Reuss Voigt Hill
#
# Bulk Modulus (GPa) = 39.33112 71.13113 55.23113
# Shear Modulus (GPa) = 10.88901 22.76288 16.82595
#
# Velocity S-wave (km/s) = 2.31994 3.35425 2.88385
# Velocity P-wave (km/s) = 5.15911 7.08233 6.19580
#
# Compressibility (1/GPa) = 0.02542516
#
# Stress axis : x y z
#
# Youngs Moduli (GPa) = 51.83029 51.83029 122.47820
#
# Poissons Ratio (x) = -0.07661 0.74355
# Poissons Ratio (y) = -0.07661 0.74355
# Poissons Ratio (z) = 0.31465 0.31465
#
# Static dielectric constant tensor:
#      x y z
#    x 1.788670 0.000000 0.000000 
#    y 0.000000 1.788670 0.000000 
#    z 0.000000 0.000000 1.748880 
# 
# From -- ./inp_files/2770.got.cif
#   From: 2010.05.17/outbox.cif.g08.bks.cpg/sg124_2_cif.got.tgz:2770.got - 2010.05.20 11:49:17.
