data_PCOD9562063
_publ_section_title
;
Structure prediction by ZEFSAII (Michael W. Deem and Ramdas Pophale) SiO2 
 PCOD9562063
Probable space group: P 4/M M M
;
_chemical_formula_sum "Si O2"
_cell_formula_units_Z 96
_cell_length_a 25.127707
_cell_length_b 25.127707
_cell_length_c 8.862071
_cell_angle_alpha 90.000000
_cell_angle_beta 90.000000
_cell_angle_gamma 90.000000
_cell_volume 5595.526332
_symmetry_space_group_name_H-M "P 4/M M M"
_symmetry_group_IT_number 123
_symmetry_cell_setting 'tetragonal'
loop_
_space_group_symop_operation_xyz
x,y,z
-y,x,z
-x,-y,z
y,-x,z
x,-y,-z
-x,y,-z
y,x,-z
-y,-x,-z
-x,-y,-z
y,-x,-z
x,y,-z
-y,x,-z
-x,y,z
x,-y,z
-y,-x,z
y,x,z
loop_
_atom_site_type_symbol
_atom_site_label
_atom_site_fract_x
_atom_site_fract_y
_atom_site_fract_z
Si Si1 0.644010 0.270417 0.179509
Si Si2 0.000000 0.241356 0.817123
Si Si3 0.437116 0.909219 0.819022
Si Si4 0.204958 0.436891 0.327208
Si Si5 0.887242 0.800942 0.818711
Si Si6 0.188716 0.279068 0.669542
Si Si7 0.000000 0.638545 0.681487
O O1 0.677963 0.322038 0.228986
O O2 0.588354 0.257851 0.256142
O O3 0.677173 0.218757 0.233102
O O4 0.640011 0.271793 0.000000
O O5 0.948365 0.206425 0.775131
O O6 0.000000 0.300743 0.745373
O O7 0.000000 0.248478 0.000000
O O8 0.500000 0.920523 0.781042
O O9 0.425183 0.849079 0.765198
O O10 0.395871 0.949488 0.741088
O O11 0.432214 0.913419 0.000000
O O12 0.198804 0.418844 0.500000
O O13 0.209899 0.500000 0.326569
O O14 0.852480 0.852480 0.767567
O O15 0.859563 0.747996 0.754916
O O16 0.884049 0.800490 0.000000
O O17 0.174888 0.296408 0.500000
O O18 0.232173 0.232173 0.656911
O O19 0.000000 0.640309 0.500000
#
# Coordination Sequence:
#
# PCOD9562063 Si02
#       7
#    16   8  16  16  16  16   8
#     4  10  20  33  51  75 103 137 176 215 257 308
#     4  10  22  37  53  75 102 131 164 207 260 313
#     4  10  21  38  58  76  98 135 179 219 261 309
#     4  10  21  36  54  77 105 138 177 220 265 310
#     4   9  18  34  54  73  96 128 164 201 248 310
#     4   9  17  29  47  71  98 128 161 201 250 300
#     4  12  25  37  52  75 105 135 169 219 264 305
#
# _framework density 17.156563999999999
#
# number of rings (size 3 to 8) (size 9 to 14) (size 15 to 20)
#    0.000    2.167    0.000    3.000    2.333    6.667 
#    0.000    0.000    0.000    0.250    0.000    1.750 
#    0.000    0.333    0.000    8.583    0.000    7.833 
#
# Total GULP energy -535151.722830 kJ/mol
# GULP energy per Si atom -5574.497113 kJ/mol
# Density = 1.711751 g / cm^3
# Si number density = 17.156564 Si / 1000 Ang^3
#
#
#
# Elastic Constant Matrix: (Units=GPa)
#
#
# Indices 1 2 3 4 5 6 
#
# 1 79.6486 37.0062 26.2785 0.0000 0.0000 0.0000
# 2 37.0062 79.6486 26.2785 0.0000 0.0000 0.0000
# 3 26.2785 26.2785 54.1825 0.0000 0.0000 0.0000
# 4 0.0000 0.0000 0.0000 17.8236 0.0000 0.0000
# 5 0.0000 0.0000 0.0000 0.0000 17.8236 0.0000
# 6 0.0000 0.0000 0.0000 0.0000 0.0000 28.8917
#
#
#
# Elastic Compliance Matrix: (Units=1/GPa)
#
#
# Indices 1 2 3 4 5 6 
#
# 1 0.017210 -0.006241 -0.005320 0.000000 0.000000 0.000000
# 2 -0.006241 0.017210 -0.005320 0.000000 0.000000 0.000000
# 3 -0.005320 -0.005320 0.023617 0.000000 0.000000 0.000000
# 4 0.000000 0.000000 0.000000 0.056105 0.000000 0.000000
# 5 0.000000 0.000000 0.000000 0.000000 0.056105 0.000000
# 6 0.000000 0.000000 0.000000 0.000000 0.000000 0.034612
#
#
# Mechanical properties :
#
#
# Convention : Reuss Voigt Hill
#
# Bulk Modulus (GPa) = 41.19511 43.62292 42.40902
# Shear Modulus (GPa) = 20.26651 21.16890 20.71770
#
# Velocity S-wave (km/s) = 3.44069 3.51645 3.47878
# Velocity P-wave (km/s) = 6.31252 6.47834 6.39596
#
# Compressibility (1/GPa) = 0.02427473
#
# Stress axis : x y z
#
# Youngs Moduli (GPa) = 58.10576 58.10576 42.34317
#
# Poissons Ratio (x) = 0.36263 0.22527
# Poissons Ratio (y) = 0.36263 0.22527
# Poissons Ratio (z) = 0.30912 0.30912
#
# Static dielectric constant tensor:
#      x y z
#    x 1.613120 0.000000 0.000000 
#    y 0.000000 1.613120 0.000000 
#    z 0.000000 0.000000 1.587730 
# 
# From -- ./inp_files/1688.got.cif
#   From: 2010.05.17/outbox.cif.g08.bks.cpg/sg123_1_cif.got.tgz:1688.got - 2010.05.20 11:43:04.
