data_PCOD9562837
_publ_section_title
;
Structure prediction by ZEFSAII (Michael W. Deem and Ramdas Pophale) SiO2 
 PCOD9562837
Probable space group: P 4/M C C
;
_chemical_formula_sum "Si O2"
_cell_formula_units_Z 40
_cell_length_a 15.080985
_cell_length_b 15.080985
_cell_length_c 7.911850
_cell_angle_alpha 90.000000
_cell_angle_beta 90.000000
_cell_angle_gamma 90.000000
_cell_volume 1799.440376
_symmetry_space_group_name_H-M "P 4/M C C"
_symmetry_group_IT_number 124
_symmetry_cell_setting 'tetragonal'
loop_
_space_group_symop_operation_xyz
x,y,z
-y,x,z
-x,-y,z
y,-x,z
x,-y,1/2-z
-x,y,1/2-z
y,x,1/2-z
-y,-x,1/2-z
-x,-y,-z
y,-x,-z
x,y,-z
-y,x,-z
-x,y,1/2+z
x,-y,1/2+z
-y,-x,1/2+z
y,x,1/2+z
loop_
_atom_site_type_symbol
_atom_site_label
_atom_site_fract_x
_atom_site_fract_y
_atom_site_fract_z
Si Si1 0.782790 0.408383 0.298502
Si Si2 0.638078 0.561790 0.500000
Si Si3 0.101992 0.240239 0.301338
O O1 0.832398 0.500000 0.250000
O O2 0.766017 0.409285 0.500000
O O3 0.700541 0.413923 0.162174
O O4 0.839566 0.320830 0.270007
O O5 0.541453 0.607669 0.500000
O O6 0.148763 0.148763 0.250000
O O7 0.107739 0.248600 0.500000
O O8 0.000000 0.244855 0.250000
#
# Coordination Sequence:
#
# PCOD9562837 Si02
#       3
#    16   8  16
#     4  12  26  48  77 109 152 208 262 323 388 463
#     4  11  28  50  74 111 157 210 270 329 389 458
#     4  12  27  51  81 118 154 199 254 317 392 469
#
# _framework density 22.229134999999999
#
# number of rings (size 3 to 8) (size 9 to 14) (size 15 to 20)
#    0.000    0.200    4.000    3.600    5.600    2.800 
#    0.000   10.000    0.000    0.000    0.000    0.000 
#    0.000    0.000    0.000    0.000    0.000    0.000 
#
# Total GULP energy -223572.890525 kJ/mol
# GULP energy per Si atom -5589.322263 kJ/mol
# Density = 2.217854 g / cm^3
# Si number density = 22.229135 Si / 1000 Ang^3
#
#
#
# Elastic Constant Matrix: (Units=GPa)
#
#
# Indices 1 2 3 4 5 6 
#
# 1 162.1059 93.9478 73.3587 0.0000 0.0000 0.0000
# 2 93.9478 162.1059 73.3587 0.0000 0.0000 0.0000
# 3 73.3587 73.3587 234.1439 0.0000 0.0000 0.0000
# 4 0.0000 0.0000 0.0000 43.1759 0.0000 0.0000
# 5 0.0000 0.0000 0.0000 0.0000 43.1759 0.0000
# 6 0.0000 0.0000 0.0000 0.0000 0.0000 19.8953
#
#
#
# Elastic Compliance Matrix: (Units=1/GPa)
#
#
# Indices 1 2 3 4 5 6 
#
# 1 0.009716 -0.004956 -0.001491 0.000000 0.000000 0.000000
# 2 -0.004956 0.009716 -0.001491 0.000000 0.000000 0.000000
# 3 -0.001491 -0.001491 0.005205 0.000000 0.000000 0.000000
# 4 0.000000 0.000000 0.000000 0.023161 0.000000 0.000000
# 5 0.000000 0.000000 0.000000 0.000000 0.023161 0.000000
# 6 0.000000 0.000000 0.000000 0.000000 0.000000 0.050263
#
#
# Mechanical properties :
#
#
# Convention : Reuss Voigt Hill
#
# Bulk Modulus (GPa) = 114.15561 115.52069 114.83815
# Shear Modulus (GPa) = 35.70932 42.42877 39.06905
#
# Velocity S-wave (km/s) = 4.01236 4.37361 4.19687
# Velocity P-wave (km/s) = 8.53996 8.80827 8.67515
#
# Compressibility (1/GPa) = 0.00875997
#
# Stress axis : x y z
#
# Youngs Moduli (GPa) = 102.92454 102.92454 192.10975
#
# Poissons Ratio (x) = 0.51008 0.28650
# Poissons Ratio (y) = 0.51008 0.28650
# Poissons Ratio (z) = 0.15349 0.15349
#
# Static dielectric constant tensor:
#      x y z
#    x 1.639570 0.000000 0.000000 
#    y 0.000000 1.639570 0.000000 
#    z 0.000000 0.000000 1.831610 
# 
# From -- ./inp_files/308.got.cif
#   From: 2010.05.17/outbox.cif.g08.bks.cpg/sg124_1_cif.got.tgz:308.got - 2010.05.20 11:49:17.
