data_PCOD9562437
_publ_section_title
;
Structure prediction by ZEFSAII (Michael W. Deem and Ramdas Pophale) SiO2 
 PCOD9562437
Probable space group: P 4/M C C
;
_chemical_formula_sum "Si O2"
_cell_formula_units_Z 96
_cell_length_a 23.501627
_cell_length_b 23.501627
_cell_length_c 10.157457
_cell_angle_alpha 90.000000
_cell_angle_beta 90.000000
_cell_angle_gamma 90.000000
_cell_volume 5610.232386
_symmetry_space_group_name_H-M "P 4/M C C"
_symmetry_group_IT_number 124
_symmetry_cell_setting 'tetragonal'
loop_
_space_group_symop_operation_xyz
x,y,z
-y,x,z
-x,-y,z
y,-x,z
x,-y,1/2-z
-x,y,1/2-z
y,x,1/2-z
-y,-x,1/2-z
-x,-y,-z
y,-x,-z
x,y,-z
-y,x,-z
-x,y,1/2+z
x,-y,1/2+z
-y,-x,1/2+z
y,x,1/2+z
loop_
_atom_site_type_symbol
_atom_site_label
_atom_site_fract_x
_atom_site_fract_y
_atom_site_fract_z
Si Si1 0.162680 0.931383 0.251810
Si Si2 0.367346 0.082955 0.500000
Si Si3 0.627557 0.946607 0.000000
Si Si4 0.431167 0.116405 0.235977
Si Si5 0.063419 0.758737 0.000000
Si Si6 0.551843 0.763257 0.149303
Si Si7 0.073932 0.762857 0.500000
Si Si8 0.363653 0.557483 0.840378
O O1 0.104705 0.895296 0.250000
O O2 0.203881 0.919122 0.374897
O O3 0.152198 0.000000 0.250000
O O4 0.199735 0.912982 0.126697
O O5 0.400521 0.104704 0.372729
O O6 0.300548 0.099055 0.500000
O O7 0.368956 0.014507 0.500000
O O8 0.593025 0.926414 0.127551
O O9 0.691891 0.920878 0.000000
O O10 0.500000 0.112257 0.250000
O O11 0.415345 0.179808 0.186325
O O12 0.994644 0.756677 0.000000
O O13 0.500000 0.761421 0.250000
O O14 0.579803 0.701392 0.157449
O O15 0.530328 0.769969 0.000000
O O16 0.364742 0.500000 0.750000
O O17 0.401561 0.598440 0.750000
O O18 0.379270 0.550308 0.000000
#
# Coordination Sequence:
#
# PCOD9562437 Si02
#       8
#    16   8   8  16   8  16   8  16
#     4  10  19  33  55  81 109 138 174 220 269 319
#     4  11  23  35  54  80 106 143 179 226 269 328
#     4  11  21  37  56  76 108 143 181 218 275 328
#     4  11  22  35  53  81 110 139 177 223 280 329
#     4   9  19  34  54  76 100 148 181 217 253 319
#     4   9  19  35  56  79 108 147 189 221 262 328
#     4   9  19  36  52  74 106 138 191 213 253 321
#     4  10  20  36  58  87 116 148 186 228 276 327
#
# _framework density 17.111591000000001
#
# number of rings (size 3 to 8) (size 9 to 14) (size 15 to 20)
#    0.000    2.000    0.833    3.000    3.500    5.667 
#    0.000    0.833    0.000    9.000    0.000    0.000 
#    0.000    0.000    0.000    0.000    0.000    0.000 
#
# Total GULP energy -534427.934426 kJ/mol
# GULP energy per Si atom -5566.957650 kJ/mol
# Density = 1.707264 g / cm^3
# Si number density = 17.111591 Si / 1000 Ang^3
#
#
#
# Elastic Constant Matrix: (Units=GPa)
#
#
# Indices 1 2 3 4 5 6 
#
# 1 91.1194 45.8737 52.0810 0.0000 0.0000 0.0000
# 2 45.8737 91.1140 52.0825 0.0000 0.0000 0.0000
# 3 52.0810 52.0825 176.3008 0.0000 0.0000 0.0000
# 4 0.0000 0.0000 0.0000 22.8071 0.0000 0.0000
# 5 0.0000 0.0000 0.0000 0.0000 22.8069 0.0000
# 6 0.0000 0.0000 0.0000 0.0000 0.0000 -10.1337
#
#
#
# Elastic Compliance Matrix: (Units=1/GPa)
#
#
# Indices 1 2 3 4 5 6 
#
# 1 0.015758 -0.006344 -0.002781 0.000000 0.000000 0.000000
# 2 -0.006344 0.015759 -0.002781 0.000000 0.000000 0.000000
# 3 -0.002781 -0.002781 0.007315 0.000000 0.000000 0.000000
# 4 0.000000 0.000000 0.000000 0.043846 0.000000 0.000000
# 5 0.000000 0.000000 0.000000 0.000000 0.043846 0.000000
# 6 0.000000 0.000000 0.000000 0.000000 0.000000 -0.098681
#
#
# Mechanical properties :
#
#
# Convention : Reuss Voigt Hill
#
# Bulk Modulus (GPa) = 66.57958 73.17875 69.87917
# Shear Modulus (GPa) = 88.23946 20.99585 54.61766
#
# Velocity S-wave (km/s) = 7.18881 3.50665 5.65578
# Velocity P-wave (km/s) = 10.38744 7.69766 9.14201
#
# Compressibility (1/GPa) = 0.01501962
#
# Stress axis : x y z
#
# Youngs Moduli (GPa) = 63.45970 63.45443 136.69928
#
# Poissons Ratio (x) = 0.40257 0.38015
# Poissons Ratio (y) = 0.40260 0.38022
# Poissons Ratio (z) = 0.17647 0.17650
#
# Static dielectric constant tensor:
#      x y z
#    x 1.584330 0.000000 0.000000 
#    y 0.000000 1.584330 0.000000 
#    z 0.000000 0.000000 1.700280 
# 
# From -- ./inp_files/1482.got.cif
#   From: 2010.05.17/outbox.cif.g08.bks.cpg/sg124_1_cif.got.tgz:1482.got - 2010.05.20 11:49:17.
