data_PCOD9562581
_publ_section_title
;
Structure prediction by ZEFSAII (Michael W. Deem and Ramdas Pophale) SiO2 
 PCOD9562581
Probable space group: P 4/M C C
;
_chemical_formula_sum "Si O2"
_cell_formula_units_Z 96
_cell_length_a 24.632664
_cell_length_b 24.632664
_cell_length_c 8.680534
_cell_angle_alpha 90.000000
_cell_angle_beta 90.000000
_cell_angle_gamma 90.000000
_cell_volume 5267.071432
_symmetry_space_group_name_H-M "P 4/M C C"
_symmetry_group_IT_number 124
_symmetry_cell_setting 'tetragonal'
loop_
_space_group_symop_operation_xyz
x,y,z
-y,x,z
-x,-y,z
y,-x,z
x,-y,1/2-z
-x,y,1/2-z
y,x,1/2-z
-y,-x,1/2-z
-x,-y,-z
y,-x,-z
x,y,-z
-y,x,-z
-x,y,1/2+z
x,-y,1/2+z
-y,-x,1/2+z
y,x,1/2+z
loop_
_atom_site_type_symbol
_atom_site_label
_atom_site_fract_x
_atom_site_fract_y
_atom_site_fract_z
Si Si1 0.149939 0.234576 0.684903
Si Si2 0.060784 0.442533 0.315396
Si Si3 0.557862 0.767219 0.315165
Si Si4 0.642039 0.442093 0.684486
Si Si5 0.355904 0.856725 0.814513
Si Si6 0.060577 0.145080 0.684653
O O1 0.201704 0.201704 0.750000
O O2 0.153551 0.236904 0.500000
O O3 0.145562 0.294893 0.751974
O O4 0.097284 0.197735 0.725902
O O5 0.082778 0.500000 0.250000
O O6 0.060469 0.444593 0.500000
O O7 0.094504 0.391405 0.255049
O O8 0.000000 0.438071 0.250000
O O9 0.500000 0.786325 0.250000
O O10 0.554134 0.768876 0.500000
O O11 0.565263 0.704764 0.266885
O O12 0.608848 0.803722 0.269463
O O13 0.623531 0.500000 0.750000
O O14 0.605149 0.394852 0.750000
O O15 0.639734 0.442874 0.500000
O O16 0.354822 0.860754 0.000000
O O17 0.093342 0.093342 0.750000
O O18 0.058623 0.141390 0.500000
O O19 0.000000 0.148509 0.750000
#
# Coordination Sequence:
#
# PCOD9562581 Si02
#       6
#    16  16  16  16  16  16
#     4  10  22  40  59  82 113 151 191 235 284 334
#     4  11  22  38  58  83 115 151 189 234 286 338
#     4   9  20  36  55  79 108 141 179 224 276 328
#     4  10  20  36  55  78 106 138 175 218 268 324
#     4  11  22  37  58  85 114 148 190 234 278 336
#     4  10  21  38  61  87 117 150 187 228 275 325
#
# _framework density 18.226445999999999
#
# number of rings (size 3 to 8) (size 9 to 14) (size 15 to 20)
#    0.000    1.833    0.000    4.500    0.000    7.000 
#    0.000    5.000    0.000    0.000    0.000    0.000 
#    0.000    0.000    0.000    0.000    0.000    0.000 
#
# Total GULP energy -536241.141514 kJ/mol
# GULP energy per Si atom -5585.845224 kJ/mol
# Density = 1.818496 g / cm^3
# Si number density = 18.226446 Si / 1000 Ang^3
#
#
#
# Elastic Constant Matrix: (Units=GPa)
#
#
# Indices 1 2 3 4 5 6 
#
# 1 164.3971 94.3930 58.4518 0.0000 0.0000 0.0000
# 2 94.3930 164.4029 58.4524 0.0000 0.0000 0.0000
# 3 58.4518 58.4524 84.6041 0.0000 0.0000 0.0000
# 4 0.0000 0.0000 0.0000 31.7799 0.0000 0.0000
# 5 0.0000 0.0000 0.0000 0.0000 31.7803 0.0000
# 6 0.0000 0.0000 0.0000 0.0000 0.0000 28.3140
#
#
#
# Elastic Compliance Matrix: (Units=1/GPa)
#
#
# Indices 1 2 3 4 5 6 
#
# 1 0.009951 -0.004334 -0.003881 0.000000 0.000000 0.000000
# 2 -0.004334 0.009951 -0.003881 0.000000 0.000000 0.000000
# 3 -0.003881 -0.003881 0.017182 0.000000 0.000000 0.000000
# 4 0.000000 0.000000 0.000000 0.031466 0.000000 0.000000
# 5 0.000000 0.000000 0.000000 0.000000 0.031466 0.000000
# 6 0.000000 0.000000 0.000000 0.000000 0.000000 0.035318
#
#
# Mechanical properties :
#
#
# Convention : Reuss Voigt Hill
#
# Bulk Modulus (GPa) = 77.56028 92.88871 85.22449
# Shear Modulus (GPa) = 30.52080 31.84862 31.18471
#
# Velocity S-wave (km/s) = 4.09655 4.18471 4.14086
# Velocity P-wave (km/s) = 8.06360 8.62690 8.35000
#
# Compressibility (1/GPa) = 0.01289320
#
# Stress axis : x y z
#
# Youngs Moduli (GPa) = 100.49303 100.49711 58.19960
#
# Poissons Ratio (x) = 0.43551 0.22587
# Poissons Ratio (y) = 0.43549 0.22586
# Poissons Ratio (z) = 0.39001 0.39001
#
# Static dielectric constant tensor:
#      x y z
#    x 1.611870 0.000000 0.000000 
#    y 0.000000 1.611870 0.000000 
#    z 0.000000 0.000000 1.610860 
# 
# From -- ./inp_files/1329.got.cif
#   From: 2010.05.17/outbox.cif.g08.bks.cpg/sg124_1_cif.got.tgz:1329.got - 2010.05.20 11:49:17.
