data_PCOD9562943
_publ_section_title
;
Structure prediction by ZEFSAII (Michael W. Deem and Ramdas Pophale) SiO2 
 PCOD9562943
Probable space group: P 4/N B M
;
_chemical_formula_sum "Si O2"
_cell_formula_units_Z 72
_cell_length_a 20.906605
_cell_length_b 20.906605
_cell_length_c 9.659528
_cell_angle_alpha 90.000000
_cell_angle_beta 90.000000
_cell_angle_gamma 90.000000
_cell_volume 4222.045737
_symmetry_space_group_name_H-M "P 4/N B M"
_symmetry_group_IT_number 125
_space_group.IT_coordinate_system_code '2'
_symmetry_cell_setting 'tetragonal'
loop_
_space_group_symop_operation_xyz
x,y,z
1/2-y,x,z
1/2-x,1/2-y,z
y,1/2-x,z
x,1/2-y,-z
1/2-x,y,-z
y,x,-z
1/2-y,1/2-x,-z
-x,-y,-z
1/2+y,-x,-z
1/2+x,1/2+y,-z
-y,1/2+x,-z
-x,1/2+y,z
1/2+x,-y,z
-y,-x,z
1/2+y,1/2+x,z
loop_
_atom_site_type_symbol
_atom_site_label
_atom_site_fract_x
_atom_site_fract_y
_atom_site_fract_z
Si Si1 0.007489 0.403501 0.087942
Si Si2 0.425607 0.170014 0.329804
Si Si3 0.250000 0.643571 0.000000
Si Si4 0.434357 0.317502 0.346921
Si Si5 0.060144 0.663389 0.166119
O O1 0.026903 0.360713 0.218042
O O2 0.964431 0.464431 0.131599
O O3 0.066960 0.433041 0.000000
O O4 0.967020 0.362048 0.980000
O O5 0.414332 0.245257 0.309095
O O6 0.363739 0.124942 0.314891
O O7 0.447662 0.169939 0.490164
O O8 0.272796 0.599371 0.872595
O O9 0.190061 0.690061 0.967388
O O10 0.499527 0.330323 0.264637
O O11 0.110327 0.610327 0.218657
#
# Coordination Sequence:
#
# PCOD9562943 Si02
#       5
#    16  16   8  16  16
#     4  10  19  33  53  80 109 138 171 215 276 330
#     4  10  21  36  53  74 105 139 179 222 265 322
#     4   9  18  32  52  80 110 141 180 226 274 327
#     4  10  21  36  53  75 102 141 181 220 269 317
#     4  10  19  33  55  81 107 137 176 218 266 327
#
# _framework density 17.053345
#
# number of rings (size 3 to 8) (size 9 to 14) (size 15 to 20)
#    0.000    2.111    2.222    1.333    0.000    1.333 
#    0.000    4.444    0.000    1.333    0.000    0.000 
#    0.000    7.111    0.000    0.000    0.000    0.000 
#
# Total GULP energy -401064.636810 kJ/mol
# GULP energy per Si atom -5570.342178 kJ/mol
# Density = 1.701453 g / cm^3
# Si number density = 17.053345 Si / 1000 Ang^3
#
#
#
# Elastic Constant Matrix: (Units=GPa)
#
#
# Indices 1 2 3 4 5 6 
#
# 1 106.2823 64.4452 58.7691 0.0000 0.0000 0.0000
# 2 64.4452 106.2784 58.7672 0.0000 0.0000 0.0000
# 3 58.7691 58.7672 69.5149 0.0000 0.0000 0.0000
# 4 0.0000 0.0000 0.0000 28.9095 0.0000 0.0000
# 5 0.0000 0.0000 0.0000 0.0000 28.9092 0.0000
# 6 0.0000 0.0000 0.0000 0.0000 0.0000 17.0269
#
#
#
# Elastic Compliance Matrix: (Units=1/GPa)
#
#
# Indices 1 2 3 4 5 6 
#
# 1 0.018958 -0.004945 -0.011847 0.000000 0.000000 0.000000
# 2 -0.004945 0.018959 -0.011847 0.000000 0.000000 0.000000
# 3 -0.011847 -0.011847 0.034416 0.000000 0.000000 0.000000
# 4 0.000000 0.000000 0.000000 0.034591 0.000000 0.000000
# 5 0.000000 0.000000 0.000000 0.000000 0.034591 0.000000
# 6 0.000000 0.000000 0.000000 0.000000 0.000000 0.058731
#
#
# Mechanical properties :
#
#
# Convention : Reuss Voigt Hill
#
# Bulk Modulus (GPa) = 66.42202 71.78205 69.10204
# Shear Modulus (GPa) = 19.04457 21.64206 20.34332
#
# Velocity S-wave (km/s) = 3.34543 3.56628 3.45762
# Velocity P-wave (km/s) = 7.34552 7.69037 7.51992
#
# Compressibility (1/GPa) = 0.01505525
#
# Stress axis : x y z
#
# Youngs Moduli (GPa) = 52.74746 52.74673 29.05593
#
# Poissons Ratio (x) = 0.26083 0.34423
# Poissons Ratio (y) = 0.26083 0.34422
# Poissons Ratio (z) = 0.62491 0.62488
#
# Static dielectric constant tensor:
#      x y z
#    x 1.594990 0.000000 0.000000 
#    y 0.000000 1.594990 0.000000 
#    z 0.000000 0.000000 1.562530 
# 
# From -- ./inp_files/2585.got.cif
#   From: 2010.05.17/outbox.cif.g08.bks.cpg/sg125_2_cif.got.tgz:2585.got - 2010.05.20 11:54:10.
