data_PCOD9562022
_publ_section_title
;
Structure prediction by ZEFSAII (Michael W. Deem and Ramdas Pophale) SiO2 
 PCOD9562022
Probable space group: P 4/M M M
;
_chemical_formula_sum "Si O2"
_cell_formula_units_Z 72
_cell_length_a 13.964237
_cell_length_b 13.964237
_cell_length_c 23.094667
_cell_angle_alpha 90.000000
_cell_angle_beta 90.000000
_cell_angle_gamma 90.000000
_cell_volume 4503.458102
_symmetry_space_group_name_H-M "P 4/M M M"
_symmetry_group_IT_number 123
_symmetry_cell_setting 'tetragonal'
loop_
_space_group_symop_operation_xyz
x,y,z
-y,x,z
-x,-y,z
y,-x,z
x,-y,-z
-x,y,-z
y,x,-z
-y,-x,-z
-x,-y,-z
y,-x,-z
x,y,-z
-y,x,-z
-x,y,z
x,-y,z
-y,-x,z
y,x,z
loop_
_atom_site_type_symbol
_atom_site_label
_atom_site_fract_x
_atom_site_fract_y
_atom_site_fract_z
Si Si1 0.112685 0.270774 0.790357
Si Si2 0.109650 0.615846 0.000000
Si Si3 0.770421 0.611573 0.566784
Si Si4 0.730636 0.111093 0.654700
Si Si5 0.772865 0.614513 0.115519
O O1 0.172240 0.172240 0.799189
O O2 0.122092 0.296294 0.722387
O O3 0.163270 0.349260 0.830676
O O4 0.000000 0.260963 0.803522
O O5 0.168309 0.641803 0.942500
O O6 0.104403 0.500000 0.000000
O O7 0.000000 0.651909 0.000000
O O8 0.802324 0.625363 0.500000
O O9 0.751155 0.500000 0.575480
O O10 0.675378 0.675378 0.574714
O O11 0.847517 0.650709 0.612017
O O12 0.825104 0.174897 0.645111
O O13 0.748702 0.000000 0.643746
O O14 0.758912 0.500000 0.116531
O O15 0.674080 0.674080 0.116379
#
# Coordination Sequence:
#
# PCOD9562022 Si02
#       5
#    16   8  16  16  16
#     4   9  18  32  50  72  96 123 156 194 237 284
#     4   9  17  30  49  71  93 119 153 193 236 279
#     4   9  18  32  49  69  93 121 154 193 235 278
#     4   9  18  32  49  70  96 124 155 192 233 279
#     4  10  20  33  49  70  97 129 165 202 238 279
#
# _framework density 15.987712999999999
#
# number of rings (size 3 to 8) (size 9 to 14) (size 15 to 20)
#    0.000    2.778    0.000    1.000    0.000    4.000 
#    0.000    6.667    0.000    2.000    0.000    9.333 
#    0.000    8.000    0.000    0.000    0.000    0.000 
#
# Total GULP energy -401140.181057 kJ/mol
# GULP energy per Si atom -5571.391404 kJ/mol
# Density = 1.595132 g / cm^3
# Si number density = 15.987713 Si / 1000 Ang^3
#
#
#
# Elastic Constant Matrix: (Units=GPa)
#
#
# Indices 1 2 3 4 5 6 
#
# 1 107.7319 47.6601 61.2271 0.0000 0.0000 0.0000
# 2 47.6601 107.7319 61.2271 0.0000 0.0000 0.0000
# 3 61.2271 61.2271 78.9892 0.0000 0.0000 0.0000
# 4 0.0000 0.0000 0.0000 26.1331 0.0000 0.0000
# 5 0.0000 0.0000 0.0000 0.0000 26.1331 0.0000
# 6 0.0000 0.0000 0.0000 0.0000 0.0000 6.0200
#
#
#
# Elastic Compliance Matrix: (Units=1/GPa)
#
#
# Indices 1 2 3 4 5 6 
#
# 1 0.016591 -0.000055 -0.012818 0.000000 0.000000 0.000000
# 2 -0.000055 0.016591 -0.012818 0.000000 0.000000 0.000000
# 3 -0.012818 -0.012818 0.032531 0.000000 0.000000 0.000000
# 4 0.000000 0.000000 0.000000 0.038266 0.000000 0.000000
# 5 0.000000 0.000000 0.000000 0.000000 0.038266 0.000000
# 6 0.000000 0.000000 0.000000 0.000000 0.000000 0.166113
#
#
# Mechanical properties :
#
#
# Convention : Reuss Voigt Hill
#
# Bulk Modulus (GPa) = 69.77264 70.52018 70.14641
# Shear Modulus (GPa) = 13.71679 19.94649 16.83164
#
# Velocity S-wave (km/s) = 2.93227 3.53599 3.24819
# Velocity P-wave (km/s) = 7.42970 7.80229 7.61827
#
# Compressibility (1/GPa) = 0.01433227
#
# Stress axis : x y z
#
# Youngs Moduli (GPa) = 60.27206 60.27206 30.74005
#
# Poissons Ratio (x) = 0.00333 0.39402
# Poissons Ratio (y) = 0.00333 0.39402
# Poissons Ratio (z) = 0.77255 0.77255
#
# Static dielectric constant tensor:
#      x y z
#    x 1.513450 0.000000 0.000000 
#    y 0.000000 1.513450 0.000000 
#    z 0.000000 0.000000 1.541540 
# 
# From -- ./inp_files/5125.got.cif
#   From: 2010.05.17/outbox.cif.g08.bks.cpg/sg123_3_cif.got.tgz:5125.got - 2010.05.20 11:43:04.
