data_PCOD9562248
_publ_section_title
;
Structure prediction by ZEFSAII (Michael W. Deem and Ramdas Pophale) SiO2 
 PCOD9562248
Probable space group: P 4/M M M
;
_chemical_formula_sum "Si O2"
_cell_formula_units_Z 96
_cell_length_a 25.029640
_cell_length_b 25.029640
_cell_length_c 7.892925
_cell_angle_alpha 90.000000
_cell_angle_beta 90.000000
_cell_angle_gamma 90.000000
_cell_volume 4944.782374
_symmetry_space_group_name_H-M "P 4/M M M"
_symmetry_group_IT_number 123
_symmetry_cell_setting 'tetragonal'
loop_
_space_group_symop_operation_xyz
x,y,z
-y,x,z
-x,-y,z
y,-x,z
x,-y,-z
-x,y,-z
y,x,-z
-y,-x,-z
-x,-y,-z
y,-x,-z
x,y,-z
-y,x,-z
-x,y,z
x,-y,z
-y,-x,z
y,x,z
loop_
_atom_site_type_symbol
_atom_site_label
_atom_site_fract_x
_atom_site_fract_y
_atom_site_fract_z
Si Si1 0.559871 0.232392 0.203087
Si Si2 0.440774 0.937708 0.295415
Si Si3 0.560127 0.354475 0.294969
Si Si4 0.852255 0.938888 0.292979
Si Si5 0.852272 0.232610 0.297417
Si Si6 0.148417 0.644255 0.801205
O O1 0.500000 0.220245 0.270048
O O2 0.571080 0.294246 0.238208
O O3 0.606731 0.195261 0.273798
O O4 0.557841 0.224672 0.000000
O O5 0.439916 0.934637 0.500000
O O6 0.500000 0.918342 0.238623
O O7 0.391348 0.904194 0.227669
O O8 0.436630 0.000000 0.248812
O O9 0.560711 0.355104 0.500000
O O10 0.500000 0.368496 0.239628
O O11 0.603770 0.396231 0.232816
O O12 0.851600 0.940172 0.500000
O O13 0.904497 0.904497 0.244266
O O14 0.800877 0.904060 0.236963
O O15 0.852206 0.000000 0.233912
O O16 0.852338 0.227355 0.500000
O O17 0.799615 0.200386 0.234633
O O18 0.853930 0.295322 0.262249
O O19 0.158071 0.649104 0.000000
#
# Coordination Sequence:
#
# PCOD9562248 Si02
#       6
#    16  16  16  16  16  16
#     4   9  19  35  51  68  94 126 158 197 247 297
#     4   9  19  36  56  78 105 136 169 206 250 302
#     4   9  18  32  50  73  99 126 158 197 242 293
#     4   8  14  26  46  72 100 129 161 199 244 291
#     4   9  19  35  51  69  99 138 175 210 251 301
#     4  11  22  34  52  77 102 131 170 213 257 306
#
# _framework density 19.414404000000001
#
# number of rings (size 3 to 8) (size 9 to 14) (size 15 to 20)
#    0.000    2.833    0.000    2.500    0.000    5.000 
#    0.000    9.167    0.000    0.000    0.000    2.333 
#    0.000    0.000    0.000    3.667    0.000    3.667 
#
# Total GULP energy -535268.030810 kJ/mol
# GULP energy per Si atom -5575.708654 kJ/mol
# Density = 1.937022 g / cm^3
# Si number density = 19.414404 Si / 1000 Ang^3
#
#
#
# Elastic Constant Matrix: (Units=GPa)
#
#
# Indices 1 2 3 4 5 6 
#
# 1 170.6528 114.7161 5.9737 0.0000 0.0000 0.0000
# 2 114.7161 170.6528 5.9737 0.0000 0.0000 0.0000
# 3 5.9737 5.9737 15.5003 0.0000 0.0000 0.0000
# 4 0.0000 0.0000 0.0000 14.1845 0.0000 0.0000
# 5 0.0000 0.0000 0.0000 0.0000 14.1845 0.0000
# 6 0.0000 0.0000 0.0000 0.0000 0.0000 27.1849
#
#
#
# Elastic Compliance Matrix: (Units=1/GPa)
#
#
# Indices 1 2 3 4 5 6 
#
# 1 0.010720 -0.007158 -0.001373 0.000000 0.000000 0.000000
# 2 -0.007158 0.010720 -0.001373 0.000000 0.000000 0.000000
# 3 -0.001373 -0.001373 0.065573 0.000000 0.000000 0.000000
# 4 0.000000 0.000000 0.000000 0.070499 0.000000 0.000000
# 5 0.000000 0.000000 0.000000 0.000000 0.070499 0.000000
# 6 0.000000 0.000000 0.000000 0.000000 0.000000 0.036785
#
#
# Mechanical properties :
#
#
# Convention : Reuss Voigt Hill
#
# Bulk Modulus (GPa) = 14.87970 67.79257 41.33613
# Shear Modulus (GPa) = 16.28642 26.45360 21.37001
#
# Velocity S-wave (km/s) = 2.89949 3.69531 3.32132
# Velocity P-wave (km/s) = 4.34630 7.29394 6.00383
#
# Compressibility (1/GPa) = 0.06720567
#
# Stress axis : x y z
#
# Youngs Moduli (GPa) = 93.28767 93.28767 15.25020
#
# Poissons Ratio (x) = 0.66774 0.02093
# Poissons Ratio (y) = 0.66774 0.02093
# Poissons Ratio (z) = 0.12805 0.12805
#
# Static dielectric constant tensor:
#      x y z
#    x 1.679020 0.000000 0.000000 
#    y 0.000000 1.679020 0.000000 
#    z 0.000000 0.000000 1.709940 
# 
# From -- ./inp_files/1624.got.cif
#   From: 2010.05.17/outbox.cif.g08.bks.cpg/sg123_1_cif.got.tgz:1624.got - 2010.05.20 11:43:04.
