data_PCOD9562590
_publ_section_title
;
Structure prediction by ZEFSAII (Michael W. Deem and Ramdas Pophale) SiO2 
 PCOD9562590
Probable space group: P 4/M C C
;
_chemical_formula_sum "Si O2"
_cell_formula_units_Z 88
_cell_length_a 18.370454
_cell_length_b 18.370454
_cell_length_c 14.568553
_cell_angle_alpha 90.000000
_cell_angle_beta 90.000000
_cell_angle_gamma 90.000000
_cell_volume 4916.501739
_symmetry_space_group_name_H-M "P 4/M C C"
_symmetry_group_IT_number 124
_symmetry_cell_setting 'tetragonal'
loop_
_space_group_symop_operation_xyz
x,y,z
-y,x,z
-x,-y,z
y,-x,z
x,-y,1/2-z
-x,y,1/2-z
y,x,1/2-z
-y,-x,1/2-z
-x,-y,-z
y,-x,-z
x,y,-z
-y,x,-z
-x,y,1/2+z
x,-y,1/2+z
-y,-x,1/2+z
y,x,1/2+z
loop_
_atom_site_type_symbol
_atom_site_label
_atom_site_fract_x
_atom_site_fract_y
_atom_site_fract_z
Si Si1 0.081495 0.644068 0.762841
Si Si2 0.873642 0.200431 0.168648
Si Si3 0.808907 0.434950 0.889912
Si Si4 0.806555 0.602822 0.889683
Si Si5 0.890210 0.058815 0.500000
Si Si6 0.707914 0.268002 0.609710
O O1 0.084015 0.728253 0.795224
O O2 0.119793 0.594338 0.839330
O O3 0.126192 0.632843 0.669069
O O4 0.000000 0.620118 0.750000
O O5 0.855164 0.144837 0.250000
O O6 0.913966 0.157186 0.087477
O O7 0.796055 0.236764 0.139427
O O8 0.793640 0.518426 0.866823
O O9 0.749868 0.374184 0.860908
O O10 0.817475 0.431010 0.000000
O O11 0.739730 0.654681 0.862366
O O12 0.818238 0.608598 0.000000
O O13 0.971214 0.095731 0.500000
O O14 0.707521 0.266604 0.500000
#
# Coordination Sequence:
#
# PCOD9562590 Si02
#       6
#    16  16  16  16   8  16
#     4  11  24  37  55  87 114 151 192 246 298 355
#     4  11  22  40  64  88 113 148 202 246 288 350
#     4   9  20  36  56  82 117 155 194 243 299 354
#     4  10  20  36  57  84 117 156 198 243 297 355
#     4  11  28  46  64  88 120 156 190 245 312 362
#     4   9  17  35  58  83 113 150 197 242 282 341
#
# _framework density 17.898904999999999
#
# number of rings (size 3 to 8) (size 9 to 14) (size 15 to 20)
#    0.000    1.909    2.727    0.545    3.818    2.182 
#    0.000    2.727    0.000    0.545    0.000    3.818 
#    0.000    3.273    0.000    0.364    0.000    0.000 
#
# Total GULP energy -490850.705036 kJ/mol
# GULP energy per Si atom -5577.848921 kJ/mol
# Density = 1.785817 g / cm^3
# Si number density = 17.898905 Si / 1000 Ang^3
#
#
#
# Elastic Constant Matrix: (Units=GPa)
#
#
# Indices 1 2 3 4 5 6 
#
# 1 130.8112 75.6717 49.0905 0.0000 0.0000 0.0000
# 2 75.6717 130.8113 49.0890 0.0000 0.0000 0.0000
# 3 49.0905 49.0890 82.3714 0.0000 0.0000 0.0000
# 4 0.0000 0.0000 0.0000 24.9979 0.0000 0.0000
# 5 0.0000 0.0000 0.0000 0.0000 24.9973 0.0000
# 6 0.0000 0.0000 0.0000 0.0000 0.0000 10.5668
#
#
#
# Elastic Compliance Matrix: (Units=1/GPa)
#
#
# Indices 1 2 3 4 5 6 
#
# 1 0.012447 -0.005689 -0.004028 0.000000 0.000000 0.000000
# 2 -0.005689 0.012447 -0.004027 0.000000 0.000000 0.000000
# 3 -0.004028 -0.004027 0.016941 0.000000 0.000000 0.000000
# 4 0.000000 0.000000 0.000000 0.040003 0.000000 0.000000
# 5 0.000000 0.000000 0.000000 0.000000 0.040004 0.000000
# 6 0.000000 0.000000 0.000000 0.000000 0.000000 0.094636
#
#
# Mechanical properties :
#
#
# Convention : Reuss Voigt Hill
#
# Bulk Modulus (GPa) = 69.70268 76.85515 73.27891
# Shear Modulus (GPa) = 20.10067 23.45526 21.77796
#
# Velocity S-wave (km/s) = 3.35477 3.62391 3.49194
# Velocity P-wave (km/s) = 7.35071 7.78087 7.56885
#
# Compressibility (1/GPa) = 0.01434665
#
# Stress axis : x y z
#
# Youngs Moduli (GPa) = 80.34048 80.34188 59.02994
#
# Poissons Ratio (x) = 0.45706 0.23776
# Poissons Ratio (y) = 0.45705 0.23773
# Poissons Ratio (z) = 0.32359 0.32356
#
# Static dielectric constant tensor:
#      x y z
#    x 1.602790 0.000000 0.000000 
#    y 0.000000 1.602790 0.000000 
#    z 0.000000 0.000000 1.646770 
# 
# From -- ./inp_files/3187.got.cif
#   From: 2010.05.17/outbox.cif.g08.bks.cpg/sg124_2_cif.got.tgz:3187.got - 2010.05.20 11:49:17.
