data_PCOD9562695
_publ_section_title
;
Structure prediction by ZEFSAII (Michael W. Deem and Ramdas Pophale) SiO2 
 PCOD9562695
Probable space group: P 4/M C C
;
_chemical_formula_sum "Si O2"
_cell_formula_units_Z 88
_cell_length_a 15.367518
_cell_length_b 15.367518
_cell_length_c 20.161244
_cell_angle_alpha 90.000000
_cell_angle_beta 90.000000
_cell_angle_gamma 90.000000
_cell_volume 4761.291671
_symmetry_space_group_name_H-M "P 4/M C C"
_symmetry_group_IT_number 124
_symmetry_cell_setting 'tetragonal'
loop_
_space_group_symop_operation_xyz
x,y,z
-y,x,z
-x,-y,z
y,-x,z
x,-y,1/2-z
-x,y,1/2-z
y,x,1/2-z
-y,-x,1/2-z
-x,-y,-z
y,-x,-z
x,y,-z
-y,x,-z
-x,y,1/2+z
x,-y,1/2+z
-y,-x,1/2+z
y,x,1/2+z
loop_
_atom_site_type_symbol
_atom_site_label
_atom_site_fract_x
_atom_site_fract_y
_atom_site_fract_z
Si Si1 0.292663 0.822890 0.874626
Si Si2 0.105503 0.583556 0.000000
Si Si3 0.888789 0.089591 0.829635
Si Si4 0.396520 0.746586 0.249329
Si Si5 0.360020 0.544062 0.000000
Si Si6 0.763398 0.634615 0.601235
Si Si7 0.902925 0.386320 0.500000
O O1 0.197803 0.860757 0.854193
O O2 0.354245 0.804043 0.810018
O O3 0.278881 0.728449 0.906646
O O4 0.337286 0.878362 0.932373
O O5 0.147078 0.628559 0.063082
O O6 0.136457 0.483299 0.000000
O O7 0.004468 0.595417 0.000000
O O8 0.895864 0.104137 0.750000
O O9 0.987127 0.118671 0.849817
O O10 0.500000 0.736509 0.250000
O O11 0.345651 0.654350 0.250000
O O12 0.376711 0.783249 0.321860
O O13 0.394386 0.445529 0.000000
O O14 0.302322 0.567299 0.934963
#
# Coordination Sequence:
#
# PCOD9562695 Si02
#       7
#    16   8  16  16   8  16   8
#     4  11  23  40  62  92 123 164 202 255 321 374
#     4  10  23  41  60  86 116 164 211 254 303 370
#     4   9  19  38  65  93 123 157 199 253 314 382
#     4  10  22  38  60  92 124 163 205 258 311 363
#     4  10  23  37  59  91 119 164 210 249 303 362
#     4  10  22  37  64  83 121 159 206 250 303 364
#     4  11  24  40  61  84 120 164 208 255 312 371
#
# _framework density 18.482378000000001
#
# number of rings (size 3 to 8) (size 9 to 14) (size 15 to 20)
#    0.000    1.909    0.000    4.364   12.727    0.182 
#    0.000    0.000    0.000    4.364    0.000    0.000 
#    0.000    0.000    0.000    0.000    0.000    0.000 
#
# Total GULP energy -490305.318572 kJ/mol
# GULP energy per Si atom -5571.651347 kJ/mol
# Density = 1.844031 g / cm^3
# Si number density = 18.482378 Si / 1000 Ang^3
#
#
#
# Elastic Constant Matrix: (Units=GPa)
#
#
# Indices 1 2 3 4 5 6 
#
# 1 89.0776 45.7776 60.5125 0.0000 0.0000 0.0000
# 2 45.7776 89.0783 60.5117 0.0000 0.0000 0.0000
# 3 60.5125 60.5117 98.9169 0.0000 0.0000 0.0000
# 4 0.0000 0.0000 0.0000 30.7284 0.0000 0.0000
# 5 0.0000 0.0000 0.0000 0.0000 30.7181 0.0000
# 6 0.0000 0.0000 0.0000 0.0000 0.0000 16.0002
#
#
#
# Elastic Compliance Matrix: (Units=1/GPa)
#
#
# Indices 1 2 3 4 5 6 
#
# 1 0.019769 -0.003326 -0.010059 0.000000 0.000000 0.000000
# 2 -0.003326 0.019768 -0.010058 0.000000 0.000000 0.000000
# 3 -0.010059 -0.010058 0.022416 0.000000 0.000000 0.000000
# 4 0.000000 0.000000 0.000000 0.032543 0.000000 0.000000
# 5 0.000000 0.000000 0.000000 0.000000 0.032554 0.000000
# 6 0.000000 0.000000 0.000000 0.000000 0.000000 0.062499
#
#
# Mechanical properties :
#
#
# Convention : Reuss Voigt Hill
#
# Bulk Modulus (GPa) = 66.37248 67.85293 67.11271
# Shear Modulus (GPa) = 20.70759 22.84074 21.77417
#
# Velocity S-wave (km/s) = 3.35086 3.51922 3.43608
# Velocity P-wave (km/s) = 7.13864 7.30104 7.22030
#
# Compressibility (1/GPa) = 0.01506648
#
# Stress axis : x y z
#
# Youngs Moduli (GPa) = 50.58524 50.58682 44.61122
#
# Poissons Ratio (x) = 0.16826 0.44873
# Poissons Ratio (y) = 0.16826 0.44871
# Poissons Ratio (z) = 0.50882 0.50881
#
# Static dielectric constant tensor:
#      x y z
#    x 1.658430 0.000000 0.000000 
#    y 0.000000 1.658430 0.000000 
#    z 0.000000 0.000000 1.618220 
# 
# From -- ./inp_files/5227.got.cif
#   From: 2010.05.17/outbox.cif.g08.bks.cpg/sg124_3_cif.got.tgz:5227.got - 2010.05.20 11:49:17.
