data_PCOD9562213
_publ_section_title
;
Structure prediction by ZEFSAII (Michael W. Deem and Ramdas Pophale) SiO2 
 PCOD9562213
Probable space group: P 4/M M M
;
_chemical_formula_sum "Si O2"
_cell_formula_units_Z 56
_cell_length_a 18.658340
_cell_length_b 18.658340
_cell_length_c 7.804242
_cell_angle_alpha 90.000000
_cell_angle_beta 90.000000
_cell_angle_gamma 90.000000
_cell_volume 2716.919265
_symmetry_space_group_name_H-M "P 4/M M M"
_symmetry_group_IT_number 123
_symmetry_cell_setting 'tetragonal'
loop_
_space_group_symop_operation_xyz
x,y,z
-y,x,z
-x,-y,z
y,-x,z
x,-y,-z
-x,y,-z
y,x,-z
-y,-x,-z
-x,-y,-z
y,-x,-z
x,y,-z
-y,x,-z
-x,y,z
x,-y,z
-y,-x,z
y,x,z
loop_
_atom_site_type_symbol
_atom_site_label
_atom_site_fract_x
_atom_site_fract_y
_atom_site_fract_z
Si Si1 0.192097 0.918480 0.207818
Si Si2 0.916052 0.582983 0.500000
Si Si3 0.583004 0.304033 0.707280
Si Si4 0.337532 0.839050 0.801807
O O1 0.118679 0.881321 0.267579
O O2 0.256843 0.863311 0.245171
O O3 0.203967 0.000000 0.269981
O O4 0.189140 0.922319 0.000000
O O5 0.899336 0.500000 0.500000
O O6 0.883157 0.615149 0.670548
O O7 0.000000 0.595201 0.500000
O O8 0.583251 0.296503 0.500000
O O9 0.500000 0.297185 0.763997
O O10 0.619846 0.380155 0.748904
O O11 0.635566 0.242307 0.778498
O O12 0.347983 0.858866 0.000000
#
# Coordination Sequence:
#
# PCOD9562213 Si02
#       4
#    16   8  16  16
#     4   9  18  33  55  85 120 158 201 248 299 357
#     4  11  24  40  59  88 124 160 205 257 306 364
#     4  10  21  38  61  90 124 161 204 254 308 368
#     4  11  22  39  63  89 121 161 204 252 307 365
#
# _framework density 20.611581999999999
#
# number of rings (size 3 to 8) (size 9 to 14) (size 15 to 20)
#    0.000    1.857    1.429    2.571    0.000    6.286 
#    0.000    4.286    0.000    0.000    0.000    2.000 
#    0.000    3.429    0.000    0.286    0.000    0.000 
#
# Total GULP energy -312511.109785 kJ/mol
# GULP energy per Si atom -5580.555532 kJ/mol
# Density = 2.056467 g / cm^3
# Si number density = 20.611582 Si / 1000 Ang^3
#
#
#
# Elastic Constant Matrix: (Units=GPa)
#
#
# Indices 1 2 3 4 5 6 
#
# 1 130.7070 90.9438 25.0553 0.0000 0.0000 0.0000
# 2 90.9438 130.7070 25.0553 0.0000 0.0000 0.0000
# 3 25.0553 25.0553 62.9601 0.0000 0.0000 0.0000
# 4 0.0000 0.0000 0.0000 11.2422 0.0000 0.0000
# 5 0.0000 0.0000 0.0000 0.0000 11.2422 0.0000
# 6 0.0000 0.0000 0.0000 0.0000 0.0000 33.5480
#
#
#
# Elastic Compliance Matrix: (Units=1/GPa)
#
#
# Indices 1 2 3 4 5 6 
#
# 1 0.015053 -0.010096 -0.001973 0.000000 0.000000 0.000000
# 2 -0.010096 0.015053 -0.001973 0.000000 0.000000 0.000000
# 3 -0.001973 -0.001973 0.017453 0.000000 0.000000 0.000000
# 4 0.000000 0.000000 0.000000 0.088951 0.000000 0.000000
# 5 0.000000 0.000000 0.000000 0.000000 0.088951 0.000000
# 6 0.000000 0.000000 0.000000 0.000000 0.000000 0.029808
#
#
# Mechanical properties :
#
#
# Convention : Reuss Voigt Hill
#
# Bulk Modulus (GPa) = 51.34278 67.38700 59.36489
# Shear Modulus (GPa) = 17.25062 23.42778 20.33920
#
# Velocity S-wave (km/s) = 2.89613 3.37505 3.14472
# Velocity P-wave (km/s) = 6.01225 6.92479 6.48459
#
# Compressibility (1/GPa) = 0.01947694
#
# Stress axis : x y z
#
# Youngs Moduli (GPa) = 66.43088 66.43088 57.29566
#
# Poissons Ratio (x) = 0.67066 0.11304
# Poissons Ratio (y) = 0.67066 0.11304
# Poissons Ratio (z) = 0.13106 0.13106
#
# Static dielectric constant tensor:
#      x y z
#    x 1.737560 0.000000 0.000000 
#    y 0.000000 1.737560 0.000000 
#    z 0.000000 0.000000 1.667690 
# 
# From -- ./inp_files/596.got.cif
#   From: 2010.05.17/outbox.cif.g08.bks.cpg/sg123_1_cif.got.tgz:596.got - 2010.05.20 11:43:04.
