data_PCOD9562954
_publ_section_title
;
Structure prediction by ZEFSAII (Michael W. Deem and Ramdas Pophale) SiO2 
 PCOD9562954
Probable space group: P 4/N B M
;
_chemical_formula_sum "Si O2"
_cell_formula_units_Z 96
_cell_length_a 26.797613
_cell_length_b 26.797613
_cell_length_c 7.746744
_cell_angle_alpha 90.000000
_cell_angle_beta 90.000000
_cell_angle_gamma 90.000000
_cell_volume 5563.030311
_symmetry_space_group_name_H-M "P 4/N B M"
_symmetry_group_IT_number 125
_space_group.IT_coordinate_system_code '2'
_symmetry_cell_setting 'tetragonal'
loop_
_space_group_symop_operation_xyz
x,y,z
1/2-y,x,z
1/2-x,1/2-y,z
y,1/2-x,z
x,1/2-y,-z
1/2-x,y,-z
y,x,-z
1/2-y,1/2-x,-z
-x,-y,-z
1/2+y,-x,-z
1/2+x,1/2+y,-z
-y,1/2+x,-z
-x,1/2+y,z
1/2+x,-y,z
-y,-x,z
1/2+y,1/2+x,z
loop_
_atom_site_type_symbol
_atom_site_label
_atom_site_fract_x
_atom_site_fract_y
_atom_site_fract_z
Si Si1 0.692000 0.000151 0.507580
Si Si2 0.879952 0.038602 0.785040
Si Si3 0.610950 0.692883 0.947882
Si Si4 0.853582 0.511458 0.884761
Si Si5 0.886474 0.694898 0.458927
Si Si6 0.544048 0.538603 0.300177
O O1 0.750000 0.013817 0.500000
O O2 0.658849 0.029810 0.369955
O O3 0.673791 0.003824 0.706478
O O4 0.688568 0.940992 0.458081
O O5 0.910894 0.089107 0.761274
O O6 0.920239 0.993441 0.772765
O O7 0.858787 0.032979 0.978160
O O8 0.555853 0.673061 0.994608
O O9 0.606585 0.692707 0.743516
O O10 0.620391 0.750000 0.000000
O O11 0.654762 0.654762 0.000000
O O12 0.906589 0.532187 0.812937
O O13 0.866684 0.750000 0.500000
O O14 0.848161 0.651840 0.500000
O O15 0.553690 0.553690 0.500000
O O16 0.513852 0.486149 0.303713
#
# Coordination Sequence:
#
# PCOD9562954 Si02
#       6
#    16  16  16  16  16  16
#     4  10  24  39  57  82 115 154 192 234 280 347
#     4  11  23  36  59  85 115 148 191 235 285 345
#     4  11  24  37  54  76 101 137 185 248 298 349
#     4  11  23  35  58  79 111 150 192 239 292 340
#     4  10  22  37  57  76 100 140 190 244 296 347
#     4  10  19  34  54  81 114 148 187 237 288 339
#
# _framework density 17.256782000000001
#
# number of rings (size 3 to 8) (size 9 to 14) (size 15 to 20)
#    0.000    1.500    1.667    3.000   14.000    2.333 
#    0.000    1.667    0.000    0.000    0.000    0.000 
#    0.000    0.333    0.000    0.333    0.000    0.000 
#
# Total GULP energy -535976.614553 kJ/mol
# GULP energy per Si atom -5583.089735 kJ/mol
# Density = 1.721751 g / cm^3
# Si number density = 17.256782 Si / 1000 Ang^3
#
#
#
# Elastic Constant Matrix: (Units=GPa)
#
#
# Indices 1 2 3 4 5 6 
#
# 1 88.3890 54.3492 41.8439 0.0000 0.0000 0.0000
# 2 54.3492 88.3908 41.8444 0.0000 0.0000 0.0000
# 3 41.8439 41.8444 93.0521 0.0000 0.0000 0.0000
# 4 0.0000 0.0000 0.0000 23.5511 0.0000 0.0000
# 5 0.0000 0.0000 0.0000 0.0000 23.5524 0.0000
# 6 0.0000 0.0000 0.0000 0.0000 0.0000 18.8455
#
#
#
# Elastic Compliance Matrix: (Units=1/GPa)
#
#
# Indices 1 2 3 4 5 6 
#
# 1 0.019446 -0.009931 -0.004278 0.000000 0.000000 0.000000
# 2 -0.009931 0.019445 -0.004278 0.000000 0.000000 0.000000
# 3 -0.004278 -0.004278 0.014595 0.000000 0.000000 0.000000
# 4 0.000000 0.000000 0.000000 0.042461 0.000000 0.000000
# 5 0.000000 0.000000 0.000000 0.000000 0.042459 0.000000
# 6 0.000000 0.000000 0.000000 0.000000 0.000000 0.053063
#
#
# Mechanical properties :
#
#
# Convention : Reuss Voigt Hill
#
# Bulk Modulus (GPa) = 60.57168 60.65633 60.61401
# Shear Modulus (GPa) = 21.37235 21.97608 21.67422
#
# Velocity S-wave (km/s) = 3.52304 3.57245 3.54783
# Velocity P-wave (km/s) = 7.19204 7.22787 7.20998
#
# Compressibility (1/GPa) = 0.01650937
#
# Stress axis : x y z
#
# Youngs Moduli (GPa) = 51.42554 51.42651 68.51868
#
# Poissons Ratio (x) = 0.51073 0.29315
# Poissons Ratio (y) = 0.51072 0.29315
# Poissons Ratio (z) = 0.22002 0.22002
#
# Static dielectric constant tensor:
#      x y z
#    x 1.554860 0.000000 0.000000 
#    y 0.000000 1.554860 0.000000 
#    z 0.000000 0.000000 1.620660 
# 
# From -- ./inp_files/2854.got.cif
#   From: 2010.05.17/outbox.cif.g08.bks.cpg/sg125_2_cif.got.tgz:2854.got - 2010.05.20 11:54:10.
