data_PCOD9562018
_publ_section_title
;
Structure prediction by ZEFSAII (Michael W. Deem and Ramdas Pophale) SiO2 
 PCOD9562018
Probable space group: P 4/M M M
;
_chemical_formula_sum "Si O2"
_cell_formula_units_Z 104
_cell_length_a 26.618496
_cell_length_b 26.618496
_cell_length_c 7.750449
_cell_angle_alpha 90.000000
_cell_angle_beta 90.000000
_cell_angle_gamma 90.000000
_cell_volume 5491.536688
_symmetry_space_group_name_H-M "P 4/M M M"
_symmetry_group_IT_number 123
_symmetry_cell_setting 'tetragonal'
loop_
_space_group_symop_operation_xyz
x,y,z
-y,x,z
-x,-y,z
y,-x,z
x,-y,-z
-x,y,-z
y,x,-z
-y,-x,-z
-x,-y,-z
y,-x,-z
x,y,-z
-y,x,-z
-x,y,z
x,-y,z
-y,-x,z
y,x,z
loop_
_atom_site_type_symbol
_atom_site_label
_atom_site_fract_x
_atom_site_fract_y
_atom_site_fract_z
Si Si1 0.500000 0.942577 0.793309
Si Si2 0.445610 0.366560 0.707895
Si Si3 0.715496 0.945313 0.293058
Si Si4 0.164092 0.756023 0.207612
Si Si5 0.445625 0.747895 0.201534
Si Si6 0.901718 0.390036 0.295545
Si Si7 0.349181 0.202649 0.803802
O O1 0.447017 0.918505 0.737134
O O2 0.500000 0.000000 0.730253
O O3 0.500000 0.942124 0.000000
O O4 0.441563 0.360509 0.500000
O O5 0.500000 0.390168 0.742535
O O6 0.400948 0.400948 0.770190
O O7 0.445266 0.311850 0.788661
O O8 0.717616 0.946794 0.500000
O O9 0.746375 0.894988 0.244474
O O10 0.656223 0.938561 0.247443
O O11 0.733008 0.000000 0.227012
O O12 0.193774 0.806227 0.266854
O O13 0.193362 0.705974 0.273558
O O14 0.167613 0.755063 0.000000
O O15 0.500000 0.765239 0.274655
O O16 0.393012 0.764912 0.282816
O O17 0.445147 0.763791 0.000000
O O18 0.891857 0.385067 0.500000
O O19 0.851605 0.375634 0.194962
O O20 0.341144 0.221485 0.000000
#
# Coordination Sequence:
#
# PCOD9562018 Si02
#       7
#     8  16  16  16  16  16  16
#     4  11  23  35  47  65  91 125 165 209 254 297
#     4   9  18  32  48  66  87 110 138 177 226 282
#     4   9  18  33  52  73  99 131 166 204 248 298
#     4   9  18  32  49  72 102 133 167 206 245 288
#     4   9  18  31  47  67  90 119 153 192 236 282
#     4  10  20  33  49  70  95 125 162 206 253 296
#     4   9  18  32  49  69  95 128 162 198 241 289
#
# _framework density 18.938233
#
# number of rings (size 3 to 8) (size 9 to 14) (size 15 to 20)
#    0.000    2.692    0.000    1.154    1.077    4.154 
#    0.000    2.308    0.000    0.000    0.000    2.154 
#    0.000    0.308    0.000    3.385    0.000    2.462 
#
# Total GULP energy -578948.076582 kJ/mol
# GULP energy per Si atom -5566.808429 kJ/mol
# Density = 1.889513 g / cm^3
# Si number density = 18.938233 Si / 1000 Ang^3
#
#
#
# Elastic Constant Matrix: (Units=GPa)
#
#
# Indices 1 2 3 4 5 6 
#
# 1 98.9971 67.0173 5.3047 0.0000 0.0000 0.0000
# 2 67.0173 98.9971 5.3047 0.0000 0.0000 0.0000
# 3 5.3047 5.3047 37.1094 0.0000 0.0000 0.0000
# 4 0.0000 0.0000 0.0000 -6.1449 0.0000 0.0000
# 5 0.0000 0.0000 0.0000 0.0000 -6.1449 0.0000
# 6 0.0000 0.0000 0.0000 0.0000 0.0000 32.4426
#
#
#
# Elastic Compliance Matrix: (Units=1/GPa)
#
#
# Indices 1 2 3 4 5 6 
#
# 1 0.018674 -0.012595 -0.000869 0.000000 0.000000 0.000000
# 2 -0.012595 0.018674 -0.000869 0.000000 0.000000 0.000000
# 3 -0.000869 -0.000869 0.027196 0.000000 0.000000 0.000000
# 4 0.000000 0.000000 0.000000 -0.162737 0.000000 0.000000
# 5 0.000000 0.000000 0.000000 0.000000 -0.162737 0.000000
# 6 0.000000 0.000000 0.000000 0.000000 0.000000 0.030824
#
#
# Mechanical properties :
#
#
# Convention : Reuss Voigt Hill
#
# Bulk Modulus (GPa) = 27.87222 43.37299 35.62260
# Shear Modulus (GPa) = -26.38789 14.52905 -5.92942
#
# Velocity S-wave (km/s) = -3.73683 2.77281 -1.77136
# Velocity P-wave (km/s) = 1.96702 5.76223 3.82976
#
# Compressibility (1/GPa) = 0.03587802
#
# Stress axis : x y z
#
# Youngs Moduli (GPa) = 53.54923 53.54923 36.77045
#
# Poissons Ratio (x) = 0.67447 0.03195
# Poissons Ratio (y) = 0.67447 0.03195
# Poissons Ratio (z) = 0.04653 0.04653
#
# Static dielectric constant tensor:
#      x y z
#    x 1.685680 0.000000 0.000000 
#    y 0.000000 1.685680 0.000000 
#    z 0.000000 0.000000 1.716870 
# 
# From -- ./inp_files/1915.got.cif
#   From: 2010.05.17/outbox.cif.g08.bks.cpg/sg123_1_cif.got.tgz:1915.got - 2010.05.20 11:43:04.
