data_PCOD9562281
_publ_section_title
;
Structure prediction by ZEFSAII (Michael W. Deem and Ramdas Pophale) SiO2 
 PCOD9562281
Probable space group: P 4/M M M
;
_chemical_formula_sum "Si O2"
_cell_formula_units_Z 80
_cell_length_a 14.629331
_cell_length_b 14.629331
_cell_length_c 24.507953
_cell_angle_alpha 90.000000
_cell_angle_beta 90.000000
_cell_angle_gamma 90.000000
_cell_volume 5245.126555
_symmetry_space_group_name_H-M "P 4/M M M"
_symmetry_group_IT_number 123
_symmetry_cell_setting 'tetragonal'
loop_
_space_group_symop_operation_xyz
x,y,z
-y,x,z
-x,-y,z
y,-x,z
x,-y,-z
-x,y,-z
y,x,-z
-y,-x,-z
-x,-y,-z
y,-x,-z
x,y,-z
-y,x,-z
-x,y,z
x,-y,z
-y,-x,z
y,x,z
loop_
_atom_site_type_symbol
_atom_site_label
_atom_site_fract_x
_atom_site_fract_y
_atom_site_fract_z
Si Si1 0.607006 0.757669 0.878809
Si Si2 0.607418 0.757932 0.563517
Si Si3 0.389187 0.896896 0.342345
Si Si4 0.606221 0.755584 0.251075
Si Si5 0.894073 0.744667 0.065743
O O1 0.500000 0.749803 0.893284
O O2 0.665511 0.665511 0.890487
O O3 0.612984 0.773837 0.813562
O O4 0.658884 0.839960 0.909036
O O5 0.617739 0.785022 0.500000
O O6 0.500000 0.738520 0.572761
O O7 0.669083 0.669083 0.572996
O O8 0.636517 0.837412 0.604913
O O9 0.500000 0.901911 0.342848
O O10 0.364393 0.840891 0.288057
O O11 0.353701 0.000000 0.343203
O O12 0.500000 0.735734 0.263340
O O13 0.669718 0.669718 0.264157
O O14 0.834792 0.834792 0.080599
O O15 0.000000 0.749462 0.082809
O O16 0.892081 0.737283 0.000000
#
# Coordination Sequence:
#
# PCOD9562281 Si02
#       5
#    16  16  16  16  16
#     4   9  18  31  46  66  92 121 153 187 221 261
#     4   9  17  28  42  61  85 112 141 174 212 255
#     4   9  17  28  41  58  82 112 144 176 209 246
#     4   9  17  29  45  65  89 116 145 177 213 253
#     4   9  18  32  49  69  92 117 147 186 231 276
#
# _framework density 15.252252
#
# number of rings (size 3 to 8) (size 9 to 14) (size 15 to 20)
#    0.000    3.000    0.000    0.600    0.000    2.800 
#    0.000    9.000    0.000    3.600    0.000    2.800 
#    0.000    6.400    0.000    8.800    0.000    0.800 
#
# Total GULP energy -445421.102850 kJ/mol
# GULP energy per Si atom -5567.763786 kJ/mol
# Density = 1.521754 g / cm^3
# Si number density = 15.252252 Si / 1000 Ang^3
#
#
#
# Elastic Constant Matrix: (Units=GPa)
#
#
# Indices 1 2 3 4 5 6 
#
# 1 114.0206 64.1893 42.6151 0.0000 0.0000 0.0000
# 2 64.1893 114.0206 42.6151 0.0000 0.0000 0.0000
# 3 42.6151 42.6151 30.3032 0.0000 0.0000 0.0000
# 4 0.0000 0.0000 0.0000 21.9195 0.0000 0.0000
# 5 0.0000 0.0000 0.0000 0.0000 21.9195 0.0000
# 6 0.0000 0.0000 0.0000 0.0000 0.0000 6.7264
#
#
#
# Elastic Compliance Matrix: (Units=1/GPa)
#
#
# Indices 1 2 3 4 5 6 
#
# 1 0.018603 -0.001465 -0.024100 0.000000 0.000000 0.000000
# 2 -0.001465 0.018603 -0.024100 0.000000 0.000000 0.000000
# 3 -0.024100 -0.024100 0.100785 0.000000 0.000000 0.000000
# 4 0.000000 0.000000 0.000000 0.045621 0.000000 0.000000
# 5 0.000000 0.000000 0.000000 0.000000 0.045621 0.000000
# 6 0.000000 0.000000 0.000000 0.000000 0.000000 0.148668
#
#
# Mechanical properties :
#
#
# Convention : Reuss Voigt Hill
#
# Bulk Modulus (GPa) = 25.86801 61.90928 43.88865
# Shear Modulus (GPa) = 10.20162 17.37476 13.78819
#
# Velocity S-wave (km/s) = 2.58904 3.37881 3.00994
# Velocity P-wave (km/s) = 5.09259 7.47664 6.39666
#
# Compressibility (1/GPa) = 0.03865778
#
# Stress axis : x y z
#
# Youngs Moduli (GPa) = 53.75579 53.75579 9.92216
#
# Poissons Ratio (x) = 0.07875 0.23913
# Poissons Ratio (y) = 0.07875 0.23913
# Poissons Ratio (z) = 1.29554 1.29554
#
# Static dielectric constant tensor:
#      x y z
#    x 1.491880 0.000000 0.000000 
#    y 0.000000 1.491880 0.000000 
#    z 0.000000 0.000000 1.519020 
# 
# From -- ./inp_files/6251.got.cif
#   From: 2010.05.17/outbox.cif.g08.bks.cpg/sg123_4_cif.got.tgz:6251.got - 2010.05.20 11:43:04.
