data_PCOD9562340
_publ_section_title
;
Structure prediction by ZEFSAII (Michael W. Deem and Ramdas Pophale) SiO2 
 PCOD9562340
Probable space group: P 4/M C C
;
_chemical_formula_sum "Si O2"
_cell_formula_units_Z 96
_cell_length_a 15.913812
_cell_length_b 15.913812
_cell_length_c 20.949688
_cell_angle_alpha 90.000000
_cell_angle_beta 90.000000
_cell_angle_gamma 90.000000
_cell_volume 5305.496175
_symmetry_space_group_name_H-M "P 4/M C C"
_symmetry_group_IT_number 124
_symmetry_cell_setting 'tetragonal'
loop_
_space_group_symop_operation_xyz
x,y,z
-y,x,z
-x,-y,z
y,-x,z
x,-y,1/2-z
-x,y,1/2-z
y,x,1/2-z
-y,-x,1/2-z
-x,-y,-z
y,-x,-z
x,y,-z
-y,x,-z
-x,y,1/2+z
x,-y,1/2+z
-y,-x,1/2+z
y,x,1/2+z
loop_
_atom_site_type_symbol
_atom_site_label
_atom_site_fract_x
_atom_site_fract_y
_atom_site_fract_z
Si Si1 0.093404 0.767944 0.076512
Si Si2 0.151549 0.593901 0.876689
Si Si3 0.232055 0.906596 0.923488
Si Si4 0.151549 0.593901 0.623311
Si Si5 0.729121 0.590162 0.500000
Si Si6 0.736450 0.404924 0.750000
Si Si7 0.409838 0.270879 0.500000
O O1 0.098906 0.678266 0.111790
O O2 0.167789 0.832211 0.095201
O O3 1.000000 0.804189 0.086921
O O4 0.102126 0.753136 0.000000
O O5 0.110946 0.500000 0.875273
O O6 0.205444 0.603250 0.812446
O O7 0.213683 0.593593 0.937359
O O8 0.321734 0.901094 0.888210
O O9 0.246864 0.897874 0.000000
O O10 0.205444 0.603250 0.687554
O O11 0.213683 0.593593 0.562641
O O12 0.684162 0.500000 0.500000
O O13 0.666218 0.666218 0.500000
O O14 0.701420 0.500000 0.750000
O O15 0.663996 0.336005 0.750000
#
# Coordination Sequence:
#
# PCOD9562340 Si02
#       7
#    16  16  16  16   8  16   8
#     4  10  20  34  55  81 109 142 178 219 267 321
#     4  10  20  34  53  78 105 138 178 220 265 316
#     4  10  20  34  55  81 109 142 178 219 267 321
#     4  10  20  34  53  78 105 138 178 220 265 316
#     4  10  18  29  47  69  98 134 172 216 261 308
#     4  10  20  33  51  75 106 144 184 226 271 320
#     4  10  18  29  47  69  98 134 172 216 261 308
#
# _framework density 18.094443999999999
#
# number of rings (size 3 to 8) (size 9 to 14) (size 15 to 20)
#    0.000    2.000    1.667    3.000    0.000    1.333 
#    0.000    4.167    0.000    9.000    0.000    0.000 
#    0.000    4.000    0.000    0.000    0.000    0.000 
#
# Total GULP energy -535058.117785 kJ/mol
# GULP energy per Si atom -5573.522060 kJ/mol
# Density = 1.805326 g / cm^3
# Si number density = 18.094444 Si / 1000 Ang^3
#
#
#
# Elastic Constant Matrix: (Units=GPa)
#
#
# Indices 1 2 3 4 5 6 
#
# 1 96.4989 59.8032 20.3321 0.0000 0.0000 0.0000
# 2 59.8032 96.4998 20.3327 0.0000 0.0000 0.0000
# 3 20.3321 20.3327 105.2312 0.0000 0.0000 0.0000
# 4 0.0000 0.0000 0.0000 19.3004 0.0000 0.0000
# 5 0.0000 0.0000 0.0000 0.0000 19.2975 0.0000
# 6 0.0000 0.0000 0.0000 0.0000 0.0000 0.0284
#
#
#
# Elastic Compliance Matrix: (Units=1/GPa)
#
#
# Indices 1 2 3 4 5 6 
#
# 1 0.016994 -0.010257 -0.001302 0.000000 0.000000 0.000000
# 2 -0.010257 0.016994 -0.001302 0.000000 0.000000 0.000000
# 3 -0.001302 -0.001302 0.010006 0.000000 0.000000 0.000000
# 4 0.000000 0.000000 0.000000 0.051812 0.000000 0.000000
# 5 0.000000 0.000000 0.000000 0.000000 0.051820 0.000000
# 6 0.000000 0.000000 0.000000 0.000000 0.000000 35.241565
#
#
# Mechanical properties :
#
#
# Convention : Reuss Voigt Hill
#
# Bulk Modulus (GPa) = 54.72728 55.46291 55.09510
# Shear Modulus (GPa) = 0.14116 20.90937 10.52527
#
# Velocity S-wave (km/s) = 0.27961 3.40305 2.41443
# Velocity P-wave (km/s) = 5.51500 6.79408 6.18768
#
# Compressibility (1/GPa) = 0.01827242
#
# Stress axis : x y z
#
# Youngs Moduli (GPa) = 58.84531 58.84573 99.94138
#
# Poissons Ratio (x) = 0.60359 0.13008
# Poissons Ratio (y) = 0.60359 0.13009
# Poissons Ratio (z) = 0.07659 0.07660
#
# Static dielectric constant tensor:
#      x y z
#    x 1.631500 0.000000 0.000000 
#    y 0.000000 1.631500 0.000000 
#    z 0.000000 0.000000 1.584380 
# 
# From -- ./inp_files/5346.got.cif
#   From: 2010.05.17/outbox.cif.g08.bks.cpg/sg124_3_cif.got.tgz:5346.got - 2010.05.20 11:49:17.
