data_PCOD9562536
_publ_section_title
;
Structure prediction by ZEFSAII (Michael W. Deem and Ramdas Pophale) SiO2 
 PCOD9562536
Probable space group: P 4/M C C
;
_chemical_formula_sum "Si O2"
_cell_formula_units_Z 80
_cell_length_a 16.315146
_cell_length_b 16.315146
_cell_length_c 15.610264
_cell_angle_alpha 90.000000
_cell_angle_beta 90.000000
_cell_angle_gamma 90.000000
_cell_volume 4155.202341
_symmetry_space_group_name_H-M "P 4/M C C"
_symmetry_group_IT_number 124
_symmetry_cell_setting 'tetragonal'
loop_
_space_group_symop_operation_xyz
x,y,z
-y,x,z
-x,-y,z
y,-x,z
x,-y,1/2-z
-x,y,1/2-z
y,x,1/2-z
-y,-x,1/2-z
-x,-y,-z
y,-x,-z
x,y,-z
-y,x,-z
-x,y,1/2+z
x,-y,1/2+z
-y,-x,1/2+z
y,x,1/2+z
loop_
_atom_site_type_symbol
_atom_site_label
_atom_site_fract_x
_atom_site_fract_y
_atom_site_fract_z
Si Si1 0.364028 0.207985 0.895352
Si Si2 0.584894 0.029687 0.348930
Si Si3 0.014755 0.239125 0.149297
Si Si4 0.620499 0.555197 0.395470
Si Si5 0.183587 0.160149 0.099961
O O1 0.407748 0.127550 0.857660
O O2 0.405144 0.293559 0.868783
O O3 0.268948 0.199096 0.867678
O O4 0.366858 0.202540 0.000000
O O5 0.668529 0.992128 0.387296
O O6 0.500000 0.000000 0.388876
O O7 0.583606 0.000000 0.250000
O O8 0.937662 0.189561 0.112219
O O9 0.000000 0.245171 0.250000
O O10 0.101921 0.197634 0.138246
O O11 0.539262 0.605687 0.368652
O O12 0.620642 0.555490 0.500000
O O13 0.180101 0.178355 0.000000
#
# Coordination Sequence:
#
# PCOD9562536 Si02
#       5
#    16  16  16  16  16
#     4   9  18  31  49  76 106 135 171 213 254 300
#     4   9  19  35  52  71 100 133 169 210 254 302
#     4  10  20  35  54  74  99 132 172 209 248 305
#     4   8  14  26  45  72 108 143 171 203 245 296
#     4  10  20  34  51  74 104 133 165 211 261 301
#
# _framework density 19.252973000000001
#
# number of rings (size 3 to 8) (size 9 to 14) (size 15 to 20)
#    0.000    2.800    0.000    1.800    0.000    3.200 
#    0.000    4.000    0.000    0.000    0.000    0.000 
#    0.000    6.400    0.000    0.000    0.000    0.000 
#
# Total GULP energy -446000.504081 kJ/mol
# GULP energy per Si atom -5575.006301 kJ/mol
# Density = 1.920915 g / cm^3
# Si number density = 19.252973 Si / 1000 Ang^3
#
#
#
# Elastic Constant Matrix: (Units=GPa)
#
#
# Indices 1 2 3 4 5 6 
#
# 1 183.9536 133.7620 18.1163 0.0000 0.0000 0.0000
# 2 133.7620 183.9536 18.1163 0.0000 0.0000 0.0000
# 3 18.1163 18.1163 25.4147 0.0000 0.0000 0.0000
# 4 0.0000 0.0000 0.0000 11.9900 0.0000 0.0000
# 5 0.0000 0.0000 0.0000 0.0000 11.9900 0.0000
# 6 0.0000 0.0000 0.0000 0.0000 0.0000 29.3352
#
#
#
# Elastic Compliance Matrix: (Units=1/GPa)
#
#
# Indices 1 2 3 4 5 6 
#
# 1 0.011675 -0.008249 -0.002442 0.000000 0.000000 0.000000
# 2 -0.008249 0.011675 -0.002442 0.000000 0.000000 0.000000
# 3 -0.002442 -0.002442 0.042829 0.000000 0.000000 0.000000
# 4 0.000000 0.000000 0.000000 0.083403 0.000000 0.000000
# 5 0.000000 0.000000 0.000000 0.000000 0.083403 0.000000
# 6 0.000000 0.000000 0.000000 0.000000 0.000000 0.034089
#
#
# Mechanical properties :
#
#
# Convention : Reuss Voigt Hill
#
# Bulk Modulus (GPa) = 25.05487 81.47898 53.26693
# Shear Modulus (GPa) = 16.30557 25.55152 20.92855
#
# Velocity S-wave (km/s) = 2.91333 3.64695 3.30059
# Velocity P-wave (km/s) = 4.93543 7.75537 6.50016
#
# Compressibility (1/GPa) = 0.03991239
#
# Stress axis : x y z
#
# Youngs Moduli (GPa) = 85.65452 85.65452 23.34870
#
# Poissons Ratio (x) = 0.70655 0.05702
# Poissons Ratio (y) = 0.70655 0.05702
# Poissons Ratio (z) = 0.20918 0.20918
#
# Static dielectric constant tensor:
#      x y z
#    x 1.596670 0.000000 0.000000 
#    y 0.000000 1.596670 0.000000 
#    z 0.000000 0.000000 1.731310 
# 
# From -- ./inp_files/5070.got.cif
#   From: 2010.05.17/outbox.cif.g08.bks.cpg/sg124_3_cif.got.tgz:5070.got - 2010.05.20 11:49:17.
