data_PCOD9562750
_publ_section_title
;
Structure prediction by ZEFSAII (Michael W. Deem and Ramdas Pophale) SiO2 
 PCOD9562750
Probable space group: P 4/M C C
;
_chemical_formula_sum "Si O2"
_cell_formula_units_Z 96
_cell_length_a 24.139316
_cell_length_b 24.139316
_cell_length_c 9.568163
_cell_angle_alpha 90.000000
_cell_angle_beta 90.000000
_cell_angle_gamma 90.000000
_cell_volume 5575.431509
_symmetry_space_group_name_H-M "P 4/M C C"
_symmetry_group_IT_number 124
_symmetry_cell_setting 'tetragonal'
loop_
_space_group_symop_operation_xyz
x,y,z
-y,x,z
-x,-y,z
y,-x,z
x,-y,1/2-z
-x,y,1/2-z
y,x,1/2-z
-y,-x,1/2-z
-x,-y,-z
y,-x,-z
x,y,-z
-y,x,-z
-x,y,1/2+z
x,-y,1/2+z
-y,-x,1/2+z
y,x,1/2+z
loop_
_atom_site_type_symbol
_atom_site_label
_atom_site_fract_x
_atom_site_fract_y
_atom_site_fract_z
Si Si1 0.290168 0.946560 0.161996
Si Si2 0.946073 0.575004 0.841608
Si Si3 0.272463 0.272463 0.250000
Si Si4 0.158675 0.705507 0.162124
Si Si5 0.315776 0.344001 0.500000
Si Si6 0.540926 0.746731 0.000000
Si Si7 0.824172 0.581768 0.740041
Si Si8 0.740806 0.584703 0.000000
O O1 0.357616 0.945808 0.155300
O O2 0.274066 0.895875 0.261279
O O3 0.273330 0.000000 0.250000
O O4 0.271390 0.944735 0.000000
O O5 0.884129 0.559477 0.789381
O O6 0.000000 0.559906 0.750000
O O7 0.952740 0.554731 0.000000
O O8 0.279311 0.207690 0.268818
O O9 0.286424 0.315827 0.369212
O O10 0.160309 0.638820 0.162228
O O11 0.165490 0.724040 0.000000
O O12 0.299006 0.409114 0.500000
O O13 0.376375 0.314076 0.500000
O O14 0.546558 0.787653 0.132317
O O15 0.479392 0.722338 0.000000
O O16 0.781886 0.593980 0.868189
#
# Coordination Sequence:
#
# PCOD9562750 Si02
#       8
#    16  16   8  16   8   8  16   8
#     4   9  18  29  45  70 104 144 188 226 264 311
#     4   9  18  29  49  76 103 141 181 217 256 296
#     4  12  20  32  54  80 110 139 168 219 278 332
#     4  11  20  31  50  76 108 140 176 223 275 326
#     4  12  22  40  58  83 108 134 168 210 266 343
#     4  12  24  40  57  87 105 137 172 213 277 330
#     4  11  20  36  54  79 108 139 176 216 266 317
#     4  12  24  38  63  79 109 137 168 217 265 340
#
# _framework density 17.218399000000002
#
# number of rings (size 3 to 8) (size 9 to 14) (size 15 to 20)
#    0.000    1.333    5.833    1.000    3.500    2.000 
#    0.000    0.000    0.000    3.250    0.000    0.000 
#    0.000    4.000    0.000    0.000    0.000    1.250 
#
# Total GULP energy -534815.897517 kJ/mol
# GULP energy per Si atom -5570.998932 kJ/mol
# Density = 1.717921 g / cm^3
# Si number density = 17.218399 Si / 1000 Ang^3
#
#
#
# Elastic Constant Matrix: (Units=GPa)
#
#
# Indices 1 2 3 4 5 6 
#
# 1 96.2479 36.2818 21.9389 0.0000 0.0000 0.0000
# 2 36.2818 96.2479 21.9389 0.0000 0.0000 0.0000
# 3 21.9389 21.9389 92.3457 0.0000 0.0000 0.0000
# 4 0.0000 0.0000 0.0000 12.1763 0.0000 0.0000
# 5 0.0000 0.0000 0.0000 0.0000 12.1763 0.0000
# 6 0.0000 0.0000 0.0000 0.0000 0.0000 1.0599
#
#
#
# Elastic Compliance Matrix: (Units=1/GPa)
#
#
# Indices 1 2 3 4 5 6 
#
# 1 0.012433 -0.004243 -0.001946 0.000000 0.000000 0.000000
# 2 -0.004243 0.012433 -0.001946 0.000000 0.000000 0.000000
# 3 -0.001946 -0.001946 0.011753 0.000000 0.000000 0.000000
# 4 0.000000 0.000000 0.000000 0.082126 0.000000 0.000000
# 5 0.000000 0.000000 0.000000 0.000000 0.082126 0.000000
# 6 0.000000 0.000000 0.000000 0.000000 0.000000 0.943464
#
#
# Mechanical properties :
#
#
# Convention : Reuss Voigt Hill
#
# Bulk Modulus (GPa) = 49.13993 49.46230 49.30111
# Shear Modulus (GPa) = 4.28307 18.72797 11.50552
#
# Velocity S-wave (km/s) = 1.57889 3.30157 2.58778
# Velocity P-wave (km/s) = 5.65022 6.58199 6.13382
#
# Compressibility (1/GPa) = 0.02035005
#
# Stress axis : x y z
#
# Youngs Moduli (GPa) = 80.43194 80.43194 85.08211
#
# Poissons Ratio (x) = 0.34129 0.16554
# Poissons Ratio (y) = 0.34129 0.16554
# Poissons Ratio (z) = 0.15649 0.15649
#
# Static dielectric constant tensor:
#      x y z
#    x 1.616920 0.000000 0.000000 
#    y 0.000000 1.616920 0.000000 
#    z 0.000000 0.000000 1.629950 
# 
# From -- ./inp_files/1458.got.cif
#   From: 2010.05.17/outbox.cif.g08.bks.cpg/sg124_1_cif.got.tgz:1458.got - 2010.05.20 11:49:17.
