data_PCOD9562410
_publ_section_title
;
Structure prediction by ZEFSAII (Michael W. Deem and Ramdas Pophale) SiO2 
 PCOD9562410
Probable space group: P 4/M C C
;
_chemical_formula_sum "Si O2"
_cell_formula_units_Z 96
_cell_length_a 17.313608
_cell_length_b 17.313608
_cell_length_c 16.982301
_cell_angle_alpha 90.000000
_cell_angle_beta 90.000000
_cell_angle_gamma 90.000000
_cell_volume 5090.631903
_symmetry_space_group_name_H-M "P 4/M C C"
_symmetry_group_IT_number 124
_symmetry_cell_setting 'tetragonal'
loop_
_space_group_symop_operation_xyz
x,y,z
-y,x,z
-x,-y,z
y,-x,z
x,-y,1/2-z
-x,y,1/2-z
y,x,1/2-z
-y,-x,1/2-z
-x,-y,-z
y,-x,-z
x,y,-z
-y,x,-z
-x,y,1/2+z
x,-y,1/2+z
-y,-x,1/2+z
y,x,1/2+z
loop_
_atom_site_type_symbol
_atom_site_label
_atom_site_fract_x
_atom_site_fract_y
_atom_site_fract_z
Si Si1 0.540738 0.807790 0.590076
Si Si2 0.223410 0.001617 0.846059
Si Si3 0.837283 0.155162 0.155443
Si Si4 0.678356 0.778806 0.304081
Si Si5 0.389607 0.018920 0.411173
Si Si6 0.126074 0.573482 0.806694
O O1 0.539054 0.783268 0.500000
O O2 0.604283 0.762921 0.641663
O O3 0.456074 0.811763 0.629047
O O4 0.571277 0.897285 0.592837
O O5 0.200398 0.087469 0.872857
O O6 0.300091 0.974946 0.890333
O O7 0.233896 0.000000 0.750000
O O8 0.162490 0.934688 0.866871
O O9 0.843766 0.156235 0.250000
O O10 0.752272 0.192713 0.144714
O O11 0.709638 0.709638 0.250000
O O12 0.647194 0.845029 0.242982
O O13 0.402141 0.989399 0.500000
O O14 0.416212 0.955552 0.348542
O O15 0.121060 0.500000 0.750000
#
# Coordination Sequence:
#
# PCOD9562410 Si02
#       6
#    16  16  16  16  16  16
#     4  10  21  35  51  75 110 141 170 219 275 324
#     4  10  19  32  52  69  97 138 181 238 276 320
#     4   9  17  30  48  72  95 127 183 236 280 314
#     4  10  19  35  53  78 106 141 183 219 260 326
#     4  11  21  33  48  75 106 134 173 220 274 329
#     4  10  21  33  54  77 103 137 174 214 260 322
#
# _framework density 18.858170000000001
#
# number of rings (size 3 to 8) (size 9 to 14) (size 15 to 20)
#    0.000    2.000    1.667    4.000    2.333    3.667 
#    0.000    6.667    0.000    0.000    0.000    1.167 
#    0.000   27.000    0.000   13.500    0.000    0.000 
#
# Total GULP energy -535295.620991 kJ/mol
# GULP energy per Si atom -5575.996052 kJ/mol
# Density = 1.881525 g / cm^3
# Si number density = 18.858170 Si / 1000 Ang^3
#
#
#
# Elastic Constant Matrix: (Units=GPa)
#
#
# Indices 1 2 3 4 5 6 
#
# 1 50.2167 6.3624 2.7450 0.0000 0.0000 0.0000
# 2 6.3624 50.2163 2.7449 0.0000 0.0000 0.0000
# 3 2.7450 2.7449 61.1497 0.0000 0.0000 0.0000
# 4 0.0000 0.0000 0.0000 10.8817 0.0000 0.0000
# 5 0.0000 0.0000 0.0000 0.0000 10.8817 0.0000
# 6 0.0000 0.0000 0.0000 0.0000 0.0000 20.2626
#
#
#
# Elastic Compliance Matrix: (Units=1/GPa)
#
#
# Indices 1 2 3 4 5 6 
#
# 1 0.020277 -0.002526 -0.000797 0.000000 0.000000 0.000000
# 2 -0.002526 0.020277 -0.000797 0.000000 0.000000 0.000000
# 3 -0.000797 -0.000797 0.016425 0.000000 0.000000 0.000000
# 4 0.000000 0.000000 0.000000 0.091898 0.000000 0.000000
# 5 0.000000 0.000000 0.000000 0.000000 0.091897 0.000000
# 6 0.000000 0.000000 0.000000 0.000000 0.000000 0.049352
#
#
# Mechanical properties :
#
#
# Convention : Reuss Voigt Hill
#
# Bulk Modulus (GPa) = 20.51664 20.58747 20.55205
# Shear Modulus (GPa) = 15.89258 18.38722 17.13990
#
# Velocity S-wave (km/s) = 2.90615 3.12593 3.01804
# Velocity P-wave (km/s) = 4.70787 4.89584 4.80278
#
# Compressibility (1/GPa) = 0.04874093
#
# Stress axis : x y z
#
# Youngs Moduli (GPa) = 49.31635 49.31602 60.88334
#
# Poissons Ratio (x) = 0.12455 0.04852
# Poissons Ratio (y) = 0.12455 0.04851
# Poissons Ratio (z) = 0.03930 0.03930
#
# Static dielectric constant tensor:
#      x y z
#    x 1.695400 0.000000 0.000000 
#    y 0.000000 1.695400 0.000000 
#    z 0.000000 0.000000 1.717120 
# 
# From -- ./inp_files/4243.got.cif
#   From: 2010.05.17/outbox.cif.g08.bks.cpg/sg124_3_cif.got.tgz:4243.got - 2010.05.20 11:49:17.
