data_PCOD9562984
_publ_section_title
;
Structure prediction by ZEFSAII (Michael W. Deem and Ramdas Pophale) SiO2 
 PCOD9562984
Probable space group: P 4/N B M
;
_chemical_formula_sum "Si O2"
_cell_formula_units_Z 88
_cell_length_a 18.031378
_cell_length_b 18.031378
_cell_length_c 13.148214
_cell_angle_alpha 90.000000
_cell_angle_beta 90.000000
_cell_angle_gamma 90.000000
_cell_volume 4274.886609
_symmetry_space_group_name_H-M "P 4/N B M"
_symmetry_group_IT_number 125
_space_group.IT_coordinate_system_code '2'
_symmetry_cell_setting 'tetragonal'
loop_
_space_group_symop_operation_xyz
x,y,z
1/2-y,x,z
1/2-x,1/2-y,z
y,1/2-x,z
x,1/2-y,-z
1/2-x,y,-z
y,x,-z
1/2-y,1/2-x,-z
-x,-y,-z
1/2+y,-x,-z
1/2+x,1/2+y,-z
-y,1/2+x,-z
-x,1/2+y,z
1/2+x,-y,z
-y,-x,z
1/2+y,1/2+x,z
loop_
_atom_site_type_symbol
_atom_site_label
_atom_site_fract_x
_atom_site_fract_y
_atom_site_fract_z
Si Si1 0.664356 0.456971 0.027122
Si Si2 0.510352 0.884825 0.447998
Si Si3 0.631617 0.254187 0.274892
Si Si4 0.750000 0.420394 0.500000
Si Si5 0.472380 0.100007 0.776184
Si Si6 0.481515 0.639957 0.200991
O O1 0.619138 0.380863 0.042414
O O2 0.646972 0.510932 0.122225
O O3 0.750000 0.442992 0.000000
O O4 0.634057 0.488758 0.920823
O O5 0.584022 0.915979 0.500000
O O6 0.472265 0.821126 0.512194
O O7 0.516564 0.858947 0.331144
O O8 0.452586 0.952586 0.444456
O O9 0.665289 0.334712 0.244197
O O10 0.694381 0.194381 0.245129
O O11 0.625040 0.256684 0.396685
O O12 0.555515 0.218663 0.231374
O O13 0.533093 0.033093 0.782345
O O14 0.392379 0.059978 0.763425
O O15 0.419693 0.580308 0.236993
#
# Coordination Sequence:
#
# PCOD9562984 Si02
#       6
#    16  16  16   8  16  16
#     4  10  21  34  52  80 116 155 196 243 303 372
#     4  10  21  37  57  83 113 148 194 249 304 363
#     4  10  20  32  49  79 116 154 193 233 289 365
#     4  12  22  33  54  79 112 152 194 240 294 352
#     4   9  18  35  57  78 106 147 200 257 306 353
#     4   9  18  34  55  77 107 152 197 241 293 351
#
# _framework density 20.585341
#
# number of rings (size 3 to 8) (size 9 to 14) (size 15 to 20)
#    0.000    2.182    0.000    3.273    2.545    6.727 
#    0.000    1.818    0.000    0.273    0.000    0.000 
#    0.000    5.818    0.000    0.000    0.000    0.000 
#
# Total GULP energy -490652.595903 kJ/mol
# GULP energy per Si atom -5575.597681 kJ/mol
# Density = 2.053849 g / cm^3
# Si number density = 20.585341 Si / 1000 Ang^3
#
#
#
# Elastic Constant Matrix: (Units=GPa)
#
#
# Indices 1 2 3 4 5 6 
#
# 1 63.8579 44.6496 27.0838 0.0000 0.0000 0.0000
# 2 44.6496 63.8608 27.0844 0.0000 0.0000 0.0000
# 3 27.0838 27.0844 97.7485 0.0000 0.0000 0.0000
# 4 0.0000 0.0000 0.0000 20.5594 0.0000 0.0000
# 5 0.0000 0.0000 0.0000 0.0000 20.5618 0.0000
# 6 0.0000 0.0000 0.0000 0.0000 0.0000 39.0046
#
#
#
# Elastic Compliance Matrix: (Units=1/GPa)
#
#
# Indices 1 2 3 4 5 6 
#
# 1 0.031377 -0.020681 -0.002963 0.000000 0.000000 0.000000
# 2 -0.020681 0.031375 -0.002963 0.000000 0.000000 0.000000
# 3 -0.002963 -0.002963 0.011873 0.000000 0.000000 0.000000
# 4 0.000000 0.000000 0.000000 0.048640 0.000000 0.000000
# 5 0.000000 0.000000 0.000000 0.000000 0.048634 0.000000
# 6 0.000000 0.000000 0.000000 0.000000 0.000000 0.025638
#
#
# Mechanical properties :
#
#
# Convention : Reuss Voigt Hill
#
# Bulk Modulus (GPa) = 46.70881 47.01143 46.86012
# Shear Modulus (GPa) = 19.38826 24.46845 21.92836
#
# Velocity S-wave (km/s) = 3.07228 3.45140 3.26734
# Velocity P-wave (km/s) = 5.94347 6.22654 6.08665
#
# Compressibility (1/GPa) = 0.02140924
#
# Stress axis : x y z
#
# Youngs Moduli (GPa) = 31.87068 31.87218 84.22798
#
# Poissons Ratio (x) = 0.65914 0.24961
# Poissons Ratio (y) = 0.65911 0.24960
# Poissons Ratio (z) = 0.09445 0.09445
#
# Static dielectric constant tensor:
#      x y z
#    x 1.767150 0.000000 0.000000 
#    y 0.000000 1.767150 0.000000 
#    z 0.000000 0.000000 1.784790 
# 
# From -- ./inp_files/4855.got.cif
#   From: 2010.05.17/outbox.cif.g08.bks.cpg/sg125_3_cif.got.tgz:4855.got - 2010.05.20 11:54:10.
