data_PCOD9562247
_publ_section_title
;
Structure prediction by ZEFSAII (Michael W. Deem and Ramdas Pophale) SiO2 
 PCOD9562247
Probable space group: P 4/M M M
;
_chemical_formula_sum "Si O2"
_cell_formula_units_Z 96
_cell_length_a 24.410170
_cell_length_b 24.410170
_cell_length_c 8.849186
_cell_angle_alpha 90.000000
_cell_angle_beta 90.000000
_cell_angle_gamma 90.000000
_cell_volume 5272.844108
_symmetry_space_group_name_H-M "P 4/M M M"
_symmetry_group_IT_number 123
_symmetry_cell_setting 'tetragonal'
loop_
_space_group_symop_operation_xyz
x,y,z
-y,x,z
-x,-y,z
y,-x,z
x,-y,-z
-x,y,-z
y,x,-z
-y,-x,-z
-x,-y,-z
y,-x,-z
x,y,-z
-y,x,-z
-x,y,z
x,-y,z
-y,-x,z
y,x,z
loop_
_atom_site_type_symbol
_atom_site_label
_atom_site_fract_x
_atom_site_fract_y
_atom_site_fract_z
Si Si1 0.561931 0.919204 0.327591
Si Si2 0.138287 0.745742 0.675390
Si Si3 0.763253 0.322186 0.820369
Si Si4 0.848627 0.936173 0.316058
Si Si5 0.787054 0.439004 0.675962
Si Si6 0.331181 0.938596 0.167482
O O1 0.576783 0.934949 0.500000
O O2 0.500000 0.937069 0.299645
O O3 0.562380 0.853198 0.321086
O O4 0.605092 0.939325 0.206535
O O5 0.151229 0.754583 0.500000
O O6 0.191251 0.720349 0.756352
O O7 0.105530 0.799695 0.733056
O O8 0.094728 0.697615 0.701180
O O9 0.704959 0.295042 0.782966
O O10 0.768718 0.383553 0.757435
O O11 0.769895 0.323943 0.000000
O O12 0.845292 0.937561 0.500000
O O13 0.905708 0.905708 0.276400
O O14 0.844081 0.000000 0.265456
O O15 0.770586 0.436072 0.500000
O O16 0.770643 0.500000 0.734225
O O17 0.309453 0.000000 0.167373
O O18 0.321750 0.914516 0.000000
#
# Coordination Sequence:
#
# PCOD9562247 Si02
#       6
#    16  16  16  16  16  16
#     4   9  18  33  52  73  97 129 172 219 265 312
#     4  11  21  35  54  75 102 138 178 218 262 316
#     4  11  23  36  53  82 116 146 180 221 265 316
#     4   9  18  32  51  76 102 128 162 206 260 323
#     4   9  18  34  56  81 108 141 182 224 266 314
#     4  11  23  35  48  70 100 133 173 221 270 319
#
# _framework density 18.206492000000001
#
# number of rings (size 3 to 8) (size 9 to 14) (size 15 to 20)
#    0.000    2.000    1.667    3.500    0.000    5.167 
#    0.000    4.167    0.000    0.000    0.000    0.000 
#    0.000    0.333    0.000   14.000    0.000   13.333 
#
# Total GULP energy -535093.643258 kJ/mol
# GULP energy per Si atom -5573.892117 kJ/mol
# Density = 1.816505 g / cm^3
# Si number density = 18.206492 Si / 1000 Ang^3
#
#
#
# Elastic Constant Matrix: (Units=GPa)
#
#
# Indices 1 2 3 4 5 6 
#
# 1 100.6316 69.9660 30.6494 0.0000 0.0000 0.0000
# 2 69.9660 100.6316 30.6494 0.0000 0.0000 0.0000
# 3 30.6494 30.6494 34.3654 0.0000 0.0000 0.0000
# 4 0.0000 0.0000 0.0000 14.0423 0.0000 0.0000
# 5 0.0000 0.0000 0.0000 0.0000 14.0423 0.0000
# 6 0.0000 0.0000 0.0000 0.0000 0.0000 -69.0316
#
#
#
# Elastic Compliance Matrix: (Units=1/GPa)
#
#
# Indices 1 2 3 4 5 6 
#
# 1 0.020618 -0.011992 -0.007693 0.000000 0.000000 0.000000
# 2 -0.011992 0.020618 -0.007693 0.000000 0.000000 0.000000
# 3 -0.007693 -0.007693 0.042822 0.000000 0.000000 0.000000
# 4 0.000000 0.000000 0.000000 0.071213 0.000000 0.000000
# 5 0.000000 0.000000 0.000000 0.000000 0.071213 0.000000
# 6 0.000000 0.000000 0.000000 0.000000 0.000000 -0.014486
#
#
# Mechanical properties :
#
#
# Convention : Reuss Voigt Hill
#
# Bulk Modulus (GPa) = 34.12880 55.35092 44.73986
# Shear Modulus (GPa) = 18.08172 -1.23180 8.42496
#
# Velocity S-wave (km/s) = 3.15484 -0.82343 2.15348
# Velocity P-wave (km/s) = 5.66187 5.43725 5.55070
#
# Compressibility (1/GPa) = 0.02930077
#
# Stress axis : x y z
#
# Youngs Moduli (GPa) = 48.50141 48.50141 23.35247
#
# Poissons Ratio (x) = 0.58162 0.17966
# Poissons Ratio (y) = 0.58162 0.17966
# Poissons Ratio (z) = 0.37314 0.37314
#
# Static dielectric constant tensor:
#      x y z
#    x 1.650670 0.000000 0.000000 
#    y 0.000000 1.650670 0.000000 
#    z 0.000000 0.000000 1.630410 
# 
# From -- ./inp_files/1609.got.cif
#   From: 2010.05.17/outbox.cif.g08.bks.cpg/sg123_1_cif.got.tgz:1609.got - 2010.05.20 11:43:04.
