data_PCOD9562222
_publ_section_title
;
Structure prediction by ZEFSAII (Michael W. Deem and Ramdas Pophale) SiO2 
 PCOD9562222
Probable space group: P 4/M M M
;
_chemical_formula_sum "Si O2"
_cell_formula_units_Z 96
_cell_length_a 25.438829
_cell_length_b 25.438829
_cell_length_c 7.695549
_cell_angle_alpha 90.000000
_cell_angle_beta 90.000000
_cell_angle_gamma 90.000000
_cell_volume 4980.051567
_symmetry_space_group_name_H-M "P 4/M M M"
_symmetry_group_IT_number 123
_symmetry_cell_setting 'tetragonal'
loop_
_space_group_symop_operation_xyz
x,y,z
-y,x,z
-x,-y,z
y,-x,z
x,-y,-z
-x,y,-z
y,x,-z
-y,-x,-z
-x,-y,-z
y,-x,-z
x,y,-z
-y,x,-z
-x,y,z
x,-y,z
-y,-x,z
y,x,z
loop_
_atom_site_type_symbol
_atom_site_label
_atom_site_fract_x
_atom_site_fract_y
_atom_site_fract_z
Si Si1 0.559943 0.645251 0.291589
Si Si2 0.356097 0.729230 0.790523
Si Si3 0.500000 0.063486 0.302714
Si Si4 0.156861 0.319751 0.212397
Si Si5 0.615209 0.940829 0.202938
Si Si6 0.939408 0.849480 0.500000
Si Si7 0.793908 0.117163 0.196701
O O1 0.557621 0.639559 0.500000
O O2 0.500000 0.643131 0.225576
O O3 0.598541 0.598541 0.225354
O O4 0.589566 0.700275 0.255615
O O5 0.309777 0.690224 0.728437
O O6 0.344617 0.788171 0.727065
O O7 0.353522 0.730541 0.000000
O O8 0.500000 0.082643 0.500000
O O9 0.445312 0.077262 0.214961
O O10 0.500000 0.000000 0.304312
O O11 0.105373 0.349869 0.279144
O O12 0.147340 0.258823 0.253539
O O13 0.157896 0.323398 0.000000
O O14 0.620249 0.000000 0.278222
O O15 0.628856 0.945082 0.000000
O O16 0.899214 0.899214 0.500000
O O17 0.925835 0.813744 0.332466
O O18 0.000000 0.865798 0.500000
O O19 0.839687 0.160313 0.190114
O O20 0.785462 0.096579 0.000000
#
# Coordination Sequence:
#
# PCOD9562222 Si02
#       7
#    16  16   8  16  16   8  16
#     4   9  18  33  51  72 100 133 170 213 263 318
#     4   9  17  31  51  73  99 131 166 207 256 311
#     4   9  17  31  47  61  83 119 159 199 246 293
#     4   9  17  31  52  78 103 132 173 213 259 320
#     4   9  17  30  48  68  91 122 162 206 249 299
#     4  10  22  39  58  86 118 151 195 235 278 336
#     4   9  18  35  58  82 113 149 183 227 278 329
#
# _framework density 19.276907999999999
#
# number of rings (size 3 to 8) (size 9 to 14) (size 15 to 20)
#    0.000    2.917    0.000    0.750    0.000    4.583 
#    4.500    2.500    0.000    0.000    0.000    4.667 
#    0.000    0.000    0.000    0.000    0.000    0.000 
#
# Total GULP energy -534868.345528 kJ/mol
# GULP energy per Si atom -5571.545266 kJ/mol
# Density = 1.923303 g / cm^3
# Si number density = 19.276908 Si / 1000 Ang^3
#
#
#
# Elastic Constant Matrix: (Units=GPa)
#
#
# Indices 1 2 3 4 5 6 
#
# 1 93.4892 67.5576 22.9417 0.0000 0.0000 0.0000
# 2 67.5576 93.4892 22.9417 0.0000 0.0000 0.0000
# 3 22.9417 22.9417 48.2981 0.0000 0.0000 0.0000
# 4 0.0000 0.0000 0.0000 11.2515 0.0000 0.0000
# 5 0.0000 0.0000 0.0000 0.0000 11.2515 0.0000
# 6 0.0000 0.0000 0.0000 0.0000 0.0000 -1.5806
#
#
#
# Elastic Compliance Matrix: (Units=1/GPa)
#
#
# Indices 1 2 3 4 5 6 
#
# 1 0.022872 -0.015691 -0.003411 0.000000 0.000000 0.000000
# 2 -0.015691 0.022872 -0.003411 0.000000 0.000000 0.000000
# 3 -0.003411 -0.003411 0.023945 0.000000 0.000000 0.000000
# 4 0.000000 0.000000 0.000000 0.088877 0.000000 0.000000
# 5 0.000000 0.000000 0.000000 0.000000 0.088877 0.000000
# 6 0.000000 0.000000 0.000000 0.000000 0.000000 -0.632671
#
#
# Mechanical properties :
#
#
# Convention : Reuss Voigt Hill
#
# Bulk Modulus (GPa) = 40.54600 51.35097 45.94849
# Shear Modulus (GPa) = -15.06114 12.30684 -1.37715
#
# Velocity S-wave (km/s) = -2.79822 2.52945 -0.84614
# Velocity P-wave (km/s) = 3.26176 5.93525 4.78886
#
# Compressibility (1/GPa) = 0.02466334
#
# Stress axis : x y z
#
# Youngs Moduli (GPa) = 43.72128 43.72128 41.76186
#
# Poissons Ratio (x) = 0.68603 0.14245
# Poissons Ratio (y) = 0.68603 0.14245
# Poissons Ratio (z) = 0.14914 0.14914
#
# Static dielectric constant tensor:
#      x y z
#    x 1.666470 0.000000 0.000000 
#    y 0.000000 1.666470 0.000000 
#    z 0.000000 0.000000 1.723810 
# 
# From -- ./inp_files/1678.got.cif
#   From: 2010.05.17/outbox.cif.g08.bks.cpg/sg123_1_cif.got.tgz:1678.got - 2010.05.20 11:43:04.
