data_PCOD9562463
_publ_section_title
;
Structure prediction by ZEFSAII (Michael W. Deem and Ramdas Pophale) SiO2 
 PCOD9562463
Probable space group: P 4/M C C
;
_chemical_formula_sum "Si O2"
_cell_formula_units_Z 96
_cell_length_a 24.356782
_cell_length_b 24.356782
_cell_length_c 8.363484
_cell_angle_alpha 90.000000
_cell_angle_beta 90.000000
_cell_angle_gamma 90.000000
_cell_volume 4961.660547
_symmetry_space_group_name_H-M "P 4/M C C"
_symmetry_group_IT_number 124
_symmetry_cell_setting 'tetragonal'
loop_
_space_group_symop_operation_xyz
x,y,z
-y,x,z
-x,-y,z
y,-x,z
x,-y,1/2-z
-x,y,1/2-z
y,x,1/2-z
-y,-x,1/2-z
-x,-y,-z
y,-x,-z
x,y,-z
-y,x,-z
-x,y,1/2+z
x,-y,1/2+z
-y,-x,1/2+z
y,x,1/2+z
loop_
_atom_site_type_symbol
_atom_site_label
_atom_site_fract_x
_atom_site_fract_y
_atom_site_fract_z
Si Si1 0.441055 0.922912 0.684458
Si Si2 0.790395 0.559245 0.683912
Si Si3 0.850695 0.063264 0.810138
Si Si4 0.248719 0.139460 0.182642
Si Si5 0.943001 0.673345 0.184124
Si Si6 0.679654 0.239298 0.694446
O O1 0.500000 0.939805 0.750000
O O2 0.432753 0.939842 0.500000
O O3 0.439839 0.856612 0.689855
O O4 0.391872 0.942520 0.795912
O O5 0.772581 0.500000 0.750000
O O6 0.773133 0.560055 0.500000
O O7 0.771624 0.617801 0.754752
O O8 0.905991 0.094010 0.750000
O O9 0.800393 0.104156 0.760289
O O10 0.844918 0.000000 0.750000
O O11 0.851683 0.061004 0.000000
O O12 0.301949 0.101076 0.196030
O O13 0.275469 0.194453 0.255875
O O14 0.231943 0.149934 0.000000
O O15 0.000000 0.695658 0.250000
O O16 0.933192 0.688861 0.000000
O O17 0.702522 0.297479 0.750000
O O18 0.679627 0.234384 0.500000
#
# Coordination Sequence:
#
# PCOD9562463 Si02
#       6
#    16  16  16  16  16  16
#     4  10  19  35  54  75 104 139 184 236 288 339
#     4   9  18  34  54  79 111 150 190 236 283 335
#     4  12  26  46  69  96 122 152 189 233 287 353
#     4  11  22  41  62  85 119 155 189 236 288 343
#     4  12  24  37  54  77 105 144 191 239 290 344
#     4  10  21  36  56  85 120 154 192 237 283 333
#
# _framework density 19.348362000000002
#
# number of rings (size 3 to 8) (size 9 to 14) (size 15 to 20)
#    0.000    1.333    1.667    5.000    0.000    4.500 
#    0.000    2.500    0.000    0.000    0.000    0.000 
#    0.000    0.333    0.000    3.667    0.000    2.667 
#
# Total GULP energy -535727.875845 kJ/mol
# GULP energy per Si atom -5580.498707 kJ/mol
# Density = 1.930432 g / cm^3
# Si number density = 19.348362 Si / 1000 Ang^3
#
#
#
# Elastic Constant Matrix: (Units=GPa)
#
#
# Indices 1 2 3 4 5 6 
#
# 1 99.2506 62.9665 19.6359 0.0000 0.0000 0.0000
# 2 62.9665 99.2493 19.6368 0.0000 0.0000 0.0000
# 3 19.6359 19.6368 72.4881 0.0000 0.0000 0.0000
# 4 0.0000 0.0000 0.0000 23.2428 0.0000 0.0000
# 5 0.0000 0.0000 0.0000 0.0000 23.2433 0.0000
# 6 0.0000 0.0000 0.0000 0.0000 0.0000 -15.7868
#
#
#
# Elastic Compliance Matrix: (Units=1/GPa)
#
#
# Indices 1 2 3 4 5 6 
#
# 1 0.017079 -0.010482 -0.001787 0.000000 0.000000 0.000000
# 2 -0.010482 0.017079 -0.001787 0.000000 0.000000 0.000000
# 3 -0.001787 -0.001787 0.014764 0.000000 0.000000 0.000000
# 4 0.000000 0.000000 0.000000 0.043024 0.000000 0.000000
# 5 0.000000 0.000000 0.000000 0.000000 0.043023 0.000000
# 6 0.000000 0.000000 0.000000 0.000000 0.000000 -0.063344
#
#
# Mechanical properties :
#
#
# Convention : Reuss Voigt Hill
#
# Bulk Modulus (GPa) = 48.05475 52.82958 50.44217
# Shear Modulus (GPa) = 46.87207 17.38978 32.13093
#
# Velocity S-wave (km/s) = 4.92726 3.00121 4.07953
# Velocity P-wave (km/s) = 7.56711 6.27482 6.95106
#
# Compressibility (1/GPa) = 0.02080960
#
# Stress axis : x y z
#
# Youngs Moduli (GPa) = 58.55193 58.55078 67.73415
#
# Poissons Ratio (x) = 0.61371 0.12104
# Poissons Ratio (y) = 0.61373 0.12107
# Poissons Ratio (z) = 0.10463 0.10465
#
# Static dielectric constant tensor:
#      x y z
#    x 1.717990 0.000000 0.000000 
#    y 0.000000 1.717990 0.000000 
#    z 0.000000 0.000000 1.696720 
# 
# From -- ./inp_files/1316.got.cif
#   From: 2010.05.17/outbox.cif.g08.bks.cpg/sg124_1_cif.got.tgz:1316.got - 2010.05.20 11:49:17.
