data_PCOD9562584
_publ_section_title
;
Structure prediction by ZEFSAII (Michael W. Deem and Ramdas Pophale) SiO2 
 PCOD9562584
Probable space group: P 4/M C C
;
_chemical_formula_sum "Si O2"
_cell_formula_units_Z 96
_cell_length_a 24.652687
_cell_length_b 24.652687
_cell_length_c 8.707445
_cell_angle_alpha 90.000000
_cell_angle_beta 90.000000
_cell_angle_gamma 90.000000
_cell_volume 5291.993030
_symmetry_space_group_name_H-M "P 4/M C C"
_symmetry_group_IT_number 124
_symmetry_cell_setting 'tetragonal'
loop_
_space_group_symop_operation_xyz
x,y,z
-y,x,z
-x,-y,z
y,-x,z
x,-y,1/2-z
-x,y,1/2-z
y,x,1/2-z
-y,-x,1/2-z
-x,-y,-z
y,-x,-z
x,y,-z
-y,x,-z
-x,y,1/2+z
x,-y,1/2+z
-y,-x,1/2+z
y,x,1/2+z
loop_
_atom_site_type_symbol
_atom_site_label
_atom_site_fract_x
_atom_site_fract_y
_atom_site_fract_z
Si Si1 0.145322 0.226976 0.815362
Si Si2 0.440169 0.059840 0.314525
Si Si3 0.059836 0.142130 0.683831
Si Si4 0.730609 0.648470 0.683273
Si Si5 0.641009 0.440679 0.816510
Si Si6 0.150716 0.647538 0.315336
O O1 0.200710 0.200710 0.750000
O O2 0.097475 0.191137 0.743415
O O3 0.137793 0.289931 0.775694
O O4 0.145285 0.221105 0.000000
O O5 0.500000 0.073711 0.250000
O O6 0.442502 0.057359 0.500000
O O7 0.395404 0.104562 0.268305
O O8 0.426555 0.000000 0.250000
O O9 0.088216 0.088216 0.750000
O O10 0.059768 0.140876 0.500000
O O11 0.000000 0.147893 0.750000
O O12 0.702743 0.702743 0.750000
O O13 0.731893 0.653125 0.500000
O O14 0.690498 0.599208 0.726808
O O15 0.790281 0.636997 0.745460
O O16 0.649111 0.500000 0.750000
O O17 0.587141 0.412860 0.750000
O O18 0.637776 0.442561 0.000000
O O19 0.154753 0.644516 0.500000
#
# Coordination Sequence:
#
# PCOD9562584 Si02
#       6
#    16  16  16  16  16  16
#     4  10  20  36  55  80 112 146 181 223 272 322
#     4  10  21  39  59  81 109 143 180 225 275 325
#     4  11  22  38  58  82 111 146 185 228 274 323
#     4  10  21  36  56  81 112 147 183 224 274 323
#     4  10  21  37  56  80 109 144 184 229 276 326
#     4  10  22  37  57  84 113 144 183 224 268 326
#
# _framework density 18.140612999999998
#
# number of rings (size 3 to 8) (size 9 to 14) (size 15 to 20)
#    0.000    1.833    0.000    5.500    0.000    7.667 
#    0.000    6.667    0.000    0.000    0.000    0.000 
#    0.000    0.000    0.000    0.000    0.000    0.000 
#
# Total GULP energy -536235.657974 kJ/mol
# GULP energy per Si atom -5585.788104 kJ/mol
# Density = 1.809932 g / cm^3
# Si number density = 18.140613 Si / 1000 Ang^3
#
#
#
# Elastic Constant Matrix: (Units=GPa)
#
#
# Indices 1 2 3 4 5 6 
#
# 1 162.4996 81.7236 51.9530 0.0000 0.0000 0.0000
# 2 81.7236 162.4843 51.9491 0.0000 0.0000 0.0000
# 3 51.9530 51.9491 70.2669 0.0000 0.0000 0.0000
# 4 0.0000 0.0000 0.0000 30.8255 0.0000 0.0000
# 5 0.0000 0.0000 0.0000 0.0000 30.8254 0.0000
# 6 0.0000 0.0000 0.0000 0.0000 0.0000 26.5685
#
#
#
# Elastic Compliance Matrix: (Units=1/GPa)
#
#
# Indices 1 2 3 4 5 6 
#
# 1 0.009177 -0.003204 -0.004417 0.000000 0.000000 0.000000
# 2 -0.003204 0.009178 -0.004417 0.000000 0.000000 0.000000
# 3 -0.004417 -0.004417 0.020762 0.000000 0.000000 0.000000
# 4 0.000000 0.000000 0.000000 0.032441 0.000000 0.000000
# 5 0.000000 0.000000 0.000000 0.000000 0.032441 0.000000
# 6 0.000000 0.000000 0.000000 0.000000 0.000000 0.037639
#
#
# Mechanical properties :
#
#
# Convention : Reuss Voigt Hill
#
# Bulk Modulus (GPa) = 66.47509 85.16689 75.82099
# Shear Modulus (GPa) = 29.28676 31.61889 30.45283
#
# Velocity S-wave (km/s) = 4.02236 4.17944 4.10165
# Velocity P-wave (km/s) = 7.63521 8.38692 8.01987
#
# Compressibility (1/GPa) = 0.01504323
#
# Stress axis : x y z
#
# Youngs Moduli (GPa) = 108.96675 108.95842 48.16422
#
# Poissons Ratio (x) = 0.34906 0.21273
# Poissons Ratio (y) = 0.34909 0.21272
# Poissons Ratio (z) = 0.48128 0.48123
#
# Static dielectric constant tensor:
#      x y z
#    x 1.608520 0.000000 0.000000 
#    y 0.000000 1.608520 0.000000 
#    z 0.000000 0.000000 1.609570 
# 
# From -- ./inp_files/1362.got.cif
#   From: 2010.05.17/outbox.cif.g08.bks.cpg/sg124_1_cif.got.tgz:1362.got - 2010.05.20 11:49:17.
