data_PCOD9562509
_publ_section_title
;
Structure prediction by ZEFSAII (Michael W. Deem and Ramdas Pophale) SiO2 
 PCOD9562509
Probable space group: P 4/M C C
;
_chemical_formula_sum "Si O2"
_cell_formula_units_Z 48
_cell_length_a 18.454674
_cell_length_b 18.454674
_cell_length_c 8.644867
_cell_angle_alpha 90.000000
_cell_angle_beta 90.000000
_cell_angle_gamma 90.000000
_cell_volume 2944.225513
_symmetry_space_group_name_H-M "P 4/M C C"
_symmetry_group_IT_number 124
_symmetry_cell_setting 'tetragonal'
loop_
_space_group_symop_operation_xyz
x,y,z
-y,x,z
-x,-y,z
y,-x,z
x,-y,1/2-z
-x,y,1/2-z
y,x,1/2-z
-y,-x,1/2-z
-x,-y,-z
y,-x,-z
x,y,-z
-y,x,-z
-x,y,1/2+z
x,-y,1/2+z
-y,-x,1/2+z
y,x,1/2+z
loop_
_atom_site_type_symbol
_atom_site_label
_atom_site_fract_x
_atom_site_fract_y
_atom_site_fract_z
Si Si1 0.318087 0.577965 0.684340
Si Si2 0.081382 0.422055 0.313963
Si Si3 0.201961 0.691400 0.814633
O O1 0.301032 0.500000 0.750000
O O2 0.394682 0.605319 0.750000
O O3 0.317439 0.579739 0.500000
O O4 0.259751 0.633496 0.751908
O O5 0.110340 0.500000 0.250000
O O6 0.080878 0.427395 0.500000
O O7 0.127091 0.349743 0.271467
O O8 0.000000 0.415548 0.250000
O O9 0.231225 0.768776 0.750000
O O10 0.205010 0.695585 0.000000
#
# Coordination Sequence:
#
# PCOD9562509 Si02
#       3
#    16  16  16
#     4  11  21  33  47  63  83 111 147 188 232 276
#     4  10  20  32  49  72  98 128 162 197 239 284
#     4  10  20  33  49  70  93 122 156 191 232 279
#
# _framework density 16.303097999999999
#
# number of rings (size 3 to 8) (size 9 to 14) (size 15 to 20)
#    0.000    1.667    0.000    9.000    0.000    8.333 
#    0.000    1.667    0.000    0.000    0.000    0.000 
#    0.000    0.667    0.000    7.333    0.000    5.333 
#
# Total GULP energy -267479.704150 kJ/mol
# GULP energy per Si atom -5572.493836 kJ/mol
# Density = 1.626599 g / cm^3
# Si number density = 16.303098 Si / 1000 Ang^3
#
#
#
# Elastic Constant Matrix: (Units=GPa)
#
#
# Indices 1 2 3 4 5 6 
#
# 1 75.8615 35.2966 24.8421 0.0000 0.0000 0.0000
# 2 35.2966 75.8618 24.8469 0.0000 0.0000 0.0000
# 3 24.8421 24.8469 45.2512 0.0000 0.0000 0.0000
# 4 0.0000 0.0000 0.0000 23.7835 0.0000 0.0000
# 5 0.0000 0.0000 0.0000 0.0000 23.7832 0.0000
# 6 0.0000 0.0000 0.0000 0.0000 0.0000 33.1643
#
#
#
# Elastic Compliance Matrix: (Units=1/GPa)
#
#
# Indices 1 2 3 4 5 6 
#
# 1 0.018286 -0.006365 -0.006544 0.000000 0.000000 0.000000
# 2 -0.006365 0.018288 -0.006547 0.000000 0.000000 0.000000
# 3 -0.006544 -0.006547 0.029286 0.000000 0.000000 0.000000
# 4 0.000000 0.000000 0.000000 0.042046 0.000000 0.000000
# 5 0.000000 0.000000 0.000000 0.000000 0.042047 0.000000
# 6 0.000000 0.000000 0.000000 0.000000 0.000000 0.030153
#
#
# Mechanical properties :
#
#
# Convention : Reuss Voigt Hill
#
# Bulk Modulus (GPa) = 37.10840 40.77175 38.94008
# Shear Modulus (GPa) = 21.92974 23.61212 22.77093
#
# Velocity S-wave (km/s) = 3.67158 3.80981 3.74133
# Velocity P-wave (km/s) = 6.38631 6.66451 6.52689
#
# Compressibility (1/GPa) = 0.02694807
#
# Stress axis : x y z
#
# Youngs Moduli (GPa) = 54.68599 54.68154 34.14544
#
# Poissons Ratio (x) = 0.34804 0.22345
# Poissons Ratio (y) = 0.34806 0.22356
# Poissons Ratio (z) = 0.35786 0.35802
#
# Static dielectric constant tensor:
#      x y z
#    x 1.566960 0.000000 0.000000 
#    y 0.000000 1.566960 0.000000 
#    z 0.000000 0.000000 1.539250 
# 
# From -- ./inp_files/471.got.cif
#   From: 2010.05.17/outbox.cif.g08.bks.cpg/sg124_1_cif.got.tgz:471.got - 2010.05.20 11:49:17.
