data_PCOD9562377
_publ_section_title
;
Structure prediction by ZEFSAII (Michael W. Deem and Ramdas Pophale) SiO2 
 PCOD9562377
Probable space group: P 4/M C C
;
_chemical_formula_sum "Si O2"
_cell_formula_units_Z 80
_cell_length_a 15.487496
_cell_length_b 15.487496
_cell_length_c 14.404094
_cell_angle_alpha 90.000000
_cell_angle_beta 90.000000
_cell_angle_gamma 90.000000
_cell_volume 3455.002463
_symmetry_space_group_name_H-M "P 4/M C C"
_symmetry_group_IT_number 124
_symmetry_cell_setting 'tetragonal'
loop_
_space_group_symop_operation_xyz
x,y,z
-y,x,z
-x,-y,z
y,-x,z
x,-y,1/2-z
-x,y,1/2-z
y,x,1/2-z
-y,-x,1/2-z
-x,-y,-z
y,-x,-z
x,y,-z
-y,x,-z
-x,y,1/2+z
x,-y,1/2+z
-y,-x,1/2+z
y,x,1/2+z
loop_
_atom_site_type_symbol
_atom_site_label
_atom_site_fract_x
_atom_site_fract_y
_atom_site_fract_z
Si Si1 0.749845 0.576584 0.386677
Si Si2 0.723074 0.616610 0.886394
Si Si3 0.300329 0.102783 0.390896
Si Si4 0.891876 0.083446 0.139869
Si Si5 0.412541 0.948508 0.612836
O O1 0.752011 0.578613 0.500000
O O2 0.713315 0.482900 0.360005
O O3 0.684875 0.651297 0.356137
O O4 0.849351 0.588044 0.355583
O O5 0.817272 0.646197 0.852767
O O6 0.723113 0.619143 0.000000
O O7 0.319657 0.100049 0.500000
O O8 0.199448 0.124189 0.381723
O O9 0.332745 0.009431 0.356248
O O10 0.906568 0.093433 0.250000
O O11 0.984278 0.116526 0.105679
O O12 0.411969 0.943619 0.500000
O O13 0.500000 0.000000 0.638197
#
# Coordination Sequence:
#
# PCOD9562377 Si02
#       5
#    16  16  16  16  16
#     4   9  16  26  39  59  95 139 171 206 253 306
#     4   9  17  27  40  64  98 132 173 212 250 301
#     4  10  19  29  48  78 102 128 175 222 258 307
#     4   9  20  38  53  67  96 137 174 202 255 323
#     4   9  15  26  42  63  99 138 165 204 267 315
#
# _framework density 23.154831000000001
#
# number of rings (size 3 to 8) (size 9 to 14) (size 15 to 20)
#    0.000    2.800    2.000    0.600    2.800    1.200 
#    0.000    3.000    0.000    0.000    0.000    9.800 
#    0.000    0.000    0.000    1.800    0.000    2.000 
#
# Total GULP energy -446621.363533 kJ/mol
# GULP energy per Si atom -5582.767044 kJ/mol
# Density = 2.310213 g / cm^3
# Si number density = 23.154831 Si / 1000 Ang^3
#
#
#
# Elastic Constant Matrix: (Units=GPa)
#
#
# Indices 1 2 3 4 5 6 
#
# 1 99.3513 108.6697 25.3514 0.0000 0.0000 0.0000
# 2 108.6697 99.3508 25.3515 0.0000 0.0000 0.0000
# 3 25.3514 25.3515 77.7834 0.0000 0.0000 0.0000
# 4 0.0000 0.0000 0.0000 10.5331 0.0000 0.0000
# 5 0.0000 0.0000 0.0000 0.0000 10.5333 0.0000
# 6 0.0000 0.0000 0.0000 0.0000 0.0000 35.6890
#
#
#
# Elastic Compliance Matrix: (Units=1/GPa)
#
#
# Indices 1 2 3 4 5 6 
#
# 1 -0.051044 0.056267 -0.001702 0.000000 0.000000 0.000000
# 2 0.056267 -0.051045 -0.001702 0.000000 0.000000 0.000000
# 3 -0.001702 -0.001702 0.013966 0.000000 0.000000 0.000000
# 4 0.000000 0.000000 0.000000 0.094939 0.000000 0.000000
# 5 0.000000 0.000000 0.000000 0.000000 0.094937 0.000000
# 6 0.000000 0.000000 0.000000 0.000000 0.000000 0.028020
#
#
# Mechanical properties :
#
#
# Convention : Reuss Voigt Hill
#
# Bulk Modulus (GPa) = 56.81240 66.13676 61.47458
# Shear Modulus (GPa) = 167.14499 19.15861 93.15180
#
# Velocity S-wave (km/s) = 8.50544 2.87960 6.34959
# Velocity P-wave (km/s) = 11.00208 6.29928 8.96456
#
# Compressibility (1/GPa) = 0.01760179
#
# Stress axis : x y z
#
# Youngs Moduli (GPa) = -19.59078 -19.59067 71.60427
#
# Poissons Ratio (x) = 1.10230 0.12188
# Poissons Ratio (y) = 1.10231 0.12186
# Poissons Ratio (z) = -0.03335 -0.03334
#
# Static dielectric constant tensor:
#      x y z
#    x 1.837850 0.000000 0.000000 
#    y 0.000000 1.837850 0.000000 
#    z 0.000000 0.000000 1.892380 
# 
# From -- ./inp_files/5094.got.cif
#   From: 2010.05.17/outbox.cif.g08.bks.cpg/sg124_3_cif.got.tgz:5094.got - 2010.05.20 11:49:17.
