data_PCOD9562730
_publ_section_title
;
Structure prediction by ZEFSAII (Michael W. Deem and Ramdas Pophale) SiO2 
 PCOD9562730
Probable space group: P 4/M C C
;
_chemical_formula_sum "Si O2"
_cell_formula_units_Z 96
_cell_length_a 15.986942
_cell_length_b 15.986942
_cell_length_c 19.825477
_cell_angle_alpha 90.000000
_cell_angle_beta 90.000000
_cell_angle_gamma 90.000000
_cell_volume 5067.041298
_symmetry_space_group_name_H-M "P 4/M C C"
_symmetry_group_IT_number 124
_symmetry_cell_setting 'tetragonal'
loop_
_space_group_symop_operation_xyz
x,y,z
-y,x,z
-x,-y,z
y,-x,z
x,-y,1/2-z
-x,y,1/2-z
y,x,1/2-z
-y,-x,1/2-z
-x,-y,-z
y,-x,-z
x,y,-z
-y,x,-z
-x,y,1/2+z
x,-y,1/2+z
-y,-x,1/2+z
y,x,1/2+z
loop_
_atom_site_type_symbol
_atom_site_label
_atom_site_fract_x
_atom_site_fract_y
_atom_site_fract_z
Si Si1 0.732918 0.732918 0.250000
Si Si2 0.812592 0.448562 0.919344
Si Si3 0.116573 0.936867 0.419413
Si Si4 0.117104 0.716643 0.855595
Si Si5 0.549449 0.623752 0.081782
Si Si6 0.649109 0.000000 0.250000
Si Si7 0.823906 0.573041 0.199040
O O1 0.733997 0.806714 0.195178
O O2 0.756846 0.647609 0.209579
O O3 0.867093 0.369745 0.895537
O O4 0.716741 0.424354 0.900796
O O5 0.830475 0.531171 0.874869
O O6 0.818767 0.462232 0.000000
O O7 0.111712 0.939163 0.500000
O O8 0.202352 0.893988 0.400461
O O9 0.032876 0.890155 0.394780
O O10 0.034357 0.703466 0.811347
O O11 0.454284 0.605304 0.104601
O O12 0.549562 0.620323 0.000000
O O13 0.599771 0.917431 0.276008
O O14 0.796911 0.500000 0.250000
#
# Coordination Sequence:
#
# PCOD9562730 Si02
#       7
#     8  16  16  16  16   8  16
#     4  10  24  40  64  92 120 166 214 256 314 374
#     4  11  23  37  60  94 128 162 208 265 314 371
#     4   9  20  40  64  91 129 170 204 256 331 394
#     4  11  23  40  63  93 124 163 215 265 312 380
#     4   8  16  32  52  76 112 156 195 239 300 357
#     4  10  23  42  66  83 118 170 208 259 314 364
#     4  11  22  43  66  87 121 170 208 256 312 380
#
# _framework density 18.945968000000001
#
# number of rings (size 3 to 8) (size 9 to 14) (size 15 to 20)
#    0.000    2.000    3.333    1.750    7.000    0.000 
#    0.000    3.333    0.000    0.250    0.000    0.000 
#    0.000    0.000    0.000    0.000    0.000    0.000 
#
# Total GULP energy -534953.639257 kJ/mol
# GULP energy per Si atom -5572.433742 kJ/mol
# Density = 1.890285 g / cm^3
# Si number density = 18.945968 Si / 1000 Ang^3
#
#
#
# Elastic Constant Matrix: (Units=GPa)
#
#
# Indices 1 2 3 4 5 6 
#
# 1 77.6430 41.5981 30.7514 0.0000 0.0000 0.0000
# 2 41.5981 77.6430 30.7514 0.0000 0.0000 0.0000
# 3 30.7514 30.7514 82.5876 0.0000 0.0000 0.0000
# 4 0.0000 0.0000 0.0000 29.9372 0.0000 0.0000
# 5 0.0000 0.0000 0.0000 0.0000 29.9372 0.0000
# 6 0.0000 0.0000 0.0000 0.0000 0.0000 33.2073
#
#
#
# Elastic Compliance Matrix: (Units=1/GPa)
#
#
# Indices 1 2 3 4 5 6 
#
# 1 0.019061 -0.008682 -0.003865 0.000000 0.000000 0.000000
# 2 -0.008682 0.019061 -0.003865 0.000000 0.000000 0.000000
# 3 -0.003865 -0.003865 0.014987 0.000000 0.000000 0.000000
# 4 0.000000 0.000000 0.000000 0.033403 0.000000 0.000000
# 5 0.000000 0.000000 0.000000 0.000000 0.033403 0.000000
# 6 0.000000 0.000000 0.000000 0.000000 0.000000 0.030114
#
#
# Mechanical properties :
#
#
# Convention : Reuss Voigt Hill
#
# Bulk Modulus (GPa) = 49.29377 49.34173 49.31775
# Shear Modulus (GPa) = 26.36922 27.60121 26.98521
#
# Velocity S-wave (km/s) = 3.73475 3.82100 3.77812
# Velocity P-wave (km/s) = 6.68374 6.75030 6.71710
#
# Compressibility (1/GPa) = 0.02028654
#
# Stress axis : x y z
#
# Youngs Moduli (GPa) = 52.46178 52.46178 66.72647
#
# Poissons Ratio (x) = 0.45546 0.25789
# Poissons Ratio (y) = 0.45546 0.25789
# Poissons Ratio (z) = 0.20276 0.20276
#
# Static dielectric constant tensor:
#      x y z
#    x 1.668480 0.000000 0.000000 
#    y 0.000000 1.668480 0.000000 
#    z 0.000000 0.000000 1.666520 
# 
# From -- ./inp_files/5362.got.cif
#   From: 2010.05.17/outbox.cif.g08.bks.cpg/sg124_3_cif.got.tgz:5362.got - 2010.05.20 11:49:17.
