data_PCOD9562914
_publ_section_title
;
Structure prediction by ZEFSAII (Michael W. Deem and Ramdas Pophale) SiO2 
 PCOD9562914
Probable space group: P 4/N B M
;
_chemical_formula_sum "Si O2"
_cell_formula_units_Z 80
_cell_length_a 30.261280
_cell_length_b 30.261280
_cell_length_c 5.036635
_cell_angle_alpha 90.000000
_cell_angle_beta 90.000000
_cell_angle_gamma 90.000000
_cell_volume 4612.273657
_symmetry_space_group_name_H-M "P 4/N B M"
_symmetry_group_IT_number 125
_space_group.IT_coordinate_system_code '2'
_symmetry_cell_setting 'tetragonal'
loop_
_space_group_symop_operation_xyz
x,y,z
1/2-y,x,z
1/2-x,1/2-y,z
y,1/2-x,z
x,1/2-y,-z
1/2-x,y,-z
y,x,-z
1/2-y,1/2-x,-z
-x,-y,-z
1/2+y,-x,-z
1/2+x,1/2+y,-z
-y,1/2+x,-z
-x,1/2+y,z
1/2+x,-y,z
-y,-x,z
1/2+y,1/2+x,z
loop_
_atom_site_type_symbol
_atom_site_label
_atom_site_fract_x
_atom_site_fract_y
_atom_site_fract_z
Si Si1 0.412288 0.587713 0.050318
Si Si2 0.415161 0.155579 0.048912
Si Si3 0.845812 0.481458 0.939411
Si Si4 0.129437 0.870564 0.549649
Si Si5 0.372434 0.198230 0.549746
Si Si6 0.301605 0.562483 0.440016
O O1 0.460836 0.605321 0.984047
O O2 0.381909 0.618092 0.854116
O O3 0.400967 0.599034 0.354448
O O4 0.466746 0.155084 0.989367
O O5 0.389951 0.187647 0.842854
O O6 0.391606 0.108395 0.000000
O O7 0.404883 0.173515 0.342231
O O8 0.827699 0.468091 0.651482
O O9 0.814576 0.456098 0.151856
O O10 0.177944 0.888413 0.481571
O O11 0.371277 0.250000 0.500000
O O12 0.325450 0.174551 0.500000
O O13 0.250000 0.560938 0.500000
#
# Coordination Sequence:
#
# PCOD9562914 Si02
#       6
#     8  16  16   8  16  16
#     4   8  16  30  47  66  90 125 158 188 230 270
#     4  10  21  35  50  71 100 128 152 188 241 286
#     4  10  19  32  49  70  97 124 157 197 231 274
#     4   8  16  30  44  63  97 126 148 190 236 276
#     4  10  21  36  53  72  95 125 158 192 234 281
#     4  10  19  30  48  73  95 122 159 195 235 276
#
# _framework density 17.345025
#
# number of rings (size 3 to 8) (size 9 to 14) (size 15 to 20)
#    0.000    2.400    0.000    2.400    0.000    5.000 
#    0.000    0.500    0.000    3.900    0.000   12.600 
#    0.000    9.600    0.000    0.000    0.000    1.600 
#
# Total GULP energy -445990.265720 kJ/mol
# GULP energy per Si atom -5574.878322 kJ/mol
# Density = 1.730555 g / cm^3
# Si number density = 17.345025 Si / 1000 Ang^3
#
#
#
# Elastic Constant Matrix: (Units=GPa)
#
#
# Indices 1 2 3 4 5 6 
#
# 1 43.0801 55.6135 -18.0324 0.0000 0.0000 0.0000
# 2 55.6135 43.0790 -18.0328 0.0000 0.0000 0.0000
# 3 -18.0324 -18.0328 56.4742 0.0000 0.0000 0.0000
# 4 0.0000 0.0000 0.0000 15.2972 0.0000 0.0000
# 5 0.0000 0.0000 0.0000 0.0000 15.2972 0.0000
# 6 0.0000 0.0000 0.0000 0.0000 0.0000 5.2088
#
#
#
# Elastic Compliance Matrix: (Units=1/GPa)
#
#
# Indices 1 2 3 4 5 6 
#
# 1 -0.034156 0.045627 0.003663 0.000000 0.000000 0.000000
# 2 0.045627 -0.034157 0.003662 0.000000 0.000000 0.000000
# 3 0.003663 0.003662 0.020046 0.000000 0.000000 0.000000
# 4 0.000000 0.000000 0.000000 0.065372 0.000000 0.000000
# 5 0.000000 0.000000 0.000000 0.000000 0.065371 0.000000
# 6 0.000000 0.000000 0.000000 0.000000 0.000000 0.191983
#
#
# Mechanical properties :
#
#
# Convention : Reuss Voigt Hill
#
# Bulk Modulus (GPa) = 17.34936 20.19220 18.77078
# Shear Modulus (GPa) = 26.62877 15.36632 20.99754
#
# Velocity S-wave (km/s) = 3.92246 2.97967 3.48311
# Velocity P-wave (km/s) = 5.52617 4.84816 5.19823
#
# Compressibility (1/GPa) = 0.05763901
#
# Stress axis : x y z
#
# Youngs Moduli (GPa) = -29.27772 -29.27657 49.88460
#
# Poissons Ratio (x) = 1.33581 -0.18274
# Poissons Ratio (y) = 1.33586 -0.18269
# Poissons Ratio (z) = 0.10725 0.10722
#
# Static dielectric constant tensor:
#      x y z
#    x 1.580050 0.000000 0.000000 
#    y 0.000000 1.580050 0.000000 
#    z 0.000000 0.000000 1.591320 
# 
# From -- ./inp_files/1203.got.cif
#   From: 2010.05.17/outbox.cif.g08.bks.cpg/sg125_1_cif.got.tgz:1203.got - 2010.05.20 11:54:10.
