data_PCOD9562086
_publ_section_title
;
Structure prediction by ZEFSAII (Michael W. Deem and Ramdas Pophale) SiO2 
 PCOD9562086
Probable space group: P 4/M M M
;
_chemical_formula_sum "Si O2"
_cell_formula_units_Z 96
_cell_length_a 24.181587
_cell_length_b 24.181587
_cell_length_c 9.265648
_cell_angle_alpha 90.000000
_cell_angle_beta 90.000000
_cell_angle_gamma 90.000000
_cell_volume 5418.079791
_symmetry_space_group_name_H-M "P 4/M M M"
_symmetry_group_IT_number 123
_symmetry_cell_setting 'tetragonal'
loop_
_space_group_symop_operation_xyz
x,y,z
-y,x,z
-x,-y,z
y,-x,z
x,-y,-z
-x,y,-z
y,x,-z
-y,-x,-z
-x,-y,-z
y,-x,-z
x,y,-z
-y,x,-z
-x,y,z
x,-y,z
-y,-x,z
y,x,z
loop_
_atom_site_type_symbol
_atom_site_label
_atom_site_fract_x
_atom_site_fract_y
_atom_site_fract_z
Si Si1 0.064471 0.064471 0.672081
Si Si2 0.564472 0.895211 0.662337
Si Si3 0.874159 0.257066 0.664257
Si Si4 0.221049 0.563287 0.826795
Si Si5 0.606801 0.000000 0.164019
Si Si6 0.673656 0.233436 0.671558
Si Si7 0.703097 0.000000 0.340356
Si Si8 0.853139 0.146862 0.169621
O O1 0.071695 0.071695 0.500000
O O2 0.104727 0.104727 0.755206
O O3 0.000000 0.075579 0.704989
O O4 0.588112 0.888538 0.500000
O O5 0.500000 0.908260 0.646939
O O6 0.567093 0.839409 0.753978
O O7 0.589102 0.945682 0.750084
O O8 0.858612 0.240225 0.500000
O O9 0.829960 0.305715 0.701095
O O10 0.865627 0.208099 0.775061
O O11 0.939673 0.269057 0.659913
O O12 0.241651 0.500000 0.794105
O O13 0.249047 0.617906 0.758463
O O14 0.218329 0.567974 0.000000
O O15 0.671790 0.000000 0.188164
O O16 0.587907 0.000000 0.000000
O O17 0.662151 0.236825 0.500000
O O18 0.724385 0.275616 0.703251
O O19 0.672870 0.000000 0.500000
O O20 0.857681 0.142320 0.000000
#
# Coordination Sequence:
#
# PCOD9562086 Si02
#       8
#     8  16  16  16   8  16   8   8
#     4   9  20  40  64  84 102 134 180 226 278 347
#     4  10  20  34  52  72  98 138 185 227 267 319
#     4  10  21  40  59  80 107 142 189 232 273 330
#     4  10  21  36  55  82 115 148 183 229 285 337
#     4  12  23  33  48  73 104 135 169 220 277 330
#     4  10  20  36  59  84 114 153 195 240 283 330
#     4  10  22  37  59  80  99 136 180 224 273 325
#     4  12  25  37  55  82 112 140 168 216 281 341
#
# _framework density 17.718454999999999
#
# number of rings (size 3 to 8) (size 9 to 14) (size 15 to 20)
#    0.000    1.750    0.833    4.000    1.167    6.333 
#    0.000    0.417    0.000    0.000    0.000    0.000 
#    0.000    0.333    0.000    3.667    0.000    2.667 
#
# Total GULP energy -534956.855692 kJ/mol
# GULP energy per Si atom -5572.467247 kJ/mol
# Density = 1.767813 g / cm^3
# Si number density = 17.718455 Si / 1000 Ang^3
#
#
#
# Elastic Constant Matrix: (Units=GPa)
#
#
# Indices 1 2 3 4 5 6 
#
# 1 72.0154 44.5428 35.9611 0.0000 0.0000 0.0000
# 2 44.5428 72.0161 35.9618 0.0000 0.0000 0.0000
# 3 35.9611 35.9618 73.9574 0.0000 0.0000 0.0000
# 4 0.0000 0.0000 0.0000 13.8239 0.0000 0.0000
# 5 0.0000 0.0000 0.0000 0.0000 13.8248 0.0000
# 6 0.0000 0.0000 0.0000 0.0000 0.0000 23.4157
#
#
#
# Elastic Compliance Matrix: (Units=1/GPa)
#
#
# Indices 1 2 3 4 5 6 
#
# 1 0.024328 -0.012071 -0.005960 0.000000 0.000000 0.000000
# 2 -0.012071 0.024328 -0.005960 0.000000 0.000000 0.000000
# 3 -0.005960 -0.005960 0.019317 0.000000 0.000000 0.000000
# 4 0.000000 0.000000 0.000000 0.072339 0.000000 0.000000
# 5 0.000000 0.000000 0.000000 0.000000 0.072334 0.000000
# 6 0.000000 0.000000 0.000000 0.000000 0.000000 0.042706
#
#
# Mechanical properties :
#
#
# Convention : Reuss Voigt Hill
#
# Bulk Modulus (GPa) = 50.02106 50.10227 50.06166
# Shear Modulus (GPa) = 16.12914 16.98110 16.55512
#
# Velocity S-wave (km/s) = 3.02039 3.09914 3.06002
# Velocity P-wave (km/s) = 6.36051 6.41440 6.38751
#
# Compressibility (1/GPa) = 0.01999158
#
# Stress axis : x y z
#
# Youngs Moduli (GPa) = 41.10454 41.10457 51.76723
#
# Poissons Ratio (x) = 0.49618 0.30852
# Poissons Ratio (y) = 0.49618 0.30854
# Poissons Ratio (z) = 0.24497 0.24499
#
# Static dielectric constant tensor:
#      x y z
#    x 1.643560 0.000000 0.000000 
#    y 0.000000 1.643560 0.000000 
#    z 0.000000 0.000000 1.599520 
# 
# From -- ./inp_files/1742.got.cif
#   From: 2010.05.17/outbox.cif.g08.bks.cpg/sg123_1_cif.got.tgz:1742.got - 2010.05.20 11:43:04.
