data_PCOD9562626
_publ_section_title
;
Structure prediction by ZEFSAII (Michael W. Deem and Ramdas Pophale) SiO2 
 PCOD9562626
Probable space group: P 4/M C C
;
_chemical_formula_sum "Si O2"
_cell_formula_units_Z 112
_cell_length_a 14.224489
_cell_length_b 14.224489
_cell_length_c 27.286874
_cell_angle_alpha 90.000000
_cell_angle_beta 90.000000
_cell_angle_gamma 90.000000
_cell_volume 5521.119320
_symmetry_space_group_name_H-M "P 4/M C C"
_symmetry_group_IT_number 124
_symmetry_cell_setting 'tetragonal'
loop_
_space_group_symop_operation_xyz
x,y,z
-y,x,z
-x,-y,z
y,-x,z
x,-y,1/2-z
-x,y,1/2-z
y,x,1/2-z
-y,-x,1/2-z
-x,-y,-z
y,-x,-z
x,y,-z
-y,x,-z
-x,y,1/2+z
x,-y,1/2+z
-y,-x,1/2+z
y,x,1/2+z
loop_
_atom_site_type_symbol
_atom_site_label
_atom_site_fract_x
_atom_site_fract_y
_atom_site_fract_z
Si Si1 0.606211 0.750697 0.733591
Si Si2 0.097103 0.443339 0.557215
Si Si3 0.748398 0.926732 0.890254
Si Si4 0.741706 0.402155 0.444546
Si Si5 0.427752 0.636305 0.148575
Si Si6 0.123944 0.222432 0.058006
Si Si7 0.101691 0.242976 0.726586
O O1 0.500000 0.764154 0.750000
O O2 0.651689 0.651689 0.750000
O O3 0.607395 0.731201 0.675530
O O4 0.671660 0.831129 0.755754
O O5 0.093437 0.411630 0.500000
O O6 0.105875 0.354867 0.592584
O O7 0.184256 0.513265 0.562948
O O8 0.000000 0.500000 0.566257
O O9 0.825246 0.869399 0.921175
O O10 0.761266 0.908367 0.832298
O O11 0.756195 0.034303 0.908087
O O12 0.708203 0.404173 0.500000
O O13 0.656380 0.411317 0.407904
O O14 0.801483 0.307099 0.437733
O O15 0.377734 0.537782 0.160624
O O16 0.098623 0.214901 0.000000
O O17 0.151295 0.151295 0.750000
O O18 0.000000 0.255709 0.750000
#
# Coordination Sequence:
#
# PCOD9562626 Si02
#       7
#    16  16  16  16  16  16  16
#     4  11  24  42  69  99 133 175 230 291 342 398
#     4  10  20  39  65  98 135 173 221 274 341 411
#     4  12  25  43  71  99 132 183 222 284 343 409
#     4  10  24  40  63  96 137 178 221 279 340 415
#     4  11  25  42  67  97 134 185 233 280 341 407
#     4  11  24  43  68 101 136 174 228 279 334 405
#     4  11  28  49  68 100 136 177 227 283 346 416
#
# _framework density 20.285741000000002
#
# number of rings (size 3 to 8) (size 9 to 14) (size 15 to 20)
#    0.000    1.143    2.857    2.143   10.000    1.429 
#    0.000    2.857    0.000    0.000    0.000    0.000 
#    0.000    0.000    0.000    0.000    0.000    0.000 
#
# Total GULP energy -625805.154537 kJ/mol
# GULP energy per Si atom -5587.546023 kJ/mol
# Density = 2.023957 g / cm^3
# Si number density = 20.285741 Si / 1000 Ang^3
#
#
#
# Elastic Constant Matrix: (Units=GPa)
#
#
# Indices 1 2 3 4 5 6 
#
# 1 56.8404 11.2853 37.5826 0.0000 0.0000 0.0000
# 2 11.2853 56.8404 37.5826 0.0000 0.0000 0.0000
# 3 37.5826 37.5826 121.5178 0.0000 0.0000 0.0000
# 4 0.0000 0.0000 0.0000 30.9769 0.0000 0.0000
# 5 0.0000 0.0000 0.0000 0.0000 30.9769 0.0000
# 6 0.0000 0.0000 0.0000 0.0000 0.0000 0.7870
#
#
#
# Elastic Compliance Matrix: (Units=1/GPa)
#
#
# Indices 1 2 3 4 5 6 
#
# 1 0.022117 0.000165 -0.006891 0.000000 0.000000 0.000000
# 2 0.000165 0.022117 -0.006891 0.000000 0.000000 0.000000
# 3 -0.006891 -0.006891 0.012492 0.000000 0.000000 0.000000
# 4 0.000000 0.000000 0.000000 0.032282 0.000000 0.000000
# 5 0.000000 0.000000 0.000000 0.000000 0.032282 0.000000
# 6 0.000000 0.000000 0.000000 0.000000 0.000000 1.270654
#
#
# Mechanical properties :
#
#
# Convention : Reuss Voigt Hill
#
# Bulk Modulus (GPa) = 33.90878 45.34437 39.62658
# Shear Modulus (GPa) = 3.49893 22.46469 12.98181
#
# Velocity S-wave (km/s) = 1.31475 3.33139 2.53246
# Velocity P-wave (km/s) = 4.36539 6.09909 5.30356
#
# Compressibility (1/GPa) = 0.02949088
#
# Stress axis : x y z
#
# Youngs Moduli (GPa) = 45.21449 45.21449 80.05183
#
# Poissons Ratio (x) = -0.00748 0.55166
# Poissons Ratio (y) = -0.00748 0.55166
# Poissons Ratio (z) = 0.31159 0.31159
#
# Static dielectric constant tensor:
#      x y z
#    x 1.718290 0.000000 0.000000 
#    y 0.000000 1.718290 0.000000 
#    z 0.000000 0.000000 1.763660 
# 
# From -- ./inp_files/6074.got.cif
#   From: 2010.05.17/outbox.cif.g08.bks.cpg/sg124_4_cif.got.tgz:6074.got - 2010.05.20 11:49:17.
