data_PCOD9562477
_publ_section_title
;
Structure prediction by ZEFSAII (Michael W. Deem and Ramdas Pophale) SiO2 
 PCOD9562477
Probable space group: P 4/M C C
;
_chemical_formula_sum "Si O2"
_cell_formula_units_Z 112
_cell_length_a 13.859809
_cell_length_b 13.859809
_cell_length_c 23.251765
_cell_angle_alpha 90.000000
_cell_angle_beta 90.000000
_cell_angle_gamma 90.000000
_cell_volume 4466.531650
_symmetry_space_group_name_H-M "P 4/M C C"
_symmetry_group_IT_number 124
_symmetry_cell_setting 'tetragonal'
loop_
_space_group_symop_operation_xyz
x,y,z
-y,x,z
-x,-y,z
y,-x,z
x,-y,1/2-z
-x,y,1/2-z
y,x,1/2-z
-y,-x,1/2-z
-x,-y,-z
y,-x,-z
x,y,-z
-y,x,-z
-x,y,1/2+z
x,-y,1/2+z
-y,-x,1/2+z
y,x,1/2+z
loop_
_atom_site_type_symbol
_atom_site_label
_atom_site_fract_x
_atom_site_fract_y
_atom_site_fract_z
Si Si1 0.230224 0.731313 0.433909
Si Si2 0.420964 0.068528 0.933172
Si Si3 0.548777 0.649364 0.818010
Si Si4 0.051372 0.147207 0.682646
Si Si5 0.298955 0.202485 0.194160
Si Si6 0.504803 0.281402 0.936856
Si Si7 0.004342 0.786460 0.565401
O O1 0.263068 0.763638 0.500000
O O2 0.265856 0.763154 0.370004
O O3 0.252930 0.617208 0.433525
O O4 0.117123 0.758658 0.432962
O O5 0.451772 0.178368 0.930041
O O6 0.500000 0.000000 0.903920
O O7 0.313178 0.047500 0.916349
O O8 0.417510 0.040184 0.000000
O O9 0.439194 0.620206 0.801292
O O10 0.591641 0.754786 0.802775
O O11 0.536621 0.652753 0.887088
O O12 0.095981 0.251110 0.698570
O O13 0.941342 0.122025 0.699886
O O14 0.038378 0.144126 0.613242
O O15 0.252913 0.252913 0.250000
O O16 0.484075 0.320849 0.000000
O O17 0.980387 0.814922 0.500000
#
# Coordination Sequence:
#
# PCOD9562477 Si02
#       7
#    16  16  16  16  16  16  16
#     4  10  20  40  67 100 148 192 235 305 374 436
#     4   9  15  26  52  93 135 188 248 298 367 456
#     4  11  25  45  71 107 146 192 252 314 384 457
#     4  11  25  45  71 107 146 192 252 314 384 457
#     4  12  27  49  76 103 142 198 251 306 378 466
#     4  10  19  35  63 100 147 194 242 305 373 442
#     4  10  19  35  63 100 147 194 242 305 373 442
#
# _framework density 25.075386000000002
#
# number of rings (size 3 to 8) (size 9 to 14) (size 15 to 20)
#    0.000    1.571    4.286    0.857    0.000    3.429 
#    0.000    2.857    0.000    0.000    0.000    2.000 
#    0.000    0.000    0.000    0.000    0.000    0.000 
#
# Total GULP energy -625170.186505 kJ/mol
# GULP energy per Si atom -5581.876665 kJ/mol
# Density = 2.501831 g / cm^3
# Si number density = 25.075386 Si / 1000 Ang^3
#
#
#
# Elastic Constant Matrix: (Units=GPa)
#
#
# Indices 1 2 3 4 5 6 
#
# 1 93.4946 63.5702 36.5270 0.0000 0.0000 0.0000
# 2 63.5702 93.4946 36.5270 0.0000 0.0000 0.0000
# 3 36.5270 36.5270 137.5912 0.0000 0.0000 0.0000
# 4 0.0000 0.0000 0.0000 39.9044 0.0000 0.0000
# 5 0.0000 0.0000 0.0000 0.0000 39.9044 0.0000
# 6 0.0000 0.0000 0.0000 0.0000 0.0000 50.7542
#
#
#
# Elastic Compliance Matrix: (Units=1/GPa)
#
#
# Indices 1 2 3 4 5 6 
#
# 1 0.020341 -0.013077 -0.001928 0.000000 0.000000 0.000000
# 2 -0.013077 0.020341 -0.001928 0.000000 0.000000 0.000000
# 3 -0.001928 -0.001928 0.008292 0.000000 0.000000 0.000000
# 4 0.000000 0.000000 0.000000 0.025060 0.000000 0.000000
# 5 0.000000 0.000000 0.000000 0.000000 0.025060 0.000000
# 6 0.000000 0.000000 0.000000 0.000000 0.000000 0.019703
#
#
# Mechanical properties :
#
#
# Convention : Reuss Voigt Hill
#
# Bulk Modulus (GPa) = 66.19959 66.42545 66.31252
# Shear Modulus (GPa) = 31.70616 38.64301 35.17459
#
# Velocity S-wave (km/s) = 3.55975 3.92991 3.74940
# Velocity P-wave (km/s) = 6.58432 6.86586 6.72656
#
# Compressibility (1/GPa) = 0.01510583
#
# Stress axis : x y z
#
# Youngs Moduli (GPa) = 49.16270 49.16270 120.60176
#
# Poissons Ratio (x) = 0.64290 0.23256
# Poissons Ratio (y) = 0.64290 0.23256
# Poissons Ratio (z) = 0.09480 0.09480
#
# Static dielectric constant tensor:
#      x y z
#    x 2.060390 0.000000 0.000000 
#    y 0.000000 2.060390 0.000000 
#    z 0.000000 0.000000 2.062330 
# 
# From -- ./inp_files/6122.got.cif
#   From: 2010.05.17/outbox.cif.g08.bks.cpg/sg124_4_cif.got.tgz:6122.got - 2010.05.20 11:49:17.
