data_PCOD9562842
_publ_section_title
;
Structure prediction by ZEFSAII (Michael W. Deem and Ramdas Pophale) SiO2 
 PCOD9562842
Probable space group: P 4/M C C
;
_chemical_formula_sum "Si O2"
_cell_formula_units_Z 56
_cell_length_a 13.016939
_cell_length_b 13.016939
_cell_length_c 17.267108
_cell_angle_alpha 90.000000
_cell_angle_beta 90.000000
_cell_angle_gamma 90.000000
_cell_volume 2925.750883
_symmetry_space_group_name_H-M "P 4/M C C"
_symmetry_group_IT_number 124
_symmetry_cell_setting 'tetragonal'
loop_
_space_group_symop_operation_xyz
x,y,z
-y,x,z
-x,-y,z
y,-x,z
x,-y,1/2-z
-x,y,1/2-z
y,x,1/2-z
-y,-x,1/2-z
-x,-y,-z
y,-x,-z
x,y,-z
-y,x,-z
-x,y,1/2+z
x,-y,1/2+z
-y,-x,1/2+z
y,x,1/2+z
loop_
_atom_site_type_symbol
_atom_site_label
_atom_site_fract_x
_atom_site_fract_y
_atom_site_fract_z
Si Si1 0.220394 0.613714 0.221961
Si Si2 0.439488 0.656773 0.408664
Si Si3 0.173635 0.997373 0.087512
Si Si4 0.000000 0.700894 0.750000
O O1 0.250356 0.500000 0.250000
O O2 0.296337 0.703664 0.250000
O O3 0.242390 0.604636 0.130754
O O4 0.104996 0.637152 0.245583
O O5 0.372326 0.556574 0.387034
O O6 0.437198 0.665774 0.500000
O O7 0.237211 0.996509 0.167912
O O8 0.100793 0.097738 0.090021
O O9 0.222980 0.996130 0.000000
#
# Coordination Sequence:
#
# PCOD9562842 Si02
#       4
#    16  16  16   8
#     4  12  24  40  63  90 127 173 213 266 321 383
#     4   9  18  36  65  97 122 153 210 278 329 376
#     4   9  18  36  63  89 117 164 226 282 320 367
#     4  12  25  39  56  94 136 173 212 256 337 408
#
# _framework density 19.140384999999998
#
# number of rings (size 3 to 8) (size 9 to 14) (size 15 to 20)
#    0.000    1.714    2.857    4.714    0.000    2.571 
#    0.000    2.857    0.000    3.429    0.000    0.000 
#    0.000    0.000    0.000    0.000    0.000    0.000 
#
# Total GULP energy -311836.629929 kJ/mol
# GULP energy per Si atom -5568.511249 kJ/mol
# Density = 1.909682 g / cm^3
# Si number density = 19.140385 Si / 1000 Ang^3
#
#
#
# Elastic Constant Matrix: (Units=GPa)
#
#
# Indices 1 2 3 4 5 6 
#
# 1 79.0776 25.3176 32.4568 0.0000 0.0000 0.0000
# 2 25.3176 79.0749 32.4554 0.0000 0.0000 0.0000
# 3 32.4568 32.4554 130.4446 0.0000 0.0000 0.0000
# 4 0.0000 0.0000 0.0000 23.0788 0.0000 0.0000
# 5 0.0000 0.0000 0.0000 0.0000 23.0788 0.0000
# 6 0.0000 0.0000 0.0000 0.0000 0.0000 15.2787
#
#
#
# Elastic Compliance Matrix: (Units=1/GPa)
#
#
# Indices 1 2 3 4 5 6 
#
# 1 0.014967 -0.003635 -0.002820 0.000000 0.000000 0.000000
# 2 -0.003635 0.014967 -0.002820 0.000000 0.000000 0.000000
# 3 -0.002820 -0.002820 0.009069 0.000000 0.000000 0.000000
# 4 0.000000 0.000000 0.000000 0.043330 0.000000 0.000000
# 5 0.000000 0.000000 0.000000 0.000000 0.043330 0.000000
# 6 0.000000 0.000000 0.000000 0.000000 0.000000 0.065451
#
#
# Mechanical properties :
#
#
# Convention : Reuss Voigt Hill
#
# Bulk Modulus (GPa) = 48.88678 52.11741 50.50209
# Shear Modulus (GPa) = 23.09684 25.51175 24.30430
#
# Velocity S-wave (km/s) = 3.47754 3.65482 3.56728
# Velocity P-wave (km/s) = 6.45918 6.71553 6.58860
#
# Compressibility (1/GPa) = 0.02045543
#
# Stress axis : x y z
#
# Youngs Moduli (GPa) = 66.81456 66.81272 110.26340
#
# Poissons Ratio (x) = 0.24284 0.31091
# Poissons Ratio (y) = 0.24285 0.31090
# Poissons Ratio (z) = 0.18839 0.18838
#
# Static dielectric constant tensor:
#      x y z
#    x 1.665860 0.000000 0.000000 
#    y 0.000000 1.665860 0.000000 
#    z 0.000000 0.000000 1.711490 
# 
# From -- ./inp_files/2881.got.cif
#   From: 2010.05.17/outbox.cif.g08.bks.cpg/sg124_2_cif.got.tgz:2881.got - 2010.05.20 11:49:17.
