data_PCOD9562121
_publ_section_title
;
Structure prediction by ZEFSAII (Michael W. Deem and Ramdas Pophale) SiO2 
 PCOD9562121
Probable space group: P 4/M M M
;
_chemical_formula_sum "Si O2"
_cell_formula_units_Z 88
_cell_length_a 18.264946
_cell_length_b 18.264946
_cell_length_c 14.043845
_cell_angle_alpha 90.000000
_cell_angle_beta 90.000000
_cell_angle_gamma 90.000000
_cell_volume 4685.142587
_symmetry_space_group_name_H-M "P 4/M M M"
_symmetry_group_IT_number 123
_symmetry_cell_setting 'tetragonal'
loop_
_space_group_symop_operation_xyz
x,y,z
-y,x,z
-x,-y,z
y,-x,z
x,-y,-z
-x,y,-z
y,x,-z
-y,-x,-z
-x,-y,-z
y,-x,-z
x,y,-z
-y,x,-z
-x,y,z
x,-y,z
-y,-x,z
y,x,z
loop_
_atom_site_type_symbol
_atom_site_label
_atom_site_fract_x
_atom_site_fract_y
_atom_site_fract_z
Si Si1 0.796354 0.086798 0.686664
Si Si2 0.194115 0.685634 0.607979
Si Si3 0.583477 0.701207 0.114340
Si Si4 0.588668 0.000000 0.109945
Si Si5 0.087406 0.794313 0.898377
Si Si6 0.149132 0.412247 0.216702
O O1 0.876013 0.123988 0.679422
O O2 0.744146 0.128006 0.613780
O O3 0.766289 0.107338 0.793212
O O4 0.797542 0.000000 0.676400
O O5 0.202331 0.658594 0.500000
O O6 0.267019 0.732981 0.633487
O O7 0.171412 0.624908 0.684157
O O8 0.500000 0.685418 0.146229
O O9 0.641535 0.641535 0.149683
O O10 0.602822 0.782803 0.146967
O O11 0.583698 0.698994 0.000000
O O12 0.610964 0.927317 0.167391
O O13 0.500000 0.000000 0.105492
O O14 0.614902 0.000000 0.000000
O O15 0.126818 0.873182 0.900597
O O16 0.000000 0.799907 0.898253
O O17 0.109410 0.758210 0.000000
O O18 0.143773 0.500000 0.229168
#
# Coordination Sequence:
#
# PCOD9562121 Si02
#       6
#    16  16  16   8  16  16
#     4   9  18  32  50  71  96 128 166 209 262 321
#     4  10  22  39  57  76 102 138 177 221 276 331
#     4   9  17  30  51  81 117 154 187 219 259 313
#     4   9  18  34  55  81 115 149 181 220 272 334
#     4   8  13  22  37  58  86 117 148 187 233 286
#     4  10  20  35  57  82 108 141 182 227 274 324
#
# _framework density 18.782779000000001
#
# number of rings (size 3 to 8) (size 9 to 14) (size 15 to 20)
#    0.000    2.818    0.000    1.091    1.273    3.455 
#    0.000    5.455    0.000    6.000    0.000    2.545 
#    0.000    0.000    0.000   16.909    0.000    0.182 
#
# Total GULP energy -490244.468181 kJ/mol
# GULP energy per Si atom -5570.959866 kJ/mol
# Density = 1.874003 g / cm^3
# Si number density = 18.782779 Si / 1000 Ang^3
#
#
#
# Elastic Constant Matrix: (Units=GPa)
#
#
# Indices 1 2 3 4 5 6 
#
# 1 -0.3348 134.7731 31.4352 0.0000 0.0000 0.0000
# 2 134.7731 -0.3348 31.4352 0.0000 0.0000 0.0000
# 3 31.4352 31.4352 89.8484 0.0000 0.0000 0.0000
# 4 0.0000 0.0000 0.0000 24.1827 0.0000 0.0000
# 5 0.0000 0.0000 0.0000 0.0000 24.1827 0.0000
# 6 0.0000 0.0000 0.0000 0.0000 0.0000 5.0796
#
#
#
# Elastic Compliance Matrix: (Units=1/GPa)
#
#
# Indices 1 2 3 4 5 6 
#
# 1 0.000746 0.008147 -0.003112 0.000000 0.000000 0.000000
# 2 0.008147 0.000746 -0.003112 0.000000 0.000000 0.000000
# 3 -0.003112 -0.003112 0.013307 0.000000 0.000000 0.000000
# 4 0.000000 0.000000 0.000000 0.041352 0.000000 0.000000
# 5 0.000000 0.000000 0.000000 0.000000 0.041352 0.000000
# 6 0.000000 0.000000 0.000000 0.000000 0.000000 0.196865
#
#
# Mechanical properties :
#
#
# Convention : Reuss Voigt Hill
#
# Bulk Modulus (GPa) = 53.62541 53.82953 53.72747
# Shear Modulus (GPa) = 16.85008 3.45803 10.15405
#
# Velocity S-wave (km/s) = 2.99842 1.35833 2.32761
# Velocity P-wave (km/s) = 6.37178 5.58402 5.99086
#
# Compressibility (1/GPa) = 0.01864788
#
# Stress axis : x y z
#
# Youngs Moduli (GPa) = 1340.49076 1340.49076 75.14770
#
# Poissons Ratio (x) = -10.92163 0.23383
# Poissons Ratio (y) = -10.92163 0.23383
# Poissons Ratio (z) = 4.17101 4.17101
#
# Static dielectric constant tensor:
#      x y z
#    x 1.655650 0.000000 0.000000 
#    y 0.000000 1.655650 0.000000 
#    z 0.000000 0.000000 1.697930 
# 
# From -- ./inp_files/4081.got.cif
#   From: 2010.05.17/outbox.cif.g08.bks.cpg/sg123_3_cif.got.tgz:4081.got - 2010.05.20 11:43:04.
