data_PCOD9562436
_publ_section_title
;
Structure prediction by ZEFSAII (Michael W. Deem and Ramdas Pophale) SiO2 
 PCOD9562436
Probable space group: P 4/M C C
;
_chemical_formula_sum "Si O2"
_cell_formula_units_Z 88
_cell_length_a 15.516849
_cell_length_b 15.516849
_cell_length_c 22.522736
_cell_angle_alpha 90.000000
_cell_angle_beta 90.000000
_cell_angle_gamma 90.000000
_cell_volume 5422.857771
_symmetry_space_group_name_H-M "P 4/M C C"
_symmetry_group_IT_number 124
_symmetry_cell_setting 'tetragonal'
loop_
_space_group_symop_operation_xyz
x,y,z
-y,x,z
-x,-y,z
y,-x,z
x,-y,1/2-z
-x,y,1/2-z
y,x,1/2-z
-y,-x,1/2-z
-x,-y,-z
y,-x,-z
x,y,-z
-y,x,-z
-x,y,1/2+z
x,-y,1/2+z
-y,-x,1/2+z
y,x,1/2+z
loop_
_atom_site_type_symbol
_atom_site_label
_atom_site_fract_x
_atom_site_fract_y
_atom_site_fract_z
Si Si1 0.249276 0.539418 0.428126
Si Si2 0.012596 0.237515 0.124615
Si Si3 0.810725 0.833336 0.070571
Si Si4 0.053078 0.411921 0.930535
Si Si5 0.146482 0.000000 0.250000
Si Si6 0.346480 0.709147 0.427617
O O1 0.254366 0.536406 0.500000
O O2 0.152080 0.568750 0.414822
O O3 0.314336 0.614516 0.408552
O O4 0.269012 0.442845 0.406776
O O5 0.103830 0.202984 0.100921
O O6 0.014774 0.339283 0.111848
O O7 0.000869 0.205293 0.191570
O O8 0.932718 0.200375 0.087387
O O9 0.725943 0.779161 0.089657
O O10 0.818905 0.822918 0.000000
O O11 0.000000 0.500000 0.927516
O O12 0.049932 0.381982 0.000000
O O13 0.083045 0.916956 0.250000
O O14 0.348164 0.709878 0.500000
#
# Coordination Sequence:
#
# PCOD9562436 Si02
#       6
#    16  16  16  16   8  16
#     4   9  16  27  44  68 105 147 180 216 261 324
#     4  12  22  37  57  78 106 146 190 226 277 337
#     4  11  21  33  52  81 111 136 176 233 285 338
#     4  10  19  33  54  83 115 145 179 225 293 354
#     4  11  24  44  57  72 104 152 197 236 282 333
#     4   9  17  29  45  71 108 145 181 216 263 327
#
# _framework density 16.227606000000002
#
# number of rings (size 3 to 8) (size 9 to 14) (size 15 to 20)
#    0.000    1.727    3.636    2.727    0.000    3.636 
#    0.000    3.182    0.000    0.000    0.000    0.000 
#    0.000    0.000    0.000    0.000    0.364    0.000 
#
# Total GULP energy -490862.884796 kJ/mol
# GULP energy per Si atom -5577.987327 kJ/mol
# Density = 1.619067 g / cm^3
# Si number density = 16.227606 Si / 1000 Ang^3
#
#
#
# Elastic Constant Matrix: (Units=GPa)
#
#
# Indices 1 2 3 4 5 6 
#
# 1 88.0624 22.1128 33.0716 0.0000 0.0000 0.0000
# 2 22.1128 88.0628 33.0718 0.0000 0.0000 0.0000
# 3 33.0716 33.0718 64.3201 0.0000 0.0000 0.0000
# 4 0.0000 0.0000 0.0000 12.6871 0.0000 0.0000
# 5 0.0000 0.0000 0.0000 0.0000 12.6876 0.0000
# 6 0.0000 0.0000 0.0000 0.0000 0.0000 27.7427
#
#
#
# Elastic Compliance Matrix: (Units=1/GPa)
#
#
# Indices 1 2 3 4 5 6 
#
# 1 0.014146 -0.001017 -0.006751 0.000000 0.000000 0.000000
# 2 -0.001017 0.014146 -0.006751 0.000000 0.000000 0.000000
# 3 -0.006751 -0.006751 0.022489 0.000000 0.000000 0.000000
# 4 0.000000 0.000000 0.000000 0.078820 0.000000 0.000000
# 5 0.000000 0.000000 0.000000 0.000000 0.078817 0.000000
# 6 0.000000 0.000000 0.000000 0.000000 0.000000 0.036046
#
#
# Mechanical properties :
#
#
# Convention : Reuss Voigt Hill
#
# Bulk Modulus (GPa) = 45.98776 46.32866 46.15821
# Shear Modulus (GPa) = 17.80948 20.76942 19.28945
#
# Velocity S-wave (km/s) = 3.31642 3.58142 3.45147
# Velocity P-wave (km/s) = 6.56244 6.76117 6.66254
#
# Compressibility (1/GPa) = 0.02174492
#
# Stress axis : x y z
#
# Youngs Moduli (GPa) = 70.69068 70.69089 44.46562
#
# Poissons Ratio (x) = 0.07189 0.30017
# Poissons Ratio (y) = 0.07189 0.30017
# Poissons Ratio (z) = 0.47721 0.47721
#
# Static dielectric constant tensor:
#      x y z
#    x 1.556050 0.000000 0.000000 
#    y 0.000000 1.556050 0.000000 
#    z 0.000000 0.000000 1.513530 
# 
# From -- ./inp_files/5205.got.cif
#   From: 2010.05.17/outbox.cif.g08.bks.cpg/sg124_3_cif.got.tgz:5205.got - 2010.05.20 11:49:17.
