data_PCOD9562786
_publ_section_title
;
Structure prediction by ZEFSAII (Michael W. Deem and Ramdas Pophale) SiO2 
 PCOD9562786
Probable space group: P 4/M C C
;
_chemical_formula_sum "Si O2"
_cell_formula_units_Z 52
_cell_length_a 11.951383
_cell_length_b 11.951383
_cell_length_c 15.706749
_cell_angle_alpha 90.000000
_cell_angle_beta 90.000000
_cell_angle_gamma 90.000000
_cell_volume 2243.482220
_symmetry_space_group_name_H-M "P 4/M C C"
_symmetry_group_IT_number 124
_symmetry_cell_setting 'tetragonal'
loop_
_space_group_symop_operation_xyz
x,y,z
-y,x,z
-x,-y,z
y,-x,z
x,-y,1/2-z
-x,y,1/2-z
y,x,1/2-z
-y,-x,1/2-z
-x,-y,-z
y,-x,-z
x,y,-z
-y,x,-z
-x,y,1/2+z
x,-y,1/2+z
-y,-x,1/2+z
y,x,1/2+z
loop_
_atom_site_type_symbol
_atom_site_label
_atom_site_fract_x
_atom_site_fract_y
_atom_site_fract_z
Si Si1 0.000000 0.000000 0.359957
Si Si2 0.995763 0.744353 0.896718
Si Si3 0.757447 0.341540 0.662864
Si Si4 0.422216 0.196250 0.904338
O O1 0.866040 0.031813 0.363758
O O2 0.878228 0.709022 0.857776
O O3 0.087553 0.649236 0.877079
O O4 0.987800 0.754309 0.000000
O O5 0.706758 0.293243 0.750000
O O6 0.667031 0.296268 0.595632
O O7 0.772882 0.473742 0.654107
O O8 0.465138 0.174265 0.000000
#
# Coordination Sequence:
#
# PCOD9562786 Si02
#       4
#     4  16  16  16
#     4  12  21  40  77 114 141 188 253 314 369 432
#     4  11  22  42  73 108 146 189 247 311 370 443
#     4  12  26  44  67 104 147 190 239 305 381 442
#     4  11  24  45  74 103 140 194 254 304 360 441
#
# _framework density 23.178253000000002
#
# number of rings (size 3 to 8) (size 9 to 14) (size 15 to 20)
#    0.000    0.615    3.077    6.000    0.000    4.308 
#    0.000    6.923    0.000    0.000    0.000    0.000 
#    0.000    0.000    0.000    0.000    0.000    0.000 
#
# Total GULP energy -290163.799123 kJ/mol
# GULP energy per Si atom -5580.073060 kJ/mol
# Density = 2.312550 g / cm^3
# Si number density = 23.178253 Si / 1000 Ang^3
#
#
#
# Elastic Constant Matrix: (Units=GPa)
#
#
# Indices 1 2 3 4 5 6 
#
# 1 195.6076 87.3270 43.5837 0.0000 0.0000 0.0000
# 2 87.3270 195.6080 43.5833 0.0000 0.0000 0.0000
# 3 43.5837 43.5833 80.0314 0.0000 0.0000 0.0000
# 4 0.0000 0.0000 0.0000 27.6263 0.0000 0.0000
# 5 0.0000 0.0000 0.0000 0.0000 27.6244 0.0000
# 6 0.0000 0.0000 0.0000 0.0000 0.0000 5.3224
#
#
#
# Elastic Compliance Matrix: (Units=1/GPa)
#
#
# Indices 1 2 3 4 5 6 
#
# 1 0.006741 -0.002494 -0.002313 0.000000 0.000000 0.000000
# 2 -0.002494 0.006741 -0.002313 0.000000 0.000000 0.000000
# 3 -0.002313 -0.002313 0.015014 0.000000 0.000000 0.000000
# 4 0.000000 0.000000 0.000000 0.036197 0.000000 0.000000
# 5 0.000000 0.000000 0.000000 0.000000 0.036200 0.000000
# 6 0.000000 0.000000 0.000000 0.000000 0.000000 0.187885
#
#
# Mechanical properties :
#
#
# Convention : Reuss Voigt Hill
#
# Bulk Modulus (GPa) = 70.14209 91.13723 80.63966
# Shear Modulus (GPa) = 16.24587 31.89815 24.07201
#
# Velocity S-wave (km/s) = 2.65034 3.71376 3.22617
# Velocity P-wave (km/s) = 6.30028 7.60229 6.98170
#
# Compressibility (1/GPa) = 0.01425678
#
# Stress axis : x y z
#
# Youngs Moduli (GPa) = 148.34380 148.34456 66.60412
#
# Poissons Ratio (x) = 0.37000 0.15404
# Poissons Ratio (y) = 0.36999 0.15404
# Poissons Ratio (z) = 0.34309 0.34308
#
# Static dielectric constant tensor:
#      x y z
#    x 1.843260 0.000000 0.000000 
#    y 0.000000 1.843270 0.000000 
#    z 0.000000 0.000000 2.034180 
# 
# From -- ./inp_files/4883.got.cif
#   From: 2010.05.17/outbox.cif.g08.bks.cpg/sg124_3_cif.got.tgz:4883.got - 2010.05.20 11:49:17.
