data_PCOD9562207
_publ_section_title
;
Structure prediction by ZEFSAII (Michael W. Deem and Ramdas Pophale) SiO2 
 PCOD9562207
Probable space group: P 4/M M M
;
_chemical_formula_sum "Si O2"
_cell_formula_units_Z 56
_cell_length_a 18.569427
_cell_length_b 18.569427
_cell_length_c 7.941527
_cell_angle_alpha 90.000000
_cell_angle_beta 90.000000
_cell_angle_gamma 90.000000
_cell_volume 2738.426081
_symmetry_space_group_name_H-M "P 4/M M M"
_symmetry_group_IT_number 123
_symmetry_cell_setting 'tetragonal'
loop_
_space_group_symop_operation_xyz
x,y,z
-y,x,z
-x,-y,z
y,-x,z
x,-y,-z
-x,y,-z
y,x,-z
-y,-x,-z
-x,-y,-z
y,-x,-z
x,y,-z
-y,x,-z
-x,y,z
x,-y,z
-y,-x,z
y,x,z
loop_
_atom_site_type_symbol
_atom_site_label
_atom_site_fract_x
_atom_site_fract_y
_atom_site_fract_z
Si Si1 0.697028 0.302973 0.202700
Si Si2 0.500000 0.084204 0.294469
Si Si3 0.079526 0.804808 0.798439
Si Si4 0.653898 0.142023 0.300377
Si Si5 0.581500 0.418501 0.794586
O O1 0.673511 0.224413 0.262101
O O2 0.638976 0.361025 0.263801
O O3 0.698042 0.301959 0.000000
O O4 0.500000 0.088750 0.500000
O O5 0.574641 0.120376 0.234734
O O6 0.500000 0.000000 0.249822
O O7 0.143165 0.856836 0.732319
O O8 0.096298 0.721135 0.766625
O O9 0.000000 0.823273 0.732213
O O10 0.078244 0.813976 0.000000
O O11 0.652374 0.131073 0.500000
O O12 0.598635 0.500000 0.741808
O O13 0.582033 0.417968 0.000000
#
# Coordination Sequence:
#
# PCOD9562207 Si02
#       5
#     8   8  16  16   8
#     4  11  22  35  56  84 115 149 190 241 288 336
#     4   9  20  38  59  85 116 151 190 234 286 344
#     4  10  21  38  60  86 118 154 191 235 287 343
#     4  11  22  38  60  85 115 155 196 236 286 347
#     4   8  16  32  53  78 108 145 187 229 278 333
#
# _framework density 20.449704000000001
#
# number of rings (size 3 to 8) (size 9 to 14) (size 15 to 20)
#    0.000    2.000    1.429    2.571    2.000    2.000 
#    0.000    3.571    0.000    5.143    0.000    6.000 
#    0.000    0.000    0.000    0.000    0.000    0.000 
#
# Total GULP energy -312712.256796 kJ/mol
# GULP energy per Si atom -5584.147443 kJ/mol
# Density = 2.040316 g / cm^3
# Si number density = 20.449704 Si / 1000 Ang^3
#
#
#
# Elastic Constant Matrix: (Units=GPa)
#
#
# Indices 1 2 3 4 5 6 
#
# 1 150.1796 97.8126 3.4072 0.0000 0.0000 0.0000
# 2 97.8126 150.1799 3.4071 0.0000 0.0000 0.0000
# 3 3.4072 3.4071 18.4090 0.0000 0.0000 0.0000
# 4 0.0000 0.0000 0.0000 5.3533 0.0000 0.0000
# 5 0.0000 0.0000 0.0000 0.0000 5.3532 0.0000
# 6 0.0000 0.0000 0.0000 0.0000 0.0000 22.9680
#
#
#
# Elastic Compliance Matrix: (Units=1/GPa)
#
#
# Indices 1 2 3 4 5 6 
#
# 1 0.011574 -0.007521 -0.000750 0.000000 0.000000 0.000000
# 2 -0.007521 0.011574 -0.000750 0.000000 0.000000 0.000000
# 3 -0.000750 -0.000750 0.054599 0.000000 0.000000 0.000000
# 4 0.000000 0.000000 0.000000 0.186800 0.000000 0.000000
# 5 0.000000 0.000000 0.000000 0.000000 0.186804 0.000000
# 6 0.000000 0.000000 0.000000 0.000000 0.000000 0.043539
#
#
# Mechanical properties :
#
#
# Convention : Reuss Voigt Hill
#
# Bulk Modulus (GPa) = 16.74920 58.66913 37.70916
# Shear Modulus (GPa) = 9.38376 21.01102 15.19739
#
# Velocity S-wave (km/s) = 2.14445 3.20886 2.72905
# Velocity P-wave (km/s) = 3.78679 6.51773 5.33013
#
# Compressibility (1/GPa) = 0.05970436
#
# Stress axis : x y z
#
# Youngs Moduli (GPa) = 86.39698 86.39718 18.31540
#
# Poissons Ratio (x) = 0.64983 0.01374
# Poissons Ratio (y) = 0.64983 0.01374
# Poissons Ratio (z) = 0.06481 0.06481
#
# Static dielectric constant tensor:
#      x y z
#    x 1.717470 0.000000 0.000000 
#    y 0.000000 1.717470 0.000000 
#    z 0.000000 0.000000 1.746780 
# 
# From -- ./inp_files/618.got.cif
#   From: 2010.05.17/outbox.cif.g08.bks.cpg/sg123_1_cif.got.tgz:618.got - 2010.05.20 11:43:04.
