data_PCOD9562394
_publ_section_title
;
Structure prediction by ZEFSAII (Michael W. Deem and Ramdas Pophale) SiO2 
 PCOD9562394
Probable space group: P 4/M C C
;
_chemical_formula_sum "Si O2"
_cell_formula_units_Z 96
_cell_length_a 25.430184
_cell_length_b 25.430184
_cell_length_c 9.255515
_cell_angle_alpha 90.000000
_cell_angle_beta 90.000000
_cell_angle_gamma 90.000000
_cell_volume 5985.488408
_symmetry_space_group_name_H-M "P 4/M C C"
_symmetry_group_IT_number 124
_symmetry_cell_setting 'tetragonal'
loop_
_space_group_symop_operation_xyz
x,y,z
-y,x,z
-x,-y,z
y,-x,z
x,-y,1/2-z
-x,y,1/2-z
y,x,1/2-z
-y,-x,1/2-z
-x,-y,-z
y,-x,-z
x,y,-z
-y,x,-z
-x,y,1/2+z
x,-y,1/2+z
-y,-x,1/2+z
y,x,1/2+z
loop_
_atom_site_type_symbol
_atom_site_label
_atom_site_fract_x
_atom_site_fract_y
_atom_site_fract_z
Si Si1 0.249444 0.329032 0.174384
Si Si2 0.449291 0.881155 0.836487
Si Si3 0.755907 0.836334 0.674178
Si Si4 0.551453 0.754791 0.335435
Si Si5 0.622479 0.051098 0.336208
Si Si6 0.052851 0.251098 0.332866
O O1 0.293118 0.293118 0.250000
O O2 0.193457 0.299960 0.203317
O O3 0.254786 0.389609 0.223060
O O4 0.255403 0.328253 0.000000
O O5 0.500000 0.900998 0.750000
O O6 0.452117 0.818225 0.840768
O O7 0.398359 0.899230 0.750563
O O8 0.448045 0.900847 0.000000
O O9 0.799229 0.799229 0.750000
O O10 0.762539 0.838375 0.500000
O O11 0.760050 0.893912 0.744350
O O12 0.500000 0.735792 0.250000
O O13 0.549038 0.735119 0.500000
O O14 0.603105 0.051657 0.500000
O O15 0.685416 0.049676 0.338695
O O16 0.603498 0.000000 0.250000
O O17 0.055099 0.232491 0.500000
O O18 0.000000 0.232713 0.250000
#
# Coordination Sequence:
#
# PCOD9562394 Si02
#       6
#    16  16  16  16  16  16
#     4   9  18  31  47  69  96 125 157 193 234 279
#     4  10  19  31  45  60  80 107 142 184 229 272
#     4  10  19  32  50  72  99 129 161 198 240 285
#     4   9  18  31  46  65  89 117 149 185 225 271
#     4  10  20  32  45  61  81 108 145 187 230 274
#     4  10  20  33  49  69  93 122 156 193 234 281
#
# _framework density 16.038792000000001
#
# number of rings (size 3 to 8) (size 9 to 14) (size 15 to 20)
#    0.000    2.333    0.000    3.000    0.000    5.667 
#    0.000    1.667    0.000    0.000    0.000    0.000 
#    0.000    0.667    0.000    7.000    0.000    4.667 
#
# Total GULP energy -534893.790953 kJ/mol
# GULP energy per Si atom -5571.810322 kJ/mol
# Density = 1.600229 g / cm^3
# Si number density = 16.038792 Si / 1000 Ang^3
#
#
#
# Elastic Constant Matrix: (Units=GPa)
#
#
# Indices 1 2 3 4 5 6 
#
# 1 84.4272 21.2793 40.8128 0.0000 0.0000 0.0000
# 2 21.2793 84.4272 40.8128 0.0000 0.0000 0.0000
# 3 40.8128 40.8128 104.9181 0.0000 0.0000 0.0000
# 4 0.0000 0.0000 0.0000 20.7005 0.0000 0.0000
# 5 0.0000 0.0000 0.0000 0.0000 20.7005 0.0000
# 6 0.0000 0.0000 0.0000 0.0000 0.0000 17.7982
#
#
#
# Elastic Compliance Matrix: (Units=1/GPa)
#
#
# Indices 1 2 3 4 5 6 
#
# 1 0.014679 -0.001157 -0.005260 0.000000 0.000000 0.000000
# 2 -0.001157 0.014679 -0.005260 0.000000 0.000000 0.000000
# 3 -0.005260 -0.005260 0.013623 0.000000 0.000000 0.000000
# 4 0.000000 0.000000 0.000000 0.048308 0.000000 0.000000
# 5 0.000000 0.000000 0.000000 0.000000 0.048308 0.000000
# 6 0.000000 0.000000 0.000000 0.000000 0.000000 0.056185
#
#
# Mechanical properties :
#
#
# Convention : Reuss Voigt Hill
#
# Bulk Modulus (GPa) = 50.94937 53.28693 52.11815
# Shear Modulus (GPa) = 22.15538 23.23101 22.69319
#
# Velocity S-wave (km/s) = 3.72070 3.80995 3.76559
# Velocity P-wave (km/s) = 7.09179 7.25604 7.17439
#
# Compressibility (1/GPa) = 0.01962733
#
# Stress axis : x y z
#
# Youngs Moduli (GPa) = 68.12522 68.12522 73.40283
#
# Poissons Ratio (x) = 0.07882 0.38610
# Poissons Ratio (y) = 0.07882 0.38610
# Poissons Ratio (z) = 0.35834 0.35834
#
# Static dielectric constant tensor:
#      x y z
#    x 1.539740 0.000000 0.000000 
#    y 0.000000 1.539740 0.000000 
#    z 0.000000 0.000000 1.555290 
# 
# From -- ./inp_files/1336.got.cif
#   From: 2010.05.17/outbox.cif.g08.bks.cpg/sg124_1_cif.got.tgz:1336.got - 2010.05.20 11:49:17.
