data_PCOD9562544
_publ_section_title
;
Structure prediction by ZEFSAII (Michael W. Deem and Ramdas Pophale) SiO2 
 PCOD9562544
Probable space group: P 4/M C C
;
_chemical_formula_sum "Si O2"
_cell_formula_units_Z 96
_cell_length_a 24.703744
_cell_length_b 24.703744
_cell_length_c 8.647205
_cell_angle_alpha 90.000000
_cell_angle_beta 90.000000
_cell_angle_gamma 90.000000
_cell_volume 5277.172751
_symmetry_space_group_name_H-M "P 4/M C C"
_symmetry_group_IT_number 124
_symmetry_cell_setting 'tetragonal'
loop_
_space_group_symop_operation_xyz
x,y,z
-y,x,z
-x,-y,z
y,-x,z
x,-y,1/2-z
-x,y,1/2-z
y,x,1/2-z
-y,-x,1/2-z
-x,-y,-z
y,-x,-z
x,y,-z
-y,x,-z
-x,y,1/2+z
x,-y,1/2+z
-y,-x,1/2+z
y,x,1/2+z
loop_
_atom_site_type_symbol
_atom_site_label
_atom_site_fract_x
_atom_site_fract_y
_atom_site_fract_z
Si Si1 0.057698 0.263208 0.815369
Si Si2 0.439950 0.057382 0.184728
Si Si3 0.942296 0.142219 0.814995
Si Si4 0.733468 0.649172 0.686484
Si Si5 0.645586 0.439332 0.814085
Si Si6 0.141494 0.651816 0.186978
O O1 0.064483 0.203170 0.746977
O O2 0.107617 0.299558 0.760975
O O3 0.000000 0.284108 0.750000
O O4 0.054488 0.261046 0.000000
O O5 0.500000 0.065034 0.250000
O O6 0.401736 0.107306 0.227121
O O7 0.419266 0.000000 0.250000
O O8 0.442255 0.053238 0.000000
O O9 0.895242 0.104759 0.750000
O O10 0.000000 0.122552 0.750000
O O11 0.942956 0.142308 0.000000
O O12 0.700585 0.700585 0.750000
O O13 0.732848 0.651414 0.500000
O O14 0.698598 0.596071 0.731815
O O15 0.795973 0.648583 0.736648
O O16 0.647416 0.500000 0.750000
O O17 0.594314 0.405687 0.750000
O O18 0.642827 0.440707 0.000000
O O19 0.140433 0.657617 0.000000
#
# Coordination Sequence:
#
# PCOD9562544 Si02
#       6
#    16  16  16  16  16  16
#     4  11  22  37  57  82 110 144 183 229 281 331
#     4  10  20  34  53  76 107 142 177 220 271 320
#     4  11  22  39  60  84 113 146 183 226 276 332
#     4   9  20  38  57  78 109 144 180 222 270 318
#     4  10  20  36  58  84 113 147 183 224 271 322
#     4  10  21  37  56  80 109 144 184 228 273 326
#
# _framework density 18.191559000000002
#
# number of rings (size 3 to 8) (size 9 to 14) (size 15 to 20)
#    0.000    1.833    0.000    6.000    0.000    5.667 
#    0.000    3.333    0.000    0.000    0.000    0.000 
#    0.000    0.000    0.000    0.000    0.000    0.000 
#
# Total GULP energy -536210.492722 kJ/mol
# GULP energy per Si atom -5585.525966 kJ/mol
# Density = 1.815015 g / cm^3
# Si number density = 18.191559 Si / 1000 Ang^3
#
#
#
# Elastic Constant Matrix: (Units=GPa)
#
#
# Indices 1 2 3 4 5 6 
#
# 1 163.3245 97.6262 54.2541 0.0000 0.0000 0.0000
# 2 97.6262 163.3164 54.2518 0.0000 0.0000 0.0000
# 3 54.2541 54.2518 84.6874 0.0000 0.0000 0.0000
# 4 0.0000 0.0000 0.0000 26.6425 0.0000 0.0000
# 5 0.0000 0.0000 0.0000 0.0000 26.6458 0.0000
# 6 0.0000 0.0000 0.0000 0.0000 0.0000 46.5143
#
#
#
# Elastic Compliance Matrix: (Units=1/GPa)
#
#
# Indices 1 2 3 4 5 6 
#
# 1 0.010223 -0.004999 -0.003347 0.000000 0.000000 0.000000
# 2 -0.004999 0.010223 -0.003346 0.000000 0.000000 0.000000
# 3 -0.003347 -0.003346 0.016096 0.000000 0.000000 0.000000
# 4 0.000000 0.000000 0.000000 0.037534 0.000000 0.000000
# 5 0.000000 0.000000 0.000000 0.000000 0.037529 0.000000
# 6 0.000000 0.000000 0.000000 0.000000 0.000000 0.021499
#
#
# Mechanical properties :
#
#
# Convention : Reuss Voigt Hill
#
# Bulk Modulus (GPa) = 76.00280 91.51027 83.75653
# Shear Modulus (GPa) = 31.08031 33.64026 32.36029
#
# Velocity S-wave (km/s) = 4.13789 4.30493 4.22223
# Velocity P-wave (km/s) = 8.04359 8.66734 8.36128
#
# Compressibility (1/GPa) = 0.01315741
#
# Stress axis : x y z
#
# Youngs Moduli (GPa) = 97.82181 97.81791 62.12817
#
# Poissons Ratio (x) = 0.48901 0.20791
# Poissons Ratio (y) = 0.48903 0.20790
# Poissons Ratio (z) = 0.32736 0.32733
#
# Static dielectric constant tensor:
#      x y z
#    x 1.613750 0.000000 0.000000 
#    y 0.000000 1.613750 0.000000 
#    z 0.000000 0.000000 1.613390 
# 
# From -- ./inp_files/1363.got.cif
#   From: 2010.05.17/outbox.cif.g08.bks.cpg/sg124_1_cif.got.tgz:1363.got - 2010.05.20 11:49:17.
