data_PCOD9562874
_publ_section_title
;
Structure prediction by ZEFSAII (Michael W. Deem and Ramdas Pophale) SiO2 
 PCOD9562874
Probable space group: P 4/M C C
;
_chemical_formula_sum "Si O2"
_cell_formula_units_Z 96
_cell_length_a 18.000000
_cell_length_b 18.000000
_cell_length_c 18.000000
_cell_angle_alpha 90.000000
_cell_angle_beta 90.000000
_cell_angle_gamma 90.000000
_cell_volume 5832.000000
_symmetry_space_group_name_H-M "P 4/M C C"
_symmetry_group_IT_number 124
_symmetry_cell_setting 'tetragonal'
loop_
_space_group_symop_operation_xyz
x,y,z
-y,x,z
-x,-y,z
y,-x,z
x,-y,1/2-z
-x,y,1/2-z
y,x,1/2-z
-y,-x,1/2-z
-x,-y,-z
y,-x,-z
x,y,-z
-y,x,-z
-x,y,1/2+z
x,-y,1/2+z
-y,-x,1/2+z
y,x,1/2+z
loop_
_atom_site_type_symbol
_atom_site_label
_atom_site_fract_x
_atom_site_fract_y
_atom_site_fract_z
Si Si1 0.431208 0.101994 0.589525
Si Si2 0.399347 0.281861 0.000000
Si Si3 0.446052 0.643794 0.000000
Si Si4 0.761303 0.641312 0.820002
Si Si5 0.609459 0.452235 0.666340
Si Si6 0.787069 0.668669 0.352060
Si Si7 0.604524 0.931267 0.910447
O O1 0.424766 0.111462 0.500000
O O2 0.392409 0.170888 0.631780
O O3 0.519886 0.096541 0.606771
O O4 0.396381 0.019997 0.608031
O O5 0.348240 0.356681 0.000000
O O6 0.488260 0.295258 0.000000
O O7 0.379353 0.243074 0.922074
O O8 0.458013 0.603505 0.922780
O O9 0.687664 0.589224 0.823794
O O10 0.782198 0.640618 0.732729
O O11 0.736585 0.725293 0.846712
O O12 0.598362 0.538606 0.690020
O O13 0.876007 0.664705 0.371957
O O14 0.613636 0.926104 0.000000
#
# Coordination Sequence:
#
# PCOD9562874 Si02
#       7
#    16   8   8  16  16  16  16
#     4   9  21  37  61  86 110 138 186 238 282 343
#     4  12  24  37  52  68  94 145 188 238 286 323
#     4  12  20  33  52  67  89 131 194 237 274 319
#     4  11  25  38  53  85 111 143 190 235 281 335
#     4  11  22  37  53  70 103 148 193 238 284 327
#     4  11  24  40  54  78 110 143 185 230 287 341
#     4   9  19  39  61  83 107 145 185 231 289 343
#
# _framework density 16.460905
#
# number of rings (size 3 to 8) (size 9 to 14) (size 15 to 20)
#    0.000    1.500    4.167    1.000    7.000    2.167 
#    6.000    1.667    0.000    4.000    0.000    0.000 
#    0.000    0.667    0.000    7.333    0.000    5.333 
#
# Total GULP energy -534844.508677 kJ/mol
# GULP energy per Si atom -5571.296965 kJ/mol
# Density = 1.642344 g / cm^3
# Si number density = 16.460905 Si / 1000 Ang^3
#
#
#
# Elastic Constant Matrix: (Units=GPa)
#
#
# Indices 1 2 3 4 5 6 
#
# 1 109.2342 39.3354 37.5478 0.0000 0.0000 0.0000
# 2 39.3354 109.2342 37.5478 0.0000 0.0000 0.0000
# 3 37.5478 37.5478 76.3071 0.0000 0.0000 0.0000
# 4 0.0000 0.0000 0.0000 29.9606 0.0000 0.0000
# 5 0.0000 0.0000 0.0000 0.0000 29.9606 0.0000
# 6 0.0000 0.0000 0.0000 0.0000 0.0000 25.6163
#
#
#
# Elastic Compliance Matrix: (Units=1/GPa)
#
#
# Indices 1 2 3 4 5 6 
#
# 1 0.011633 -0.002674 -0.004408 0.000000 0.000000 0.000000
# 2 -0.002674 0.011633 -0.004408 0.000000 0.000000 0.000000
# 3 -0.004408 -0.004408 0.017443 0.000000 0.000000 0.000000
# 4 0.000000 0.000000 0.000000 0.033377 0.000000 0.000000
# 5 0.000000 0.000000 0.000000 0.000000 0.033377 0.000000
# 6 0.000000 0.000000 0.000000 0.000000 0.000000 0.039038
#
#
# Mechanical properties :
#
#
# Convention : Reuss Voigt Hill
#
# Bulk Modulus (GPa) = 56.40837 58.18198 57.29518
# Shear Modulus (GPa) = 28.50768 29.13045 28.81907
#
# Velocity S-wave (km/s) = 4.16605 4.21131 4.18875
# Velocity P-wave (km/s) = 7.58181 7.68565 7.63390
#
# Compressibility (1/GPa) = 0.01772786
#
# Stress axis : x y z
#
# Youngs Moduli (GPa) = 85.96408 85.96408 57.32829
#
# Poissons Ratio (x) = 0.22984 0.25273
# Poissons Ratio (y) = 0.22984 0.25273
# Poissons Ratio (z) = 0.37897 0.37897
#
# Static dielectric constant tensor:
#      x y z
#    x 1.585540 0.000000 0.000000 
#    y 0.000000 1.585540 0.000000 
#    z 0.000000 0.000000 1.625040 
# 
# From -- ./inp_files/4328.got.cif
#   From: 2010.05.17/outbox.ucp.g08.bks.cvg/sg124_3_cif.got.tgz:4328.got - 2010.06.11 11:36:13.
