data_PCOD9562071
_publ_section_title
;
Structure prediction by ZEFSAII (Michael W. Deem and Ramdas Pophale) SiO2 
 PCOD9562071
Probable space group: P 4/M M M
;
_chemical_formula_sum "Si O2"
_cell_formula_units_Z 96
_cell_length_a 25.009230
_cell_length_b 25.009230
_cell_length_c 7.620020
_cell_angle_alpha 90.000000
_cell_angle_beta 90.000000
_cell_angle_gamma 90.000000
_cell_volume 4766.029788
_symmetry_space_group_name_H-M "P 4/M M M"
_symmetry_group_IT_number 123
_symmetry_cell_setting 'tetragonal'
loop_
_space_group_symop_operation_xyz
x,y,z
-y,x,z
-x,-y,z
y,-x,z
x,-y,-z
-x,y,-z
y,x,-z
-y,-x,-z
-x,-y,-z
y,-x,-z
x,y,-z
-y,x,-z
-x,y,z
x,-y,z
-y,-x,z
y,x,z
loop_
_atom_site_type_symbol
_atom_site_label
_atom_site_fract_x
_atom_site_fract_y
_atom_site_fract_z
Si Si1 0.149097 0.645274 0.792867
Si Si2 0.147265 0.233523 0.788649
Si Si3 0.560027 0.354700 0.712123
Si Si4 0.440308 0.768497 0.208890
Si Si5 0.061997 0.559220 0.288113
Si Si6 0.853595 0.939356 0.710632
O O1 0.146265 0.705553 0.721492
O O2 0.195288 0.606994 0.716792
O O3 0.096210 0.609260 0.774508
O O4 0.159957 0.651638 0.000000
O O5 0.197302 0.197302 0.724754
O O6 0.093720 0.200382 0.746668
O O7 0.150946 0.235077 0.000000
O O8 0.560040 0.356549 0.500000
O O9 0.500000 0.368271 0.771939
O O10 0.604017 0.395984 0.777369
O O11 0.571048 0.293879 0.764576
O O12 0.500000 0.779626 0.281071
O O13 0.442831 0.778601 0.000000
O O14 0.063776 0.559265 0.500000
O O15 0.081757 0.500000 0.229421
O O16 0.000000 0.563640 0.235479
O O17 0.859068 0.942074 0.500000
O O18 0.902610 0.902610 0.777623
O O19 0.853109 0.000000 0.778156
#
# Coordination Sequence:
#
# PCOD9562071 Si02
#       6
#    16  16  16  16  16  16
#     4  10  20  33  52  76  97 124 166 207 242 285
#     4   9  19  35  51  69  98 133 165 199 240 285
#     4   9  18  32  49  70  96 125 158 196 239 289
#     4   9  18  32  49  70  96 124 156 198 246 291
#     4   9  19  35  52  72 101 134 164 196 239 290
#     4   9  18  33  53  76 101 129 161 198 240 284
#
# _framework density 20.142552999999999
#
# number of rings (size 3 to 8) (size 9 to 14) (size 15 to 20)
#    0.000    2.833    0.000    1.000    0.000    5.000 
#    0.000    9.167    0.000    2.000    0.000    4.667 
#    0.000    0.000    0.000    0.000    0.000    0.000 
#
# Total GULP energy -535461.469569 kJ/mol
# GULP energy per Si atom -5577.723641 kJ/mol
# Density = 2.009671 g / cm^3
# Si number density = 20.142553 Si / 1000 Ang^3
#
#
#
# Elastic Constant Matrix: (Units=GPa)
#
#
# Indices 1 2 3 4 5 6 
#
# 1 180.8470 120.4466 2.1959 0.0000 0.0000 0.0000
# 2 120.4466 180.8470 2.1959 0.0000 0.0000 0.0000
# 3 2.1959 2.1959 41.0987 0.0000 0.0000 0.0000
# 4 0.0000 0.0000 0.0000 19.8411 0.0000 0.0000
# 5 0.0000 0.0000 0.0000 0.0000 19.8411 0.0000
# 6 0.0000 0.0000 0.0000 0.0000 0.0000 20.8816
#
#
#
# Elastic Compliance Matrix: (Units=1/GPa)
#
#
# Indices 1 2 3 4 5 6 
#
# 1 0.009939 -0.006617 -0.000177 0.000000 0.000000 0.000000
# 2 -0.006617 0.009939 -0.000177 0.000000 0.000000 0.000000
# 3 -0.000177 -0.000177 0.024351 0.000000 0.000000 0.000000
# 4 0.000000 0.000000 0.000000 0.050400 0.000000 0.000000
# 5 0.000000 0.000000 0.000000 0.000000 0.050400 0.000000
# 6 0.000000 0.000000 0.000000 0.000000 0.000000 0.047889
#
#
# Mechanical properties :
#
#
# Convention : Reuss Voigt Hill
#
# Bulk Modulus (GPa) = 33.02075 72.49658 52.75867
# Shear Modulus (GPa) = 23.04600 30.64305 26.84452
#
# Velocity S-wave (km/s) = 3.38619 3.90463 3.65461
# Velocity P-wave (km/s) = 5.63183 7.50986 6.63760
#
# Compressibility (1/GPa) = 0.03028399
#
# Stress axis : x y z
#
# Youngs Moduli (GPa) = 100.61471 100.61471 41.06667
#
# Poissons Ratio (x) = 0.66580 0.00729
# Poissons Ratio (y) = 0.66580 0.00729
# Poissons Ratio (z) = 0.01786 0.01786
#
# Static dielectric constant tensor:
#      x y z
#    x 1.704830 0.000000 0.000000 
#    y 0.000000 1.704830 0.000000 
#    z 0.000000 0.000000 1.760830 
# 
# From -- ./inp_files/1554.got.cif
#   From: 2010.05.17/outbox.cif.g08.bks.cpg/sg123_1_cif.got.tgz:1554.got - 2010.05.20 11:43:04.
