data_PCOD9562481
_publ_section_title
;
Structure prediction by ZEFSAII (Michael W. Deem and Ramdas Pophale) SiO2 
 PCOD9562481
Probable space group: P 4/M C C
;
_chemical_formula_sum "Si O2"
_cell_formula_units_Z 88
_cell_length_a 15.089788
_cell_length_b 15.089788
_cell_length_c 20.387755
_cell_angle_alpha 90.000000
_cell_angle_beta 90.000000
_cell_angle_gamma 90.000000
_cell_volume 4642.326511
_symmetry_space_group_name_H-M "P 4/M C C"
_symmetry_group_IT_number 124
_symmetry_cell_setting 'tetragonal'
loop_
_space_group_symop_operation_xyz
x,y,z
-y,x,z
-x,-y,z
y,-x,z
x,-y,1/2-z
-x,y,1/2-z
y,x,1/2-z
-y,-x,1/2-z
-x,-y,-z
y,-x,-z
x,y,-z
-y,x,-z
-x,y,1/2+z
x,-y,1/2+z
-y,-x,1/2+z
y,x,1/2+z
loop_
_atom_site_type_symbol
_atom_site_label
_atom_site_fract_x
_atom_site_fract_y
_atom_site_fract_z
Si Si1 0.153885 0.282842 0.500000
Si Si2 0.826374 0.334892 0.500000
Si Si3 0.030348 0.192512 0.000000
Si Si4 0.061775 0.131425 0.850932
Si Si5 0.881701 0.418394 0.369755
Si Si6 0.624468 0.908476 0.129271
Si Si7 0.296844 0.897421 0.239823
O O1 0.251381 0.240282 0.500000
O O2 0.134599 0.341847 0.437049
O O3 0.074942 0.209422 0.500000
O O4 0.921519 0.286437 0.500000
O O5 0.826604 0.392573 0.434117
O O6 0.058573 0.150238 0.929598
O O7 0.098144 0.208645 0.804342
O O8 0.958572 0.113750 0.835660
O O9 0.884240 0.522692 0.357333
O O10 0.848447 0.367393 0.305622
O O11 0.983693 0.381424 0.378539
O O12 0.691962 0.870928 0.184728
O O13 0.325369 0.000000 0.250000
#
# Coordination Sequence:
#
# PCOD9562481 Si02
#       7
#     8   8   8  16  16  16  16
#     4  12  23  36  53  80 112 146 197 242 293 342
#     4  12  21  34  55  82 111 146 194 243 283 336
#     4  12  20  35  53  76 109 158 197 255 282 330
#     4  11  23  37  52  74 110 162 214 253 286 327
#     4  10  19  36  59  82 105 139 192 241 299 355
#     4  10  20  38  59  80 105 143 187 242 305 359
#     4  10  20  36  52  79 103 138 192 246 294 343
#
# _framework density 18.956012000000001
#
# number of rings (size 3 to 8) (size 9 to 14) (size 15 to 20)
#    0.000    1.273    3.636    3.818    0.000    5.091 
#    6.545    0.909    0.000    0.000    0.000    0.000 
#    0.000    5.818    0.000    0.000    0.000   18.909 
#
# Total GULP energy -490935.450342 kJ/mol
# GULP energy per Si atom -5578.811936 kJ/mol
# Density = 1.891287 g / cm^3
# Si number density = 18.956012 Si / 1000 Ang^3
#
#
#
# Elastic Constant Matrix: (Units=GPa)
#
#
# Indices 1 2 3 4 5 6 
#
# 1 67.4331 20.3283 44.1099 0.0000 0.0000 0.0000
# 2 20.3283 67.4331 44.1099 0.0000 0.0000 0.0000
# 3 44.1099 44.1099 164.4840 0.0000 0.0000 0.0000
# 4 0.0000 0.0000 0.0000 15.4722 0.0000 0.0000
# 5 0.0000 0.0000 0.0000 0.0000 15.4722 0.0000
# 6 0.0000 0.0000 0.0000 0.0000 0.0000 18.6072
#
#
#
# Elastic Compliance Matrix: (Units=1/GPa)
#
#
# Indices 1 2 3 4 5 6 
#
# 1 0.018415 -0.002815 -0.004183 0.000000 0.000000 0.000000
# 2 -0.002815 0.018415 -0.004183 0.000000 0.000000 0.000000
# 3 -0.004183 -0.004183 0.008323 0.000000 0.000000 0.000000
# 4 0.000000 0.000000 0.000000 0.064632 0.000000 0.000000
# 5 0.000000 0.000000 0.000000 0.000000 0.064632 0.000000
# 6 0.000000 0.000000 0.000000 0.000000 0.000000 0.053743
#
#
# Mechanical properties :
#
#
# Convention : Reuss Voigt Hill
#
# Bulk Modulus (GPa) = 43.88028 57.38293 50.63160
# Shear Modulus (GPa) = 19.37092 22.63046 21.00069
#
# Velocity S-wave (km/s) = 3.20017 3.45895 3.33207
# Velocity P-wave (km/s) = 6.07071 6.80366 6.44761
#
# Compressibility (1/GPa) = 0.02278928
#
# Stress axis : x y z
#
# Youngs Moduli (GPa) = 54.30497 54.30497 120.14376
#
# Poissons Ratio (x) = 0.15285 0.50261
# Poissons Ratio (y) = 0.15285 0.50261
# Poissons Ratio (z) = 0.22718 0.22718
#
# Static dielectric constant tensor:
#      x y z
#    x 1.667390 0.000000 0.000000 
#    y 0.000000 1.667390 0.000000 
#    z 0.000000 0.000000 1.771110 
# 
# From -- ./inp_files/5232.got.cif
#   From: 2010.05.17/outbox.cif.g08.bks.cpg/sg124_3_cif.got.tgz:5232.got - 2010.05.20 11:49:17.
