data_PCOD9562775
_publ_section_title
;
Structure prediction by ZEFSAII (Michael W. Deem and Ramdas Pophale) SiO2 
 PCOD9562775
Probable space group: P 4/M C C
;
_chemical_formula_sum "Si O2"
_cell_formula_units_Z 64
_cell_length_a 22.946838
_cell_length_b 22.946838
_cell_length_c 10.245510
_cell_angle_alpha 90.000000
_cell_angle_beta 90.000000
_cell_angle_gamma 90.000000
_cell_volume 5394.848843
_symmetry_space_group_name_H-M "P 4/M C C"
_symmetry_group_IT_number 124
_symmetry_cell_setting 'tetragonal'
loop_
_space_group_symop_operation_xyz
x,y,z
-y,x,z
-x,-y,z
y,-x,z
x,-y,1/2-z
-x,y,1/2-z
y,x,1/2-z
-y,-x,1/2-z
-x,-y,-z
y,-x,-z
x,y,-z
-y,x,-z
-x,y,1/2+z
x,-y,1/2+z
-y,-x,1/2+z
y,x,1/2+z
loop_
_atom_site_type_symbol
_atom_site_label
_atom_site_fract_x
_atom_site_fract_y
_atom_site_fract_z
Si Si1 0.767180 0.942756 0.656713
Si Si2 0.052565 0.917843 0.000000
Si Si3 0.070501 0.362064 0.761590
Si Si4 0.120478 0.120478 0.750000
Si Si5 0.559359 0.929208 0.500000
Si Si6 0.071194 0.575158 0.000000
O O1 0.767589 0.957039 0.500000
O O2 0.704066 0.917382 0.696954
O O3 0.817172 0.895802 0.688980
O O4 0.775927 0.000000 0.750000
O O5 0.075127 0.888762 0.131801
O O6 0.983272 0.922148 0.000000
O O7 0.090510 0.387691 0.624411
O O8 0.000000 0.363873 0.750000
O O9 0.090474 0.406390 0.872496
O O10 0.492310 0.910439 0.500000
O O11 0.567127 0.000197 0.500000
#
# Coordination Sequence:
#
# PCOD9562775 Si02
#       6
#    16   8  16   8   8   8
#     4  11  23  36  50  62  77  99 122 154 193 236
#     4  11  22  36  50  64  76  88 106 146 200 250
#     4   9  17  27  41  59  81 103 123 147 174 213
#     4  12  24  35  50  62  76  92 122 152 190 244
#     4   9  14  25  39  58  85 104 125 144 164 203
#     4   9  16  23  39  62  81 106 125 142 168 199
#
# _framework density 11.863168
#
# number of rings (size 3 to 8) (size 9 to 14) (size 15 to 20)
#    0.000    1.875    2.500    3.000    7.000    4.000 
#    0.000    0.000    0.000    0.000    0.000    0.000 
#    0.000    0.000    0.000    0.000    0.000    0.000 
#
# Total GULP energy -356456.670226 kJ/mol
# GULP energy per Si atom -5569.635472 kJ/mol
# Density = 1.183617 g / cm^3
# Si number density = 11.863168 Si / 1000 Ang^3
#
#
#
# Elastic Constant Matrix: (Units=GPa)
#
#
# Indices 1 2 3 4 5 6 
#
# 1 21.3149 51.7051 33.7474 0.0000 0.0000 0.0000
# 2 51.7051 21.3149 33.7474 0.0000 0.0000 0.0000
# 3 33.7474 33.7474 121.9826 0.0000 0.0000 0.0000
# 4 0.0000 0.0000 0.0000 16.5296 0.0000 0.0000
# 5 0.0000 0.0000 0.0000 0.0000 16.5296 0.0000
# 6 0.0000 0.0000 0.0000 0.0000 0.0000 2.6864
#
#
#
# Elastic Compliance Matrix: (Units=1/GPa)
#
#
# Indices 1 2 3 4 5 6 
#
# 1 -0.007253 0.025653 -0.005091 0.000000 0.000000 0.000000
# 2 0.025653 -0.007253 -0.005091 0.000000 0.000000 0.000000
# 3 -0.005091 -0.005091 0.011015 0.000000 0.000000 0.000000
# 4 0.000000 0.000000 0.000000 0.060498 0.000000 0.000000
# 5 0.000000 0.000000 0.000000 0.000000 0.060498 0.000000
# 6 0.000000 0.000000 0.000000 0.000000 0.000000 0.372251
#
#
# Mechanical properties :
#
#
# Convention : Reuss Voigt Hill
#
# Bulk Modulus (GPa) = 36.42614 44.77916 40.60265
# Shear Modulus (GPa) = 10.68461 10.17661 10.43061
#
# Velocity S-wave (km/s) = 3.00435 2.93206 2.96842
# Velocity P-wave (km/s) = 6.54268 7.02075 6.78593
#
# Compressibility (1/GPa) = 0.02745281
#
# Stress axis : x y z
#
# Youngs Moduli (GPa) = -137.88255 -137.88255 90.78870
#
# Poissons Ratio (x) = 3.53708 0.46217
# Poissons Ratio (y) = 3.53708 0.46217
# Poissons Ratio (z) = -0.70190 -0.70190
#
# Static dielectric constant tensor:
#      x y z
#    x 1.374430 0.000000 0.000000 
#    y 0.000000 1.374430 0.000000 
#    z 0.000000 0.000000 1.442630 
# 
# From -- ./inp_files/2393.got.cif
#   From: 2010.05.17/outbox.cif.g08.bks.cpg/sg124_2_cif.got.tgz:2393.got - 2010.05.20 11:49:17.
