data_PCOD9562828
_publ_section_title
;
Structure prediction by ZEFSAII (Michael W. Deem and Ramdas Pophale) SiO2 
 PCOD9562828
Probable space group: P 4/M C C
;
_chemical_formula_sum "Si O2"
_cell_formula_units_Z 80
_cell_length_a 21.983146
_cell_length_b 21.983146
_cell_length_c 10.372421
_cell_angle_alpha 90.000000
_cell_angle_beta 90.000000
_cell_angle_gamma 90.000000
_cell_volume 5012.562772
_symmetry_space_group_name_H-M "P 4/M C C"
_symmetry_group_IT_number 124
_symmetry_cell_setting 'tetragonal'
loop_
_space_group_symop_operation_xyz
x,y,z
-y,x,z
-x,-y,z
y,-x,z
x,-y,1/2-z
-x,y,1/2-z
y,x,1/2-z
-y,-x,1/2-z
-x,-y,-z
y,-x,-z
x,y,-z
-y,x,-z
-x,y,1/2+z
x,-y,1/2+z
-y,-x,1/2+z
y,x,1/2+z
loop_
_atom_site_type_symbol
_atom_site_label
_atom_site_fract_x
_atom_site_fract_y
_atom_site_fract_z
Si Si1 0.551417 0.088152 0.147598
Si Si2 0.315713 0.500000 0.250000
Si Si3 0.505165 0.601670 0.000000
Si Si4 0.403772 0.773354 0.149863
Si Si5 0.949387 0.691137 0.149655
Si Si6 0.811263 0.266414 0.652790
O O1 0.500000 0.070808 0.250000
O O2 0.565306 0.160274 0.160275
O O3 0.618054 0.058962 0.165881
O O4 0.531614 0.076193 0.000000
O O5 0.357171 0.493718 0.374365
O O6 0.273282 0.440886 0.235580
O O7 0.444506 0.561300 0.000000
O O8 0.332475 0.780815 0.178897
O O9 0.409153 0.754598 0.000000
O O10 0.883511 0.722062 0.170924
O O11 0.000000 0.712317 0.250000
O O12 0.966390 0.701427 0.000000
O O13 0.782202 0.217799 0.750000
O O14 0.801726 0.252294 0.500000
#
# Coordination Sequence:
#
# PCOD9562828 Si02
#       6
#    16   8   8  16  16  16
#     4   9  17  30  48  67  98 130 161 204 251 292
#     4  12  20  37  60  72  89 118 158 206 258 318
#     4  11  26  42  52  66  88 114 149 200 262 322
#     4   9  18  34  51  74  99 124 156 203 255 307
#     4   9  19  34  51  72 103 139 175 212 250 294
#     4   9  19  36  54  77 109 138 167 213 260 302
#
# _framework density 15.959901
#
# number of rings (size 3 to 8) (size 9 to 14) (size 15 to 20)
#    0.000    2.500    2.000    3.000    0.000    4.400 
#    1.800    4.000    0.000    0.000    0.000    0.000 
#    0.000    0.400    0.000    4.400    0.000    3.200 
#
# Total GULP energy -446182.535294 kJ/mol
# GULP energy per Si atom -5577.281691 kJ/mol
# Density = 1.592358 g / cm^3
# Si number density = 15.959901 Si / 1000 Ang^3
#
#
#
# Elastic Constant Matrix: (Units=GPa)
#
#
# Indices 1 2 3 4 5 6 
#
# 1 81.4617 38.9327 69.5625 0.0000 0.0000 0.0000
# 2 38.9327 81.4643 69.5635 0.0000 0.0000 0.0000
# 3 69.5625 69.5635 127.4243 0.0000 0.0000 0.0000
# 4 0.0000 0.0000 0.0000 29.9786 0.0000 0.0000
# 5 0.0000 0.0000 0.0000 0.0000 29.9772 0.0000
# 6 0.0000 0.0000 0.0000 0.0000 0.0000 5.9134
#
#
#
# Elastic Compliance Matrix: (Units=1/GPa)
#
#
# Indices 1 2 3 4 5 6 
#
# 1 0.023007 -0.000506 -0.012283 0.000000 0.000000 0.000000
# 2 -0.000506 0.023006 -0.012283 0.000000 0.000000 0.000000
# 3 -0.012283 -0.012283 0.021259 0.000000 0.000000 0.000000
# 4 0.000000 0.000000 0.000000 0.033357 0.000000 0.000000
# 5 0.000000 0.000000 0.000000 0.000000 0.033359 0.000000
# 6 0.000000 0.000000 0.000000 0.000000 0.000000 0.169107
#
#
# Mechanical properties :
#
#
# Convention : Reuss Voigt Hill
#
# Bulk Modulus (GPa) = 58.38930 71.82974 65.10952
# Shear Modulus (GPa) = 13.92959 20.65995 17.29477
#
# Velocity S-wave (km/s) = 2.95750 3.60181 3.29544
# Velocity P-wave (km/s) = 6.95175 7.89946 7.44071
#
# Compressibility (1/GPa) = 0.01712643
#
# Stress axis : x y z
#
# Youngs Moduli (GPa) = 43.46558 43.46715 47.03917
#
# Poissons Ratio (x) = 0.02201 0.57779
# Poissons Ratio (y) = 0.02201 0.57778
# Poissons Ratio (z) = 0.53390 0.53391
#
# Static dielectric constant tensor:
#      x y z
#    x 1.523400 0.000000 0.000000 
#    y 0.000000 1.523400 0.000000 
#    z 0.000000 0.000000 1.527280 
# 
# From -- ./inp_files/1215.got.cif
#   From: 2010.05.17/outbox.cif.g08.bks.cpg/sg124_1_cif.got.tgz:1215.got - 2010.05.20 11:49:17.
