data_PCOD9562452
_publ_section_title
;
Structure prediction by ZEFSAII (Michael W. Deem and Ramdas Pophale) SiO2 
 PCOD9562452
Probable space group: P 4/M C C
;
_chemical_formula_sum "Si O2"
_cell_formula_units_Z 56
_cell_length_a 13.829188
_cell_length_b 13.829188
_cell_length_c 14.617825
_cell_angle_alpha 90.000000
_cell_angle_beta 90.000000
_cell_angle_gamma 90.000000
_cell_volume 2795.607003
_symmetry_space_group_name_H-M "P 4/M C C"
_symmetry_group_IT_number 124
_symmetry_cell_setting 'tetragonal'
loop_
_space_group_symop_operation_xyz
x,y,z
-y,x,z
-x,-y,z
y,-x,z
x,-y,1/2-z
-x,y,1/2-z
y,x,1/2-z
-y,-x,1/2-z
-x,-y,-z
y,-x,-z
x,y,-z
-y,x,-z
-x,y,1/2+z
x,-y,1/2+z
-y,-x,1/2+z
y,x,1/2+z
loop_
_atom_site_type_symbol
_atom_site_label
_atom_site_fract_x
_atom_site_fract_y
_atom_site_fract_z
Si Si1 0.329762 0.717048 0.843037
Si Si2 0.822071 0.343248 0.000000
Si Si3 0.259769 0.963611 0.000000
Si Si4 0.193904 0.564143 0.500000
Si Si5 0.090379 0.778416 0.304032
O O1 0.343413 0.656588 0.750000
O O2 0.243425 0.682356 0.911074
O O3 0.297113 0.822114 0.806015
O O4 0.417780 0.738889 0.911113
O O5 0.844790 0.456566 0.000000
O O6 0.923825 0.287906 0.000000
O O7 0.354702 0.891736 0.000000
O O8 0.202988 0.937902 0.091758
O O9 0.128819 0.871182 0.250000
O O10 0.000000 0.736506 0.250000
#
# Coordination Sequence:
#
# PCOD9562452 Si02
#       5
#    16   8   8   8  16
#     4   9  19  36  55  77 109 149 185 224 280 336
#     4  11  20  35  58  81 114 145 179 236 286 338
#     4  10  19  34  55  80 113 150 185 230 286 326
#     4   9  20  33  53  87 111 141 190 228 276 347
#     4  10  20  34  53  77 107 146 191 229 267 323
#
# _framework density 20.031428999999999
#
# number of rings (size 3 to 8) (size 9 to 14) (size 15 to 20)
#    0.000    2.286    0.000    4.714    0.000    2.571 
#    0.000    0.000    0.000   18.857    0.000    8.000 
#    0.000    0.000    0.000    0.000    0.000    0.000 
#
# Total GULP energy -312254.680159 kJ/mol
# GULP energy per Si atom -5575.976431 kJ/mol
# Density = 1.998584 g / cm^3
# Si number density = 20.031429 Si / 1000 Ang^3
#
#
#
# Elastic Constant Matrix: (Units=GPa)
#
#
# Indices 1 2 3 4 5 6 
#
# 1 30.0969 31.5904 24.9865 0.0000 0.0000 0.0000
# 2 31.5904 30.0961 24.9872 0.0000 0.0000 0.0000
# 3 24.9865 24.9872 147.3645 0.0000 0.0000 0.0000
# 4 0.0000 0.0000 0.0000 8.1036 0.0000 0.0000
# 5 0.0000 0.0000 0.0000 0.0000 8.1040 0.0000
# 6 0.0000 0.0000 0.0000 0.0000 0.0000 11.4423
#
#
#
# Elastic Compliance Matrix: (Units=1/GPa)
#
#
# Indices 1 2 3 4 5 6 
#
# 1 -0.325281 0.344079 -0.003189 0.000000 0.000000 0.000000
# 2 0.344079 -0.325293 -0.003184 0.000000 0.000000 0.000000
# 3 -0.003189 -0.003184 0.007866 0.000000 0.000000 0.000000
# 4 0.000000 0.000000 0.000000 0.123402 0.000000 0.000000
# 5 0.000000 0.000000 0.000000 0.000000 0.123397 0.000000
# 6 0.000000 0.000000 0.000000 0.000000 0.000000 0.087395
#
#
# Mechanical properties :
#
#
# Convention : Reuss Voigt Hill
#
# Bulk Modulus (GPa) = 30.57599 41.18729 35.88164
# Shear Modulus (GPa) = -5.13861 13.92952 4.39546
#
# Velocity S-wave (km/s) = -1.60338 2.63987 1.48292
# Velocity P-wave (km/s) = 3.44519 5.46790 4.56986
#
# Compressibility (1/GPa) = 0.03270540
#
# Stress axis : x y z
#
# Youngs Moduli (GPa) = -3.07426 -3.07415 127.12224
#
# Poissons Ratio (x) = 1.05775 0.40539
# Poissons Ratio (y) = 1.05779 0.40473
# Poissons Ratio (z) = -0.00980 -0.00979
#
# Static dielectric constant tensor:
#      x y z
#    x 1.708090 0.000000 0.000000 
#    y 0.000000 1.708100 0.000000 
#    z 0.000000 0.000000 1.790820 
# 
# From -- ./inp_files/2921.got.cif
#   From: 2010.05.17/outbox.cif.g08.bks.cpg/sg124_2_cif.got.tgz:2921.got - 2010.05.20 11:49:17.
