data_PCOD9562989
_publ_section_title
;
Structure prediction by ZEFSAII (Michael W. Deem and Ramdas Pophale) SiO2 
 PCOD9562989
Probable space group: P 4/N B M
;
_chemical_formula_sum "Si O2"
_cell_formula_units_Z 72
_cell_length_a 19.283685
_cell_length_b 19.283685
_cell_length_c 10.625669
_cell_angle_alpha 90.000000
_cell_angle_beta 90.000000
_cell_angle_gamma 90.000000
_cell_volume 3951.266663
_symmetry_space_group_name_H-M "P 4/N B M"
_symmetry_group_IT_number 125
_space_group.IT_coordinate_system_code '2'
_symmetry_cell_setting 'tetragonal'
loop_
_space_group_symop_operation_xyz
x,y,z
1/2-y,x,z
1/2-x,1/2-y,z
y,1/2-x,z
x,1/2-y,-z
1/2-x,y,-z
y,x,-z
1/2-y,1/2-x,-z
-x,-y,-z
1/2+y,-x,-z
1/2+x,1/2+y,-z
-y,1/2+x,-z
-x,1/2+y,z
1/2+x,-y,z
-y,-x,z
1/2+y,1/2+x,z
loop_
_atom_site_type_symbol
_atom_site_label
_atom_site_fract_x
_atom_site_fract_y
_atom_site_fract_z
Si Si1 0.005356 0.880151 0.284705
Si Si2 0.825846 0.440726 0.543037
Si Si3 0.912841 0.524031 0.873159
Si Si4 0.637284 0.250000 0.000000
Si Si5 0.727513 0.482733 0.191181
O O1 0.076266 0.923735 0.253991
O O2 0.012658 0.858845 0.431407
O O3 0.997139 0.807440 0.211421
O O4 0.944169 0.931221 0.242093
O O5 0.750000 0.415030 0.500000
O O6 0.877969 0.377969 0.563751
O O7 0.809248 0.477999 0.673195
O O8 0.829989 0.526151 0.883687
O O9 0.946650 0.446650 0.861414
O O10 0.944667 0.555334 0.000000
O O11 0.589759 0.231134 0.881867
O O12 0.685888 0.314113 0.966428
#
# Coordination Sequence:
#
# PCOD9562989 Si02
#       5
#    16  16  16   8  16
#     4   9  19  35  53  76 105 133 167 212 255 299
#     4   9  18  31  48  72 101 134 169 207 252 302
#     4  10  20  33  51  75 101 132 171 212 254 299
#     4  11  22  32  46  72 104 137 172 210 252 303
#     4  11  20  34  53  72 100 136 173 209 253 305
#
# _framework density 18.222004999999999
#
# number of rings (size 3 to 8) (size 9 to 14) (size 15 to 20)
#    0.000    2.111    0.000    4.000    0.000    3.778 
#    0.000    3.333    0.000    0.667    0.000    1.556 
#    0.000    5.333    0.000    0.000    0.000    0.000 
#
# Total GULP energy -401227.859466 kJ/mol
# GULP energy per Si atom -5572.609159 kJ/mol
# Density = 1.818053 g / cm^3
# Si number density = 18.222005 Si / 1000 Ang^3
#
#
#
# Elastic Constant Matrix: (Units=GPa)
#
#
# Indices 1 2 3 4 5 6 
#
# 1 64.3618 25.9845 13.4045 0.0000 0.0000 0.0000
# 2 25.9845 64.3619 13.4045 0.0000 0.0000 0.0000
# 3 13.4045 13.4045 43.6614 0.0000 0.0000 0.0000
# 4 0.0000 0.0000 0.0000 23.3559 0.0000 0.0000
# 5 0.0000 0.0000 0.0000 0.0000 23.3558 0.0000
# 6 0.0000 0.0000 0.0000 0.0000 0.0000 18.9093
#
#
#
# Elastic Compliance Matrix: (Units=1/GPa)
#
#
# Indices 1 2 3 4 5 6 
#
# 1 0.019118 -0.006940 -0.003739 0.000000 0.000000 0.000000
# 2 -0.006940 0.019117 -0.003739 0.000000 0.000000 0.000000
# 3 -0.003739 -0.003739 0.025199 0.000000 0.000000 0.000000
# 4 0.000000 0.000000 0.000000 0.042816 0.000000 0.000000
# 5 0.000000 0.000000 0.000000 0.000000 0.042816 0.000000
# 6 0.000000 0.000000 0.000000 0.000000 0.000000 0.052884
#
#
# Mechanical properties :
#
#
# Convention : Reuss Voigt Hill
#
# Bulk Modulus (GPa) = 28.90168 30.88579 29.89374
# Shear Modulus (GPa) = 20.63409 21.09696 20.86552
#
# Velocity S-wave (km/s) = 3.36872 3.40630 3.38756
# Velocity P-wave (km/s) = 5.57013 5.69711 5.63398
#
# Compressibility (1/GPa) = 0.03460006
#
# Stress axis : x y z
#
# Youngs Moduli (GPa) = 52.30802 52.30813 39.68380
#
# Poissons Ratio (x) = 0.36300 0.14837
# Poissons Ratio (y) = 0.36300 0.14837
# Poissons Ratio (z) = 0.19557 0.19557
#
# Static dielectric constant tensor:
#      x y z
#    x 1.628070 0.000000 0.000000 
#    y 0.000000 1.628070 0.000000 
#    z 0.000000 0.000000 1.537200 
# 
# From -- ./inp_files/3803.got.cif
#   From: 2010.05.17/outbox.cif.g08.bks.cpg/sg125_2_cif.got.tgz:3803.got - 2010.05.20 11:54:10.
