data_PCOD9562318
_publ_section_title
;
Structure prediction by ZEFSAII (Michael W. Deem and Ramdas Pophale) SiO2 
 PCOD9562318
Probable space group: P 4/M C C
;
_chemical_formula_sum "Si O2"
_cell_formula_units_Z 96
_cell_length_a 23.917333
_cell_length_b 23.917333
_cell_length_c 8.810393
_cell_angle_alpha 90.000000
_cell_angle_beta 90.000000
_cell_angle_gamma 90.000000
_cell_volume 5039.886796
_symmetry_space_group_name_H-M "P 4/M C C"
_symmetry_group_IT_number 124
_symmetry_cell_setting 'tetragonal'
loop_
_space_group_symop_operation_xyz
x,y,z
-y,x,z
-x,-y,z
y,-x,z
x,-y,1/2-z
-x,y,1/2-z
y,x,1/2-z
-y,-x,1/2-z
-x,-y,-z
y,-x,-z
x,y,-z
-y,x,-z
-x,y,1/2+z
x,-y,1/2+z
-y,-x,1/2+z
y,x,1/2+z
loop_
_atom_site_type_symbol
_atom_site_label
_atom_site_fract_x
_atom_site_fract_y
_atom_site_fract_z
Si Si1 0.555978 0.366711 0.668876
Si Si2 0.758179 0.676962 0.317203
Si Si3 0.768067 0.556260 0.329341
Si Si4 0.324214 0.061936 0.681759
Si Si5 0.558731 0.936713 0.183203
Si Si6 0.764938 0.844662 0.681720
O O1 0.500000 0.386217 0.750000
O O2 0.609934 0.390067 0.750000
O O3 0.556602 0.388491 0.500000
O O4 0.554412 0.299629 0.664442
O O5 0.700275 0.700275 0.250000
O O6 0.753752 0.673960 0.500000
O O7 0.777175 0.616605 0.256700
O O8 0.803424 0.721523 0.264318
O O9 0.786740 0.500000 0.250000
O O10 0.790972 0.556607 0.500000
O O11 0.333842 0.059650 0.500000
O O12 0.381178 0.086853 0.759008
O O13 0.266569 0.096303 0.707464
O O14 0.317547 0.000000 0.750000
O O15 0.500000 0.913105 0.250000
O O16 0.560124 0.000000 0.250000
O O17 0.556959 0.937138 0.000000
O O18 0.825073 0.825073 0.750000
O O19 0.766180 0.835162 0.500000
#
# Coordination Sequence:
#
# PCOD9562318 Si02
#       6
#    16  16  16  16  16  16
#     4  10  19  31  44  59  78 100 129 167 215 272
#     4  10  19  32  51  73  95 124 162 201 246 298
#     4   9  19  32  47  67  89 114 146 187 236 289
#     4  10  20  34  53  79 109 143 184 226 271 322
#     4  10  17  27  45  69 100 138 180 226 273 322
#     4  10  21  36  55  79 107 139 175 215 258 305
#
# _framework density 19.048047
#
# number of rings (size 3 to 8) (size 9 to 14) (size 15 to 20)
#    0.000    2.167    0.000    6.500    0.000    4.833 
#    0.000    1.667    0.000    2.000    0.000    0.000 
#    0.000    0.333    0.000    3.667    0.000    2.667 
#
# Total GULP energy -535038.275577 kJ/mol
# GULP energy per Si atom -5573.315371 kJ/mol
# Density = 1.900469 g / cm^3
# Si number density = 19.048047 Si / 1000 Ang^3
#
#
#
# Elastic Constant Matrix: (Units=GPa)
#
#
# Indices 1 2 3 4 5 6 
#
# 1 82.5329 38.6624 33.5548 0.0000 0.0000 0.0000
# 2 38.6624 82.5354 33.5543 0.0000 0.0000 0.0000
# 3 33.5548 33.5543 109.9919 0.0000 0.0000 0.0000
# 4 0.0000 0.0000 0.0000 15.3454 0.0000 0.0000
# 5 0.0000 0.0000 0.0000 0.0000 15.3451 0.0000
# 6 0.0000 0.0000 0.0000 0.0000 0.0000 17.6695
#
#
#
# Elastic Compliance Matrix: (Units=1/GPa)
#
#
# Indices 1 2 3 4 5 6 
#
# 1 0.016361 -0.006433 -0.003029 0.000000 0.000000 0.000000
# 2 -0.006433 0.016361 -0.003029 0.000000 0.000000 0.000000
# 3 -0.003029 -0.003029 0.010939 0.000000 0.000000 0.000000
# 4 0.000000 0.000000 0.000000 0.065166 0.000000 0.000000
# 5 0.000000 0.000000 0.000000 0.000000 0.065167 0.000000
# 6 0.000000 0.000000 0.000000 0.000000 0.000000 0.056595
#
#
# Mechanical properties :
#
#
# Convention : Reuss Voigt Hill
#
# Bulk Modulus (GPa) = 53.53065 54.06700 53.79882
# Shear Modulus (GPa) = 19.09876 20.95790 20.02833
#
# Velocity S-wave (km/s) = 3.16992 3.32062 3.24615
# Velocity P-wave (km/s) = 6.44685 6.56873 6.50807
#
# Compressibility (1/GPa) = 0.01868089
#
# Stress axis : x y z
#
# Youngs Moduli (GPa) = 61.12009 61.12246 91.41201
#
# Poissons Ratio (x) = 0.39319 0.27687
# Poissons Ratio (y) = 0.39317 0.27685
# Poissons Ratio (z) = 0.18512 0.18511
#
# Static dielectric constant tensor:
#      x y z
#    x 1.716520 0.000000 0.000000 
#    y 0.000000 1.716520 0.000000 
#    z 0.000000 0.000000 1.656150 
# 
# From -- ./inp_files/1355.got.cif
#   From: 2010.05.17/outbox.cif.g08.bks.cpg/sg124_1_cif.got.tgz:1355.got - 2010.05.20 11:49:17.
