data_PCOD9562673
_publ_section_title
;
Structure prediction by ZEFSAII (Michael W. Deem and Ramdas Pophale) SiO2 
 PCOD9562673
Probable space group: P 4/M C C
;
_chemical_formula_sum "Si O2"
_cell_formula_units_Z 120
_cell_length_a 19.567912
_cell_length_b 19.567912
_cell_length_c 15.789193
_cell_angle_alpha 90.000000
_cell_angle_beta 90.000000
_cell_angle_gamma 90.000000
_cell_volume 6045.732210
_symmetry_space_group_name_H-M "P 4/M C C"
_symmetry_group_IT_number 124
_symmetry_cell_setting 'tetragonal'
loop_
_space_group_symop_operation_xyz
x,y,z
-y,x,z
-x,-y,z
y,-x,z
x,-y,1/2-z
-x,y,1/2-z
y,x,1/2-z
-y,-x,1/2-z
-x,-y,-z
y,-x,-z
x,y,-z
-y,x,-z
-x,y,1/2+z
x,-y,1/2+z
-y,-x,1/2+z
y,x,1/2+z
loop_
_atom_site_type_symbol
_atom_site_label
_atom_site_fract_x
_atom_site_fract_y
_atom_site_fract_z
Si Si1 0.283167 0.168072 0.252908
Si Si2 0.489710 0.076047 0.899108
Si Si3 0.005166 0.110490 0.897581
Si Si4 0.434223 0.650856 0.810596
Si Si5 0.563296 0.406141 0.000000
Si Si6 0.563453 0.190094 0.189303
Si Si7 0.737291 0.031399 0.840048
Si Si8 0.333708 0.909823 0.404127
O O1 0.230359 0.230359 0.250000
O O2 0.361018 0.187538 0.272987
O O3 0.264867 0.112246 0.325296
O O4 0.285913 0.130656 0.161454
O O5 0.549002 0.130260 0.878024
O O6 0.412395 0.098326 0.876071
O O7 0.500000 0.000000 0.862298
O O8 0.487514 0.070192 0.000000
O O9 0.010340 0.185552 0.861135
O O10 0.937140 0.069187 0.872204
O O11 0.005281 0.114460 0.000000
O O12 0.500000 0.629051 0.750000
O O13 0.370901 0.629100 0.750000
O O14 0.420730 0.621082 0.904924
O O15 0.445601 0.730383 0.831945
O O16 0.592678 0.481772 0.000000
O O17 0.500000 0.174432 0.250000
O O18 0.716436 0.000000 0.750000
O O19 0.687174 0.990062 0.901788
O O20 0.325888 0.884639 0.500000
#
# Coordination Sequence:
#
# PCOD9562673 Si02
#       8
#    16  16  16  16   8  16  16  16
#     4  11  24  43  63  93 131 168 219 265 320 395
#     4  10  21  39  67 100 129 157 208 275 324 383
#     4   9  19  35  55  82 114 155 207 257 305 363
#     4  11  23  40  64  97 135 177 224 278 334 402
#     4  11  22  38  66 100 129 176 224 276 341 395
#     4  11  23  42  67  91 126 172 215 267 334 391
#     4  10  22  35  59  88 123 163 203 256 314 381
#     4  10  21  41  64  93 127 167 211 260 323 387
#
# _framework density 19.848711000000002
#
# number of rings (size 3 to 8) (size 9 to 14) (size 15 to 20)
#    0.000    1.667    2.667    2.000    4.667    0.400 
#    0.000    2.667    4.400    0.000    0.000    0.000 
#    0.000    0.000    0.000    0.000    0.000    0.000 
#
# Total GULP energy -668180.994952 kJ/mol
# GULP energy per Si atom -5568.174958 kJ/mol
# Density = 1.980353 g / cm^3
# Si number density = 19.848711 Si / 1000 Ang^3
#
#
#
# Elastic Constant Matrix: (Units=GPa)
#
#
# Indices 1 2 3 4 5 6 
#
# 1 85.3124 29.7989 27.8536 0.0000 0.0000 0.0000
# 2 29.7989 85.3100 27.8533 0.0000 0.0000 0.0000
# 3 27.8536 27.8533 82.9133 0.0000 0.0000 0.0000
# 4 0.0000 0.0000 0.0000 15.7575 0.0000 0.0000
# 5 0.0000 0.0000 0.0000 0.0000 15.7577 0.0000
# 6 0.0000 0.0000 0.0000 0.0000 0.0000 24.5587
#
#
#
# Elastic Compliance Matrix: (Units=1/GPa)
#
#
# Indices 1 2 3 4 5 6 
#
# 1 0.014194 -0.003820 -0.003485 0.000000 0.000000 0.000000
# 2 -0.003820 0.014194 -0.003485 0.000000 0.000000 0.000000
# 3 -0.003485 -0.003485 0.014402 0.000000 0.000000 0.000000
# 4 0.000000 0.000000 0.000000 0.063462 0.000000 0.000000
# 5 0.000000 0.000000 0.000000 0.000000 0.063461 0.000000
# 6 0.000000 0.000000 0.000000 0.000000 0.000000 0.040719
#
#
# Mechanical properties :
#
#
# Convention : Reuss Voigt Hill
#
# Bulk Modulus (GPa) = 47.14717 47.17190 47.15953
# Shear Modulus (GPa) = 20.91337 22.41678 21.66508
#
# Velocity S-wave (km/s) = 3.24950 3.36427 3.30739
# Velocity P-wave (km/s) = 6.15499 6.23766 6.19646
#
# Compressibility (1/GPa) = 0.02121018
#
# Stress axis : x y z
#
# Youngs Moduli (GPa) = 70.45363 70.45160 69.43376
#
# Poissons Ratio (x) = 0.26913 0.24197
# Poissons Ratio (y) = 0.26914 0.24197
# Poissons Ratio (z) = 0.24552 0.24552
#
# Static dielectric constant tensor:
#      x y z
#    x 1.738480 0.000000 0.000000 
#    y 0.000000 1.738480 0.000000 
#    z 0.000000 0.000000 1.751240 
# 
# From -- ./inp_files/3488.got.cif
#   From: 2010.05.17/outbox.cif.g08.bks.cpg/sg124_2_cif.got.tgz:3488.got - 2010.05.20 11:49:17.
