data_PCOD9562497
_publ_section_title
;
Structure prediction by ZEFSAII (Michael W. Deem and Ramdas Pophale) SiO2 
 PCOD9562497
Probable space group: P 4/M C C
;
_chemical_formula_sum "Si O2"
_cell_formula_units_Z 80
_cell_length_a 11.133162
_cell_length_b 11.133162
_cell_length_c 32.482754
_cell_angle_alpha 90.000000
_cell_angle_beta 90.000000
_cell_angle_gamma 90.000000
_cell_volume 4026.149529
_symmetry_space_group_name_H-M "P 4/M C C"
_symmetry_group_IT_number 124
_symmetry_cell_setting 'tetragonal'
loop_
_space_group_symop_operation_xyz
x,y,z
-y,x,z
-x,-y,z
y,-x,z
x,-y,1/2-z
-x,y,1/2-z
y,x,1/2-z
-y,-x,1/2-z
-x,-y,-z
y,-x,-z
x,y,-z
-y,x,-z
-x,y,1/2+z
x,-y,1/2+z
-y,-x,1/2+z
y,x,1/2+z
loop_
_atom_site_type_symbol
_atom_site_label
_atom_site_fract_x
_atom_site_fract_y
_atom_site_fract_z
Si Si1 0.445924 0.135928 0.291345
Si Si2 0.134856 0.450718 0.885381
Si Si3 0.299763 0.529612 0.045461
Si Si4 0.822544 0.923425 0.703519
Si Si5 0.179851 0.075735 0.395976
O O1 0.500000 0.194805 0.250000
O O2 0.459443 0.184071 0.338201
O O3 0.304729 0.125880 0.284041
O O4 0.500000 0.000000 0.292939
O O5 0.210426 0.531173 0.916576
O O6 0.125984 0.313904 0.903210
O O7 0.000000 0.500000 0.883637
O O8 0.370098 0.402736 0.047847
O O9 0.242406 0.538027 0.000000
O O10 0.823019 0.925595 0.653717
O O11 0.938074 0.845289 0.714931
O O12 0.062925 0.153680 0.409504
#
# Coordination Sequence:
#
# PCOD9562497 Si02
#       5
#    16  16  16  16  16
#     4   9  18  34  49  71 116 151 177 216 268 322
#     4  10  20  31  57  87 110 146 189 229 275 338
#     4   9  20  40  63  85 110 141 182 238 290 326
#     4   8  14  28  52  77  96 131 187 232 263 303
#     4   8  15  28  48  78 115 148 179 221 271 327
#
# _framework density 19.870100999999998
#
# number of rings (size 3 to 8) (size 9 to 14) (size 15 to 20)
#    0.000    3.200    0.000    1.800    2.800    0.400 
#    3.600    4.000    4.400    4.800    0.000    5.600 
#    0.000    1.600    0.000    0.000    0.000    0.000 
#
# Total GULP energy -445746.657124 kJ/mol
# GULP energy per Si atom -5571.833214 kJ/mol
# Density = 1.982488 g / cm^3
# Si number density = 19.870101 Si / 1000 Ang^3
#
#
#
# Elastic Constant Matrix: (Units=GPa)
#
#
# Indices 1 2 3 4 5 6 
#
# 1 44.4377 -7.6832 18.8846 0.0000 0.0000 0.0000
# 2 -7.6832 44.4377 18.8846 0.0000 0.0000 0.0000
# 3 18.8846 18.8846 99.8572 0.0000 0.0000 0.0000
# 4 0.0000 0.0000 0.0000 22.0337 0.0000 0.0000
# 5 0.0000 0.0000 0.0000 0.0000 22.0337 0.0000
# 6 0.0000 0.0000 0.0000 0.0000 0.0000 9.8762
#
#
#
# Elastic Compliance Matrix: (Units=1/GPa)
#
#
# Indices 1 2 3 4 5 6 
#
# 1 0.026478 0.007292 -0.006387 0.000000 0.000000 0.000000
# 2 0.007292 0.026478 -0.006387 0.000000 0.000000 0.000000
# 3 -0.006387 -0.006387 0.012430 0.000000 0.000000 0.000000
# 4 0.000000 0.000000 0.000000 0.045385 0.000000 0.000000
# 5 0.000000 0.000000 0.000000 0.000000 0.045385 0.000000
# 6 0.000000 0.000000 0.000000 0.000000 0.000000 0.101254
#
#
# Mechanical properties :
#
#
# Convention : Reuss Voigt Hill
#
# Bulk Modulus (GPa) = 18.37404 27.65607 23.01506
# Shear Modulus (GPa) = 17.45119 21.36516 19.40818
#
# Velocity S-wave (km/s) = 2.96677 3.28265 3.12869
# Velocity P-wave (km/s) = 4.58288 5.32131 4.96584
#
# Compressibility (1/GPa) = 0.05442460
#
# Stress axis : x y z
#
# Youngs Moduli (GPa) = 37.76678 37.76678 80.45117
#
# Poissons Ratio (x) = -0.27540 0.51380
# Poissons Ratio (y) = -0.27540 0.51380
# Poissons Ratio (z) = 0.24120 0.24120
#
# Static dielectric constant tensor:
#      x y z
#    x 1.713580 0.000000 0.000000 
#    y 0.000000 1.713580 0.000000 
#    z 0.000000 0.000000 1.778210 
# 
# From -- ./inp_files/6926.got.cif
#   From: 2010.05.17/outbox.cif.g08.bks.cpg/sg124_4_cif.got.tgz:6926.got - 2010.05.20 11:49:17.
