data_PCOD9562169
_publ_section_title
;
Structure prediction by ZEFSAII (Michael W. Deem and Ramdas Pophale) SiO2 
 PCOD9562169
Probable space group: P 4/M M M
;
_chemical_formula_sum "Si O2"
_cell_formula_units_Z 88
_cell_length_a 13.501195
_cell_length_b 13.501195
_cell_length_c 28.815285
_cell_angle_alpha 90.000000
_cell_angle_beta 90.000000
_cell_angle_gamma 90.000000
_cell_volume 5252.515458
_symmetry_space_group_name_H-M "P 4/M M M"
_symmetry_group_IT_number 123
_symmetry_cell_setting 'tetragonal'
loop_
_space_group_symop_operation_xyz
x,y,z
-y,x,z
-x,-y,z
y,-x,z
x,-y,-z
-x,y,-z
y,x,-z
-y,-x,-z
-x,-y,-z
y,-x,-z
x,y,-z
-y,x,-z
-x,y,z
x,-y,z
-y,-x,z
y,x,z
loop_
_atom_site_type_symbol
_atom_site_label
_atom_site_fract_x
_atom_site_fract_y
_atom_site_fract_z
Si Si1 0.116886 0.281060 0.761313
Si Si2 0.279048 0.114319 0.867472
Si Si3 0.383167 0.781258 0.323572
Si Si4 0.382036 0.782361 0.500000
Si Si5 0.385532 0.219862 0.052174
Si Si6 0.281978 0.117754 0.411332
O O1 0.178615 0.178615 0.756424
O O2 0.130177 0.315585 0.814625
O O3 0.164092 0.355813 0.724448
O O4 0.000000 0.267338 0.752902
O O5 0.183674 0.183674 0.873630
O O6 0.355677 0.145665 0.907024
O O7 0.252437 0.000000 0.871914
O O8 0.500000 0.766868 0.328524
O O9 0.321113 0.678888 0.325022
O O10 0.339702 0.848524 0.365059
O O11 0.500000 0.769142 0.500000
O O12 0.321199 0.678802 0.500000
O O13 0.345372 0.842962 0.544999
O O14 0.500000 0.247218 0.055901
O O15 0.315356 0.315356 0.056864
O O16 0.368807 0.178763 0.000000
O O17 0.178547 0.178547 0.412150
O O18 0.268699 0.000000 0.412983
#
# Coordination Sequence:
#
# PCOD9562169 Si02
#       6
#    16  16  16   8  16  16
#     4   9  18  32  50  73  99 127 160 197 238 285
#     4   9  18  32  49  70  97 127 159 196 236 280
#     4  10  21  36  53  74 100 130 166 206 246 291
#     4  10  21  36  54  78 106 136 173 214 254 298
#     4   9  18  32  49  69  93 121 154 194 239 285
#     4  10  21  36  54  78 106 135 169 207 248 297
#
# _framework density 16.753878
#
# number of rings (size 3 to 8) (size 9 to 14) (size 15 to 20)
#    0.000    2.545    0.000    1.364    0.000    5.364 
#    0.000    5.455    0.000    8.182    0.000    7.636 
#    0.000    0.000    0.000    0.000    0.000    0.000 
#
# Total GULP energy -490594.020968 kJ/mol
# GULP energy per Si atom -5574.932056 kJ/mol
# Density = 1.671574 g / cm^3
# Si number density = 16.753878 Si / 1000 Ang^3
#
#
#
# Elastic Constant Matrix: (Units=GPa)
#
#
# Indices 1 2 3 4 5 6 
#
# 1 116.0616 58.1932 60.2432 0.0000 0.0000 0.0000
# 2 58.1932 116.0608 60.2433 0.0000 0.0000 0.0000
# 3 60.2432 60.2433 113.8615 0.0000 0.0000 0.0000
# 4 0.0000 0.0000 0.0000 19.3694 0.0000 0.0000
# 5 0.0000 0.0000 0.0000 0.0000 19.3693 0.0000
# 6 0.0000 0.0000 0.0000 0.0000 0.0000 3.4282
#
#
#
# Elastic Compliance Matrix: (Units=1/GPa)
#
#
# Indices 1 2 3 4 5 6 
#
# 1 0.013165 -0.004116 -0.004788 0.000000 0.000000 0.000000
# 2 -0.004116 0.013165 -0.004788 0.000000 0.000000 0.000000
# 3 -0.004788 -0.004788 0.013849 0.000000 0.000000 0.000000
# 4 0.000000 0.000000 0.000000 0.051628 0.000000 0.000000
# 5 0.000000 0.000000 0.000000 0.000000 0.051628 0.000000
# 6 0.000000 0.000000 0.000000 0.000000 0.000000 0.291701
#
#
# Mechanical properties :
#
#
# Convention : Reuss Voigt Hill
#
# Bulk Modulus (GPa) = 78.14923 78.14926 78.14925
# Shear Modulus (GPa) = 10.71159 19.58700 15.14929
#
# Velocity S-wave (km/s) = 2.53128 3.42292 3.01030
# Velocity P-wave (km/s) = 7.43572 7.89738 7.67002
#
# Compressibility (1/GPa) = 0.01279603
#
# Stress axis : x y z
#
# Youngs Moduli (GPa) = 75.95948 75.95858 72.20689
#
# Poissons Ratio (x) = 0.31262 0.34572
# Poissons Ratio (y) = 0.31263 0.34572
# Poissons Ratio (z) = 0.36368 0.36369
#
# Static dielectric constant tensor:
#      x y z
#    x 1.533850 0.000000 0.000000 
#    y 0.000000 1.533850 0.000000 
#    z 0.000000 0.000000 1.588220 
# 
# From -- ./inp_files/8467.got.cif
#   From: 2010.05.17/outbox.cif.g08.bks.cpg/sg123_5_cif.got.tgz:8467.got - 2010.05.20 11:43:04.
