data_PCOD9562223
_publ_section_title
;
Structure prediction by ZEFSAII (Michael W. Deem and Ramdas Pophale) SiO2 
 PCOD9562223
Probable space group: P 4/M M M
;
_chemical_formula_sum "Si O2"
_cell_formula_units_Z 56
_cell_length_a 20.093514
_cell_length_b 20.093514
_cell_length_c 7.504297
_cell_angle_alpha 90.000000
_cell_angle_beta 90.000000
_cell_angle_gamma 90.000000
_cell_volume 3029.854697
_symmetry_space_group_name_H-M "P 4/M M M"
_symmetry_group_IT_number 123
_symmetry_cell_setting 'tetragonal'
loop_
_space_group_symop_operation_xyz
x,y,z
-y,x,z
-x,-y,z
y,-x,z
x,-y,-z
-x,y,-z
y,x,-z
-y,-x,-z
-x,-y,-z
y,-x,-z
x,y,-z
-y,x,-z
-x,y,z
x,-y,z
-y,-x,z
y,x,z
loop_
_atom_site_type_symbol
_atom_site_label
_atom_site_fract_x
_atom_site_fract_y
_atom_site_fract_z
Si Si1 0.810599 0.921078 0.000000
Si Si2 0.574460 0.836210 0.288941
Si Si3 0.699479 0.078836 0.289948
Si Si4 0.681749 0.424990 0.784867
O O1 0.763975 0.906664 0.171207
O O2 0.875079 0.875079 0.000000
O O3 0.826177 0.000000 0.000000
O O4 0.571057 0.849597 0.500000
O O5 0.500000 0.848964 0.215217
O O6 0.635455 0.880349 0.222479
O O7 0.588949 0.758072 0.264229
O O8 0.710484 0.093545 0.500000
O O9 0.685802 0.000000 0.273839
O O10 0.665686 0.500000 0.723245
O O11 0.630090 0.369910 0.719388
O O12 0.678555 0.425312 0.000000
#
# Coordination Sequence:
#
# PCOD9562223 Si02
#       4
#     8  16  16  16
#     4  10  22  39  59  83 109 139 176 218 266 320
#     4   9  18  32  50  73 102 136 172 212 258 308
#     4   9  19  36  56  80 111 143 176 215 258 308
#     4   9  18  31  46  65  91 125 166 213 260 305
#
# _framework density 18.482734000000001
#
# number of rings (size 3 to 8) (size 9 to 14) (size 15 to 20)
#    0.000    2.857    0.000    0.000    2.000    3.286 
#    0.000    7.143    0.000    2.571    0.000    8.000 
#    0.000    0.000    0.000    0.000    0.000    0.000 
#
# Total GULP energy -312268.527140 kJ/mol
# GULP energy per Si atom -5576.223699 kJ/mol
# Density = 1.844067 g / cm^3
# Si number density = 18.482734 Si / 1000 Ang^3
#
#
#
# Elastic Constant Matrix: (Units=GPa)
#
#
# Indices 1 2 3 4 5 6 
#
# 1 109.2234 102.3834 34.5114 0.0000 0.0000 0.0000
# 2 102.3834 109.2234 34.5114 0.0000 0.0000 0.0000
# 3 34.5114 34.5114 69.5359 0.0000 0.0000 0.0000
# 4 0.0000 0.0000 0.0000 14.9663 0.0000 0.0000
# 5 0.0000 0.0000 0.0000 0.0000 14.9663 0.0000
# 6 0.0000 0.0000 0.0000 0.0000 0.0000 60.6243
#
#
#
# Elastic Compliance Matrix: (Units=1/GPa)
#
#
# Indices 1 2 3 4 5 6 
#
# 1 0.075918 -0.070280 -0.002798 0.000000 0.000000 0.000000
# 2 -0.070280 0.075918 -0.002798 0.000000 0.000000 0.000000
# 3 -0.002798 -0.002798 0.017159 0.000000 0.000000 0.000000
# 4 0.000000 0.000000 0.000000 0.066817 0.000000 0.000000
# 5 0.000000 0.000000 0.000000 0.000000 0.066817 0.000000
# 6 0.000000 0.000000 0.000000 0.000000 0.000000 0.016495
#
#
# Mechanical properties :
#
#
# Convention : Reuss Voigt Hill
#
# Bulk Modulus (GPa) = 57.99755 70.08835 64.04295
# Shear Modulus (GPa) = 10.49042 25.88316 18.18679
#
# Velocity S-wave (km/s) = 2.38498 3.74625 3.14026
# Velocity P-wave (km/s) = 6.24753 7.53099 6.91908
#
# Compressibility (1/GPa) = 0.01724211
#
# Stress axis : x y z
#
# Youngs Moduli (GPa) = 13.17202 13.17202 58.27884
#
# Poissons Ratio (x) = 0.92573 0.16309
# Poissons Ratio (y) = 0.92573 0.16309
# Poissons Ratio (z) = 0.03686 0.03686
#
# Static dielectric constant tensor:
#      x y z
#    x 1.614420 0.000000 0.000000 
#    y 0.000000 1.614420 0.000000 
#    z 0.000000 0.000000 1.688540 
# 
# From -- ./inp_files/580.got.cif
#   From: 2010.05.17/outbox.cif.g08.bks.cpg/sg123_1_cif.got.tgz:580.got - 2010.05.20 11:43:04.
