data_PCOD9562858
_publ_section_title
;
Structure prediction by ZEFSAII (Michael W. Deem and Ramdas Pophale) SiO2 
 PCOD9562858
Probable space group: P 4/M C C
;
_chemical_formula_sum "Si O2"
_cell_formula_units_Z 116
_cell_length_a 18.000000
_cell_length_b 18.000000
_cell_length_c 18.000000
_cell_angle_alpha 90.000000
_cell_angle_beta 90.000000
_cell_angle_gamma 90.000000
_cell_volume 5832.000000
_symmetry_space_group_name_H-M "P 4/M C C"
_symmetry_group_IT_number 124
_symmetry_cell_setting 'tetragonal'
loop_
_space_group_symop_operation_xyz
x,y,z
-y,x,z
-x,-y,z
y,-x,z
x,-y,1/2-z
-x,y,1/2-z
y,x,1/2-z
-y,-x,1/2-z
-x,-y,-z
y,-x,-z
x,y,-z
-y,x,-z
-x,y,1/2+z
x,-y,1/2+z
-y,-x,1/2+z
y,x,1/2+z
loop_
_atom_site_type_symbol
_atom_site_label
_atom_site_fract_x
_atom_site_fract_y
_atom_site_fract_z
Si Si1 0.500000 0.500000 0.375580
Si Si2 0.526469 0.815117 0.665398
Si Si3 0.315891 0.274537 0.088198
Si Si4 0.675389 0.842887 0.586123
Si Si5 0.009413 0.271032 0.586134
Si Si6 0.875187 0.394491 0.910446
Si Si7 0.338391 0.555620 0.409761
Si Si8 0.882419 0.987662 0.838679
O O1 0.410088 0.513599 0.380813
O O2 0.500000 0.807745 0.750000
O O3 0.610800 0.837314 0.647059
O O4 0.474668 0.875445 0.625772
O O5 0.519584 0.736215 0.622626
O O6 0.227124 0.270783 0.098285
O O7 0.356552 0.201795 0.117256
O O8 0.338472 0.357275 0.113628
O O9 0.330777 0.274980 0.000000
O O10 0.645847 0.833441 0.500000
O O11 0.713062 0.922119 0.590082
O O12 0.029263 0.257024 0.500000
O O13 0.056544 0.342253 0.610301
O O14 0.026439 0.199160 0.633296
O O15 0.873785 0.400954 0.000000
O O16 0.338676 0.551586 0.500000
O O17 0.936213 0.921410 0.864713
O O18 0.882422 0.000000 0.750000
#
# Coordination Sequence:
#
# PCOD9562858 Si02
#       8
#     4  16  16  16  16  16  16  16
#     4  12  21  32  61  94 117 148 193 230 281 356
#     4  11  23  39  57  78 107 150 196 240 283 336
#     4   8  16  32  56  77 105 147 186 220 268 335
#     4   9  19  38  59  82 112 148 184 232 293 346
#     4  10  22  35  59  94 119 142 185 245 295 330
#     4  10  20  36  57  84 113 146 185 234 291 346
#     4  10  19  34  56  83 111 147 189 234 281 337
#     4   9  20  39  59  81 119 167 198 220 268 341
#
# _framework density 19.890260999999999
#
# number of rings (size 3 to 8) (size 9 to 14) (size 15 to 20)
#    0.000    2.345    0.000    3.931    1.931    3.310 
#    0.000   10.000    0.000    0.000    0.000    0.000 
#    0.000    0.000    0.000    0.000    0.000    0.000 
#
# Total GULP energy -645880.250127 kJ/mol
# GULP energy per Si atom -5567.933191 kJ/mol
# Density = 1.984499 g / cm^3
# Si number density = 19.890261 Si / 1000 Ang^3
#
#
#
# Elastic Constant Matrix: (Units=GPa)
#
#
# Indices 1 2 3 4 5 6 
#
# 1 21.5938 -16.6614 -10.8416 0.0000 0.0000 0.0000
# 2 -16.6614 21.5938 -10.8416 0.0000 0.0000 0.0000
# 3 -10.8416 -10.8416 -1.3504 0.0000 0.0000 0.0000
# 4 0.0000 0.0000 0.0000 -2.2989 0.0000 0.0000
# 5 0.0000 0.0000 0.0000 0.0000 -2.2989 0.0000
# 6 0.0000 0.0000 0.0000 0.0000 0.0000 13.6698
#
#
#
# Elastic Compliance Matrix: (Units=1/GPa)
#
#
# Indices 1 2 3 4 5 6 
#
# 1 0.015863 -0.010277 -0.044848 0.000000 0.000000 0.000000
# 2 -0.010277 0.015863 -0.044848 0.000000 0.000000 0.000000
# 3 -0.044848 -0.044848 -0.020404 0.000000 0.000000 0.000000
# 4 0.000000 0.000000 0.000000 -0.434998 0.000000 0.000000
# 5 0.000000 0.000000 0.000000 0.000000 -0.434998 0.000000
# 6 0.000000 0.000000 0.000000 0.000000 0.000000 0.073154
#
#
# Mechanical properties :
#
#
# Convention : Reuss Voigt Hill
#
# Bulk Modulus (GPa) = -5.30158 -3.87245 -4.58701
# Shear Modulus (GPa) = -7.71072 7.15987 -0.27542
#
# Velocity S-wave (km/s) = -1.97105 1.89934 -0.37252
# Velocity P-wave (km/s) = 2.80201 1.69082 1.57994
#
# Compressibility (1/GPa) = -0.18862314
#
# Stress axis : x y z
#
# Youngs Moduli (GPa) = 63.03942 63.03942 -49.01093
#
# Poissons Ratio (x) = 0.64786 -2.19804
# Poissons Ratio (y) = 0.64786 -2.19804
# Poissons Ratio (z) = 2.82718 2.82718
#
# Static dielectric constant tensor:
#      x y z
#    x 1.710180 0.000000 0.000000 
#    y 0.000000 1.710180 0.000000 
#    z 0.000000 0.000000 1.694120 
# 
# From -- ./inp_files/4430.got.cif
#   From: 2010.05.17/outbox.ucp.g08.bks.cvg/sg124_3_cif.got.tgz:4430.got - 2010.06.11 11:36:13.
