data_PCOD9562447
_publ_section_title
;
Structure prediction by ZEFSAII (Michael W. Deem and Ramdas Pophale) SiO2 
 PCOD9562447
Probable space group: P 4/M C C
;
_chemical_formula_sum "Si O2"
_cell_formula_units_Z 96
_cell_length_a 24.422321
_cell_length_b 24.422321
_cell_length_c 8.449913
_cell_angle_alpha 90.000000
_cell_angle_beta 90.000000
_cell_angle_gamma 90.000000
_cell_volume 5039.948606
_symmetry_space_group_name_H-M "P 4/M C C"
_symmetry_group_IT_number 124
_symmetry_cell_setting 'tetragonal'
loop_
_space_group_symop_operation_xyz
x,y,z
-y,x,z
-x,-y,z
y,-x,z
x,-y,1/2-z
-x,y,1/2-z
y,x,1/2-z
-y,-x,1/2-z
-x,-y,-z
y,-x,-z
x,y,-z
-y,x,-z
-x,y,1/2+z
x,-y,1/2+z
-y,-x,1/2+z
y,x,1/2+z
loop_
_atom_site_type_symbol
_atom_site_label
_atom_site_fract_x
_atom_site_fract_y
_atom_site_fract_z
Si Si1 0.739735 0.179764 0.308006
Si Si2 0.053862 0.411639 0.817058
Si Si3 0.290707 0.058814 0.814093
Si Si4 0.747940 0.360482 0.818428
Si Si5 0.823964 0.556305 0.183751
Si Si6 0.648955 0.563225 0.188878
O O1 0.797268 0.202733 0.250000
O O2 0.735671 0.180029 0.500000
O O3 0.730253 0.117557 0.250921
O O4 0.694498 0.224395 0.248412
O O5 0.060082 0.355472 0.721098
O O6 0.110629 0.443136 0.808771
O O7 0.000000 0.439917 0.750000
O O8 0.044567 0.397230 0.000000
O O9 0.270273 0.000000 0.750000
O O10 0.280702 0.058579 0.000000
O O11 0.800364 0.399305 0.801789
O O12 0.698785 0.395408 0.739558
O O13 0.731495 0.350653 0.000000
O O14 0.801383 0.500000 0.250000
O O15 0.808190 0.566187 0.000000
O O16 0.654690 0.500000 0.250000
O O17 0.593767 0.593767 0.250000
O O18 0.648154 0.560964 0.000000
#
# Coordination Sequence:
#
# PCOD9562447 Si02
#       6
#    16  16  16  16  16  16
#     4  10  22  36  56  85 118 152 191 234 281 331
#     4  10  20  33  51  73  99 137 183 232 284 334
#     4  10  19  34  54  80 110 149 190 234 281 334
#     4  11  22  40  61  85 117 153 187 232 284 339
#     4  11  23  36  52  75 103 142 188 237 287 339
#     4  12  26  46  69  95 121 150 186 229 282 347
#
# _framework density 19.047813000000001
#
# number of rings (size 3 to 8) (size 9 to 14) (size 15 to 20)
#    0.000    1.333    1.667    5.500    0.000    6.500 
#    0.000    2.500    0.000    0.000    0.000    0.000 
#    0.000    0.333    0.000    3.667    0.000    2.667 
#
# Total GULP energy -535296.773367 kJ/mol
# GULP energy per Si atom -5576.008056 kJ/mol
# Density = 1.900446 g / cm^3
# Si number density = 19.047813 Si / 1000 Ang^3
#
#
#
# Elastic Constant Matrix: (Units=GPa)
#
#
# Indices 1 2 3 4 5 6 
#
# 1 96.8977 60.8566 25.2115 0.0000 0.0000 0.0000
# 2 60.8566 96.9028 25.2116 0.0000 0.0000 0.0000
# 3 25.2115 25.2116 52.2238 0.0000 0.0000 0.0000
# 4 0.0000 0.0000 0.0000 22.0381 0.0000 0.0000
# 5 0.0000 0.0000 0.0000 0.0000 22.0372 0.0000
# 6 0.0000 0.0000 0.0000 0.0000 0.0000 7.1464
#
#
#
# Elastic Compliance Matrix: (Units=1/GPa)
#
#
# Indices 1 2 3 4 5 6 
#
# 1 0.017620 -0.010124 -0.003619 0.000000 0.000000 0.000000
# 2 -0.010124 0.017619 -0.003618 0.000000 0.000000 0.000000
# 3 -0.003619 -0.003618 0.022642 0.000000 0.000000 0.000000
# 4 0.000000 0.000000 0.000000 0.045376 0.000000 0.000000
# 5 0.000000 0.000000 0.000000 0.000000 0.045378 0.000000
# 6 0.000000 0.000000 0.000000 0.000000 0.000000 0.139931
#
#
# Mechanical properties :
#
#
# Convention : Reuss Voigt Hill
#
# Bulk Modulus (GPa) = 43.17979 52.06485 47.62232
# Shear Modulus (GPa) = 15.10534 19.22731 17.16633
#
# Velocity S-wave (km/s) = 2.81912 3.18059 3.00529
# Velocity P-wave (km/s) = 5.77191 6.39385 6.09082
#
# Compressibility (1/GPa) = 0.02315898
#
# Stress axis : x y z
#
# Youngs Moduli (GPa) = 56.75274 56.75601 44.16555
#
# Poissons Ratio (x) = 0.57462 0.15982
# Poissons Ratio (y) = 0.57459 0.15980
# Poissons Ratio (z) = 0.20537 0.20536
#
# Static dielectric constant tensor:
#      x y z
#    x 1.724830 0.000000 0.000000 
#    y 0.000000 1.724830 0.000000 
#    z 0.000000 0.000000 1.683290 
# 
# From -- ./inp_files/1371.got.cif
#   From: 2010.05.17/outbox.cif.g08.bks.cpg/sg124_1_cif.got.tgz:1371.got - 2010.05.20 11:49:17.
