data_PCOD9562430
_publ_section_title
;
Structure prediction by ZEFSAII (Michael W. Deem and Ramdas Pophale) SiO2 
 PCOD9562430
Probable space group: P 4/M C C
;
_chemical_formula_sum "Si O2"
_cell_formula_units_Z 120
_cell_length_a 20.402610
_cell_length_b 20.402610
_cell_length_c 13.595739
_cell_angle_alpha 90.000000
_cell_angle_beta 90.000000
_cell_angle_gamma 90.000000
_cell_volume 5659.450618
_symmetry_space_group_name_H-M "P 4/M C C"
_symmetry_group_IT_number 124
_symmetry_cell_setting 'tetragonal'
loop_
_space_group_symop_operation_xyz
x,y,z
-y,x,z
-x,-y,z
y,-x,z
x,-y,1/2-z
-x,y,1/2-z
y,x,1/2-z
-y,-x,1/2-z
-x,-y,-z
y,-x,-z
x,y,-z
-y,x,-z
-x,y,1/2+z
x,-y,1/2+z
-y,-x,1/2+z
y,x,1/2+z
loop_
_atom_site_type_symbol
_atom_site_label
_atom_site_fract_x
_atom_site_fract_y
_atom_site_fract_z
Si Si1 0.608679 0.500000 0.750000
Si Si2 0.275646 0.330054 0.380819
Si Si3 0.831328 0.220835 0.880565
Si Si4 0.727299 0.521156 0.382618
Si Si5 0.227421 0.383042 0.880155
Si Si6 0.118028 0.721290 0.620607
Si Si7 0.014889 0.897082 0.381880
Si Si8 0.019426 0.247075 0.381326
O O1 0.562961 0.562961 0.750000
O O2 0.655686 0.502096 0.656118
O O3 0.278970 0.332428 0.500000
O O4 0.216146 0.281463 0.357100
O O5 0.262075 0.404186 0.347758
O O6 0.342374 0.292823 0.349442
O O7 0.789094 0.156432 0.849438
O O8 0.905207 0.239126 0.847542
O O9 0.836114 0.214158 0.000000
O O10 0.729629 0.522771 0.500000
O O11 0.771640 0.459296 0.350710
O O12 0.165426 0.338767 0.850796
O O13 0.227829 0.382378 0.000000
O O14 0.117235 0.724394 0.500000
O O15 0.042295 0.708465 0.651368
O O16 0.016945 0.899029 0.500000
O O17 0.014064 0.822442 0.356998
O O18 0.945912 0.928319 0.350857
O O19 0.024622 0.255126 0.500000
#
# Coordination Sequence:
#
# PCOD9562430 Si02
#       8
#     8  16  16  16  16  16  16  16
#     4  11  24  36  48  76 110 131 156 194 230 275
#     4   8  14  25  41  59  78 107 150 192 228 271
#     4   8  13  20  30  47  72 103 143 189 234 281
#     4  10  19  33  53  71  94 132 167 193 229 273
#     4   8  14  25  41  59  78 107 150 192 228 271
#     4   8  13  20  30  47  72 103 143 189 234 281
#     4   8  12  15  18  28  51  88 134 175 213 269
#     4   9  13  16  25  41  66  99 133 179 237 282
#
# _framework density 21.203472000000001
#
# number of rings (size 3 to 8) (size 9 to 14) (size 15 to 20)
#    0.000    3.400    0.000    3.600    0.000    4.800 
#    0.000    0.667    0.000    0.800    0.000    5.600 
#    0.000    2.133    0.000    0.400    0.000    0.000 
#
# Total GULP energy -669152.021947 kJ/mol
# GULP energy per Si atom -5576.266850 kJ/mol
# Density = 2.115521 g / cm^3
# Si number density = 21.203472 Si / 1000 Ang^3
#
#
#
# Elastic Constant Matrix: (Units=GPa)
#
#
# Indices 1 2 3 4 5 6 
#
# 1 153.0621 67.8294 7.8593 0.0000 0.0000 0.0000
# 2 67.8294 153.0621 7.8593 0.0000 0.0000 0.0000
# 3 7.8593 7.8593 77.2611 0.0000 0.0000 0.0000
# 4 0.0000 0.0000 0.0000 4.9343 0.0000 0.0000
# 5 0.0000 0.0000 0.0000 0.0000 4.9343 0.0000
# 6 0.0000 0.0000 0.0000 0.0000 0.0000 -1.9881
#
#
#
# Elastic Compliance Matrix: (Units=1/GPa)
#
#
# Indices 1 2 3 4 5 6 
#
# 1 0.008146 -0.003586 -0.000464 0.000000 0.000000 0.000000
# 2 -0.003586 0.008146 -0.000464 0.000000 0.000000 0.000000
# 3 -0.000464 -0.000464 0.013038 0.000000 0.000000 0.000000
# 4 0.000000 0.000000 0.000000 0.202662 0.000000 0.000000
# 5 0.000000 0.000000 0.000000 0.000000 0.202662 0.000000
# 6 0.000000 0.000000 0.000000 0.000000 0.000000 -0.502981
#
#
# Mechanical properties :
#
#
# Convention : Reuss Voigt Hill
#
# Bulk Modulus (GPa) = 49.25562 61.16457 55.21009
# Shear Modulus (GPa) = -95.18328 21.56525 -36.80902
#
# Velocity S-wave (km/s) = -6.70730 3.19260 -4.17104
# Velocity P-wave (km/s) = 6.05834 6.51915 1.70234
#
# Compressibility (1/GPa) = 0.02030225
#
# Stress axis : x y z
#
# Youngs Moduli (GPa) = 122.75430 122.75430 76.70181
#
# Poissons Ratio (x) = 0.44023 0.03558
# Poissons Ratio (y) = 0.44023 0.03558
# Poissons Ratio (z) = 0.05694 0.05694
#
# Static dielectric constant tensor:
#      x y z
#    x 1.727680 0.000000 0.000000 
#    y 0.000000 1.727680 0.000000 
#    z 0.000000 0.000000 1.896860 
# 
# From -- ./inp_files/3470.got.cif
#   From: 2010.05.17/outbox.cif.g08.bks.cpg/sg124_2_cif.got.tgz:3470.got - 2010.05.20 11:49:17.
