data_PCOD9562013
_publ_section_title
;
Structure prediction by ZEFSAII (Michael W. Deem and Ramdas Pophale) SiO2 
 PCOD9562013
Probable space group: P 4/M M M
;
_chemical_formula_sum "Si O2"
_cell_formula_units_Z 104
_cell_length_a 18.571582
_cell_length_b 18.571582
_cell_length_c 19.733727
_cell_angle_alpha 90.000000
_cell_angle_beta 90.000000
_cell_angle_gamma 90.000000
_cell_volume 6806.234628
_symmetry_space_group_name_H-M "P 4/M M M"
_symmetry_group_IT_number 123
_symmetry_cell_setting 'tetragonal'
loop_
_space_group_symop_operation_xyz
x,y,z
-y,x,z
-x,-y,z
y,-x,z
x,-y,-z
-x,y,-z
y,x,-z
-y,-x,-z
-x,-y,-z
y,-x,-z
x,y,-z
-y,x,-z
-x,y,z
x,-y,z
-y,-x,z
y,x,z
loop_
_atom_site_type_symbol
_atom_site_label
_atom_site_fract_x
_atom_site_fract_y
_atom_site_fract_z
Si Si1 0.731705 0.150527 0.363662
Si Si2 0.417427 0.698367 0.207318
Si Si3 0.582413 0.155337 0.292666
Si Si4 0.586666 0.788440 0.923417
Si Si5 0.645174 0.082839 0.839050
Si Si6 0.916147 0.798070 0.227890
Si Si7 0.085691 0.205026 0.500000
O O1 0.770997 0.229004 0.363722
O O2 0.646756 0.151514 0.347086
O O3 0.769073 0.107015 0.302035
O O4 0.751993 0.111945 0.433543
O O5 0.500000 0.673824 0.204068
O O6 0.363886 0.636115 0.228162
O O7 0.413693 0.765866 0.258086
O O8 0.396072 0.729117 0.133381
O O9 0.500000 0.142998 0.315662
O O10 0.602092 0.102330 0.230139
O O11 0.500000 0.796392 0.921641
O O12 0.620459 0.862468 0.896668
O O13 0.608382 0.770856 0.000000
O O14 0.729226 0.093829 0.820913
O O15 0.633017 0.000000 0.856772
O O16 0.863488 0.863488 0.210252
O O17 0.000000 0.818290 0.227891
O O18 0.129574 0.129574 0.500000
O O19 0.000000 0.195347 0.500000
#
# Coordination Sequence:
#
# PCOD9562013 Si02
#       7
#    16  16  16  16  16  16   8
#     4   9  17  30  47  65  88 118 148 179 216 256
#     4   9  17  29  45  65  88 113 143 179 216 255
#     4   9  17  29  46  66  87 114 147 180 214 255
#     4   9  18  30  42  59  84 113 143 174 210 252
#     4   9  17  28  42  62  86 109 137 174 214 258
#     4   9  17  29  45  64  85 109 138 174 215 257
#     4  10  20  33  49  69  93 121 152 184 218 256
#
# _framework density 15.280108
#
# number of rings (size 3 to 8) (size 9 to 14) (size 15 to 20)
#    0.000    2.923    0.000    2.308    0.000    6.538 
#    0.000    1.154    0.000    3.231    0.000    2.154 
#    0.000    0.000    0.000    3.385    0.000   46.154 
#
# Total GULP energy -579304.545545 kJ/mol
# GULP energy per Si atom -5570.236015 kJ/mol
# Density = 1.524533 g / cm^3
# Si number density = 15.280108 Si / 1000 Ang^3
#
#
#
# Elastic Constant Matrix: (Units=GPa)
#
#
# Indices 1 2 3 4 5 6 
#
# 1 78.3419 39.8693 7.8800 0.0000 0.0000 0.0000
# 2 39.8693 78.3419 7.8800 0.0000 0.0000 0.0000
# 3 7.8800 7.8800 37.9836 0.0000 0.0000 0.0000
# 4 0.0000 0.0000 0.0000 12.4529 0.0000 0.0000
# 5 0.0000 0.0000 0.0000 0.0000 12.4529 0.0000
# 6 0.0000 0.0000 0.0000 0.0000 0.0000 98.3524
#
#
#
# Elastic Compliance Matrix: (Units=1/GPa)
#
#
# Indices 1 2 3 4 5 6 
#
# 1 0.017346 -0.008646 -0.001805 0.000000 0.000000 0.000000
# 2 -0.008646 0.017346 -0.001805 0.000000 0.000000 0.000000
# 3 -0.001805 -0.001805 0.027076 0.000000 0.000000 0.000000
# 4 0.000000 0.000000 0.000000 0.080303 0.000000 0.000000
# 5 0.000000 0.000000 0.000000 0.000000 0.080303 0.000000
# 6 0.000000 0.000000 0.000000 0.000000 0.000000 0.010168
#
#
# Mechanical properties :
#
#
# Convention : Reuss Voigt Hill
#
# Bulk Modulus (GPa) = 26.84087 33.99175 30.41631
# Shear Modulus (GPa) = 18.55478 33.92084 26.23781
#
# Velocity S-wave (km/s) = 3.48848 4.71673 4.14831
# Velocity P-wave (km/s) = 5.81635 7.20815 6.54933
#
# Compressibility (1/GPa) = 0.03725662
#
# Stress axis : x y z
#
# Youngs Moduli (GPa) = 57.64918 57.64918 36.93299
#
# Poissons Ratio (x) = 0.49845 0.06666
# Poissons Ratio (y) = 0.49845 0.06666
# Poissons Ratio (z) = 0.10405 0.10405
#
# Static dielectric constant tensor:
#      x y z
#    x 1.503890 0.000000 0.000000 
#    y 0.000000 1.503890 0.000000 
#    z 0.000000 0.000000 1.495790 
# 
# From -- ./inp_files/5597.got.cif
#   From: 2010.05.17/outbox.cif.g08.bks.cpg/sg123_3_cif.got.tgz:5597.got - 2010.05.20 11:43:04.
