data_PCOD9562499
_publ_section_title
;
Structure prediction by ZEFSAII (Michael W. Deem and Ramdas Pophale) SiO2 
 PCOD9562499
Probable space group: P 4/M C C
;
_chemical_formula_sum "Si O2"
_cell_formula_units_Z 64
_cell_length_a 19.398121
_cell_length_b 19.398121
_cell_length_c 9.229459
_cell_angle_alpha 90.000000
_cell_angle_beta 90.000000
_cell_angle_gamma 90.000000
_cell_volume 3472.926346
_symmetry_space_group_name_H-M "P 4/M C C"
_symmetry_group_IT_number 124
_symmetry_cell_setting 'tetragonal'
loop_
_space_group_symop_operation_xyz
x,y,z
-y,x,z
-x,-y,z
y,-x,z
x,-y,1/2-z
-x,y,1/2-z
y,x,1/2-z
-y,-x,1/2-z
-x,-y,-z
y,-x,-z
x,y,-z
-y,x,-z
-x,y,1/2+z
x,-y,1/2+z
-y,-x,1/2+z
y,x,1/2+z
loop_
_atom_site_type_symbol
_atom_site_label
_atom_site_fract_x
_atom_site_fract_y
_atom_site_fract_z
Si Si1 0.210579 0.687319 0.669510
Si Si2 0.157241 0.933566 0.663169
Si Si3 0.671867 0.571011 0.169335
Si Si4 0.677135 0.068559 0.333862
O O1 0.249621 0.750379 0.750000
O O2 0.198880 0.704750 0.500000
O O3 0.263624 0.623408 0.677272
O O4 0.139372 0.666361 0.746630
O O5 0.132700 0.867301 0.750000
O O6 0.130809 0.931916 0.500000
O O7 0.239668 0.937278 0.658594
O O8 0.131418 0.000000 0.750000
O O9 0.687335 0.500000 0.250000
O O10 0.609070 0.609070 0.250000
O O11 0.656166 0.559573 0.000000
O O12 0.651650 0.071768 0.500000
O O13 0.652079 0.000000 0.250000
#
# Coordination Sequence:
#
# PCOD9562499 Si02
#       4
#    16  16  16  16
#     4  10  20  34  54  80 109 142 181 224 271 323
#     4  10  20  32  45  62  85 115 153 198 249 306
#     4  10  21  37  58  85 117 151 186 223 263 312
#     4  10  20  33  51  74 101 133 170 217 270 322
#
# _framework density 18.428262
#
# number of rings (size 3 to 8) (size 9 to 14) (size 15 to 20)
#    0.000    2.000    0.000    3.750    0.000    8.500 
#    0.000    2.500    0.000    0.750    0.000    5.250 
#    0.000    0.000    0.000    0.000    0.000    0.000 
#
# Total GULP energy -357207.419717 kJ/mol
# GULP energy per Si atom -5581.365933 kJ/mol
# Density = 1.838632 g / cm^3
# Si number density = 18.428262 Si / 1000 Ang^3
#
#
#
# Elastic Constant Matrix: (Units=GPa)
#
#
# Indices 1 2 3 4 5 6 
#
# 1 74.0495 2.2785 51.0954 0.0000 0.0000 0.0000
# 2 2.2785 74.0485 51.0911 0.0000 0.0000 0.0000
# 3 51.0954 51.0911 190.1775 0.0000 0.0000 0.0000
# 4 0.0000 0.0000 0.0000 23.0378 0.0000 0.0000
# 5 0.0000 0.0000 0.0000 0.0000 23.0387 0.0000
# 6 0.0000 0.0000 0.0000 0.0000 0.0000 9.0232
#
#
#
# Elastic Compliance Matrix: (Units=1/GPa)
#
#
# Indices 1 2 3 4 5 6 
#
# 1 0.017197 0.003264 -0.005497 0.000000 0.000000 0.000000
# 2 0.003264 0.017197 -0.005497 0.000000 0.000000 0.000000
# 3 -0.005497 -0.005497 0.008212 0.000000 0.000000 0.000000
# 4 0.000000 0.000000 0.000000 0.043407 0.000000 0.000000
# 5 0.000000 0.000000 0.000000 0.000000 0.043405 0.000000
# 6 0.000000 0.000000 0.000000 0.000000 0.000000 0.110826
#
#
# Mechanical properties :
#
#
# Convention : Reuss Voigt Hill
#
# Bulk Modulus (GPa) = 36.83864 60.80060 48.81962
# Shear Modulus (GPa) = 18.88552 26.60730 22.74641
#
# Velocity S-wave (km/s) = 3.20474 3.80390 3.51710
# Velocity P-wave (km/s) = 5.80754 7.23586 6.56068
#
# Compressibility (1/GPa) = 0.02714541
#
# Stress axis : x y z
#
# Youngs Moduli (GPa) = 58.14898 58.15022 121.77452
#
# Poissons Ratio (x) = -0.18979 0.66942
# Poissons Ratio (y) = -0.18978 0.66937
# Poissons Ratio (z) = 0.31966 0.31964
#
# Static dielectric constant tensor:
#      x y z
#    x 1.634240 0.000000 0.000000 
#    y 0.000000 1.634230 0.000000 
#    z 0.000000 0.000000 1.643980 
# 
# From -- ./inp_files/851.got.cif
#   From: 2010.05.17/outbox.cif.g08.bks.cpg/sg124_1_cif.got.tgz:851.got - 2010.05.20 11:49:17.
