data_PCOD9562973
_publ_section_title
;
Structure prediction by ZEFSAII (Michael W. Deem and Ramdas Pophale) SiO2 
 PCOD9562973
Probable space group: P 4/N B M
;
_chemical_formula_sum "Si O2"
_cell_formula_units_Z 112
_cell_length_a 30.521761
_cell_length_b 30.521761
_cell_length_c 5.564878
_cell_angle_alpha 90.000000
_cell_angle_beta 90.000000
_cell_angle_gamma 90.000000
_cell_volume 5184.117331
_symmetry_space_group_name_H-M "P 4/N B M"
_symmetry_group_IT_number 125
_space_group.IT_coordinate_system_code '2'
_symmetry_cell_setting 'tetragonal'
loop_
_space_group_symop_operation_xyz
x,y,z
1/2-y,x,z
1/2-x,1/2-y,z
y,1/2-x,z
x,1/2-y,-z
1/2-x,y,-z
y,x,-z
1/2-y,1/2-x,-z
-x,-y,-z
1/2+y,-x,-z
1/2+x,1/2+y,-z
-y,1/2+x,-z
-x,1/2+y,z
1/2+x,-y,z
-y,-x,z
1/2+y,1/2+x,z
loop_
_atom_site_type_symbol
_atom_site_label
_atom_site_fract_x
_atom_site_fract_y
_atom_site_fract_z
Si Si1 0.685894 0.827710 0.748168
Si Si2 0.906446 0.626490 0.748770
Si Si3 0.207669 0.546512 0.644528
Si Si4 0.797590 0.368871 0.065986
Si Si5 0.431736 0.640267 0.745473
Si Si6 0.074660 0.224256 0.252077
Si Si7 0.335941 0.012825 0.994234
O O1 0.695919 0.804082 0.500000
O O2 0.632832 0.837329 0.747222
O O3 0.707920 0.875295 0.741475
O O4 0.695072 0.804929 0.000000
O O5 0.899624 0.600377 0.500000
O O6 0.953840 0.646960 0.792174
O O7 0.899084 0.600917 0.000000
O O8 0.250000 0.532833 0.500000
O O9 0.213113 0.596125 0.729811
O O10 0.163721 0.548365 0.487492
O O11 0.202252 0.515261 0.870942
O O12 0.831178 0.331178 0.138678
O O13 0.750000 0.350566 0.000000
O O14 0.823777 0.398770 0.868571
O O15 0.402387 0.597614 0.700490
O O16 0.474091 0.632370 0.914297
O O17 0.066463 0.250000 0.500000
O O18 0.070330 0.250000 0.000000
O O19 0.042429 0.183011 0.210271
#
# Coordination Sequence:
#
# PCOD9562973 Si02
#       7
#    16  16  16  16  16  16  16
#     4  10  19  39  62  84 128 189 224 249 313 398
#     4  10  21  39  66  89 125 175 227 254 321 403
#     4  11  23  39  62  91 126 166 216 267 342 406
#     4  10  20  38  60  87 120 163 217 271 330 398
#     4  10  23  41  63  87 123 169 220 270 330 405
#     4  12  27  39  61 104 149 173 212 276 337 398
#     4  11  26  40  63  97 131 173 213 274 337 409
#
# _framework density 21.604448000000001
#
# number of rings (size 3 to 8) (size 9 to 14) (size 15 to 20)
#    0.000    1.429    4.286    1.286    8.000    0.714 
#    0.000    0.000    0.000    0.857    0.000    0.000 
#    0.000   20.000    0.000    0.000    0.000    0.000 
#
# Total GULP energy -625817.933262 kJ/mol
# GULP energy per Si atom -5587.660118 kJ/mol
# Density = 2.155528 g / cm^3
# Si number density = 21.604448 Si / 1000 Ang^3
#
#
#
# Elastic Constant Matrix: (Units=GPa)
#
#
# Indices 1 2 3 4 5 6 
#
# 1 85.2640 33.2800 31.7166 0.0000 0.0000 0.0000
# 2 33.2800 85.2593 31.7176 0.0000 0.0000 0.0000
# 3 31.7166 31.7176 141.0579 0.0000 0.0000 0.0000
# 4 0.0000 0.0000 0.0000 9.2045 0.0000 0.0000
# 5 0.0000 0.0000 0.0000 0.0000 9.2044 0.0000
# 6 0.0000 0.0000 0.0000 0.0000 0.0000 12.3988
#
#
#
# Elastic Compliance Matrix: (Units=1/GPa)
#
#
# Indices 1 2 3 4 5 6 
#
# 1 0.014413 -0.004824 -0.002156 0.000000 0.000000 0.000000
# 2 -0.004824 0.014414 -0.002156 0.000000 0.000000 0.000000
# 3 -0.002156 -0.002156 0.008059 0.000000 0.000000 0.000000
# 4 0.000000 0.000000 0.000000 0.108642 0.000000 0.000000
# 5 0.000000 0.000000 0.000000 0.000000 0.108643 0.000000
# 6 0.000000 0.000000 0.000000 0.000000 0.000000 0.080653
#
#
# Mechanical properties :
#
#
# Convention : Reuss Voigt Hill
#
# Bulk Modulus (GPa) = 53.72487 56.11216 54.91851
# Shear Modulus (GPa) = 13.91587 20.48603 17.20095
#
# Velocity S-wave (km/s) = 2.54071 3.08268 2.82472
# Velocity P-wave (km/s) = 5.79037 6.22089 6.00949
#
# Compressibility (1/GPa) = 0.01861335
#
# Stress axis : x y z
#
# Youngs Moduli (GPa) = 69.38107 69.37649 124.08540
#
# Poissons Ratio (x) = 0.33467 0.26754
# Poissons Ratio (y) = 0.33469 0.26758
# Poissons Ratio (z) = 0.14959 0.14961
#
# Static dielectric constant tensor:
#      x y z
#    x 1.795350 0.000000 0.000000 
#    y 0.000000 1.795350 0.000000 
#    z 0.000000 0.000000 1.894500 
# 
# From -- ./inp_files/1353.got.cif
#   From: 2010.05.17/outbox.cif.g08.bks.cpg/sg125_1_cif.got.tgz:1353.got - 2010.05.20 11:54:10.
