data_PCOD9562577
_publ_section_title
;
Structure prediction by ZEFSAII (Michael W. Deem and Ramdas Pophale) SiO2 
 PCOD9562577
Probable space group: P 4/M C C
;
_chemical_formula_sum "Si O2"
_cell_formula_units_Z 88
_cell_length_a 18.502029
_cell_length_b 18.502029
_cell_length_c 14.989665
_cell_angle_alpha 90.000000
_cell_angle_beta 90.000000
_cell_angle_gamma 90.000000
_cell_volume 5131.338227
_symmetry_space_group_name_H-M "P 4/M C C"
_symmetry_group_IT_number 124
_symmetry_cell_setting 'tetragonal'
loop_
_space_group_symop_operation_xyz
x,y,z
-y,x,z
-x,-y,z
y,-x,z
x,-y,1/2-z
-x,y,1/2-z
y,x,1/2-z
-y,-x,1/2-z
-x,-y,-z
y,-x,-z
x,y,-z
-y,x,-z
-x,y,1/2+z
x,-y,1/2+z
-y,-x,1/2+z
y,x,1/2+z
loop_
_atom_site_type_symbol
_atom_site_label
_atom_site_fract_x
_atom_site_fract_y
_atom_site_fract_z
Si Si1 0.424568 0.682790 0.696413
Si Si2 0.086504 0.506237 0.850935
Si Si3 0.689900 0.808072 0.233907
Si Si4 0.650370 0.097443 0.098788
Si Si5 0.384985 0.455273 0.500000
Si Si6 0.071622 0.333036 0.399107
O O1 0.500000 0.691882 0.750000
O O2 0.378587 0.621414 0.750000
O O3 0.376016 0.755665 0.702682
O O4 0.438166 0.657753 0.593115
O O5 0.115148 0.500000 0.750000
O O6 0.108757 0.436028 0.904081
O O7 0.098404 0.583650 0.893308
O O8 0.000000 0.500000 0.844827
O O9 0.756730 0.756730 0.250000
O O10 0.674574 0.847711 0.326669
O O11 0.705827 0.872715 0.165222
O O12 0.665402 0.013595 0.126171
O O13 0.680629 0.108648 0.000000
O O14 0.460057 0.409096 0.500000
O O15 0.075927 0.307153 0.500000
#
# Coordination Sequence:
#
# PCOD9562577 Si02
#       6
#    16  16  16  16   8  16
#     4  11  24  42  57  82 111 141 196 247 299 356
#     4   9  15  27  50  78 106 131 169 223 267 307
#     4  11  25  39  53  79 118 155 177 223 286 344
#     4  10  20  37  59  82 107 141 188 230 272 327
#     4  11  22  40  70  82  94 141 201 277 319 337
#     4  10  20  35  59  84 106 142 188 230 268 326
#
# _framework density 17.149522000000001
#
# number of rings (size 3 to 8) (size 9 to 14) (size 15 to 20)
#    0.000    1.727    3.636    1.091    3.818    3.091 
#    6.545    0.000    0.000    0.000    0.000    0.000 
#    0.000    5.818    0.000   16.000    0.000    0.000 
#
# Total GULP energy -490473.812785 kJ/mol
# GULP energy per Si atom -5573.566054 kJ/mol
# Density = 1.711049 g / cm^3
# Si number density = 17.149522 Si / 1000 Ang^3
#
#
#
# Elastic Constant Matrix: (Units=GPa)
#
#
# Indices 1 2 3 4 5 6 
#
# 1 84.5098 43.8106 57.6653 0.0000 0.0000 0.0000
# 2 43.8106 84.5097 57.6653 0.0000 0.0000 0.0000
# 3 57.6653 57.6653 145.8193 0.0000 0.0000 0.0000
# 4 0.0000 0.0000 0.0000 -0.6319 0.0000 0.0000
# 5 0.0000 0.0000 0.0000 0.0000 -0.6317 0.0000
# 6 0.0000 0.0000 0.0000 0.0000 0.0000 19.0760
#
#
#
# Elastic Compliance Matrix: (Units=1/GPa)
#
#
# Indices 1 2 3 4 5 6 
#
# 1 0.018330 -0.006240 -0.004781 0.000000 0.000000 0.000000
# 2 -0.006240 0.018330 -0.004781 0.000000 0.000000 0.000000
# 3 -0.004781 -0.004781 0.010639 0.000000 0.000000 0.000000
# 4 0.000000 0.000000 0.000000 -1.582489 0.000000 0.000000
# 5 0.000000 0.000000 0.000000 0.000000 -1.583022 0.000000
# 6 0.000000 0.000000 0.000000 0.000000 0.000000 0.052422
#
#
# Mechanical properties :
#
#
# Convention : Reuss Voigt Hill
#
# Bulk Modulus (GPa) = 63.71451 70.34681 67.03066
# Shear Modulus (GPa) = -1.65074 13.94232 6.14579
#
# Velocity S-wave (km/s) = -0.98216 2.85438 1.89511
# Velocity P-wave (km/s) = 5.99557 7.20917 6.63019
#
# Compressibility (1/GPa) = 0.01569501
#
# Stress axis : x y z
#
# Youngs Moduli (GPa) = 54.55444 54.55436 93.99148
#
# Poissons Ratio (x) = 0.34043 0.44938
# Poissons Ratio (y) = 0.34043 0.44939
# Poissons Ratio (z) = 0.26083 0.26083
#
# Static dielectric constant tensor:
#      x y z
#    x 1.585320 0.000000 0.000000 
#    y 0.000000 1.585320 0.000000 
#    z 0.000000 0.000000 1.649940 
# 
# From -- ./inp_files/3184.got.cif
#   From: 2010.05.17/outbox.cif.g08.bks.cpg/sg124_2_cif.got.tgz:3184.got - 2010.05.20 11:49:17.
