data_PCOD9562835
_publ_section_title
;
Structure prediction by ZEFSAII (Michael W. Deem and Ramdas Pophale) SiO2 
 PCOD9562835
Probable space group: P 4/M C C
;
_chemical_formula_sum "Si O2"
_cell_formula_units_Z 56
_cell_length_a 10.396343
_cell_length_b 10.396343
_cell_length_c 23.857617
_cell_angle_alpha 90.000000
_cell_angle_beta 90.000000
_cell_angle_gamma 90.000000
_cell_volume 2578.625430
_symmetry_space_group_name_H-M "P 4/M C C"
_symmetry_group_IT_number 124
_symmetry_cell_setting 'tetragonal'
loop_
_space_group_symop_operation_xyz
x,y,z
-y,x,z
-x,-y,z
y,-x,z
x,-y,1/2-z
-x,y,1/2-z
y,x,1/2-z
-y,-x,1/2-z
-x,-y,-z
y,-x,-z
x,y,-z
-y,x,-z
-x,y,1/2+z
x,-y,1/2+z
-y,-x,1/2+z
y,x,1/2+z
loop_
_atom_site_type_symbol
_atom_site_label
_atom_site_fract_x
_atom_site_fract_y
_atom_site_fract_z
Si Si1 0.107740 0.413786 0.095787
Si Si2 0.398780 0.694533 0.000000
Si Si3 0.216810 0.012219 0.312498
Si Si4 0.715734 0.507708 0.687460
O O1 0.039818 0.308617 0.135291
O O2 0.180427 0.505531 0.139870
O O3 0.000000 0.500000 0.066087
O O4 0.217393 0.365308 0.053568
O O5 0.333067 0.553793 0.000000
O O6 0.116248 0.130859 0.315058
O O7 0.278119 0.000000 0.250000
O O8 0.619399 0.627017 0.682000
O O9 0.769794 0.500000 0.750000
#
# Coordination Sequence:
#
# PCOD9562835 Si02
#       4
#    16   8  16  16
#     4  12  26  38  68 100 131 169 230 280 330 399
#     4  11  27  52  74  93 132 182 226 289 355 400
#     4   9  22  43  65  95 139 185 219 261 330 404
#     4   9  20  37  59  92 133 173 216 276 346 410
#
# _framework density 21.716995000000001
#
# number of rings (size 3 to 8) (size 9 to 14) (size 15 to 20)
#    0.000    1.857    0.000    3.857   12.000    4.571 
#    0.000    0.000    0.000    1.714    0.000    0.000 
#    0.000    0.000    0.000    0.000    0.000    0.000 
#
# Total GULP energy -312867.613527 kJ/mol
# GULP energy per Si atom -5586.921670 kJ/mol
# Density = 2.166757 g / cm^3
# Si number density = 21.716995 Si / 1000 Ang^3
#
#
#
# Elastic Constant Matrix: (Units=GPa)
#
#
# Indices 1 2 3 4 5 6 
#
# 1 87.7380 13.2694 40.4248 0.0000 0.0000 0.0000
# 2 13.2694 87.7380 40.4248 0.0000 0.0000 0.0000
# 3 40.4248 40.4248 125.6162 0.0000 0.0000 0.0000
# 4 0.0000 0.0000 0.0000 36.2889 0.0000 0.0000
# 5 0.0000 0.0000 0.0000 0.0000 36.2889 0.0000
# 6 0.0000 0.0000 0.0000 0.0000 0.0000 24.0851
#
#
#
# Elastic Compliance Matrix: (Units=1/GPa)
#
#
# Indices 1 2 3 4 5 6 
#
# 1 0.013382 -0.000047 -0.004291 0.000000 0.000000 0.000000
# 2 -0.000047 0.013382 -0.004291 0.000000 0.000000 0.000000
# 3 -0.004291 -0.004291 0.010723 0.000000 0.000000 0.000000
# 4 0.000000 0.000000 0.000000 0.027557 0.000000 0.000000
# 5 0.000000 0.000000 0.000000 0.000000 0.027557 0.000000
# 6 0.000000 0.000000 0.000000 0.000000 0.000000 0.041519
#
#
# Mechanical properties :
#
#
# Convention : Reuss Voigt Hill
#
# Bulk Modulus (GPa) = 49.43744 54.37004 51.90374
# Shear Modulus (GPa) = 31.62136 33.13077 32.37606
#
# Velocity S-wave (km/s) = 3.81998 3.91009 3.86530
# Velocity P-wave (km/s) = 6.50155 6.74353 6.62364
#
# Compressibility (1/GPa) = 0.02022759
#
# Stress axis : x y z
#
# Youngs Moduli (GPa) = 74.72787 74.72787 93.25886
#
# Poissons Ratio (x) = 0.00348 0.40022
# Poissons Ratio (y) = 0.00348 0.40022
# Poissons Ratio (z) = 0.32069 0.32069
#
# Static dielectric constant tensor:
#      x y z
#    x 1.806780 0.000000 0.000000 
#    y 0.000000 1.806780 0.000000 
#    z 0.000000 0.000000 1.788420 
# 
# From -- ./inp_files/5796.got.cif
#   From: 2010.05.17/outbox.cif.g08.bks.cpg/sg124_3_cif.got.tgz:5796.got - 2010.05.20 11:49:17.
