data_PCOD9562304
_publ_section_title
;
Structure prediction by ZEFSAII (Michael W. Deem and Ramdas Pophale) SiO2 
 PCOD9562304
Probable space group: P 4/M C C
;
_chemical_formula_sum "Si O2"
_cell_formula_units_Z 92
_cell_length_a 15.070266
_cell_length_b 15.070266
_cell_length_c 21.786781
_cell_angle_alpha 90.000000
_cell_angle_beta 90.000000
_cell_angle_gamma 90.000000
_cell_volume 4948.059392
_symmetry_space_group_name_H-M "P 4/M C C"
_symmetry_group_IT_number 124
_symmetry_cell_setting 'tetragonal'
loop_
_space_group_symop_operation_xyz
x,y,z
-y,x,z
-x,-y,z
y,-x,z
x,-y,1/2-z
-x,y,1/2-z
y,x,1/2-z
-y,-x,1/2-z
-x,-y,-z
y,-x,-z
x,y,-z
-y,x,-z
-x,y,1/2+z
x,-y,1/2+z
-y,-x,1/2+z
y,x,1/2+z
loop_
_atom_site_type_symbol
_atom_site_label
_atom_site_fract_x
_atom_site_fract_y
_atom_site_fract_z
Si Si1 0.000000 0.000000 0.618092
Si Si2 0.606546 0.393455 0.250000
Si Si3 0.378620 0.298642 0.375725
Si Si4 0.558058 0.260964 0.571094
Si Si5 0.353935 0.085733 0.074211
Si Si6 0.331519 0.113201 0.572193
Si Si7 0.123562 0.150261 0.428351
O O1 0.091183 0.940531 0.612150
O O2 0.620554 0.500000 0.250000
O O3 0.659098 0.359576 0.309719
O O4 0.315640 0.351294 0.422502
O O5 0.481489 0.311494 0.392634
O O6 0.363342 0.194547 0.386493
O O7 0.531890 0.256036 0.500000
O O8 0.577934 0.161465 0.595049
O O9 0.253686 0.116791 0.088734
O O10 0.365386 0.983549 0.092678
O O11 0.359341 0.085907 0.000000
O O12 0.356482 0.126505 0.500000
O O13 0.224383 0.116232 0.574092
O O14 0.093411 0.141264 0.500000
#
# Coordination Sequence:
#
# PCOD9562304 Si02
#       7
#     4   8  16  16  16  16  16
#     4  12  17  20  40  76 112 157 202 233 272 332
#     4  11  24  46  66  86 108 143 202 254 312 355
#     4  12  23  39  61  85 115 152 198 249 296 360
#     4  11  22  36  57  90 125 156 188 238 303 364
#     4   9  18  31  48  77 124 164 191 225 282 361
#     4  10  19  32  53  85 122 162 197 233 290 359
#     4  10  16  23  40  71 113 155 193 232 274 331
#
# _framework density 18.593146999999998
#
# number of rings (size 3 to 8) (size 9 to 14) (size 15 to 20)
#    0.000    1.478    5.217    2.348    0.000    1.043 
#    0.000    3.478    0.000    1.043    0.000    0.000 
#    0.000    0.696    0.000    0.000    0.000    0.000 
#
# Total GULP energy -512254.431914 kJ/mol
# GULP energy per Si atom -5567.982956 kJ/mol
# Density = 1.855083 g / cm^3
# Si number density = 18.593147 Si / 1000 Ang^3
#
#
#
# Elastic Constant Matrix: (Units=GPa)
#
#
# Indices 1 2 3 4 5 6 
#
# 1 76.3936 27.7950 20.4247 0.0000 0.0000 0.0000
# 2 27.7950 76.3941 20.4246 0.0000 0.0000 0.0000
# 3 20.4247 20.4246 51.5985 0.0000 0.0000 0.0000
# 4 0.0000 0.0000 0.0000 3.8649 0.0000 0.0000
# 5 0.0000 0.0000 0.0000 0.0000 3.8648 0.0000
# 6 0.0000 0.0000 0.0000 0.0000 0.0000 58.5078
#
#
#
# Elastic Compliance Matrix: (Units=1/GPa)
#
#
# Indices 1 2 3 4 5 6 
#
# 1 0.015969 -0.004608 -0.004497 0.000000 0.000000 0.000000
# 2 -0.004608 0.015969 -0.004497 0.000000 0.000000 0.000000
# 3 -0.004497 -0.004497 0.022941 0.000000 0.000000 0.000000
# 4 0.000000 0.000000 0.000000 0.258742 0.000000 0.000000
# 5 0.000000 0.000000 0.000000 0.000000 0.258749 0.000000
# 6 0.000000 0.000000 0.000000 0.000000 0.000000 0.017092
#
#
# Mechanical properties :
#
#
# Convention : Reuss Voigt Hill
#
# Bulk Modulus (GPa) = 36.13458 37.96386 37.04922
# Shear Modulus (GPa) = 7.98863 22.29695 15.14279
#
# Velocity S-wave (km/s) = 2.07506 3.46671 2.85692
# Velocity P-wave (km/s) = 5.02172 6.04041 5.55447
#
# Compressibility (1/GPa) = 0.02767432
#
# Stress axis : x y z
#
# Youngs Moduli (GPa) = 62.62156 62.62204 43.59063
#
# Poissons Ratio (x) = 0.28854 0.19604
# Poissons Ratio (y) = 0.28854 0.19603
# Poissons Ratio (z) = 0.28162 0.28162
#
# Static dielectric constant tensor:
#      x y z
#    x 1.682140 0.000000 0.000000 
#    y 0.000000 1.682140 0.000000 
#    z 0.000000 0.000000 1.631330 
# 
# From -- ./inp_files/5365.got.cif
#   From: 2010.05.17/outbox.cif.g08.bks.cpg/sg124_3_cif.got.tgz:5365.got - 2010.05.20 11:49:17.
