data_PCOD9562956
_publ_section_title
;
Structure prediction by ZEFSAII (Michael W. Deem and Ramdas Pophale) SiO2 
 PCOD9562956
Probable space group: P 4/N B M
;
_chemical_formula_sum "Si O2"
_cell_formula_units_Z 96
_cell_length_a 24.701015
_cell_length_b 24.701015
_cell_length_c 8.478699
_cell_angle_alpha 90.000000
_cell_angle_beta 90.000000
_cell_angle_gamma 90.000000
_cell_volume 5173.194612
_symmetry_space_group_name_H-M "P 4/N B M"
_symmetry_group_IT_number 125
_space_group.IT_coordinate_system_code '2'
_symmetry_cell_setting 'tetragonal'
loop_
_space_group_symop_operation_xyz
x,y,z
1/2-y,x,z
1/2-x,1/2-y,z
y,1/2-x,z
x,1/2-y,-z
1/2-x,y,-z
y,x,-z
1/2-y,1/2-x,-z
-x,-y,-z
1/2+y,-x,-z
1/2+x,1/2+y,-z
-y,1/2+x,-z
-x,1/2+y,z
1/2+x,-y,z
-y,-x,z
1/2+y,1/2+x,z
loop_
_atom_site_type_symbol
_atom_site_label
_atom_site_fract_x
_atom_site_fract_y
_atom_site_fract_z
Si Si1 0.127588 0.958854 0.200284
Si Si2 0.523369 0.249422 0.681904
Si Si3 0.848250 0.853407 0.316281
Si Si4 0.070470 0.063476 0.809540
Si Si5 0.907465 0.752185 0.182360
Si Si6 0.547587 0.368444 0.178115
O O1 0.093439 0.906562 0.256920
O O2 0.189806 0.962854 0.257020
O O3 0.089689 0.012026 0.234209
O O4 0.132738 0.954801 0.011442
O O5 0.538305 0.250000 0.500000
O O6 0.459041 0.244122 0.707749
O O7 0.543869 0.193300 0.760863
O O8 0.840323 0.840323 0.500000
O O9 0.884763 0.905976 0.292838
O O10 0.881576 0.808590 0.224712
O O11 0.792896 0.864080 0.226119
O O12 0.089206 0.001432 0.782841
O O13 0.074546 0.074546 0.000000
O O14 0.924312 0.750000 0.000000
O O15 0.602726 0.397275 0.230736
#
# Coordination Sequence:
#
# PCOD9562956 Si02
#       6
#    16  16  16  16  16  16
#     4  10  21  38  62  91 122 158 202 247 294 356
#     4  12  24  38  59  88 123 160 196 245 300 353
#     4  12  24  38  58  87 118 153 200 256 302 347
#     4  10  19  34  59  89 122 159 195 239 294 355
#     4  12  24  41  61  82 113 161 209 249 294 353
#     4  10  21  38  62  91 122 158 202 247 294 356
#
# _framework density 18.557198
#
# number of rings (size 3 to 8) (size 9 to 14) (size 15 to 20)
#    0.000    1.000    3.333    5.000    0.000    3.000 
#    0.000    1.667    0.000    3.500    0.000    3.500 
#    0.000    0.000    0.000    0.000    0.000    0.000 
#
# Total GULP energy -535223.320345 kJ/mol
# GULP energy per Si atom -5575.242920 kJ/mol
# Density = 1.851496 g / cm^3
# Si number density = 18.557198 Si / 1000 Ang^3
#
#
#
# Elastic Constant Matrix: (Units=GPa)
#
#
# Indices 1 2 3 4 5 6 
#
# 1 80.2661 54.6576 13.1878 0.0000 0.0000 0.0000
# 2 54.6576 80.2661 13.1878 0.0000 0.0000 0.0000
# 3 13.1878 13.1878 33.8330 0.0000 0.0000 0.0000
# 4 0.0000 0.0000 0.0000 -117.3218 0.0000 0.0000
# 5 0.0000 0.0000 0.0000 0.0000 -117.3218 0.0000
# 6 0.0000 0.0000 0.0000 0.0000 0.0000 19.9111
#
#
#
# Elastic Compliance Matrix: (Units=1/GPa)
#
#
# Indices 1 2 3 4 5 6 
#
# 1 0.023536 -0.015513 -0.003127 0.000000 0.000000 0.000000
# 2 -0.015513 0.023536 -0.003127 0.000000 0.000000 0.000000
# 3 -0.003127 -0.003127 0.031995 0.000000 0.000000 0.000000
# 4 0.000000 0.000000 0.000000 -0.008524 0.000000 0.000000
# 5 0.000000 0.000000 0.000000 0.000000 -0.008524 0.000000
# 6 0.000000 0.000000 0.000000 0.000000 0.000000 0.050223
#
#
# Mechanical properties :
#
#
# Convention : Reuss Voigt Hill
#
# Bulk Modulus (GPa) = 28.14384 39.60347 33.87366
# Shear Modulus (GPa) = 29.82883 -35.39105 -2.78111
#
# Velocity S-wave (km/s) = 4.01359 -4.37181 -1.22553
# Velocity P-wave (km/s) = 6.05619 2.02386 4.03618
#
# Compressibility (1/GPa) = 0.03553176
#
# Stress axis : x y z
#
# Youngs Moduli (GPa) = 42.48770 42.48770 31.25495
#
# Poissons Ratio (x) = 0.65912 0.09774
# Poissons Ratio (y) = 0.65912 0.09774
# Poissons Ratio (z) = 0.13287 0.13287
#
# Static dielectric constant tensor:
#      x y z
#    x 1.736740 0.000000 0.000000 
#    y 0.000000 1.736740 0.000000 
#    z 0.000000 0.000000 1.635710 
# 
# From -- ./inp_files/2883.got.cif
#   From: 2010.05.17/outbox.cif.g08.bks.cpg/sg125_2_cif.got.tgz:2883.got - 2010.05.20 11:54:10.
