data_PCOD9562311
_publ_section_title
;
Structure prediction by ZEFSAII (Michael W. Deem and Ramdas Pophale) SiO2 
 PCOD9562311
Probable space group: P 4/M C C
;
_chemical_formula_sum "Si O2"
_cell_formula_units_Z 104
_cell_length_a 17.318199
_cell_length_b 17.318199
_cell_length_c 20.449558
_cell_angle_alpha 90.000000
_cell_angle_beta 90.000000
_cell_angle_gamma 90.000000
_cell_volume 6133.231775
_symmetry_space_group_name_H-M "P 4/M C C"
_symmetry_group_IT_number 124
_symmetry_cell_setting 'tetragonal'
loop_
_space_group_symop_operation_xyz
x,y,z
-y,x,z
-x,-y,z
y,-x,z
x,-y,1/2-z
-x,y,1/2-z
y,x,1/2-z
-y,-x,1/2-z
-x,-y,-z
y,-x,-z
x,y,-z
-y,x,-z
-x,y,1/2+z
x,-y,1/2+z
-y,-x,1/2+z
y,x,1/2+z
loop_
_atom_site_type_symbol
_atom_site_label
_atom_site_fract_x
_atom_site_fract_y
_atom_site_fract_z
Si Si1 0.372177 0.487264 0.000000
Si Si2 0.251048 0.766720 0.579033
Si Si3 0.097648 0.674708 0.579022
Si Si4 0.342063 0.332737 0.320336
Si Si5 0.495102 0.134745 0.078753
Si Si6 0.294363 0.493959 0.361675
Si Si7 0.071656 0.670210 0.078495
O O1 0.433076 0.418672 0.000000
O O2 0.325314 0.484959 0.933646
O O3 0.260635 0.759966 0.500000
O O4 0.164699 0.736122 0.596058
O O5 0.303208 0.706038 0.617987
O O6 0.280920 0.852430 0.598966
O O7 0.095416 0.674949 0.500000
O O8 0.114965 0.584283 0.595641
O O9 0.012139 0.695962 0.603865
O O10 0.308888 0.308888 0.250000
O O11 0.341691 0.425019 0.329302
O O12 0.427950 0.300318 0.321840
O O13 0.471536 0.206906 0.123464
O O14 0.422777 0.077469 0.089289
O O15 0.494203 0.151680 0.000000
O O16 0.071015 0.679354 0.000000
#
# Coordination Sequence:
#
# PCOD9562311 Si02
#       7
#     8  16  16  16  16  16  16
#     4  11  22  32  48  74  93 126 178 232 265 290
#     4  10  20  34  57  82 102 136 179 219 260 310
#     4   9  17  29  48  79 112 136 167 214 265 313
#     4  12  26  39  51  72 106 145 181 219 264 312
#     4  10  17  26  49  79 105 133 169 217 266 308
#     4  12  22  35  53  72 101 136 180 223 264 306
#     4   9  17  29  48  79 112 136 167 214 265 313
#
# _framework density 16.956802
#
# number of rings (size 3 to 8) (size 9 to 14) (size 15 to 20)
#    0.000    1.615    5.385    0.923    2.154    2.154 
#    0.000    0.769    0.000    1.385    0.000    5.385 
#    0.000    0.000    0.000    1.385    0.000    1.538 
#
# Total GULP energy -579038.441586 kJ/mol
# GULP energy per Si atom -5567.677323 kJ/mol
# Density = 1.691821 g / cm^3
# Si number density = 16.956802 Si / 1000 Ang^3
#
#
#
# Elastic Constant Matrix: (Units=GPa)
#
#
# Indices 1 2 3 4 5 6 
#
# 1 88.8089 24.4999 3.5539 0.0000 0.0000 0.0000
# 2 24.4999 88.8089 3.5539 0.0000 0.0000 0.0000
# 3 3.5539 3.5539 33.6546 0.0000 0.0000 0.0000
# 4 0.0000 0.0000 0.0000 15.0182 0.0000 0.0000
# 5 0.0000 0.0000 0.0000 0.0000 15.0182 0.0000
# 6 0.0000 0.0000 0.0000 0.0000 0.0000 16.4002
#
#
#
# Elastic Compliance Matrix: (Units=1/GPa)
#
#
# Indices 1 2 3 4 5 6 
#
# 1 0.012217 -0.003333 -0.000938 0.000000 0.000000 0.000000
# 2 -0.003333 0.012217 -0.000938 0.000000 0.000000 0.000000
# 3 -0.000938 -0.000938 0.029912 0.000000 0.000000 0.000000
# 4 0.000000 0.000000 0.000000 0.066586 0.000000 0.000000
# 5 0.000000 0.000000 0.000000 0.000000 0.066586 0.000000
# 6 0.000000 0.000000 0.000000 0.000000 0.000000 0.060975
#
#
# Mechanical properties :
#
#
# Convention : Reuss Voigt Hill
#
# Bulk Modulus (GPa) = 22.76472 30.49865 26.63169
# Shear Modulus (GPa) = 18.27797 21.26497 19.77147
#
# Velocity S-wave (km/s) = 3.28672 3.54512 3.41836
# Velocity P-wave (km/s) = 5.27804 5.89765 5.59643
#
# Compressibility (1/GPa) = 0.04392762
#
# Stress axis : x y z
#
# Youngs Moduli (GPa) = 81.85242 81.85242 33.43169
#
# Poissons Ratio (x) = 0.27280 0.03136
# Poissons Ratio (y) = 0.27280 0.03136
# Poissons Ratio (z) = 0.07679 0.07679
#
# Static dielectric constant tensor:
#      x y z
#    x 1.599910 0.000000 0.000000 
#    y 0.000000 1.599910 0.000000 
#    z 0.000000 0.000000 1.545540 
# 
# From -- ./inp_files/4341.got.cif
#   From: 2010.05.17/outbox.cif.g08.bks.cpg/sg124_3_cif.got.tgz:4341.got - 2010.05.20 11:49:17.
