data_PCOD9562128
_publ_section_title
;
Structure prediction by ZEFSAII (Michael W. Deem and Ramdas Pophale) SiO2 
 PCOD9562128
Probable space group: P 4/M M M
;
_chemical_formula_sum "Si O2"
_cell_formula_units_Z 56
_cell_length_a 18.641224
_cell_length_b 18.641224
_cell_length_c 7.822140
_cell_angle_alpha 90.000000
_cell_angle_beta 90.000000
_cell_angle_gamma 90.000000
_cell_volume 2718.156356
_symmetry_space_group_name_H-M "P 4/M M M"
_symmetry_group_IT_number 123
_symmetry_cell_setting 'tetragonal'
loop_
_space_group_symop_operation_xyz
x,y,z
-y,x,z
-x,-y,z
y,-x,z
x,-y,-z
-x,y,-z
y,x,-z
-y,-x,-z
-x,-y,-z
y,-x,-z
x,y,-z
-y,x,-z
-x,y,z
x,-y,z
-y,-x,z
y,x,z
loop_
_atom_site_type_symbol
_atom_site_label
_atom_site_fract_x
_atom_site_fract_y
_atom_site_fract_z
Si Si1 0.000000 0.419454 0.297158
Si Si2 0.197474 0.802527 0.202071
Si Si3 0.419525 0.697833 0.208896
Si Si4 0.918556 0.918556 0.293317
Si Si5 0.646700 0.846963 0.794015
O O1 0.073938 0.380113 0.250628
O O2 0.000000 0.500000 0.222237
O O3 0.000000 0.424958 0.500000
O O4 0.137673 0.862328 0.225565
O O5 0.273258 0.830124 0.271913
O O6 0.209176 0.790825 0.000000
O O7 0.500000 0.677751 0.262522
O O8 0.358078 0.641923 0.264742
O O9 0.401583 0.779390 0.262814
O O10 0.418269 0.697187 0.000000
O O11 0.916952 0.916952 0.500000
O O12 0.000000 0.901892 0.239657
O O13 0.647531 0.844651 0.000000
#
# Coordination Sequence:
#
# PCOD9562128 Si02
#       5
#     8   8  16   8  16
#     4  11  25  41  57  83 116 147 186 235 281 332
#     4  10  21  35  55  82 111 140 182 235 276 324
#     4   9  16  28  49  77 109 144 181 223 271 324
#     4   9  20  38  56  76 106 143 181 220 268 332
#     4  10  20  37  58  82 112 147 188 230 278 337
#
# _framework density 20.602201000000001
#
# number of rings (size 3 to 8) (size 9 to 14) (size 15 to 20)
#    0.000    2.286    1.429    1.714    2.000    4.286 
#    0.000    2.143    0.000    0.000    0.000    0.000 
#    0.000    0.000    0.000    6.000    0.000    5.714 
#
# Total GULP energy -312597.293936 kJ/mol
# GULP energy per Si atom -5582.094535 kJ/mol
# Density = 2.055531 g / cm^3
# Si number density = 20.602201 Si / 1000 Ang^3
#
#
#
# Elastic Constant Matrix: (Units=GPa)
#
#
# Indices 1 2 3 4 5 6 
#
# 1 167.6082 120.4716 8.5096 0.0000 0.0000 0.0000
# 2 120.4716 167.6085 8.5099 0.0000 0.0000 0.0000
# 3 8.5096 8.5099 25.2135 0.0000 0.0000 0.0000
# 4 0.0000 0.0000 0.0000 914.7768 0.0000 0.0000
# 5 0.0000 0.0000 0.0000 0.0000 914.3843 0.0000
# 6 0.0000 0.0000 0.0000 0.0000 0.0000 26.8415
#
#
#
# Elastic Compliance Matrix: (Units=1/GPa)
#
#
# Indices 1 2 3 4 5 6 
#
# 1 0.012378 -0.008836 -0.001195 0.000000 0.000000 0.000000
# 2 -0.008836 0.012378 -0.001196 0.000000 0.000000 0.000000
# 3 -0.001195 -0.001196 0.040468 0.000000 0.000000 0.000000
# 4 0.000000 0.000000 0.000000 0.001093 0.000000 0.000000
# 5 0.000000 0.000000 0.000000 0.000000 0.001094 0.000000
# 6 0.000000 0.000000 0.000000 0.000000 0.000000 0.037256
#
#
# Mechanical properties :
#
#
# Convention : Reuss Voigt Hill
#
# Bulk Modulus (GPa) = 23.38072 70.60137 46.99104
# Shear Modulus (GPa) = 35.36599 386.06315 210.71457
#
# Velocity S-wave (km/s) = 4.14770 13.70387 10.12422
# Velocity P-wave (km/s) = 5.85757 16.87418 12.63030
#
# Compressibility (1/GPa) = 0.04277028
#
# Stress axis : x y z
#
# Youngs Moduli (GPa) = 80.78606 80.78612 24.71080
#
# Poissons Ratio (x) = 0.71387 0.02954
# Poissons Ratio (y) = 0.71386 0.02954
# Poissons Ratio (z) = 0.09656 0.09658
#
# Static dielectric constant tensor:
#      x y z
#    x 1.723740 0.000000 0.000000 
#    y 0.000000 1.723740 0.000000 
#    z 0.000000 0.000000 1.755380 
# 
# From -- ./inp_files/631.got.cif
#   From: 2010.05.17/outbox.cif.g08.bks.cpg/sg123_1_cif.got.tgz:631.got - 2010.05.20 11:43:04.
