data_PCOD9562534
_publ_section_title
;
Structure prediction by ZEFSAII (Michael W. Deem and Ramdas Pophale) SiO2 
 PCOD9562534
Probable space group: P 4/M C C
;
_chemical_formula_sum "Si O2"
_cell_formula_units_Z 48
_cell_length_a 12.248198
_cell_length_b 12.248198
_cell_length_c 13.457397
_cell_angle_alpha 90.000000
_cell_angle_beta 90.000000
_cell_angle_gamma 90.000000
_cell_volume 2018.856550
_symmetry_space_group_name_H-M "P 4/M C C"
_symmetry_group_IT_number 124
_symmetry_cell_setting 'tetragonal'
loop_
_space_group_symop_operation_xyz
x,y,z
-y,x,z
-x,-y,z
y,-x,z
x,-y,1/2-z
-x,y,1/2-z
y,x,1/2-z
-y,-x,1/2-z
-x,-y,-z
y,-x,-z
x,y,-z
-y,x,-z
-x,y,1/2+z
x,-y,1/2+z
-y,-x,1/2+z
y,x,1/2+z
loop_
_atom_site_type_symbol
_atom_site_label
_atom_site_fract_x
_atom_site_fract_y
_atom_site_fract_z
Si Si1 0.362277 0.393900 0.367229
Si Si2 0.148774 0.294590 0.694566
Si Si3 0.383678 0.061086 0.388781
O O1 0.480779 0.351628 0.400958
O O2 0.382552 0.382552 0.250000
O O3 0.246950 0.333156 0.377335
O O4 0.184122 0.184122 0.750000
O O5 0.136850 0.374987 0.791369
O O6 0.036001 0.298297 0.636004
O O7 0.367051 0.106921 0.500000
O O8 0.500000 0.000000 0.388019
#
# Coordination Sequence:
#
# PCOD9562534 Si02
#       3
#    16  16  16
#     4   8  15  25  46  84 117 146 184 223 265 326
#     4  10  20  33  64  84 110 156 201 234 285 346
#     4  10  23  39  54  83 123 155 194 245 289 341
#
# _framework density 23.775835000000001
#
# number of rings (size 3 to 8) (size 9 to 14) (size 15 to 20)
#    0.000    2.667    0.000    3.000   18.667    1.333 
#    0.000    0.000    0.000    8.000    0.000   14.000 
#    0.000    0.000    0.000    0.000    0.000    0.000 
#
# Total GULP energy -267439.671804 kJ/mol
# GULP energy per Si atom -5571.659829 kJ/mol
# Density = 2.372172 g / cm^3
# Si number density = 23.775835 Si / 1000 Ang^3
#
#
#
# Elastic Constant Matrix: (Units=GPa)
#
#
# Indices 1 2 3 4 5 6 
#
# 1 84.4140 13.7230 -0.6271 0.0000 0.0000 0.0000
# 2 13.7230 84.4140 -0.6271 0.0000 0.0000 0.0000
# 3 -0.6271 -0.6271 153.9078 0.0000 0.0000 0.0000
# 4 0.0000 0.0000 0.0000 -96.5934 0.0000 0.0000
# 5 0.0000 0.0000 0.0000 0.0000 -96.5934 0.0000
# 6 0.0000 0.0000 0.0000 0.0000 0.0000 32.8685
#
#
#
# Elastic Compliance Matrix: (Units=1/GPa)
#
#
# Indices 1 2 3 4 5 6 
#
# 1 0.012168 -0.001978 0.000042 0.000000 0.000000 0.000000
# 2 -0.001978 0.012168 0.000042 0.000000 0.000000 0.000000
# 3 0.000042 0.000042 0.006498 0.000000 0.000000 0.000000
# 4 0.000000 0.000000 0.000000 -0.010353 0.000000 0.000000
# 5 0.000000 0.000000 0.000000 0.000000 -0.010353 0.000000
# 6 0.000000 0.000000 0.000000 0.000000 0.000000 0.030424
#
#
# Mechanical properties :
#
#
# Convention : Reuss Voigt Hill
#
# Bulk Modulus (GPa) = 36.97602 38.63037 37.80320
# Shear Modulus (GPa) = 93.70735 -11.37921 41.16407
#
# Velocity S-wave (km/s) = 6.28478 -2.19008 4.16545
# Velocity P-wave (km/s) = 8.26137 3.14448 6.25052
#
# Compressibility (1/GPa) = 0.02704455
#
# Stress axis : x y z
#
# Youngs Moduli (GPa) = 82.18128 82.18128 153.89978
#
# Poissons Ratio (x) = 0.16254 -0.00639
# Poissons Ratio (y) = 0.16254 -0.00639
# Poissons Ratio (z) = -0.00341 -0.00341
#
# Static dielectric constant tensor:
#      x y z
#    x 1.983200 0.000000 0.000000 
#    y 0.000000 1.983200 0.000000 
#    z 0.000000 0.000000 1.963640 
# 
# From -- ./inp_files/2791.got.cif
#   From: 2010.05.17/outbox.cif.g08.bks.cpg/sg124_2_cif.got.tgz:2791.got - 2010.05.20 11:49:17.
