data_PCOD9562551
_publ_section_title
;
Structure prediction by ZEFSAII (Michael W. Deem and Ramdas Pophale) SiO2 
 PCOD9562551
Probable space group: P 4/M C C
;
_chemical_formula_sum "Si O2"
_cell_formula_units_Z 104
_cell_length_a 18.460057
_cell_length_b 18.460057
_cell_length_c 15.476815
_cell_angle_alpha 90.000000
_cell_angle_beta 90.000000
_cell_angle_gamma 90.000000
_cell_volume 5274.091581
_symmetry_space_group_name_H-M "P 4/M C C"
_symmetry_group_IT_number 124
_symmetry_cell_setting 'tetragonal'
loop_
_space_group_symop_operation_xyz
x,y,z
-y,x,z
-x,-y,z
y,-x,z
x,-y,1/2-z
-x,y,1/2-z
y,x,1/2-z
-y,-x,1/2-z
-x,-y,-z
y,-x,-z
x,y,-z
-y,x,-z
-x,y,1/2+z
x,-y,1/2+z
-y,-x,1/2+z
y,x,1/2+z
loop_
_atom_site_type_symbol
_atom_site_label
_atom_site_fract_x
_atom_site_fract_y
_atom_site_fract_z
Si Si1 0.885325 0.988664 0.894903
Si Si2 0.267623 0.963357 0.102967
Si Si3 0.619538 0.000000 0.750000
Si Si4 0.802622 0.270569 0.667961
Si Si5 0.567826 0.405075 0.394376
Si Si6 0.836926 0.418382 0.763133
Si Si7 0.353644 0.738259 0.598725
O O1 0.802111 0.988938 0.871064
O O2 0.923826 0.063101 0.865972
O O3 0.886977 0.988730 0.000000
O O4 0.331881 0.988693 0.164409
O O5 0.250654 0.879155 0.125220
O O6 0.280972 0.969905 0.000000
O O7 0.579669 0.076092 0.738573
O O8 0.742202 0.624906 0.500000
O O9 0.811337 0.354914 0.697198
O O10 0.732803 0.263805 0.607530
O O11 0.598069 0.483572 0.367727
O O12 0.569551 0.405365 0.500000
O O13 0.613503 0.336503 0.363655
O O14 0.809282 0.500000 0.750000
O O15 0.805680 0.387477 0.851941
O O16 0.220472 0.779529 0.750000
#
# Coordination Sequence:
#
# PCOD9562551 Si02
#       7
#    16  16   8  16  16  16  16
#     4   8  15  28  47  76 110 140 174 216 266 333
#     4  10  20  36  60  84 110 152 195 240 303 365
#     4  10  23  42  60  81 112 148 194 256 310 355
#     4   9  20  37  55  81 116 151 190 243 295 352
#     4   8  15  28  47  76 116 152 181 222 281 345
#     4  10  22  40  60  80 111 154 195 242 304 357
#     4  10  20  34  58  89 116 149 195 245 292 356
#
# _framework density 19.719035999999999
#
# number of rings (size 3 to 8) (size 9 to 14) (size 15 to 20)
#    0.000    2.769    0.000    1.615    2.154    4.308 
#    0.000    4.615    0.000    5.538    0.000    0.000 
#    0.000    0.000    0.000    0.000    0.000    0.000 
#
# Total GULP energy -579841.477013 kJ/mol
# GULP energy per Si atom -5575.398817 kJ/mol
# Density = 1.967415 g / cm^3
# Si number density = 19.719036 Si / 1000 Ang^3
#
#
#
# Elastic Constant Matrix: (Units=GPa)
#
#
# Indices 1 2 3 4 5 6 
#
# 1 45.4638 8.4244 11.0962 0.0000 0.0000 0.0000
# 2 8.4244 45.4633 11.0969 0.0000 0.0000 0.0000
# 3 11.0962 11.0969 53.7180 0.0000 0.0000 0.0000
# 4 0.0000 0.0000 0.0000 -22.4586 0.0000 0.0000
# 5 0.0000 0.0000 0.0000 0.0000 -22.4628 0.0000
# 6 0.0000 0.0000 0.0000 0.0000 0.0000 18.3159
#
#
#
# Elastic Compliance Matrix: (Units=1/GPa)
#
#
# Indices 1 2 3 4 5 6 
#
# 1 0.023640 -0.003358 -0.004190 0.000000 0.000000 0.000000
# 2 -0.003358 0.023641 -0.004190 0.000000 0.000000 0.000000
# 3 -0.004190 -0.004190 0.020347 0.000000 0.000000 0.000000
# 4 0.000000 0.000000 0.000000 -0.044526 0.000000 0.000000
# 5 0.000000 0.000000 0.000000 0.000000 -0.044518 0.000000
# 6 0.000000 0.000000 0.000000 0.000000 0.000000 0.054597
#
#
# Mechanical properties :
#
#
# Convention : Reuss Voigt Hill
#
# Bulk Modulus (GPa) = 22.64866 22.87555 22.76211
# Shear Modulus (GPa) = 70.05454 2.28076 36.16765
#
# Velocity S-wave (km/s) = 5.96686 1.07663 4.28734
# Velocity P-wave (km/s) = 7.67997 3.62925 6.00639
#
# Compressibility (1/GPa) = 0.04415272
#
# Stress axis : x y z
#
# Youngs Moduli (GPa) = 42.30068 42.29991 49.14801
#
# Poissons Ratio (x) = 0.14204 0.20591
# Poissons Ratio (y) = 0.14204 0.20593
# Poissons Ratio (z) = 0.17722 0.17724
#
# Static dielectric constant tensor:
#      x y z
#    x 1.748850 0.000000 0.000000 
#    y 0.000000 1.748870 0.000000 
#    z 0.000000 0.000000 1.709500 
# 
# From -- ./inp_files/4339.got.cif
#   From: 2010.05.17/outbox.cif.g08.bks.cpg/sg124_3_cif.got.tgz:4339.got - 2010.05.20 11:49:17.
