data_PCOD9562836
_publ_section_title
;
Structure prediction by ZEFSAII (Michael W. Deem and Ramdas Pophale) SiO2 
 PCOD9562836
Probable space group: P 4/M C C
;
_chemical_formula_sum "Si O2"
_cell_formula_units_Z 34
_cell_length_a 8.406198
_cell_length_b 8.406198
_cell_length_c 18.943035
_cell_angle_alpha 90.000000
_cell_angle_beta 90.000000
_cell_angle_gamma 90.000000
_cell_volume 1338.593747
_symmetry_space_group_name_H-M "P 4/M C C"
_symmetry_group_IT_number 124
_symmetry_cell_setting 'tetragonal'
loop_
_space_group_symop_operation_xyz
x,y,z
-y,x,z
-x,-y,z
y,-x,z
x,-y,1/2-z
-x,y,1/2-z
y,x,1/2-z
-y,-x,1/2-z
-x,-y,-z
y,-x,-z
x,y,-z
-y,x,-z
-x,y,1/2+z
x,-y,1/2+z
-y,-x,1/2+z
y,x,1/2+z
loop_
_atom_site_type_symbol
_atom_site_label
_atom_site_fract_x
_atom_site_fract_y
_atom_site_fract_z
Si Si1 0.634713 0.135233 0.000000
Si Si2 0.246857 0.913829 0.845701
Si Si3 0.231798 0.500000 0.250000
Si Si4 0.500000 0.500000 0.000000
O O1 0.735176 0.109724 0.070789
O O2 0.500000 0.000000 0.000000
O O3 0.557518 0.310747 0.000000
O O4 0.417192 0.868373 0.812640
O O5 0.094178 0.803375 0.825790
O O6 0.355946 0.355946 0.250000
#
# Coordination Sequence:
#
# PCOD9562836 Si02
#       4
#     8  16   8   2
#     4  12  28  51  88 131 180 221 295 381 449 556
#     4  11  27  54  87 124 171 231 292 371 462 544
#     4  11  30  49  78 120 168 224 290 360 436 532
#     4  12  28  44  84 130 172 244 292 350 476 536
#
# _framework density 25.399788999999998
#
# number of rings (size 3 to 8) (size 9 to 14) (size 15 to 20)
#    0.000    0.706    0.000    4.235   13.176    7.529 
#    0.000    2.353    0.000    0.000    0.000    0.000 
#    0.000    0.000    0.000    0.000    0.000    0.000 
#
# Total GULP energy -189305.484791 kJ/mol
# GULP energy per Si atom -5567.808376 kJ/mol
# Density = 2.534198 g / cm^3
# Si number density = 25.399789 Si / 1000 Ang^3
#
#
#
# Elastic Constant Matrix: (Units=GPa)
#
#
# Indices 1 2 3 4 5 6 
#
# 1 148.7962 144.7356 62.7753 0.0000 0.0000 0.0000
# 2 144.7356 148.7962 62.7753 0.0000 0.0000 0.0000
# 3 62.7753 62.7753 157.0971 0.0000 0.0000 0.0000
# 4 0.0000 0.0000 0.0000 24.5876 0.0000 0.0000
# 5 0.0000 0.0000 0.0000 0.0000 24.5876 0.0000
# 6 0.0000 0.0000 0.0000 0.0000 0.0000 70.0041
#
#
#
# Elastic Compliance Matrix: (Units=1/GPa)
#
#
# Indices 1 2 3 4 5 6 
#
# 1 0.125190 -0.121080 -0.001642 0.000000 0.000000 0.000000
# 2 -0.121080 0.125190 -0.001642 0.000000 0.000000 0.000000
# 3 -0.001642 -0.001642 0.007678 0.000000 0.000000 0.000000
# 4 0.000000 0.000000 0.000000 0.040671 0.000000 0.000000
# 5 0.000000 0.000000 0.000000 0.000000 0.040671 0.000000
# 6 0.000000 0.000000 0.000000 0.000000 0.000000 0.014285
#
#
# Mechanical properties :
#
#
# Convention : Reuss Voigt Hill
#
# Bulk Modulus (GPa) = 107.20373 110.58463 108.89418
# Shear Modulus (GPa) = 8.25735 36.12943 22.19339
#
# Velocity S-wave (km/s) = 1.80500 3.77560 2.95915
# Velocity P-wave (km/s) = 6.82951 7.91448 7.39193
#
# Compressibility (1/GPa) = 0.00932803
#
# Stress axis : x y z
#
# Youngs Moduli (GPa) = 7.98789 7.98789 130.24664
#
# Poissons Ratio (x) = 0.96718 0.21386
# Poissons Ratio (y) = 0.96718 0.21386
# Poissons Ratio (z) = 0.01312 0.01312
#
# Static dielectric constant tensor:
#      x y z
#    x 1.917820 0.000000 0.000000 
#    y 0.000000 1.917820 0.000000 
#    z 0.000000 0.000000 2.040360 
# 
# From -- ./inp_files/4703.got.cif
#   From: 2010.05.17/outbox.cif.g08.bks.cpg/sg124_3_cif.got.tgz:4703.got - 2010.05.20 11:49:17.
