data_PCOD9562274
_publ_section_title
;
Structure prediction by ZEFSAII (Michael W. Deem and Ramdas Pophale) SiO2 
 PCOD9562274
Probable space group: P 4/M M M
;
_chemical_formula_sum "Si O2"
_cell_formula_units_Z 112
_cell_length_a 18.672260
_cell_length_b 18.672260
_cell_length_c 22.485716
_cell_angle_alpha 90.000000
_cell_angle_beta 90.000000
_cell_angle_gamma 90.000000
_cell_volume 7839.718940
_symmetry_space_group_name_H-M "P 4/M M M"
_symmetry_group_IT_number 123
_symmetry_cell_setting 'tetragonal'
loop_
_space_group_symop_operation_xyz
x,y,z
-y,x,z
-x,-y,z
y,-x,z
x,-y,-z
-x,y,-z
y,x,-z
-y,-x,-z
-x,-y,-z
y,-x,-z
x,y,-z
-y,x,-z
-x,y,z
x,-y,z
-y,-x,z
y,x,z
loop_
_atom_site_type_symbol
_atom_site_label
_atom_site_fract_x
_atom_site_fract_y
_atom_site_fract_z
Si Si1 0.701047 0.416412 0.929056
Si Si2 0.081785 0.800975 0.328572
Si Si3 0.279293 0.837382 0.570028
Si Si4 0.161630 0.418653 0.647617
Si Si5 0.661019 0.083043 0.247082
Si Si6 0.302447 0.581915 0.275075
Si Si7 0.336876 0.220427 0.169189
O O1 0.695432 0.500000 0.912532
O O2 0.628663 0.371338 0.915357
O O3 0.763464 0.376356 0.892783
O O4 0.712315 0.412419 0.000000
O O5 0.135257 0.864744 0.313847
O O6 0.106889 0.766866 0.391178
O O7 0.088517 0.737575 0.280359
O O8 0.000000 0.824258 0.331470
O O9 0.277770 0.851705 0.500000
O O10 0.239331 0.760670 0.580298
O O11 0.358932 0.841515 0.596612
O O12 0.145526 0.500000 0.629197
O O13 0.110552 0.394811 0.702570
O O14 0.241748 0.415999 0.674379
O O15 0.662101 0.139343 0.192847
O O16 0.648092 0.000000 0.231469
O O17 0.321545 0.500000 0.263099
O O18 0.370117 0.629884 0.291184
O O19 0.265101 0.617250 0.217659
O O20 0.258772 0.258772 0.168123
#
# Coordination Sequence:
#
# PCOD9562274 Si02
#       7
#    16  16  16  16  16  16  16
#     4   9  17  28  42  61  85 113 144 176 208 241
#     4   9  17  29  45  65  87 108 130 157 191 233
#     4   9  17  29  44  59  76 102 134 164 195 234
#     4   9  17  28  41  58  79 100 126 164 205 241
#     4   9  17  29  45  63  82 105 133 165 200 238
#     4   9  16  25  38  56  78 103 129 159 197 240
#     4   9  16  27  43  61  81 106 136 167 200 237
#
# _framework density 14.286227
#
# number of rings (size 3 to 8) (size 9 to 14) (size 15 to 20)
#    0.000    3.000    0.000    1.286    0.000    5.286 
#    0.000    0.714    0.000    3.000    0.000    7.000 
#    0.000    0.000    0.000   13.286    0.000    0.000 
#
# Total GULP energy -623513.862852 kJ/mol
# GULP energy per Si atom -5567.088061 kJ/mol
# Density = 1.425371 g / cm^3
# Si number density = 14.286227 Si / 1000 Ang^3
#
#
#
# Elastic Constant Matrix: (Units=GPa)
#
#
# Indices 1 2 3 4 5 6 
#
# 1 89.2654 44.7216 22.0292 0.0000 0.0000 0.0000
# 2 44.7216 89.2654 22.0292 0.0000 0.0000 0.0000
# 3 22.0292 22.0292 43.6015 0.0000 0.0000 0.0000
# 4 0.0000 0.0000 0.0000 13.7511 0.0000 0.0000
# 5 0.0000 0.0000 0.0000 0.0000 13.7511 0.0000
# 6 0.0000 0.0000 0.0000 0.0000 0.0000 12.2336
#
#
#
# Elastic Compliance Matrix: (Units=1/GPa)
#
#
# Indices 1 2 3 4 5 6 
#
# 1 0.015700 -0.006750 -0.004522 0.000000 0.000000 0.000000
# 2 -0.006750 0.015700 -0.004522 0.000000 0.000000 0.000000
# 3 -0.004522 -0.004522 0.027504 0.000000 0.000000 0.000000
# 4 0.000000 0.000000 0.000000 0.072722 0.000000 0.000000
# 5 0.000000 0.000000 0.000000 0.000000 0.072722 0.000000
# 6 0.000000 0.000000 0.000000 0.000000 0.000000 0.081742
#
#
# Mechanical properties :
#
#
# Convention : Reuss Voigt Hill
#
# Bulk Modulus (GPa) = 36.60741 44.41028 40.50884
# Shear Modulus (GPa) = 15.30066 16.83730 16.06898
#
# Velocity S-wave (km/s) = 3.27618 3.43675 3.35742
# Velocity P-wave (km/s) = 6.32384 6.84850 6.59139
#
# Compressibility (1/GPa) = 0.02731688
#
# Stress axis : x y z
#
# Youngs Moduli (GPa) = 63.69387 63.69387 36.35770
#
# Poissons Ratio (x) = 0.42991 0.16441
# Poissons Ratio (y) = 0.42991 0.16441
# Poissons Ratio (z) = 0.28803 0.28803
#
# Static dielectric constant tensor:
#      x y z
#    x 1.469730 0.000000 0.000000 
#    y 0.000000 1.469730 0.000000 
#    z 0.000000 0.000000 1.462390 
# 
# From -- ./inp_files/6685.got.cif
#   From: 2010.05.17/outbox.cif.g08.bks.cpg/sg123_4_cif.got.tgz:6685.got - 2010.05.20 11:43:04.
