data_PCOD9562517
_publ_section_title
;
Structure prediction by ZEFSAII (Michael W. Deem and Ramdas Pophale) SiO2 
 PCOD9562517
Probable space group: P 4/M C C
;
_chemical_formula_sum "Si O2"
_cell_formula_units_Z 128
_cell_length_a 20.006219
_cell_length_b 20.006219
_cell_length_c 16.808780
_cell_angle_alpha 90.000000
_cell_angle_beta 90.000000
_cell_angle_gamma 90.000000
_cell_volume 6727.694002
_symmetry_space_group_name_H-M "P 4/M C C"
_symmetry_group_IT_number 124
_symmetry_cell_setting 'tetragonal'
loop_
_space_group_symop_operation_xyz
x,y,z
-y,x,z
-x,-y,z
y,-x,z
x,-y,1/2-z
-x,y,1/2-z
y,x,1/2-z
-y,-x,1/2-z
-x,-y,-z
y,-x,-z
x,y,-z
-y,x,-z
-x,y,1/2+z
x,-y,1/2+z
-y,-x,1/2+z
y,x,1/2+z
loop_
_atom_site_type_symbol
_atom_site_label
_atom_site_fract_x
_atom_site_fract_y
_atom_site_fract_z
Si Si1 0.231147 0.198220 0.902322
Si Si2 0.264657 0.095433 0.596824
Si Si3 0.034727 0.602009 0.171657
Si Si4 0.175957 0.469080 0.330545
Si Si5 0.278238 0.363377 0.403607
Si Si6 0.580675 0.904397 0.406751
Si Si7 0.415882 0.430879 0.596895
Si Si8 0.737555 0.050925 0.406711
O O1 0.159116 0.223799 0.875752
O O2 0.291177 0.248364 0.878700
O O3 0.240427 0.122181 0.873027
O O4 0.232436 0.197208 0.000000
O O5 0.261560 0.093592 0.500000
O O6 0.342401 0.107900 0.616648
O O7 0.241082 0.022076 0.625073
O O8 0.104768 0.566722 0.189598
O O9 0.049720 0.657882 0.105970
O O10 0.000000 0.632915 0.250000
O O11 0.972325 0.561019 0.137472
O O12 0.204572 0.500000 0.250000
O O13 0.226051 0.418204 0.371723
O O14 0.154961 0.531007 0.385704
O O15 0.277741 0.364498 0.500000
O O16 0.353265 0.384877 0.377758
O O17 0.578537 0.916632 0.500000
O O18 0.490822 0.408155 0.621215
O O19 0.415877 0.430288 0.500000
O O20 0.754144 0.051757 0.500000
#
# Coordination Sequence:
#
# PCOD9562517 Si02
#       8
#    16  16  16  16  16  16  16  16
#     4   9  16  29  50  75 105 133 164 213 258 299
#     4   8  16  30  48  74 101 129 168 209 255 298
#     4  11  20  33  50  69 100 137 175 207 254 308
#     4  12  23  34  47  69 106 141 172 208 262 310
#     4  10  20  32  52  79 103 134 175 217 264 313
#     4  10  21  33  50  72  96 131 175 219 250 297
#     4   8  15  30  53  81 108 133 172 227 278 320
#     4   9  17  31  53  77 100 134 176 213 251 305
#
# _framework density 19.025835000000001
#
# number of rings (size 3 to 8) (size 9 to 14) (size 15 to 20)
#    0.000    2.375    2.500    2.250    0.000    3.000 
#    0.000    3.750    0.000    9.375    0.000    3.500 
#    0.000    0.000    0.000    4.500    0.000    5.000 
#
# Total GULP energy -712832.252818 kJ/mol
# GULP energy per Si atom -5569.001975 kJ/mol
# Density = 1.898253 g / cm^3
# Si number density = 19.025835 Si / 1000 Ang^3
#
#
#
# Elastic Constant Matrix: (Units=GPa)
#
#
# Indices 1 2 3 4 5 6 
#
# 1 113.3155 72.5789 1.1607 0.0000 0.0000 0.0000
# 2 72.5789 113.3155 1.1607 0.0000 0.0000 0.0000
# 3 1.1607 1.1607 11.5042 0.0000 0.0000 0.0000
# 4 0.0000 0.0000 0.0000 6.9148 0.0000 0.0000
# 5 0.0000 0.0000 0.0000 0.0000 6.9148 0.0000
# 6 0.0000 0.0000 0.0000 0.0000 0.0000 68.2018
#
#
#
# Elastic Compliance Matrix: (Units=1/GPa)
#
#
# Indices 1 2 3 4 5 6 
#
# 1 0.014967 -0.009581 -0.000543 0.000000 0.000000 0.000000
# 2 -0.009581 0.014967 -0.000543 0.000000 0.000000 0.000000
# 3 -0.000543 -0.000543 0.087035 0.000000 0.000000 0.000000
# 4 0.000000 0.000000 0.000000 0.144617 0.000000 0.000000
# 5 0.000000 0.000000 0.000000 0.000000 0.144617 0.000000
# 6 0.000000 0.000000 0.000000 0.000000 0.000000 0.014662
#
#
# Mechanical properties :
#
#
# Convention : Reuss Voigt Hill
#
# Bulk Modulus (GPa) = 10.45663 43.10399 26.78031
# Shear Modulus (GPa) = 10.54679 27.28861 18.91770
#
# Velocity S-wave (km/s) = 2.35700 3.79131 3.15670
# Velocity P-wave (km/s) = 3.59377 6.47071 5.23380
#
# Compressibility (1/GPa) = 0.09563313
#
# Stress axis : x y z
#
# Youngs Moduli (GPa) = 66.81338 66.81338 11.48969
#
# Poissons Ratio (x) = 0.64013 0.00624
# Poissons Ratio (y) = 0.64013 0.00624
# Poissons Ratio (z) = 0.03631 0.03631
#
# Static dielectric constant tensor:
#      x y z
#    x 1.680170 0.000000 0.000000 
#    y 0.000000 1.680170 0.000000 
#    z 0.000000 0.000000 1.677440 
# 
# From -- ./inp_files/4590.got.cif
#   From: 2010.05.17/outbox.cif.g08.bks.cpg/sg124_3_cif.got.tgz:4590.got - 2010.05.20 11:49:17.
