data_PCOD9562995
_publ_section_title
;
Structure prediction by ZEFSAII (Michael W. Deem and Ramdas Pophale) SiO2 
 PCOD9562995
Probable space group: P 4/N B M
;
_chemical_formula_sum "Si O2"
_cell_formula_units_Z 72
_cell_length_a 11.799873
_cell_length_b 11.799873
_cell_length_c 27.485551
_cell_angle_alpha 90.000000
_cell_angle_beta 90.000000
_cell_angle_gamma 90.000000
_cell_volume 3827.005742
_symmetry_space_group_name_H-M "P 4/N B M"
_symmetry_group_IT_number 125
_space_group.IT_coordinate_system_code '2'
_symmetry_cell_setting 'tetragonal'
loop_
_space_group_symop_operation_xyz
x,y,z
1/2-y,x,z
1/2-x,1/2-y,z
y,1/2-x,z
x,1/2-y,-z
1/2-x,y,-z
y,x,-z
1/2-y,1/2-x,-z
-x,-y,-z
1/2+y,-x,-z
1/2+x,1/2+y,-z
-y,1/2+x,-z
-x,1/2+y,z
1/2+x,-y,z
-y,-x,z
1/2+y,1/2+x,z
loop_
_atom_site_type_symbol
_atom_site_label
_atom_site_fract_x
_atom_site_fract_y
_atom_site_fract_z
Si Si1 0.750000 0.436528 0.000000
Si Si2 0.519418 0.019418 0.416968
Si Si3 0.313906 0.070910 0.662982
Si Si4 0.154500 0.845501 0.276280
Si Si5 0.715649 0.564044 0.900272
Si Si6 0.880777 0.119224 0.487114
Si Si7 0.156539 0.843462 0.159899
O O1 0.787246 0.511886 0.045559
O O2 0.853803 0.353803 0.985601
O O3 0.475946 0.128816 0.386777
O O4 0.558157 0.058157 0.468928
O O5 0.424551 0.924551 0.433751
O O6 0.388135 0.184873 0.667697
O O7 0.321171 0.969299 0.701581
O O8 0.250000 0.750000 0.290100
O O9 0.150911 0.849090 0.218042
O O10 0.837855 0.622537 0.894145
O O11 0.693048 0.462787 0.863072
O O12 0.902495 0.250000 0.500000
O O13 0.250000 0.750000 0.145731
#
# Coordination Sequence:
#
# PCOD9562995 Si02
#       7
#     8   8  16   8  16   8   8
#     4  11  22  37  64  96 128 167 211 260 314 370
#     4  10  20  36  58  89 128 172 218 267 317 377
#     4  10  22  41  65  94 125 163 216 273 328 391
#     4  10  25  43  66  94 124 164 207 269 336 399
#     4  11  25  42  64  95 127 166 213 260 312 379
#     4  10  20  34  53  86 130 178 220 259 309 376
#     4  11  25  45  66  92 128 166 208 257 329 399
#
# _framework density 18.813663999999999
#
# number of rings (size 3 to 8) (size 9 to 14) (size 15 to 20)
#    0.000    1.556    1.111    2.667    6.222    3.556 
#    8.000    2.222    0.000    5.333    0.000    0.000 
#    0.000    0.000    0.000    0.000    0.000    0.000 
#
# Total GULP energy -401186.763717 kJ/mol
# GULP energy per Si atom -5572.038385 kJ/mol
# Density = 1.877084 g / cm^3
# Si number density = 18.813664 Si / 1000 Ang^3
#
#
#
# Elastic Constant Matrix: (Units=GPa)
#
#
# Indices 1 2 3 4 5 6 
#
# 1 114.8011 101.3857 63.0332 0.0000 0.0000 0.0000
# 2 101.3857 114.8011 63.0332 0.0000 0.0000 0.0000
# 3 63.0332 63.0332 106.8611 0.0000 0.0000 0.0000
# 4 0.0000 0.0000 0.0000 26.4021 0.0000 0.0000
# 5 0.0000 0.0000 0.0000 0.0000 26.4021 0.0000
# 6 0.0000 0.0000 0.0000 0.0000 0.0000 8.3894
#
#
#
# Elastic Compliance Matrix: (Units=1/GPa)
#
#
# Indices 1 2 3 4 5 6 
#
# 1 0.040796 -0.033745 -0.004159 0.000000 0.000000 0.000000
# 2 -0.033745 0.040796 -0.004159 0.000000 0.000000 0.000000
# 3 -0.004159 -0.004159 0.014264 0.000000 0.000000 0.000000
# 4 0.000000 0.000000 0.000000 0.037876 0.000000 0.000000
# 5 0.000000 0.000000 0.000000 0.000000 0.037876 0.000000
# 6 0.000000 0.000000 0.000000 0.000000 0.000000 0.119198
#
#
# Mechanical properties :
#
#
# Convention : Reuss Voigt Hill
#
# Bulk Modulus (GPa) = 85.25097 87.92975 86.59036
# Shear Modulus (GPa) = 13.19810 19.50615 16.35212
#
# Velocity S-wave (km/s) = 2.65149 3.22344 2.95135
# Velocity P-wave (km/s) = 7.40173 7.79055 7.59863
#
# Compressibility (1/GPa) = 0.01173007
#
# Stress axis : x y z
#
# Youngs Moduli (GPa) = 24.51217 24.51217 70.10417
#
# Poissons Ratio (x) = 0.82717 0.29157
# Poissons Ratio (y) = 0.82717 0.29157
# Poissons Ratio (z) = 0.10195 0.10195
#
# Static dielectric constant tensor:
#      x y z
#    x 1.782740 0.000000 0.000000 
#    y 0.000000 1.782740 0.000000 
#    z 0.000000 0.000000 1.614810 
# 
# From -- ./inp_files/6377.got.cif
#   From: 2010.05.17/outbox.cif.g08.bks.cpg/sg125_4_cif.got.tgz:6377.got - 2010.05.20 11:54:10.
