data_PCOD9562178
_publ_section_title
;
Structure prediction by ZEFSAII (Michael W. Deem and Ramdas Pophale) SiO2 
 PCOD9562178
Probable space group: P 4/M M M
;
_chemical_formula_sum "Si O2"
_cell_formula_units_Z 104
_cell_length_a 18.496609
_cell_length_b 18.496609
_cell_length_c 16.120698
_cell_angle_alpha 90.000000
_cell_angle_beta 90.000000
_cell_angle_gamma 90.000000
_cell_volume 5515.286460
_symmetry_space_group_name_H-M "P 4/M M M"
_symmetry_group_IT_number 123
_symmetry_cell_setting 'tetragonal'
loop_
_space_group_symop_operation_xyz
x,y,z
-y,x,z
-x,-y,z
y,-x,z
x,-y,-z
-x,y,-z
y,x,-z
-y,-x,-z
-x,-y,-z
y,-x,-z
x,y,-z
-y,x,-z
-x,y,z
x,-y,z
-y,-x,z
y,x,z
loop_
_atom_site_type_symbol
_atom_site_label
_atom_site_fract_x
_atom_site_fract_y
_atom_site_fract_z
Si Si1 0.301857 0.417875 0.135512
Si Si2 0.201696 0.083643 0.599906
Si Si3 0.152609 0.352373 0.658859
Si Si4 0.416922 0.303278 0.338599
Si Si5 0.188418 0.309925 0.158709
Si Si6 0.500000 0.086059 0.594630
Si Si7 0.806043 0.919625 0.901331
O O1 0.303054 0.500000 0.107344
O O2 0.371674 0.371674 0.110041
O O3 0.300662 0.417925 0.237172
O O4 0.230464 0.373219 0.111062
O O5 0.196602 0.081670 0.500000
O O6 0.138289 0.138289 0.630189
O O7 0.280242 0.116968 0.621748
O O8 0.195539 0.000000 0.629329
O O9 0.235470 0.368665 0.632661
O O10 0.155263 0.340396 0.757234
O O11 0.111855 0.426240 0.637037
O O12 0.500000 0.297324 0.366236
O O13 0.377117 0.377117 0.362558
O O14 0.251778 0.251778 0.180281
O O15 0.127158 0.265649 0.112203
O O16 0.500000 0.113494 0.500000
O O17 0.500000 0.000000 0.593165
O O18 0.872669 0.872669 0.866648
O O19 0.801449 0.000000 0.866085
O O20 0.816622 0.925164 0.000000
#
# Coordination Sequence:
#
# PCOD9562178 Si02
#       7
#    16  16  16  16  16   8  16
#     4   8  14  24  41  66  97 128 160 203 249 293
#     4  10  21  36  54  75  99 129 165 208 260 318
#     4  11  19  34  53  76 102 136 173 217 264 316
#     4   9  16  27  44  70  99 128 164 206 253 301
#     4   9  18  31  51  76 103 137 174 214 255 305
#     4  11  24  38  52  74 104 134 170 222 278 329
#     4   9  18  33  53  78 108 141 178 220 266 317
#
# _framework density 18.856680999999998
#
# number of rings (size 3 to 8) (size 9 to 14) (size 15 to 20)
#    0.000    2.538    0.769    3.231    1.077    3.077 
#    0.000    3.077    0.000    0.462    0.000    3.231 
#    0.000    0.615    0.000    6.000    0.000    4.769 
#
# Total GULP energy -579786.349181 kJ/mol
# GULP energy per Si atom -5574.868742 kJ/mol
# Density = 1.881376 g / cm^3
# Si number density = 18.856681 Si / 1000 Ang^3
#
#
#
# Elastic Constant Matrix: (Units=GPa)
#
#
# Indices 1 2 3 4 5 6 
#
# 1 159.6952 91.1873 15.0712 0.0000 0.0000 0.0000
# 2 91.1873 159.6952 15.0712 0.0000 0.0000 0.0000
# 3 15.0712 15.0712 22.2470 0.0000 0.0000 0.0000
# 4 0.0000 0.0000 0.0000 14.9134 0.0000 0.0000
# 5 0.0000 0.0000 0.0000 0.0000 14.9134 0.0000
# 6 0.0000 0.0000 0.0000 0.0000 0.0000 20.1993
#
#
#
# Elastic Compliance Matrix: (Units=1/GPa)
#
#
# Indices 1 2 3 4 5 6 
#
# 1 0.009468 -0.005129 -0.002940 0.000000 0.000000 0.000000
# 2 -0.005129 0.009468 -0.002940 0.000000 0.000000 0.000000
# 3 -0.002940 -0.002940 0.048933 0.000000 0.000000 0.000000
# 4 0.000000 0.000000 0.000000 0.067054 0.000000 0.000000
# 5 0.000000 0.000000 0.000000 0.000000 0.067054 0.000000
# 6 0.000000 0.000000 0.000000 0.000000 0.000000 0.049507
#
#
# Mechanical properties :
#
#
# Convention : Reuss Voigt Hill
#
# Bulk Modulus (GPa) = 21.80891 64.92189 43.36540
# Shear Modulus (GPa) = 17.31406 24.69240 21.00323
#
# Velocity S-wave (km/s) = 3.03346 3.62260 3.34104
# Velocity P-wave (km/s) = 4.88466 7.21120 6.15879
#
# Compressibility (1/GPa) = 0.04585283
#
# Stress axis : x y z
#
# Youngs Moduli (GPa) = 105.61907 105.61907 20.43621
#
# Poissons Ratio (x) = 0.54171 0.06007
# Poissons Ratio (y) = 0.54171 0.06007
# Poissons Ratio (z) = 0.31047 0.31047
#
# Static dielectric constant tensor:
#      x y z
#    x 1.656570 0.000000 0.000000 
#    y 0.000000 1.656570 0.000000 
#    z 0.000000 0.000000 1.676900 
# 
# From -- ./inp_files/5651.got.cif
#   From: 2010.05.17/outbox.cif.g08.bks.cpg/sg123_3_cif.got.tgz:5651.got - 2010.05.20 11:43:04.
