data_PCOD9562745
_publ_section_title
;
Structure prediction by ZEFSAII (Michael W. Deem and Ramdas Pophale) SiO2 
 PCOD9562745
Probable space group: P 4/M C C
;
_chemical_formula_sum "Si O2"
_cell_formula_units_Z 84
_cell_length_a 11.774655
_cell_length_b 11.774655
_cell_length_c 33.489035
_cell_angle_alpha 90.000000
_cell_angle_beta 90.000000
_cell_angle_gamma 90.000000
_cell_volume 4643.003547
_symmetry_space_group_name_H-M "P 4/M C C"
_symmetry_group_IT_number 124
_symmetry_cell_setting 'tetragonal'
loop_
_space_group_symop_operation_xyz
x,y,z
-y,x,z
-x,-y,z
y,-x,z
x,-y,1/2-z
-x,y,1/2-z
y,x,1/2-z
-y,-x,1/2-z
-x,-y,-z
y,-x,-z
x,y,-z
-y,x,-z
-x,y,1/2+z
x,-y,1/2+z
-y,-x,1/2+z
y,x,1/2+z
loop_
_atom_site_type_symbol
_atom_site_label
_atom_site_fract_x
_atom_site_fract_y
_atom_site_fract_z
Si Si1 0.238999 0.514780 0.585098
Si Si2 0.294026 0.084369 0.916613
Si Si3 0.128395 0.143143 0.794616
Si Si4 0.444264 0.314342 0.500000
Si Si5 0.977680 0.808856 0.500000
Si Si6 0.850296 0.729802 0.874239
Si Si7 0.500000 0.500000 0.096128
O O1 0.147083 0.414670 0.584539
O O2 0.245726 0.569270 0.540644
O O3 0.206057 0.609240 0.617055
O O4 0.364369 0.466133 0.593535
O O5 0.265814 0.036730 0.960345
O O6 0.200864 0.177718 0.904567
O O7 0.284823 0.982426 0.884965
O O8 0.171108 0.171108 0.750000
O O9 0.173377 0.220081 0.830388
O O10 0.991353 0.152978 0.798061
O O11 0.573567 0.364975 0.500000
O O12 0.095523 0.878228 0.500000
#
# Coordination Sequence:
#
# PCOD9562745 Si02
#       7
#    16  16  16   8   8  16   4
#     4  12  24  39  60  88 120 168 219 272 316 370
#     4  12  24  39  58  89 127 168 212 261 318 381
#     4   9  18  35  64  98 125 153 195 247 309 384
#     4  11  17  35  60  79 107 154 225 283 317 345
#     4  11  23  39  58  83 124 173 220 259 325 395
#     4  12  23  38  62  90 128 160 200 258 322 387
#     4  12  20  41  60  84 109 168 218 256 313 352
#
# _framework density 18.091736999999998
#
# number of rings (size 3 to 8) (size 9 to 14) (size 15 to 20)
#    0.000    0.762    7.619    1.714    0.000    1.905 
#    0.000    1.905    0.000    1.143    0.000    0.667 
#    0.000    0.000    0.000    0.000    0.000    0.000 
#
# Total GULP energy -468168.799939 kJ/mol
# GULP energy per Si atom -5573.438095 kJ/mol
# Density = 1.805056 g / cm^3
# Si number density = 18.091737 Si / 1000 Ang^3
#
#
#
# Elastic Constant Matrix: (Units=GPa)
#
#
# Indices 1 2 3 4 5 6 
#
# 1 73.5088 16.0003 34.8664 0.0000 0.0000 0.0000
# 2 16.0003 73.5088 34.8664 0.0000 0.0000 0.0000
# 3 34.8664 34.8664 128.4430 0.0000 0.0000 0.0000
# 4 0.0000 0.0000 0.0000 20.8921 0.0000 0.0000
# 5 0.0000 0.0000 0.0000 0.0000 20.8921 0.0000
# 6 0.0000 0.0000 0.0000 0.0000 0.0000 33.7942
#
#
#
# Elastic Compliance Matrix: (Units=1/GPa)
#
#
# Indices 1 2 3 4 5 6 
#
# 1 0.015779 -0.001610 -0.003846 0.000000 0.000000 0.000000
# 2 -0.001610 0.015779 -0.003846 0.000000 0.000000 0.000000
# 3 -0.003846 -0.003846 0.009874 0.000000 0.000000 0.000000
# 4 0.000000 0.000000 0.000000 0.047865 0.000000 0.000000
# 5 0.000000 0.000000 0.000000 0.000000 0.047865 0.000000
# 6 0.000000 0.000000 0.000000 0.000000 0.000000 0.029591
#
#
# Mechanical properties :
#
#
# Convention : Reuss Voigt Hill
#
# Bulk Modulus (GPa) = 43.80956 49.65855 46.73406
# Shear Modulus (GPa) = 25.91144 27.76417 26.83780
#
# Velocity S-wave (km/s) = 3.78858 3.92169 3.85571
# Velocity P-wave (km/s) = 6.58829 6.92921 6.76090
#
# Compressibility (1/GPa) = 0.02282607
#
# Stress axis : x y z
#
# Youngs Moduli (GPa) = 63.37720 63.37720 101.28005
#
# Poissons Ratio (x) = 0.10205 0.38953
# Poissons Ratio (y) = 0.10205 0.38953
# Poissons Ratio (z) = 0.24375 0.24375
#
# Static dielectric constant tensor:
#      x y z
#    x 1.633590 0.000000 0.000000 
#    y 0.000000 1.633590 0.000000 
#    z 0.000000 0.000000 1.632530 
# 
# From -- ./inp_files/7129.got.cif
#   From: 2010.05.17/outbox.cif.g08.bks.cpg/sg124_4_cif.got.tgz:7129.got - 2010.05.20 11:49:17.
