data_PCOD9562293
_publ_section_title
;
Structure prediction by ZEFSAII (Michael W. Deem and Ramdas Pophale) SiO2 
 PCOD9562293
Probable space group: P 4/M M M
;
_chemical_formula_sum "Si O2"
_cell_formula_units_Z 120
_cell_length_a 21.000000
_cell_length_b 21.000000
_cell_length_c 15.000000
_cell_angle_alpha 90.000000
_cell_angle_beta 90.000000
_cell_angle_gamma 90.000000
_cell_volume 6615.000000
_symmetry_space_group_name_H-M "P 4/M M M"
_symmetry_group_IT_number 123
_symmetry_cell_setting 'tetragonal'
loop_
_space_group_symop_operation_xyz
x,y,z
-y,x,z
-x,-y,z
y,-x,z
x,-y,-z
-x,y,-z
y,x,-z
-y,-x,-z
-x,-y,-z
y,-x,-z
x,y,-z
-y,x,-z
-x,y,z
x,-y,z
-y,-x,z
y,x,z
loop_
_atom_site_type_symbol
_atom_site_label
_atom_site_fract_x
_atom_site_fract_y
_atom_site_fract_z
Si Si1 0.820173 0.075349 0.602008
Si Si2 0.907590 0.425465 0.599769
Si Si3 0.358725 0.777693 0.600236
Si Si4 0.318633 0.425201 0.904907
Si Si5 0.738432 0.840434 0.736559
Si Si6 0.323979 0.425218 0.711635
Si Si7 0.370688 0.927270 0.207469
Si Si8 0.077350 0.500000 0.103866
O O1 0.796040 0.085339 0.500000
O O2 0.887264 0.112737 0.607508
O O3 0.774705 0.108105 0.674353
O O4 0.826150 0.000000 0.616280
O O5 0.928543 0.404465 0.500000
O O6 0.922637 0.500000 0.608808
O O7 0.832107 0.412948 0.601515
O O8 0.930780 0.388396 0.686911
O O9 0.333879 0.773581 0.500000
O O10 0.305030 0.799718 0.668879
O O11 0.390633 0.714061 0.634569
O O12 0.335495 0.500000 0.902697
O O13 0.380464 0.380464 0.908160
O O14 0.289074 0.412205 0.807662
O O15 0.283719 0.414256 0.000000
O O16 0.791800 0.791800 0.775230
O O17 0.689105 0.879179 0.799170
O O18 0.326909 0.500000 0.697817
O O19 0.392912 0.392912 0.718167
O O20 0.434852 0.904397 0.155914
O O21 0.356125 0.000000 0.178188
O O22 0.000000 0.500000 0.104948
O O23 0.097982 0.500000 0.000000
#
# Coordination Sequence:
#
# PCOD9562293 Si02
#       8
#    16  16  16  16  16  16  16   8
#     4   9  17  29  46  71 106 148 192 233 269 307
#     4   9  17  29  46  71 102 133 162 200 255 313
#     4  10  20  33  49  66  87 120 165 208 248 298
#     4   8  14  25  41  61  83 104 128 164 216 281
#     4  10  20  33  50  72 100 136 178 223 268 311
#     4  10  20  32  47  66  84 109 144 188 245 309
#     4  10  19  32  52  79 109 141 176 216 264 318
#     4   9  18  34  57  83 109 139 176 215 258 317
#
# _framework density 18.14059
#
# number of rings (size 3 to 8) (size 9 to 14) (size 15 to 20)
#    0.000    2.600    0.667    1.600    0.000    3.600 
#    0.000    3.333    0.000    3.600    0.000    0.933 
#    0.000    0.000    0.000    0.000    0.000    0.000 
#
# Total GULP energy -668354.676380 kJ/mol
# GULP energy per Si atom -5569.622303 kJ/mol
# Density = 1.809930 g / cm^3
# Si number density = 18.140590 Si / 1000 Ang^3
#
#
#
# Elastic Constant Matrix: (Units=GPa)
#
#
# Indices 1 2 3 4 5 6 
#
# 1 75.5713 43.1861 17.9375 0.0000 0.0000 0.0000
# 2 43.1861 75.5713 17.9375 0.0000 0.0000 0.0000
# 3 17.9375 17.9375 39.8429 0.0000 0.0000 0.0000
# 4 0.0000 0.0000 0.0000 11.5413 0.0000 0.0000
# 5 0.0000 0.0000 0.0000 0.0000 11.5413 0.0000
# 6 0.0000 0.0000 0.0000 0.0000 0.0000 18.8914
#
#
#
# Elastic Compliance Matrix: (Units=1/GPa)
#
#
# Indices 1 2 3 4 5 6 
#
# 1 0.020312 -0.010566 -0.004388 0.000000 0.000000 0.000000
# 2 -0.010566 0.020312 -0.004388 0.000000 0.000000 0.000000
# 3 -0.004388 -0.004388 0.029049 0.000000 0.000000 0.000000
# 4 0.000000 0.000000 0.000000 0.086646 0.000000 0.000000
# 5 0.000000 0.000000 0.000000 0.000000 0.086646 0.000000
# 6 0.000000 0.000000 0.000000 0.000000 0.000000 0.052934
#
#
# Mechanical properties :
#
#
# Convention : Reuss Voigt Hill
#
# Bulk Modulus (GPa) = 32.26795 38.78975 35.52885
# Shear Modulus (GPa) = 14.49643 15.85641 15.17642
#
# Velocity S-wave (km/s) = 2.82993 2.95970 2.89554
# Velocity P-wave (km/s) = 5.33894 5.75404 5.55038
#
# Compressibility (1/GPa) = 0.03099050
#
# Stress axis : x y z
#
# Youngs Moduli (GPa) = 49.23158 49.23158 34.42419
#
# Poissons Ratio (x) = 0.52019 0.15104
# Poissons Ratio (y) = 0.52019 0.15104
# Poissons Ratio (z) = 0.21601 0.21601
#
# Static dielectric constant tensor:
#      x y z
#    x 1.637340 0.000000 0.000000 
#    y 0.000000 1.637340 0.000000 
#    z 0.000000 0.000000 1.655980 
# 
# From -- ./inp_files/4567.got.cif
#   From: 2010.05.17/outbox.ucp.g08.bks.cvg/sg123_3_cif.got.tgz:4567.got - 2010.06.11 11:35:48.
