data_PCOD9562119
_publ_section_title
;
Structure prediction by ZEFSAII (Michael W. Deem and Ramdas Pophale) SiO2 
 PCOD9562119
Probable space group: P 4/M M M
;
_chemical_formula_sum "Si O2"
_cell_formula_units_Z 58
_cell_length_a 14.989657
_cell_length_b 14.989657
_cell_length_c 15.370443
_cell_angle_alpha 90.000000
_cell_angle_beta 90.000000
_cell_angle_gamma 90.000000
_cell_volume 3453.582025
_symmetry_space_group_name_H-M "P 4/M M M"
_symmetry_group_IT_number 123
_symmetry_cell_setting 'tetragonal'
loop_
_space_group_symop_operation_xyz
x,y,z
-y,x,z
-x,-y,z
y,-x,z
x,-y,-z
-x,y,-z
y,x,-z
-y,-x,-z
-x,-y,-z
y,-x,-z
x,y,-z
-y,x,-z
-x,y,z
x,-y,z
-y,-x,z
y,x,z
loop_
_atom_site_type_symbol
_atom_site_label
_atom_site_fract_x
_atom_site_fract_y
_atom_site_fract_z
Si Si1 0.750815 0.600312 0.500000
Si Si2 0.000000 0.000000 0.624390
Si Si3 0.171563 0.320679 0.329352
Si Si4 0.214998 0.000000 0.395720
Si Si5 0.892672 0.257624 0.000000
Si Si6 0.107110 0.399375 0.848375
O O1 0.717691 0.500000 0.500000
O O2 0.670749 0.670749 0.500000
O O3 0.807685 0.619651 0.413573
O O4 0.109744 0.000000 0.620212
O O5 0.255134 0.255134 0.314898
O O6 0.086574 0.260116 0.353547
O O7 0.151391 0.376895 0.243537
O O8 0.229320 0.000000 0.500000
O O9 0.872900 0.321151 0.917197
O O10 0.829906 0.170095 0.000000
O O11 0.000000 0.237060 0.000000
O O12 0.131157 0.500000 0.877964
O O13 0.000000 0.398336 0.837228
#
# Coordination Sequence:
#
# PCOD9562119 Si02
#       6
#     8   2  16   8   8  16
#     4  10  22  38  55  77 103 137 175 227 284 344
#     4  12  25  32  56  72 116 165 218 241 264 308
#     4  11  21  34  53  76 113 143 185 230 272 323
#     4  12  21  34  48  77 108 159 202 235 267 309
#     4  10  21  38  59  81 112 144 181 223 270 329
#     4  10  20  35  56  80 105 140 182 228 274 323
#
# _framework density 16.794156000000001
#
# number of rings (size 3 to 8) (size 9 to 14) (size 15 to 20)
#    0.000    1.379    4.138    2.690    0.000    1.931 
#    0.000    0.690    0.000    0.000    0.000    0.000 
#    0.000   20.966    0.000    0.000    0.000    0.000 
#
# Total GULP energy -323176.493776 kJ/mol
# GULP energy per Si atom -5572.008513 kJ/mol
# Density = 1.675593 g / cm^3
# Si number density = 16.794156 Si / 1000 Ang^3
#
#
#
# Elastic Constant Matrix: (Units=GPa)
#
#
# Indices 1 2 3 4 5 6 
#
# 1 82.2784 32.4377 42.2805 0.0000 0.0000 0.0000
# 2 32.4377 82.2806 42.2811 0.0000 0.0000 0.0000
# 3 42.2805 42.2811 107.1563 0.0000 0.0000 0.0000
# 4 0.0000 0.0000 0.0000 -6.6278 0.0000 0.0000
# 5 0.0000 0.0000 0.0000 0.0000 -6.6278 0.0000
# 6 0.0000 0.0000 0.0000 0.0000 0.0000 4.9144
#
#
#
# Elastic Compliance Matrix: (Units=1/GPa)
#
#
# Indices 1 2 3 4 5 6 
#
# 1 0.016178 -0.003886 -0.004850 0.000000 0.000000 0.000000
# 2 -0.003886 0.016178 -0.004850 0.000000 0.000000 0.000000
# 3 -0.004850 -0.004850 0.013160 0.000000 0.000000 0.000000
# 4 0.000000 0.000000 0.000000 -0.150879 0.000000 0.000000
# 5 0.000000 0.000000 0.000000 0.000000 -0.150879 0.000000
# 6 0.000000 0.000000 0.000000 0.000000 0.000000 0.203482
#
#
# Mechanical properties :
#
#
# Convention : Reuss Voigt Hill
#
# Bulk Modulus (GPa) = 54.51520 56.19045 55.35283
# Shear Modulus (GPa) = -256.74866 8.64616 -124.05125
#
# Velocity S-wave (km/s) = -12.37787 2.27145 -8.60384
# Velocity P-wave (km/s) = 13.10538 6.35691 8.10372
#
# Compressibility (1/GPa) = 0.01834351
#
# Stress axis : x y z
#
# Youngs Moduli (GPa) = 61.81197 61.81357 75.98985
#
# Poissons Ratio (x) = 0.24018 0.36857
# Poissons Ratio (y) = 0.24017 0.36856
# Poissons Ratio (z) = 0.29980 0.29981
#
# Static dielectric constant tensor:
#      x y z
#    x 1.545670 0.000000 0.000000 
#    y 0.000000 1.545670 0.000000 
#    z 0.000000 0.000000 1.570910 
# 
# From -- ./inp_files/3841.got.cif
#   From: 2010.05.17/outbox.cif.g08.bks.cpg/sg123_2_cif.got.tgz:3841.got - 2010.05.20 11:43:04.
