data_PCOD9562795
_publ_section_title
;
Structure prediction by ZEFSAII (Michael W. Deem and Ramdas Pophale) SiO2 
 PCOD9562795
Probable space group: P 4/M C C
;
_chemical_formula_sum "Si O2"
_cell_formula_units_Z 64
_cell_length_a 12.642997
_cell_length_b 12.642997
_cell_length_c 16.395196
_cell_angle_alpha 90.000000
_cell_angle_beta 90.000000
_cell_angle_gamma 90.000000
_cell_volume 2620.696222
_symmetry_space_group_name_H-M "P 4/M C C"
_symmetry_group_IT_number 124
_symmetry_cell_setting 'tetragonal'
loop_
_space_group_symop_operation_xyz
x,y,z
-y,x,z
-x,-y,z
y,-x,z
x,-y,1/2-z
-x,y,1/2-z
y,x,1/2-z
-y,-x,1/2-z
-x,-y,-z
y,-x,-z
x,y,-z
-y,x,-z
-x,y,1/2+z
x,-y,1/2+z
-y,-x,1/2+z
y,x,1/2+z
loop_
_atom_site_type_symbol
_atom_site_label
_atom_site_fract_x
_atom_site_fract_y
_atom_site_fract_z
Si Si1 0.653292 0.583518 0.902941
Si Si2 0.349325 0.067192 0.907249
Si Si3 0.863526 0.895904 0.847044
Si Si4 0.441166 0.136411 0.664037
O O1 0.541368 0.636792 0.884425
O O2 0.754643 0.617657 0.852127
O O3 0.671383 0.595981 0.000000
O O4 0.250628 0.138527 0.879411
O O5 0.462248 0.125371 0.900152
O O6 0.367007 0.964581 0.849925
O O7 0.333680 0.033205 0.000000
O O8 0.874303 0.874303 0.750000
O O9 0.979696 0.859712 0.873945
O O10 0.500000 0.134004 0.750000
#
# Coordination Sequence:
#
# PCOD9562795 Si02
#       4
#    16  16  16  16
#     4   9  19  39  64  88 122 166 210 261 320 379
#     4  11  23  41  65  91 127 169 216 270 323 383
#     4   9  21  40  65  91 123 166 207 266 329 392
#     4  11  24  39  62  93 131 169 218 268 324 385
#
# _framework density 24.42099
#
# number of rings (size 3 to 8) (size 9 to 14) (size 15 to 20)
#    0.000    2.000    0.000    6.000    7.000    4.000 
#    0.000    2.500    0.000    0.000    0.000    0.000 
#    0.000    0.000    0.000    0.000    0.000    0.000 
#
# Total GULP energy -357580.529724 kJ/mol
# GULP energy per Si atom -5587.195777 kJ/mol
# Density = 2.436541 g / cm^3
# Si number density = 24.420990 Si / 1000 Ang^3
#
#
#
# Elastic Constant Matrix: (Units=GPa)
#
#
# Indices 1 2 3 4 5 6 
#
# 1 129.2433 -8.7810 21.2521 0.0000 0.0000 0.0000
# 2 -8.7810 129.2433 21.2521 0.0000 0.0000 0.0000
# 3 21.2521 21.2521 85.6465 0.0000 0.0000 0.0000
# 4 0.0000 0.0000 0.0000 16.3326 0.0000 0.0000
# 5 0.0000 0.0000 0.0000 0.0000 16.3326 0.0000
# 6 0.0000 0.0000 0.0000 0.0000 0.0000 -9.8279
#
#
#
# Elastic Compliance Matrix: (Units=1/GPa)
#
#
# Indices 1 2 3 4 5 6 
#
# 1 0.008172 0.000926 -0.002258 0.000000 0.000000 0.000000
# 2 0.000926 0.008172 -0.002258 0.000000 0.000000 0.000000
# 3 -0.002258 -0.002258 0.012796 0.000000 0.000000 0.000000
# 4 0.000000 0.000000 0.000000 0.061227 0.000000 0.000000
# 5 0.000000 0.000000 0.000000 0.000000 0.061227 0.000000
# 6 0.000000 0.000000 0.000000 0.000000 0.000000 -0.101751
#
#
# Mechanical properties :
#
#
# Convention : Reuss Voigt Hill
#
# Bulk Modulus (GPa) = 45.53331 45.73106 45.63218
# Shear Modulus (GPa) = 77.71125 25.26146 51.48636
#
# Velocity S-wave (km/s) = 5.64717 3.21972 4.59659
# Velocity P-wave (km/s) = 7.82345 5.70867 6.84819
#
# Compressibility (1/GPa) = 0.02196194
#
# Stress axis : x y z
#
# Youngs Moduli (GPa) = 122.37653 122.37653 78.14786
#
# Poissons Ratio (x) = -0.11337 0.17642
# Poissons Ratio (y) = -0.11337 0.17642
# Poissons Ratio (z) = 0.27627 0.27627
#
# Static dielectric constant tensor:
#      x y z
#    x 1.962580 0.000000 0.000000 
#    y 0.000000 1.962580 0.000000 
#    z 0.000000 0.000000 1.875680 
# 
# From -- ./inp_files/2999.got.cif
#   From: 2010.05.17/outbox.cif.g08.bks.cpg/sg124_2_cif.got.tgz:2999.got - 2010.05.20 11:49:17.
