data_PCOD9562297
_publ_section_title
;
Structure prediction by ZEFSAII (Michael W. Deem and Ramdas Pophale) SiO2 
 PCOD9562297
Probable space group: P 4/M M M
;
_chemical_formula_sum "Si O2"
_cell_formula_units_Z 72
_cell_length_a 21.000000
_cell_length_b 21.000000
_cell_length_c 9.000000
_cell_angle_alpha 90.000000
_cell_angle_beta 90.000000
_cell_angle_gamma 90.000000
_cell_volume 3969.000000
_symmetry_space_group_name_H-M "P 4/M M M"
_symmetry_group_IT_number 123
_symmetry_cell_setting 'tetragonal'
loop_
_space_group_symop_operation_xyz
x,y,z
-y,x,z
-x,-y,z
y,-x,z
x,-y,-z
-x,y,-z
y,x,-z
-y,-x,-z
-x,-y,-z
y,-x,-z
x,y,-z
-y,x,-z
-x,y,z
x,-y,z
-y,-x,z
y,x,z
loop_
_atom_site_type_symbol
_atom_site_label
_atom_site_fract_x
_atom_site_fract_y
_atom_site_fract_z
Si Si1 0.322290 0.098083 0.323854
Si Si2 0.000000 0.767466 0.827350
Si Si3 0.106531 0.000000 0.665224
Si Si4 0.229339 0.662743 0.829759
Si Si5 0.571433 0.000000 0.319690
Si Si6 0.678201 0.426686 0.326123
O O1 0.316207 0.091694 0.500000
O O2 0.264854 0.061108 0.247159
O O3 0.324533 0.170139 0.274573
O O4 0.386828 0.061245 0.277200
O O5 0.000000 0.841305 0.790640
O O6 0.000000 0.754078 0.000000
O O7 0.060900 0.939101 0.674635
O O8 0.136919 0.000000 0.500000
O O9 0.280180 0.719821 0.817901
O O10 0.266132 0.600222 0.775889
O O11 0.208494 0.657712 0.000000
O O12 0.500000 0.000000 0.261280
O O13 0.568135 0.000000 0.500000
O O14 0.696276 0.418621 0.500000
O O15 0.665012 0.500000 0.299003
O O16 0.616271 0.383730 0.300251
#
# Coordination Sequence:
#
# PCOD9562297 Si02
#       6
#    16   8   8  16   8  16
#     4  10  20  35  56  79 104 137 176 217 261 310
#     4  11  22  36  55  79 110 143 175 215 261 310
#     4   9  19  37  59  81 106 137 174 216 261 311
#     4  10  21  36  53  75 105 139 175 218 268 318
#     4   8  16  32  53  77 102 127 160 204 252 301
#     4   9  18  33  53  77 105 138 177 220 266 317
#
# _framework density 18.14059
#
# number of rings (size 3 to 8) (size 9 to 14) (size 15 to 20)
#    0.000    2.444    0.000    3.333    0.000    4.222 
#    0.000    3.889    0.000   11.333    0.000    3.111 
#    0.000    0.000    0.000    0.000    0.000    0.000 
#
# Total GULP energy -401470.722697 kJ/mol
# GULP energy per Si atom -5575.982260 kJ/mol
# Density = 1.809930 g / cm^3
# Si number density = 18.140590 Si / 1000 Ang^3
#
#
#
# Elastic Constant Matrix: (Units=GPa)
#
#
# Indices 1 2 3 4 5 6 
#
# 1 65.1956 3.4673 37.5047 0.0000 0.0000 0.0000
# 2 3.4673 65.1956 37.5047 0.0000 0.0000 0.0000
# 3 37.5047 37.5047 74.7083 0.0000 0.0000 0.0000
# 4 0.0000 0.0000 0.0000 13.2206 0.0000 0.0000
# 5 0.0000 0.0000 0.0000 0.0000 13.2206 0.0000
# 6 0.0000 0.0000 0.0000 0.0000 0.0000 -3.4627
#
#
#
# Elastic Compliance Matrix: (Units=1/GPa)
#
#
# Indices 1 2 3 4 5 6 
#
# 1 0.024225 0.008025 -0.016190 0.000000 0.000000 0.000000
# 2 0.008025 0.024225 -0.016190 0.000000 0.000000 0.000000
# 3 -0.016190 -0.016190 0.029641 0.000000 0.000000 0.000000
# 4 0.000000 0.000000 0.000000 0.075640 0.000000 0.000000
# 5 0.000000 0.000000 0.000000 0.000000 0.075640 0.000000
# 6 0.000000 0.000000 0.000000 0.000000 0.000000 -0.288792
#
#
# Mechanical properties :
#
#
# Convention : Reuss Voigt Hill
#
# Bulk Modulus (GPa) = 34.03557 40.22810 37.13184
# Shear Modulus (GPa) = -5458.19143 13.03721 -2722.57711
#
# Velocity S-wave (km/s) = -54.91229 2.68372 -38.78245
# Velocity P-wave (km/s) = 63.25881 5.64155 44.55250
#
# Compressibility (1/GPa) = 0.02938102
#
# Stress axis : x y z
#
# Youngs Moduli (GPa) = 41.27904 41.27904 33.73703
#
# Poissons Ratio (x) = -0.33128 0.54621
# Poissons Ratio (y) = -0.33128 0.54621
# Poissons Ratio (z) = 0.66832 0.66832
#
# Static dielectric constant tensor:
#      x y z
#    x 1.612380 0.000000 0.000000 
#    y 0.000000 1.612380 0.000000 
#    z 0.000000 0.000000 1.628720 
# 
# From -- ./inp_files/1197.got.cif
#   From: 2010.05.17/outbox.ucp.g08.bks.cvg/sg123_1_cif.got.tgz:1197.got - 2010.06.11 11:35:48.
