data_PCOD9562903
_publ_section_title
;
Structure prediction by ZEFSAII (Michael W. Deem and Ramdas Pophale) SiO2 
 PCOD9562903
Probable space group: P 4/N B M
;
_chemical_formula_sum "Si O2"
_cell_formula_units_Z 112
_cell_length_a 31.012550
_cell_length_b 31.012550
_cell_length_c 5.853340
_cell_angle_alpha 90.000000
_cell_angle_beta 90.000000
_cell_angle_gamma 90.000000
_cell_volume 5629.615146
_symmetry_space_group_name_H-M "P 4/N B M"
_symmetry_group_IT_number 125
_space_group.IT_coordinate_system_code '2'
_symmetry_cell_setting 'tetragonal'
loop_
_space_group_symop_operation_xyz
x,y,z
1/2-y,x,z
1/2-x,1/2-y,z
y,1/2-x,z
x,1/2-y,-z
1/2-x,y,-z
y,x,-z
1/2-y,1/2-x,-z
-x,-y,-z
1/2+y,-x,-z
1/2+x,1/2+y,-z
-y,1/2+x,-z
-x,1/2+y,z
1/2+x,-y,z
-y,-x,z
1/2+y,1/2+x,z
loop_
_atom_site_type_symbol
_atom_site_label
_atom_site_fract_x
_atom_site_fract_y
_atom_site_fract_z
Si Si1 0.375028 0.442154 0.239899
Si Si2 0.521859 0.091505 0.014493
Si Si3 0.916157 0.347161 0.318614
Si Si4 0.152845 0.774723 0.248235
Si Si5 0.057281 0.295751 0.889007
Si Si6 0.156888 0.364202 0.254667
Si Si7 0.994399 0.343521 0.622957
O O1 0.385142 0.391652 0.257972
O O2 0.358414 0.466374 0.463029
O O3 0.409753 0.475387 0.137462
O O4 0.333790 0.443008 0.074267
O O5 0.546664 0.046664 0.004759
O O6 0.514992 0.114467 0.774074
O O7 0.553616 0.125465 0.145316
O O8 0.881859 0.381859 0.415596
O O9 0.887690 0.307777 0.228301
O O10 0.950653 0.331175 0.499952
O O11 0.149376 0.750000 0.500000
O O12 0.195791 0.804210 0.263841
O O13 0.154562 0.750000 0.000000
O O14 0.099316 0.306789 0.741793
O O15 0.012955 0.302971 0.757979
O O16 0.060824 0.250000 0.000000
O O17 0.159882 0.340119 0.500000
O O18 0.158320 0.341681 0.000000
#
# Coordination Sequence:
#
# PCOD9562903 Si02
#       7
#    16  16  16  16  16  16  16
#     4   9  19  35  56  83 116 164 206 252 310 368
#     4   9  18  33  56  82 114 158 210 259 308 367
#     4   9  20  37  55  79 112 154 198 249 312 384
#     4  11  25  44  65  87 112 146 196 255 316 384
#     4  10  21  36  55  87 124 160 206 258 303 362
#     4  10  19  37  62  85 115 169 210 245 302 364
#     4  10  18  34  54  81 117 159 202 247 312 370
#
# _framework density 19.894786
#
# number of rings (size 3 to 8) (size 9 to 14) (size 15 to 20)
#    0.000    2.286    1.429    0.857    2.000    2.000 
#    7.714    0.000    0.000   12.000    0.000    0.000 
#    0.000   23.143    0.000   46.286    0.000    1.714 
#
# Total GULP energy -623576.225631 kJ/mol
# GULP energy per Si atom -5567.644872 kJ/mol
# Density = 1.984951 g / cm^3
# Si number density = 19.894786 Si / 1000 Ang^3
#
#
#
# Elastic Constant Matrix: (Units=GPa)
#
#
# Indices 1 2 3 4 5 6 
#
# 1 65.0001 30.0296 24.5297 0.0000 0.0000 0.0000
# 2 30.0296 65.0008 24.5301 0.0000 0.0000 0.0000
# 3 24.5297 24.5301 96.1300 0.0000 0.0000 0.0000
# 4 0.0000 0.0000 0.0000 15.0309 0.0000 0.0000
# 5 0.0000 0.0000 0.0000 0.0000 15.0304 0.0000
# 6 0.0000 0.0000 0.0000 0.0000 0.0000 14.0566
#
#
#
# Elastic Compliance Matrix: (Units=1/GPa)
#
#
# Indices 1 2 3 4 5 6 
#
# 1 0.020357 -0.008238 -0.003093 0.000000 0.000000 0.000000
# 2 -0.008238 0.020357 -0.003093 0.000000 0.000000 0.000000
# 3 -0.003093 -0.003093 0.011981 0.000000 0.000000 0.000000
# 4 0.000000 0.000000 0.000000 0.066530 0.000000 0.000000
# 5 0.000000 0.000000 0.000000 0.000000 0.066532 0.000000
# 6 0.000000 0.000000 0.000000 0.000000 0.000000 0.071141
#
#
# Mechanical properties :
#
#
# Convention : Reuss Voigt Hill
#
# Bulk Modulus (GPa) = 41.92942 42.70108 42.31525
# Shear Modulus (GPa) = 17.02452 18.62635 17.82543
#
# Velocity S-wave (km/s) = 2.92846 3.06313 2.99655
# Velocity P-wave (km/s) = 5.70577 5.83270 5.76958
#
# Compressibility (1/GPa) = 0.02384960
#
# Stress axis : x y z
#
# Youngs Moduli (GPa) = 49.12201 49.12243 83.46632
#
# Poissons Ratio (x) = 0.40466 0.25812
# Poissons Ratio (y) = 0.40466 0.25813
# Poissons Ratio (z) = 0.15191 0.15192
#
# Static dielectric constant tensor:
#      x y z
#    x 1.654010 0.000000 0.000000 
#    y 0.000000 1.654000 0.000000 
#    z 0.000000 0.000000 1.901570 
# 
# From -- ./inp_files/1371.got.cif
#   From: 2010.05.17/outbox.cif.g08.bks.cpg/sg125_1_cif.got.tgz:1371.got - 2010.05.20 11:54:10.
