data_PCOD9562853
_publ_section_title
;
Structure prediction by ZEFSAII (Michael W. Deem and Ramdas Pophale) SiO2 
 PCOD9562853
Probable space group: P 4/M C C
;
_chemical_formula_sum "Si O2"
_cell_formula_units_Z 96
_cell_length_a 26.071948
_cell_length_b 26.071948
_cell_length_c 9.793520
_cell_angle_alpha 90.000000
_cell_angle_beta 90.000000
_cell_angle_gamma 90.000000
_cell_volume 6657.110674
_symmetry_space_group_name_H-M "P 4/M C C"
_symmetry_group_IT_number 124
_symmetry_cell_setting 'tetragonal'
loop_
_space_group_symop_operation_xyz
x,y,z
-y,x,z
-x,-y,z
y,-x,z
x,-y,1/2-z
-x,y,1/2-z
y,x,1/2-z
-y,-x,1/2-z
-x,-y,-z
y,-x,-z
x,y,-z
-y,x,-z
-x,y,1/2+z
x,-y,1/2+z
-y,-x,1/2+z
y,x,1/2+z
loop_
_atom_site_type_symbol
_atom_site_label
_atom_site_fract_x
_atom_site_fract_y
_atom_site_fract_z
Si Si1 0.252488 0.453383 0.843294
Si Si2 0.429717 0.953780 0.347453
Si Si3 0.132097 0.562843 0.351676
Si Si4 0.305113 0.049241 0.841845
Si Si5 0.143710 0.686142 0.655134
Si Si6 0.260996 0.333920 0.835184
O O1 0.271567 0.500000 0.750000
O O2 0.190392 0.455211 0.843551
O O3 0.264308 0.394697 0.800466
O O4 0.269526 0.459915 0.000000
O O5 0.447555 0.961270 0.500000
O O6 0.448535 0.901365 0.280241
O O7 0.367401 0.952592 0.349204
O O8 0.444133 0.000000 0.250000
O O9 0.110280 0.547276 0.500000
O O10 0.133673 0.624979 0.353998
O O11 0.292281 0.102029 0.761465
O O12 0.289473 0.000000 0.750000
O O13 0.287108 0.047492 0.000000
O O14 0.136969 0.706484 0.500000
O O15 0.203713 0.687958 0.694882
O O16 0.301932 0.301932 0.750000
O O17 0.267559 0.330006 0.000000
#
# Coordination Sequence:
#
# PCOD9562853 Si02
#       6
#    16  16  16  16  16  16
#     4   9  18  31  46  64  84 105 129 157 190 230
#     4   9  15  21  31  48  68  91 121 156 194 234
#     4   8  14  25  38  51  70  95 122 154 191 229
#     4   9  15  21  31  49  72  98 129 164 201 240
#     4   8  14  25  38  52  74 102 130 162 199 237
#     4   9  18  31  46  65  88 112 137 166 201 241
#
# _framework density 14.420671
#
# number of rings (size 3 to 8) (size 9 to 14) (size 15 to 20)
#    0.000    3.333    0.000    3.000    0.000    6.000 
#    0.000    3.333    0.000    0.500    0.000    3.500 
#    0.000    0.333    0.000    3.667    0.000    2.667 
#
# Total GULP energy -534413.949581 kJ/mol
# GULP energy per Si atom -5566.811975 kJ/mol
# Density = 1.438785 g / cm^3
# Si number density = 14.420671 Si / 1000 Ang^3
#
#
#
# Elastic Constant Matrix: (Units=GPa)
#
#
# Indices 1 2 3 4 5 6 
#
# 1 53.0026 28.6983 44.5037 0.0000 0.0000 0.0000
# 2 28.6983 53.0026 44.5037 0.0000 0.0000 0.0000
# 3 44.5037 44.5037 108.5750 0.0000 0.0000 0.0000
# 4 0.0000 0.0000 0.0000 13.2141 0.0000 0.0000
# 5 0.0000 0.0000 0.0000 0.0000 13.2141 0.0000
# 6 0.0000 0.0000 0.0000 0.0000 0.0000 -0.5517
#
#
#
# Elastic Compliance Matrix: (Units=1/GPa)
#
#
# Indices 1 2 3 4 5 6 
#
# 1 0.031630 -0.009515 -0.009065 0.000000 0.000000 0.000000
# 2 -0.009515 0.031630 -0.009065 0.000000 0.000000 0.000000
# 3 -0.009065 -0.009065 0.016641 0.000000 0.000000 0.000000
# 4 0.000000 0.000000 0.000000 0.075677 0.000000 0.000000
# 5 0.000000 0.000000 0.000000 0.000000 0.075677 0.000000
# 6 0.000000 0.000000 0.000000 0.000000 0.000000 -1.812424
#
#
# Mechanical properties :
#
#
# Convention : Reuss Voigt Hill
#
# Bulk Modulus (GPa) = 40.62952 49.99908 45.31430
# Shear Modulus (GPa) = -3.29451 11.63360 4.16954
#
# Velocity S-wave (km/s) = -1.51312 2.84338 1.70225
# Velocity P-wave (km/s) = 5.01826 6.74736 5.94600
#
# Compressibility (1/GPa) = 0.02461265
#
# Stress axis : x y z
#
# Youngs Moduli (GPa) = 31.61543 31.61543 60.09122
#
# Poissons Ratio (x) = 0.30082 0.54472
# Poissons Ratio (y) = 0.30082 0.54472
# Poissons Ratio (z) = 0.28659 0.28659
#
# Static dielectric constant tensor:
#      x y z
#    x 1.473450 0.000000 0.000000 
#    y 0.000000 1.473450 0.000000 
#    z 0.000000 0.000000 1.504770 
# 
# From -- ./inp_files/1552.got.cif
#   From: 2010.05.17/outbox.cif.g08.bks.cpg/sg124_1_cif.got.tgz:1552.got - 2010.05.20 11:49:17.
