data_PCOD9562474
_publ_section_title
;
Structure prediction by ZEFSAII (Michael W. Deem and Ramdas Pophale) SiO2 
 PCOD9562474
Probable space group: P 4/M C C
;
_chemical_formula_sum "Si O2"
_cell_formula_units_Z 80
_cell_length_a 15.675840
_cell_length_b 15.675840
_cell_length_c 14.871959
_cell_angle_alpha 90.000000
_cell_angle_beta 90.000000
_cell_angle_gamma 90.000000
_cell_volume 3654.515630
_symmetry_space_group_name_H-M "P 4/M C C"
_symmetry_group_IT_number 124
_symmetry_cell_setting 'tetragonal'
loop_
_space_group_symop_operation_xyz
x,y,z
-y,x,z
-x,-y,z
y,-x,z
x,-y,1/2-z
-x,y,1/2-z
y,x,1/2-z
-y,-x,1/2-z
-x,-y,-z
y,-x,-z
x,y,-z
-y,x,-z
-x,y,1/2+z
x,-y,1/2+z
-y,-x,1/2+z
y,x,1/2+z
loop_
_atom_site_type_symbol
_atom_site_label
_atom_site_fract_x
_atom_site_fract_y
_atom_site_fract_z
Si Si1 0.164337 0.200017 0.398315
Si Si2 0.976490 0.239595 0.353667
Si Si3 0.757426 0.462471 0.389875
Si Si4 0.291624 0.654147 0.890728
Si Si5 0.425336 0.948854 0.845819
O O1 0.196511 0.193420 0.500000
O O2 0.185768 0.109325 0.356611
O O3 0.215331 0.281919 0.359129
O O4 0.063107 0.209718 0.399001
O O5 0.955548 0.333352 0.389368
O O6 0.000000 0.244389 0.250000
O O7 0.767957 0.461274 0.500000
O O8 0.722457 0.555959 0.362928
O O9 0.695859 0.382808 0.366267
O O10 0.849557 0.448419 0.344476
O O11 0.288768 0.651359 0.000000
O O12 0.500000 0.000000 0.894674
O O13 0.418234 0.000000 0.750000
#
# Coordination Sequence:
#
# PCOD9562474 Si02
#       5
#    16  16  16  16  16
#     4  11  22  39  60  87 122 161 204 255 311 370
#     4  11  23  39  60  87 119 160 205 254 308 371
#     4  10  19  35  59  90 127 169 209 260 315 371
#     4   9  19  34  57  89 126 163 209 257 310 367
#     4  10  21  37  59  86 124 157 209 260 309 367
#
# _framework density 21.890726999999998
#
# number of rings (size 3 to 8) (size 9 to 14) (size 15 to 20)
#    0.000    1.800    2.000    2.400    0.000    2.000 
#    0.000    4.000    0.000    0.000    0.000    0.000 
#    0.000    6.400    0.000    0.000    0.000    0.000 
#
# Total GULP energy -446573.819188 kJ/mol
# GULP energy per Si atom -5582.172740 kJ/mol
# Density = 2.184090 g / cm^3
# Si number density = 21.890727 Si / 1000 Ang^3
#
#
#
# Elastic Constant Matrix: (Units=GPa)
#
#
# Indices 1 2 3 4 5 6 
#
# 1 202.2954 116.2645 9.1740 0.0000 0.0000 0.0000
# 2 116.2645 202.2954 9.1740 0.0000 0.0000 0.0000
# 3 9.1740 9.1740 54.8485 0.0000 0.0000 0.0000
# 4 0.0000 0.0000 0.0000 6.1897 0.0000 0.0000
# 5 0.0000 0.0000 0.0000 0.0000 6.1897 0.0000
# 6 0.0000 0.0000 0.0000 0.0000 0.0000 44.5170
#
#
#
# Elastic Compliance Matrix: (Units=1/GPa)
#
#
# Indices 1 2 3 4 5 6 
#
# 1 0.007397 -0.004227 -0.000530 0.000000 0.000000 0.000000
# 2 -0.004227 0.007397 -0.000530 0.000000 0.000000 0.000000
# 3 -0.000530 -0.000530 0.018409 0.000000 0.000000 0.000000
# 4 0.000000 0.000000 0.000000 0.161558 0.000000 0.000000
# 5 0.000000 0.000000 0.000000 0.000000 0.161558 0.000000
# 6 0.000000 0.000000 0.000000 0.000000 0.000000 0.022463
#
#
# Mechanical properties :
#
#
# Convention : Reuss Voigt Hill
#
# Bulk Modulus (GPa) = 44.19291 80.96272 62.57782
# Shear Modulus (GPa) = 12.59767 33.03442 22.81605
#
# Velocity S-wave (km/s) = 2.40152 3.88888 3.23192
# Velocity P-wave (km/s) = 5.28408 7.56503 6.52500
#
# Compressibility (1/GPa) = 0.02262806
#
# Stress axis : x y z
#
# Youngs Moduli (GPa) = 135.19548 135.19548 54.32012
#
# Poissons Ratio (x) = 0.57148 0.02880
# Poissons Ratio (y) = 0.57148 0.02880
# Poissons Ratio (z) = 0.07168 0.07168
#
# Static dielectric constant tensor:
#      x y z
#    x 1.828680 0.000000 0.000000 
#    y 0.000000 1.828680 0.000000 
#    z 0.000000 0.000000 1.923810 
# 
# From -- ./inp_files/5082.got.cif
#   From: 2010.05.17/outbox.cif.g08.bks.cpg/sg124_3_cif.got.tgz:5082.got - 2010.05.20 11:49:17.
