data_PCOD9562154
_publ_section_title
;
Structure prediction by ZEFSAII (Michael W. Deem and Ramdas Pophale) SiO2 
 PCOD9562154
Probable space group: P 4/M M M
;
_chemical_formula_sum "Si O2"
_cell_formula_units_Z 56
_cell_length_a 14.027948
_cell_length_b 14.027948
_cell_length_c 17.575468
_cell_angle_alpha 90.000000
_cell_angle_beta 90.000000
_cell_angle_gamma 90.000000
_cell_volume 3458.559033
_symmetry_space_group_name_H-M "P 4/M M M"
_symmetry_group_IT_number 123
_symmetry_cell_setting 'tetragonal'
loop_
_space_group_symop_operation_xyz
x,y,z
-y,x,z
-x,-y,z
y,-x,z
x,-y,-z
-x,y,-z
y,x,-z
-y,-x,-z
-x,-y,-z
y,-x,-z
x,y,-z
-y,x,-z
-x,y,z
x,-y,z
-y,-x,z
y,x,z
loop_
_atom_site_type_symbol
_atom_site_label
_atom_site_fract_x
_atom_site_fract_y
_atom_site_fract_z
Si Si1 0.232768 0.610277 0.199216
Si Si2 0.110991 0.268957 0.911984
Si Si3 0.768866 0.612058 0.379013
Si Si4 0.272782 0.113573 0.500000
O O1 0.249170 0.500000 0.182696
O O2 0.326520 0.673481 0.184718
O O3 0.150834 0.653465 0.146364
O O4 0.210124 0.619565 0.288988
O O5 0.174333 0.174333 0.901153
O O6 0.000000 0.250235 0.899911
O O7 0.124266 0.299756 0.000000
O O8 0.761187 0.500000 0.398314
O O9 0.670746 0.670746 0.393344
O O10 0.849032 0.665613 0.428041
O O11 0.174005 0.174005 0.500000
O O12 0.260007 0.000000 0.500000
#
# Coordination Sequence:
#
# PCOD9562154 Si02
#       4
#    16  16  16   8
#     4   9  18  32  49  70  97 127 158 192 229 272
#     4   9  18  32  49  69  93 121 154 194 239 284
#     4   9  18  32  50  73  99 126 156 190 230 276
#     4  10  21  36  52  70  94 124 159 198 236 276
#
# _framework density 16.191714000000001
#
# number of rings (size 3 to 8) (size 9 to 14) (size 15 to 20)
#    0.000    2.857    0.000    0.429    0.000    4.429 
#    0.000    8.571    0.000    2.571    0.000   12.000 
#    0.000    0.000    0.000    0.000    0.000    0.000 
#
# Total GULP energy -312027.778647 kJ/mol
# GULP energy per Si atom -5571.924619 kJ/mol
# Density = 1.615486 g / cm^3
# Si number density = 16.191714 Si / 1000 Ang^3
#
#
#
# Elastic Constant Matrix: (Units=GPa)
#
#
# Indices 1 2 3 4 5 6 
#
# 1 126.7685 52.3856 56.6106 0.0000 0.0000 0.0000
# 2 52.3856 126.7685 56.6106 0.0000 0.0000 0.0000
# 3 56.6106 56.6106 61.0232 0.0000 0.0000 0.0000
# 4 0.0000 0.0000 0.0000 25.7279 0.0000 0.0000
# 5 0.0000 0.0000 0.0000 0.0000 25.7279 0.0000
# 6 0.0000 0.0000 0.0000 0.0000 0.0000 4.8594
#
#
#
# Elastic Compliance Matrix: (Units=1/GPa)
#
#
# Indices 1 2 3 4 5 6 
#
# 1 0.013468 0.000024 -0.012516 0.000000 0.000000 0.000000
# 2 0.000024 0.013468 -0.012516 0.000000 0.000000 0.000000
# 3 -0.012516 -0.012516 0.039609 0.000000 0.000000 0.000000
# 4 0.000000 0.000000 0.000000 0.038868 0.000000 0.000000
# 5 0.000000 0.000000 0.000000 0.000000 0.038868 0.000000
# 6 0.000000 0.000000 0.000000 0.000000 0.000000 0.205788
#
#
# Mechanical properties :
#
#
# Convention : Reuss Voigt Hill
#
# Bulk Modulus (GPa) = 60.50230 71.75263 66.12747
# Shear Modulus (GPa) = 12.32754 21.19325 16.76040
#
# Velocity S-wave (km/s) = 2.76225 3.62179 3.22082
# Velocity P-wave (km/s) = 6.90077 7.86768 7.40004
#
# Compressibility (1/GPa) = 0.01652830
#
# Stress axis : x y z
#
# Youngs Moduli (GPa) = 74.25120 74.25120 25.24663
#
# Poissons Ratio (x) = -0.00177 0.31599
# Poissons Ratio (y) = -0.00177 0.31599
# Poissons Ratio (z) = 0.92933 0.92933
#
# Static dielectric constant tensor:
#      x y z
#    x 1.517650 0.000000 0.000000 
#    y 0.000000 1.517650 0.000000 
#    z 0.000000 0.000000 1.557830 
# 
# From -- ./inp_files/3688.got.cif
#   From: 2010.05.17/outbox.cif.g08.bks.cpg/sg123_2_cif.got.tgz:3688.got - 2010.05.20 11:43:04.
