data_PCOD9562315
_publ_section_title
;
Structure prediction by ZEFSAII (Michael W. Deem and Ramdas Pophale) SiO2 
 PCOD9562315
Probable space group: P 4/M C C
;
_chemical_formula_sum "Si O2"
_cell_formula_units_Z 64
_cell_length_a 22.235557
_cell_length_b 22.235557
_cell_length_c 8.637025
_cell_angle_alpha 90.000000
_cell_angle_beta 90.000000
_cell_angle_gamma 90.000000
_cell_volume 4270.317858
_symmetry_space_group_name_H-M "P 4/M C C"
_symmetry_group_IT_number 124
_symmetry_cell_setting 'tetragonal'
loop_
_space_group_symop_operation_xyz
x,y,z
-y,x,z
-x,-y,z
y,-x,z
x,-y,1/2-z
-x,y,1/2-z
y,x,1/2-z
-y,-x,1/2-z
-x,-y,-z
y,-x,-z
x,y,-z
-y,x,-z
-x,y,1/2+z
x,-y,1/2+z
-y,-x,1/2+z
y,x,1/2+z
loop_
_atom_site_type_symbol
_atom_site_label
_atom_site_fract_x
_atom_site_fract_y
_atom_site_fract_z
Si Si1 0.066749 0.837486 0.185229
Si Si2 0.655572 0.752311 0.315021
Si Si3 0.160994 0.257299 0.685450
Si Si4 0.337141 0.566718 0.814518
O O1 0.110332 0.889669 0.250000
O O2 0.096993 0.772691 0.224455
O O3 0.000000 0.842857 0.250000
O O4 0.066161 0.842500 0.000000
O O5 0.704774 0.704774 0.250000
O O6 0.654609 0.749520 0.500000
O O7 0.680180 0.816835 0.258817
O O8 0.594116 0.726182 0.245746
O O9 0.207626 0.207626 0.750000
O O10 0.166912 0.261046 0.500000
O O11 0.345667 0.500000 0.750000
O O12 0.389498 0.610503 0.750000
O O13 0.338514 0.567754 0.000000
#
# Coordination Sequence:
#
# PCOD9562315 Si02
#       4
#    16  16  16  16
#     4  10  20  32  46  63  87 117 152 187 223 262
#     4  10  17  27  44  65  86 111 141 178 221 264
#     4   9  16  27  43  63  84 109 139 178 222 265
#     4  11  21  34  48  65  89 119 153 187 221 259
#
# _framework density 14.987176
#
# number of rings (size 3 to 8) (size 9 to 14) (size 15 to 20)
#    0.000    2.000    0.000    9.000    0.000    3.500 
#    0.000    2.500    0.000    0.000    0.000    0.000 
#    0.000    1.000    0.000   10.500    0.000    5.750 
#
# Total GULP energy -356554.571213 kJ/mol
# GULP energy per Si atom -5571.165175 kJ/mol
# Density = 1.495306 g / cm^3
# Si number density = 14.987176 Si / 1000 Ang^3
#
#
#
# Elastic Constant Matrix: (Units=GPa)
#
#
# Indices 1 2 3 4 5 6 
#
# 1 71.7067 73.6301 45.6456 0.0000 0.0000 0.0000
# 2 73.6301 71.7073 45.6460 0.0000 0.0000 0.0000
# 3 45.6456 45.6460 127.9309 0.0000 0.0000 0.0000
# 4 0.0000 0.0000 0.0000 20.5500 0.0000 0.0000
# 5 0.0000 0.0000 0.0000 0.0000 20.5499 0.0000
# 6 0.0000 0.0000 0.0000 0.0000 0.0000 19.2726
#
#
#
# Elastic Compliance Matrix: (Units=1/GPa)
#
#
# Indices 1 2 3 4 5 6 
#
# 1 -0.255573 0.264440 -0.003165 0.000000 0.000000 0.000000
# 2 0.264440 -0.255572 -0.003163 0.000000 0.000000 0.000000
# 3 -0.003165 -0.003163 0.010075 0.000000 0.000000 0.000000
# 4 0.000000 0.000000 0.000000 0.048662 0.000000 0.000000
# 5 0.000000 0.000000 0.000000 0.000000 0.048662 0.000000
# 6 0.000000 0.000000 0.000000 0.000000 0.000000 0.051887
#
#
# Mechanical properties :
#
#
# Convention : Reuss Voigt Hill
#
# Bulk Modulus (GPa) = 65.98806 66.79870 66.39338
# Shear Modulus (GPa) = -5.79353 19.16940 6.68794
#
# Velocity S-wave (km/s) = -1.96826 3.58027 2.11474
# Velocity P-wave (km/s) = 6.24178 7.85865 7.09642
#
# Compressibility (1/GPa) = 0.01515426
#
# Stress axis : x y z
#
# Youngs Moduli (GPa) = -3.91278 -3.91280 99.25911
#
# Poissons Ratio (x) = 1.03470 0.31414
# Poissons Ratio (y) = 1.03470 0.31400
# Poissons Ratio (z) = -0.01238 -0.01238
#
# Static dielectric constant tensor:
#      x y z
#    x 1.518480 0.000000 0.000000 
#    y 0.000000 1.518480 0.000000 
#    z 0.000000 0.000000 1.496700 
# 
# From -- ./inp_files/858.got.cif
#   From: 2010.05.17/outbox.cif.g08.bks.cpg/sg124_1_cif.got.tgz:858.got - 2010.05.20 11:49:17.
