data_PCOD9562782
_publ_section_title
;
Structure prediction by ZEFSAII (Michael W. Deem and Ramdas Pophale) SiO2 
 PCOD9562782
Probable space group: P 4/M C C
;
_chemical_formula_sum "Si O2"
_cell_formula_units_Z 96
_cell_length_a 15.437333
_cell_length_b 15.437333
_cell_length_c 19.904201
_cell_angle_alpha 90.000000
_cell_angle_beta 90.000000
_cell_angle_gamma 90.000000
_cell_volume 4743.395024
_symmetry_space_group_name_H-M "P 4/M C C"
_symmetry_group_IT_number 124
_symmetry_cell_setting 'tetragonal'
loop_
_space_group_symop_operation_xyz
x,y,z
-y,x,z
-x,-y,z
y,-x,z
x,-y,1/2-z
-x,y,1/2-z
y,x,1/2-z
-y,-x,1/2-z
-x,-y,-z
y,-x,-z
x,y,-z
-y,x,-z
-x,y,1/2+z
x,-y,1/2+z
-y,-x,1/2+z
y,x,1/2+z
loop_
_atom_site_type_symbol
_atom_site_label
_atom_site_fract_x
_atom_site_fract_y
_atom_site_fract_z
Si Si1 0.713377 0.711154 0.330347
Si Si2 0.560148 0.836863 0.192461
Si Si3 0.578863 0.621960 0.421648
Si Si4 0.093115 0.454267 0.071428
Si Si5 0.947690 0.135436 0.500000
Si Si6 0.737854 0.094369 0.122030
Si Si7 0.000000 0.668599 0.750000
O O1 0.704681 0.704681 0.250000
O O2 0.783165 0.636156 0.342402
O O3 0.627910 0.685899 0.371699
O O4 0.743340 0.806603 0.351881
O O5 0.500000 0.793962 0.250000
O O6 0.494092 0.860830 0.134690
O O7 0.606625 0.921132 0.225702
O O8 0.475699 0.615338 0.410968
O O9 0.594305 0.644351 0.500000
O O10 0.083683 0.352766 0.082953
O O11 0.000000 0.500000 0.069957
O O12 0.137517 0.471261 0.000000
O O13 0.927441 0.188804 0.432020
O O14 0.048060 0.108491 0.500000
O O15 0.726633 0.033866 0.187909
#
# Coordination Sequence:
#
# PCOD9562782 Si02
#       7
#    16  16  16  16   8  16   8
#     4  12  27  41  65 105 143 184 236 303 351 425
#     4  12  23  42  66 100 146 186 232 282 361 425
#     4   9  22  44  65  88 131 195 250 291 346 415
#     4  11  22  39  66 104 140 182 232 291 364 433
#     4  11  30  56  81 106 144 189 233 298 366 428
#     4  12  26  47  73 106 146 182 242 295 358 431
#     4  12  23  44  72  99 142 192 220 293 354 430
#
# _framework density 20.238669000000002
#
# number of rings (size 3 to 8) (size 9 to 14) (size 15 to 20)
#    0.000    0.750    5.833    0.750    8.167    0.667 
#    0.000    0.833    0.000    1.000    0.000    0.000 
#    0.000    0.000    0.000    0.000    0.000    0.000 
#
# Total GULP energy -536676.126575 kJ/mol
# GULP energy per Si atom -5590.376318 kJ/mol
# Density = 2.019261 g / cm^3
# Si number density = 20.238669 Si / 1000 Ang^3
#
#
#
# Elastic Constant Matrix: (Units=GPa)
#
#
# Indices 1 2 3 4 5 6 
#
# 1 95.6640 56.1786 55.9971 0.0000 0.0000 0.0000
# 2 56.1786 95.6640 55.9971 0.0000 0.0000 0.0000
# 3 55.9971 55.9971 169.4307 0.0000 0.0000 0.0000
# 4 0.0000 0.0000 0.0000 17.1994 0.0000 0.0000
# 5 0.0000 0.0000 0.0000 0.0000 17.1994 0.0000
# 6 0.0000 0.0000 0.0000 0.0000 0.0000 24.5381
#
#
#
# Elastic Compliance Matrix: (Units=1/GPa)
#
#
# Indices 1 2 3 4 5 6 
#
# 1 0.017017 -0.008309 -0.002878 0.000000 0.000000 0.000000
# 2 -0.008309 0.017017 -0.002878 0.000000 0.000000 0.000000
# 3 -0.002878 -0.002878 0.007805 0.000000 0.000000 0.000000
# 4 0.000000 0.000000 0.000000 0.058142 0.000000 0.000000
# 5 0.000000 0.000000 0.000000 0.000000 0.058142 0.000000
# 6 0.000000 0.000000 0.000000 0.000000 0.000000 0.040753
#
#
# Mechanical properties :
#
#
# Convention : Reuss Voigt Hill
#
# Bulk Modulus (GPa) = 72.94453 77.45601 75.20027
# Shear Modulus (GPa) = 21.59127 24.62643 23.10885
#
# Velocity S-wave (km/s) = 3.26978 3.49205 3.38274
# Velocity P-wave (km/s) = 7.09759 7.39010 7.24532
#
# Compressibility (1/GPa) = 0.01370905
#
# Stress axis : x y z
#
# Youngs Moduli (GPa) = 58.76391 58.76391 128.12909
#
# Poissons Ratio (x) = 0.48825 0.36878
# Poissons Ratio (y) = 0.48825 0.36878
# Poissons Ratio (z) = 0.16914 0.16914
#
# Static dielectric constant tensor:
#      x y z
#    x 2.450470 0.000000 0.000000 
#    y 0.000000 2.450470 0.000000 
#    z 0.000000 0.000000 1.723890 
# 
# From -- ./inp_files/5380.got.cif
#   From: 2010.05.17/outbox.cif.g08.bks.cpg/sg124_3_cif.got.tgz:5380.got - 2010.05.20 11:49:17.
