data_PCOD9562407
_publ_section_title
;
Structure prediction by ZEFSAII (Michael W. Deem and Ramdas Pophale) SiO2 
 PCOD9562407
Probable space group: P 4/M C C
;
_chemical_formula_sum "Si O2"
_cell_formula_units_Z 64
_cell_length_a 20.314007
_cell_length_b 20.314007
_cell_length_c 8.622251
_cell_angle_alpha 90.000000
_cell_angle_beta 90.000000
_cell_angle_gamma 90.000000
_cell_volume 3558.048444
_symmetry_space_group_name_H-M "P 4/M C C"
_symmetry_group_IT_number 124
_symmetry_cell_setting 'tetragonal'
loop_
_space_group_symop_operation_xyz
x,y,z
-y,x,z
-x,-y,z
y,-x,z
x,-y,1/2-z
-x,y,1/2-z
y,x,1/2-z
-y,-x,1/2-z
-x,-y,-z
y,-x,-z
x,y,-z
-y,x,-z
-x,y,1/2+z
x,-y,1/2+z
-y,-x,1/2+z
y,x,1/2+z
loop_
_atom_site_type_symbol
_atom_site_label
_atom_site_fract_x
_atom_site_fract_y
_atom_site_fract_z
Si Si1 0.068839 0.684622 0.685772
Si Si2 0.680453 0.781992 0.686934
Si Si3 0.673121 0.427071 0.314228
Si Si4 0.832412 0.933099 0.185250
O O1 0.065171 0.681590 0.500000
O O2 0.142882 0.663455 0.734743
O O3 0.068719 0.759805 0.743439
O O4 0.000000 0.654528 0.750000
O O5 0.747639 0.747639 0.750000
O O6 0.686155 0.782197 0.500000
O O7 0.621170 0.733202 0.732906
O O8 0.681431 0.500000 0.250000
O O9 0.607448 0.392553 0.250000
O O10 0.670735 0.428509 0.500000
O O11 0.872102 0.872102 0.250000
O O12 0.864304 0.000000 0.250000
O O13 0.829550 0.933692 0.000000
#
# Coordination Sequence:
#
# PCOD9562407 Si02
#       4
#    16  16  16  16
#     4  10  19  32  49  72  98 128 164 209 258 307
#     4   9  19  33  52  76 104 135 173 215 260 309
#     4  10  20  36  56  82 112 144 177 213 252 299
#     4  11  21  33  46  63  86 116 153 197 247 304
#
# _framework density 17.987386999999998
#
# number of rings (size 3 to 8) (size 9 to 14) (size 15 to 20)
#    0.000    2.000    0.000    6.000    0.000    5.500 
#    0.000    2.500    0.000    0.750    0.000    5.250 
#    0.000    0.000    0.000    0.000    0.000    0.000 
#
# Total GULP energy -356743.207782 kJ/mol
# GULP energy per Si atom -5574.112622 kJ/mol
# Density = 1.794645 g / cm^3
# Si number density = 17.987387 Si / 1000 Ang^3
#
#
#
# Elastic Constant Matrix: (Units=GPa)
#
#
# Indices 1 2 3 4 5 6 
#
# 1 106.9998 32.8987 22.7924 0.0000 0.0000 0.0000
# 2 32.8987 106.9964 22.7920 0.0000 0.0000 0.0000
# 3 22.7924 22.7920 43.9526 0.0000 0.0000 0.0000
# 4 0.0000 0.0000 0.0000 41.9819 0.0000 0.0000
# 5 0.0000 0.0000 0.0000 0.0000 41.9873 0.0000
# 6 0.0000 0.0000 0.0000 0.0000 0.0000 16.2523
#
#
#
# Elastic Compliance Matrix: (Units=1/GPa)
#
#
# Indices 1 2 3 4 5 6 
#
# 1 0.011048 -0.002447 -0.004460 0.000000 0.000000 0.000000
# 2 -0.002447 0.011049 -0.004460 0.000000 0.000000 0.000000
# 3 -0.004460 -0.004460 0.027378 0.000000 0.000000 0.000000
# 4 0.000000 0.000000 0.000000 0.023820 0.000000 0.000000
# 5 0.000000 0.000000 0.000000 0.000000 0.023817 0.000000
# 6 0.000000 0.000000 0.000000 0.000000 0.000000 0.061530
#
#
# Mechanical properties :
#
#
# Convention : Reuss Voigt Hill
#
# Bulk Modulus (GPa) = 37.39840 46.10168 41.75004
# Shear Modulus (GPa) = 26.27571 32.00867 29.14219
#
# Velocity S-wave (km/s) = 3.82617 4.22300 4.02947
# Velocity P-wave (km/s) = 6.35264 7.03306 6.70149
#
# Compressibility (1/GPa) = 0.02673912
#
# Stress axis : x y z
#
# Youngs Moduli (GPa) = 90.51180 90.50898 36.52592
#
# Poissons Ratio (x) = 0.22147 0.16292
# Poissons Ratio (y) = 0.22148 0.16292
# Poissons Ratio (z) = 0.40372 0.40371
#
# Static dielectric constant tensor:
#      x y z
#    x 1.578170 0.000000 0.000000 
#    y 0.000000 1.578170 0.000000 
#    z 0.000000 0.000000 1.601960 
# 
# From -- ./inp_files/849.got.cif
#   From: 2010.05.17/outbox.cif.g08.bks.cpg/sg124_1_cif.got.tgz:849.got - 2010.05.20 11:49:17.
