data_PCOD9562257
_publ_section_title
;
Structure prediction by ZEFSAII (Michael W. Deem and Ramdas Pophale) SiO2 
 PCOD9562257
Probable space group: P 4/M M M
;
_chemical_formula_sum "Si O2"
_cell_formula_units_Z 104
_cell_length_a 26.144438
_cell_length_b 26.144438
_cell_length_c 7.442898
_cell_angle_alpha 90.000000
_cell_angle_beta 90.000000
_cell_angle_gamma 90.000000
_cell_volume 5087.456264
_symmetry_space_group_name_H-M "P 4/M M M"
_symmetry_group_IT_number 123
_symmetry_cell_setting 'tetragonal'
loop_
_space_group_symop_operation_xyz
x,y,z
-y,x,z
-x,-y,z
y,-x,z
x,-y,-z
-x,y,-z
y,x,-z
-y,-x,-z
-x,-y,-z
y,-x,-z
x,y,-z
-y,x,-z
-x,y,z
x,-y,z
-y,-x,z
y,x,z
loop_
_atom_site_type_symbol
_atom_site_label
_atom_site_fract_x
_atom_site_fract_y
_atom_site_fract_z
Si Si1 0.938808 0.500000 0.799629
Si Si2 0.358734 0.441420 0.784810
Si Si3 0.725141 0.357641 0.715135
Si Si4 0.058024 0.386988 0.294630
Si Si5 0.942170 0.141482 0.719317
Si Si6 0.664924 0.839449 0.279392
Si Si7 0.779444 0.862474 0.718163
O O1 0.928109 0.446960 0.704905
O O2 0.000000 0.500000 0.815258
O O3 0.916483 0.500000 0.000000
O O4 0.358284 0.500000 0.717538
O O5 0.405636 0.405636 0.717213
O O6 0.306780 0.409399 0.750591
O O7 0.364252 0.444119 0.000000
O O8 0.727625 0.351921 0.500000
O O9 0.689497 0.310504 0.782482
O O10 0.783857 0.355721 0.779823
O O11 0.054278 0.368606 0.500000
O O12 0.108252 0.361358 0.213563
O O13 0.000000 0.380908 0.217387
O O14 0.942671 0.140793 0.500000
O O15 0.904641 0.095360 0.774435
O O16 0.915959 0.195034 0.774019
O O17 0.000000 0.135818 0.781285
O O18 0.661500 0.839424 0.500000
O O19 0.723576 0.846629 0.224699
O O20 0.778294 0.863233 0.500000
O O21 0.819335 0.819335 0.773342
#
# Coordination Sequence:
#
# PCOD9562257 Si02
#       7
#     8  16  16  16  16  16  16
#     4   9  17  31  49  63  79 109 143 171 206 255
#     4   9  18  33  52  73  98 126 153 183 220 261
#     4   9  17  30  48  68  91 121 155 189 226 269
#     4   9  17  29  45  65  88 112 140 178 222 263
#     4   8  13  19  26  39  62  95 135 177 221 267
#     4   9  16  26  41  62  84 108 141 179 222 270
#     4   8  13  21  33  49  71  99 132 173 218 261
#
# _framework density 20.442435
#
# number of rings (size 3 to 8) (size 9 to 14) (size 15 to 20)
#    0.000    3.308    0.000    1.615    0.000    4.000 
#    1.385    5.385    0.000    0.000    0.000    2.154 
#    0.000    0.000    0.000    0.000    0.000    0.000 
#
# Total GULP energy -579139.314865 kJ/mol
# GULP energy per Si atom -5568.647258 kJ/mol
# Density = 2.039591 g / cm^3
# Si number density = 20.442435 Si / 1000 Ang^3
#
#
#
# Elastic Constant Matrix: (Units=GPa)
#
#
# Indices 1 2 3 4 5 6 
#
# 1 150.2361 122.1691 2.7120 0.0000 0.0000 0.0000
# 2 122.1691 150.2361 2.7120 0.0000 0.0000 0.0000
# 3 2.7120 2.7120 62.4063 0.0000 0.0000 0.0000
# 4 0.0000 0.0000 0.0000 -497.6468 0.0000 0.0000
# 5 0.0000 0.0000 0.0000 0.0000 -497.6468 0.0000
# 6 0.0000 0.0000 0.0000 0.0000 0.0000 15.1048
#
#
#
# Elastic Compliance Matrix: (Units=1/GPa)
#
#
# Indices 1 2 3 4 5 6 
#
# 1 0.019652 -0.015977 -0.000160 0.000000 0.000000 0.000000
# 2 -0.015977 0.019652 -0.000160 0.000000 0.000000 0.000000
# 3 -0.000160 -0.000160 0.016038 0.000000 0.000000 0.000000
# 4 0.000000 0.000000 0.000000 -0.002009 0.000000 0.000000
# 5 0.000000 0.000000 0.000000 0.000000 -0.002009 0.000000
# 6 0.000000 0.000000 0.000000 0.000000 0.000000 0.066204
#
#
# Mechanical properties :
#
#
# Convention : Reuss Voigt Hill
#
# Bulk Modulus (GPa) = 43.96069 68.67385 56.31727
# Shear Modulus (GPa) = 31.70530 -180.35205 -74.32337
#
# Velocity S-wave (km/s) = 3.94249 -9.40297 -6.03625
# Velocity P-wave (km/s) = 6.50197 9.17721 4.57960
#
# Compressibility (1/GPa) = 0.02274760
#
# Stress axis : x y z
#
# Youngs Moduli (GPa) = 50.88638 50.88638 62.35229
#
# Poissons Ratio (x) = 0.81303 0.00996
# Poissons Ratio (y) = 0.81303 0.00996
# Poissons Ratio (z) = 0.00812 0.00812
#
# Static dielectric constant tensor:
#      x y z
#    x 1.722350 0.000000 0.000000 
#    y 0.000000 1.722350 0.000000 
#    z 0.000000 0.000000 1.828500 
# 
# From -- ./inp_files/1928.got.cif
#   From: 2010.05.17/outbox.cif.g08.bks.cpg/sg123_1_cif.got.tgz:1928.got - 2010.05.20 11:43:04.
