data_PCOD9562305
_publ_section_title
;
Structure prediction by ZEFSAII (Michael W. Deem and Ramdas Pophale) SiO2 
 PCOD9562305
Probable space group: P 4/M C C
;
_chemical_formula_sum "Si O2"
_cell_formula_units_Z 128
_cell_length_a 20.313977
_cell_length_b 20.313977
_cell_length_c 13.702508
_cell_angle_alpha 90.000000
_cell_angle_beta 90.000000
_cell_angle_gamma 90.000000
_cell_volume 5654.444909
_symmetry_space_group_name_H-M "P 4/M C C"
_symmetry_group_IT_number 124
_symmetry_cell_setting 'tetragonal'
loop_
_space_group_symop_operation_xyz
x,y,z
-y,x,z
-x,-y,z
y,-x,z
x,-y,1/2-z
-x,y,1/2-z
y,x,1/2-z
-y,-x,1/2-z
-x,-y,-z
y,-x,-z
x,y,-z
-y,x,-z
-x,y,1/2+z
x,-y,1/2+z
-y,-x,1/2+z
y,x,1/2+z
loop_
_atom_site_type_symbol
_atom_site_label
_atom_site_fract_x
_atom_site_fract_y
_atom_site_fract_z
Si Si1 0.382479 0.776841 0.619682
Si Si2 0.750150 0.521646 0.882203
Si Si3 0.105496 0.998386 0.633248
Si Si4 0.025327 0.253879 0.891739
Si Si5 0.720845 0.330506 0.382411
Si Si6 0.396193 0.511076 0.117186
Si Si7 0.726693 0.884292 0.880249
Si Si8 0.831199 0.779882 0.882482
O O1 0.383541 0.773260 0.500000
O O2 0.457922 0.792185 0.650484
O O3 0.345356 0.708384 0.650675
O O4 0.332707 0.835453 0.646458
O O5 0.744491 0.597322 0.847507
O O6 0.678851 0.491239 0.858374
O O7 0.759105 0.526582 0.000000
O O8 0.178857 0.000470 0.598330
O O9 0.062826 0.935566 0.604210
O O10 0.107684 0.000000 0.750000
O O11 0.959390 0.285231 0.847108
O O12 0.097351 0.243262 0.845488
O O13 0.035668 0.283525 0.000000
O O14 0.711781 0.338173 0.500000
O O15 0.779067 0.278312 0.365804
O O16 0.430099 0.443086 0.148180
O O17 0.398082 0.512861 0.000000
O O18 0.794593 0.846965 0.849332
O O19 0.728668 0.886339 0.000000
O O20 0.839308 0.787334 0.000000
#
# Coordination Sequence:
#
# PCOD9562305 Si02
#       8
#    16  16  16  16  16  16  16  16
#     4   8  13  20  28  39  58  83 111 145 184 224
#     4   9  13  16  25  37  50  77 113 139 169 223
#     4   9  18  30  40  54  81 109 124 142 184 235
#     4  10  17  25  41  59  72  94 133 168 184 206
#     4   8  13  20  28  39  58  83 111 145 184 224
#     4   8  12  15  18  28  47  68  96 139 179 204
#     4   8  14  23  33  47  66  85 110 150 193 221
#     4   8  14  23  33  47  66  85 110 150 193 221
#
# _framework density 22.637059000000001
#
# number of rings (size 3 to 8) (size 9 to 14) (size 15 to 20)
#    0.000    3.500    0.000    3.750    0.000    4.500 
#    0.000    0.625    0.000    0.750    0.000    5.250 
#    0.000    0.000    0.000    2.250    0.000    4.750 
#
# Total GULP energy -714001.235327 kJ/mol
# GULP energy per Si atom -5578.134651 kJ/mol
# Density = 2.258554 g / cm^3
# Si number density = 22.637059 Si / 1000 Ang^3
#
#
#
# Elastic Constant Matrix: (Units=GPa)
#
#
# Indices 1 2 3 4 5 6 
#
# 1 129.1218 29.7838 3.0390 0.0000 0.0000 0.0000
# 2 29.7838 129.1218 3.0390 0.0000 0.0000 0.0000
# 3 3.0390 3.0390 95.5591 0.0000 0.0000 0.0000
# 4 0.0000 0.0000 0.0000 9.3579 0.0000 0.0000
# 5 0.0000 0.0000 0.0000 0.0000 9.3579 0.0000
# 6 0.0000 0.0000 0.0000 0.0000 0.0000 -9.3315
#
#
#
# Elastic Compliance Matrix: (Units=1/GPa)
#
#
# Indices 1 2 3 4 5 6 
#
# 1 0.008184 -0.001883 -0.000200 0.000000 0.000000 0.000000
# 2 -0.001883 0.008184 -0.000200 0.000000 0.000000 0.000000
# 3 -0.000200 -0.000200 0.010477 0.000000 0.000000 0.000000
# 4 0.000000 0.000000 0.000000 0.106861 0.000000 0.000000
# 5 0.000000 0.000000 0.000000 0.000000 0.106861 0.000000
# 6 0.000000 0.000000 0.000000 0.000000 0.000000 -0.107164
#
#
# Mechanical properties :
#
#
# Convention : Reuss Voigt Hill
#
# Bulk Modulus (GPa) = 44.88859 47.28071 46.08465
# Shear Modulus (GPa) = 34.38874 23.07293 28.73084
#
# Velocity S-wave (km/s) = 3.90184 3.19604 3.56644
# Velocity P-wave (km/s) = 6.33813 5.87804 6.11241
#
# Compressibility (1/GPa) = 0.02227738
#
# Stress axis : x y z
#
# Youngs Moduli (GPa) = 122.19451 122.19451 95.44282
#
# Poissons Ratio (x) = 0.23009 0.01912
# Poissons Ratio (y) = 0.23009 0.01912
# Poissons Ratio (z) = 0.02449 0.02449
#
# Static dielectric constant tensor:
#      x y z
#    x 1.833210 0.000000 0.000000 
#    y 0.000000 1.833210 0.000000 
#    z 0.000000 0.000000 1.993170 
# 
# From -- ./inp_files/4582.got.cif
#   From: 2010.05.17/outbox.cif.g08.bks.cpg/sg124_3_cif.got.tgz:4582.got - 2010.05.20 11:49:17.
