data_PCOD9562876
_publ_section_title
;
Structure prediction by ZEFSAII (Michael W. Deem and Ramdas Pophale) SiO2 
 PCOD9562876
Probable space group: P 4/M C C
;
_chemical_formula_sum "Si O2"
_cell_formula_units_Z 64
_cell_length_a 15.000000
_cell_length_b 15.000000
_cell_length_c 15.000000
_cell_angle_alpha 90.000000
_cell_angle_beta 90.000000
_cell_angle_gamma 90.000000
_cell_volume 3375.000000
_symmetry_space_group_name_H-M "P 4/M C C"
_symmetry_group_IT_number 124
_symmetry_cell_setting 'tetragonal'
loop_
_space_group_symop_operation_xyz
x,y,z
-y,x,z
-x,-y,z
y,-x,z
x,-y,1/2-z
-x,y,1/2-z
y,x,1/2-z
-y,-x,1/2-z
-x,-y,-z
y,-x,-z
x,y,-z
-y,x,-z
-x,y,1/2+z
x,-y,1/2+z
-y,-x,1/2+z
y,x,1/2+z
loop_
_atom_site_type_symbol
_atom_site_label
_atom_site_fract_x
_atom_site_fract_y
_atom_site_fract_z
Si Si1 0.925020 0.369766 0.901866
Si Si2 0.714258 0.854593 0.727397
Si Si3 0.433312 0.130932 0.597718
Si Si4 0.138486 0.052980 0.606018
O O1 0.905224 0.309172 0.818140
O O2 0.868250 0.460621 0.892870
O O3 0.026776 0.403471 0.900622
O O4 0.908318 0.329225 0.000000
O O5 0.766267 0.766267 0.750000
O O6 0.623795 0.830121 0.676577
O O7 0.780091 0.910827 0.663441
O O8 0.409257 0.166473 0.500000
O O9 0.157359 0.059773 0.500000
O O10 0.049134 0.110505 0.624880
#
# Coordination Sequence:
#
# PCOD9562876 Si02
#       4
#    16  16  16  16
#     4   9  20  38  58  76 103 140 182 228 280 336
#     4  12  24  31  52  84 111 138 180 232 283 321
#     4   9  19  38  59  77  99 139 185 229 280 336
#     4   9  21  40  54  67  99 151 202 238 266 303
#
# _framework density 18.962962999999998
#
# number of rings (size 3 to 8) (size 9 to 14) (size 15 to 20)
#    0.000    2.250    0.000    4.500    7.000    4.000 
#    0.000    1.250    0.000    0.000    0.000    1.750 
#    0.000    8.000    0.000   22.000    0.000    0.000 
#
# Total GULP energy -357615.277636 kJ/mol
# GULP energy per Si atom -5587.738713 kJ/mol
# Density = 1.891980 g / cm^3
# Si number density = 18.962963 Si / 1000 Ang^3
#
#
#
# Elastic Constant Matrix: (Units=GPa)
#
#
# Indices 1 2 3 4 5 6 
#
# 1 51.9264 5.6799 36.0532 0.0000 0.0000 0.0000
# 2 5.6799 51.9264 36.0532 0.0000 0.0000 0.0000
# 3 36.0532 36.0532 99.7756 0.0000 0.0000 0.0000
# 4 0.0000 0.0000 0.0000 31.6098 0.0000 0.0000
# 5 0.0000 0.0000 0.0000 0.0000 31.6098 0.0000
# 6 0.0000 0.0000 0.0000 0.0000 0.0000 16.5667
#
#
#
# Elastic Compliance Matrix: (Units=1/GPa)
#
#
# Indices 1 2 3 4 5 6 
#
# 1 0.026659 0.005036 -0.011453 0.000000 0.000000 0.000000
# 2 0.005036 0.026659 -0.011453 0.000000 0.000000 0.000000
# 3 -0.011453 -0.011453 0.018299 0.000000 0.000000 0.000000
# 4 0.000000 0.000000 0.000000 0.031636 0.000000 0.000000
# 5 0.000000 0.000000 0.000000 0.000000 0.031636 0.000000
# 6 0.000000 0.000000 0.000000 0.000000 0.000000 0.060362
#
#
# Mechanical properties :
#
#
# Convention : Reuss Voigt Hill
#
# Bulk Modulus (GPa) = 27.87240 39.91126 33.89183
# Shear Modulus (GPa) = 20.58046 24.34674 22.46360
#
# Velocity S-wave (km/s) = 3.29796 3.58706 3.44554
# Velocity P-wave (km/s) = 5.40669 6.18455 5.80865
#
# Compressibility (1/GPa) = 0.03587778
#
# Stress axis : x y z
#
# Youngs Moduli (GPa) = 37.51095 37.51095 54.64745
#
# Poissons Ratio (x) = -0.18889 0.62586
# Poissons Ratio (y) = -0.18889 0.62586
# Poissons Ratio (z) = 0.42960 0.42960
#
# Static dielectric constant tensor:
#      x y z
#    x 1.670870 0.000000 0.000000 
#    y 0.000000 1.670870 0.000000 
#    z 0.000000 0.000000 1.727540 
# 
# From -- ./inp_files/2967.got.cif
#   From: 2010.05.17/outbox.ucp.g08.bks.cvg/sg124_2_cif.got.tgz:2967.got - 2010.06.11 11:36:13.
