data_PCOD9562406
_publ_section_title
;
Structure prediction by ZEFSAII (Michael W. Deem and Ramdas Pophale) SiO2 
 PCOD9562406
Probable space group: P 4/M C C
;
_chemical_formula_sum "Si O2"
_cell_formula_units_Z 48
_cell_length_a 15.746409
_cell_length_b 15.746409
_cell_length_c 9.237818
_cell_angle_alpha 90.000000
_cell_angle_beta 90.000000
_cell_angle_gamma 90.000000
_cell_volume 2290.511397
_symmetry_space_group_name_H-M "P 4/M C C"
_symmetry_group_IT_number 124
_symmetry_cell_setting 'tetragonal'
loop_
_space_group_symop_operation_xyz
x,y,z
-y,x,z
-x,-y,z
y,-x,z
x,-y,1/2-z
-x,y,1/2-z
y,x,1/2-z
-y,-x,1/2-z
-x,-y,-z
y,-x,-z
x,y,-z
-y,x,-z
-x,y,1/2+z
x,-y,1/2+z
-y,-x,1/2+z
y,x,1/2+z
loop_
_atom_site_type_symbol
_atom_site_label
_atom_site_fract_x
_atom_site_fract_y
_atom_site_fract_z
Si Si1 0.911248 0.780443 0.177684
Si Si2 0.583369 0.110224 0.838776
Si Si3 0.419470 0.687268 0.160541
O O1 0.835346 0.835346 0.250000
O O2 0.904767 0.679435 0.215608
O O3 0.000000 0.810166 0.250000
O O4 0.910127 0.787598 0.000000
O O5 0.500000 0.085166 0.750000
O O6 0.575602 0.211962 0.849289
O O7 0.579183 0.073020 0.000000
O O8 0.500000 0.655206 0.250000
O O9 0.337222 0.662779 0.250000
O O10 0.416412 0.651138 0.000000
#
# Coordination Sequence:
#
# PCOD9562406 Si02
#       3
#    16  16  16
#     4  11  24  43  66  95 128 167 212 262 316 375
#     4   9  20  37  60  89 122 158 199 246 303 365
#     4  10  19  32  49  72 102 141 187 238 293 353
#
# _framework density 20.956019000000001
#
# number of rings (size 3 to 8) (size 9 to 14) (size 15 to 20)
#    0.000    2.000    0.000    3.000    0.000    5.333 
#    0.000    6.667    0.000    0.000    0.000    0.000 
#    0.000    0.000    0.000    0.000    0.000    0.000 
#
# Total GULP energy -267637.421275 kJ/mol
# GULP energy per Si atom -5575.779610 kJ/mol
# Density = 2.090832 g / cm^3
# Si number density = 20.956019 Si / 1000 Ang^3
#
#
#
# Elastic Constant Matrix: (Units=GPa)
#
#
# Indices 1 2 3 4 5 6 
#
# 1 110.8317 54.2165 59.3788 0.0000 0.0000 0.0000
# 2 54.2165 110.8263 59.3787 0.0000 0.0000 0.0000
# 3 59.3788 59.3787 128.4316 0.0000 0.0000 0.0000
# 4 0.0000 0.0000 0.0000 12.0550 0.0000 0.0000
# 5 0.0000 0.0000 0.0000 0.0000 12.0546 0.0000
# 6 0.0000 0.0000 0.0000 0.0000 0.0000 -59.3644
#
#
#
# Elastic Compliance Matrix: (Units=1/GPa)
#
#
# Indices 1 2 3 4 5 6 
#
# 1 0.013371 -0.004292 -0.004198 0.000000 0.000000 0.000000
# 2 -0.004292 0.013372 -0.004198 0.000000 0.000000 0.000000
# 3 -0.004198 -0.004198 0.011668 0.000000 0.000000 0.000000
# 4 0.000000 0.000000 0.000000 0.082953 0.000000 0.000000
# 5 0.000000 0.000000 0.000000 0.000000 0.082956 0.000000
# 6 0.000000 0.000000 0.000000 0.000000 0.000000 -0.016845
#
#
# Mechanical properties :
#
#
# Convention : Reuss Voigt Hill
#
# Bulk Modulus (GPa) = 76.71296 77.33751 77.02523
# Shear Modulus (GPa) = 23.02075 4.75676 13.88875
#
# Velocity S-wave (km/s) = 3.31800 1.50825 2.57720
# Velocity P-wave (km/s) = 7.16693 6.32597 6.75954
#
# Compressibility (1/GPa) = 0.01303561
#
# Stress axis : x y z
#
# Youngs Moduli (GPa) = 74.78738 74.78260 85.70604
#
# Poissons Ratio (x) = 0.32099 0.35976
# Poissons Ratio (y) = 0.32101 0.35979
# Poissons Ratio (z) = 0.31392 0.31393
#
# Static dielectric constant tensor:
#      x y z
#    x 1.767830 0.000000 0.000000 
#    y 0.000000 1.767840 0.000000 
#    z 0.000000 0.000000 1.865700 
# 
# From -- ./inp_files/478.got.cif
#   From: 2010.05.17/outbox.cif.g08.bks.cpg/sg124_1_cif.got.tgz:478.got - 2010.05.20 11:49:17.
