data_PCOD9562834
_publ_section_title
;
Structure prediction by ZEFSAII (Michael W. Deem and Ramdas Pophale) SiO2 
 PCOD9562834
Probable space group: P 4/M C C
;
_chemical_formula_sum "Si O2"
_cell_formula_units_Z 44
_cell_length_a 11.044746
_cell_length_b 11.044746
_cell_length_c 15.913995
_cell_angle_alpha 90.000000
_cell_angle_beta 90.000000
_cell_angle_gamma 90.000000
_cell_volume 1941.291186
_symmetry_space_group_name_H-M "P 4/M C C"
_symmetry_group_IT_number 124
_symmetry_cell_setting 'tetragonal'
loop_
_space_group_symop_operation_xyz
x,y,z
-y,x,z
-x,-y,z
y,-x,z
x,-y,1/2-z
-x,y,1/2-z
y,x,1/2-z
-y,-x,1/2-z
-x,-y,-z
y,-x,-z
x,y,-z
-y,x,-z
-x,y,1/2+z
x,-y,1/2+z
-y,-x,1/2+z
y,x,1/2+z
loop_
_atom_site_type_symbol
_atom_site_label
_atom_site_fract_x
_atom_site_fract_y
_atom_site_fract_z
Si Si1 0.000000 0.500000 0.750000
Si Si2 0.567284 0.689382 0.500000
Si Si3 0.770009 0.350149 0.682389
Si Si4 0.156090 0.872159 0.404921
O O1 0.898995 0.409102 0.708718
O O2 0.429001 0.649851 0.500000
O O3 0.591231 0.749753 0.590421
O O4 0.657900 0.342101 0.750000
O O5 0.774775 0.206871 0.661126
O O6 0.194396 0.842242 0.500000
O O7 0.015254 0.837290 0.396046
#
# Coordination Sequence:
#
# PCOD9562834 Si02
#       4
#     4   8  16  16
#     4  12  28  42  68 112 136 186 240 282 364 436
#     4  11  26  47  70  95 128 189 248 296 354 406
#     4  12  24  45  68 100 142 178 231 299 359 424
#     4   9  18  35  61  94 130 172 216 266 346 438
#
# _framework density 22.665326
#
# number of rings (size 3 to 8) (size 9 to 14) (size 15 to 20)
#    0.000    1.273    1.818    5.455    0.000    0.727 
#    0.000    3.636    0.000    0.000    0.000    0.000 
#    0.000    0.000    0.000    0.000    0.000    0.000 
#
# Total GULP energy -245022.192465 kJ/mol
# GULP energy per Si atom -5568.686192 kJ/mol
# Density = 2.261374 g / cm^3
# Si number density = 22.665326 Si / 1000 Ang^3
#
#
#
# Elastic Constant Matrix: (Units=GPa)
#
#
# Indices 1 2 3 4 5 6 
#
# 1 89.0911 0.7722 58.1714 0.0000 0.0000 0.0000
# 2 0.7722 89.0904 58.1711 0.0000 0.0000 0.0000
# 3 58.1714 58.1711 130.0521 0.0000 0.0000 0.0000
# 4 0.0000 0.0000 0.0000 17.0085 0.0000 0.0000
# 5 0.0000 0.0000 0.0000 0.0000 17.0088 0.0000
# 6 0.0000 0.0000 0.0000 0.0000 0.0000 34.1206
#
#
#
# Elastic Compliance Matrix: (Units=1/GPa)
#
#
# Indices 1 2 3 4 5 6 
#
# 1 0.018880 0.007558 -0.011826 0.000000 0.000000 0.000000
# 2 0.007558 0.018881 -0.011826 0.000000 0.000000 0.000000
# 3 -0.011826 -0.011826 0.018268 0.000000 0.000000 0.000000
# 4 0.000000 0.000000 0.000000 0.058794 0.000000 0.000000
# 5 0.000000 0.000000 0.000000 0.000000 0.058793 0.000000
# 6 0.000000 0.000000 0.000000 0.000000 0.000000 0.029308
#
#
# Mechanical properties :
#
#
# Convention : Reuss Voigt Hill
#
# Bulk Modulus (GPa) = 41.94226 60.27366 51.10796
# Shear Modulus (GPa) = 20.57118 26.36884 23.47001
#
# Velocity S-wave (km/s) = 3.01592 3.41457 3.22141
# Velocity P-wave (km/s) = 5.53831 6.49587 6.03611
#
# Compressibility (1/GPa) = 0.02384230
#
# Stress axis : x y z
#
# Youngs Moduli (GPa) = 52.96502 52.96455 54.73981
#
# Poissons Ratio (x) = -0.40030 0.64733
# Poissons Ratio (y) = -0.40030 0.64733
# Poissons Ratio (z) = 0.62634 0.62634
#
# Static dielectric constant tensor:
#      x y z
#    x 1.836540 0.000000 0.000000 
#    y 0.000000 1.836540 0.000000 
#    z 0.000000 0.000000 1.992730 
# 
# From -- ./inp_files/3761.got.cif
#   From: 2010.05.17/outbox.cif.g08.bks.cpg/sg124_2_cif.got.tgz:3761.got - 2010.05.20 11:49:17.
