data_PCOD9562314
_publ_section_title
;
Structure prediction by ZEFSAII (Michael W. Deem and Ramdas Pophale) SiO2 
 PCOD9562314
Probable space group: P 4/M C C
;
_chemical_formula_sum "Si O2"
_cell_formula_units_Z 96
_cell_length_a 27.704976
_cell_length_b 27.704976
_cell_length_c 8.866537
_cell_angle_alpha 90.000000
_cell_angle_beta 90.000000
_cell_angle_gamma 90.000000
_cell_volume 6805.649636
_symmetry_space_group_name_H-M "P 4/M C C"
_symmetry_group_IT_number 124
_symmetry_cell_setting 'tetragonal'
loop_
_space_group_symop_operation_xyz
x,y,z
-y,x,z
-x,-y,z
y,-x,z
x,-y,1/2-z
-x,y,1/2-z
y,x,1/2-z
-y,-x,1/2-z
-x,-y,-z
y,-x,-z
x,y,-z
-y,x,-z
-x,y,1/2+z
x,-y,1/2+z
-y,-x,1/2+z
y,x,1/2+z
loop_
_atom_site_type_symbol
_atom_site_label
_atom_site_fract_x
_atom_site_fract_y
_atom_site_fract_z
Si Si1 0.870348 0.946934 0.182626
Si Si2 0.611989 0.452569 0.667138
Si Si3 0.730353 0.346068 0.179090
Si Si4 0.799418 0.876423 0.318361
Si Si5 0.268057 0.192389 0.820311
Si Si6 0.272413 0.549445 0.328870
O O1 0.911994 0.911994 0.250000
O O2 0.819767 0.925413 0.245932
O O3 0.877453 0.000000 0.250000
O O4 0.871361 0.946086 0.000000
O O5 0.593423 0.500000 0.750000
O O6 0.595198 0.404803 0.750000
O O7 0.592422 0.451098 0.500000
O O8 0.669480 0.455374 0.663135
O O9 0.687584 0.312417 0.250000
O O10 0.781866 0.319309 0.204498
O O11 0.734422 0.399942 0.243659
O O12 0.721318 0.347634 0.000000
O O13 0.837200 0.837200 0.250000
O O14 0.802090 0.877149 0.500000
O O15 0.747620 0.857091 0.261028
O O16 0.231981 0.231981 0.750000
O O17 0.260018 0.187853 0.000000
O O18 0.254697 0.500000 0.250000
O O19 0.253958 0.552494 0.500000
#
# Coordination Sequence:
#
# PCOD9562314 Si02
#       6
#    16  16  16  16  16  16
#     4  11  21  34  48  64  85 113 150 191 232 269
#     4  10  20  32  44  56  68  84 107 139 177 220
#     4  10  19  29  43  62  83 104 130 162 199 239
#     4  10  17  27  43  62  83 109 138 172 213 257
#     4   9  16  26  40  60  83 106 130 162 201 244
#     4  10  20  32  45  58  75  98 124 153 188 230
#
# _framework density 14.105926999999999
#
# number of rings (size 3 to 8) (size 9 to 14) (size 15 to 20)
#    0.000    2.000    0.000    7.500    0.000    5.667 
#    0.000    1.667    0.000    0.000    0.000    0.000 
#    0.000    0.000    0.000    0.000    0.000    0.833 
#
# Total GULP energy -534550.070653 kJ/mol
# GULP energy per Si atom -5568.229903 kJ/mol
# Density = 1.407382 g / cm^3
# Si number density = 14.105927 Si / 1000 Ang^3
#
#
#
# Elastic Constant Matrix: (Units=GPa)
#
#
# Indices 1 2 3 4 5 6 
#
# 1 51.9608 49.6462 46.3023 0.0000 0.0000 0.0000
# 2 49.6462 51.9586 46.3030 0.0000 0.0000 0.0000
# 3 46.3023 46.3030 136.5251 0.0000 0.0000 0.0000
# 4 0.0000 0.0000 0.0000 25.1959 0.0000 0.0000
# 5 0.0000 0.0000 0.0000 0.0000 25.1960 0.0000
# 6 0.0000 0.0000 0.0000 0.0000 0.0000 20.4251
#
#
#
# Elastic Compliance Matrix: (Units=1/GPa)
#
#
# Indices 1 2 3 4 5 6 
#
# 1 0.223232 -0.208995 -0.004827 0.000000 0.000000 0.000000
# 2 -0.208995 0.223249 -0.004835 0.000000 0.000000 0.000000
# 3 -0.004827 -0.004835 0.010602 0.000000 0.000000 0.000000
# 4 0.000000 0.000000 0.000000 0.039689 0.000000 0.000000
# 5 0.000000 0.000000 0.000000 0.000000 0.039689 0.000000
# 6 0.000000 0.000000 0.000000 0.000000 0.000000 0.048959
#
#
# Mechanical properties :
#
#
# Convention : Reuss Voigt Hill
#
# Bulk Modulus (GPa) = 50.58912 58.32748 54.45830
# Shear Modulus (GPa) = 4.85755 20.70958 12.78357
#
# Velocity S-wave (km/s) = 1.85771 3.83580 3.01367
# Velocity P-wave (km/s) = 6.36734 7.81391 7.12742
#
# Compressibility (1/GPa) = 0.01976710
#
# Stress axis : x y z
#
# Youngs Moduli (GPa) = 4.47964 4.47931 94.32410
#
# Poissons Ratio (x) = 0.93615 0.45534
# Poissons Ratio (y) = 0.93622 0.45608
# Poissons Ratio (z) = 0.02162 0.02166
#
# Static dielectric constant tensor:
#      x y z
#    x 1.484350 0.000000 0.000000 
#    y 0.000000 1.484350 0.000000 
#    z 0.000000 0.000000 1.487340 
# 
# From -- ./inp_files/1563.got.cif
#   From: 2010.05.17/outbox.cif.g08.bks.cpg/sg124_1_cif.got.tgz:1563.got - 2010.05.20 11:49:17.
