data_PCOD9562037
_publ_section_title
;
Structure prediction by ZEFSAII (Michael W. Deem and Ramdas Pophale) SiO2 
 PCOD9562037
Probable space group: P 4/M M M
;
_chemical_formula_sum "Si O2"
_cell_formula_units_Z 96
_cell_length_a 15.184393
_cell_length_b 15.184393
_cell_length_c 20.571022
_cell_angle_alpha 90.000000
_cell_angle_beta 90.000000
_cell_angle_gamma 90.000000
_cell_volume 4742.973955
_symmetry_space_group_name_H-M "P 4/M M M"
_symmetry_group_IT_number 123
_symmetry_cell_setting 'tetragonal'
loop_
_space_group_symop_operation_xyz
x,y,z
-y,x,z
-x,-y,z
y,-x,z
x,-y,-z
-x,y,-z
y,x,-z
-y,-x,-z
-x,-y,-z
y,-x,-z
x,y,-z
-y,x,-z
-x,y,z
x,-y,z
-y,-x,z
y,x,z
loop_
_atom_site_type_symbol
_atom_site_label
_atom_site_fract_x
_atom_site_fract_y
_atom_site_fract_z
Si Si1 0.903481 0.307331 0.250994
Si Si2 0.765795 0.095288 0.891794
Si Si3 0.598870 0.185002 0.070784
Si Si4 0.603483 0.251630 0.577872
Si Si5 0.737425 0.597909 0.211465
Si Si6 0.750925 0.895157 0.394625
O O1 0.896065 0.249055 0.185863
O O2 0.828864 0.380323 0.245957
O O3 0.895964 0.251273 0.316074
O O4 0.000000 0.348937 0.249969
O O5 0.827418 0.172583 0.915258
O O6 0.670372 0.109459 0.922000
O O7 0.802568 0.000000 0.906475
O O8 0.500000 0.149687 0.074834
O O9 0.609651 0.246091 0.133923
O O10 0.609205 0.228315 0.000000
O O11 0.597707 0.261296 0.500000
O O12 0.500000 0.249190 0.601521
O O13 0.665896 0.334105 0.601463
O O14 0.662637 0.162429 0.588665
O O15 0.707395 0.500000 0.223478
O O16 0.668883 0.668883 0.234428
O O17 0.835407 0.835407 0.416235
O O18 0.750485 0.000000 0.414949
#
# Coordination Sequence:
#
# PCOD9562037 Si02
#       6
#    16  16  16  16  16  16
#     4   9  18  34  55  76  98 127 167 214 261 301
#     4  10  20  33  50  72  99 130 161 196 239 289
#     4   9  18  33  53  73  90 115 156 204 253 297
#     4   9  19  36  57  82 111 142 179 223 268 313
#     4  10  20  33  50  72 100 132 162 198 244 296
#     4  10  20  34  54  79 108 143 180 219 263 310
#
# _framework density 20.240466000000001
#
# number of rings (size 3 to 8) (size 9 to 14) (size 15 to 20)
#    0.000    2.500    0.000    3.000    0.000    4.333 
#    0.000    7.500    0.000    3.000    0.000    8.167 
#    0.000    0.000    0.000    0.000    0.000    0.000 
#
# Total GULP energy -534772.920243 kJ/mol
# GULP energy per Si atom -5570.551253 kJ/mol
# Density = 2.019440 g / cm^3
# Si number density = 20.240466 Si / 1000 Ang^3
#
#
#
# Elastic Constant Matrix: (Units=GPa)
#
#
# Indices 1 2 3 4 5 6 
#
# 1 116.2707 89.3250 14.2239 0.0000 0.0000 0.0000
# 2 89.3250 116.2707 14.2239 0.0000 0.0000 0.0000
# 3 14.2239 14.2239 52.7379 0.0000 0.0000 0.0000
# 4 0.0000 0.0000 0.0000 74.4932 0.0000 0.0000
# 5 0.0000 0.0000 0.0000 0.0000 74.4932 0.0000
# 6 0.0000 0.0000 0.0000 0.0000 0.0000 26.5596
#
#
#
# Elastic Compliance Matrix: (Units=1/GPa)
#
#
# Indices 1 2 3 4 5 6 
#
# 1 0.021082 -0.016030 -0.001363 0.000000 0.000000 0.000000
# 2 -0.016030 0.021082 -0.001363 0.000000 0.000000 0.000000
# 3 -0.001363 -0.001363 0.019697 0.000000 0.000000 0.000000
# 4 0.000000 0.000000 0.000000 0.013424 0.000000 0.000000
# 5 0.000000 0.000000 0.000000 0.000000 0.013424 0.000000
# 6 0.000000 0.000000 0.000000 0.000000 0.000000 0.037651
#
#
# Mechanical properties :
#
#
# Convention : Reuss Voigt Hill
#
# Bulk Modulus (GPa) = 41.06622 57.86943 49.46782
# Shear Modulus (GPa) = 29.07194 46.27630 37.67412
#
# Velocity S-wave (km/s) = 3.79400 4.78674 4.31899
# Velocity P-wave (km/s) = 6.28696 7.69438 7.02600
#
# Compressibility (1/GPa) = 0.02435092
#
# Stress axis : x y z
#
# Youngs Moduli (GPa) = 47.43369 47.43369 50.76973
#
# Poissons Ratio (x) = 0.76034 0.06918
# Poissons Ratio (y) = 0.76034 0.06918
# Poissons Ratio (z) = 0.06464 0.06464
#
# Static dielectric constant tensor:
#      x y z
#    x 1.709060 0.000000 0.000000 
#    y 0.000000 1.709060 0.000000 
#    z 0.000000 0.000000 1.783120 
# 
# From -- ./inp_files/6463.got.cif
#   From: 2010.05.17/outbox.cif.g08.bks.cpg/sg123_4_cif.got.tgz:6463.got - 2010.05.20 11:43:04.
