data_PCOD9562681
_publ_section_title
;
Structure prediction by ZEFSAII (Michael W. Deem and Ramdas Pophale) SiO2 
 PCOD9562681
Probable space group: P 4/M C C
;
_chemical_formula_sum "Si O2"
_cell_formula_units_Z 112
_cell_length_a 14.126948
_cell_length_b 14.126948
_cell_length_c 25.871887
_cell_angle_alpha 90.000000
_cell_angle_beta 90.000000
_cell_angle_gamma 90.000000
_cell_volume 5163.269559
_symmetry_space_group_name_H-M "P 4/M C C"
_symmetry_group_IT_number 124
_symmetry_cell_setting 'tetragonal'
loop_
_space_group_symop_operation_xyz
x,y,z
-y,x,z
-x,-y,z
y,-x,z
x,-y,1/2-z
-x,y,1/2-z
y,x,1/2-z
-y,-x,1/2-z
-x,-y,-z
y,-x,-z
x,y,-z
-y,x,-z
-x,y,1/2+z
x,-y,1/2+z
-y,-x,1/2+z
y,x,1/2+z
loop_
_atom_site_type_symbol
_atom_site_label
_atom_site_fract_x
_atom_site_fract_y
_atom_site_fract_z
Si Si1 0.301889 0.798339 0.678886
Si Si2 0.002619 0.841120 0.554440
Si Si3 0.519964 0.887581 0.136040
Si Si4 0.769712 0.616080 0.938497
Si Si5 0.246662 0.117187 0.631939
Si Si6 0.897772 0.386901 0.724399
Si Si7 0.393004 0.383425 0.640982
O O1 0.372324 0.853465 0.639843
O O2 0.194042 0.816232 0.662185
O O3 0.330885 0.832523 0.735607
O O4 0.324046 0.685373 0.672752
O O5 0.002521 0.786185 0.500000
O O6 0.020874 0.787853 0.606746
O O7 0.911736 0.907328 0.554416
O O8 0.466970 0.826015 0.092369
O O9 0.480594 0.862401 0.194196
O O10 0.500000 0.000000 0.128393
O O11 0.823667 0.708098 0.915887
O O12 0.662305 0.618849 0.916325
O O13 0.773981 0.608435 0.000000
O O14 0.322599 0.088860 0.674130
O O15 0.000000 0.399447 0.750000
O O16 0.505663 0.371558 0.650329
#
# Coordination Sequence:
#
# PCOD9562681 Si02
#       7
#    16  16  16  16  16  16  16
#     4  11  22  40  61  92 126 162 213 264 312 385
#     4   9  19  37  62  89 118 159 203 245 304 373
#     4  11  22  40  64  90 125 170 214 266 314 379
#     4  10  22  40  62  93 128 164 210 264 323 385
#     4  10  23  38  60  90 127 157 200 264 314 367
#     4  11  23  39  64  92 120 167 215 249 317 383
#     4  10  21  41  66  92 125 166 214 269 323 379
#
# _framework density 21.691683000000001
#
# number of rings (size 3 to 8) (size 9 to 14) (size 15 to 20)
#    0.000    1.714    2.857    1.714    2.000    0.857 
#    2.571    1.429    0.000    0.000    0.000    0.000 
#    0.000    0.000    0.000    0.000    0.000    0.000 
#
# Total GULP energy -624585.151240 kJ/mol
# GULP energy per Si atom -5576.653136 kJ/mol
# Density = 2.164231 g / cm^3
# Si number density = 21.691683 Si / 1000 Ang^3
#
#
#
# Elastic Constant Matrix: (Units=GPa)
#
#
# Indices 1 2 3 4 5 6 
#
# 1 67.3162 11.3122 24.4659 0.0000 0.0000 0.0000
# 2 11.3122 67.3162 24.4659 0.0000 0.0000 0.0000
# 3 24.4659 24.4659 125.5240 0.0000 0.0000 0.0000
# 4 0.0000 0.0000 0.0000 22.0765 0.0000 0.0000
# 5 0.0000 0.0000 0.0000 0.0000 22.0765 0.0000
# 6 0.0000 0.0000 0.0000 0.0000 0.0000 25.0706
#
#
#
# Elastic Compliance Matrix: (Units=1/GPa)
#
#
# Indices 1 2 3 4 5 6 
#
# 1 0.016165 -0.001691 -0.002821 0.000000 0.000000 0.000000
# 2 -0.001691 0.016165 -0.002821 0.000000 0.000000 0.000000
# 3 -0.002821 -0.002821 0.009066 0.000000 0.000000 0.000000
# 4 0.000000 0.000000 0.000000 0.045297 0.000000 0.000000
# 5 0.000000 0.000000 0.000000 0.000000 0.045297 0.000000
# 6 0.000000 0.000000 0.000000 0.000000 0.000000 0.039887
#
#
# Mechanical properties :
#
#
# Convention : Reuss Voigt Hill
#
# Bulk Modulus (GPa) = 37.41204 42.29380 39.85292
# Shear Modulus (GPa) = 25.58156 27.17223 26.37690
#
# Velocity S-wave (km/s) = 3.43786 3.54313 3.49089
# Velocity P-wave (km/s) = 5.74831 6.02315 5.88734
#
# Compressibility (1/GPa) = 0.02672937
#
# Stress axis : x y z
#
# Youngs Moduli (GPa) = 61.86302 61.86302 110.29850
#
# Poissons Ratio (x) = 0.10462 0.31116
# Poissons Ratio (y) = 0.10462 0.31116
# Poissons Ratio (z) = 0.17452 0.17452
#
# Static dielectric constant tensor:
#      x y z
#    x 1.860270 0.000000 0.000000 
#    y 0.000000 1.860270 0.000000 
#    z 0.000000 0.000000 1.811190 
# 
# From -- ./inp_files/6113.got.cif
#   From: 2010.05.17/outbox.cif.g08.bks.cpg/sg124_4_cif.got.tgz:6113.got - 2010.05.20 11:49:17.
