data_PCOD9562149
_publ_section_title
;
Structure prediction by ZEFSAII (Michael W. Deem and Ramdas Pophale) SiO2 
 PCOD9562149
Probable space group: P 4/M M M
;
_chemical_formula_sum "Si O2"
_cell_formula_units_Z 116
_cell_length_a 28.811029
_cell_length_b 28.811029
_cell_length_c 7.402376
_cell_angle_alpha 90.000000
_cell_angle_beta 90.000000
_cell_angle_gamma 90.000000
_cell_volume 6144.530160
_symmetry_space_group_name_H-M "P 4/M M M"
_symmetry_group_IT_number 123
_symmetry_cell_setting 'tetragonal'
loop_
_space_group_symop_operation_xyz
x,y,z
-y,x,z
-x,-y,z
y,-x,z
x,-y,-z
-x,y,-z
y,x,-z
-y,-x,-z
-x,-y,-z
y,-x,-z
x,y,-z
-y,x,-z
-x,y,z
x,-y,z
-y,-x,z
y,x,z
loop_
_atom_site_type_symbol
_atom_site_label
_atom_site_fract_x
_atom_site_fract_y
_atom_site_fract_z
Si Si1 0.052414 0.305511 0.218387
Si Si2 0.446937 0.371166 0.220304
Si Si3 0.810989 0.189012 0.000000
Si Si4 0.586745 0.051834 0.781673
Si Si5 0.148862 0.549823 0.290952
Si Si6 0.357046 0.808831 0.292585
Si Si7 0.702726 0.373235 0.218149
Si Si8 0.260744 0.148793 0.709375
O O1 0.059754 0.359426 0.272283
O O2 0.094404 0.274192 0.285446
O O3 0.000000 0.292297 0.274050
O O4 0.053548 0.304674 0.000000
O O5 0.500000 0.373815 0.281046
O O6 0.414616 0.414616 0.275530
O O7 0.420032 0.324154 0.274667
O O8 0.447239 0.371542 0.000000
O O9 0.838124 0.219352 0.841418
O O10 0.555735 0.093564 0.713293
O O11 0.573273 0.000000 0.724399
O O12 0.585246 0.052869 0.000000
O O13 0.164438 0.549150 0.500000
O O14 0.162100 0.500000 0.210861
O O15 0.168901 0.596940 0.207107
O O16 0.355395 0.825464 0.500000
O O17 0.364648 0.753926 0.288006
O O18 0.307231 0.824363 0.220100
O O19 0.668958 0.331043 0.269771
O O20 0.705424 0.373906 0.000000
O O21 0.252053 0.162254 0.500000
#
# Coordination Sequence:
#
# PCOD9562149 Si02
#       8
#    16  16   4  16  16  16  16  16
#     4   9  17  33  58  85 113 150 192 240 296 346
#     4   8  14  26  43  67  95 119 148 189 238 306
#     4  12  26  40  58  82 118 160 180 245 307 350
#     4   9  18  32  52  76 101 130 170 220 275 331
#     4  10  21  36  50  66  94 131 168 212 276 342
#     4  10  22  36  50  71  97 126 172 229 271 329
#     4   9  19  32  49  69  91 122 156 192 246 314
#     4  11  23  38  58  86 115 150 199 243 291 351
#
# _framework density 18.878579999999999
#
# number of rings (size 3 to 8) (size 9 to 14) (size 15 to 20)
#    0.000    2.483    2.069    1.862    1.931    2.621 
#    0.000    3.448    0.000    0.000    0.000    0.000 
#    0.000    0.000    0.000    3.034    0.000    5.793 
#
# Total GULP energy -646331.559395 kJ/mol
# GULP energy per Si atom -5571.823788 kJ/mol
# Density = 1.883561 g / cm^3
# Si number density = 18.878580 Si / 1000 Ang^3
#
#
#
# Elastic Constant Matrix: (Units=GPa)
#
#
# Indices 1 2 3 4 5 6 
#
# 1 79.5427 35.1589 4.9995 0.0000 0.0000 0.0000
# 2 35.1589 79.5437 4.9999 0.0000 0.0000 0.0000
# 3 4.9995 4.9999 82.8752 0.0000 0.0000 0.0000
# 4 0.0000 0.0000 0.0000 15.1071 0.0000 0.0000
# 5 0.0000 0.0000 0.0000 0.0000 15.1061 0.0000
# 6 0.0000 0.0000 0.0000 0.0000 0.0000 15.2719
#
#
#
# Elastic Compliance Matrix: (Units=1/GPa)
#
#
# Indices 1 2 3 4 5 6 
#
# 1 0.015648 -0.006883 -0.000529 0.000000 0.000000 0.000000
# 2 -0.006883 0.015647 -0.000529 0.000000 0.000000 0.000000
# 3 -0.000529 -0.000529 0.012130 0.000000 0.000000 0.000000
# 4 0.000000 0.000000 0.000000 0.066194 0.000000 0.000000
# 5 0.000000 0.000000 0.000000 0.000000 0.066198 0.000000
# 6 0.000000 0.000000 0.000000 0.000000 0.000000 0.065480
#
#
# Mechanical properties :
#
#
# Convention : Reuss Voigt Hill
#
# Bulk Modulus (GPa) = 36.30575 36.91980 36.61277
# Shear Modulus (GPa) = 18.77163 22.21724 20.49443
#
# Velocity S-wave (km/s) = 3.15673 3.43425 3.29841
# Velocity P-wave (km/s) = 5.70609 5.94342 5.82597
#
# Compressibility (1/GPa) = 0.02754385
#
# Stress axis : x y z
#
# Youngs Moduli (GPa) = 63.90796 63.90870 82.43934
#
# Poissons Ratio (x) = 0.43989 0.04358
# Poissons Ratio (y) = 0.43988 0.04359
# Poissons Ratio (z) = 0.03379 0.03379
#
# Static dielectric constant tensor:
#      x y z
#    x 1.647110 0.000000 0.000000 
#    y 0.000000 1.647110 0.000000 
#    z 0.000000 0.000000 1.718950 
# 
# From -- ./inp_files/2074.got.cif
#   From: 2010.05.17/outbox.cif.g08.bks.cpg/sg123_2_cif.got.tgz:2074.got - 2010.05.20 11:43:04.
