data_PCOD9562129
_publ_section_title
;
Structure prediction by ZEFSAII (Michael W. Deem and Ramdas Pophale) SiO2 
 PCOD9562129
Probable space group: P 4/M M M
;
_chemical_formula_sum "Si O2"
_cell_formula_units_Z 72
_cell_length_a 21.530533
_cell_length_b 21.530533
_cell_length_c 7.247079
_cell_angle_alpha 90.000000
_cell_angle_beta 90.000000
_cell_angle_gamma 90.000000
_cell_volume 3359.483852
_symmetry_space_group_name_H-M "P 4/M M M"
_symmetry_group_IT_number 123
_symmetry_cell_setting 'tetragonal'
loop_
_space_group_symop_operation_xyz
x,y,z
-y,x,z
-x,-y,z
y,-x,z
x,-y,-z
-x,y,-z
y,x,-z
-y,-x,-z
-x,-y,-z
y,-x,-z
x,y,-z
-y,x,-z
-x,y,z
x,-y,z
-y,-x,z
y,x,z
loop_
_atom_site_type_symbol
_atom_site_label
_atom_site_fract_x
_atom_site_fract_y
_atom_site_fract_z
Si Si1 0.500000 0.688032 0.775107
Si Si2 0.732606 0.732606 0.777016
Si Si3 0.931029 0.600996 0.223792
Si Si4 0.368342 0.631659 0.225079
Si Si5 0.731310 0.875422 0.221162
Si Si6 0.926642 0.170871 0.500000
Si Si7 0.500000 0.168155 0.775105
O O1 0.563002 0.653222 0.717946
O O2 0.500000 0.760343 0.715767
O O3 0.500000 0.688716 0.000000
O O4 0.682510 0.682510 0.713909
O O5 0.803752 0.718848 0.725439
O O6 0.730537 0.730537 0.000000
O O7 0.916743 0.671902 0.271683
O O8 0.873561 0.558584 0.283056
O O9 0.000000 0.581752 0.285258
O O10 0.931532 0.597233 0.000000
O O11 0.368207 0.631794 0.000000
O O12 0.790953 0.900586 0.325334
O O13 0.739290 0.877243 0.000000
O O14 0.896600 0.103401 0.500000
O O15 0.000000 0.170646 0.500000
O O16 0.500000 0.170236 0.000000
#
# Coordination Sequence:
#
# PCOD9562129 Si02
#       7
#     8   8  16   8  16   8   8
#     4   9  16  24  34  54  91 139 192 244 291 342
#     4   9  16  29  52  77 103 138 184 235 285 338
#     4   9  16  26  44  72 106 143 182 227 281 343
#     4   9  16  25  39  64  99 144 193 242 295 344
#     4  10  20  37  60  87 117 151 193 241 290 339
#     4  12  26  43  64  89 117 149 189 235 287 349
#     4   9  15  24  40  67 103 143 189 238 286 342
#
# _framework density 21.431864000000001
#
# number of rings (size 3 to 8) (size 9 to 14) (size 15 to 20)
#    0.000    2.444    1.111    2.333    0.000    8.333 
#    0.000    1.111    0.000    0.667    0.000    3.889 
#    0.000    0.889    0.000    0.111    0.000   12.444 
#
# Total GULP energy -402435.948791 kJ/mol
# GULP energy per Si atom -5589.388178 kJ/mol
# Density = 2.138308 g / cm^3
# Si number density = 21.431864 Si / 1000 Ang^3
#
#
#
# Elastic Constant Matrix: (Units=GPa)
#
#
# Indices 1 2 3 4 5 6 
#
# 1 186.6604 97.2758 17.9367 0.0000 0.0000 0.0000
# 2 97.2758 186.6640 17.9372 0.0000 0.0000 0.0000
# 3 17.9367 17.9372 97.5223 0.0000 0.0000 0.0000
# 4 0.0000 0.0000 0.0000 -3.8492 0.0000 0.0000
# 5 0.0000 0.0000 0.0000 0.0000 -3.8512 0.0000
# 6 0.0000 0.0000 0.0000 0.0000 0.0000 29.4197
#
#
#
# Elastic Compliance Matrix: (Units=1/GPa)
#
#
# Indices 1 2 3 4 5 6 
#
# 1 0.007397 -0.003791 -0.000663 0.000000 0.000000 0.000000
# 2 -0.003791 0.007396 -0.000663 0.000000 0.000000 0.000000
# 3 -0.000663 -0.000663 0.010498 0.000000 0.000000 0.000000
# 4 0.000000 0.000000 0.000000 -0.259796 0.000000 0.000000
# 5 0.000000 0.000000 0.000000 0.000000 -0.259657 0.000000
# 6 0.000000 0.000000 0.000000 0.000000 0.000000 0.033991
#
#
# Mechanical properties :
#
#
# Convention : Reuss Voigt Hill
#
# Bulk Modulus (GPa) = 66.41579 81.90512 74.16046
# Shear Modulus (GPa) = -11.23803 26.85699 7.80948
#
# Velocity S-wave (km/s) = -2.29238 3.54380 1.91096
# Velocity P-wave (km/s) = 4.90407 7.41918 6.28864
#
# Compressibility (1/GPa) = 0.01505666
#
# Stress axis : x y z
#
# Youngs Moduli (GPa) = 135.19714 135.19967 95.25610
#
# Poissons Ratio (x) = 0.51252 0.06317
# Poissons Ratio (y) = 0.51251 0.06317
# Poissons Ratio (z) = 0.08966 0.08966
#
# Static dielectric constant tensor:
#      x y z
#    x 1.737030 0.000000 0.000000 
#    y 0.000000 1.737030 0.000000 
#    z 0.000000 0.000000 1.817760 
# 
# From -- ./inp_files/1260.got.cif
#   From: 2010.05.17/outbox.cif.g08.bks.cpg/sg123_1_cif.got.tgz:1260.got - 2010.05.20 11:43:04.
