data_PCOD9562479
_publ_section_title
;
Structure prediction by ZEFSAII (Michael W. Deem and Ramdas Pophale) SiO2 
 PCOD9562479
Probable space group: P 4/M C C
;
_chemical_formula_sum "Si O2"
_cell_formula_units_Z 88
_cell_length_a 13.249963
_cell_length_b 13.249963
_cell_length_c 28.994903
_cell_angle_alpha 90.000000
_cell_angle_beta 90.000000
_cell_angle_gamma 90.000000
_cell_volume 5090.389228
_symmetry_space_group_name_H-M "P 4/M C C"
_symmetry_group_IT_number 124
_symmetry_cell_setting 'tetragonal'
loop_
_space_group_symop_operation_xyz
x,y,z
-y,x,z
-x,-y,z
y,-x,z
x,-y,1/2-z
-x,y,1/2-z
y,x,1/2-z
-y,-x,1/2-z
-x,-y,-z
y,-x,-z
x,y,-z
-y,x,-z
-x,y,1/2+z
x,-y,1/2+z
-y,-x,1/2+z
y,x,1/2+z
loop_
_atom_site_type_symbol
_atom_site_label
_atom_site_fract_x
_atom_site_fract_y
_atom_site_fract_z
Si Si1 0.877988 0.120104 0.500000
Si Si2 0.875809 0.389121 0.649931
Si Si3 0.711524 0.120609 0.751898
Si Si4 0.767077 0.774304 0.913513
Si Si5 0.882973 0.617950 0.346125
Si Si6 0.374258 0.597027 0.944919
O O1 0.827898 0.169252 0.545879
O O2 0.998904 0.138316 0.500000
O O3 0.852648 0.348873 0.701478
O O4 0.833125 0.309017 0.613414
O O5 0.842290 0.505433 0.642635
O O6 0.996939 0.388162 0.647684
O O7 0.812420 0.187581 0.750000
O O8 0.644091 0.141595 0.706842
O O9 0.733122 0.000000 0.750000
O O10 0.711996 0.846363 0.876726
O O11 0.672774 0.713780 0.934073
O O12 0.363029 0.482627 0.927650
O O13 0.380194 0.591029 0.000000
#
# Coordination Sequence:
#
# PCOD9562479 Si02
#       6
#     8  16  16  16  16  16
#     4  11  26  44  58  77 110 152 190 233 296 350
#     4  10  21  36  57  85 113 144 184 230 282 338
#     4  10  19  36  57  82 116 150 185 228 280 338
#     4  12  20  37  60  81 109 143 189 235 274 333
#     4  10  21  36  57  85 113 144 184 230 282 338
#     4   9  18  33  53  78 107 139 176 216 265 322
#
# _framework density 17.287479000000001
#
# number of rings (size 3 to 8) (size 9 to 14) (size 15 to 20)
#    0.000    1.727    2.727    3.273    0.000    2.364 
#    0.000    0.000    0.000    4.364    0.000    1.273 
#    0.000    0.000    0.000    0.000    0.000    0.000 
#
# Total GULP energy -490406.345780 kJ/mol
# GULP energy per Si atom -5572.799384 kJ/mol
# Density = 1.724813 g / cm^3
# Si number density = 17.287479 Si / 1000 Ang^3
#
#
#
# Elastic Constant Matrix: (Units=GPa)
#
#
# Indices 1 2 3 4 5 6 
#
# 1 55.4755 23.6840 19.8793 0.0000 0.0000 0.0000
# 2 23.6840 55.4766 19.8778 0.0000 0.0000 0.0000
# 3 19.8793 19.8778 81.2772 0.0000 0.0000 0.0000
# 4 0.0000 0.0000 0.0000 7.5900 0.0000 0.0000
# 5 0.0000 0.0000 0.0000 0.0000 7.5885 0.0000
# 6 0.0000 0.0000 0.0000 0.0000 0.0000 33.8741
#
#
#
# Elastic Compliance Matrix: (Units=1/GPa)
#
#
# Indices 1 2 3 4 5 6 
#
# 1 0.022928 -0.008526 -0.003523 0.000000 0.000000 0.000000
# 2 -0.008526 0.022928 -0.003522 0.000000 0.000000 0.000000
# 3 -0.003523 -0.003522 0.014027 0.000000 0.000000 0.000000
# 4 0.000000 0.000000 0.000000 0.131753 0.000000 0.000000
# 5 0.000000 0.000000 0.000000 0.000000 0.131778 0.000000
# 6 0.000000 0.000000 0.000000 0.000000 0.000000 0.029521
#
#
# Mechanical properties :
#
#
# Convention : Reuss Voigt Hill
#
# Bulk Modulus (GPa) = 34.79399 35.45683 35.12541
# Shear Modulus (GPa) = 12.70142 18.39640 15.54891
#
# Velocity S-wave (km/s) = 2.71351 3.26566 3.00231
# Velocity P-wave (km/s) = 5.47612 5.89695 5.69043
#
# Compressibility (1/GPa) = 0.02874060
#
# Stress axis : x y z
#
# Youngs Moduli (GPa) = 43.61387 43.61552 71.29353
#
# Poissons Ratio (x) = 0.37188 0.25115
# Poissons Ratio (y) = 0.37187 0.25109
# Poissons Ratio (z) = 0.15364 0.15361
#
# Static dielectric constant tensor:
#      x y z
#    x 1.584740 0.000000 0.000000 
#    y 0.000000 1.584740 0.000000 
#    z 0.000000 0.000000 1.600980 
# 
# From -- ./inp_files/7076.got.cif
#   From: 2010.05.17/outbox.cif.g08.bks.cpg/sg124_4_cif.got.tgz:7076.got - 2010.05.20 11:49:17.
