data_PCOD9562717
_publ_section_title
;
Structure prediction by ZEFSAII (Michael W. Deem and Ramdas Pophale) SiO2 
 PCOD9562717
Probable space group: P 4/M C C
;
_chemical_formula_sum "Si O2"
_cell_formula_units_Z 40
_cell_length_a 8.129059
_cell_length_b 8.129059
_cell_length_c 27.616688
_cell_angle_alpha 90.000000
_cell_angle_beta 90.000000
_cell_angle_gamma 90.000000
_cell_volume 1824.954936
_symmetry_space_group_name_H-M "P 4/M C C"
_symmetry_group_IT_number 124
_symmetry_cell_setting 'tetragonal'
loop_
_space_group_symop_operation_xyz
x,y,z
-y,x,z
-x,-y,z
y,-x,z
x,-y,1/2-z
-x,y,1/2-z
y,x,1/2-z
-y,-x,1/2-z
-x,-y,-z
y,-x,-z
x,y,-z
-y,x,-z
-x,y,1/2+z
x,-y,1/2+z
-y,-x,1/2+z
y,x,1/2+z
loop_
_atom_site_type_symbol
_atom_site_label
_atom_site_fract_x
_atom_site_fract_y
_atom_site_fract_z
Si Si1 0.500000 0.000000 0.085047
Si Si2 0.302893 0.302893 0.250000
Si Si3 0.876199 0.758628 0.649477
Si Si4 0.733767 0.073824 0.000000
O O1 0.407328 0.137414 0.118173
O O2 0.624135 0.088829 0.047721
O O3 0.500000 0.279358 0.250000
O O4 0.186879 0.260293 0.295603
O O5 0.068616 0.790981 0.638573
O O6 0.888485 0.194035 0.000000
#
# Coordination Sequence:
#
# PCOD9562717 Si02
#       4
#     8   8  16   8
#     4  11  22  38  67 100 134 178 235 301 362 430
#     4  11  24  41  62  94 136 177 224 295 368 432
#     4  11  23  40  64  93 128 178 237 290 353 431
#     4  10  22  42  68 100 138 180 234 297 364 441
#
# _framework density 21.918351000000001
#
# number of rings (size 3 to 8) (size 9 to 14) (size 15 to 20)
#    0.000    1.200    0.000    6.000    0.000    6.400 
#    0.000    0.000    0.000   40.800    0.000    0.000 
#    0.000    0.000    0.000    0.000    0.000    0.000 
#
# Total GULP energy -222731.768815 kJ/mol
# GULP energy per Si atom -5568.294220 kJ/mol
# Density = 2.186846 g / cm^3
# Si number density = 21.918351 Si / 1000 Ang^3
#
#
#
# Elastic Constant Matrix: (Units=GPa)
#
#
# Indices 1 2 3 4 5 6 
#
# 1 97.1972 38.7653 64.8260 0.0000 0.0000 0.0000
# 2 38.7653 97.1972 64.8260 0.0000 0.0000 0.0000
# 3 64.8260 64.8260 198.0096 0.0000 0.0000 0.0000
# 4 0.0000 0.0000 0.0000 20.0676 0.0000 0.0000
# 5 0.0000 0.0000 0.0000 0.0000 20.0676 0.0000
# 6 0.0000 0.0000 0.0000 0.0000 0.0000 38.7337
#
#
#
# Elastic Compliance Matrix: (Units=1/GPa)
#
#
# Indices 1 2 3 4 5 6 
#
# 1 0.013904 -0.003210 -0.003501 0.000000 0.000000 0.000000
# 2 -0.003210 0.013904 -0.003501 0.000000 0.000000 0.000000
# 3 -0.003501 -0.003501 0.007343 0.000000 0.000000 0.000000
# 4 0.000000 0.000000 0.000000 0.049832 0.000000 0.000000
# 5 0.000000 0.000000 0.000000 0.000000 0.049832 0.000000
# 6 0.000000 0.000000 0.000000 0.000000 0.000000 0.025817
#
#
# Mechanical properties :
#
#
# Convention : Reuss Voigt Hill
#
# Bulk Modulus (GPa) = 67.90823 81.02652 74.46737
# Shear Modulus (GPa) = 26.88708 30.70623 28.79666
#
# Velocity S-wave (km/s) = 3.50622 3.74697 3.62859
# Velocity P-wave (km/s) = 6.88775 7.46776 7.18361
#
# Compressibility (1/GPa) = 0.01472576
#
# Stress axis : x y z
#
# Youngs Moduli (GPa) = 71.92356 71.92356 136.19240
#
# Poissons Ratio (x) = 0.23090 0.47679
# Poissons Ratio (y) = 0.23090 0.47679
# Poissons Ratio (z) = 0.25180 0.25180
#
# Static dielectric constant tensor:
#      x y z
#    x 1.913780 0.000000 0.000000 
#    y 0.000000 1.913780 0.000000 
#    z 0.000000 0.000000 1.858770 
# 
# From -- ./inp_files/5709.got.cif
#   From: 2010.05.17/outbox.cif.g08.bks.cpg/sg124_3_cif.got.tgz:5709.got - 2010.05.20 11:49:17.
