data_PCOD9562106
_publ_section_title
;
Structure prediction by ZEFSAII (Michael W. Deem and Ramdas Pophale) SiO2 
 PCOD9562106
Probable space group: P 4/M M M
;
_chemical_formula_sum "Si O2"
_cell_formula_units_Z 56
_cell_length_a 19.661447
_cell_length_b 19.661447
_cell_length_c 7.934153
_cell_angle_alpha 90.000000
_cell_angle_beta 90.000000
_cell_angle_gamma 90.000000
_cell_volume 3067.125346
_symmetry_space_group_name_H-M "P 4/M M M"
_symmetry_group_IT_number 123
_symmetry_cell_setting 'tetragonal'
loop_
_space_group_symop_operation_xyz
x,y,z
-y,x,z
-x,-y,z
y,-x,z
x,-y,-z
-x,y,-z
y,x,-z
-y,-x,-z
-x,-y,-z
y,-x,-z
x,y,-z
-y,x,-z
-x,y,z
x,-y,z
-y,-x,z
y,x,z
loop_
_atom_site_type_symbol
_atom_site_label
_atom_site_fract_x
_atom_site_fract_y
_atom_site_fract_z
Si Si1 0.842638 0.576989 0.198903
Si Si2 0.081721 0.806538 0.000000
Si Si3 0.918739 0.290236 0.312748
Si Si4 0.576924 0.313134 0.704099
O O1 0.857759 0.500000 0.260099
O O2 0.883290 0.637206 0.286378
O O3 0.762256 0.588306 0.225767
O O4 0.857824 0.579415 0.000000
O O5 0.100066 0.761641 0.164266
O O6 0.124401 0.875600 0.000000
O O7 0.000000 0.817625 0.000000
O O8 0.902187 0.264107 0.500000
O O9 0.000000 0.299742 0.301756
O O10 0.579995 0.308937 0.500000
O O11 0.500000 0.334119 0.749764
O O12 0.632937 0.367064 0.760921
#
# Coordination Sequence:
#
# PCOD9562106 Si02
#       4
#    16   8  16  16
#     4  10  20  34  53  78 111 150 190 232 278 331
#     4  10  22  41  63  89 119 149 186 232 282 338
#     4  10  21  38  60  86 117 152 189 228 273 329
#     4   9  18  32  49  70  98 134 179 231 283 333
#
# _framework density 18.258139
#
# number of rings (size 3 to 8) (size 9 to 14) (size 15 to 20)
#    0.000    2.286    1.429    0.857    0.000    5.000 
#    0.000    4.286    0.000    0.000    0.000    8.000 
#    0.000    0.000    0.000    0.000    0.000    0.000 
#
# Total GULP energy -312506.248731 kJ/mol
# GULP energy per Si atom -5580.468727 kJ/mol
# Density = 1.821658 g / cm^3
# Si number density = 18.258139 Si / 1000 Ang^3
#
#
#
# Elastic Constant Matrix: (Units=GPa)
#
#
# Indices 1 2 3 4 5 6 
#
# 1 53.2386 46.9028 40.2736 0.0000 0.0000 0.0000
# 2 46.9028 53.2303 40.2718 0.0000 0.0000 0.0000
# 3 40.2736 40.2718 97.8221 0.0000 0.0000 0.0000
# 4 0.0000 0.0000 0.0000 15.5797 0.0000 0.0000
# 5 0.0000 0.0000 0.0000 0.0000 15.5791 0.0000
# 6 0.0000 0.0000 0.0000 0.0000 0.0000 46.6796
#
#
#
# Elastic Compliance Matrix: (Units=1/GPa)
#
#
# Indices 1 2 3 4 5 6 
#
# 1 0.086426 -0.071504 -0.006145 0.000000 0.000000 0.000000
# 2 -0.071504 0.086442 -0.006149 0.000000 0.000000 0.000000
# 3 -0.006145 -0.006149 0.015284 0.000000 0.000000 0.000000
# 4 0.000000 0.000000 0.000000 0.064186 0.000000 0.000000
# 5 0.000000 0.000000 0.000000 0.000000 0.064188 0.000000
# 6 0.000000 0.000000 0.000000 0.000000 0.000000 0.021423
#
#
# Mechanical properties :
#
#
# Convention : Reuss Voigt Hill
#
# Bulk Modulus (GPa) = 48.64374 51.02082 49.83228
# Shear Modulus (GPa) = 9.75806 20.69053 15.22430
#
# Velocity S-wave (km/s) = 2.31433 3.36999 2.89075
# Velocity P-wave (km/s) = 5.81735 6.56866 6.20438
#
# Compressibility (1/GPa) = 0.02055763
#
# Stress axis : x y z
#
# Youngs Moduli (GPa) = 11.57057 11.56841 65.42880
#
# Poissons Ratio (x) = 0.82719 0.40205
# Poissons Ratio (y) = 0.82734 0.40230
# Poissons Ratio (z) = 0.07110 0.07113
#
# Static dielectric constant tensor:
#      x y z
#    x 1.595780 0.000000 0.000000 
#    y 0.000000 1.595780 0.000000 
#    z 0.000000 0.000000 1.661990 
# 
# From -- ./inp_files/576.got.cif
#   From: 2010.05.17/outbox.cif.g08.bks.cpg/sg123_1_cif.got.tgz:576.got - 2010.05.20 11:43:04.
