data_PCOD9562992
_publ_section_title
;
Structure prediction by ZEFSAII (Michael W. Deem and Ramdas Pophale) SiO2 
 PCOD9562992
Probable space group: P 4/N B M
;
_chemical_formula_sum "Si O2"
_cell_formula_units_Z 96
_cell_length_a 22.091126
_cell_length_b 22.091126
_cell_length_c 9.802112
_cell_angle_alpha 90.000000
_cell_angle_beta 90.000000
_cell_angle_gamma 90.000000
_cell_volume 4783.605604
_symmetry_space_group_name_H-M "P 4/N B M"
_symmetry_group_IT_number 125
_space_group.IT_coordinate_system_code '2'
_symmetry_cell_setting 'tetragonal'
loop_
_space_group_symop_operation_xyz
x,y,z
1/2-y,x,z
1/2-x,1/2-y,z
y,1/2-x,z
x,1/2-y,-z
1/2-x,y,-z
y,x,-z
1/2-y,1/2-x,-z
-x,-y,-z
1/2+y,-x,-z
1/2+x,1/2+y,-z
-y,1/2+x,-z
-x,1/2+y,z
1/2+x,-y,z
-y,-x,z
1/2+y,1/2+x,z
loop_
_atom_site_type_symbol
_atom_site_label
_atom_site_fract_x
_atom_site_fract_y
_atom_site_fract_z
Si Si1 0.981223 0.379009 0.280748
Si Si2 0.306528 0.120099 0.408355
Si Si3 0.884148 0.617641 0.160103
Si Si4 0.815062 0.409385 0.064974
Si Si5 0.619706 0.472585 0.181887
Si Si6 0.479266 0.811696 0.441437
O O1 0.941575 0.441575 0.259372
O O2 0.942253 0.326264 0.207632
O O3 0.048884 0.372736 0.215687
O O4 0.983104 0.362062 0.440097
O O5 0.250000 0.144840 0.500000
O O6 0.364901 0.135100 0.500000
O O7 0.329513 0.142263 0.259508
O O8 0.295684 0.048521 0.399225
O O9 0.956168 0.621521 0.175186
O O10 0.871463 0.628538 0.000000
O O11 0.842775 0.342775 0.073802
O O12 0.750000 0.410397 0.000000
O O13 0.856024 0.447148 0.959358
O O14 0.552640 0.447361 0.203701
O O15 0.660855 0.449763 0.306657
O O16 0.451692 0.750000 0.500000
#
# Coordination Sequence:
#
# PCOD9562992 Si02
#       6
#    16  16  16  16  16  16
#     4  11  21  34  57  86 118 151 192 245 300 364
#     4  10  21  39  59  82 113 149 196 240 287 347
#     4  11  21  37  56  88 122 155 191 236 304 367
#     4  10  21  36  54  80 113 153 199 243 298 356
#     4  10  20  33  53  80 114 153 191 238 301 363
#     4  10  20  35  55  78 113 150 194 241 287 350
#
# _framework density 20.068545
#
# number of rings (size 3 to 8) (size 9 to 14) (size 15 to 20)
#    0.000    1.667    3.333    2.000    0.000    1.000 
#    0.000    3.333    0.000    0.000    0.000    1.167 
#    0.000   12.000    0.000    0.000    0.000    0.000 
#
# Total GULP energy -534495.930588 kJ/mol
# GULP energy per Si atom -5567.665944 kJ/mol
# Density = 2.002287 g / cm^3
# Si number density = 20.068545 Si / 1000 Ang^3
#
#
#
# Elastic Constant Matrix: (Units=GPa)
#
#
# Indices 1 2 3 4 5 6 
#
# 1 50.6431 7.2874 5.0543 0.0000 0.0000 0.0000
# 2 7.2874 50.6476 5.0549 0.0000 0.0000 0.0000
# 3 5.0543 5.0549 118.1760 0.0000 0.0000 0.0000
# 4 0.0000 0.0000 0.0000 20.8443 0.0000 0.0000
# 5 0.0000 0.0000 0.0000 0.0000 20.8443 0.0000
# 6 0.0000 0.0000 0.0000 0.0000 0.0000 3.8941
#
#
#
# Elastic Compliance Matrix: (Units=1/GPa)
#
#
# Indices 1 2 3 4 5 6 
#
# 1 0.020228 -0.002836 -0.000744 0.000000 0.000000 0.000000
# 2 -0.002836 0.020227 -0.000744 0.000000 0.000000 0.000000
# 3 -0.000744 -0.000744 0.008526 0.000000 0.000000 0.000000
# 4 0.000000 0.000000 0.000000 0.047975 0.000000 0.000000
# 5 0.000000 0.000000 0.000000 0.000000 0.047975 0.000000
# 6 0.000000 0.000000 0.000000 0.000000 0.000000 0.256799
#
#
# Mechanical properties :
#
#
# Convention : Reuss Voigt Hill
#
# Bulk Modulus (GPa) = 24.79384 28.25109 26.52247
# Shear Modulus (GPa) = 11.79741 22.58789 17.19265
#
# Velocity S-wave (km/s) = 2.42720 3.35854 2.93011
# Velocity P-wave (km/s) = 4.49850 5.39885 4.96911
#
# Compressibility (1/GPa) = 0.04033259
#
# Stress axis : x y z
#
# Youngs Moduli (GPa) = 49.43545 49.43980 117.29393
#
# Poissons Ratio (x) = 0.14023 0.08725
# Poissons Ratio (y) = 0.14021 0.08725
# Poissons Ratio (z) = 0.03677 0.03678
#
# Static dielectric constant tensor:
#      x y z
#    x 1.740790 0.000000 0.000000 
#    y 0.000000 1.740780 0.000000 
#    z 0.000000 0.000000 2.186030 
# 
# From -- ./inp_files/2865.got.cif
#   From: 2010.05.17/outbox.cif.g08.bks.cpg/sg125_2_cif.got.tgz:2865.got - 2010.05.20 11:54:10.
