data_PCOD9562821
_publ_section_title
;
Structure prediction by ZEFSAII (Michael W. Deem and Ramdas Pophale) SiO2 
 PCOD9562821
Probable space group: P 4/M C C
;
_chemical_formula_sum "Si O2"
_cell_formula_units_Z 80
_cell_length_a 10.464231
_cell_length_b 10.464231
_cell_length_c 32.124972
_cell_angle_alpha 90.000000
_cell_angle_beta 90.000000
_cell_angle_gamma 90.000000
_cell_volume 3517.688624
_symmetry_space_group_name_H-M "P 4/M C C"
_symmetry_group_IT_number 124
_symmetry_cell_setting 'tetragonal'
loop_
_space_group_symop_operation_xyz
x,y,z
-y,x,z
-x,-y,z
y,-x,z
x,-y,1/2-z
-x,y,1/2-z
y,x,1/2-z
-y,-x,1/2-z
-x,-y,-z
y,-x,-z
x,y,-z
-y,x,-z
-x,y,1/2+z
x,-y,1/2+z
-y,-x,1/2+z
y,x,1/2+z
loop_
_atom_site_type_symbol
_atom_site_label
_atom_site_fract_x
_atom_site_fract_y
_atom_site_fract_z
Si Si1 0.900847 0.185085 0.322931
Si Si2 0.536071 0.290092 0.625445
Si Si3 0.185765 0.098461 0.576499
Si Si4 0.851495 0.462781 0.294303
Si Si5 0.851633 0.536704 0.045522
O O1 0.894130 0.200064 0.373215
O O2 0.845194 0.311016 0.302082
O O3 0.051173 0.167007 0.312123
O O4 0.640729 0.399164 0.625783
O O5 0.538448 0.207470 0.666964
O O6 0.540268 0.210667 0.583232
O O7 0.311850 0.153012 0.555278
O O8 0.051885 0.166812 0.565807
O O9 0.792917 0.500000 0.250000
O O10 0.000000 0.500000 0.293718
O O11 0.000000 0.500000 0.044999
O O12 0.795313 0.509848 0.000000
#
# Coordination Sequence:
#
# PCOD9562821 Si02
#       5
#    16  16  16  16  16
#     4   9  19  38  69 102 135 177 219 268 336 405
#     4  11  27  48  71  94 128 183 228 276 331 383
#     4   9  19  36  64 101 136 174 214 263 331 396
#     4  11  25  43  68 103 133 174 221 270 337 398
#     4  11  25  41  66  99 132 174 223 275 336 395
#
# _framework density 22.742204999999998
#
# number of rings (size 3 to 8) (size 9 to 14) (size 15 to 20)
#    0.000    1.800    2.000    1.800    5.600    2.400 
#    3.600    3.000    0.000    4.800    0.000    0.000 
#    0.000    0.000    0.000    0.000    0.000    0.000 
#
# Total GULP energy -448098.466348 kJ/mol
# GULP energy per Si atom -5601.230829 kJ/mol
# Density = 2.269044 g / cm^3
# Si number density = 22.742205 Si / 1000 Ang^3
#
#
#
# Elastic Constant Matrix: (Units=GPa)
#
#
# Indices 1 2 3 4 5 6 
#
# 1 55.6224 -3.3060 26.8859 0.0000 0.0000 0.0000
# 2 -3.3060 55.6224 26.8859 0.0000 0.0000 0.0000
# 3 26.8859 26.8859 144.2791 0.0000 0.0000 0.0000
# 4 0.0000 0.0000 0.0000 22.1829 0.0000 0.0000
# 5 0.0000 0.0000 0.0000 0.0000 22.1829 0.0000
# 6 0.0000 0.0000 0.0000 0.0000 0.0000 27.6236
#
#
#
# Elastic Compliance Matrix: (Units=1/GPa)
#
#
# Indices 1 2 3 4 5 6 
#
# 1 0.020306 0.003337 -0.004406 0.000000 0.000000 0.000000
# 2 0.003337 0.020306 -0.004406 0.000000 0.000000 0.000000
# 3 -0.004406 -0.004406 0.008573 0.000000 0.000000 0.000000
# 4 0.000000 0.000000 0.000000 0.045080 0.000000 0.000000
# 5 0.000000 0.000000 0.000000 0.000000 0.045080 0.000000
# 6 0.000000 0.000000 0.000000 0.000000 0.000000 0.036201
#
#
# Mechanical properties :
#
#
# Convention : Reuss Voigt Hill
#
# Bulk Modulus (GPa) = 26.15364 39.60615 32.87989
# Shear Modulus (GPa) = 25.09519 28.06840 26.58179
#
# Velocity S-wave (km/s) = 3.32545 3.51693 3.42253
# Velocity P-wave (km/s) = 5.12541 5.82621 5.48701
#
# Compressibility (1/GPa) = 0.03823560
#
# Stress axis : x y z
#
# Youngs Moduli (GPa) = 49.24587 49.24587 116.64530
#
# Poissons Ratio (x) = -0.16431 0.51391
# Poissons Ratio (y) = -0.16431 0.51391
# Poissons Ratio (z) = 0.21696 0.21696
#
# Static dielectric constant tensor:
#      x y z
#    x 1.838540 0.000000 0.000000 
#    y 0.000000 1.838540 0.000000 
#    z 0.000000 0.000000 1.871790 
# 
# From -- ./inp_files/6918.got.cif
#   From: 2010.05.17/outbox.cif.g08.bks.cpg/sg124_4_cif.got.tgz:6918.got - 2010.05.20 11:49:17.
