data_PCOD9562877
_publ_section_title
;
Structure prediction by ZEFSAII (Michael W. Deem and Ramdas Pophale) SiO2 
 PCOD9562877
Probable space group: P 4/N B M
;
_chemical_formula_sum "Si O2"
_cell_formula_units_Z 112
_cell_length_a 21.774039
_cell_length_b 21.774039
_cell_length_c 16.899132
_cell_angle_alpha 90.000000
_cell_angle_beta 90.000000
_cell_angle_gamma 90.000000
_cell_volume 8012.026760
_symmetry_space_group_name_H-M "P 4/N B M"
_symmetry_group_IT_number 125
_space_group.IT_coordinate_system_code '2'
_symmetry_cell_setting 'tetragonal'
loop_
_space_group_symop_operation_xyz
x,y,z
1/2-y,x,z
1/2-x,1/2-y,z
y,1/2-x,z
x,1/2-y,-z
1/2-x,y,-z
y,x,-z
1/2-y,1/2-x,-z
-x,-y,-z
1/2+y,-x,-z
1/2+x,1/2+y,-z
-y,1/2+x,-z
-x,1/2+y,z
1/2+x,-y,z
-y,-x,z
1/2+y,1/2+x,z
loop_
_atom_site_type_symbol
_atom_site_label
_atom_site_fract_x
_atom_site_fract_y
_atom_site_fract_z
Si Si1 0.657807 0.053492 0.778897
Si Si2 0.426323 0.469358 0.691270
Si Si3 0.197806 0.697806 0.814475
Si Si4 0.781283 0.113027 0.082646
Si Si5 0.029458 0.630723 0.458082
Si Si6 0.198127 0.698127 0.631962
Si Si7 0.377260 0.980553 0.642564
Si Si8 0.746276 0.429614 0.369113
O O1 0.603985 0.103985 0.779569
O O2 0.689354 0.059287 0.864231
O O3 0.703688 0.075451 0.709095
O O4 0.626313 0.989400 0.753158
O O5 0.480799 0.519202 0.700821
O O6 0.397584 0.482592 0.605083
O O7 0.461488 0.404981 0.689143
O O8 0.250000 0.750000 0.810100
O O9 0.143107 0.728493 0.862792
O O10 0.183224 0.683224 0.724112
O O11 0.833637 0.166364 0.069989
O O12 0.750000 0.096169 0.000000
O O13 0.093339 0.593339 0.446465
O O14 0.009573 0.619316 0.547659
O O15 0.041004 0.700925 0.433715
O O16 0.250000 0.750000 0.626772
O O17 0.134946 0.726129 0.600072
O O18 0.420941 0.920941 0.658733
O O19 0.306024 0.967673 0.656342
#
# Coordination Sequence:
#
# PCOD9562877 Si02
#       8
#    16  16   8  16  16   8  16  16
#     4   9  17  28  41  56  76 104 135 164 201 245
#     4   8  15  28  43  54  65  95 133 174 210 235
#     4   9  16  22  32  50  75 105 135 163 189 231
#     4  10  16  22  34  55  81 106 133 167 203 240
#     4   9  17  28  41  52  71  98 132 170 208 242
#     4  11  18  26  36  48  76 117 143 155 191 248
#     4  10  18  27  38  54  74  95 133 173 207 232
#     4  11  18  26  36  55  77 104 132 165 199 246
#
# _framework density 13.978985
#
# number of rings (size 3 to 8) (size 9 to 14) (size 15 to 20)
#    0.000    2.429    2.857    3.000    0.000    1.714 
#    0.000    0.000    0.000    0.000    0.000    1.000 
#    0.000   14.857    0.000   22.857    0.000    0.000 
#
# Total GULP energy -623568.123226 kJ/mol
# GULP energy per Si atom -5567.572529 kJ/mol
# Density = 1.394717 g / cm^3
# Si number density = 13.978985 Si / 1000 Ang^3
#
#
#
# Elastic Constant Matrix: (Units=GPa)
#
#
# Indices 1 2 3 4 5 6 
#
# 1 49.9001 34.0126 9.7733 0.0000 0.0000 0.0000
# 2 34.0126 49.9001 9.7733 0.0000 0.0000 0.0000
# 3 9.7733 9.7733 47.5231 0.0000 0.0000 0.0000
# 4 0.0000 0.0000 0.0000 11.2182 0.0000 0.0000
# 5 0.0000 0.0000 0.0000 0.0000 11.2182 0.0000
# 6 0.0000 0.0000 0.0000 0.0000 0.0000 17.6363
#
#
#
# Elastic Compliance Matrix: (Units=1/GPa)
#
#
# Indices 1 2 3 4 5 6 
#
# 1 0.037730 -0.025213 -0.002574 0.000000 0.000000 0.000000
# 2 -0.025213 0.037730 -0.002574 0.000000 0.000000 0.000000
# 3 -0.002574 -0.002574 0.022101 0.000000 0.000000 0.000000
# 4 0.000000 0.000000 0.000000 0.089141 0.000000 0.000000
# 5 0.000000 0.000000 0.000000 0.000000 0.089141 0.000000
# 6 0.000000 0.000000 0.000000 0.000000 0.000000 0.056701
#
#
# Mechanical properties :
#
#
# Convention : Reuss Voigt Hill
#
# Bulk Modulus (GPa) = 27.14574 28.27130 27.70852
# Shear Modulus (GPa) = 12.32906 14.26545 13.29726
#
# Velocity S-wave (km/s) = 2.97302 3.19798 3.08755
# Velocity P-wave (km/s) = 5.58984 5.82273 5.70747
#
# Compressibility (1/GPa) = 0.03683819
#
# Stress axis : x y z
#
# Youngs Moduli (GPa) = 26.50431 26.50431 45.24648
#
# Poissons Ratio (x) = 0.66825 0.11647
# Poissons Ratio (y) = 0.66825 0.11647
# Poissons Ratio (z) = 0.06823 0.06823
#
# Static dielectric constant tensor:
#      x y z
#    x 1.473020 0.000000 0.000000 
#    y 0.000000 1.473020 0.000000 
#    z 0.000000 0.000000 1.482350 
# 
# From -- ./inp_files/5611.got.cif
#   From: 2010.05.17/outbox.cif.g08.bks.cpg/sg125_3_cif.got.tgz:5611.got - 2010.05.20 11:54:10.
