data_PCOD9562552
_publ_section_title
;
Structure prediction by ZEFSAII (Michael W. Deem and Ramdas Pophale) SiO2 
 PCOD9562552
Probable space group: P 4/M C C
;
_chemical_formula_sum "Si O2"
_cell_formula_units_Z 116
_cell_length_a 17.610341
_cell_length_b 17.610341
_cell_length_c 19.095484
_cell_angle_alpha 90.000000
_cell_angle_beta 90.000000
_cell_angle_gamma 90.000000
_cell_volume 5921.969983
_symmetry_space_group_name_H-M "P 4/M C C"
_symmetry_group_IT_number 124
_symmetry_cell_setting 'tetragonal'
loop_
_space_group_symop_operation_xyz
x,y,z
-y,x,z
-x,-y,z
y,-x,z
x,-y,1/2-z
-x,y,1/2-z
y,x,1/2-z
-y,-x,1/2-z
-x,-y,-z
y,-x,-z
x,y,-z
-y,x,-z
-x,y,1/2+z
x,-y,1/2+z
-y,-x,1/2+z
y,x,1/2+z
loop_
_atom_site_type_symbol
_atom_site_label
_atom_site_fract_x
_atom_site_fract_y
_atom_site_fract_z
Si Si1 0.884300 0.582047 0.656468
Si Si2 0.977164 0.308498 0.330475
Si Si3 0.724186 0.191347 0.417600
Si Si4 0.845560 0.583182 0.178094
Si Si5 0.000000 0.000000 0.615597
Si Si6 0.173428 0.044329 0.083674
Si Si7 0.701233 0.667166 0.829749
Si Si8 0.602380 0.424121 0.920958
O O1 0.837216 0.641858 0.610391
O O2 0.857950 0.582333 0.737690
O O3 0.876034 0.492920 0.640661
O O4 0.967553 0.619537 0.653544
O O5 0.894388 0.342931 0.341329
O O6 0.000000 0.288443 0.250000
O O7 0.991535 0.235501 0.378223
O O8 0.720380 0.205356 0.500000
O O9 0.788409 0.127295 0.405340
O O10 0.739370 0.265945 0.373610
O O11 0.757023 0.595480 0.164716
O O12 0.033875 0.088318 0.611722
O O13 0.170437 0.029829 0.000000
O O14 0.691582 0.691582 0.750000
O O15 0.620195 0.649905 0.863830
O O16 0.601585 0.514670 0.914202
O O17 0.628016 0.404810 0.000000
#
# Coordination Sequence:
#
# PCOD9562552 Si02
#       8
#    16  16  16  16   4  16  16  16
#     4   9  18  37  61  87 116 154 199 244 295 356
#     4   9  19  38  62  90 122 159 191 241 300 351
#     4  10  22  41  60  83 119 159 196 249 316 362
#     4  10  20  34  59  90 120 153 200 242 288 356
#     4  12  25  44  69  94 117 160 209 246 293 364
#     4  10  22  41  65  88 117 156 202 248 296 357
#     4  12  24  36  57  87 122 158 202 254 301 351
#     4   9  21  42  63  84 116 159 204 251 304 357
#
# _framework density 19.588076000000001
#
# number of rings (size 3 to 8) (size 9 to 14) (size 15 to 20)
#    0.000    2.069    1.379    1.862    3.862    2.207 
#    0.000    3.793    0.000    3.310    0.000    0.000 
#    0.000    0.000    0.000    0.000    0.000    0.000 
#
# Total GULP energy -645795.838875 kJ/mol
# GULP energy per Si atom -5567.205508 kJ/mol
# Density = 1.954349 g / cm^3
# Si number density = 19.588076 Si / 1000 Ang^3
#
#
#
# Elastic Constant Matrix: (Units=GPa)
#
#
# Indices 1 2 3 4 5 6 
#
# 1 94.3296 22.2438 39.4132 0.0000 0.0000 0.0000
# 2 22.2438 94.3296 39.4132 0.0000 0.0000 0.0000
# 3 39.4132 39.4132 49.6014 0.0000 0.0000 0.0000
# 4 0.0000 0.0000 0.0000 211.7357 0.0000 0.0000
# 5 0.0000 0.0000 0.0000 0.0000 211.7357 0.0000
# 6 0.0000 0.0000 0.0000 0.0000 0.0000 19.3287
#
#
#
# Elastic Compliance Matrix: (Units=1/GPa)
#
#
# Indices 1 2 3 4 5 6 
#
# 1 0.016206 0.002334 -0.014732 0.000000 0.000000 0.000000
# 2 0.002334 0.016206 -0.014732 0.000000 0.000000 0.000000
# 3 -0.014732 -0.014732 0.043572 0.000000 0.000000 0.000000
# 4 0.000000 0.000000 0.000000 0.004723 0.000000 0.000000
# 5 0.000000 0.000000 0.000000 0.000000 0.004723 0.000000
# 6 0.000000 0.000000 0.000000 0.000000 0.000000 0.051737
#
#
# Mechanical properties :
#
#
# Convention : Reuss Voigt Hill
#
# Bulk Modulus (GPa) = 46.02970 48.93346 47.48158
# Shear Modulus (GPa) = 25.16767 97.70603 61.43685
#
# Velocity S-wave (km/s) = 3.58836 7.07027 5.60647
# Velocity P-wave (km/s) = 6.38109 9.57533 8.13650
#
# Compressibility (1/GPa) = 0.02172510
#
# Stress axis : x y z
#
# Youngs Moduli (GPa) = 61.70532 61.70532 22.95039
#
# Poissons Ratio (x) = -0.14400 0.33810
# Poissons Ratio (y) = -0.14400 0.33810
# Poissons Ratio (z) = 0.90902 0.90902
#
# Static dielectric constant tensor:
#      x y z
#    x 1.706830 0.000000 0.000000 
#    y 0.000000 1.706830 0.000000 
#    z 0.000000 0.000000 1.668220 
# 
# From -- ./inp_files/4440.got.cif
#   From: 2010.05.17/outbox.cif.g08.bks.cpg/sg124_3_cif.got.tgz:4440.got - 2010.05.20 11:49:17.
