data_PCOD9562125
_publ_section_title
;
Structure prediction by ZEFSAII (Michael W. Deem and Ramdas Pophale) SiO2 
 PCOD9562125
Probable space group: P 4/M M M
;
_chemical_formula_sum "Si O2"
_cell_formula_units_Z 72
_cell_length_a 23.223345
_cell_length_b 23.223345
_cell_length_c 7.548163
_cell_angle_alpha 90.000000
_cell_angle_beta 90.000000
_cell_angle_gamma 90.000000
_cell_volume 4070.903597
_symmetry_space_group_name_H-M "P 4/M M M"
_symmetry_group_IT_number 123
_symmetry_cell_setting 'tetragonal'
loop_
_space_group_symop_operation_xyz
x,y,z
-y,x,z
-x,-y,z
y,-x,z
x,-y,-z
-x,y,-z
y,x,-z
-y,-x,-z
-x,-y,-z
y,-x,-z
x,y,-z
-y,x,-z
-x,y,z
x,-y,z
-y,-x,z
y,x,z
loop_
_atom_site_type_symbol
_atom_site_label
_atom_site_fract_x
_atom_site_fract_y
_atom_site_fract_z
Si Si1 0.728413 0.183027 0.287586
Si Si2 0.677786 0.936538 0.788596
Si Si3 0.335069 0.430922 0.000000
Si Si4 0.388470 0.753719 0.705853
Si Si5 0.124479 0.437221 0.214992
O O1 0.726787 0.186108 0.500000
O O2 0.785820 0.214181 0.223027
O O3 0.720616 0.116412 0.242906
O O4 0.673203 0.220940 0.228852
O O5 0.615826 0.914137 0.720973
O O6 0.692742 0.000000 0.719948
O O7 0.672386 0.940988 0.000000
O O8 0.296498 0.411816 0.169437
O O9 0.343286 0.500000 0.000000
O O10 0.393745 0.393745 0.000000
O O11 0.383601 0.736029 0.500000
O O12 0.428393 0.810367 0.719526
O O13 0.102588 0.500000 0.266220
O O14 0.126699 0.434689 0.000000
#
# Coordination Sequence:
#
# PCOD9562125 Si02
#       5
#    16  16   8  16  16
#     4   9  18  32  51  75  99 126 165 210 255 299
#     4   9  18  30  43  65  99 137 171 201 240 291
#     4  12  26  41  58  78  99 127 163 203 254 316
#     4  10  20  36  57  81 106 128 158 207 262 309
#     4   9  16  28  47  71 100 134 171 206 240 282
#
# _framework density 17.686489000000002
#
# number of rings (size 3 to 8) (size 9 to 14) (size 15 to 20)
#    0.000    2.444    1.111    1.333    1.556    4.556 
#    0.000    2.222    0.000    0.000    0.000    7.778 
#    0.000    0.444    0.000    4.889    0.000    3.556 
#
# Total GULP energy -401596.254561 kJ/mol
# GULP energy per Si atom -5577.725758 kJ/mol
# Density = 1.764623 g / cm^3
# Si number density = 17.686489 Si / 1000 Ang^3
#
#
#
# Elastic Constant Matrix: (Units=GPa)
#
#
# Indices 1 2 3 4 5 6 
#
# 1 123.7230 89.1664 20.8977 0.0000 0.0000 0.0000
# 2 89.1664 123.7230 20.8977 0.0000 0.0000 0.0000
# 3 20.8977 20.8977 67.6357 0.0000 0.0000 0.0000
# 4 0.0000 0.0000 0.0000 6.2662 0.0000 0.0000
# 5 0.0000 0.0000 0.0000 0.0000 6.2662 0.0000
# 6 0.0000 0.0000 0.0000 0.0000 0.0000 7.6562
#
#
#
# Elastic Compliance Matrix: (Units=1/GPa)
#
#
# Indices 1 2 3 4 5 6 
#
# 1 0.016969 -0.011969 -0.001545 0.000000 0.000000 0.000000
# 2 -0.011969 0.016969 -0.001545 0.000000 0.000000 0.000000
# 3 -0.001545 -0.001545 0.015740 0.000000 0.000000 0.000000
# 4 0.000000 0.000000 0.000000 0.159587 0.000000 0.000000
# 5 0.000000 0.000000 0.000000 0.000000 0.159587 0.000000
# 6 0.000000 0.000000 0.000000 0.000000 0.000000 0.130613
#
#
# Mechanical properties :
#
#
# Convention : Reuss Voigt Hill
#
# Bulk Modulus (GPa) = 51.12256 64.11171 57.61714
# Shear Modulus (GPa) = 9.32656 16.31237 12.81946
#
# Velocity S-wave (km/s) = 2.29885 3.04025 2.69516
# Velocity P-wave (km/s) = 6.00116 6.97508 6.50637
#
# Compressibility (1/GPa) = 0.01956083
#
# Stress axis : x y z
#
# Youngs Moduli (GPa) = 58.92991 58.92991 63.53294
#
# Poissons Ratio (x) = 0.70531 0.09816
# Poissons Ratio (y) = 0.70531 0.09816
# Poissons Ratio (z) = 0.09105 0.09105
#
# Static dielectric constant tensor:
#      x y z
#    x 1.618720 0.000000 0.000000 
#    y 0.000000 1.618720 0.000000 
#    z 0.000000 0.000000 1.662800 
# 
# From -- ./inp_files/1307.got.cif
#   From: 2010.05.17/outbox.cif.g08.bks.cpg/sg123_1_cif.got.tgz:1307.got - 2010.05.20 11:43:04.
