data_PCOD9562074
_publ_section_title
;
Structure prediction by ZEFSAII (Michael W. Deem and Ramdas Pophale) SiO2 
 PCOD9562074
Probable space group: P 4/M M M
;
_chemical_formula_sum "Si O2"
_cell_formula_units_Z 96
_cell_length_a 20.627381
_cell_length_b 20.627381
_cell_length_c 11.985490
_cell_angle_alpha 90.000000
_cell_angle_beta 90.000000
_cell_angle_gamma 90.000000
_cell_volume 5099.692320
_symmetry_space_group_name_H-M "P 4/M M M"
_symmetry_group_IT_number 123
_symmetry_cell_setting 'tetragonal'
loop_
_space_group_symop_operation_xyz
x,y,z
-y,x,z
-x,-y,z
y,-x,z
x,-y,-z
-x,y,-z
y,x,-z
-y,-x,-z
-x,-y,-z
y,-x,-z
x,y,-z
-y,x,-z
-x,y,z
x,-y,z
-y,-x,z
y,x,z
loop_
_atom_site_type_symbol
_atom_site_label
_atom_site_fract_x
_atom_site_fract_y
_atom_site_fract_z
Si Si1 0.071353 0.693417 0.716024
Si Si2 0.097121 0.425995 0.873692
Si Si3 0.786866 0.682022 0.628284
Si Si4 0.820257 0.073556 0.868340
Si Si5 0.424997 0.244343 0.192588
Si Si6 0.379906 0.620095 0.122173
Si Si7 0.422858 0.422858 0.375149
O O1 0.072632 0.627710 0.788756
O O2 0.136245 0.692520 0.643049
O O3 0.078852 0.754386 0.799068
O O4 0.000000 0.698577 0.661476
O O5 0.079160 0.500000 0.843911
O O6 0.175432 0.422855 0.869342
O O7 0.075882 0.413035 0.000000
O O8 0.772923 0.669366 0.500000
O O9 0.745031 0.745031 0.663802
O O10 0.764681 0.621070 0.701018
O O11 0.873226 0.126775 0.835080
O O12 0.845424 0.000000 0.853568
O O13 0.806333 0.082120 0.000000
O O14 0.500000 0.257624 0.221152
O O15 0.396916 0.304143 0.124091
O O16 0.401016 0.598985 0.249624
O O17 0.405584 0.594417 0.000000
O O18 0.500000 0.411204 0.376658
O O19 0.398484 0.398484 0.500000
#
# Coordination Sequence:
#
# PCOD9562074 Si02
#       7
#    16  16  16  16  16   8   8
#     4  10  20  33  52  79 110 140 174 225 286 340
#     4   9  18  33  52  74 105 145 184 219 261 326
#     4  10  21  39  61  82 106 142 191 238 281 340
#     4   9  17  29  46  71 105 145 185 224 270 330
#     4  10  21  37  56  81 114 148 184 232 289 344
#     4  12  23  35  57  88 118 148 188 242 301 351
#     4   9  20  38  54  70 100 144 190 234 284 345
#
# _framework density 18.824665
#
# number of rings (size 3 to 8) (size 9 to 14) (size 15 to 20)
#    0.000    2.250    0.833    2.250    0.000    4.833 
#    0.000    2.083    0.000    0.000    0.000    4.667 
#    0.000    0.000    0.000   15.500    0.000    0.167 
#
# Total GULP energy -535035.223977 kJ/mol
# GULP energy per Si atom -5573.283583 kJ/mol
# Density = 1.878182 g / cm^3
# Si number density = 18.824665 Si / 1000 Ang^3
#
#
#
# Elastic Constant Matrix: (Units=GPa)
#
#
# Indices 1 2 3 4 5 6 
#
# 1 91.5327 42.8084 36.3439 0.0000 0.0000 0.0000
# 2 42.8084 91.5331 36.3442 0.0000 0.0000 0.0000
# 3 36.3439 36.3442 94.9095 0.0000 0.0000 0.0000
# 4 0.0000 0.0000 0.0000 8.1366 0.0000 0.0000
# 5 0.0000 0.0000 0.0000 0.0000 8.1361 0.0000
# 6 0.0000 0.0000 0.0000 0.0000 0.0000 17.1177
#
#
#
# Elastic Compliance Matrix: (Units=1/GPa)
#
#
# Indices 1 2 3 4 5 6 
#
# 1 0.014956 -0.005567 -0.003595 0.000000 0.000000 0.000000
# 2 -0.005567 0.014956 -0.003595 0.000000 0.000000 0.000000
# 3 -0.003595 -0.003595 0.013290 0.000000 0.000000 0.000000
# 4 0.000000 0.000000 0.000000 0.122901 0.000000 0.000000
# 5 0.000000 0.000000 0.000000 0.000000 0.122908 0.000000
# 6 0.000000 0.000000 0.000000 0.000000 0.000000 0.058419
#
#
# Mechanical properties :
#
#
# Convention : Reuss Voigt Hill
#
# Bulk Modulus (GPa) = 56.54018 56.55203 56.54611
# Shear Modulus (GPa) = 13.19810 17.51002 15.35406
#
# Velocity S-wave (km/s) = 2.65071 3.05317 2.85903
# Velocity P-wave (km/s) = 6.28242 6.52195 6.40330
#
# Compressibility (1/GPa) = 0.01768654
#
# Stress axis : x y z
#
# Youngs Moduli (GPa) = 66.86126 66.86141 75.24480
#
# Poissons Ratio (x) = 0.37223 0.27053
# Poissons Ratio (y) = 0.37223 0.27054
# Poissons Ratio (z) = 0.24039 0.24040
#
# Static dielectric constant tensor:
#      x y z
#    x 1.656880 0.000000 0.000000 
#    y 0.000000 1.656880 0.000000 
#    z 0.000000 0.000000 1.649140 
# 
# From -- ./inp_files/3199.got.cif
#   From: 2010.05.17/outbox.cif.g08.bks.cpg/sg123_2_cif.got.tgz:3199.got - 2010.05.20 11:43:04.
