data_PCOD9562322
_publ_section_title
;
Structure prediction by ZEFSAII (Michael W. Deem and Ramdas Pophale) SiO2 
 PCOD9562322
Probable space group: P 4/M C C
;
_chemical_formula_sum "Si O2"
_cell_formula_units_Z 112
_cell_length_a 16.897245
_cell_length_b 16.897245
_cell_length_c 23.076156
_cell_angle_alpha 90.000000
_cell_angle_beta 90.000000
_cell_angle_gamma 90.000000
_cell_volume 6588.632262
_symmetry_space_group_name_H-M "P 4/M C C"
_symmetry_group_IT_number 124
_symmetry_cell_setting 'tetragonal'
loop_
_space_group_symop_operation_xyz
x,y,z
-y,x,z
-x,-y,z
y,-x,z
x,-y,1/2-z
-x,y,1/2-z
y,x,1/2-z
-y,-x,1/2-z
-x,-y,-z
y,-x,-z
x,y,-z
-y,x,-z
-x,y,1/2+z
x,-y,1/2+z
-y,-x,1/2+z
y,x,1/2+z
loop_
_atom_site_type_symbol
_atom_site_label
_atom_site_fract_x
_atom_site_fract_y
_atom_site_fract_z
Si Si1 0.913488 0.461631 0.934306
Si Si2 0.726472 0.713912 0.565011
Si Si3 0.591963 0.092715 0.235666
Si Si4 0.426531 0.396267 0.081869
Si Si5 0.169119 0.356986 0.657629
Si Si6 0.592070 0.190162 0.879578
Si Si7 0.480862 0.690482 0.683658
O O1 0.895403 0.400382 0.883106
O O2 0.847265 0.528198 0.922923
O O3 0.000000 0.500000 0.928013
O O4 0.905984 0.430327 0.000000
O O5 0.757276 0.724997 0.500000
O O6 0.674083 0.632188 0.564341
O O7 0.791583 0.706275 0.615265
O O8 0.667368 0.782655 0.584574
O O9 0.500000 0.117109 0.250000
O O10 0.655176 0.130731 0.279906
O O11 0.605828 0.125518 0.171175
O O12 0.594079 0.000000 0.250000
O O13 0.518685 0.393546 0.062904
O O14 0.442274 0.383663 0.150615
O O15 0.240496 0.416099 0.674647
O O16 0.556070 0.268794 0.848593
O O17 0.500000 0.676213 0.750000
#
# Coordination Sequence:
#
# PCOD9562322 Si02
#       7
#    16  16  16  16  16  16  16
#     4  10  19  31  51  75  98 126 169 227 274 314
#     4  11  24  37  51  66  94 139 179 221 276 326
#     4  11  19  32  55  80 102 123 155 215 283 333
#     4  10  21  35  44  59  83 118 178 233 274 309
#     4  10  19  33  48  71  97 126 164 210 266 327
#     4  11  19  34  50  71  95 127 164 211 268 334
#     4  10  17  31  46  64  86 115 155 208 275 321
#
# _framework density 16.998975999999999
#
# number of rings (size 3 to 8) (size 9 to 14) (size 15 to 20)
#    0.000    1.571    5.714    1.714    0.000    1.714 
#    0.000    1.429    0.000    0.000    0.000    0.000 
#    0.000    0.000    0.000    0.000    0.000   29.286 
#
# Total GULP energy -624101.143015 kJ/mol
# GULP energy per Si atom -5572.331634 kJ/mol
# Density = 1.696029 g / cm^3
# Si number density = 16.998976 Si / 1000 Ang^3
#
#
#
# Elastic Constant Matrix: (Units=GPa)
#
#
# Indices 1 2 3 4 5 6 
#
# 1 37.0725 -0.8266 2.1569 0.0000 0.0000 0.0000
# 2 -0.8266 37.0725 2.1569 0.0000 0.0000 0.0000
# 3 2.1569 2.1569 88.1690 0.0000 0.0000 0.0000
# 4 0.0000 0.0000 0.0000 12.4494 0.0000 0.0000
# 5 0.0000 0.0000 0.0000 0.0000 12.4494 0.0000
# 6 0.0000 0.0000 0.0000 0.0000 0.0000 9.4244
#
#
#
# Elastic Compliance Matrix: (Units=1/GPa)
#
#
# Indices 1 2 3 4 5 6 
#
# 1 0.027028 0.000642 -0.000677 0.000000 0.000000 0.000000
# 2 0.000642 0.027028 -0.000677 0.000000 0.000000 0.000000
# 3 -0.000677 -0.000677 0.011375 0.000000 0.000000 0.000000
# 4 0.000000 0.000000 0.000000 0.080325 0.000000 0.000000
# 5 0.000000 0.000000 0.000000 0.000000 0.080325 0.000000
# 6 0.000000 0.000000 0.000000 0.000000 0.000000 0.106108
#
#
# Mechanical properties :
#
#
# Convention : Reuss Voigt Hill
#
# Bulk Modulus (GPa) = 15.62324 18.80982 17.21653
# Shear Modulus (GPa) = 14.08653 17.45306 15.76980
#
# Velocity S-wave (km/s) = 2.88179 3.20771 3.04911
# Velocity P-wave (km/s) = 4.50373 4.98081 4.74827
#
# Compressibility (1/GPa) = 0.06400721
#
# Stress axis : x y z
#
# Youngs Moduli (GPa) = 36.99882 36.99882 87.91230
#
# Poissons Ratio (x) = -0.02375 0.05951
# Poissons Ratio (y) = -0.02375 0.05951
# Poissons Ratio (z) = 0.02504 0.02504
#
# Static dielectric constant tensor:
#      x y z
#    x 1.593450 0.000000 0.000000 
#    y 0.000000 1.593450 0.000000 
#    z 0.000000 0.000000 1.637600 
# 
# From -- ./inp_files/5540.got.cif
#   From: 2010.05.17/outbox.cif.g08.bks.cpg/sg124_3_cif.got.tgz:5540.got - 2010.05.20 11:49:17.
