data_PCOD9562659
_publ_section_title
;
Structure prediction by ZEFSAII (Michael W. Deem and Ramdas Pophale) SiO2 
 PCOD9562659
Probable space group: P 4/M C C
;
_chemical_formula_sum "Si O2"
_cell_formula_units_Z 96
_cell_length_a 15.931443
_cell_length_b 15.931443
_cell_length_c 14.943163
_cell_angle_alpha 90.000000
_cell_angle_beta 90.000000
_cell_angle_gamma 90.000000
_cell_volume 3792.737292
_symmetry_space_group_name_H-M "P 4/M C C"
_symmetry_group_IT_number 124
_symmetry_cell_setting 'tetragonal'
loop_
_space_group_symop_operation_xyz
x,y,z
-y,x,z
-x,-y,z
y,-x,z
x,-y,1/2-z
-x,y,1/2-z
y,x,1/2-z
-y,-x,1/2-z
-x,-y,-z
y,-x,-z
x,y,-z
-y,x,-z
-x,y,1/2+z
x,-y,1/2+z
-y,-x,1/2+z
y,x,1/2+z
loop_
_atom_site_type_symbol
_atom_site_label
_atom_site_fract_x
_atom_site_fract_y
_atom_site_fract_z
Si Si1 0.869496 0.956496 0.391796
Si Si2 0.743649 0.697981 0.100314
Si Si3 0.022999 0.318842 0.852509
Si Si4 0.841541 0.352551 0.896552
Si Si5 0.591210 0.400985 0.642446
Si Si6 0.846422 0.456079 0.393989
O O1 0.869853 0.955126 0.500000
O O2 0.773159 0.934521 0.364557
O O3 0.947843 0.896475 0.363289
O O4 0.721788 0.785577 0.146645
O O5 0.649183 0.664072 0.095613
O O6 0.787333 0.617778 0.146017
O O7 0.781237 0.708985 0.000000
O O8 0.067331 0.404646 0.884548
O O9 0.000000 0.329684 0.750000
O O10 0.934567 0.317539 0.900192
O O11 0.841372 0.448446 0.858155
O O12 0.815118 0.358128 0.000000
O O13 0.613947 0.495474 0.617689
O O14 0.601684 0.398317 0.750000
O O15 0.827082 0.462772 0.500000
#
# Coordination Sequence:
#
# PCOD9562659 Si02
#       6
#    16  16  16  16  16  16
#     4   9  20  41  69  97 126 164 207 250 303 368
#     4  10  21  37  61  90 115 145 196 259 306 350
#     4  12  26  40  61  92 128 163 204 253 304 365
#     4  10  22  41  63  88 121 162 209 258 308 364
#     4   9  18  32  50  76 114 157 193 229 286 357
#     4  10  22  41  63  88 121 162 209 258 308 364
#
# _framework density 25.311536
#
# number of rings (size 3 to 8) (size 9 to 14) (size 15 to 20)
#    0.000    2.000    0.000    4.000    2.333    6.667 
#    0.000    1.667    0.000    0.000    0.000    0.000 
#    0.000    0.000    0.000    0.000    0.000    0.000 
#
# Total GULP energy -535580.782064 kJ/mol
# GULP energy per Si atom -5578.966480 kJ/mol
# Density = 2.525393 g / cm^3
# Si number density = 25.311536 Si / 1000 Ang^3
#
#
#
# Elastic Constant Matrix: (Units=GPa)
#
#
# Indices 1 2 3 4 5 6 
#
# 1 214.6564 -130.0668 1.6374 0.0000 0.0000 0.0000
# 2 -130.0668 214.6558 1.6324 0.0000 0.0000 0.0000
# 3 1.6374 1.6324 42.5441 0.0000 0.0000 0.0000
# 4 0.0000 0.0000 0.0000 23.6550 0.0000 0.0000
# 5 0.0000 0.0000 0.0000 0.0000 23.6542 0.0000
# 6 0.0000 0.0000 0.0000 0.0000 0.0000 30.3721
#
#
#
# Elastic Compliance Matrix: (Units=1/GPa)
#
#
# Indices 1 2 3 4 5 6 
#
# 1 0.007370 0.004469 -0.000455 0.000000 0.000000 0.000000
# 2 0.004469 0.007370 -0.000455 0.000000 0.000000 0.000000
# 3 -0.000455 -0.000455 0.023540 0.000000 0.000000 0.000000
# 4 0.000000 0.000000 0.000000 0.042274 0.000000 0.000000
# 5 0.000000 0.000000 0.000000 0.000000 0.042276 0.000000
# 6 0.000000 0.000000 0.000000 0.000000 0.000000 0.032925
#
#
# Mechanical properties :
#
#
# Convention : Reuss Voigt Hill
#
# Bulk Modulus (GPa) = 22.02695 24.25137 23.13916
# Shear Modulus (GPa) = 30.53069 55.44649 42.98859
#
# Velocity S-wave (km/s) = 3.47680 4.68542 4.12561
# Velocity P-wave (km/s) = 4.98385 6.23481 5.64410
#
# Compressibility (1/GPa) = 0.04539892
#
# Stress axis : x y z
#
# Youngs Moduli (GPa) = 135.68258 135.68249 42.48092
#
# Poissons Ratio (x) = -0.60640 0.01933
# Poissons Ratio (y) = -0.60640 0.01932
# Poissons Ratio (z) = 0.06175 0.06171
#
# Static dielectric constant tensor:
#      x y z
#    x 2.185920 0.000000 0.000000 
#    y 0.000000 2.185920 0.000000 
#    z 0.000000 0.000000 2.340060 
# 
# From -- ./inp_files/5345.got.cif
#   From: 2010.05.17/outbox.cif.g08.bks.cpg/sg124_3_cif.got.tgz:5345.got - 2010.05.20 11:49:17.
