data_PCOD9562105
_publ_section_title
;
Structure prediction by ZEFSAII (Michael W. Deem and Ramdas Pophale) SiO2 
 PCOD9562105
Probable space group: P 4/M M M
;
_chemical_formula_sum "Si O2"
_cell_formula_units_Z 64
_cell_length_a 12.939174
_cell_length_b 12.939174
_cell_length_c 22.808027
_cell_angle_alpha 90.000000
_cell_angle_beta 90.000000
_cell_angle_gamma 90.000000
_cell_volume 3818.570601
_symmetry_space_group_name_H-M "P 4/M M M"
_symmetry_group_IT_number 123
_symmetry_cell_setting 'tetragonal'
loop_
_space_group_symop_operation_xyz
x,y,z
-y,x,z
-x,-y,z
y,-x,z
x,-y,-z
-x,y,-z
y,x,-z
-y,-x,-z
-x,-y,-z
y,-x,-z
x,y,-z
-y,x,-z
-x,y,z
x,-y,z
-y,-x,z
y,x,z
loop_
_atom_site_type_symbol
_atom_site_label
_atom_site_fract_x
_atom_site_fract_y
_atom_site_fract_z
Si Si1 0.206963 0.377459 0.243931
Si Si2 0.706424 0.121139 0.638048
Si Si3 0.711881 0.885886 0.000000
Si Si4 0.500000 0.874670 0.567263
Si Si5 0.380842 0.208333 0.888032
O O1 0.218571 0.500000 0.253809
O O2 0.315881 0.315881 0.246905
O O3 0.136605 0.328302 0.294366
O O4 0.165646 0.362388 0.177654
O O5 0.803523 0.196478 0.626672
O O6 0.605739 0.154882 0.600350
O O7 0.728227 0.000000 0.626591
O O8 0.645828 0.866859 0.058654
O O9 0.802475 0.802475 0.000000
O O10 0.755156 0.000000 0.000000
O O11 0.500000 0.839343 0.500000
O O12 0.500000 0.000000 0.567581
O O13 0.500000 0.239005 0.891193
O O14 0.307255 0.307255 0.894778
#
# Coordination Sequence:
#
# PCOD9562105 Si02
#       5
#    16  16   8   8  16
#     4   9  17  30  49  74 103 135 170 209 253 301
#     4  10  20  34  53  78 108 140 176 216 258 306
#     4  10  21  36  50  66  90 120 161 210 256 304
#     4   9  18  34  56  79 103 134 172 211 251 299
#     4   9  18  31  48  72 101 131 164 202 246 298
#
# _framework density 16.760197000000002
#
# number of rings (size 3 to 8) (size 9 to 14) (size 15 to 20)
#    0.000    2.625    1.250    0.375    0.000    3.375 
#    0.000    5.000    0.000    2.625    0.000   11.375 
#    0.000    0.000    0.000    0.000    0.000    0.000 
#
# Total GULP energy -356436.564113 kJ/mol
# GULP energy per Si atom -5569.321314 kJ/mol
# Density = 1.672205 g / cm^3
# Si number density = 16.760197 Si / 1000 Ang^3
#
#
#
# Elastic Constant Matrix: (Units=GPa)
#
#
# Indices 1 2 3 4 5 6 
#
# 1 82.6824 32.2258 41.2532 0.0000 0.0000 0.0000
# 2 32.2258 82.6824 41.2532 0.0000 0.0000 0.0000
# 3 41.2532 41.2532 106.9148 0.0000 0.0000 0.0000
# 4 0.0000 0.0000 0.0000 18.0402 0.0000 0.0000
# 5 0.0000 0.0000 0.0000 0.0000 18.0402 0.0000
# 6 0.0000 0.0000 0.0000 0.0000 0.0000 7.6213
#
#
#
# Elastic Compliance Matrix: (Units=1/GPa)
#
#
# Indices 1 2 3 4 5 6 
#
# 1 0.015928 -0.003891 -0.004645 0.000000 0.000000 0.000000
# 2 -0.003891 0.015928 -0.004645 0.000000 0.000000 0.000000
# 3 -0.004645 -0.004645 0.012938 0.000000 0.000000 0.000000
# 4 0.000000 0.000000 0.000000 0.055432 0.000000 0.000000
# 5 0.000000 0.000000 0.000000 0.000000 0.055432 0.000000
# 6 0.000000 0.000000 0.000000 0.000000 0.000000 0.131211
#
#
# Mechanical properties :
#
#
# Convention : Reuss Voigt Hill
#
# Bulk Modulus (GPa) = 54.24786 55.74931 54.99858
# Shear Modulus (GPa) = 15.65564 19.24350 17.44957
#
# Velocity S-wave (km/s) = 3.05961 3.39214 3.23016
# Velocity P-wave (km/s) = 6.70216 6.97691 6.84092
#
# Compressibility (1/GPa) = 0.01843391
#
# Stress axis : x y z
#
# Youngs Moduli (GPa) = 62.78127 62.78127 77.29424
#
# Poissons Ratio (x) = 0.24426 0.35901
# Poissons Ratio (y) = 0.24426 0.35901
# Poissons Ratio (z) = 0.29160 0.29160
#
# Static dielectric constant tensor:
#      x y z
#    x 1.539480 0.000000 0.000000 
#    y 0.000000 1.539480 0.000000 
#    z 0.000000 0.000000 1.600310 
# 
# From -- ./inp_files/7039.got.cif
#   From: 2010.05.17/outbox.cif.g08.bks.cpg/sg123_4_cif.got.tgz:7039.got - 2010.05.20 11:43:04.
