data_PCOD9562300
_publ_section_title
;
Structure prediction by ZEFSAII (Michael W. Deem and Ramdas Pophale) SiO2 
 PCOD9562300
Probable space group: P 4/M M M
;
_chemical_formula_sum "Si O2"
_cell_formula_units_Z 56
_cell_length_a 18.000000
_cell_length_b 18.000000
_cell_length_c 9.000000
_cell_angle_alpha 90.000000
_cell_angle_beta 90.000000
_cell_angle_gamma 90.000000
_cell_volume 2916.000000
_symmetry_space_group_name_H-M "P 4/M M M"
_symmetry_group_IT_number 123
_symmetry_cell_setting 'tetragonal'
loop_
_space_group_symop_operation_xyz
x,y,z
-y,x,z
-x,-y,z
y,-x,z
x,-y,-z
-x,y,-z
y,x,-z
-y,-x,-z
-x,-y,-z
y,-x,-z
x,y,-z
-y,x,-z
-x,y,z
x,-y,z
-y,-x,z
y,x,z
loop_
_atom_site_type_symbol
_atom_site_label
_atom_site_fract_x
_atom_site_fract_y
_atom_site_fract_z
Si Si1 0.000000 0.412215 0.168826
Si Si2 0.624275 0.500000 0.335776
Si Si3 0.913106 0.204997 0.680579
Si Si4 0.231402 0.500000 0.827383
Si Si5 0.362367 0.148894 0.677551
O O1 0.069781 0.390678 0.266504
O O2 0.000000 0.500000 0.152302
O O3 0.000000 0.380355 0.000000
O O4 0.571160 0.571160 0.330158
O O5 0.661922 0.500000 0.500000
O O6 0.681430 0.500000 0.203002
O O7 0.916360 0.205867 0.500000
O O8 0.870703 0.129298 0.725771
O O9 0.859532 0.275038 0.720714
O O10 0.000000 0.211716 0.731009
O O11 0.202893 0.577071 0.753064
O O12 0.209655 0.500000 0.000000
O O13 0.366120 0.158797 0.500000
#
# Coordination Sequence:
#
# PCOD9562300 Si02
#       5
#     8   8  16   8  16
#     4  11  21  33  53  81 111 146 185 235 290 350
#     4   9  20  42  69  91 113 150 201 249 290 336
#     4   9  18  33  54  83 115 147 191 247 303 355
#     4  12  25  38  56  90 127 160 196 240 293 352
#     4  11  21  35  56  83 114 154 196 237 288 352
#
# _framework density 19.20439
#
# number of rings (size 3 to 8) (size 9 to 14) (size 15 to 20)
#    0.000    1.714    2.857    3.000    0.000    2.571 
#    0.000    5.000    0.000    2.571    0.000    0.000 
#    0.000    1.143    0.000    0.000    0.000    0.000 
#
# Total GULP energy -311799.701256 kJ/mol
# GULP energy per Si atom -5567.851808 kJ/mol
# Density = 1.916068 g / cm^3
# Si number density = 19.204390 Si / 1000 Ang^3
#
#
#
# Elastic Constant Matrix: (Units=GPa)
#
#
# Indices 1 2 3 4 5 6 
#
# 1 93.6024 38.3092 20.8179 0.0000 0.0000 0.0000
# 2 38.3092 93.6024 20.8179 0.0000 0.0000 0.0000
# 3 20.8179 20.8179 52.8148 0.0000 0.0000 0.0000
# 4 0.0000 0.0000 0.0000 -12.4377 0.0000 0.0000
# 5 0.0000 0.0000 0.0000 0.0000 -12.4377 0.0000
# 6 0.0000 0.0000 0.0000 0.0000 0.0000 -67.3750
#
#
#
# Elastic Compliance Matrix: (Units=1/GPa)
#
#
# Indices 1 2 3 4 5 6 
#
# 1 0.013372 -0.004714 -0.003413 0.000000 0.000000 0.000000
# 2 -0.004714 0.013372 -0.003413 0.000000 0.000000 0.000000
# 3 -0.003413 -0.003413 0.021624 0.000000 0.000000 0.000000
# 4 0.000000 0.000000 0.000000 -0.080400 0.000000 0.000000
# 5 0.000000 0.000000 0.000000 0.000000 -0.080400 0.000000
# 6 0.000000 0.000000 0.000000 0.000000 0.000000 -0.014842
#
#
# Mechanical properties :
#
#
# Convention : Reuss Voigt Hill
#
# Bulk Modulus (GPa) = 39.54190 44.43438 41.98814
# Shear Modulus (GPa) = -52.20992 -7.77847 -29.99419
#
# Velocity S-wave (km/s) = -5.21972 -2.01473 -3.95630
# Velocity P-wave (km/s) = 3.96138 4.21612 1.02056
#
# Compressibility (1/GPa) = 0.02528963
#
# Stress axis : x y z
#
# Youngs Moduli (GPa) = 74.78476 74.78476 46.24394
#
# Poissons Ratio (x) = 0.35251 0.15782
# Poissons Ratio (y) = 0.35251 0.15782
# Poissons Ratio (z) = 0.25522 0.25522
#
# Static dielectric constant tensor:
#      x y z
#    x 1.633100 0.000000 0.000000 
#    y 0.000000 1.633100 0.000000 
#    z 0.000000 0.000000 1.669290 
# 
# From -- ./inp_files/622.got.cif
#   From: 2010.05.17/outbox.ucp.g08.bks.cvg/sg123_1_cif.got.tgz:622.got - 2010.06.11 11:35:48.
