data_PCOD9562335
_publ_section_title
;
Structure prediction by ZEFSAII (Michael W. Deem and Ramdas Pophale) SiO2 
 PCOD9562335
Probable space group: P 4/M C C
;
_chemical_formula_sum "Si O2"
_cell_formula_units_Z 128
_cell_length_a 20.705497
_cell_length_b 20.705497
_cell_length_c 24.844789
_cell_angle_alpha 90.000000
_cell_angle_beta 90.000000
_cell_angle_gamma 90.000000
_cell_volume 10651.398462
_symmetry_space_group_name_H-M "P 4/M C C"
_symmetry_group_IT_number 124
_symmetry_cell_setting 'tetragonal'
loop_
_space_group_symop_operation_xyz
x,y,z
-y,x,z
-x,-y,z
y,-x,z
x,-y,1/2-z
-x,y,1/2-z
y,x,1/2-z
-y,-x,1/2-z
-x,-y,-z
y,-x,-z
x,y,-z
-y,x,-z
-x,y,1/2+z
x,-y,1/2+z
-y,-x,1/2+z
y,x,1/2+z
loop_
_atom_site_type_symbol
_atom_site_label
_atom_site_fract_x
_atom_site_fract_y
_atom_site_fract_z
Si Si1 0.808265 0.435129 0.327688
Si Si2 0.392856 0.710897 0.264239
Si Si3 0.605507 0.622908 0.937637
Si Si4 0.421618 0.073903 0.251957
Si Si5 0.827970 0.409941 0.165230
Si Si6 0.746102 0.563123 0.938766
Si Si7 0.408573 0.768711 0.559278
Si Si8 0.537708 0.598943 0.172096
O O1 0.748337 0.420191 0.287843
O O2 0.874616 0.408177 0.300547
O O3 0.816115 0.512790 0.328728
O O4 0.789246 0.413725 0.388157
O O5 0.331085 0.668916 0.250000
O O6 0.377081 0.767866 0.305465
O O7 0.440094 0.661506 0.295405
O O8 0.671544 0.583119 0.929609
O O9 0.622544 0.698655 0.930916
O O10 0.552982 0.607754 0.891666
O O11 0.583301 0.613882 0.000000
O O12 0.500000 0.071697 0.250000
O O13 0.396395 0.108029 0.197968
O O14 0.399037 0.000000 0.250000
O O15 0.821960 0.393519 0.103266
O O16 0.753111 0.485419 0.938656
O O17 0.763124 0.584806 0.000000
O O18 0.391876 0.790872 0.500000
O O19 0.464273 0.580646 0.185258
#
# Coordination Sequence:
#
# PCOD9562335 Si02
#       8
#    16  16  16  16  16  16  16  16
#     4   9  18  28  41  57  69  86 113 138 176 224
#     4  11  21  27  39  47  66  90 114 148 182 223
#     4  10  18  28  41  50  60  88 126 160 193 222
#     4   8  14  26  43  60  75  87 102 127 163 216
#     4   9  17  28  40  56  67  87 112 136 177 216
#     4   9  17  28  41  53  65  85 115 153 189 222
#     4   9  16  26  38  51  66  85 114 149 179 212
#     4  11  24  32  34  44  63  89 121 162 201 228
#
# _framework density 12.017201999999999
#
# number of rings (size 3 to 8) (size 9 to 14) (size 15 to 20)
#    0.000    2.500    1.250    2.625    5.250    1.500 
#    0.000    1.250    0.000    0.750    0.000    5.250 
#    0.000    0.000    0.000    0.000    0.000    0.000 
#
# Total GULP energy -712820.203942 kJ/mol
# GULP energy per Si atom -5568.907843 kJ/mol
# Density = 1.198985 g / cm^3
# Si number density = 12.017202 Si / 1000 Ang^3
#
#
#
# Elastic Constant Matrix: (Units=GPa)
#
#
# Indices 1 2 3 4 5 6 
#
# 1 50.7421 11.6705 27.4258 0.0000 0.0000 0.0000
# 2 11.6705 50.7429 27.4263 0.0000 0.0000 0.0000
# 3 27.4258 27.4263 84.8227 0.0000 0.0000 0.0000
# 4 0.0000 0.0000 0.0000 7.8776 0.0000 0.0000
# 5 0.0000 0.0000 0.0000 0.0000 7.8782 0.0000
# 6 0.0000 0.0000 0.0000 0.0000 0.0000 3.5175
#
#
#
# Elastic Compliance Matrix: (Units=1/GPa)
#
#
# Indices 1 2 3 4 5 6 
#
# 1 0.023988 -0.001606 -0.007237 0.000000 0.000000 0.000000
# 2 -0.001606 0.023988 -0.007237 0.000000 0.000000 0.000000
# 3 -0.007237 -0.007237 0.016469 0.000000 0.000000 0.000000
# 4 0.000000 0.000000 0.000000 0.126941 0.000000 0.000000
# 5 0.000000 0.000000 0.000000 0.000000 0.126932 0.000000
# 6 0.000000 0.000000 0.000000 0.000000 0.000000 0.284290
#
#
# Mechanical properties :
#
#
# Convention : Reuss Voigt Hill
#
# Bulk Modulus (GPa) = 30.97290 35.48368 33.22829
# Shear Modulus (GPa) = 7.74557 11.84036 9.79296
#
# Velocity S-wave (km/s) = 2.54153 3.14233 2.85776
# Velocity P-wave (km/s) = 5.86876 6.53890 6.21287
#
# Compressibility (1/GPa) = 0.03228629
#
# Stress axis : x y z
#
# Youngs Moduli (GPa) = 41.68690 41.68737 60.71913
#
# Poissons Ratio (x) = 0.06693 0.43943
# Poissons Ratio (y) = 0.06693 0.43943
# Poissons Ratio (z) = 0.30169 0.30170
#
# Static dielectric constant tensor:
#      x y z
#    x 1.379330 0.000000 0.000000 
#    y 0.000000 1.379330 0.000000 
#    z 0.000000 0.000000 1.456000 
# 
# From -- ./inp_files/6295.got.cif
#   From: 2010.05.17/outbox.cif.g08.bks.cpg/sg124_4_cif.got.tgz:6295.got - 2010.05.20 11:49:17.
