data_PCOD9562240
_publ_section_title
;
Structure prediction by ZEFSAII (Michael W. Deem and Ramdas Pophale) SiO2 
 PCOD9562240
Probable space group: P 4/M M M
;
_chemical_formula_sum "Si O2"
_cell_formula_units_Z 104
_cell_length_a 22.708375
_cell_length_b 22.708375
_cell_length_c 13.732059
_cell_angle_alpha 90.000000
_cell_angle_beta 90.000000
_cell_angle_gamma 90.000000
_cell_volume 7081.214917
_symmetry_space_group_name_H-M "P 4/M M M"
_symmetry_group_IT_number 123
_symmetry_cell_setting 'tetragonal'
loop_
_space_group_symop_operation_xyz
x,y,z
-y,x,z
-x,-y,z
y,-x,z
x,-y,-z
-x,y,-z
y,x,-z
-y,-x,-z
-x,-y,-z
y,-x,-z
x,y,-z
-y,x,-z
-x,y,z
x,-y,z
-y,-x,z
y,x,z
loop_
_atom_site_type_symbol
_atom_site_label
_atom_site_fract_x
_atom_site_fract_y
_atom_site_fract_z
Si Si1 0.665203 0.568615 0.198213
Si Si2 0.157982 0.065080 0.618235
Si Si3 0.068346 0.294858 0.384576
Si Si4 0.208486 0.570893 0.890376
Si Si5 0.929586 0.500000 0.382587
Si Si6 0.391273 0.850052 0.694444
Si Si7 0.622581 0.281530 0.612634
O O1 0.651567 0.500000 0.184865
O O2 0.611219 0.611219 0.174572
O O3 0.723335 0.583875 0.135506
O O4 0.685026 0.581362 0.309814
O O5 0.154958 0.065062 0.500000
O O6 0.115661 0.115661 0.655512
O O7 0.226276 0.074043 0.640570
O O8 0.139603 0.000000 0.650881
O O9 0.081489 0.302446 0.500000
O O10 0.111981 0.333373 0.322233
O O11 0.212286 0.383173 0.362226
O O12 0.202783 0.500000 0.884867
O O13 0.168152 0.597191 0.805757
O O14 0.194473 0.589874 0.000000
O O15 0.928794 0.500000 0.500000
O O16 0.891762 0.443990 0.345010
O O17 0.000000 0.500000 0.354187
O O18 0.312105 0.000000 0.628725
O O19 0.606035 0.290383 0.500000
O O20 0.687256 0.312745 0.625268
#
# Coordination Sequence:
#
# PCOD9562240 Si02
#       7
#    16  16  16  16   8  16  16
#     4   9  18  31  47  69  92 117 148 181 226 279
#     4   8  14  24  38  58  85 119 156 187 216 253
#     4   9  17  28  41  60  90 124 152 180 220 268
#     4   9  18  34  52  67  85 110 145 191 236 276
#     4  11  22  32  45  71 101 125 155 192 226 268
#     4  11  19  31  48  68  87 119 157 192 232 276
#     4   9  18  30  44  66  94 120 152 193 230 270
#
# _framework density 14.686745999999999
#
# number of rings (size 3 to 8) (size 9 to 14) (size 15 to 20)
#    0.000    2.692    0.769    2.769    1.077    2.769 
#    0.000    2.308    0.000    2.308    0.000    4.308 
#    0.000    0.000    0.000    0.462    0.000    0.769 
#
# Total GULP energy -579043.692044 kJ/mol
# GULP energy per Si atom -5567.727808 kJ/mol
# Density = 1.465332 g / cm^3
# Si number density = 14.686746 Si / 1000 Ang^3
#
#
#
# Elastic Constant Matrix: (Units=GPa)
#
#
# Indices 1 2 3 4 5 6 
#
# 1 72.1699 55.3497 23.7135 0.0000 0.0000 0.0000
# 2 55.3497 72.1699 23.7135 0.0000 0.0000 0.0000
# 3 23.7135 23.7135 71.9086 0.0000 0.0000 0.0000
# 4 0.0000 0.0000 0.0000 8.6475 0.0000 0.0000
# 5 0.0000 0.0000 0.0000 0.0000 8.6475 0.0000
# 6 0.0000 0.0000 0.0000 0.0000 0.0000 30.9891
#
#
#
# Elastic Compliance Matrix: (Units=1/GPa)
#
#
# Indices 1 2 3 4 5 6 
#
# 1 0.034195 -0.025257 -0.002948 0.000000 0.000000 0.000000
# 2 -0.025257 0.034195 -0.002948 0.000000 0.000000 0.000000
# 3 -0.002948 -0.002948 0.015851 0.000000 0.000000 0.000000
# 4 0.000000 0.000000 0.000000 0.115640 0.000000 0.000000
# 5 0.000000 0.000000 0.000000 0.000000 0.115640 0.000000
# 6 0.000000 0.000000 0.000000 0.000000 0.000000 0.032269
#
#
# Mechanical properties :
#
#
# Convention : Reuss Voigt Hill
#
# Bulk Modulus (GPa) = 45.58571 46.86685 46.22628
# Shear Modulus (GPa) = 11.97869 17.22160 14.60015
#
# Velocity S-wave (km/s) = 2.85899 3.42803 3.15636
# Velocity P-wave (km/s) = 6.48109 6.90281 6.69527
#
# Compressibility (1/GPa) = 0.02193670
#
# Stress axis : x y z
#
# Youngs Moduli (GPa) = 29.24382 29.24382 63.08906
#
# Poissons Ratio (x) = 0.73861 0.18596
# Poissons Ratio (y) = 0.73861 0.18596
# Poissons Ratio (z) = 0.08620 0.08620
#
# Static dielectric constant tensor:
#      x y z
#    x 1.491960 0.000000 0.000000 
#    y 0.000000 1.491960 0.000000 
#    z 0.000000 0.000000 1.474850 
# 
# From -- ./inp_files/4514.got.cif
#   From: 2010.05.17/outbox.cif.g08.bks.cpg/sg123_3_cif.got.tgz:4514.got - 2010.05.20 11:43:04.
