data_PCOD9562507
_publ_section_title
;
Structure prediction by ZEFSAII (Michael W. Deem and Ramdas Pophale) SiO2 
 PCOD9562507
Probable space group: P 4/M C C
;
_chemical_formula_sum "Si O2"
_cell_formula_units_Z 120
_cell_length_a 20.380448
_cell_length_b 20.380448
_cell_length_c 15.217481
_cell_angle_alpha 90.000000
_cell_angle_beta 90.000000
_cell_angle_gamma 90.000000
_cell_volume 6320.773397
_symmetry_space_group_name_H-M "P 4/M C C"
_symmetry_group_IT_number 124
_symmetry_cell_setting 'tetragonal'
loop_
_space_group_symop_operation_xyz
x,y,z
-y,x,z
-x,-y,z
y,-x,z
x,-y,1/2-z
-x,y,1/2-z
y,x,1/2-z
-y,-x,1/2-z
-x,-y,-z
y,-x,-z
x,y,-z
-y,x,-z
-x,y,1/2+z
x,-y,1/2+z
-y,-x,1/2+z
y,x,1/2+z
loop_
_atom_site_type_symbol
_atom_site_label
_atom_site_fract_x
_atom_site_fract_y
_atom_site_fract_z
Si Si1 0.077985 0.071066 0.892567
Si Si2 0.286164 0.741692 0.896619
Si Si3 0.890401 0.662292 0.341225
Si Si4 0.247473 0.601060 0.896347
Si Si5 0.382288 0.148280 0.341502
Si Si6 0.849577 0.798747 0.395148
Si Si7 0.221712 0.500000 0.750000
Si Si8 0.574247 0.992325 0.398259
O O1 0.134861 0.118785 0.860221
O O2 0.004351 0.089849 0.865890
O O3 0.078728 0.071632 0.000000
O O4 0.287549 0.666230 0.865176
O O5 0.347091 0.790000 0.886317
O O6 0.221673 0.777948 0.859662
O O7 0.274131 0.732798 0.000000
O O8 0.829050 0.624411 0.387554
O O9 0.872123 0.663970 0.239238
O O10 0.894422 0.735033 0.379509
O O11 0.956707 0.621739 0.351041
O O12 0.257910 0.542523 0.826116
O O13 0.259921 0.585312 0.000000
O O14 0.449073 0.175811 0.300879
O O15 0.399884 0.082087 0.392632
O O16 0.842639 0.808018 0.500000
O O17 0.572893 0.012732 0.500000
O O18 0.500000 0.000000 0.363602
#
# Coordination Sequence:
#
# PCOD9562507 Si02
#       8
#    16  16  16  16  16  16   8  16
#     4   8  14  25  42  65  92 121 158 213 275 325
#     4   9  19  35  55  79 108 144 182 227 279 326
#     4  10  20  32  48  70 100 142 181 223 283 338
#     4   9  18  35  55  77 110 147 185 227 277 339
#     4  11  22  35  52  78 110 142 185 234 274 327
#     4   9  17  30  48  70  97 133 177 219 266 329
#     4  10  22  34  55  82 106 147 186 224 282 340
#     4  11  22  35  52  73 102 142 185 229 277 331
#
# _framework density 18.985016999999999
#
# number of rings (size 3 to 8) (size 9 to 14) (size 15 to 20)
#    0.000    2.400    0.000    4.800    0.000    8.533 
#    0.000    2.667    0.000    0.000    0.000    0.000 
#    0.000    8.533    0.000   11.867    0.000    0.267 
#
# Total GULP energy -668974.708567 kJ/mol
# GULP energy per Si atom -5574.789238 kJ/mol
# Density = 1.894181 g / cm^3
# Si number density = 18.985017 Si / 1000 Ang^3
#
#
#
# Elastic Constant Matrix: (Units=GPa)
#
#
# Indices 1 2 3 4 5 6 
#
# 1 66.8660 34.8674 10.4936 0.0000 0.0000 0.0000
# 2 34.8674 66.8660 10.4936 0.0000 0.0000 0.0000
# 3 10.4936 10.4936 53.2862 0.0000 0.0000 0.0000
# 4 0.0000 0.0000 0.0000 14.0750 0.0000 0.0000
# 5 0.0000 0.0000 0.0000 0.0000 14.0750 0.0000
# 6 0.0000 0.0000 0.0000 0.0000 0.0000 23.5925
#
#
#
# Elastic Compliance Matrix: (Units=1/GPa)
#
#
# Indices 1 2 3 4 5 6 
#
# 1 0.020749 -0.010503 -0.002018 0.000000 0.000000 0.000000
# 2 -0.010503 0.020749 -0.002018 0.000000 0.000000 0.000000
# 3 -0.002018 -0.002018 0.019561 0.000000 0.000000 0.000000
# 4 0.000000 0.000000 0.000000 0.071048 0.000000 0.000000
# 5 0.000000 0.000000 0.000000 0.000000 0.071048 0.000000
# 6 0.000000 0.000000 0.000000 0.000000 0.000000 0.042386
#
#
# Mechanical properties :
#
#
# Convention : Reuss Voigt Hill
#
# Bulk Modulus (GPa) = 31.26746 33.19196 32.22971
# Shear Modulus (GPa) = 17.52676 19.09272 18.30974
#
# Velocity S-wave (km/s) = 3.04170 3.17468 3.10890
# Velocity P-wave (km/s) = 5.37040 5.56411 5.46811
#
# Compressibility (1/GPa) = 0.03198213
#
# Stress axis : x y z
#
# Youngs Moduli (GPa) = 48.19597 48.19597 51.12144
#
# Poissons Ratio (x) = 0.50619 0.10315
# Poissons Ratio (y) = 0.50619 0.10315
# Poissons Ratio (z) = 0.09725 0.09725
#
# Static dielectric constant tensor:
#      x y z
#    x 1.668830 0.000000 0.000000 
#    y 0.000000 1.668830 0.000000 
#    z 0.000000 0.000000 1.703320 
# 
# From -- ./inp_files/3495.got.cif
#   From: 2010.05.17/outbox.cif.g08.bks.cpg/sg124_2_cif.got.tgz:3495.got - 2010.05.20 11:49:17.
