data_PCOD9562195
_publ_section_title
;
Structure prediction by ZEFSAII (Michael W. Deem and Ramdas Pophale) SiO2 
 PCOD9562195
Probable space group: P 4/M M M
;
_chemical_formula_sum "Si O2"
_cell_formula_units_Z 96
_cell_length_a 24.565517
_cell_length_b 24.565517
_cell_length_c 8.651660
_cell_angle_alpha 90.000000
_cell_angle_beta 90.000000
_cell_angle_gamma 90.000000
_cell_volume 5220.970762
_symmetry_space_group_name_H-M "P 4/M M M"
_symmetry_group_IT_number 123
_symmetry_cell_setting 'tetragonal'
loop_
_space_group_symop_operation_xyz
x,y,z
-y,x,z
-x,-y,z
y,-x,z
x,-y,-z
-x,y,-z
y,x,-z
-y,-x,-z
-x,-y,-z
y,-x,-z
x,y,-z
-y,x,-z
-x,y,z
x,-y,z
-y,-x,z
y,x,z
loop_
_atom_site_type_symbol
_atom_site_label
_atom_site_fract_x
_atom_site_fract_y
_atom_site_fract_z
Si Si1 0.563058 0.723861 0.684450
Si Si2 0.250723 0.126629 0.814936
Si Si3 0.148184 0.062336 0.686153
Si Si4 0.666305 0.666305 0.183605
Si Si5 0.435738 0.841661 0.183595
Si Si6 0.752880 0.752880 0.684254
Si Si7 0.938453 0.358259 0.188071
O O1 0.565328 0.718936 0.500000
O O2 0.500000 0.715378 0.734176
O O3 0.606612 0.683709 0.759145
O O4 0.578530 0.785523 0.732307
O O5 0.195005 0.099611 0.758528
O O6 0.259544 0.185963 0.742306
O O7 0.299478 0.085831 0.771609
O O8 0.250025 0.132732 0.000000
O O9 0.154751 0.063206 0.500000
O O10 0.090595 0.090595 0.721805
O O11 0.151910 0.000000 0.738903
O O12 0.709753 0.709753 0.250355
O O13 0.668624 0.668624 0.000000
O O14 0.500000 0.851019 0.203265
O O15 0.402368 0.893944 0.238777
O O16 0.424983 0.834171 0.000000
O O17 0.751292 0.751292 0.500000
O O18 0.000000 0.366205 0.244644
O O19 0.940363 0.361092 0.000000
#
# Coordination Sequence:
#
# PCOD9562195 Si02
#       7
#    16  16  16   8  16   8  16
#     4  10  21  38  60  86 119 158 197 238 287 341
#     4  11  21  35  55  79 107 143 182 226 285 347
#     4  10  21  37  56  77 103 137 176 221 276 340
#     4  12  24  38  60  91 123 155 195 240 285 336
#     4   9  17  31  53  79 108 146 192 239 284 331
#     4  12  24  38  58  84 116 148 184 234 288 345
#     4   9  18  31  48  74 107 141 180 228 280 334
#
# _framework density 18.387384999999998
#
# number of rings (size 3 to 8) (size 9 to 14) (size 15 to 20)
#    0.000    1.833    0.833    4.000    0.000    3.833 
#    0.000    3.333    0.000    2.750    0.000    5.250 
#    0.000    0.000    0.000    0.000    0.000    0.000 
#
# Total GULP energy -536216.623986 kJ/mol
# GULP energy per Si atom -5585.589833 kJ/mol
# Density = 1.834553 g / cm^3
# Si number density = 18.387385 Si / 1000 Ang^3
#
#
#
# Elastic Constant Matrix: (Units=GPa)
#
#
# Indices 1 2 3 4 5 6 
#
# 1 107.6805 83.3235 40.6347 0.0000 0.0000 0.0000
# 2 83.3235 107.6805 40.6347 0.0000 0.0000 0.0000
# 3 40.6347 40.6347 51.5034 0.0000 0.0000 0.0000
# 4 0.0000 0.0000 0.0000 24.0944 0.0000 0.0000
# 5 0.0000 0.0000 0.0000 0.0000 24.0944 0.0000
# 6 0.0000 0.0000 0.0000 0.0000 0.0000 27.5145
#
#
#
# Elastic Compliance Matrix: (Units=1/GPa)
#
#
# Indices 1 2 3 4 5 6 
#
# 1 0.024469 -0.016587 -0.006218 0.000000 0.000000 0.000000
# 2 -0.016587 0.024469 -0.006218 0.000000 0.000000 0.000000
# 3 -0.006218 -0.006218 0.029228 0.000000 0.000000 0.000000
# 4 0.000000 0.000000 0.000000 0.041503 0.000000 0.000000
# 5 0.000000 0.000000 0.000000 0.000000 0.041503 0.000000
# 6 0.000000 0.000000 0.000000 0.000000 0.000000 0.036345
#
#
# Mechanical properties :
#
#
# Convention : Reuss Voigt Hill
#
# Bulk Modulus (GPa) = 49.70640 66.22783 57.96711
# Shear Modulus (GPa) = 19.06438 21.95876 20.51157
#
# Velocity S-wave (km/s) = 3.22346 3.45951 3.34357
# Velocity P-wave (km/s) = 6.39889 7.21484 6.81908
#
# Compressibility (1/GPa) = 0.02011813
#
# Stress axis : x y z
#
# Youngs Moduli (GPa) = 40.86878 40.86878 34.21391
#
# Poissons Ratio (x) = 0.67791 0.21274
# Poissons Ratio (y) = 0.67791 0.21274
# Poissons Ratio (z) = 0.25412 0.25412
#
# Static dielectric constant tensor:
#      x y z
#    x 1.621860 0.000000 0.000000 
#    y 0.000000 1.621860 0.000000 
#    z 0.000000 0.000000 1.623640 
# 
# From -- ./inp_files/1694.got.cif
#   From: 2010.05.17/outbox.cif.g08.bks.cpg/sg123_1_cif.got.tgz:1694.got - 2010.05.20 11:43:04.
