data_PCOD9562275
_publ_section_title
;
Structure prediction by ZEFSAII (Michael W. Deem and Ramdas Pophale) SiO2 
 PCOD9562275
Probable space group: P 4/M M M
;
_chemical_formula_sum "Si O2"
_cell_formula_units_Z 112
_cell_length_a 17.841705
_cell_length_b 17.841705
_cell_length_c 22.598655
_cell_angle_alpha 90.000000
_cell_angle_beta 90.000000
_cell_angle_gamma 90.000000
_cell_volume 7193.749334
_symmetry_space_group_name_H-M "P 4/M M M"
_symmetry_group_IT_number 123
_symmetry_cell_setting 'tetragonal'
loop_
_space_group_symop_operation_xyz
x,y,z
-y,x,z
-x,-y,z
y,-x,z
x,-y,-z
-x,y,-z
y,x,-z
-y,-x,-z
-x,-y,-z
y,-x,-z
x,y,-z
-y,x,-z
-x,y,z
x,-y,z
-y,-x,z
y,x,z
loop_
_atom_site_type_symbol
_atom_site_label
_atom_site_fract_x
_atom_site_fract_y
_atom_site_fract_z
Si Si1 0.587415 0.712236 0.200155
Si Si2 0.700283 0.828139 0.165747
Si Si3 0.211620 0.087376 0.070069
Si Si4 0.086503 0.209128 0.742275
Si Si5 0.200128 0.328787 0.434798
Si Si6 0.086253 0.790679 0.400016
Si Si7 0.710589 0.413259 0.659191
O O1 0.500000 0.699367 0.187090
O O2 0.639905 0.639905 0.186772
O O3 0.621468 0.785778 0.168692
O O4 0.595144 0.726319 0.270886
O O5 0.760120 0.760120 0.166428
O O6 0.721619 0.878303 0.109352
O O7 0.720947 0.877277 0.223363
O O8 0.138017 0.138017 0.082554
O O9 0.199587 0.000000 0.083921
O O10 0.227067 0.093870 0.000000
O O11 0.136765 0.136765 0.758373
O O12 0.090702 0.217084 0.671452
O O13 0.000000 0.199544 0.759020
O O14 0.203292 0.363971 0.500000
O O15 0.263233 0.263233 0.432785
O O16 0.123054 0.284165 0.426051
O O17 0.222202 0.383657 0.381812
O O18 0.138638 0.861363 0.416654
O O19 0.000000 0.801310 0.416745
O O20 0.695181 0.500000 0.647251
O O21 0.638579 0.361422 0.646235
#
# Coordination Sequence:
#
# PCOD9562275 Si02
#       7
#    16  16  16  16  16  16  16
#     4   9  17  29  47  70  93 115 138 169 211 259
#     4   9  16  27  43  62  86 117 152 183 212 251
#     4   9  17  28  43  65  93 125 159 193 226 257
#     4   9  16  25  39  59  83 112 143 177 217 257
#     4   9  17  29  44  60  80 110 146 177 204 243
#     4   9  17  28  42  61  83 106 136 176 221 266
#     4   9  17  29  46  69  94 116 138 166 203 249
#
# _framework density 15.569072
#
# number of rings (size 3 to 8) (size 9 to 14) (size 15 to 20)
#    0.000    3.000    0.000    1.286    0.000    4.714 
#    0.000    3.571    0.000    5.143    0.000   12.000 
#    0.000    0.000    0.000    5.571    0.000    0.143 
#
# Total GULP energy -623533.158622 kJ/mol
# GULP energy per Si atom -5567.260345 kJ/mol
# Density = 1.553364 g / cm^3
# Si number density = 15.569072 Si / 1000 Ang^3
#
#
#
# Elastic Constant Matrix: (Units=GPa)
#
#
# Indices 1 2 3 4 5 6 
#
# 1 65.4591 66.3707 29.5088 0.0000 0.0000 0.0000
# 2 66.3707 65.4591 29.5088 0.0000 0.0000 0.0000
# 3 29.5088 29.5088 36.1860 0.0000 0.0000 0.0000
# 4 0.0000 0.0000 0.0000 13.8792 0.0000 0.0000
# 5 0.0000 0.0000 0.0000 0.0000 13.8792 0.0000
# 6 0.0000 0.0000 0.0000 0.0000 0.0000 15.4358
#
#
#
# Elastic Compliance Matrix: (Units=1/GPa)
#
#
# Indices 1 2 3 4 5 6 
#
# 1 -0.542515 0.554462 -0.009743 0.000000 0.000000 0.000000
# 2 0.554462 -0.542515 -0.009743 0.000000 0.000000 0.000000
# 3 -0.009743 -0.009743 0.043525 0.000000 0.000000 0.000000
# 4 0.000000 0.000000 0.000000 0.072050 0.000000 0.000000
# 5 0.000000 0.000000 0.000000 0.000000 0.072050 0.000000
# 6 0.000000 0.000000 0.000000 0.000000 0.000000 0.064784
#
#
# Mechanical properties :
#
#
# Convention : Reuss Voigt Hill
#
# Bulk Modulus (GPa) = 35.15112 46.43118 40.79115
# Shear Modulus (GPa) = -2.64118 11.41991 4.38936
#
# Velocity S-wave (km/s) = -1.30388 2.71126 1.68089
# Velocity P-wave (km/s) = 4.51218 6.29989 5.47943
#
# Compressibility (1/GPa) = 0.02844860
#
# Stress axis : x y z
#
# Youngs Moduli (GPa) = -1.84327 -1.84327 22.97547
#
# Poissons Ratio (x) = 1.02202 0.22384
# Poissons Ratio (y) = 1.02202 0.22384
# Poissons Ratio (z) = -0.01796 -0.01796
#
# Static dielectric constant tensor:
#      x y z
#    x 1.507710 0.000000 0.000000 
#    y 0.000000 1.507710 0.000000 
#    z 0.000000 0.000000 1.542490 
# 
# From -- ./inp_files/6723.got.cif
#   From: 2010.05.17/outbox.cif.g08.bks.cpg/sg123_4_cif.got.tgz:6723.got - 2010.05.20 11:43:04.
