data_PCOD9562198
_publ_section_title
;
Structure prediction by ZEFSAII (Michael W. Deem and Ramdas Pophale) SiO2 
 PCOD9562198
Probable space group: P 4/M M M
;
_chemical_formula_sum "Si O2"
_cell_formula_units_Z 58
_cell_length_a 15.717668
_cell_length_b 15.717668
_cell_length_c 13.727968
_cell_angle_alpha 90.000000
_cell_angle_beta 90.000000
_cell_angle_gamma 90.000000
_cell_volume 3391.427054
_symmetry_space_group_name_H-M "P 4/M M M"
_symmetry_group_IT_number 123
_symmetry_cell_setting 'tetragonal'
loop_
_space_group_symop_operation_xyz
x,y,z
-y,x,z
-x,-y,z
y,-x,z
x,-y,-z
-x,y,-z
y,x,-z
-y,-x,-z
-x,-y,-z
y,-x,-z
x,y,-z
-y,x,-z
-x,y,z
x,-y,z
-y,-x,z
y,x,z
loop_
_atom_site_type_symbol
_atom_site_label
_atom_site_fract_x
_atom_site_fract_y
_atom_site_fract_z
Si Si1 0.902735 0.675699 0.688403
Si Si2 0.595143 0.733367 0.617458
Si Si3 0.239081 0.096736 0.889526
Si Si4 0.134534 0.134534 0.385839
Si Si5 0.000000 0.000000 0.314084
O O1 0.828463 0.614540 0.652983
O O2 0.893687 0.692933 0.803994
O O3 0.885629 0.767502 0.638213
O O4 0.000000 0.649538 0.667553
O O5 0.598711 0.733886 0.500000
O O6 0.500000 0.706683 0.646459
O O7 0.668089 0.668089 0.652162
O O8 0.164097 0.164097 0.874670
O O9 0.205441 0.000000 0.882042
O O10 0.271977 0.107572 0.000000
O O11 0.117517 0.117517 0.500000
O O12 0.074029 0.074029 0.323791
#
# Coordination Sequence:
#
# PCOD9562198 Si02
#       5
#    16  16  16   8   2
#     4  11  21  33  50  74 102 140 175 213 261 305
#     4  10  21  37  57  80 106 135 170 212 258 312
#     4   9  17  29  44  65  94 131 176 221 264 305
#     4  12  21  30  43  65  99 139 178 218 250 289
#     4  12  25  32  40  68 101 142 201 228 240 292
#
# _framework density 17.101944
#
# number of rings (size 3 to 8) (size 9 to 14) (size 15 to 20)
#    0.000    1.655    4.138    1.448    0.000    2.759 
#    0.000    4.138    0.000    0.828    0.000    3.862 
#    0.000    0.000    0.000    5.793    0.000    0.276 
#
# Total GULP energy -323122.475549 kJ/mol
# GULP energy per Si atom -5571.077165 kJ/mol
# Density = 1.706302 g / cm^3
# Si number density = 17.101944 Si / 1000 Ang^3
#
#
#
# Elastic Constant Matrix: (Units=GPa)
#
#
# Indices 1 2 3 4 5 6 
#
# 1 71.0175 37.3970 14.4057 0.0000 0.0000 0.0000
# 2 37.3970 71.0175 14.4057 0.0000 0.0000 0.0000
# 3 14.4057 14.4057 37.2894 0.0000 0.0000 0.0000
# 4 0.0000 0.0000 0.0000 13.8688 0.0000 0.0000
# 5 0.0000 0.0000 0.0000 0.0000 13.8688 0.0000
# 6 0.0000 0.0000 0.0000 0.0000 0.0000 16.9609
#
#
#
# Elastic Compliance Matrix: (Units=1/GPa)
#
#
# Indices 1 2 3 4 5 6 
#
# 1 0.020011 -0.009732 -0.003971 0.000000 0.000000 0.000000
# 2 -0.009732 0.020011 -0.003971 0.000000 0.000000 0.000000
# 3 -0.003971 -0.003971 0.029885 0.000000 0.000000 0.000000
# 4 0.000000 0.000000 0.000000 0.072104 0.000000 0.000000
# 5 0.000000 0.000000 0.000000 0.000000 0.072104 0.000000
# 6 0.000000 0.000000 0.000000 0.000000 0.000000 0.058959
#
#
# Mechanical properties :
#
#
# Convention : Reuss Voigt Hill
#
# Bulk Modulus (GPa) = 28.93552 34.63788 31.78670
# Shear Modulus (GPa) = 15.62769 16.48077 16.05423
#
# Velocity S-wave (km/s) = 3.02619 3.10768 3.06721
# Velocity P-wave (km/s) = 5.40061 5.75975 5.58307
#
# Compressibility (1/GPa) = 0.03455960
#
# Stress axis : x y z
#
# Youngs Moduli (GPa) = 49.97132 49.97132 33.46108
#
# Poissons Ratio (x) = 0.48634 0.13288
# Poissons Ratio (y) = 0.48634 0.13288
# Poissons Ratio (z) = 0.19844 0.19844
#
# Static dielectric constant tensor:
#      x y z
#    x 1.573630 0.000000 0.000000 
#    y 0.000000 1.573630 0.000000 
#    z 0.000000 0.000000 1.613840 
# 
# From -- ./inp_files/3798.got.cif
#   From: 2010.05.17/outbox.cif.g08.bks.cpg/sg123_2_cif.got.tgz:3798.got - 2010.05.20 11:43:04.
