data_PCOD9562658
_publ_section_title
;
Structure prediction by ZEFSAII (Michael W. Deem and Ramdas Pophale) SiO2 
 PCOD9562658
Probable space group: P 4/M C C
;
_chemical_formula_sum "Si O2"
_cell_formula_units_Z 120
_cell_length_a 14.538705
_cell_length_b 14.538705
_cell_length_c 27.285461
_cell_angle_alpha 90.000000
_cell_angle_beta 90.000000
_cell_angle_gamma 90.000000
_cell_volume 5767.435480
_symmetry_space_group_name_H-M "P 4/M C C"
_symmetry_group_IT_number 124
_symmetry_cell_setting 'tetragonal'
loop_
_space_group_symop_operation_xyz
x,y,z
-y,x,z
-x,-y,z
y,-x,z
x,-y,1/2-z
-x,y,1/2-z
y,x,1/2-z
-y,-x,1/2-z
-x,-y,-z
y,-x,-z
x,y,-z
-y,x,-z
-x,y,1/2+z
x,-y,1/2+z
-y,-x,1/2+z
y,x,1/2+z
loop_
_atom_site_type_symbol
_atom_site_label
_atom_site_fract_x
_atom_site_fract_y
_atom_site_fract_z
Si Si1 0.109425 0.890576 0.750000
Si Si2 0.597654 0.039481 0.114930
Si Si3 0.788737 0.485528 0.442034
Si Si4 0.444319 0.642494 0.872646
Si Si5 0.677493 0.132916 0.441148
Si Si6 0.877311 0.086263 0.559743
Si Si7 0.401716 0.261993 0.725384
Si Si8 0.707935 0.916089 0.711237
O O1 0.127618 0.811317 0.709521
O O2 0.000000 0.881594 0.750000
O O3 0.569777 0.130327 0.085086
O O4 0.668648 0.054986 0.158844
O O5 0.500000 0.000000 0.134647
O O6 0.639995 0.964602 0.078119
O O7 0.801080 0.479862 0.500000
O O8 0.692961 0.442323 0.424677
O O9 0.797616 0.594374 0.427098
O O10 0.386676 0.550351 0.866026
O O11 0.413846 0.714335 0.831620
O O12 0.680719 0.133622 0.500000
O O13 0.784296 0.138974 0.424077
O O14 0.878161 0.087593 0.500000
O O15 0.977784 0.124715 0.574910
O O16 0.500000 0.266632 0.750000
O O17 0.337081 0.337081 0.750000
O O18 0.357411 0.163099 0.731529
O O19 0.703778 0.000000 0.750000
#
# Coordination Sequence:
#
# PCOD9562658 Si02
#       8
#     8  16  16  16  16  16  16  16
#     4   9  20  44  70  94 135 182 226 272 335 422
#     4  10  21  37  60  90 130 168 217 276 338 410
#     4  10  21  40  64  90 127 176 225 278 337 399
#     4  11  24  43  65  93 128 169 216 272 336 407
#     4   9  18  35  58  86 121 167 219 272 332 392
#     4   8  14  28  51  79 114 154 200 261 330 394
#     4  12  24  40  68 100 136 175 221 277 345 420
#     4  11  24  40  65 100 133 176 222 279 349 411
#
# _framework density 20.806474999999999
#
# number of rings (size 3 to 8) (size 9 to 14) (size 15 to 20)
#    0.000    1.933    3.333    0.800    1.867    2.267 
#    2.400    3.333    0.000    3.200    0.000    0.000 
#    0.000    0.000    0.000    0.000    0.000    0.000 
#
# Total GULP energy -668762.503786 kJ/mol
# GULP energy per Si atom -5573.020865 kJ/mol
# Density = 2.075912 g / cm^3
# Si number density = 20.806475 Si / 1000 Ang^3
#
#
#
# Elastic Constant Matrix: (Units=GPa)
#
#
# Indices 1 2 3 4 5 6 
#
# 1 83.6007 9.2801 23.6072 0.0000 0.0000 0.0000
# 2 9.2801 83.6015 23.6072 0.0000 0.0000 0.0000
# 3 23.6072 23.6072 50.1301 0.0000 0.0000 0.0000
# 4 0.0000 0.0000 0.0000 23.2262 0.0000 0.0000
# 5 0.0000 0.0000 0.0000 0.0000 23.2267 0.0000
# 6 0.0000 0.0000 0.0000 0.0000 0.0000 -67.0746
#
#
#
# Elastic Compliance Matrix: (Units=1/GPa)
#
#
# Indices 1 2 3 4 5 6 
#
# 1 0.013805 0.000350 -0.006666 0.000000 0.000000 0.000000
# 2 0.000350 0.013805 -0.006666 0.000000 0.000000 0.000000
# 3 -0.006666 -0.006666 0.026226 0.000000 0.000000 0.000000
# 4 0.000000 0.000000 0.000000 0.043055 0.000000 0.000000
# 5 0.000000 0.000000 0.000000 0.000000 0.043054 0.000000
# 6 0.000000 0.000000 0.000000 0.000000 0.000000 -0.014909
#
#
# Mechanical properties :
#
#
# Convention : Reuss Voigt Hill
#
# Bulk Modulus (GPa) = 35.87734 36.70239 36.28986
# Shear Modulus (GPa) = 31.19335 6.59819 18.89577
#
# Velocity S-wave (km/s) = 3.87617 1.78272 3.01685
# Velocity P-wave (km/s) = 6.10849 4.68142 5.44194
#
# Compressibility (1/GPa) = 0.02787274
#
# Stress axis : x y z
#
# Youngs Moduli (GPa) = 72.43707 72.43780 38.12976
#
# Poissons Ratio (x) = -0.02534 0.25417
# Poissons Ratio (y) = -0.02534 0.25416
# Poissons Ratio (z) = 0.48285 0.48285
#
# Static dielectric constant tensor:
#      x y z
#    x 1.759860 0.000000 0.000000 
#    y 0.000000 1.759860 0.000000 
#    z 0.000000 0.000000 1.811260 
# 
# From -- ./inp_files/7341.got.cif
#   From: 2010.05.17/outbox.cif.g08.bks.cpg/sg124_4_cif.got.tgz:7341.got - 2010.05.20 11:49:17.
