data_PCOD9562703
_publ_section_title
;
Structure prediction by ZEFSAII (Michael W. Deem and Ramdas Pophale) SiO2 
 PCOD9562703
Probable space group: P 4/M C C
;
_chemical_formula_sum "Si O2"
_cell_formula_units_Z 112
_cell_length_a 16.126731
_cell_length_b 16.126731
_cell_length_c 23.192435
_cell_angle_alpha 90.000000
_cell_angle_beta 90.000000
_cell_angle_gamma 90.000000
_cell_volume 6031.690263
_symmetry_space_group_name_H-M "P 4/M C C"
_symmetry_group_IT_number 124
_symmetry_cell_setting 'tetragonal'
loop_
_space_group_symop_operation_xyz
x,y,z
-y,x,z
-x,-y,z
y,-x,z
x,-y,1/2-z
-x,y,1/2-z
y,x,1/2-z
-y,-x,1/2-z
-x,-y,-z
y,-x,-z
x,y,-z
-y,x,-z
-x,y,1/2+z
x,-y,1/2+z
-y,-x,1/2+z
y,x,1/2+z
loop_
_atom_site_type_symbol
_atom_site_label
_atom_site_fract_x
_atom_site_fract_y
_atom_site_fract_z
Si Si1 0.402790 0.985925 0.934349
Si Si2 0.501576 0.257079 0.816788
Si Si3 0.638454 0.126612 0.657083
Si Si4 0.373573 0.447262 0.413374
Si Si5 0.658930 0.172671 0.870250
Si Si6 0.901918 0.762064 0.762083
Si Si7 0.752512 0.693007 0.562177
O O1 0.387571 0.897329 0.906264
O O2 0.500000 0.000000 0.939788
O O3 0.373202 0.048400 0.884379
O O4 0.367688 0.994691 0.000000
O O5 0.500000 0.274367 0.750000
O O6 0.446290 0.175111 0.828910
O O7 0.461275 0.335927 0.849276
O O8 0.593799 0.232852 0.837506
O O9 0.689059 0.111895 0.715187
O O10 0.688559 0.187563 0.616017
O O11 0.457507 0.396719 0.427328
O O12 0.300109 0.392391 0.439659
O O13 0.721159 0.127936 0.823723
O O14 0.697402 0.229556 0.920231
O O15 0.840033 0.840033 0.750000
O O16 0.000000 0.784143 0.750000
O O17 0.793238 0.703287 0.500000
#
# Coordination Sequence:
#
# PCOD9562703 Si02
#       7
#    16  16  16  16  16  16  16
#     4  11  23  38  60  92 132 168 206 254 308 378
#     4  11  22  35  59  89 127 164 205 272 319 367
#     4  11  22  40  62  92 123 162 209 248 317 380
#     4  10  22  40  56  80 119 168 226 266 307 358
#     4  12  22  40  63  92 124 160 211 253 318 372
#     4  12  25  43  71  95 124 160 197 258 317 392
#     4  11  24  41  61  85 122 164 213 269 309 356
#
# _framework density 18.568593
#
# number of rings (size 3 to 8) (size 9 to 14) (size 15 to 20)
#    0.000    0.857    7.143    0.857    0.000    1.286 
#    0.000    3.571    0.000    0.000    0.000    0.000 
#    0.000    2.286    0.000    0.000    0.000    0.000 
#
# Total GULP energy -623561.926976 kJ/mol
# GULP energy per Si atom -5567.517205 kJ/mol
# Density = 1.852633 g / cm^3
# Si number density = 18.568593 Si / 1000 Ang^3
#
#
#
# Elastic Constant Matrix: (Units=GPa)
#
#
# Indices 1 2 3 4 5 6 
#
# 1 56.5707 -1.1107 0.1674 0.0000 0.0000 0.0000
# 2 -1.1107 56.5707 0.1674 0.0000 0.0000 0.0000
# 3 0.1674 0.1674 94.9265 0.0000 0.0000 0.0000
# 4 0.0000 0.0000 0.0000 33.3300 0.0000 0.0000
# 5 0.0000 0.0000 0.0000 0.0000 33.3300 0.0000
# 6 0.0000 0.0000 0.0000 0.0000 0.0000 25.0284
#
#
#
# Elastic Compliance Matrix: (Units=1/GPa)
#
#
# Indices 1 2 3 4 5 6 
#
# 1 0.017684 0.000347 -0.000032 0.000000 0.000000 0.000000
# 2 0.000347 0.017684 -0.000032 0.000000 0.000000 0.000000
# 3 -0.000032 -0.000032 0.010535 0.000000 0.000000 0.000000
# 4 0.000000 0.000000 0.000000 0.030003 0.000000 0.000000
# 5 0.000000 0.000000 0.000000 0.000000 0.030003 0.000000
# 6 0.000000 0.000000 0.000000 0.000000 0.000000 0.039955
#
#
# Mechanical properties :
#
#
# Convention : Reuss Voigt Hill
#
# Bulk Modulus (GPa) = 21.51938 22.94626 22.23282
# Shear Modulus (GPa) = 31.09734 32.26061 31.67897
#
# Velocity S-wave (km/s) = 4.09678 4.17270 4.13492
# Velocity P-wave (km/s) = 5.83031 5.96655 5.89882
#
# Compressibility (1/GPa) = 0.04646973
#
# Stress axis : x y z
#
# Youngs Moduli (GPa) = 56.54862 56.54862 94.92549
#
# Poissons Ratio (x) = -0.01964 0.00302
# Poissons Ratio (y) = -0.01964 0.00302
# Poissons Ratio (z) = 0.00180 0.00180
#
# Static dielectric constant tensor:
#      x y z
#    x 1.677380 0.000000 0.000000 
#    y 0.000000 1.677380 0.000000 
#    z 0.000000 0.000000 1.692330 
# 
# From -- ./inp_files/6097.got.cif
#   From: 2010.05.17/outbox.cif.g08.bks.cpg/sg124_4_cif.got.tgz:6097.got - 2010.05.20 11:49:17.
