data_PCOD9562965
_publ_section_title
;
Structure prediction by ZEFSAII (Michael W. Deem and Ramdas Pophale) SiO2 
 PCOD9562965
Probable space group: P 4/N B M
;
_chemical_formula_sum "Si O2"
_cell_formula_units_Z 96
_cell_length_a 14.705591
_cell_length_b 14.705591
_cell_length_c 23.458214
_cell_angle_alpha 90.000000
_cell_angle_beta 90.000000
_cell_angle_gamma 90.000000
_cell_volume 5072.942150
_symmetry_space_group_name_H-M "P 4/N B M"
_symmetry_group_IT_number 125
_space_group.IT_coordinate_system_code '2'
_symmetry_cell_setting 'tetragonal'
loop_
_space_group_symop_operation_xyz
x,y,z
1/2-y,x,z
1/2-x,1/2-y,z
y,1/2-x,z
x,1/2-y,-z
1/2-x,y,-z
y,x,-z
1/2-y,1/2-x,-z
-x,-y,-z
1/2+y,-x,-z
1/2+x,1/2+y,-z
-y,1/2+x,-z
-x,1/2+y,z
1/2+x,-y,z
-y,-x,z
1/2+y,1/2+x,z
loop_
_atom_site_type_symbol
_atom_site_label
_atom_site_fract_x
_atom_site_fract_y
_atom_site_fract_z
Si Si1 0.419182 0.429518 0.315789
Si Si2 0.174226 0.825775 0.673859
Si Si3 0.200796 0.545933 0.877445
Si Si4 0.508725 0.755223 0.377444
Si Si5 0.328278 0.828278 0.194754
Si Si6 0.116815 0.173820 0.801149
Si Si7 0.250000 0.903446 0.000000
Si Si8 0.596113 0.750000 0.500000
O O1 0.511990 0.488011 0.315108
O O2 0.432694 0.327526 0.339969
O O3 0.346963 0.475989 0.357240
O O4 0.370231 0.428739 0.254591
O O5 0.250000 0.750000 0.680427
O O6 0.148944 0.851057 0.739556
O O7 0.091759 0.785117 0.638463
O O8 0.122605 0.622605 0.875745
O O9 0.282673 0.586480 0.838005
O O10 0.160759 0.452581 0.853133
O O11 0.234648 0.540846 0.942369
O O12 0.536840 0.759148 0.443098
O O13 0.250000 0.750000 0.194004
O O14 0.217356 0.131495 0.801242
O O15 0.335940 0.835940 0.008553
O O16 0.662711 0.662711 0.500000
#
# Coordination Sequence:
#
# PCOD9562965 Si02
#       8
#    16   8  16  16   8  16   8   8
#     4  12  24  42  68  98 133 169 217 275 334 391
#     4  11  24  44  63  97 142 177 212 268 349 411
#     4  10  19  36  61  95 127 166 214 268 323 387
#     4  12  24  44  68 100 128 171 223 273 331 396
#     4   9  18  34  62  93 127 165 204 255 323 386
#     4  11  24  41  61  88 126 170 217 269 324 391
#     4   9  16  32  60  93 130 166 214 267 326 392
#     4  11  24  44  71  94 124 168 225 280 318 385
#
# _framework density 18.923929999999999
#
# number of rings (size 3 to 8) (size 9 to 14) (size 15 to 20)
#    0.000    1.167    5.000    2.000    0.000    1.667 
#    4.500    2.083    0.000    3.000    0.000    0.000 
#    0.000    0.000    0.000    0.000    0.000    0.000 
#
# Total GULP energy -535875.676081 kJ/mol
# GULP energy per Si atom -5582.038293 kJ/mol
# Density = 1.888086 g / cm^3
# Si number density = 18.923930 Si / 1000 Ang^3
#
#
#
# Elastic Constant Matrix: (Units=GPa)
#
#
# Indices 1 2 3 4 5 6 
#
# 1 81.7458 -7.0660 42.8889 0.0000 0.0000 0.0000
# 2 -7.0660 81.7458 42.8889 0.0000 0.0000 0.0000
# 3 42.8889 42.8889 171.8855 0.0000 0.0000 0.0000
# 4 0.0000 0.0000 0.0000 34.8672 0.0000 0.0000
# 5 0.0000 0.0000 0.0000 0.0000 34.8672 0.0000
# 6 0.0000 0.0000 0.0000 0.0000 0.0000 17.7304
#
#
#
# Elastic Compliance Matrix: (Units=1/GPa)
#
#
# Indices 1 2 3 4 5 6 
#
# 1 0.015015 0.003755 -0.004683 0.000000 0.000000 0.000000
# 2 0.003755 0.015015 -0.004683 0.000000 0.000000 0.000000
# 3 -0.004683 -0.004683 0.008155 0.000000 0.000000 0.000000
# 4 0.000000 0.000000 0.000000 0.028680 0.000000 0.000000
# 5 0.000000 0.000000 0.000000 0.000000 0.028680 0.000000
# 6 0.000000 0.000000 0.000000 0.000000 0.000000 0.056400
#
#
# Mechanical properties :
#
#
# Convention : Reuss Voigt Hill
#
# Bulk Modulus (GPa) = 37.09048 54.75562 45.92305
# Shear Modulus (GPa) = 29.04335 34.60397 31.82366
#
# Velocity S-wave (km/s) = 3.92183 4.28083 4.10526
# Velocity P-wave (km/s) = 6.33640 7.30968 6.84037
#
# Compressibility (1/GPa) = 0.02696110
#
# Stress axis : x y z
#
# Youngs Moduli (GPa) = 66.60061 66.60061 122.62311
#
# Poissons Ratio (x) = -0.25009 0.57430
# Poissons Ratio (y) = -0.25009 0.57430
# Poissons Ratio (z) = 0.31192 0.31192
#
# Static dielectric constant tensor:
#      x y z
#    x 1.649610 0.000000 0.000000 
#    y 0.000000 1.649610 0.000000 
#    z 0.000000 0.000000 1.636220 
# 
# From -- ./inp_files/6009.got.cif
#   From: 2010.05.17/outbox.cif.g08.bks.cpg/sg125_4_cif.got.tgz:6009.got - 2010.05.20 11:54:10.
