data_PCOD9562459
_publ_section_title
;
Structure prediction by ZEFSAII (Michael W. Deem and Ramdas Pophale) SiO2 
 PCOD9562459
Probable space group: P 4/M C C
;
_chemical_formula_sum "Si O2"
_cell_formula_units_Z 80
_cell_length_a 15.444060
_cell_length_b 15.444060
_cell_length_c 14.730713
_cell_angle_alpha 90.000000
_cell_angle_beta 90.000000
_cell_angle_gamma 90.000000
_cell_volume 3513.554776
_symmetry_space_group_name_H-M "P 4/M C C"
_symmetry_group_IT_number 124
_symmetry_cell_setting 'tetragonal'
loop_
_space_group_symop_operation_xyz
x,y,z
-y,x,z
-x,-y,z
y,-x,z
x,-y,1/2-z
-x,y,1/2-z
y,x,1/2-z
-y,-x,1/2-z
-x,-y,-z
y,-x,-z
x,y,-z
-y,x,-z
-x,y,1/2+z
x,-y,1/2+z
-y,-x,1/2+z
y,x,1/2+z
loop_
_atom_site_type_symbol
_atom_site_label
_atom_site_fract_x
_atom_site_fract_y
_atom_site_fract_z
Si Si1 0.571060 0.064743 0.606675
Si Si2 0.845578 0.216496 0.389028
Si Si3 0.232318 0.035465 0.893002
Si Si4 0.722021 0.623827 0.856191
Si Si5 0.432898 0.262223 0.147741
O O1 0.551095 0.077994 0.500000
O O2 0.665067 0.023912 0.613571
O O3 0.577092 0.159278 0.647497
O O4 0.500000 0.000000 0.644809
O O5 0.845760 0.220743 0.500000
O O6 0.792496 0.131070 0.358865
O O7 0.801803 0.307677 0.359969
O O8 0.943935 0.198975 0.356370
O O9 0.208023 0.037945 0.000000
O O10 0.642829 0.680022 0.895733
O O11 0.725596 0.527276 0.896863
O O12 0.713994 0.589428 0.752397
#
# Coordination Sequence:
#
# PCOD9562459 Si02
#       5
#    16  16  16  16  16
#     4  10  19  34  57  85 116 149 192 242 298 359
#     4  10  19  35  57  83 116 153 195 240 297 355
#     4   9  18  31  52  81 112 149 187 233 289 349
#     4  10  21  37  57  80 114 151 195 247 291 355
#     4  10  21  37  57  81 114 150 196 241 301 353
#
# _framework density 22.768964
#
# number of rings (size 3 to 8) (size 9 to 14) (size 15 to 20)
#    0.000    2.200    2.000    1.200    0.000    3.200 
#    0.000   11.000    0.000    0.000    0.000    2.800 
#    0.000    0.000    0.000    0.000    0.000    0.000 
#
# Total GULP energy -445494.392505 kJ/mol
# GULP energy per Si atom -5568.679906 kJ/mol
# Density = 2.271714 g / cm^3
# Si number density = 22.768964 Si / 1000 Ang^3
#
#
#
# Elastic Constant Matrix: (Units=GPa)
#
#
# Indices 1 2 3 4 5 6 
#
# 1 139.8774 58.1018 17.3604 0.0000 0.0000 0.0000
# 2 58.1018 139.8774 17.3604 0.0000 0.0000 0.0000
# 3 17.3604 17.3604 59.8887 0.0000 0.0000 0.0000
# 4 0.0000 0.0000 0.0000 53.7583 0.0000 0.0000
# 5 0.0000 0.0000 0.0000 0.0000 53.7583 0.0000
# 6 0.0000 0.0000 0.0000 0.0000 0.0000 66.4578
#
#
#
# Elastic Compliance Matrix: (Units=1/GPa)
#
#
# Indices 1 2 3 4 5 6 
#
# 1 0.008775 -0.003454 -0.001543 0.000000 0.000000 0.000000
# 2 -0.003454 0.008775 -0.001543 0.000000 0.000000 0.000000
# 3 -0.001543 -0.001543 0.017592 0.000000 0.000000 0.000000
# 4 0.000000 0.000000 0.000000 0.018602 0.000000 0.000000
# 5 0.000000 0.000000 0.000000 0.000000 0.018602 0.000000
# 6 0.000000 0.000000 0.000000 0.000000 0.000000 0.015047
#
#
# Mechanical properties :
#
#
# Convention : Reuss Voigt Hill
#
# Bulk Modulus (GPa) = 45.32122 58.36537 51.84330
# Shear Modulus (GPa) = 46.37135 51.24959 48.81047
#
# Velocity S-wave (km/s) = 4.51777 4.74946 4.63506
# Velocity P-wave (km/s) = 6.86744 7.46766 7.17383
#
# Compressibility (1/GPa) = 0.02206472
#
# Stress axis : x y z
#
# Youngs Moduli (GPa) = 113.95913 113.95913 56.84407
#
# Poissons Ratio (x) = 0.39356 0.08769
# Poissons Ratio (y) = 0.39356 0.08769
# Poissons Ratio (z) = 0.17579 0.17579
#
# Static dielectric constant tensor:
#      x y z
#    x 1.247000 0.000000 0.000000 
#    y 0.000000 1.247000 0.000000 
#    z 0.000000 0.000000 2.133930 
# 
# From -- ./inp_files/5114.got.cif
#   From: 2010.05.17/outbox.cif.g08.bks.cpg/sg124_3_cif.got.tgz:5114.got - 2010.05.20 11:49:17.
