data_PCOD9562502
_publ_section_title
;
Structure prediction by ZEFSAII (Michael W. Deem and Ramdas Pophale) SiO2 
 PCOD9562502
Probable space group: P 4/M C C
;
_chemical_formula_sum "Si O2"
_cell_formula_units_Z 96
_cell_length_a 25.503552
_cell_length_b 25.503552
_cell_length_c 9.088985
_cell_angle_alpha 90.000000
_cell_angle_beta 90.000000
_cell_angle_gamma 90.000000
_cell_volume 5911.759099
_symmetry_space_group_name_H-M "P 4/M C C"
_symmetry_group_IT_number 124
_symmetry_cell_setting 'tetragonal'
loop_
_space_group_symop_operation_xyz
x,y,z
-y,x,z
-x,-y,z
y,-x,z
x,-y,1/2-z
-x,y,1/2-z
y,x,1/2-z
-y,-x,1/2-z
-x,-y,-z
y,-x,-z
x,y,-z
-y,x,-z
-x,y,1/2+z
x,-y,1/2+z
-y,-x,1/2+z
y,x,1/2+z
loop_
_atom_site_type_symbol
_atom_site_label
_atom_site_fract_x
_atom_site_fract_y
_atom_site_fract_z
Si Si1 0.241125 0.838114 0.824670
Si Si2 0.838378 0.365645 0.675269
Si Si3 0.444276 0.365204 0.174567
Si Si4 0.555725 0.758884 0.825542
Si Si5 0.239995 0.053024 0.169470
Si Si6 0.367548 0.052946 0.169443
O O1 0.207297 0.792704 0.750000
O O2 0.303404 0.830988 0.796632
O O3 0.225503 0.894253 0.755913
O O4 0.233309 0.838473 0.000000
O O5 0.838457 0.373489 0.500000
O O6 0.793344 0.399327 0.751499
O O7 0.894487 0.381723 0.743226
O O8 0.500000 0.377294 0.250000
O O9 0.399701 0.399701 0.250000
O O10 0.434247 0.303164 0.195850
O O11 0.446804 0.375384 0.000000
O O12 0.500000 0.770955 0.750000
O O13 0.552994 0.768963 0.000000
O O14 0.303774 0.051389 0.168649
O O15 0.222145 0.000000 0.250000
O O16 0.222731 0.054850 0.000000
O O17 0.385540 0.000000 0.250000
O O18 0.384901 0.054915 0.000000
#
# Coordination Sequence:
#
# PCOD9562502 Si02
#       6
#    16  16  16  16  16  16
#     4  10  20  32  46  68 100 134 166 203 247 293
#     4  10  20  33  50  72  98 130 167 204 245 294
#     4  10  21  37  57  80 105 131 161 198 241 289
#     4  10  21  37  56  76  99 129 165 204 243 286
#     4   9  16  27  44  65  91 125 164 203 243 290
#     4   9  16  27  45  69  96 125 160 202 246 291
#
# _framework density 16.238821999999999
#
# number of rings (size 3 to 8) (size 9 to 14) (size 15 to 20)
#    0.000    2.333    0.000    3.000    0.000    8.833 
#    0.000    4.167    0.000    0.500    0.000    3.500 
#    0.000    0.333    0.000    3.333    0.000    2.333 
#
# Total GULP energy -535542.244256 kJ/mol
# GULP energy per Si atom -5578.565044 kJ/mol
# Density = 1.620186 g / cm^3
# Si number density = 16.238822 Si / 1000 Ang^3
#
#
#
# Elastic Constant Matrix: (Units=GPa)
#
#
# Indices 1 2 3 4 5 6 
#
# 1 82.9648 70.2770 81.6610 0.0000 0.0000 0.0000
# 2 70.2770 82.9705 81.6600 0.0000 0.0000 0.0000
# 3 81.6610 81.6600 146.5178 0.0000 0.0000 0.0000
# 4 0.0000 0.0000 0.0000 30.8242 0.0000 0.0000
# 5 0.0000 0.0000 0.0000 0.0000 30.8241 0.0000
# 6 0.0000 0.0000 0.0000 0.0000 0.0000 -7.8146
#
#
#
# Elastic Compliance Matrix: (Units=1/GPa)
#
#
# Indices 1 2 3 4 5 6 
#
# 1 0.047440 -0.031363 -0.008960 0.000000 0.000000 0.000000
# 2 -0.031363 0.047431 -0.008955 0.000000 0.000000 0.000000
# 3 -0.008960 -0.008955 0.016810 0.000000 0.000000 0.000000
# 4 0.000000 0.000000 0.000000 0.032442 0.000000 0.000000
# 5 0.000000 0.000000 0.000000 0.000000 0.032442 0.000000
# 6 0.000000 0.000000 0.000000 0.000000 0.000000 -0.127965
#
#
# Mechanical properties :
#
#
# Convention : Reuss Voigt Hill
#
# Bulk Modulus (GPa) = 76.19802 86.62768 81.41285
# Shear Modulus (GPa) = 32.99645 16.02373 24.51009
#
# Velocity S-wave (km/s) = 4.51260 3.14467 3.88925
# Velocity P-wave (km/s) = 8.61259 8.16377 8.39118
#
# Compressibility (1/GPa) = 0.01312370
#
# Stress axis : x y z
#
# Youngs Moduli (GPa) = 21.07940 21.08330 59.48795
#
# Poissons Ratio (x) = 0.66124 0.53304
# Poissons Ratio (y) = 0.66111 0.53271
# Poissons Ratio (z) = 0.18888 0.18880
#
# Static dielectric constant tensor:
#      x y z
#    x 1.522990 0.000000 0.000000 
#    y 0.000000 1.522990 0.000000 
#    z 0.000000 0.000000 1.540890 
# 
# From -- ./inp_files/1327.got.cif
#   From: 2010.05.17/outbox.cif.g08.bks.cpg/sg124_1_cif.got.tgz:1327.got - 2010.05.20 11:49:17.
