data_PCOD9562780
_publ_section_title
;
Structure prediction by ZEFSAII (Michael W. Deem and Ramdas Pophale) SiO2 
 PCOD9562780
Probable space group: P 4/M C C
;
_chemical_formula_sum "Si O2"
_cell_formula_units_Z 112
_cell_length_a 13.857567
_cell_length_b 13.857567
_cell_length_c 29.107747
_cell_angle_alpha 90.000000
_cell_angle_beta 90.000000
_cell_angle_gamma 90.000000
_cell_volume 5589.623621
_symmetry_space_group_name_H-M "P 4/M C C"
_symmetry_group_IT_number 124
_symmetry_cell_setting 'tetragonal'
loop_
_space_group_symop_operation_xyz
x,y,z
-y,x,z
-x,-y,z
y,-x,z
x,-y,1/2-z
-x,y,1/2-z
y,x,1/2-z
-y,-x,1/2-z
-x,-y,-z
y,-x,-z
x,y,-z
-y,x,-z
-x,y,1/2+z
x,-y,1/2+z
-y,-x,1/2+z
y,x,1/2+z
loop_
_atom_site_type_symbol
_atom_site_label
_atom_site_fract_x
_atom_site_fract_y
_atom_site_fract_z
Si Si1 0.385600 0.996144 0.695375
Si Si2 0.703965 0.850529 0.371273
Si Si3 0.232844 0.375381 0.549442
Si Si4 0.923918 0.144012 0.447312
Si Si5 0.592912 0.775242 0.550117
Si Si6 0.197784 0.650541 0.852398
Si Si7 0.661549 0.483779 0.197415
O O1 0.342146 0.895623 0.678262
O O2 0.500000 0.000000 0.683672
O O3 0.377489 0.000000 0.750000
O O4 0.327224 0.079564 0.669357
O O5 0.787192 0.887609 0.406490
O O6 0.613726 0.839547 0.405923
O O7 0.736867 0.746987 0.350959
O O8 0.184835 0.358674 0.500000
O O9 0.266290 0.485816 0.551798
O O10 0.325463 0.306720 0.552076
O O11 0.169480 0.357661 0.594050
O O12 0.903895 0.178851 0.500000
O O13 0.038761 0.125793 0.443437
O O14 0.601317 0.824150 0.500000
O O15 0.254771 0.554658 0.835503
O O16 0.600741 0.581472 0.190964
O O17 0.697501 0.500000 0.250000
#
# Coordination Sequence:
#
# PCOD9562780 Si02
#       7
#    16  16  16  16  16  16  16
#     4  11  27  44  61  87 123 159 206 263 322 386
#     4  11  22  39  61  88 120 161 207 254 302 385
#     4   9  19  34  53  82 119 155 199 238 288 359
#     4   9  18  35  63  95 124 154 196 257 317 367
#     4   9  18  33  53  80 115 157 194 240 289 349
#     4  11  24  39  66  89 120 169 205 251 319 369
#     4   9  21  38  61  91 120 151 204 267 318 369
#
# _framework density 20.037127000000002
#
# number of rings (size 3 to 8) (size 9 to 14) (size 15 to 20)
#    0.000    2.143    0.000    3.000    8.000    2.571 
#    0.000    2.857    0.000    3.857    0.000    1.000 
#    0.000    0.000    0.000    0.000    0.000    0.000 
#
# Total GULP energy -624645.371580 kJ/mol
# GULP energy per Si atom -5577.190818 kJ/mol
# Density = 1.999152 g / cm^3
# Si number density = 20.037127 Si / 1000 Ang^3
#
#
#
# Elastic Constant Matrix: (Units=GPa)
#
#
# Indices 1 2 3 4 5 6 
#
# 1 52.8918 6.3256 52.6861 0.0000 0.0000 0.0000
# 2 6.3256 52.8918 52.6861 0.0000 0.0000 0.0000
# 3 52.6861 52.6861 130.9957 0.0000 0.0000 0.0000
# 4 0.0000 0.0000 0.0000 22.0774 0.0000 0.0000
# 5 0.0000 0.0000 0.0000 0.0000 22.0774 0.0000
# 6 0.0000 0.0000 0.0000 0.0000 0.0000 11.5946
#
#
#
# Elastic Compliance Matrix: (Units=1/GPa)
#
#
# Indices 1 2 3 4 5 6 
#
# 1 0.040434 0.018959 -0.023888 0.000000 0.000000 0.000000
# 2 0.018959 0.040434 -0.023888 0.000000 0.000000 0.000000
# 3 -0.023888 -0.023888 0.026849 0.000000 0.000000 0.000000
# 4 0.000000 0.000000 0.000000 0.045295 0.000000 0.000000
# 5 0.000000 0.000000 0.000000 0.000000 0.045295 0.000000
# 6 0.000000 0.000000 0.000000 0.000000 0.000000 0.086247
#
#
# Mechanical properties :
#
#
# Convention : Reuss Voigt Hill
#
# Bulk Modulus (GPa) = 19.96643 51.13052 35.54848
# Shear Modulus (GPa) = 13.93220 19.48867 16.71043
#
# Velocity S-wave (km/s) = 2.63975 3.12208 2.89099
# Velocity P-wave (km/s) = 4.39060 6.21046 5.37807
#
# Compressibility (1/GPa) = 0.05008406
#
# Stress axis : x y z
#
# Youngs Moduli (GPa) = 24.73178 24.73178 37.24550
#
# Poissons Ratio (x) = -0.46889 0.88971
# Poissons Ratio (y) = -0.46889 0.88971
# Poissons Ratio (z) = 0.59078 0.59078
#
# Static dielectric constant tensor:
#      x y z
#    x 1.705690 0.000000 0.000000 
#    y 0.000000 1.705690 0.000000 
#    z 0.000000 0.000000 1.735760 
# 
# From -- ./inp_files/6645.got.cif
#   From: 2010.05.17/outbox.cif.g08.bks.cpg/sg124_4_cif.got.tgz:6645.got - 2010.05.20 11:49:17.
