data_PCOD9562869
_publ_section_title
;
Structure prediction by ZEFSAII (Michael W. Deem and Ramdas Pophale) SiO2 
 PCOD9562869
Probable space group: P 4/M C C
;
_chemical_formula_sum "Si O2"
_cell_formula_units_Z 96
_cell_length_a 18.000000
_cell_length_b 18.000000
_cell_length_c 18.000000
_cell_angle_alpha 90.000000
_cell_angle_beta 90.000000
_cell_angle_gamma 90.000000
_cell_volume 5832.000000
_symmetry_space_group_name_H-M "P 4/M C C"
_symmetry_group_IT_number 124
_symmetry_cell_setting 'tetragonal'
loop_
_space_group_symop_operation_xyz
x,y,z
-y,x,z
-x,-y,z
y,-x,z
x,-y,1/2-z
-x,y,1/2-z
y,x,1/2-z
-y,-x,1/2-z
-x,-y,-z
y,-x,-z
x,y,-z
-y,x,-z
-x,y,1/2+z
x,-y,1/2+z
-y,-x,1/2+z
y,x,1/2+z
loop_
_atom_site_type_symbol
_atom_site_label
_atom_site_fract_x
_atom_site_fract_y
_atom_site_fract_z
Si Si1 0.327819 0.382837 0.589014
Si Si2 0.697143 0.535512 0.832907
Si Si3 0.927165 0.692156 0.704274
Si Si4 0.363905 0.843630 0.154579
Si Si5 0.767650 0.741178 0.665080
Si Si6 0.992046 0.413303 0.586295
O O1 0.339217 0.373891 0.500000
O O2 0.307221 0.466584 0.610720
O O3 0.401091 0.359740 0.637109
O O4 0.261716 0.328869 0.618270
O O5 0.685613 0.500000 0.750000
O O6 0.776021 0.578409 0.837582
O O7 0.885212 0.643062 0.766349
O O8 0.857833 0.742548 0.673035
O O9 0.000000 0.724388 0.750000
O O10 0.959827 0.640689 0.639064
O O11 0.281532 0.810815 0.135727
O O12 0.390326 0.906119 0.097580
O O13 0.736934 0.736934 0.750000
O O14 0.013662 0.405946 0.500000
O O15 0.000000 0.500000 0.607943
#
# Coordination Sequence:
#
# PCOD9562869 Si02
#       6
#    16  16  16  16  16  16
#     4  11  23  36  52  77 103 133 178 233 289 339
#     4  11  22  38  57  74  96 135 185 234 282 338
#     4   9  18  34  54  78 102 136 178 223 270 326
#     4   9  20  34  56  76 104 140 182 222 269 329
#     4   9  18  36  55  78 104 140 182 222 271 334
#     4  10  22  34  47  76 115 147 179 222 275 331
#
# _framework density 16.460905
#
# number of rings (size 3 to 8) (size 9 to 14) (size 15 to 20)
#    0.000    2.167    0.000    4.000    4.667    6.667 
#    0.000    1.667    0.000    0.000    0.000    0.000 
#    0.000  175.667    0.000   24.000    0.000    0.000 
#
# Total GULP energy -534748.010114 kJ/mol
# GULP energy per Si atom -5570.291772 kJ/mol
# Density = 1.642344 g / cm^3
# Si number density = 16.460905 Si / 1000 Ang^3
#
#
#
# Elastic Constant Matrix: (Units=GPa)
#
#
# Indices 1 2 3 4 5 6 
#
# 1 108.3690 45.2427 27.9414 0.0000 0.0000 0.0000
# 2 45.2427 108.3690 27.9414 0.0000 0.0000 0.0000
# 3 27.9414 27.9414 66.3710 0.0000 0.0000 0.0000
# 4 0.0000 0.0000 0.0000 18.7296 0.0000 0.0000
# 5 0.0000 0.0000 0.0000 0.0000 18.7296 0.0000
# 6 0.0000 0.0000 0.0000 0.0000 0.0000 23.6625
#
#
#
# Elastic Compliance Matrix: (Units=1/GPa)
#
#
# Indices 1 2 3 4 5 6 
#
# 1 0.011764 -0.004077 -0.003236 0.000000 0.000000 0.000000
# 2 -0.004077 0.011764 -0.003236 0.000000 0.000000 0.000000
# 3 -0.003236 -0.003236 0.017792 0.000000 0.000000 0.000000
# 4 0.000000 0.000000 0.000000 0.053391 0.000000 0.000000
# 5 0.000000 0.000000 0.000000 0.000000 0.053391 0.000000
# 6 0.000000 0.000000 0.000000 0.000000 0.000000 0.042261
#
#
# Mechanical properties :
#
#
# Convention : Reuss Voigt Hill
#
# Bulk Modulus (GPa) = 49.45310 53.92890 51.69100
# Shear Modulus (GPa) = 22.91441 24.35657 23.63549
#
# Velocity S-wave (km/s) = 3.73507 3.85081 3.79338
# Velocity P-wave (km/s) = 6.97918 7.25290 7.11736
#
# Compressibility (1/GPa) = 0.02022118
#
# Stress axis : x y z
#
# Youngs Moduli (GPa) = 85.00323 85.00323 56.20614
#
# Poissons Ratio (x) = 0.34656 0.18190
# Poissons Ratio (y) = 0.34656 0.18190
# Poissons Ratio (z) = 0.27509 0.27509
#
# Static dielectric constant tensor:
#      x y z
#    x 1.569880 0.000000 0.000000 
#    y 0.000000 1.569880 0.000000 
#    z 0.000000 0.000000 1.572930 
# 
# From -- ./inp_files/4270.got.cif
#   From: 2010.05.17/outbox.ucp.g08.bks.cvg/sg124_3_cif.got.tgz:4270.got - 2010.06.11 11:36:13.
