data_PCOD9562928
_publ_section_title
;
Structure prediction by ZEFSAII (Michael W. Deem and Ramdas Pophale) SiO2 
 PCOD9562928
Probable space group: P 4/N B M
;
_chemical_formula_sum "Si O2"
_cell_formula_units_Z 96
_cell_length_a 24.518758
_cell_length_b 24.518758
_cell_length_c 8.796009
_cell_angle_alpha 90.000000
_cell_angle_beta 90.000000
_cell_angle_gamma 90.000000
_cell_volume 5287.892279
_symmetry_space_group_name_H-M "P 4/N B M"
_symmetry_group_IT_number 125
_space_group.IT_coordinate_system_code '2'
_symmetry_cell_setting 'tetragonal'
loop_
_space_group_symop_operation_xyz
x,y,z
1/2-y,x,z
1/2-x,1/2-y,z
y,1/2-x,z
x,1/2-y,-z
1/2-x,y,-z
y,x,-z
1/2-y,1/2-x,-z
-x,-y,-z
1/2+y,-x,-z
1/2+x,1/2+y,-z
-y,1/2+x,-z
-x,1/2+y,z
1/2+x,-y,z
-y,-x,z
1/2+y,1/2+x,z
loop_
_atom_site_type_symbol
_atom_site_label
_atom_site_fract_x
_atom_site_fract_y
_atom_site_fract_z
Si Si1 0.374606 0.094811 0.165062
Si Si2 0.351344 0.937171 0.791906
Si Si3 0.236998 0.958534 0.675897
Si Si4 0.210537 0.077304 0.618515
Si Si5 0.463750 0.874045 0.144856
Si Si6 0.536329 0.889286 0.589083
O O1 0.317294 0.108514 0.244481
O O2 0.422330 0.116304 0.271521
O O3 0.381186 0.028795 0.162023
O O4 0.381399 0.118602 0.000000
O O5 0.379139 0.879139 0.769425
O O6 0.286879 0.935412 0.770740
O O7 0.378857 0.977821 0.666169
O O8 0.363315 0.955217 0.965098
O O9 0.250000 0.943426 0.500000
O O10 0.177858 0.946654 0.749791
O O11 0.242111 0.024506 0.680870
O O12 0.250000 0.106645 0.500000
O O13 0.159346 0.051254 0.526407
O O14 0.426901 0.926901 0.185337
O O15 0.554945 0.945056 0.500000
#
# Coordination Sequence:
#
# PCOD9562928 Si02
#       6
#    16  16  16  16  16  16
#     4  10  19  31  51  78 112 146 183 226 272 331
#     4  11  21  34  53  79 108 145 188 226 277 333
#     4  10  19  36  54  75 102 138 194 238 271 324
#     4   9  17  33  53  70 103 147 189 224 273 320
#     4  10  22  36  54  77 109 153 186 221 279 343
#     4  10  19  33  48  75 113 146 178 221 268 326
#
# _framework density 18.154682999999999
#
# number of rings (size 3 to 8) (size 9 to 14) (size 15 to 20)
#    0.000    2.000    5.000    0.500    0.000    2.000 
#    0.000    0.833    0.000    0.500    0.000    3.500 
#    0.000   27.000    0.000   32.000    0.000    0.000 
#
# Total GULP energy -534654.579383 kJ/mol
# GULP energy per Si atom -5569.318535 kJ/mol
# Density = 1.811336 g / cm^3
# Si number density = 18.154683 Si / 1000 Ang^3
#
#
#
# Elastic Constant Matrix: (Units=GPa)
#
#
# Indices 1 2 3 4 5 6 
#
# 1 61.1370 26.8325 28.1721 0.0000 0.0000 0.0000
# 2 26.8325 61.1357 28.1727 0.0000 0.0000 0.0000
# 3 28.1721 28.1727 111.4626 0.0000 0.0000 0.0000
# 4 0.0000 0.0000 0.0000 24.1513 0.0000 0.0000
# 5 0.0000 0.0000 0.0000 0.0000 24.1518 0.0000
# 6 0.0000 0.0000 0.0000 0.0000 0.0000 -0.9200
#
#
#
# Elastic Compliance Matrix: (Units=1/GPa)
#
#
# Indices 1 2 3 4 5 6 
#
# 1 0.021357 -0.007794 -0.003428 0.000000 0.000000 0.000000
# 2 -0.007794 0.021358 -0.003428 0.000000 0.000000 0.000000
# 3 -0.003428 -0.003428 0.010705 0.000000 0.000000 0.000000
# 4 0.000000 0.000000 0.000000 0.041406 0.000000 0.000000
# 5 0.000000 0.000000 0.000000 0.000000 0.041405 0.000000
# 6 0.000000 0.000000 0.000000 0.000000 0.000000 -1.086973
#
#
# Mechanical properties :
#
#
# Convention : Reuss Voigt Hill
#
# Bulk Modulus (GPa) = 41.46160 44.45445 42.95803
# Shear Modulus (GPa) = -5.47403 19.51381 7.01989
#
# Velocity S-wave (km/s) = -1.73832 3.28207 1.96853
# Velocity P-wave (km/s) = 4.34264 6.23717 5.37405
#
# Compressibility (1/GPa) = 0.02411870
#
# Stress axis : x y z
#
# Youngs Moduli (GPa) = 46.82303 46.82166 93.41793
#
# Poissons Ratio (x) = 0.36492 0.32024
# Poissons Ratio (y) = 0.36493 0.32027
# Poissons Ratio (z) = 0.16051 0.16052
#
# Static dielectric constant tensor:
#      x y z
#    x 1.643440 0.000000 0.000000 
#    y 0.000000 1.643440 0.000000 
#    z 0.000000 0.000000 1.696160 
# 
# From -- ./inp_files/2859.got.cif
#   From: 2010.05.17/outbox.cif.g08.bks.cpg/sg125_2_cif.got.tgz:2859.got - 2010.05.20 11:54:10.
