data_PCOD9562975
_publ_section_title
;
Structure prediction by ZEFSAII (Michael W. Deem and Ramdas Pophale) SiO2 
 PCOD9562975
Probable space group: P 4/N B M
;
_chemical_formula_sum "Si O2"
_cell_formula_units_Z 96
_cell_length_a 20.605384
_cell_length_b 20.605384
_cell_length_c 13.853504
_cell_angle_alpha 90.000000
_cell_angle_beta 90.000000
_cell_angle_gamma 90.000000
_cell_volume 5881.946354
_symmetry_space_group_name_H-M "P 4/N B M"
_symmetry_group_IT_number 125
_space_group.IT_coordinate_system_code '2'
_symmetry_cell_setting 'tetragonal'
loop_
_space_group_symop_operation_xyz
x,y,z
1/2-y,x,z
1/2-x,1/2-y,z
y,1/2-x,z
x,1/2-y,-z
1/2-x,y,-z
y,x,-z
1/2-y,1/2-x,-z
-x,-y,-z
1/2+y,-x,-z
1/2+x,1/2+y,-z
-y,1/2+x,-z
-x,1/2+y,z
1/2+x,-y,z
-y,-x,z
1/2+y,1/2+x,z
loop_
_atom_site_type_symbol
_atom_site_label
_atom_site_fract_x
_atom_site_fract_y
_atom_site_fract_z
Si Si1 0.582579 0.191378 0.924758
Si Si2 0.586342 0.974759 0.908982
Si Si3 0.539043 0.572863 0.289007
Si Si4 0.400717 0.796987 0.299373
Si Si5 0.446626 0.836169 0.615430
Si Si6 0.491458 0.884817 0.419809
O O1 0.638776 0.138776 0.949678
O O2 0.514449 0.152695 0.921560
O O3 0.596528 0.214082 0.815132
O O4 0.582512 0.250000 0.000000
O O5 0.577695 0.934763 0.810315
O O6 0.530794 0.030794 0.905518
O O7 0.569857 0.930144 0.000000
O O8 0.485146 0.514855 0.289849
O O9 0.498200 0.637847 0.305780
O O10 0.586735 0.558105 0.378967
O O11 0.333011 0.833011 0.323666
O O12 0.416039 0.732128 0.357089
O O13 0.455885 0.848447 0.331320
O O14 0.388014 0.888014 0.611292
O O15 0.484183 0.839763 0.513176
O O16 0.447370 0.947370 0.444681
#
# Coordination Sequence:
#
# PCOD9562975 Si02
#       6
#    16  16  16  16  16  16
#     4  10  21  35  50  68  94 132 172 208 251 300
#     4   9  17  30  49  70  91 120 157 204 262 311
#     4   9  16  29  48  70  95 120 155 208 266 308
#     4  10  20  34  48  64  97 139 168 198 247 299
#     4  10  20  29  46  74  96 126 173 213 241 291
#     4   9  16  31  49  66  93 127 161 200 255 304
#
# _framework density 16.321128999999999
#
# number of rings (size 3 to 8) (size 9 to 14) (size 15 to 20)
#    0.000    2.500    1.667    1.000    2.333    3.167 
#    0.000    1.667    0.000    3.000    0.000    0.000 
#    0.000    1.000    1.333    3.333    1.000    0.667 
#
# Total GULP energy -534741.375598 kJ/mol
# GULP energy per Si atom -5570.222662 kJ/mol
# Density = 1.628398 g / cm^3
# Si number density = 16.321129 Si / 1000 Ang^3
#
#
#
# Elastic Constant Matrix: (Units=GPa)
#
#
# Indices 1 2 3 4 5 6 
#
# 1 43.0602 48.1307 35.8284 0.0000 0.0000 0.0000
# 2 48.1307 43.0603 35.8279 0.0000 0.0000 0.0000
# 3 35.8284 35.8279 89.4233 0.0000 0.0000 0.0000
# 4 0.0000 0.0000 0.0000 24.3415 0.0000 0.0000
# 5 0.0000 0.0000 0.0000 0.0000 24.3415 0.0000
# 6 0.0000 0.0000 0.0000 0.0000 0.0000 21.1124
#
#
#
# Elastic Compliance Matrix: (Units=1/GPa)
#
#
# Indices 1 2 3 4 5 6 
#
# 1 -0.090610 0.106614 -0.006412 0.000000 0.000000 0.000000
# 2 0.106614 -0.090608 -0.006413 0.000000 0.000000 0.000000
# 3 -0.006412 -0.006413 0.016321 0.000000 0.000000 0.000000
# 4 0.000000 0.000000 0.000000 0.041082 0.000000 0.000000
# 5 0.000000 0.000000 0.000000 0.000000 0.041082 0.000000
# 6 0.000000 0.000000 0.000000 0.000000 0.000000 0.047366
#
#
# Mechanical properties :
#
#
# Convention : Reuss Voigt Hill
#
# Bulk Modulus (GPa) = 44.08985 46.12420 45.10703
# Shear Modulus (GPa) = -23.21432 17.67621 -2.76906
#
# Velocity S-wave (km/s) = -3.77549 3.29451 -1.30395
# Velocity P-wave (km/s) = 2.84021 6.54167 5.04283
#
# Compressibility (1/GPa) = 0.02268096
#
# Stress axis : x y z
#
# Youngs Moduli (GPa) = -11.03635 -11.03654 61.27021
#
# Poissons Ratio (x) = 1.17665 0.39284
# Poissons Ratio (y) = 1.17663 0.39294
# Poissons Ratio (z) = -0.07076 -0.07078
#
# Static dielectric constant tensor:
#      x y z
#    x 1.543440 0.000000 0.000000 
#    y 0.000000 1.543440 0.000000 
#    z 0.000000 0.000000 1.592420 
# 
# From -- ./inp_files/4121.got.cif
#   From: 2010.05.17/outbox.cif.g08.bks.cpg/sg125_3_cif.got.tgz:4121.got - 2010.05.20 11:54:10.
