data_PCOD9562488
_publ_section_title
;
Structure prediction by ZEFSAII (Michael W. Deem and Ramdas Pophale) SiO2 
 PCOD9562488
Probable space group: P 4/M C C
;
_chemical_formula_sum "Si O2"
_cell_formula_units_Z 120
_cell_length_a 19.771717
_cell_length_b 19.771717
_cell_length_c 14.801517
_cell_angle_alpha 90.000000
_cell_angle_beta 90.000000
_cell_angle_gamma 90.000000
_cell_volume 5786.220765
_symmetry_space_group_name_H-M "P 4/M C C"
_symmetry_group_IT_number 124
_symmetry_cell_setting 'tetragonal'
loop_
_space_group_symop_operation_xyz
x,y,z
-y,x,z
-x,-y,z
y,-x,z
x,-y,1/2-z
-x,y,1/2-z
y,x,1/2-z
-y,-x,1/2-z
-x,-y,-z
y,-x,-z
x,y,-z
-y,x,-z
-x,y,1/2+z
x,-y,1/2+z
-y,-x,1/2+z
y,x,1/2+z
loop_
_atom_site_type_symbol
_atom_site_label
_atom_site_fract_x
_atom_site_fract_y
_atom_site_fract_z
Si Si1 0.772697 0.668079 0.273128
Si Si2 0.022789 0.106842 0.110404
Si Si3 0.655867 0.095665 0.394544
Si Si4 0.850020 0.364059 0.398342
Si Si5 0.874930 0.507850 0.357472
Si Si6 0.461726 0.718900 0.655710
Si Si7 0.259998 0.965434 0.109815
Si Si8 0.489058 0.386714 0.000000
O O1 0.738460 0.738460 0.250000
O O2 0.839039 0.672838 0.334774
O O3 0.793965 0.632278 0.179208
O O4 0.720947 0.618439 0.324196
O O5 0.035483 0.182865 0.142201
O O6 0.077875 0.050638 0.137674
O O7 0.023561 0.107818 0.000000
O O8 0.671700 0.107816 0.500000
O O9 0.574748 0.085485 0.386807
O O10 0.698505 0.031583 0.361235
O O11 0.824390 0.352572 0.500000
O O12 0.890756 0.434716 0.397665
O O13 0.899005 0.303154 0.369752
O O14 0.881502 0.500000 0.250000
O O15 0.795384 0.521877 0.378303
O O16 0.500000 0.709400 0.750000
O O17 0.482583 0.662157 0.585870
O O18 0.258216 0.968395 0.000000
O O19 0.558443 0.428781 0.000000
#
# Coordination Sequence:
#
# PCOD9562488 Si02
#       8
#    16  16  16  16  16  16  16   8
#     4  11  25  41  60  96 124 160 220 260 315 386
#     4   8  14  28  53  83 118 163 213 257 303 371
#     4  10  21  39  62  89 127 170 209 260 317 384
#     4  11  22  39  62  90 126 165 210 264 317 381
#     4  10  19  39  61  88 122 159 206 253 298 379
#     4  10  22  42  66  88 123 167 204 262 315 382
#     4   9  20  35  56  91 129 166 209 262 322 369
#     4  11  28  44  64 100 128 159 214 268 330 391
#
# _framework density 20.738925999999999
#
# number of rings (size 3 to 8) (size 9 to 14) (size 15 to 20)
#    0.000    2.067    4.000    0.800    6.533    2.667 
#    0.000    6.000    0.000    0.000    0.000    0.000 
#    0.000    3.200    0.000    0.267    0.000    0.000 
#
# Total GULP energy -670248.932075 kJ/mol
# GULP energy per Si atom -5585.407767 kJ/mol
# Density = 2.069172 g / cm^3
# Si number density = 20.738926 Si / 1000 Ang^3
#
#
#
# Elastic Constant Matrix: (Units=GPa)
#
#
# Indices 1 2 3 4 5 6 
#
# 1 77.8519 37.6314 8.4262 0.0000 0.0000 0.0000
# 2 37.6314 77.8519 8.4262 0.0000 0.0000 0.0000
# 3 8.4262 8.4262 72.7601 0.0000 0.0000 0.0000
# 4 0.0000 0.0000 0.0000 -23.1260 0.0000 0.0000
# 5 0.0000 0.0000 0.0000 0.0000 -23.1260 0.0000
# 6 0.0000 0.0000 0.0000 0.0000 0.0000 24.6867
#
#
#
# Elastic Compliance Matrix: (Units=1/GPa)
#
#
# Indices 1 2 3 4 5 6 
#
# 1 0.016836 -0.008027 -0.001020 0.000000 0.000000 0.000000
# 2 -0.008027 0.016836 -0.001020 0.000000 0.000000 0.000000
# 3 -0.001020 -0.001020 0.013980 0.000000 0.000000 0.000000
# 4 0.000000 0.000000 0.000000 -0.043241 0.000000 0.000000
# 5 0.000000 0.000000 0.000000 0.000000 -0.043241 0.000000
# 6 0.000000 0.000000 0.000000 0.000000 0.000000 0.040508
#
#
# Mechanical properties :
#
#
# Convention : Reuss Voigt Hill
#
# Bulk Modulus (GPa) = 36.34238 37.49239 36.91739
# Shear Modulus (GPa) = 161.37744 7.28559 84.33151
#
# Velocity S-wave (km/s) = 8.83078 1.87633 6.38370
# Velocity P-wave (km/s) = 11.02446 4.77616 8.49560
#
# Compressibility (1/GPa) = 0.02751608
#
# Stress axis : x y z
#
# Youngs Moduli (GPa) = 59.39812 59.39812 71.53044
#
# Poissons Ratio (x) = 0.47681 0.07296
# Poissons Ratio (y) = 0.47681 0.07296
# Poissons Ratio (z) = 0.06059 0.06059
#
# Static dielectric constant tensor:
#      x y z
#    x 1.738050 0.000000 0.000000 
#    y 0.000000 1.738050 0.000000 
#    z 0.000000 0.000000 1.826190 
# 
# From -- ./inp_files/3518.got.cif
#   From: 2010.05.17/outbox.cif.g08.bks.cpg/sg124_2_cif.got.tgz:3518.got - 2010.05.20 11:49:17.
