data_PCOD9562233
_publ_section_title
;
Structure prediction by ZEFSAII (Michael W. Deem and Ramdas Pophale) SiO2 
 PCOD9562233
Probable space group: P 4/M M M
;
_chemical_formula_sum "Si O2"
_cell_formula_units_Z 56
_cell_length_a 18.335301
_cell_length_b 18.335301
_cell_length_c 7.880069
_cell_angle_alpha 90.000000
_cell_angle_beta 90.000000
_cell_angle_gamma 90.000000
_cell_volume 2649.147307
_symmetry_space_group_name_H-M "P 4/M M M"
_symmetry_group_IT_number 123
_symmetry_cell_setting 'tetragonal'
loop_
_space_group_symop_operation_xyz
x,y,z
-y,x,z
-x,-y,z
y,-x,z
x,-y,-z
-x,y,-z
y,x,-z
-y,-x,-z
-x,-y,-z
y,-x,-z
x,y,-z
-y,x,-z
-x,y,z
x,-y,z
-y,-x,z
y,x,z
loop_
_atom_site_type_symbol
_atom_site_label
_atom_site_fract_x
_atom_site_fract_y
_atom_site_fract_z
Si Si1 0.500000 0.086755 0.301563
Si Si2 0.651318 0.842938 0.198198
Si Si3 0.800435 0.082487 0.298315
Si Si4 0.582876 0.696009 0.792412
O O1 0.500000 0.107704 0.500000
O O2 0.425816 0.116219 0.219888
O O3 0.500000 0.000000 0.289678
O O4 0.719438 0.884759 0.276675
O O5 0.634011 0.762236 0.266520
O O6 0.668671 0.836480 0.000000
O O7 0.812796 0.077408 0.500000
O O8 0.860699 0.139302 0.229082
O O9 0.804738 0.000000 0.228171
O O10 0.500000 0.704683 0.733706
O O11 0.620109 0.620109 0.745183
O O12 0.581354 0.699731 0.000000
#
# Coordination Sequence:
#
# PCOD9562233 Si02
#       4
#     8  16  16  16
#     4  11  23  37  55  81 114 151 190 234 285 345
#     4  11  21  36  57  85 118 151 190 237 293 352
#     4  10  22  40  61  86 117 154 197 244 295 353
#     4   9  17  30  49  76 110 145 183 228 277 329
#
# _framework density 21.138874999999999
#
# number of rings (size 3 to 8) (size 9 to 14) (size 15 to 20)
#    0.000    1.857    1.429    3.000    0.000    7.429 
#    0.000    2.857    0.000    0.000    0.000    2.000 
#    0.000    1.143    0.000    0.000    0.000    0.000 
#
# Total GULP energy -312736.262524 kJ/mol
# GULP energy per Si atom -5584.576116 kJ/mol
# Density = 2.109076 g / cm^3
# Si number density = 21.138875 Si / 1000 Ang^3
#
#
#
# Elastic Constant Matrix: (Units=GPa)
#
#
# Indices 1 2 3 4 5 6 
#
# 1 126.1686 113.3565 0.5705 0.0000 0.0000 0.0000
# 2 113.3565 126.1686 0.5705 0.0000 0.0000 0.0000
# 3 0.5705 0.5705 19.9874 0.0000 0.0000 0.0000
# 4 0.0000 0.0000 0.0000 9.6048 0.0000 0.0000
# 5 0.0000 0.0000 0.0000 0.0000 9.6048 0.0000
# 6 0.0000 0.0000 0.0000 0.0000 0.0000 21.3708
#
#
#
# Elastic Compliance Matrix: (Units=1/GPa)
#
#
# Indices 1 2 3 4 5 6 
#
# 1 0.041113 -0.036938 -0.000119 0.000000 0.000000 0.000000
# 2 -0.036938 0.041113 -0.000119 0.000000 0.000000 0.000000
# 3 -0.000119 -0.000119 0.050038 0.000000 0.000000 0.000000
# 4 0.000000 0.000000 0.000000 0.104115 0.000000 0.000000
# 5 0.000000 0.000000 0.000000 0.000000 0.104115 0.000000
# 6 0.000000 0.000000 0.000000 0.000000 0.000000 0.046793
#
#
# Mechanical properties :
#
#
# Convention : Reuss Voigt Hill
#
# Bulk Modulus (GPa) = 17.26743 55.70220 36.48482
# Shear Modulus (GPa) = 10.39622 18.63787 14.51705
#
# Velocity S-wave (km/s) = 2.22008 2.97254 2.62343
# Velocity P-wave (km/s) = 3.84161 6.17974 5.14525
#
# Compressibility (1/GPa) = 0.05791248
#
# Stress axis : x y z
#
# Youngs Moduli (GPa) = 24.32297 24.32297 19.98471
#
# Poissons Ratio (x) = 0.89844 0.00238
# Poissons Ratio (y) = 0.89844 0.00238
# Poissons Ratio (z) = 0.00290 0.00290
#
# Static dielectric constant tensor:
#      x y z
#    x 1.764610 0.000000 0.000000 
#    y 0.000000 1.764610 0.000000 
#    z 0.000000 0.000000 1.791730 
# 
# From -- ./inp_files/572.got.cif
#   From: 2010.05.17/outbox.cif.g08.bks.cpg/sg123_1_cif.got.tgz:572.got - 2010.05.20 11:43:04.
