data_PCOD9562813
_publ_section_title
;
Structure prediction by ZEFSAII (Michael W. Deem and Ramdas Pophale) SiO2 
 PCOD9562813
Probable space group: P 4/M C C
;
_chemical_formula_sum "Si O2"
_cell_formula_units_Z 40
_cell_length_a 10.331912
_cell_length_b 10.331912
_cell_length_c 16.007629
_cell_angle_alpha 90.000000
_cell_angle_beta 90.000000
_cell_angle_gamma 90.000000
_cell_volume 1708.788873
_symmetry_space_group_name_H-M "P 4/M C C"
_symmetry_group_IT_number 124
_symmetry_cell_setting 'tetragonal'
loop_
_space_group_symop_operation_xyz
x,y,z
-y,x,z
-x,-y,z
y,-x,z
x,-y,1/2-z
-x,y,1/2-z
y,x,1/2-z
-y,-x,1/2-z
-x,-y,-z
y,-x,-z
x,y,-z
-y,x,-z
-x,y,1/2+z
x,-y,1/2+z
-y,-x,1/2+z
y,x,1/2+z
loop_
_atom_site_type_symbol
_atom_site_label
_atom_site_fract_x
_atom_site_fract_y
_atom_site_fract_z
Si Si1 0.830931 0.882069 0.349475
Si Si2 0.547903 0.710205 0.000000
Si Si3 0.151541 0.533413 0.341795
O O1 0.859614 0.859614 0.250000
O O2 0.685831 0.831726 0.361317
O O3 0.968266 0.827205 0.381220
O O4 0.406149 0.646647 0.000000
O O5 0.552595 0.790640 0.915295
O O6 0.206432 0.500000 0.250000
O O7 0.000000 0.500000 0.338161
#
# Coordination Sequence:
#
# PCOD9562813 Si02
#       3
#    16   8  16
#     4   9  18  34  62 101 134 162 208 272 337 402
#     4  11  29  48  64  93 138 184 226 275 319 384
#     4  11  24  42  72 102 129 173 228 270 340 392
#
# _framework density 23.408394000000001
#
# number of rings (size 3 to 8) (size 9 to 14) (size 15 to 20)
#    0.000    1.800    0.000    6.600   11.200    0.000 
#    0.000    2.000    0.000    2.400    0.000    0.000 
#    0.000    0.000    0.000    0.000    0.000    0.000 
#
# Total GULP energy -223175.153939 kJ/mol
# GULP energy per Si atom -5579.378848 kJ/mol
# Density = 2.335512 g / cm^3
# Si number density = 23.408394 Si / 1000 Ang^3
#
#
#
# Elastic Constant Matrix: (Units=GPa)
#
#
# Indices 1 2 3 4 5 6 
#
# 1 102.7188 17.4516 20.4074 0.0000 0.0000 0.0000
# 2 17.4516 102.7188 20.4074 0.0000 0.0000 0.0000
# 3 20.4074 20.4074 109.5367 0.0000 0.0000 0.0000
# 4 0.0000 0.0000 0.0000 43.9371 0.0000 0.0000
# 5 0.0000 0.0000 0.0000 0.0000 43.9371 0.0000
# 6 0.0000 0.0000 0.0000 0.0000 0.0000 8.1366
#
#
#
# Elastic Compliance Matrix: (Units=1/GPa)
#
#
# Indices 1 2 3 4 5 6 
#
# 1 0.010306 -0.001422 -0.001655 0.000000 0.000000 0.000000
# 2 -0.001422 0.010306 -0.001655 0.000000 0.000000 0.000000
# 3 -0.001655 -0.001655 0.009746 0.000000 0.000000 0.000000
# 4 0.000000 0.000000 0.000000 0.022760 0.000000 0.000000
# 5 0.000000 0.000000 0.000000 0.000000 0.022760 0.000000
# 6 0.000000 0.000000 0.000000 0.000000 0.000000 0.122902
#
#
# Mechanical properties :
#
#
# Convention : Reuss Voigt Hill
#
# Bulk Modulus (GPa) = 47.86284 47.94524 47.90404
# Shear Modulus (GPa) = 23.23333 36.31600 29.77466
#
# Velocity S-wave (km/s) = 3.15385 3.94307 3.57033
# Velocity P-wave (km/s) = 5.80979 6.42315 6.12415
#
# Compressibility (1/GPa) = 0.02089304
#
# Stress axis : x y z
#
# Youngs Moduli (GPa) = 97.03328 97.03328 102.60546
#
# Poissons Ratio (x) = 0.13799 0.16982
# Poissons Ratio (y) = 0.13799 0.16982
# Poissons Ratio (z) = 0.16060 0.16060
#
# Static dielectric constant tensor:
#      x y z
#    x 1.907680 0.000000 0.000000 
#    y 0.000000 1.907680 0.000000 
#    z 0.000000 0.000000 1.939410 
# 
# From -- ./inp_files/2694.got.cif
#   From: 2010.05.17/outbox.cif.g08.bks.cpg/sg124_2_cif.got.tgz:2694.got - 2010.05.20 11:49:17.
