data_PCOD9562032
_publ_section_title
;
Structure prediction by ZEFSAII (Michael W. Deem and Ramdas Pophale) SiO2 
 PCOD9562032
Probable space group: P 4/M M M
;
_chemical_formula_sum "Si O2"
_cell_formula_units_Z 104
_cell_length_a 18.185566
_cell_length_b 18.185566
_cell_length_c 17.119787
_cell_angle_alpha 90.000000
_cell_angle_beta 90.000000
_cell_angle_gamma 90.000000
_cell_volume 5661.767118
_symmetry_space_group_name_H-M "P 4/M M M"
_symmetry_group_IT_number 123
_symmetry_cell_setting 'tetragonal'
loop_
_space_group_symop_operation_xyz
x,y,z
-y,x,z
-x,-y,z
y,-x,z
x,-y,-z
-x,y,-z
y,x,-z
-y,-x,-z
-x,-y,-z
y,-x,-z
x,y,-z
-y,x,-z
-x,y,z
x,-y,z
-y,-x,z
y,x,z
loop_
_atom_site_type_symbol
_atom_site_label
_atom_site_fract_x
_atom_site_fract_y
_atom_site_fract_z
Si Si1 0.587892 0.699896 0.500000
Si Si2 0.689681 0.184151 0.911133
Si Si3 0.916917 0.202567 0.625225
Si Si4 0.413279 0.771975 0.659667
Si Si5 0.084793 0.370884 0.412303
Si Si6 0.291510 0.411719 0.826274
Si Si7 0.914430 0.793212 0.813156
O O1 0.500000 0.703607 0.500000
O O2 0.617213 0.617213 0.500000
O O3 0.616505 0.737966 0.420964
O O4 0.751889 0.248112 0.909759
O O5 0.616930 0.225861 0.881652
O O6 0.722463 0.121640 0.854711
O O7 0.682087 0.157856 0.000000
O O8 0.855709 0.144292 0.600841
O O9 0.908212 0.282649 0.588199
O O10 0.910569 0.213632 0.719097
O O11 0.000000 0.176202 0.608916
O O12 0.500000 0.758555 0.658974
O O13 0.400048 0.858486 0.651071
O O14 0.387550 0.735394 0.739434
O O15 0.102175 0.399011 0.500000
O O16 0.000000 0.388875 0.395578
O O17 0.301137 0.500000 0.829779
O O18 0.365944 0.365944 0.843906
O O19 0.864021 0.864021 0.834260
O O20 0.000000 0.802360 0.834401
#
# Coordination Sequence:
#
# PCOD9562032 Si02
#       7
#     8  16  16  16  16  16  16
#     4  10  20  33  49  71  99 131 168 208 250 304
#     4   9  18  33  53  77 105 138 175 213 258 315
#     4   9  18  31  46  67  96 129 168 213 259 307
#     4  10  20  35  52  74 103 134 169 207 252 309
#     4  10  20  33  49  72 100 130 171 222 268 307
#     4  10  21  37  58  82 108 137 170 214 265 321
#     4   9  17  30  50  76 107 144 184 226 271 318
#
# _framework density 18.368822000000002
#
# number of rings (size 3 to 8) (size 9 to 14) (size 15 to 20)
#    0.000    2.462    0.769    1.385    0.000    4.231 
#    0.000    2.308    0.000    4.154    0.000    7.538 
#    0.000    0.000    0.000    0.000    0.000    0.000 
#
# Total GULP energy -579670.618172 kJ/mol
# GULP energy per Si atom -5573.755944 kJ/mol
# Density = 1.832701 g / cm^3
# Si number density = 18.368822 Si / 1000 Ang^3
#
#
#
# Elastic Constant Matrix: (Units=GPa)
#
#
# Indices 1 2 3 4 5 6 
#
# 1 23.6458 40.1947 19.0161 0.0000 0.0000 0.0000
# 2 40.1947 23.6458 19.0161 0.0000 0.0000 0.0000
# 3 19.0161 19.0161 45.9573 0.0000 0.0000 0.0000
# 4 0.0000 0.0000 0.0000 4.2819 0.0000 0.0000
# 5 0.0000 0.0000 0.0000 0.0000 4.2819 0.0000
# 6 0.0000 0.0000 0.0000 0.0000 0.0000 24.6176
#
#
#
# Elastic Compliance Matrix: (Units=1/GPa)
#
#
# Indices 1 2 3 4 5 6 
#
# 1 -0.019819 0.040608 -0.008602 0.000000 0.000000 0.000000
# 2 0.040608 -0.019819 -0.008602 0.000000 0.000000 0.000000
# 3 -0.008602 -0.008602 0.028878 0.000000 0.000000 0.000000
# 4 0.000000 0.000000 0.000000 0.233543 0.000000 0.000000
# 5 0.000000 0.000000 0.000000 0.000000 0.233543 0.000000
# 6 0.000000 0.000000 0.000000 0.000000 0.000000 0.040621
#
#
# Mechanical properties :
#
#
# Convention : Reuss Voigt Hill
#
# Bulk Modulus (GPa) = 27.74116 27.74474 27.74295
# Shear Modulus (GPa) = 10.81888 7.63773 9.22830
#
# Velocity S-wave (km/s) = 2.42952 2.04133 2.24384
# Velocity P-wave (km/s) = 4.79637 4.54896 4.67431
#
# Compressibility (1/GPa) = 0.03604752
#
# Stress axis : x y z
#
# Youngs Moduli (GPa) = -50.45622 -50.45622 34.62874
#
# Poissons Ratio (x) = 2.04891 0.29787
# Poissons Ratio (y) = 2.04891 0.29787
# Poissons Ratio (z) = -0.43401 -0.43401
#
# Static dielectric constant tensor:
#      x y z
#    x 1.626960 0.000000 0.000000 
#    y 0.000000 1.626960 0.000000 
#    z 0.000000 0.000000 1.665130 
# 
# From -- ./inp_files/5607.got.cif
#   From: 2010.05.17/outbox.cif.g08.bks.cpg/sg123_3_cif.got.tgz:5607.got - 2010.05.20 11:43:04.
