data_PCOD9562655
_publ_section_title
;
Structure prediction by ZEFSAII (Michael W. Deem and Ramdas Pophale) SiO2 
 PCOD9562655
Probable space group: P 4/M C C
;
_chemical_formula_sum "Si O2"
_cell_formula_units_Z 64
_cell_length_a 20.378076
_cell_length_b 20.378076
_cell_length_c 8.639065
_cell_angle_alpha 90.000000
_cell_angle_beta 90.000000
_cell_angle_gamma 90.000000
_cell_volume 3587.509806
_symmetry_space_group_name_H-M "P 4/M C C"
_symmetry_group_IT_number 124
_symmetry_cell_setting 'tetragonal'
loop_
_space_group_symop_operation_xyz
x,y,z
-y,x,z
-x,-y,z
y,-x,z
x,-y,1/2-z
-x,y,1/2-z
y,x,1/2-z
-y,-x,1/2-z
-x,-y,-z
y,-x,-z
x,y,-z
-y,x,-z
-x,y,1/2+z
x,-y,1/2+z
-y,-x,1/2+z
y,x,1/2+z
loop_
_atom_site_type_symbol
_atom_site_label
_atom_site_fract_x
_atom_site_fract_y
_atom_site_fract_z
Si Si1 0.678962 0.927863 0.314719
Si Si2 0.823754 0.927474 0.185607
Si Si3 0.428026 0.324849 0.815037
Si Si4 0.827700 0.427660 0.814017
O O1 0.682812 0.930420 0.500000
O O2 0.750618 0.911573 0.245964
O O3 0.626013 0.875147 0.259588
O O4 0.661468 0.000000 0.250000
O O5 0.875241 0.875241 0.250000
O O6 0.839547 0.000000 0.250000
O O7 0.824193 0.928423 0.000000
O O8 0.500000 0.341607 0.750000
O O9 0.373251 0.373251 0.750000
O O10 0.414486 0.248688 0.773561
O O11 0.429661 0.329486 0.000000
O O12 0.843667 0.500000 0.750000
O O13 0.833913 0.427051 0.000000
#
# Coordination Sequence:
#
# PCOD9562655 Si02
#       4
#    16  16  16  16
#     4  11  22  38  59  84 114 149 187 231 279 332
#     4  11  22  39  60  85 115 149 188 232 280 332
#     4  10  21  37  58  82 112 145 183 227 275 327
#     4  10  21  38  58  83 113 147 186 232 280 333
#
# _framework density 17.839672
#
# number of rings (size 3 to 8) (size 9 to 14) (size 15 to 20)
#    0.000    1.500    0.000    7.500    0.000    5.000 
#    0.000    7.500    0.000    0.000    0.000    0.000 
#    0.000    0.000    0.000    0.000    0.000    0.000 
#
# Total GULP energy -357740.418391 kJ/mol
# GULP energy per Si atom -5589.694037 kJ/mol
# Density = 1.779907 g / cm^3
# Si number density = 17.839672 Si / 1000 Ang^3
#
#
#
# Elastic Constant Matrix: (Units=GPa)
#
#
# Indices 1 2 3 4 5 6 
#
# 1 144.5378 137.2559 80.1949 0.0000 0.0000 0.0000
# 2 137.2559 144.5378 80.1949 0.0000 0.0000 0.0000
# 3 80.1949 80.1949 156.6449 0.0000 0.0000 0.0000
# 4 0.0000 0.0000 0.0000 34.4452 0.0000 0.0000
# 5 0.0000 0.0000 0.0000 0.0000 34.4452 0.0000
# 6 0.0000 0.0000 0.0000 0.0000 0.0000 45.3504
#
#
#
# Elastic Compliance Matrix: (Units=1/GPa)
#
#
# Indices 1 2 3 4 5 6 
#
# 1 0.071167 -0.066159 -0.002564 0.000000 0.000000 0.000000
# 2 -0.066159 0.071167 -0.002564 0.000000 0.000000 0.000000
# 3 -0.002564 -0.002564 0.009009 0.000000 0.000000 0.000000
# 4 0.000000 0.000000 0.000000 0.029032 0.000000 0.000000
# 5 0.000000 0.000000 0.000000 0.000000 0.029032 0.000000
# 6 0.000000 0.000000 0.000000 0.000000 0.000000 0.022051
#
#
# Mechanical properties :
#
#
# Convention : Reuss Voigt Hill
#
# Bulk Modulus (GPa) = 114.03084 115.66800 114.84942
# Shear Modulus (GPa) = 13.26422 32.71981 22.99201
#
# Velocity S-wave (km/s) = 2.72972 4.28729 3.59390
# Velocity P-wave (km/s) = 8.60196 9.45971 9.04101
#
# Compressibility (1/GPa) = 0.00876956
#
# Stress axis : x y z
#
# Youngs Moduli (GPa) = 14.05144 14.05144 111.00007
#
# Poissons Ratio (x) = 0.92963 0.28459
# Poissons Ratio (y) = 0.92963 0.28459
# Poissons Ratio (z) = 0.03603 0.03603
#
# Static dielectric constant tensor:
#      x y z
#    x 1.582900 0.000000 0.000000 
#    y 0.000000 1.582900 0.000000 
#    z 0.000000 0.000000 1.594280 
# 
# From -- ./inp_files/861.got.cif
#   From: 2010.05.17/outbox.cif.g08.bks.cpg/sg124_1_cif.got.tgz:861.got - 2010.05.20 11:49:17.
