data_PCOD9562848
_publ_section_title
;
Structure prediction by ZEFSAII (Michael W. Deem and Ramdas Pophale) SiO2 
 PCOD9562848
Probable space group: P 4/M C C
;
_chemical_formula_sum "Si O2"
_cell_formula_units_Z 80
_cell_length_a 16.415988
_cell_length_b 16.415988
_cell_length_c 14.126098
_cell_angle_alpha 90.000000
_cell_angle_beta 90.000000
_cell_angle_gamma 90.000000
_cell_volume 3806.766745
_symmetry_space_group_name_H-M "P 4/M C C"
_symmetry_group_IT_number 124
_symmetry_cell_setting 'tetragonal'
loop_
_space_group_symop_operation_xyz
x,y,z
-y,x,z
-x,-y,z
y,-x,z
x,-y,1/2-z
-x,y,1/2-z
y,x,1/2-z
-y,-x,1/2-z
-x,-y,-z
y,-x,-z
x,y,-z
-y,x,-z
-x,y,1/2+z
x,-y,1/2+z
-y,-x,1/2+z
y,x,1/2+z
loop_
_atom_site_type_symbol
_atom_site_label
_atom_site_fract_x
_atom_site_fract_y
_atom_site_fract_z
Si Si1 0.483205 0.627874 0.637841
Si Si2 0.072413 0.304811 0.383727
Si Si3 0.122532 0.951161 0.615734
Si Si4 0.815767 0.451943 0.888247
Si Si5 0.423616 0.936744 0.891515
O O1 0.411686 0.567861 0.603962
O O2 0.500000 0.624518 0.750000
O O3 0.460115 0.719771 0.617020
O O4 0.072829 0.303501 0.500000
O O5 0.143387 0.367890 0.353096
O O6 0.077666 0.211513 0.352282
O O7 0.987103 0.347283 0.353843
O O8 0.123108 0.950173 0.500000
O O9 0.102848 0.044521 0.644210
O O10 0.857337 0.534521 0.847794
O O11 0.837721 0.453055 0.000000
O O12 0.500000 0.000000 0.890635
O O13 0.401078 0.918017 0.000000
#
# Coordination Sequence:
#
# PCOD9562848 Si02
#       5
#    16  16  16  16  16
#     4   9  19  36  52  62  81 119 155 177 216 279
#     4   8  13  23  38  58  89 122 149 179 219 266
#     4   8  13  21  32  48  78 123 163 183 202 245
#     4   9  16  27  45  70  93 111 142 188 230 263
#     4   7  11  21  37  56  84 120 142 162 213 273
#
# _framework density 21.015208000000001
#
# number of rings (size 3 to 8) (size 9 to 14) (size 15 to 20)
#    0.000    3.800    0.000    3.600    0.000    0.800 
#    3.600    1.000    0.000    5.400    0.000    0.000 
#    0.000    0.000    0.000    0.000    0.000    0.000 
#
# Total GULP energy -445444.730690 kJ/mol
# GULP energy per Si atom -5568.059134 kJ/mol
# Density = 2.096738 g / cm^3
# Si number density = 21.015208 Si / 1000 Ang^3
#
#
#
# Elastic Constant Matrix: (Units=GPa)
#
#
# Indices 1 2 3 4 5 6 
#
# 1 153.8190 83.1550 1.7222 0.0000 0.0000 0.0000
# 2 83.1550 153.8190 1.7222 0.0000 0.0000 0.0000
# 3 1.7222 1.7222 63.4809 0.0000 0.0000 0.0000
# 4 0.0000 0.0000 0.0000 16.3630 0.0000 0.0000
# 5 0.0000 0.0000 0.0000 0.0000 16.3630 0.0000
# 6 0.0000 0.0000 0.0000 0.0000 0.0000 13.4046
#
#
#
# Elastic Compliance Matrix: (Units=1/GPa)
#
#
# Indices 1 2 3 4 5 6 
#
# 1 0.009187 -0.004965 -0.000115 0.000000 0.000000 0.000000
# 2 -0.004965 0.009187 -0.000115 0.000000 0.000000 0.000000
# 3 -0.000115 -0.000115 0.015759 0.000000 0.000000 0.000000
# 4 0.000000 0.000000 0.000000 0.061113 0.000000 0.000000
# 5 0.000000 0.000000 0.000000 0.000000 0.061113 0.000000
# 6 0.000000 0.000000 0.000000 0.000000 0.000000 0.074601
#
#
# Mechanical properties :
#
#
# Convention : Reuss Voigt Hill
#
# Bulk Modulus (GPa) = 42.11601 60.47975 51.29788
# Shear Modulus (GPa) = 20.05917 28.19410 24.12664
#
# Velocity S-wave (km/s) = 3.09286 3.66677 3.39197
# Velocity P-wave (km/s) = 5.73050 6.83874 6.30900
#
# Compressibility (1/GPa) = 0.02374394
#
# Stress axis : x y z
#
# Youngs Moduli (GPa) = 108.85531 108.85531 63.45587
#
# Poissons Ratio (x) = 0.54046 0.00727
# Poissons Ratio (y) = 0.54046 0.00727
# Poissons Ratio (z) = 0.01247 0.01247
#
# Static dielectric constant tensor:
#      x y z
#    x 1.748860 0.000000 0.000000 
#    y 0.000000 1.748860 0.000000 
#    z 0.000000 0.000000 1.872140 
# 
# From -- ./inp_files/5108.got.cif
#   From: 2010.05.17/outbox.cif.g08.bks.cpg/sg124_3_cif.got.tgz:5108.got - 2010.05.20 11:49:17.
