data_PCOD9562727
_publ_section_title
;
Structure prediction by ZEFSAII (Michael W. Deem and Ramdas Pophale) SiO2 
 PCOD9562727
Probable space group: P 4/M C C
;
_chemical_formula_sum "Si O2"
_cell_formula_units_Z 72
_cell_length_a 11.783396
_cell_length_b 11.783396
_cell_length_c 27.449395
_cell_angle_alpha 90.000000
_cell_angle_beta 90.000000
_cell_angle_gamma 90.000000
_cell_volume 3811.305161
_symmetry_space_group_name_H-M "P 4/M C C"
_symmetry_group_IT_number 124
_symmetry_cell_setting 'tetragonal'
loop_
_space_group_symop_operation_xyz
x,y,z
-y,x,z
-x,-y,z
y,-x,z
x,-y,1/2-z
-x,y,1/2-z
y,x,1/2-z
-y,-x,1/2-z
-x,-y,-z
y,-x,-z
x,y,-z
-y,x,-z
-x,y,1/2+z
x,-y,1/2+z
-y,-x,1/2+z
y,x,1/2+z
loop_
_atom_site_type_symbol
_atom_site_label
_atom_site_fract_x
_atom_site_fract_y
_atom_site_fract_z
Si Si1 0.000000 0.193837 0.750000
Si Si2 0.126866 0.510266 0.417932
Si Si3 0.310598 0.542661 0.500000
Si Si4 0.139359 0.130524 0.000000
Si Si5 0.713364 0.077481 0.150203
Si Si6 0.853537 0.251464 0.100883
O O1 0.978638 0.271588 0.702697
O O2 0.108235 0.108235 0.750000
O O3 0.225197 0.553339 0.453929
O O4 0.105408 0.590505 0.371494
O O5 0.162146 0.385217 0.401572
O O6 0.000000 0.500000 0.441505
O O7 0.369007 0.416167 0.500000
O O8 0.198311 0.175327 0.048704
O O9 0.005888 0.154845 0.000000
O O10 0.783620 0.191856 0.143268
O O11 0.768346 0.985524 0.113295
#
# Coordination Sequence:
#
# PCOD9562727 Si02
#       6
#     8  16   8   8  16  16
#     4  11  22  38  67  92 118 151 198 259 316 372
#     4  10  23  39  57  86 127 171 203 247 313 372
#     4  11  22  39  63  89 120 169 224 262 294 357
#     4  11  21  31  52  86 120 160 201 244 287 361
#     4  11  22  38  62  86 122 159 203 257 310 373
#     4  11  21  37  57  89 125 165 203 245 307 367
#
# _framework density 18.891168
#
# number of rings (size 3 to 8) (size 9 to 14) (size 15 to 20)
#    0.000    1.222    4.444    2.333    0.000    4.000 
#    0.000    5.000    0.000    0.000    0.000    0.000 
#    0.000    0.000    4.000    0.000    0.000    0.000 
#
# Total GULP energy -401784.853284 kJ/mol
# GULP energy per Si atom -5580.345184 kJ/mol
# Density = 1.884817 g / cm^3
# Si number density = 18.891168 Si / 1000 Ang^3
#
#
#
# Elastic Constant Matrix: (Units=GPa)
#
#
# Indices 1 2 3 4 5 6 
#
# 1 88.6341 53.4570 50.7134 0.0000 0.0000 0.0000
# 2 53.4570 88.6341 50.7134 0.0000 0.0000 0.0000
# 3 50.7134 50.7134 145.2807 0.0000 0.0000 0.0000
# 4 0.0000 0.0000 0.0000 17.0274 0.0000 0.0000
# 5 0.0000 0.0000 0.0000 0.0000 17.0274 0.0000
# 6 0.0000 0.0000 0.0000 0.0000 0.0000 19.1152
#
#
#
# Elastic Compliance Matrix: (Units=1/GPa)
#
#
# Indices 1 2 3 4 5 6 
#
# 1 0.018900 -0.009527 -0.003272 0.000000 0.000000 0.000000
# 2 -0.009527 0.018900 -0.003272 0.000000 0.000000 0.000000
# 3 -0.003272 -0.003272 0.009168 0.000000 0.000000 0.000000
# 4 0.000000 0.000000 0.000000 0.058729 0.000000 0.000000
# 5 0.000000 0.000000 0.000000 0.000000 0.058729 0.000000
# 6 0.000000 0.000000 0.000000 0.000000 0.000000 0.052314
#
#
# Mechanical properties :
#
#
# Convention : Reuss Voigt Hill
#
# Bulk Modulus (GPa) = 67.44764 70.25738 68.85251
# Shear Modulus (GPa) = 19.69865 21.81168 20.75517
#
# Velocity S-wave (km/s) = 3.23266 3.40162 3.31822
# Velocity P-wave (km/s) = 7.05083 7.25943 7.15589
#
# Compressibility (1/GPa) = 0.01482632
#
# Stress axis : x y z
#
# Youngs Moduli (GPa) = 52.90880 52.90880 109.08065
#
# Poissons Ratio (x) = 0.50407 0.35691
# Poissons Ratio (y) = 0.50407 0.35691
# Poissons Ratio (z) = 0.17312 0.17312
#
# Static dielectric constant tensor:
#      x y z
#    x 1.685030 0.000000 0.000000 
#    y 0.000000 1.685030 0.000000 
#    z 0.000000 0.000000 1.660780 
# 
# From -- ./inp_files/6517.got.cif
#   From: 2010.05.17/outbox.cif.g08.bks.cpg/sg124_4_cif.got.tgz:6517.got - 2010.05.20 11:49:17.
