data_PCOD9562062
_publ_section_title
;
Structure prediction by ZEFSAII (Michael W. Deem and Ramdas Pophale) SiO2 
 PCOD9562062
Probable space group: P 4/M M M
;
_chemical_formula_sum "Si O2"
_cell_formula_units_Z 116
_cell_length_a 28.441237
_cell_length_b 28.441237
_cell_length_c 7.778973
_cell_angle_alpha 90.000000
_cell_angle_beta 90.000000
_cell_angle_gamma 90.000000
_cell_volume 6292.442081
_symmetry_space_group_name_H-M "P 4/M M M"
_symmetry_group_IT_number 123
_symmetry_cell_setting 'tetragonal'
loop_
_space_group_symop_operation_xyz
x,y,z
-y,x,z
-x,-y,z
y,-x,z
x,-y,-z
-x,y,-z
y,x,-z
-y,-x,-z
-x,-y,-z
y,-x,-z
x,y,-z
-y,x,-z
-x,y,z
x,-y,z
-y,-x,z
y,x,z
loop_
_atom_site_type_symbol
_atom_site_label
_atom_site_fract_x
_atom_site_fract_y
_atom_site_fract_z
Si Si1 0.943560 0.829712 0.704912
Si Si2 0.129227 0.447253 0.204008
Si Si3 0.907795 0.727396 0.297981
Si Si4 0.236105 0.552562 0.703883
Si Si5 0.370242 0.052164 0.293792
Si Si6 0.894640 0.105361 0.000000
Si Si7 0.276851 0.200726 0.207999
Si Si8 0.277498 0.648555 0.794037
O O1 0.929690 0.837192 0.500000
O O2 0.925997 0.777803 0.762078
O O3 0.922750 0.865308 0.845200
O O4 0.000000 0.831299 0.708107
O O5 0.121341 0.500000 0.276375
O O6 0.182868 0.433730 0.246007
O O7 0.091260 0.409406 0.260118
O O8 0.125974 0.450095 0.000000
O O9 0.918813 0.727318 0.500000
O O10 0.931713 0.680558 0.223455
O O11 0.851850 0.723347 0.275059
O O12 0.237299 0.549295 0.500000
O O13 0.245280 0.500000 0.775733
O O14 0.271054 0.594152 0.753792
O O15 0.366354 0.049569 0.500000
O O16 0.382775 0.000000 0.229810
O O17 0.230183 0.230183 0.255813
O O18 0.321043 0.232368 0.266985
O O19 0.278110 0.198439 0.000000
O O20 0.323916 0.676085 0.731136
O O21 0.277183 0.652569 0.000000
#
# Coordination Sequence:
#
# PCOD9562062 Si02
#       8
#    16  16  16  16  16   4  16  16
#     4  10  23  43  65  92 126 157 187 229 276 327
#     4  10  21  36  53  74 101 134 176 231 287 332
#     4  10  21  35  54  78 109 145 180 221 267 322
#     4  10  20  33  51  75 102 134 178 225 266 315
#     4  10  21  37  55  74  99 135 178 224 277 332
#     4  12  24  40  68  99 122 154 192 226 270 334
#     4   9  19  32  48  72 106 141 174 213 256 310
#     4   9  18  33  50  73 107 145 181 221 270 322
#
# _framework density 18.434813999999999
#
# number of rings (size 3 to 8) (size 9 to 14) (size 15 to 20)
#    0.000    2.207    0.000    3.310    1.931    7.724 
#    0.000    2.759    0.000    1.655    0.000    3.862 
#    0.000    0.276    0.000    3.034    0.000    2.207 
#
# Total GULP energy -645958.884298 kJ/mol
# GULP energy per Si atom -5568.611072 kJ/mol
# Density = 1.839286 g / cm^3
# Si number density = 18.434814 Si / 1000 Ang^3
#
#
#
# Elastic Constant Matrix: (Units=GPa)
#
#
# Indices 1 2 3 4 5 6 
#
# 1 62.1510 112.2837 16.0679 0.0000 0.0000 0.0000
# 2 112.2837 62.1533 16.0692 0.0000 0.0000 0.0000
# 3 16.0679 16.0692 52.1382 0.0000 0.0000 0.0000
# 4 0.0000 0.0000 0.0000 26.6548 0.0000 0.0000
# 5 0.0000 0.0000 0.0000 0.0000 26.6544 0.0000
# 6 0.0000 0.0000 0.0000 0.0000 0.0000 10.9971
#
#
#
# Elastic Compliance Matrix: (Units=1/GPa)
#
#
# Indices 1 2 3 4 5 6 
#
# 1 -0.006935 0.013013 -0.001873 0.000000 0.000000 0.000000
# 2 0.013013 -0.006935 -0.001873 0.000000 0.000000 0.000000
# 3 -0.001873 -0.001873 0.020334 0.000000 0.000000 0.000000
# 4 0.000000 0.000000 0.000000 0.037517 0.000000 0.000000
# 5 0.000000 0.000000 0.000000 0.000000 0.037517 0.000000
# 6 0.000000 0.000000 0.000000 0.000000 0.000000 0.090933
#
#
# Mechanical properties :
#
#
# Convention : Reuss Voigt Hill
#
# Bulk Modulus (GPa) = 40.00397 51.69823 45.85110
# Shear Modulus (GPa) = 30.82015 14.99604 22.90809
#
# Velocity S-wave (km/s) = 4.09326 2.85522 3.52895
# Velocity P-wave (km/s) = 6.63980 6.24295 6.44443
#
# Compressibility (1/GPa) = 0.02499752
#
# Stress axis : x y z
#
# Youngs Moduli (GPa) = -144.19766 -144.20146 49.17778
#
# Poissons Ratio (x) = 1.87645 0.09213
# Poissons Ratio (y) = 1.87640 0.09211
# Poissons Ratio (z) = -0.27013 -0.27008
#
# Static dielectric constant tensor:
#      x y z
#    x 1.600790 0.000000 0.000000 
#    y 0.000000 1.600790 0.000000 
#    z 0.000000 0.000000 1.682050 
# 
# From -- ./inp_files/2040.got.cif
#   From: 2010.05.17/outbox.cif.g08.bks.cpg/sg123_2_cif.got.tgz:2040.got - 2010.05.20 11:43:04.
