data_PCOD9562898
_publ_section_title
;
Structure prediction by ZEFSAII (Michael W. Deem and Ramdas Pophale) SiO2 
 PCOD9562898
Probable space group: P 4/N B M
;
_chemical_formula_sum "Si O2"
_cell_formula_units_Z 96
_cell_length_a 19.993839
_cell_length_b 19.993839
_cell_length_c 14.011978
_cell_angle_alpha 90.000000
_cell_angle_beta 90.000000
_cell_angle_gamma 90.000000
_cell_volume 5601.338620
_symmetry_space_group_name_H-M "P 4/N B M"
_symmetry_group_IT_number 125
_space_group.IT_coordinate_system_code '2'
_symmetry_cell_setting 'tetragonal'
loop_
_space_group_symop_operation_xyz
x,y,z
1/2-y,x,z
1/2-x,1/2-y,z
y,1/2-x,z
x,1/2-y,-z
1/2-x,y,-z
y,x,-z
1/2-y,1/2-x,-z
-x,-y,-z
1/2+y,-x,-z
1/2+x,1/2+y,-z
-y,1/2+x,-z
-x,1/2+y,z
1/2+x,-y,z
-y,-x,z
1/2+y,1/2+x,z
loop_
_atom_site_type_symbol
_atom_site_label
_atom_site_fract_x
_atom_site_fract_y
_atom_site_fract_z
Si Si1 0.583283 0.968098 0.203368
Si Si2 0.977694 0.907304 0.416917
Si Si3 0.788793 0.399964 0.782272
Si Si4 0.173061 0.559815 0.911919
Si Si5 0.509874 0.378356 0.102852
Si Si6 0.911167 0.202620 0.590404
O O1 0.560564 0.910189 0.131100
O O2 0.523830 0.023830 0.202104
O O3 0.590494 0.945423 0.311994
O O4 0.648177 0.007455 0.167908
O O5 0.034233 0.965767 0.419089
O O6 0.020157 0.838953 0.424818
O O7 0.925798 0.925798 0.500000
O O8 0.831967 0.331967 0.779399
O O9 0.738659 0.404077 0.872244
O O10 0.840987 0.459287 0.805430
O O11 0.747268 0.410285 0.685962
O O12 0.117922 0.617922 0.919504
O O13 0.168677 0.518674 0.010827
O O14 0.558838 0.441163 0.082466
O O15 0.899224 0.250000 0.500000
O O16 0.852316 0.147685 0.599333
#
# Coordination Sequence:
#
# PCOD9562898 Si02
#       6
#    16  16  16  16  16  16
#     4   9  16  30  51  72  94 123 164 221 281 324
#     4   9  18  32  52  74  94 121 163 219 279 326
#     4  11  22  34  48  70 104 145 182 214 253 308
#     4  10  18  32  50  71  98 133 180 222 261 310
#     4   9  19  31  48  72  97 131 172 219 269 313
#     4  11  23  37  51  71 100 139 183 220 259 312
#
# _framework density 17.138760000000001
#
# number of rings (size 3 to 8) (size 9 to 14) (size 15 to 20)
#    0.000    2.167    1.667    2.000    2.333    4.167 
#    0.000    0.833    0.000    6.000    0.000    0.000 
#    0.000    1.000    1.333    3.333    1.000    0.667 
#
# Total GULP energy -534764.805004 kJ/mol
# GULP energy per Si atom -5570.466719 kJ/mol
# Density = 1.709975 g / cm^3
# Si number density = 17.138760 Si / 1000 Ang^3
#
#
#
# Elastic Constant Matrix: (Units=GPa)
#
#
# Indices 1 2 3 4 5 6 
#
# 1 37.2294 42.1108 24.8988 0.0000 0.0000 0.0000
# 2 42.1108 37.2294 24.8988 0.0000 0.0000 0.0000
# 3 24.8988 24.8988 96.6140 0.0000 0.0000 0.0000
# 4 0.0000 0.0000 0.0000 17.9955 0.0000 0.0000
# 5 0.0000 0.0000 0.0000 0.0000 17.9955 0.0000
# 6 0.0000 0.0000 0.0000 0.0000 0.0000 22.7769
#
#
#
# Elastic Compliance Matrix: (Units=1/GPa)
#
#
# Indices 1 2 3 4 5 6 
#
# 1 -0.094911 0.109947 -0.003875 0.000000 0.000000 0.000000
# 2 0.109947 -0.094911 -0.003875 0.000000 0.000000 0.000000
# 3 -0.003875 -0.003875 0.012348 0.000000 0.000000 0.000000
# 4 0.000000 0.000000 0.000000 0.055570 0.000000 0.000000
# 5 0.000000 0.000000 0.000000 0.000000 0.055570 0.000000
# 6 0.000000 0.000000 0.000000 0.000000 0.000000 0.043904
#
#
# Mechanical properties :
#
#
# Convention : Reuss Voigt Hill
#
# Bulk Modulus (GPa) = 37.14727 39.43219 38.28973
# Shear Modulus (GPa) = -22.95150 17.03120 -2.96015
#
# Velocity S-wave (km/s) = -3.66342 3.15576 -1.31564
# Velocity P-wave (km/s) = 1.95634 6.02793 4.48125
#
# Compressibility (1/GPa) = 0.02691988
#
# Stress axis : x y z
#
# Youngs Moduli (GPa) = -10.53622 -10.53622 80.98633
#
# Poissons Ratio (x) = 1.15842 0.31382
# Poissons Ratio (y) = 1.15842 0.31382
# Poissons Ratio (z) = -0.04083 -0.04083
#
# Static dielectric constant tensor:
#      x y z
#    x 1.588080 0.000000 0.000000 
#    y 0.000000 1.588080 0.000000 
#    z 0.000000 0.000000 1.623480 
# 
# From -- ./inp_files/4114.got.cif
#   From: 2010.05.17/outbox.cif.g08.bks.cpg/sg125_3_cif.got.tgz:4114.got - 2010.05.20 11:54:10.
