data_PCOD9562827
_publ_section_title
;
Structure prediction by ZEFSAII (Michael W. Deem and Ramdas Pophale) SiO2 
 PCOD9562827
Probable space group: P 4/M C C
;
_chemical_formula_sum "Si O2"
_cell_formula_units_Z 80
_cell_length_a 11.591084
_cell_length_b 11.591084
_cell_length_c 29.441834
_cell_angle_alpha 90.000000
_cell_angle_beta 90.000000
_cell_angle_gamma 90.000000
_cell_volume 3955.605445
_symmetry_space_group_name_H-M "P 4/M C C"
_symmetry_group_IT_number 124
_symmetry_cell_setting 'tetragonal'
loop_
_space_group_symop_operation_xyz
x,y,z
-y,x,z
-x,-y,z
y,-x,z
x,-y,1/2-z
-x,y,1/2-z
y,x,1/2-z
-y,-x,1/2-z
-x,-y,-z
y,-x,-z
x,y,-z
-y,x,-z
-x,y,1/2+z
x,-y,1/2+z
-y,-x,1/2+z
y,x,1/2+z
loop_
_atom_site_type_symbol
_atom_site_label
_atom_site_fract_x
_atom_site_fract_y
_atom_site_fract_z
Si Si1 0.615721 0.930348 0.948514
Si Si2 0.680805 0.438025 0.810529
Si Si3 0.811486 0.039961 0.374046
Si Si4 0.286656 0.885345 0.276776
Si Si5 0.444183 0.319471 0.080258
O O1 0.716060 0.950969 0.912687
O O2 0.586912 0.795479 0.945499
O O3 0.500000 0.000000 0.936087
O O4 0.647992 0.962793 0.000000
O O5 0.641925 0.568928 0.800085
O O6 0.793434 0.387463 0.786855
O O7 0.699176 0.435021 0.865165
O O8 0.758581 0.067065 0.324900
O O9 0.914383 0.131953 0.378239
O O10 0.185156 0.814845 0.250000
O O11 0.322803 0.000000 0.250000
O O12 0.573519 0.360904 0.069806
#
# Coordination Sequence:
#
# PCOD9562827 Si02
#       5
#    16  16  16  16  16
#     4  11  26  44  68 104 140 175 224 290 352 411
#     4   9  20  42  69  98 137 183 226 276 345 415
#     4  11  25  47  73  96 135 191 233 285 346 407
#     4  12  24  42  71 101 135 176 232 288 347 413
#     4   9  19  39  70 100 131 177 222 267 338 415
#
# _framework density 20.224464000000001
#
# number of rings (size 3 to 8) (size 9 to 14) (size 15 to 20)
#    0.000    1.600    4.000    1.200    2.800    2.600 
#    0.000    7.000    0.000    0.000    0.000    0.000 
#    0.000    0.000    0.000    0.000    0.000    0.000 
#
# Total GULP energy -447433.587642 kJ/mol
# GULP energy per Si atom -5592.919846 kJ/mol
# Density = 2.017843 g / cm^3
# Si number density = 20.224464 Si / 1000 Ang^3
#
#
#
# Elastic Constant Matrix: (Units=GPa)
#
#
# Indices 1 2 3 4 5 6 
#
# 1 1577.8588-1382.3739 69.0814 0.0000 0.0000 0.0000
# 2 -1382.3739 1577.8583 69.0477 0.0000 0.0000 0.0000
# 3 69.0814 69.0477 104.5260 0.0000 0.0000 0.0000
# 4 0.0000 0.0000 0.0000 -32.7330 0.0000 0.0000
# 5 0.0000 0.0000 0.0000 0.0000 -32.7435 0.0000
# 6 0.0000 0.0000 0.0000 0.0000 0.0000 73.9711
#
#
#
# Elastic Compliance Matrix: (Units=1/GPa)
#
#
# Indices 1 2 3 4 5 6 
#
# 1 0.004967 0.004629 -0.006340 0.000000 0.000000 0.000000
# 2 0.004629 0.004967 -0.006340 0.000000 0.000000 0.000000
# 3 -0.006340 -0.006340 0.017945 0.000000 0.000000 0.000000
# 4 0.000000 0.000000 0.000000 -0.030550 0.000000 0.000000
# 5 0.000000 0.000000 0.000000 0.000000 -0.030540 0.000000
# 6 0.000000 0.000000 0.000000 0.000000 0.000000 0.013519
#
#
# Mechanical properties :
#
#
# Convention : Reuss Voigt Hill
#
# Bulk Modulus (GPa) = 84.91998 85.75039 85.33519
# Shear Modulus (GPa) = 14950.94049 301.99812 7626.46930
#
# Velocity S-wave (km/s) = 86.07294 12.23304 61.47438
# Velocity P-wave (km/s) = 99.59994 15.55703 71.28173
#
# Compressibility (1/GPa) = 0.01177579
#
# Stress axis : x y z
#
# Youngs Moduli (GPa) = 201.34295 201.34872 55.72510
#
# Poissons Ratio (x) = -0.93200 0.35330
# Poissons Ratio (y) = -0.93197 0.35329
# Poissons Ratio (z) = 1.27654 1.27654
#
# Static dielectric constant tensor:
#      x y z
#    x 1.687230 0.000000 0.000000 
#    y 0.000000 1.687230 0.000000 
#    z 0.000000 0.000000 1.763710 
# 
# From -- ./inp_files/6913.got.cif
#   From: 2010.05.17/outbox.cif.g08.bks.cpg/sg124_4_cif.got.tgz:6913.got - 2010.05.20 11:49:17.
