data_PCOD9562480
_publ_section_title
;
Structure prediction by ZEFSAII (Michael W. Deem and Ramdas Pophale) SiO2 
 PCOD9562480
Probable space group: P 4/M C C
;
_chemical_formula_sum "Si O2"
_cell_formula_units_Z 96
_cell_length_a 23.900369
_cell_length_b 23.900369
_cell_length_c 9.383443
_cell_angle_alpha 90.000000
_cell_angle_beta 90.000000
_cell_angle_gamma 90.000000
_cell_volume 5360.081984
_symmetry_space_group_name_H-M "P 4/M C C"
_symmetry_group_IT_number 124
_symmetry_cell_setting 'tetragonal'
loop_
_space_group_symop_operation_xyz
x,y,z
-y,x,z
-x,-y,z
y,-x,z
x,-y,1/2-z
-x,y,1/2-z
y,x,1/2-z
-y,-x,1/2-z
-x,-y,-z
y,-x,-z
x,y,-z
-y,x,-z
-x,y,1/2+z
x,-y,1/2+z
-y,-x,1/2+z
y,x,1/2+z
loop_
_atom_site_type_symbol
_atom_site_label
_atom_site_fract_x
_atom_site_fract_y
_atom_site_fract_z
Si Si1 0.747906 0.823826 0.833994
Si Si2 0.945845 0.711924 0.662776
Si Si3 0.577016 0.055520 0.335136
Si Si4 0.626377 0.373624 0.250000
Si Si5 0.755178 0.634486 0.337997
Si Si6 0.447571 0.580181 0.000000
Si Si7 0.829749 0.446743 0.669380
O O1 0.799671 0.799671 0.750000
O O2 0.729187 0.884899 0.780357
O O3 0.697627 0.778435 0.827327
O O4 0.761170 0.829782 0.000000
O O5 0.951210 0.731288 0.500000
O O6 0.945547 0.644419 0.659172
O O7 0.000000 0.730342 0.750000
O O8 0.556681 0.057835 0.500000
O O9 0.561636 0.109954 0.243760
O O10 0.559883 0.000000 0.250000
O O11 0.624842 0.310840 0.315035
O O12 0.578679 0.386546 0.133304
O O13 0.770187 0.615418 0.500000
O O14 0.789590 0.603146 0.216169
O O15 0.425027 0.515311 0.000000
O O16 0.804444 0.500000 0.750000
O O17 0.834284 0.452961 0.500000
#
# Coordination Sequence:
#
# PCOD9562480 Si02
#       7
#    16  16  16   8  16   8  16
#     4  10  20  35  57  84 120 159 195 244 293 345
#     4   9  18  33  54  80 113 154 198 244 291 339
#     4  10  19  36  58  82 113 151 200 250 297 347
#     4  12  24  43  72  94 120 156 190 236 301 374
#     4  11  23  42  61  87 122 154 191 236 291 363
#     4  11  26  48  70  94 120 150 194 250 310 374
#     4  12  26  41  59  82 113 152 195 245 301 354
#
# _framework density 17.910174999999999
#
# number of rings (size 3 to 8) (size 9 to 14) (size 15 to 20)
#    0.000    1.417    3.333    2.500    1.167    4.333 
#    0.000    1.667    0.000    0.000    0.000    0.000 
#    0.000    0.333    0.000    3.667    0.000    2.667 
#
# Total GULP energy -535606.118893 kJ/mol
# GULP energy per Si atom -5579.230405 kJ/mol
# Density = 1.786941 g / cm^3
# Si number density = 17.910175 Si / 1000 Ang^3
#
#
#
# Elastic Constant Matrix: (Units=GPa)
#
#
# Indices 1 2 3 4 5 6 
#
# 1 82.4313 27.4291 34.2409 0.0000 0.0000 0.0000
# 2 27.4291 82.4322 34.2412 0.0000 0.0000 0.0000
# 3 34.2409 34.2412 120.6193 0.0000 0.0000 0.0000
# 4 0.0000 0.0000 0.0000 26.7427 0.0000 0.0000
# 5 0.0000 0.0000 0.0000 0.0000 26.7427 0.0000
# 6 0.0000 0.0000 0.0000 0.0000 0.0000 18.5076
#
#
#
# Elastic Compliance Matrix: (Units=1/GPa)
#
#
# Indices 1 2 3 4 5 6 
#
# 1 0.014620 -0.003561 -0.003140 0.000000 0.000000 0.000000
# 2 -0.003561 0.014620 -0.003140 0.000000 0.000000 0.000000
# 3 -0.003140 -0.003140 0.010073 0.000000 0.000000 0.000000
# 4 0.000000 0.000000 0.000000 0.037393 0.000000 0.000000
# 5 0.000000 0.000000 0.000000 0.000000 0.037393 0.000000
# 6 0.000000 0.000000 0.000000 0.000000 0.000000 0.054032
#
#
# Mechanical properties :
#
#
# Convention : Reuss Voigt Hill
#
# Bulk Modulus (GPa) = 50.93249 53.03392 51.98320
# Shear Modulus (GPa) = 25.72595 27.03670 26.38133
#
# Velocity S-wave (km/s) = 3.79408 3.88954 3.84211
# Velocity P-wave (km/s) = 6.90600 7.06022 6.98354
#
# Compressibility (1/GPa) = 0.01963383
#
# Stress axis : x y z
#
# Youngs Moduli (GPa) = 68.39813 68.39881 99.27508
#
# Poissons Ratio (x) = 0.24355 0.31168
# Poissons Ratio (y) = 0.24355 0.31168
# Poissons Ratio (z) = 0.21474 0.21474
#
# Static dielectric constant tensor:
#      x y z
#    x 1.627980 0.000000 0.000000 
#    y 0.000000 1.627980 0.000000 
#    z 0.000000 0.000000 1.631500 
# 
# From -- ./inp_files/1433.got.cif
#   From: 2010.05.17/outbox.cif.g08.bks.cpg/sg124_1_cif.got.tgz:1433.got - 2010.05.20 11:49:17.
