data_PCOD9562395
_publ_section_title
;
Structure prediction by ZEFSAII (Michael W. Deem and Ramdas Pophale) SiO2 
 PCOD9562395
Probable space group: P 4/M C C
;
_chemical_formula_sum "Si O2"
_cell_formula_units_Z 88
_cell_length_a 14.752663
_cell_length_b 14.752663
_cell_length_c 24.072661
_cell_angle_alpha 90.000000
_cell_angle_beta 90.000000
_cell_angle_gamma 90.000000
_cell_volume 5239.199592
_symmetry_space_group_name_H-M "P 4/M C C"
_symmetry_group_IT_number 124
_symmetry_cell_setting 'tetragonal'
loop_
_space_group_symop_operation_xyz
x,y,z
-y,x,z
-x,-y,z
y,-x,z
x,-y,1/2-z
-x,y,1/2-z
y,x,1/2-z
-y,-x,1/2-z
-x,-y,-z
y,-x,-z
x,y,-z
-y,x,-z
-x,y,1/2+z
x,-y,1/2+z
-y,-x,1/2+z
y,x,1/2+z
loop_
_atom_site_type_symbol
_atom_site_label
_atom_site_fract_x
_atom_site_fract_y
_atom_site_fract_z
Si Si1 0.913210 0.125749 0.500000
Si Si2 0.833786 0.258829 0.408263
Si Si3 0.302709 0.299731 0.682973
Si Si4 0.547803 0.906055 0.597616
Si Si5 0.322114 0.693264 0.000000
Si Si6 0.230540 0.498723 0.683825
Si Si7 0.768933 0.497518 0.000000
O O1 0.878095 0.178078 0.444354
O O2 0.022499 0.122265 0.500000
O O3 0.780579 0.249079 0.349596
O O4 0.904489 0.342662 0.403280
O O5 0.752717 0.293810 0.447371
O O6 0.291801 0.291801 0.750000
O O7 0.271521 0.401359 0.666906
O O8 0.409746 0.286362 0.668793
O O9 0.513471 0.866688 0.655927
O O10 0.516253 0.832280 0.552693
O O11 0.500000 0.000000 0.584764
O O12 0.429931 0.688257 0.000000
O O13 0.269882 0.601161 0.000000
O O14 0.224494 0.500000 0.750000
#
# Coordination Sequence:
#
# PCOD9562395 Si02
#       7
#     8  16  16  16   8  16   8
#     4  10  22  39  59  79  96 119 159 213 264 312
#     4   9  19  34  50  74 101 127 163 204 249 299
#     4   9  17  31  50  74 106 140 171 202 236 281
#     4  10  20  32  48  70  97 127 162 201 243 295
#     4   9  18  30  46  68  98 128 159 198 235 285
#     4   9  18  31  48  71 100 134 170 205 238 277
#     4  10  19  31  46  68  94 124 159 194 239 291
#
# _framework density 16.796458999999999
#
# number of rings (size 3 to 8) (size 9 to 14) (size 15 to 20)
#    0.000    2.636    0.000    1.909    0.000    5.273 
#    0.000    1.818    0.000    9.818    0.000    1.273 
#    0.000    0.000    0.000    0.000    0.000    0.000 
#
# Total GULP energy -489879.674520 kJ/mol
# GULP energy per Si atom -5566.814483 kJ/mol
# Density = 1.675823 g / cm^3
# Si number density = 16.796459 Si / 1000 Ang^3
#
#
#
# Elastic Constant Matrix: (Units=GPa)
#
#
# Indices 1 2 3 4 5 6 
#
# 1 80.7794 71.9359 31.2799 0.0000 0.0000 0.0000
# 2 71.9359 80.7794 31.2799 0.0000 0.0000 0.0000
# 3 31.2799 31.2799 51.4364 0.0000 0.0000 0.0000
# 4 0.0000 0.0000 0.0000 25.2241 0.0000 0.0000
# 5 0.0000 0.0000 0.0000 0.0000 25.2241 0.0000
# 6 0.0000 0.0000 0.0000 0.0000 0.0000 24.8082
#
#
#
# Elastic Compliance Matrix: (Units=1/GPa)
#
#
# Indices 1 2 3 4 5 6 
#
# 1 0.060899 -0.052178 -0.005303 0.000000 0.000000 0.000000
# 2 -0.052178 0.060899 -0.005303 0.000000 0.000000 0.000000
# 3 -0.005303 -0.005303 0.025892 0.000000 0.000000 0.000000
# 4 0.000000 0.000000 0.000000 0.039645 0.000000 0.000000
# 5 0.000000 0.000000 0.000000 0.000000 0.039645 0.000000
# 6 0.000000 0.000000 0.000000 0.000000 0.000000 0.040309
#
#
# Mechanical properties :
#
#
# Convention : Reuss Voigt Hill
#
# Bulk Modulus (GPa) = 45.20834 53.55407 49.38120
# Shear Modulus (GPa) = 12.49280 20.28457 16.38868
#
# Velocity S-wave (km/s) = 2.73018 3.47892 3.12704
# Velocity P-wave (km/s) = 6.07555 6.93474 6.51932
#
# Compressibility (1/GPa) = 0.02211981
#
# Stress axis : x y z
#
# Youngs Moduli (GPa) = 16.42067 16.42067 38.62262
#
# Poissons Ratio (x) = 0.85680 0.20483
# Poissons Ratio (y) = 0.85680 0.20483
# Poissons Ratio (z) = 0.08708 0.08708
#
# Static dielectric constant tensor:
#      x y z
#    x 1.558460 0.000000 0.000000 
#    y 0.000000 1.558460 0.000000 
#    z 0.000000 0.000000 1.646650 
# 
# From -- ./inp_files/6022.got.cif
#   From: 2010.05.17/outbox.cif.g08.bks.cpg/sg124_4_cif.got.tgz:6022.got - 2010.05.20 11:49:17.
