data_PCOD9562402
_publ_section_title
;
Structure prediction by ZEFSAII (Michael W. Deem and Ramdas Pophale) SiO2 
 PCOD9562402
Probable space group: P 4/M C C
;
_chemical_formula_sum "Si O2"
_cell_formula_units_Z 116
_cell_length_a 17.354891
_cell_length_b 17.354891
_cell_length_c 16.788634
_cell_angle_alpha 90.000000
_cell_angle_beta 90.000000
_cell_angle_gamma 90.000000
_cell_volume 5056.606308
_symmetry_space_group_name_H-M "P 4/M C C"
_symmetry_group_IT_number 124
_symmetry_cell_setting 'tetragonal'
loop_
_space_group_symop_operation_xyz
x,y,z
-y,x,z
-x,-y,z
y,-x,z
x,-y,1/2-z
-x,y,1/2-z
y,x,1/2-z
-y,-x,1/2-z
-x,-y,-z
y,-x,-z
x,y,-z
-y,x,-z
-x,y,1/2+z
x,-y,1/2+z
-y,-x,1/2+z
y,x,1/2+z
loop_
_atom_site_type_symbol
_atom_site_label
_atom_site_fract_x
_atom_site_fract_y
_atom_site_fract_z
Si Si1 0.070870 0.100854 0.155273
Si Si2 0.866979 0.688753 0.408776
Si Si3 0.980481 0.745915 0.157133
Si Si4 0.472241 0.841730 0.660088
Si Si5 0.500000 0.500000 0.397916
Si Si6 0.375723 0.871165 0.908040
Si Si7 0.705742 0.277043 0.839804
Si Si8 0.544968 0.338562 0.334799
O O1 0.087732 0.087732 0.250000
O O2 0.085106 0.189651 0.136067
O O3 0.981162 0.100445 0.127106
O O4 0.875047 0.665039 0.500000
O O5 0.870693 0.613783 0.352936
O O6 0.781314 0.720991 0.394687
O O7 0.936827 0.744917 0.386503
O O8 0.939945 0.666238 0.137250
O O9 0.000000 0.755966 0.250000
O O10 0.500000 0.853924 0.750000
O O11 0.533244 0.879419 0.601639
O O12 0.474059 0.749551 0.644514
O O13 0.516676 0.406456 0.391516
O O14 0.350384 0.790737 0.866962
O O15 0.352597 0.870994 0.000000
O O16 0.735464 0.264537 0.750000
O O17 0.664558 0.361206 0.836099
O O18 0.500000 0.355391 0.250000
#
# Coordination Sequence:
#
# PCOD9562402 Si02
#       8
#    16  16  16  16   4  16  16  16
#     4   9  18  37  63  99 135 160 205 263 323 383
#     4  11  25  44  64  93 135 177 220 280 356 412
#     4  12  24  39  68 101 131 172 220 273 326 412
#     4  10  21  43  67  91 124 174 234 286 341 414
#     4  12  17  24  48  92 133 162 197 260 345 402
#     4  12  26  42  63  97 137 175 224 284 352 415
#     4  11  22  41  64  92 130 178 234 287 337 410
#     4  10  19  31  57  93 129 164 215 284 339 399
#
# _framework density 22.940287000000001
#
# number of rings (size 3 to 8) (size 9 to 14) (size 15 to 20)
#    0.000    1.241    1.379    8.069    1.931    1.103 
#    0.000    2.759    0.000    0.000    0.000   21.241 
#    0.000    0.000    0.000    0.000    0.000    0.000 
#
# Total GULP energy -646421.226407 kJ/mol
# GULP energy per Si atom -5572.596779 kJ/mol
# Density = 2.288807 g / cm^3
# Si number density = 22.940287 Si / 1000 Ang^3
#
#
#
# Elastic Constant Matrix: (Units=GPa)
#
#
# Indices 1 2 3 4 5 6 
#
# 1 72.4937 17.2996 9.5676 0.0000 0.0000 0.0000
# 2 17.2996 72.4934 9.5675 0.0000 0.0000 0.0000
# 3 9.5676 9.5675 58.0245 0.0000 0.0000 0.0000
# 4 0.0000 0.0000 0.0000 14.2574 0.0000 0.0000
# 5 0.0000 0.0000 0.0000 0.0000 14.2578 0.0000
# 6 0.0000 0.0000 0.0000 0.0000 0.0000 55.0831
#
#
#
# Elastic Compliance Matrix: (Units=1/GPa)
#
#
# Indices 1 2 3 4 5 6 
#
# 1 0.014830 -0.003288 -0.001903 0.000000 0.000000 0.000000
# 2 -0.003288 0.014830 -0.001903 0.000000 0.000000 0.000000
# 3 -0.001903 -0.001903 0.017862 0.000000 0.000000 0.000000
# 4 0.000000 0.000000 0.000000 0.070139 0.000000 0.000000
# 5 0.000000 0.000000 0.000000 0.000000 0.070137 0.000000
# 6 0.000000 0.000000 0.000000 0.000000 0.000000 0.018154
#
#
# Mechanical properties :
#
#
# Convention : Reuss Voigt Hill
#
# Bulk Modulus (GPa) = 29.99979 30.65342 30.32660
# Shear Modulus (GPa) = 21.62146 27.82480 24.72313
#
# Velocity S-wave (km/s) = 3.07336 3.48648 3.28642
# Velocity P-wave (km/s) = 5.06950 5.44047 5.25826
#
# Compressibility (1/GPa) = 0.03333357
#
# Stress axis : x y z
#
# Youngs Moduli (GPa) = 67.43051 67.43024 55.98561
#
# Poissons Ratio (x) = 0.22170 0.10655
# Poissons Ratio (y) = 0.22170 0.10655
# Poissons Ratio (z) = 0.12833 0.12833
#
# Static dielectric constant tensor:
#      x y z
#    x 1.876920 0.000000 0.000000 
#    y 0.000000 1.876920 0.000000 
#    z 0.000000 0.000000 1.867760 
# 
# From -- ./inp_files/4438.got.cif
#   From: 2010.05.17/outbox.cif.g08.bks.cpg/sg124_3_cif.got.tgz:4438.got - 2010.05.20 11:49:17.
