data_PCOD9562471
_publ_section_title
;
Structure prediction by ZEFSAII (Michael W. Deem and Ramdas Pophale) SiO2 
 PCOD9562471
Probable space group: P 4/M C C
;
_chemical_formula_sum "Si O2"
_cell_formula_units_Z 96
_cell_length_a 23.696390
_cell_length_b 23.696390
_cell_length_c 9.230739
_cell_angle_alpha 90.000000
_cell_angle_beta 90.000000
_cell_angle_gamma 90.000000
_cell_volume 5183.234401
_symmetry_space_group_name_H-M "P 4/M C C"
_symmetry_group_IT_number 124
_symmetry_cell_setting 'tetragonal'
loop_
_space_group_symop_operation_xyz
x,y,z
-y,x,z
-x,-y,z
y,-x,z
x,-y,1/2-z
-x,y,1/2-z
y,x,1/2-z
-y,-x,1/2-z
-x,-y,-z
y,-x,-z
x,y,-z
-y,x,-z
-x,y,1/2+z
x,-y,1/2+z
-y,-x,1/2+z
y,x,1/2+z
loop_
_atom_site_type_symbol
_atom_site_label
_atom_site_fract_x
_atom_site_fract_y
_atom_site_fract_z
Si Si1 0.267494 0.653111 0.825558
Si Si2 0.741582 0.814055 0.668398
Si Si3 0.082566 0.266627 0.659146
Si Si4 0.606618 0.945790 0.164258
Si Si5 0.439760 0.822665 0.325572
Si Si6 0.136300 0.056052 0.832507
O O1 0.326010 0.673991 0.750000
O O2 0.222155 0.696532 0.758321
O O3 0.235212 0.594578 0.791499
O O4 0.272341 0.658313 0.000000
O O5 0.799459 0.799459 0.750000
O O6 0.742036 0.800135 0.500000
O O7 0.729022 0.878151 0.701239
O O8 0.113494 0.267484 0.500000
O O9 0.049328 0.325141 0.658498
O O10 0.055712 0.204884 0.667191
O O11 0.591081 0.882092 0.216753
O O12 0.584453 0.000000 0.250000
O O13 0.585395 0.949179 0.000000
O O14 0.500000 0.821785 0.250000
O O15 0.444418 0.823791 0.500000
O O16 0.108963 0.108963 0.750000
O O17 0.116955 0.000000 0.750000
O O18 0.118652 0.056900 0.000000
#
# Coordination Sequence:
#
# PCOD9562471 Si02
#       6
#    16  16  16  16  16  16
#     4  10  19  35  56  82 116 150 186 234 285 335
#     4  11  20  29  48  77 107 139 174 214 264 328
#     4  10  20  37  57  78 109 138 171 221 277 335
#     4  10  21  38  56  78 110 149 192 244 291 336
#     4  10  22  39  59  81 116 155 197 245 288 334
#     4  11  24  41  62  83 107 137 173 221 276 346
#
# _framework density 18.521253999999999
#
# number of rings (size 3 to 8) (size 9 to 14) (size 15 to 20)
#    0.000    1.667    1.667    4.500    0.000    5.833 
#    0.000    2.500    0.000    0.000    0.000    0.000 
#    0.000    0.333    0.000    3.667    0.000    2.667 
#
# Total GULP energy -534467.672179 kJ/mol
# GULP energy per Si atom -5567.371585 kJ/mol
# Density = 1.847910 g / cm^3
# Si number density = 18.521254 Si / 1000 Ang^3
#
#
#
# Elastic Constant Matrix: (Units=GPa)
#
#
# Indices 1 2 3 4 5 6 
#
# 1 80.4816 38.2748 39.4874 0.0000 0.0000 0.0000
# 2 38.2748 80.4825 39.4869 0.0000 0.0000 0.0000
# 3 39.4874 39.4869 86.4231 0.0000 0.0000 0.0000
# 4 0.0000 0.0000 0.0000 25.1556 0.0000 0.0000
# 5 0.0000 0.0000 0.0000 0.0000 25.1555 0.0000
# 6 0.0000 0.0000 0.0000 0.0000 0.0000 6.6476
#
#
#
# Elastic Compliance Matrix: (Units=1/GPa)
#
#
# Indices 1 2 3 4 5 6 
#
# 1 0.017894 -0.005798 -0.005527 0.000000 0.000000 0.000000
# 2 -0.005798 0.017894 -0.005526 0.000000 0.000000 0.000000
# 3 -0.005527 -0.005526 0.016621 0.000000 0.000000 0.000000
# 4 0.000000 0.000000 0.000000 0.039753 0.000000 0.000000
# 5 0.000000 0.000000 0.000000 0.000000 0.039753 0.000000
# 6 0.000000 0.000000 0.000000 0.000000 0.000000 0.150431
#
#
# Mechanical properties :
#
#
# Convention : Reuss Voigt Hill
#
# Bulk Modulus (GPa) = 53.45775 53.54283 53.50029
# Shear Modulus (GPa) = 15.51421 20.06760 17.79091
#
# Velocity S-wave (km/s) = 2.89735 3.29521 3.10266
# Velocity P-wave (km/s) = 6.33391 6.59162 6.46405
#
# Compressibility (1/GPa) = 0.01870636
#
# Stress axis : x y z
#
# Youngs Moduli (GPa) = 55.88338 55.88457 60.16387
#
# Poissons Ratio (x) = 0.32404 0.33251
# Poissons Ratio (y) = 0.32403 0.33249
# Poissons Ratio (z) = 0.30886 0.30885
#
# Static dielectric constant tensor:
#      x y z
#    x 1.708120 0.000000 0.000000 
#    y 0.000000 1.708120 0.000000 
#    z 0.000000 0.000000 1.661460 
# 
# From -- ./inp_files/1354.got.cif
#   From: 2010.05.17/outbox.cif.g08.bks.cpg/sg124_1_cif.got.tgz:1354.got - 2010.05.20 11:49:17.
