data_PCOD9562664
_publ_section_title
;
Structure prediction by ZEFSAII (Michael W. Deem and Ramdas Pophale) SiO2 
 PCOD9562664
Probable space group: P 4/M C C
;
_chemical_formula_sum "Si O2"
_cell_formula_units_Z 48
_cell_length_a 16.299502
_cell_length_b 16.299502
_cell_length_c 8.105633
_cell_angle_alpha 90.000000
_cell_angle_beta 90.000000
_cell_angle_gamma 90.000000
_cell_volume 2153.454040
_symmetry_space_group_name_H-M "P 4/M C C"
_symmetry_group_IT_number 124
_symmetry_cell_setting 'tetragonal'
loop_
_space_group_symop_operation_xyz
x,y,z
-y,x,z
-x,-y,z
y,-x,z
x,-y,1/2-z
-x,y,1/2-z
y,x,1/2-z
-y,-x,1/2-z
-x,-y,-z
y,-x,-z
x,y,-z
-y,x,-z
-x,y,1/2+z
x,-y,1/2+z
-y,-x,1/2+z
y,x,1/2+z
loop_
_atom_site_type_symbol
_atom_site_label
_atom_site_fract_x
_atom_site_fract_y
_atom_site_fract_z
Si Si1 0.090500 0.607067 0.186738
Si Si2 0.410734 0.275957 0.197680
Si Si3 0.916452 0.787911 0.804624
O O1 0.180940 0.590705 0.264797
O O2 0.085845 0.704863 0.200668
O O3 0.000000 0.582078 0.250000
O O4 0.094555 0.576764 0.000000
O O5 0.500000 0.310097 0.250000
O O6 0.335184 0.335184 0.250000
O O7 0.406313 0.270884 0.000000
O O8 0.840087 0.840087 0.750000
O O9 0.000000 0.832041 0.750000
O O10 0.916076 0.770869 0.000000
#
# Coordination Sequence:
#
# PCOD9562664 Si02
#       3
#    16  16  16
#     4  10  21  38  62  93 126 164 206 255 312 374
#     4  11  25  44  68  97 131 171 218 269 325 385
#     4  11  21  34  52  76 108 149 197 250 307 370
#
# _framework density 22.289773
#
# number of rings (size 3 to 8) (size 9 to 14) (size 15 to 20)
#    0.000    1.333    0.000    8.000    0.000    9.333 
#    0.000    6.667    0.000    0.000    0.000    0.000 
#    0.000    0.000    0.000    0.000    0.000    0.000 
#
# Total GULP energy -267660.334305 kJ/mol
# GULP energy per Si atom -5576.256965 kJ/mol
# Density = 2.223904 g / cm^3
# Si number density = 22.289773 Si / 1000 Ang^3
#
#
#
# Elastic Constant Matrix: (Units=GPa)
#
#
# Indices 1 2 3 4 5 6 
#
# 1 139.3857 77.0450 14.7297 0.0000 0.0000 0.0000
# 2 77.0450 139.3857 14.7297 0.0000 0.0000 0.0000
# 3 14.7297 14.7297 75.7694 0.0000 0.0000 0.0000
# 4 0.0000 0.0000 0.0000 57.4874 0.0000 0.0000
# 5 0.0000 0.0000 0.0000 0.0000 57.4874 0.0000
# 6 0.0000 0.0000 0.0000 0.0000 0.0000 23.4642
#
#
#
# Elastic Compliance Matrix: (Units=1/GPa)
#
#
# Indices 1 2 3 4 5 6 
#
# 1 0.010393 -0.005647 -0.000923 0.000000 0.000000 0.000000
# 2 -0.005647 0.010393 -0.000923 0.000000 0.000000 0.000000
# 3 -0.000923 -0.000923 0.013557 0.000000 0.000000 0.000000
# 4 0.000000 0.000000 0.000000 0.017395 0.000000 0.000000
# 5 0.000000 0.000000 0.000000 0.000000 0.017395 0.000000
# 6 0.000000 0.000000 0.000000 0.000000 0.000000 0.042618
#
#
# Mechanical properties :
#
#
# Convention : Reuss Voigt Hill
#
# Bulk Modulus (GPa) = 51.65787 63.06106 57.35946
# Shear Modulus (GPa) = 37.54034 44.22356 40.88195
#
# Velocity S-wave (km/s) = 4.10835 4.45908 4.28730
# Velocity P-wave (km/s) = 6.76244 7.40703 7.09206
#
# Compressibility (1/GPa) = 0.01935814
#
# Stress axis : x y z
#
# Youngs Moduli (GPa) = 96.21442 96.21442 73.76452
#
# Poissons Ratio (x) = 0.54337 0.06806
# Poissons Ratio (y) = 0.54337 0.06806
# Poissons Ratio (z) = 0.08877 0.08877
#
# Static dielectric constant tensor:
#      x y z
#    x 1.901020 0.000000 0.000000 
#    y 0.000000 1.901020 0.000000 
#    z 0.000000 0.000000 1.926800 
# 
# From -- ./inp_files/468.got.cif
#   From: 2010.05.17/outbox.cif.g08.bks.cpg/sg124_1_cif.got.tgz:468.got - 2010.05.20 11:49:17.
