data_PCOD9562350
_publ_section_title
;
Structure prediction by ZEFSAII (Michael W. Deem and Ramdas Pophale) SiO2 
 PCOD9562350
Probable space group: P 4/M C C
;
_chemical_formula_sum "Si O2"
_cell_formula_units_Z 72
_cell_length_a 22.209388
_cell_length_b 22.209388
_cell_length_c 10.205412
_cell_angle_alpha 90.000000
_cell_angle_beta 90.000000
_cell_angle_gamma 90.000000
_cell_volume 5033.890043
_symmetry_space_group_name_H-M "P 4/M C C"
_symmetry_group_IT_number 124
_symmetry_cell_setting 'tetragonal'
loop_
_space_group_symop_operation_xyz
x,y,z
-y,x,z
-x,-y,z
y,-x,z
x,-y,1/2-z
-x,y,1/2-z
y,x,1/2-z
-y,-x,1/2-z
-x,-y,-z
y,-x,-z
x,y,-z
-y,x,-z
-x,y,1/2+z
x,-y,1/2+z
-y,-x,1/2+z
y,x,1/2+z
loop_
_atom_site_type_symbol
_atom_site_label
_atom_site_fract_x
_atom_site_fract_y
_atom_site_fract_z
Si Si1 0.146935 0.760409 0.000000
Si Si2 0.940193 0.654753 0.000000
Si Si3 0.093792 0.035252 0.000000
Si Si4 0.213285 0.120520 0.500000
Si Si5 0.811642 0.064465 0.725125
Si Si6 0.085993 0.642421 0.000000
Si Si7 0.431771 0.927971 0.244109
O O1 0.108807 0.776054 0.130451
O O2 0.141239 0.689274 0.000000
O O3 0.202567 0.807206 0.000000
O O4 0.906121 0.719093 0.000000
O O5 0.920155 0.613353 0.877668
O O6 0.014149 0.664598 0.000000
O O7 0.131501 0.047735 0.132628
O O8 0.033620 0.073824 0.000000
O O9 0.182304 0.095334 0.633158
O O10 0.780127 0.000000 0.750000
O O11 0.092033 0.602486 0.127531
O O12 0.500000 0.903233 0.250000
O O13 0.438120 0.000000 0.250000
#
# Coordination Sequence:
#
# PCOD9562350 Si02
#       7
#     8   8   8   8  16   8  16
#     4  11  24  36  51  68  87 120 149 184 222 278
#     4  10  19  32  48  70  97 116 145 183 223 274
#     4  10  25  43  53  61  75  94 128 181 249 306
#     4  12  24  37  51  74  88 115 150 187 231 273
#     4  11  24  37  55  63  81 102 141 184 243 286
#     4  10  18  32  47  69  91 115 150 176 220 274
#     4   9  17  29  49  72  96 117 136 168 219 277
#
# _framework density 14.303053
#
# number of rings (size 3 to 8) (size 9 to 14) (size 15 to 20)
#    0.000    1.667    0.000    5.333    9.333    4.444 
#    0.000    1.111    0.000    1.333    0.000    0.000 
#    0.000    0.000    0.000    0.000    0.000    0.000 
#
# Total GULP energy -401214.640590 kJ/mol
# GULP energy per Si atom -5572.425564 kJ/mol
# Density = 1.427050 g / cm^3
# Si number density = 14.303053 Si / 1000 Ang^3
#
#
#
# Elastic Constant Matrix: (Units=GPa)
#
#
# Indices 1 2 3 4 5 6 
#
# 1 82.9608 20.0980 32.6575 0.0000 0.0000 0.0000
# 2 20.0980 82.9608 32.6575 0.0000 0.0000 0.0000
# 3 32.6575 32.6575 137.6828 0.0000 0.0000 0.0000
# 4 0.0000 0.0000 0.0000 2.9551 0.0000 0.0000
# 5 0.0000 0.0000 0.0000 0.0000 2.9551 0.0000
# 6 0.0000 0.0000 0.0000 0.0000 0.0000 10.1035
#
#
#
# Elastic Compliance Matrix: (Units=1/GPa)
#
#
# Indices 1 2 3 4 5 6 
#
# 1 0.013664 -0.002244 -0.002709 0.000000 0.000000 0.000000
# 2 -0.002244 0.013664 -0.002709 0.000000 0.000000 0.000000
# 3 -0.002709 -0.002709 0.008548 0.000000 0.000000 0.000000
# 4 0.000000 0.000000 0.000000 0.338402 0.000000 0.000000
# 5 0.000000 0.000000 0.000000 0.000000 0.338402 0.000000
# 6 0.000000 0.000000 0.000000 0.000000 0.000000 0.098975
#
#
# Mechanical properties :
#
#
# Convention : Reuss Voigt Hill
#
# Bulk Modulus (GPa) = 48.65483 52.71447 50.68465
# Shear Modulus (GPa) = 5.99644 17.74883 11.87264
#
# Velocity S-wave (km/s) = 2.04976 3.52648 2.88423
# Velocity P-wave (km/s) = 6.30024 7.31552 6.82678
#
# Compressibility (1/GPa) = 0.02055294
#
# Stress axis : x y z
#
# Youngs Moduli (GPa) = 73.18619 73.18619 116.98566
#
# Poissons Ratio (x) = 0.16422 0.31688
# Poissons Ratio (y) = 0.16422 0.31688
# Poissons Ratio (z) = 0.19824 0.19824
#
# Static dielectric constant tensor:
#      x y z
#    x 1.493310 0.000000 0.000000 
#    y 0.000000 1.493310 0.000000 
#    z 0.000000 0.000000 1.736190 
# 
# From -- ./inp_files/1203.got.cif
#   From: 2010.05.17/outbox.cif.g08.bks.cpg/sg124_1_cif.got.tgz:1203.got - 2010.05.20 11:49:17.
