data_PCOD9562346
_publ_section_title
;
Structure prediction by ZEFSAII (Michael W. Deem and Ramdas Pophale) SiO2 
 PCOD9562346
Probable space group: P 4/M C C
;
_chemical_formula_sum "Si O2"
_cell_formula_units_Z 96
_cell_length_a 24.864789
_cell_length_b 24.864789
_cell_length_c 9.677978
_cell_angle_alpha 90.000000
_cell_angle_beta 90.000000
_cell_angle_gamma 90.000000
_cell_volume 5983.484729
_symmetry_space_group_name_H-M "P 4/M C C"
_symmetry_group_IT_number 124
_symmetry_cell_setting 'tetragonal'
loop_
_space_group_symop_operation_xyz
x,y,z
-y,x,z
-x,-y,z
y,-x,z
x,-y,1/2-z
-x,y,1/2-z
y,x,1/2-z
-y,-x,1/2-z
-x,-y,-z
y,-x,-z
x,y,-z
-y,x,-z
-x,y,1/2+z
x,-y,1/2+z
-y,-x,1/2+z
y,x,1/2+z
loop_
_atom_site_type_symbol
_atom_site_label
_atom_site_fract_x
_atom_site_fract_y
_atom_site_fract_z
Si Si1 0.059227 0.769777 0.746209
Si Si2 0.263396 0.340901 0.164432
Si Si3 0.450348 0.616316 0.657696
Si Si4 0.946016 0.853658 0.000000
Si Si5 0.063683 0.150273 0.500000
Si Si6 0.751222 0.826624 0.338680
Si Si7 0.745104 0.551317 0.339058
O O1 0.055946 0.813653 0.626980
O O2 0.067765 0.808090 0.875683
O O3 0.113868 0.737428 0.717438
O O4 0.000000 0.742281 0.750000
O O5 0.310773 0.310773 0.250000
O O6 0.213425 0.299421 0.168907
O O7 0.247878 0.394962 0.247061
O O8 0.276861 0.349947 0.000000
O O9 0.500000 0.595498 0.750000
O O10 0.399425 0.600576 0.750000
O O11 0.448221 0.595690 0.500000
O O12 0.455096 0.680442 0.649782
O O13 0.896169 0.892912 0.000000
O O14 0.005429 0.878534 0.000000
O O15 0.798978 0.798978 0.250000
O O16 0.767268 0.830429 0.500000
O O17 0.765257 0.500000 0.250000
O O18 0.764610 0.554382 0.500000
#
# Coordination Sequence:
#
# PCOD9562346 Si02
#       7
#    16  16  16   8   8  16  16
#     4  10  20  32  46  65  89 121 160 202 247 296
#     4  10  20  33  50  74 102 131 163 202 247 292
#     4  10  20  32  46  63  84 114 151 191 232 269
#     4  10  18  31  44  60  86 114 157 201 245 291
#     4  10  20  29  44  62  82 118 155 201 247 289
#     4  10  20  33  50  71  97 127 160 202 249 298
#     4  10  20  34  52  72  97 128 160 194 233 283
#
# _framework density 16.044162
#
# number of rings (size 3 to 8) (size 9 to 14) (size 15 to 20)
#    0.000    2.000    0.833    3.500    1.167    4.333 
#    0.000    0.833    0.000    3.000    0.000    0.000 
#    0.000    0.667    0.000    5.333    0.000    0.833 
#
# Total GULP energy -534571.695386 kJ/mol
# GULP energy per Si atom -5568.455160 kJ/mol
# Density = 1.600765 g / cm^3
# Si number density = 16.044162 Si / 1000 Ang^3
#
#
#
# Elastic Constant Matrix: (Units=GPa)
#
#
# Indices 1 2 3 4 5 6 
#
# 1 69.5292 15.0033 33.7768 0.0000 0.0000 0.0000
# 2 15.0033 69.5284 33.7768 0.0000 0.0000 0.0000
# 3 33.7768 33.7768 154.2203 0.0000 0.0000 0.0000
# 4 0.0000 0.0000 0.0000 17.5807 0.0000 0.0000
# 5 0.0000 0.0000 0.0000 0.0000 17.5804 0.0000
# 6 0.0000 0.0000 0.0000 0.0000 0.0000 17.7392
#
#
#
# Elastic Compliance Matrix: (Units=1/GPa)
#
#
# Indices 1 2 3 4 5 6 
#
# 1 0.016340 -0.002000 -0.003141 0.000000 0.000000 0.000000
# 2 -0.002000 0.016340 -0.003141 0.000000 0.000000 0.000000
# 3 -0.003141 -0.003141 0.007860 0.000000 0.000000 0.000000
# 4 0.000000 0.000000 0.000000 0.056881 0.000000 0.000000
# 5 0.000000 0.000000 0.000000 0.000000 0.056882 0.000000
# 6 0.000000 0.000000 0.000000 0.000000 0.000000 0.056372
#
#
# Mechanical properties :
#
#
# Convention : Reuss Voigt Hill
#
# Bulk Modulus (GPa) = 41.70710 50.93241 46.31975
# Shear Modulus (GPa) = 21.25585 24.62812 22.94199
#
# Velocity S-wave (km/s) = 3.64378 3.92218 3.78554
# Velocity P-wave (km/s) = 6.61471 7.23363 6.93108
#
# Compressibility (1/GPa) = 0.02397674
#
# Stress axis : x y z
#
# Youngs Moduli (GPa) = 61.20056 61.19967 127.22767
#
# Poissons Ratio (x) = 0.12241 0.39957
# Poissons Ratio (y) = 0.12241 0.39958
# Poissons Ratio (z) = 0.19221 0.19221
#
# Static dielectric constant tensor:
#      x y z
#    x 1.573310 0.000000 0.000000 
#    y 0.000000 1.573310 0.000000 
#    z 0.000000 0.000000 1.556000 
# 
# From -- ./inp_files/1449.got.cif
#   From: 2010.05.17/outbox.cif.g08.bks.cpg/sg124_1_cif.got.tgz:1449.got - 2010.05.20 11:49:17.
