data_PCOD9562142
_publ_section_title
;
Structure prediction by ZEFSAII (Michael W. Deem and Ramdas Pophale) SiO2 
 PCOD9562142
Probable space group: P 4/M M M
;
_chemical_formula_sum "Si O2"
_cell_formula_units_Z 72
_cell_length_a 21.858319
_cell_length_b 21.858319
_cell_length_c 8.768254
_cell_angle_alpha 90.000000
_cell_angle_beta 90.000000
_cell_angle_gamma 90.000000
_cell_volume 4189.349966
_symmetry_space_group_name_H-M "P 4/M M M"
_symmetry_group_IT_number 123
_symmetry_cell_setting 'tetragonal'
loop_
_space_group_symop_operation_xyz
x,y,z
-y,x,z
-x,-y,z
y,-x,z
x,-y,-z
-x,y,-z
y,x,-z
-y,-x,-z
-x,-y,-z
y,-x,-z
x,y,-z
-y,x,-z
-x,y,z
x,-y,z
-y,-x,z
y,x,z
loop_
_atom_site_type_symbol
_atom_site_label
_atom_site_fract_x
_atom_site_fract_y
_atom_site_fract_z
Si Si1 0.069670 0.500000 0.814285
Si Si2 0.167519 0.600460 0.184231
Si Si3 0.400955 0.500000 0.683842
Si Si4 0.164286 0.735653 0.317505
Si Si5 0.829994 0.929552 0.184141
Si Si6 0.733877 0.500000 0.183533
O O1 0.108555 0.440152 0.769565
O O2 0.000000 0.500000 0.760001
O O3 0.068805 0.500000 0.000000
O O4 0.167954 0.667399 0.254225
O O5 0.226376 0.559546 0.228106
O O6 0.166931 0.605168 0.000000
O O7 0.440743 0.440743 0.730524
O O8 0.398308 0.500000 0.500000
O O9 0.333376 0.500000 0.749084
O O10 0.161097 0.734589 0.500000
O O11 0.223402 0.776599 0.272729
O O12 0.105875 0.771971 0.252301
O O13 0.889733 0.889733 0.227238
O O14 0.833717 0.000000 0.232707
O O15 0.825493 0.928245 0.000000
O O16 0.730518 0.500000 0.000000
#
# Coordination Sequence:
#
# PCOD9562142 Si02
#       6
#     8  16   8  16  16   8
#     4   8  15  30  52  75  97 123 157 196 239 289
#     4   9  18  33  52  74 100 128 161 203 247 291
#     4   9  19  35  52  71  97 128 162 202 247 294
#     4  10  21  35  50  71 101 135 169 205 245 290
#     4   9  18  33  53  76 101 130 165 205 249 296
#     4   9  19  34  51  74 102 130 162 203 251 300
#
# _framework density 17.186437999999999
#
# number of rings (size 3 to 8) (size 9 to 14) (size 15 to 20)
#    0.000    2.889    0.000    2.333    0.000    5.111 
#    0.000   10.000    0.000    0.667    0.000    3.111 
#    0.000    0.000    0.000    0.000    0.000    0.000 
#
# Total GULP energy -401423.182721 kJ/mol
# GULP energy per Si atom -5575.321982 kJ/mol
# Density = 1.714732 g / cm^3
# Si number density = 17.186438 Si / 1000 Ang^3
#
#
#
# Elastic Constant Matrix: (Units=GPa)
#
#
# Indices 1 2 3 4 5 6 
#
# 1 193.2521 105.4411 38.2574 0.0000 0.0000 0.0000
# 2 105.4411 193.2521 38.2574 0.0000 0.0000 0.0000
# 3 38.2574 38.2574 14.9936 0.0000 0.0000 0.0000
# 4 0.0000 0.0000 0.0000 6.2884 0.0000 0.0000
# 5 0.0000 0.0000 0.0000 0.0000 6.2884 0.0000
# 6 0.0000 0.0000 0.0000 0.0000 0.0000 6.3942
#
#
#
# Elastic Compliance Matrix: (Units=1/GPa)
#
#
# Indices 1 2 3 4 5 6 
#
# 1 0.010527 -0.000861 -0.024663 0.000000 0.000000 0.000000
# 2 -0.000861 0.010527 -0.024663 0.000000 0.000000 0.000000
# 3 -0.024663 -0.024663 0.192552 0.000000 0.000000 0.000000
# 4 0.000000 0.000000 0.000000 0.159022 0.000000 0.000000
# 5 0.000000 0.000000 0.000000 0.000000 0.159022 0.000000
# 6 0.000000 0.000000 0.000000 0.000000 0.000000 0.156392
#
#
# Mechanical properties :
#
#
# Convention : Reuss Voigt Hill
#
# Bulk Modulus (GPa) = 8.83134 85.04550 46.93842
# Shear Modulus (GPa) = 6.05210 18.43035 12.24123
#
# Velocity S-wave (km/s) = 1.87859 3.27827 2.67172
# Velocity P-wave (km/s) = 3.13929 7.99506 6.07355
#
# Compressibility (1/GPa) = 0.11323313
#
# Stress axis : x y z
#
# Youngs Moduli (GPa) = 94.99526 94.99526 5.19340
#
# Poissons Ratio (x) = 0.08181 0.12808
# Poissons Ratio (y) = 0.08181 0.12808
# Poissons Ratio (z) = 2.34282 2.34282
#
# Static dielectric constant tensor:
#      x y z
#    x 1.565300 0.000000 0.000000 
#    y 0.000000 1.565300 0.000000 
#    z 0.000000 0.000000 1.578150 
# 
# From -- ./inp_files/1212.got.cif
#   From: 2010.05.17/outbox.cif.g08.bks.cpg/sg123_1_cif.got.tgz:1212.got - 2010.05.20 11:43:04.
