data_PCOD9562765
_publ_section_title
;
Structure prediction by ZEFSAII (Michael W. Deem and Ramdas Pophale) SiO2 
 PCOD9562765
Probable space group: P 4/M C C
;
_chemical_formula_sum "Si O2"
_cell_formula_units_Z 56
_cell_length_a 11.273085
_cell_length_b 11.273085
_cell_length_c 19.236773
_cell_angle_alpha 90.000000
_cell_angle_beta 90.000000
_cell_angle_gamma 90.000000
_cell_volume 2444.656155
_symmetry_space_group_name_H-M "P 4/M C C"
_symmetry_group_IT_number 124
_symmetry_cell_setting 'tetragonal'
loop_
_space_group_symop_operation_xyz
x,y,z
-y,x,z
-x,-y,z
y,-x,z
x,-y,1/2-z
-x,y,1/2-z
y,x,1/2-z
-y,-x,1/2-z
-x,-y,-z
y,-x,-z
x,y,-z
-y,x,-z
-x,y,1/2+z
x,-y,1/2+z
-y,-x,1/2+z
y,x,1/2+z
loop_
_atom_site_type_symbol
_atom_site_label
_atom_site_fract_x
_atom_site_fract_y
_atom_site_fract_z
Si Si1 0.674421 0.846259 0.000000
Si Si2 0.777026 0.777026 0.250000
Si Si3 0.411940 0.260346 0.500000
Si Si4 0.937985 0.810945 0.372774
Si Si5 0.410388 0.331590 0.341590
O O1 0.711612 0.913350 0.069777
O O2 0.533393 0.816999 0.000000
O O3 0.761586 0.730041 0.000000
O O4 0.894049 0.769357 0.297190
O O5 0.667744 0.767753 0.304671
O O6 0.416354 0.324101 0.425132
O O7 0.071169 0.856989 0.381273
O O8 0.546885 0.344006 0.321296
#
# Coordination Sequence:
#
# PCOD9562765 Si02
#       5
#     8   8   8  16  16
#     4  12  24  42  72 104 138 168 220 276 340 398
#     4  12  22  38  64  98 132 164 224 290 328 376
#     4  12  20  39  67 104 140 170 213 271 326 410
#     4  11  25  48  73  94 123 177 242 286 324 389
#     4  11  21  36  63  97 141 186 223 263 318 405
#
# _framework density 22.907105999999999
#
# number of rings (size 3 to 8) (size 9 to 14) (size 15 to 20)
#    0.000    0.571    5.714    2.571    0.000    4.857 
#    0.000    2.857    0.000    6.857    0.000    0.000 
#    0.000    0.000    0.000    0.000    0.000    0.000 
#
# Total GULP energy -312399.293609 kJ/mol
# GULP energy per Si atom -5578.558814 kJ/mol
# Density = 2.285497 g / cm^3
# Si number density = 22.907106 Si / 1000 Ang^3
#
#
#
# Elastic Constant Matrix: (Units=GPa)
#
#
# Indices 1 2 3 4 5 6 
#
# 1 27.7837 6.9276 -0.1046 0.0000 0.0000 0.0000
# 2 6.9276 27.7837 -0.1046 0.0000 0.0000 0.0000
# 3 -0.1046 -0.1046 121.2501 0.0000 0.0000 0.0000
# 4 0.0000 0.0000 0.0000 -30.4857 0.0000 0.0000
# 5 0.0000 0.0000 0.0000 0.0000 -30.4857 0.0000
# 6 0.0000 0.0000 0.0000 0.0000 0.0000 35.3046
#
#
#
# Elastic Compliance Matrix: (Units=1/GPa)
#
#
# Indices 1 2 3 4 5 6 
#
# 1 0.038378 -0.009569 0.000025 0.000000 0.000000 0.000000
# 2 -0.009569 0.038378 0.000025 0.000000 0.000000 0.000000
# 3 0.000025 0.000025 0.008247 0.000000 0.000000 0.000000
# 4 0.000000 0.000000 0.000000 -0.032802 0.000000 0.000000
# 5 0.000000 0.000000 0.000000 0.000000 -0.032802 0.000000
# 6 0.000000 0.000000 0.000000 0.000000 0.000000 0.028325
#
#
# Mechanical properties :
#
#
# Convention : Reuss Voigt Hill
#
# Bulk Modulus (GPa) = 15.15948 21.13937 18.14943
# Shear Modulus (GPa) = 56.33671 6.20657 31.27164
#
# Velocity S-wave (km/s) = 4.96457 1.64783 3.69880
# Velocity P-wave (km/s) = 6.28449 3.58731 5.11681
#
# Compressibility (1/GPa) = 0.06596532
#
# Stress axis : x y z
#
# Youngs Moduli (GPa) = 26.05632 26.05632 121.24945
#
# Poissons Ratio (x) = 0.24934 -0.00301
# Poissons Ratio (y) = 0.24934 -0.00301
# Poissons Ratio (z) = -0.00065 -0.00065
#
# Static dielectric constant tensor:
#      x y z
#    x 1.859750 0.000000 0.000000 
#    y 0.000000 1.859750 0.000000 
#    z 0.000000 0.000000 2.309500 
# 
# From -- ./inp_files/4913.got.cif
#   From: 2010.05.17/outbox.cif.g08.bks.cpg/sg124_3_cif.got.tgz:4913.got - 2010.05.20 11:49:17.
