data_PCOD9562404
_publ_section_title
;
Structure prediction by ZEFSAII (Michael W. Deem and Ramdas Pophale) SiO2 
 PCOD9562404
Probable space group: P 4/M C C
;
_chemical_formula_sum "Si O2"
_cell_formula_units_Z 56
_cell_length_a 17.115517
_cell_length_b 17.115517
_cell_length_c 7.669361
_cell_angle_alpha 90.000000
_cell_angle_beta 90.000000
_cell_angle_gamma 90.000000
_cell_volume 2246.669684
_symmetry_space_group_name_H-M "P 4/M C C"
_symmetry_group_IT_number 124
_symmetry_cell_setting 'tetragonal'
loop_
_space_group_symop_operation_xyz
x,y,z
-y,x,z
-x,-y,z
y,-x,z
x,-y,1/2-z
-x,y,1/2-z
y,x,1/2-z
-y,-x,1/2-z
-x,-y,-z
y,-x,-z
x,y,-z
-y,x,-z
-x,y,1/2+z
x,-y,1/2+z
-y,-x,1/2+z
y,x,1/2+z
loop_
_atom_site_type_symbol
_atom_site_label
_atom_site_fract_x
_atom_site_fract_y
_atom_site_fract_z
Si Si1 0.081867 0.206473 0.296027
Si Si2 0.617679 0.737922 0.211667
Si Si3 0.624563 0.545534 0.000000
Si Si4 0.086039 0.619059 0.790803
O O1 0.153900 0.153900 0.250000
O O2 0.083433 0.219358 0.500000
O O3 0.082696 0.292579 0.215717
O O4 0.000000 0.166910 0.250000
O O5 0.707036 0.707036 0.250000
O O6 0.678300 0.570368 0.163761
O O7 0.594523 0.826437 0.266310
O O8 0.608519 0.735085 0.000000
O O9 0.543044 0.593496 0.000000
O O10 0.000000 0.584731 0.750000
O O11 0.089952 0.616793 0.000000
#
# Coordination Sequence:
#
# PCOD9562404 Si02
#       4
#    16  16   8  16
#     4  10  19  32  47  73 112 165 225 284 351 428
#     4  11  23  44  70 109 153 202 260 320 388 469
#     4  11  28  52  78 112 154 204 260 319 398 477
#     4   9  20  35  61  99 140 188 245 304 373 446
#
# _framework density 24.925782000000002
#
# number of rings (size 3 to 8) (size 9 to 14) (size 15 to 20)
#    0.000    1.857    1.429    1.714    2.000    3.714 
#    0.000    4.286    0.000    0.000    0.000    6.000 
#    0.000    0.000    0.000    0.000    0.000    0.000 
#
# Total GULP energy -312463.874013 kJ/mol
# GULP energy per Si atom -5579.712036 kJ/mol
# Density = 2.486905 g / cm^3
# Si number density = 24.925782 Si / 1000 Ang^3
#
#
#
# Elastic Constant Matrix: (Units=GPa)
#
#
# Indices 1 2 3 4 5 6 
#
# 1 206.4544 81.7013 49.4275 0.0000 0.0000 0.0000
# 2 81.7013 206.4544 49.4275 0.0000 0.0000 0.0000
# 3 49.4275 49.4275 139.3646 0.0000 0.0000 0.0000
# 4 0.0000 0.0000 0.0000 28.9503 0.0000 0.0000
# 5 0.0000 0.0000 0.0000 0.0000 28.9503 0.0000
# 6 0.0000 0.0000 0.0000 0.0000 0.0000 -7.4740
#
#
#
# Elastic Compliance Matrix: (Units=1/GPa)
#
#
# Indices 1 2 3 4 5 6 
#
# 1 0.005983 -0.002032 -0.001401 0.000000 0.000000 0.000000
# 2 -0.002032 0.005983 -0.001401 0.000000 0.000000 0.000000
# 3 -0.001401 -0.001401 0.008169 0.000000 0.000000 0.000000
# 4 0.000000 0.000000 0.000000 0.034542 0.000000 0.000000
# 5 0.000000 0.000000 0.000000 0.000000 0.034542 0.000000
# 6 0.000000 0.000000 0.000000 0.000000 0.000000 -0.133798
#
#
# Mechanical properties :
#
#
# Convention : Reuss Voigt Hill
#
# Bulk Modulus (GPa) = 95.54429 101.48734 98.51581
# Shear Modulus (GPa) = -159.13995 34.86646 -62.13674
#
# Velocity S-wave (km/s) = -7.99901 3.74413 -4.99828
# Velocity P-wave (km/s) = 6.84817 7.71333 2.50979
#
# Compressibility (1/GPa) = 0.01046635
#
# Stress axis : x y z
#
# Youngs Moduli (GPa) = 167.12746 167.12746 122.40793
#
# Poissons Ratio (x) = 0.33967 0.17153
# Poissons Ratio (y) = 0.33967 0.17153
# Poissons Ratio (z) = 0.23420 0.23420
#
# Static dielectric constant tensor:
#      x y z
#    x 2.052080 0.000000 0.000000 
#    y 0.000000 2.052080 0.000000 
#    z 0.000000 0.000000 1.960610 
# 
# From -- ./inp_files/625.got.cif
#   From: 2010.05.17/outbox.cif.g08.bks.cpg/sg124_1_cif.got.tgz:625.got - 2010.05.20 11:49:17.
