data_PCOD9562255
_publ_section_title
;
Structure prediction by ZEFSAII (Michael W. Deem and Ramdas Pophale) SiO2 
 PCOD9562255
Probable space group: P 4/M M M
;
_chemical_formula_sum "Si O2"
_cell_formula_units_Z 112
_cell_length_a 27.075652
_cell_length_b 27.075652
_cell_length_c 7.305843
_cell_angle_alpha 90.000000
_cell_angle_beta 90.000000
_cell_angle_gamma 90.000000
_cell_volume 5355.847248
_symmetry_space_group_name_H-M "P 4/M M M"
_symmetry_group_IT_number 123
_symmetry_cell_setting 'tetragonal'
loop_
_space_group_symop_operation_xyz
x,y,z
-y,x,z
-x,-y,z
y,-x,z
x,-y,-z
-x,y,-z
y,x,-z
-y,-x,-z
-x,-y,-z
y,-x,-z
x,y,-z
-y,x,-z
-x,y,z
x,-y,z
-y,-x,z
y,x,z
loop_
_atom_site_type_symbol
_atom_site_label
_atom_site_fract_x
_atom_site_fract_y
_atom_site_fract_z
Si Si1 0.445508 0.850674 0.722991
Si Si2 0.582679 0.259745 0.722017
Si Si3 0.056865 0.136436 0.217586
Si Si4 0.632811 0.553771 0.276802
Si Si5 0.337575 0.122973 0.723257
Si Si6 0.690688 0.232507 0.722124
Si Si7 0.055875 0.247858 0.280670
O O1 0.445163 0.851263 0.500000
O O2 0.500000 0.868354 0.780685
O O3 0.439018 0.793152 0.779623
O O4 0.395271 0.878901 0.780539
O O5 0.579397 0.258882 0.500000
O O6 0.558629 0.310435 0.783545
O O7 0.640390 0.260491 0.771601
O O8 0.094962 0.094962 0.288091
O O9 0.075934 0.192652 0.244610
O O10 0.000000 0.133139 0.288523
O O11 0.053660 0.129302 0.000000
O O12 0.633687 0.555770 0.500000
O O13 0.613263 0.500000 0.224826
O O14 0.598281 0.598281 0.215051
O O15 0.338559 0.121593 0.500000
O O16 0.316842 0.176427 0.779312
O O17 0.296469 0.084228 0.785630
O O18 0.692392 0.231763 0.500000
O O19 0.738508 0.261493 0.787072
O O20 0.054603 0.252072 0.500000
O O21 0.000000 0.247770 0.210641
#
# Coordination Sequence:
#
# PCOD9562255 Si02
#       7
#    16  16  16  16  16  16  16
#     4   8  12  18  29  44  63  87 115 150 192 238
#     4   8  12  17  24  33  45  64  92 125 165 215
#     4   9  18  32  49  69  92 117 146 180 215 249
#     4   9  15  19  21  24  31  47  75 113 157 204
#     4   8  14  22  32  49  71  97 129 162 199 242
#     4   8  12  17  25  38  57  78 101 134 176 222
#     4   9  17  29  44  61  84 115 147 176 206 244
#
# _framework density 20.911722999999999
#
# number of rings (size 3 to 8) (size 9 to 14) (size 15 to 20)
#    0.000    3.571    0.000    2.571    0.000    4.571 
#    0.000    2.857    0.000    0.429    0.000    5.000 
#    0.000    0.571    0.000    3.571    0.000    3.714 
#
# Total GULP energy -624181.459078 kJ/mol
# GULP energy per Si atom -5573.048742 kJ/mol
# Density = 2.086413 g / cm^3
# Si number density = 20.911723 Si / 1000 Ang^3
#
#
#
# Elastic Constant Matrix: (Units=GPa)
#
#
# Indices 1 2 3 4 5 6 
#
# 1 115.6118 90.1519 2.9104 0.0000 0.0000 0.0000
# 2 90.1519 115.6118 2.9104 0.0000 0.0000 0.0000
# 3 2.9104 2.9104 85.5466 0.0000 0.0000 0.0000
# 4 0.0000 0.0000 0.0000 2.6791 0.0000 0.0000
# 5 0.0000 0.0000 0.0000 0.0000 2.6791 0.0000
# 6 0.0000 0.0000 0.0000 0.0000 0.0000 26.6501
#
#
#
# Elastic Compliance Matrix: (Units=1/GPa)
#
#
# Indices 1 2 3 4 5 6 
#
# 1 0.022071 -0.017206 -0.000166 0.000000 0.000000 0.000000
# 2 -0.017206 0.022071 -0.000166 0.000000 0.000000 0.000000
# 3 -0.000166 -0.000166 0.011701 0.000000 0.000000 0.000000
# 4 0.000000 0.000000 0.000000 0.373264 0.000000 0.000000
# 5 0.000000 0.000000 0.000000 0.000000 0.373264 0.000000
# 6 0.000000 0.000000 0.000000 0.000000 0.000000 0.037523
#
#
# Mechanical properties :
#
#
# Convention : Reuss Voigt Hill
#
# Bulk Modulus (GPa) = 48.15089 56.52396 52.33743
# Shear Modulus (GPa) = 5.66963 21.12147 13.39555
#
# Velocity S-wave (km/s) = 1.64836 3.18155 2.53371
# Velocity P-wave (km/s) = 5.16707 6.37062 5.80014
#
# Compressibility (1/GPa) = 0.02076805
#
# Stress axis : x y z
#
# Youngs Moduli (GPa) = 45.30812 45.30812 85.46423
#
# Poissons Ratio (x) = 0.77959 0.01414
# Poissons Ratio (y) = 0.77959 0.01414
# Poissons Ratio (z) = 0.00750 0.00750
#
# Static dielectric constant tensor:
#      x y z
#    x 1.740310 0.000000 0.000000 
#    y 0.000000 1.740310 0.000000 
#    z 0.000000 0.000000 1.034030 
# 
# From -- ./inp_files/3391.got.cif
#   From: 2010.05.17/outbox.cif.g08.bks.cpg/sg123_2_cif.got.tgz:3391.got - 2010.05.20 11:43:04.
