data_PCOD9562702
_publ_section_title
;
Structure prediction by ZEFSAII (Michael W. Deem and Ramdas Pophale) SiO2 
 PCOD9562702
Probable space group: P 4/M C C
;
_chemical_formula_sum "Si O2"
_cell_formula_units_Z 88
_cell_length_a 13.811714
_cell_length_b 13.811714
_cell_length_c 22.186450
_cell_angle_alpha 90.000000
_cell_angle_beta 90.000000
_cell_angle_gamma 90.000000
_cell_volume 4232.363604
_symmetry_space_group_name_H-M "P 4/M C C"
_symmetry_group_IT_number 124
_symmetry_cell_setting 'tetragonal'
loop_
_space_group_symop_operation_xyz
x,y,z
-y,x,z
-x,-y,z
y,-x,z
x,-y,1/2-z
-x,y,1/2-z
y,x,1/2-z
-y,-x,1/2-z
-x,-y,-z
y,-x,-z
x,y,-z
-y,x,-z
-x,y,1/2+z
x,-y,1/2+z
-y,-x,1/2+z
y,x,1/2+z
loop_
_atom_site_type_symbol
_atom_site_label
_atom_site_fract_x
_atom_site_fract_y
_atom_site_fract_z
Si Si1 0.113053 0.483686 0.429308
Si Si2 0.500000 0.772627 0.250000
Si Si3 0.065433 0.851651 0.063822
Si Si4 0.781624 0.654385 0.664956
Si Si5 0.033295 0.244548 0.687536
Si Si6 0.354470 0.160450 0.650218
O O1 0.115137 0.463149 0.500000
O O2 0.170540 0.400688 0.392288
O O3 0.159357 0.587091 0.412378
O O4 0.000000 0.500000 0.410813
O O5 0.420774 0.722796 0.292949
O O6 0.561023 0.831435 0.299727
O O7 0.078161 0.810513 0.130315
O O8 0.122575 0.952060 0.061896
O O9 0.087919 0.798474 0.000000
O O10 0.715605 0.747155 0.652916
O O11 0.876677 0.686318 0.703127
O O12 0.939163 0.298054 0.661582
O O13 0.000000 0.194195 0.750000
#
# Coordination Sequence:
#
# PCOD9562702 Si02
#       6
#    16   8  16  16  16  16
#     4  10  22  42  67  96 131 173 225 285 336 392
#     4  10  22  39  62  87 128 164 216 263 322 397
#     4   9  20  38  54  72 112 173 227 265 312 382
#     4  11  23  39  64  96 131 174 218 269 335 402
#     4  12  23  35  60  94 136 164 211 275 336 392
#     4  11  23  39  64  96 131 174 218 269 335 402
#
# _framework density 20.792165000000001
#
# number of rings (size 3 to 8) (size 9 to 14) (size 15 to 20)
#    0.000    1.455    3.636    2.182    0.000    5.091 
#    0.000    0.909    0.000   22.364    0.000    5.091 
#    0.000    0.000    0.000    0.000    0.000    0.000 
#
# Total GULP energy -490215.279286 kJ/mol
# GULP energy per Si atom -5570.628174 kJ/mol
# Density = 2.074484 g / cm^3
# Si number density = 20.792165 Si / 1000 Ang^3
#
#
#
# Elastic Constant Matrix: (Units=GPa)
#
#
# Indices 1 2 3 4 5 6 
#
# 1 81.4182 34.6707 14.9413 0.0000 0.0000 0.0000
# 2 34.6707 81.4182 14.9413 0.0000 0.0000 0.0000
# 3 14.9413 14.9413 113.7864 0.0000 0.0000 0.0000
# 4 0.0000 0.0000 0.0000 25.7071 0.0000 0.0000
# 5 0.0000 0.0000 0.0000 0.0000 25.7071 0.0000
# 6 0.0000 0.0000 0.0000 0.0000 0.0000 16.8110
#
#
#
# Elastic Compliance Matrix: (Units=1/GPa)
#
#
# Indices 1 2 3 4 5 6 
#
# 1 0.015153 -0.006238 -0.001171 0.000000 0.000000 0.000000
# 2 -0.006238 0.015153 -0.001171 0.000000 0.000000 0.000000
# 3 -0.001171 -0.001171 0.009096 0.000000 0.000000 0.000000
# 4 0.000000 0.000000 0.000000 0.038900 0.000000 0.000000
# 5 0.000000 0.000000 0.000000 0.000000 0.038900 0.000000
# 6 0.000000 0.000000 0.000000 0.000000 0.000000 0.059485
#
#
# Mechanical properties :
#
#
# Convention : Reuss Voigt Hill
#
# Bulk Modulus (GPa) = 44.95600 45.08103 45.01851
# Shear Modulus (GPa) = 24.84339 27.78300 26.31320
#
# Velocity S-wave (km/s) = 3.46040 3.65941 3.56129
# Velocity P-wave (km/s) = 6.13469 6.29157 6.21362
#
# Compressibility (1/GPa) = 0.02224397
#
# Stress axis : x y z
#
# Youngs Moduli (GPa) = 65.99140 65.99140 109.94038
#
# Poissons Ratio (x) = 0.41166 0.12871
# Poissons Ratio (y) = 0.41166 0.12871
# Poissons Ratio (z) = 0.07725 0.07725
#
# Static dielectric constant tensor:
#      x y z
#    x 1.772570 0.000000 0.000000 
#    y 0.000000 1.772570 0.000000 
#    z 0.000000 0.000000 1.859210 
# 
# From -- ./inp_files/5208.got.cif
#   From: 2010.05.17/outbox.cif.g08.bks.cpg/sg124_3_cif.got.tgz:5208.got - 2010.05.20 11:49:17.
