data_PCOD9562561
_publ_section_title
;
Structure prediction by ZEFSAII (Michael W. Deem and Ramdas Pophale) SiO2 
 PCOD9562561
Probable space group: P 4/M C C
;
_chemical_formula_sum "Si O2"
_cell_formula_units_Z 96
_cell_length_a 25.909095
_cell_length_b 25.909095
_cell_length_c 8.895938
_cell_angle_alpha 90.000000
_cell_angle_beta 90.000000
_cell_angle_gamma 90.000000
_cell_volume 5971.675969
_symmetry_space_group_name_H-M "P 4/M C C"
_symmetry_group_IT_number 124
_symmetry_cell_setting 'tetragonal'
loop_
_space_group_symop_operation_xyz
x,y,z
-y,x,z
-x,-y,z
y,-x,z
x,-y,1/2-z
-x,y,1/2-z
y,x,1/2-z
-y,-x,1/2-z
-x,-y,-z
y,-x,-z
x,y,-z
-y,x,-z
-x,y,1/2+z
x,-y,1/2+z
-y,-x,1/2+z
y,x,1/2+z
loop_
_atom_site_type_symbol
_atom_site_label
_atom_site_fract_x
_atom_site_fract_y
_atom_site_fract_z
Si Si1 0.335033 0.143172 0.683424
Si Si2 0.337566 0.257047 0.180251
Si Si3 0.255042 0.945229 0.819862
Si Si4 0.551898 0.133753 0.829019
Si Si5 0.055345 0.865131 0.319541
Si Si6 0.740712 0.553134 0.173479
O O1 0.336393 0.149093 0.500000
O O2 0.327595 0.199351 0.755892
O O3 0.291081 0.102437 0.724833
O O4 0.391278 0.121792 0.732994
O O5 0.296097 0.296097 0.250000
O O6 0.395072 0.272430 0.236030
O O7 0.335185 0.256996 0.000000
O O8 0.195116 0.935722 0.780423
O O9 0.270759 0.000000 0.750000
O O10 0.258057 0.949711 0.000000
O O11 0.500000 0.115415 0.750000
O O12 0.550771 0.196518 0.827939
O O13 0.550166 0.115912 0.000000
O O14 0.099220 0.900781 0.250000
O O15 0.054069 0.869991 0.500000
O O16 0.000000 0.879711 0.250000
O O17 0.722645 0.500000 0.250000
O O18 0.723996 0.556816 0.000000
#
# Coordination Sequence:
#
# PCOD9562561 Si02
#       6
#    16  16  16  16  16  16
#     4   9  18  33  49  68  94 126 160 198 243 290
#     4  11  21  32  46  68  99 133 165 202 246 293
#     4   9  19  35  54  73  96 124 158 197 237 281
#     4   8  14  24  41  63  89 117 150 191 234 277
#     4  10  20  35  54  76  99 123 150 185 227 276
#     4   9  16  28  45  66  92 125 163 201 240 288
#
# _framework density 16.075889
#
# number of rings (size 3 to 8) (size 9 to 14) (size 15 to 20)
#    0.000    2.667    0.000    3.500    0.000    6.167 
#    0.000    2.500    0.000    0.500    0.000    3.500 
#    0.000    0.333    0.000    3.333    0.000    2.167 
#
# Total GULP energy -534872.380326 kJ/mol
# GULP energy per Si atom -5571.587295 kJ/mol
# Density = 1.603930 g / cm^3
# Si number density = 16.075889 Si / 1000 Ang^3
#
#
#
# Elastic Constant Matrix: (Units=GPa)
#
#
# Indices 1 2 3 4 5 6 
#
# 1 100.3470 79.6026 48.1085 0.0000 0.0000 0.0000
# 2 79.6026 100.3552 48.1092 0.0000 0.0000 0.0000
# 3 48.1085 48.1092 75.9703 0.0000 0.0000 0.0000
# 4 0.0000 0.0000 0.0000 23.0825 0.0000 0.0000
# 5 0.0000 0.0000 0.0000 0.0000 23.0827 0.0000
# 6 0.0000 0.0000 0.0000 0.0000 0.0000 -4.4547
#
#
#
# Elastic Compliance Matrix: (Units=1/GPa)
#
#
# Indices 1 2 3 4 5 6 
#
# 1 0.028300 -0.019897 -0.005321 0.000000 0.000000 0.000000
# 2 -0.019897 0.028298 -0.005320 0.000000 0.000000 0.000000
# 3 -0.005321 -0.005320 0.019902 0.000000 0.000000 0.000000
# 4 0.000000 0.000000 0.000000 0.043323 0.000000 0.000000
# 5 0.000000 0.000000 0.000000 0.000000 0.043323 0.000000
# 6 0.000000 0.000000 0.000000 0.000000 0.000000 -0.224483
#
#
# Mechanical properties :
#
#
# Convention : Reuss Voigt Hill
#
# Bulk Modulus (GPa) = 64.83783 69.81257 67.32520
# Shear Modulus (GPa) = 1024.72714 15.06557 519.89636
#
# Velocity S-wave (km/s) = 25.27479 3.06462 18.00287
# Velocity P-wave (km/s) = 29.86927 7.48623 21.77403
#
# Compressibility (1/GPa) = 0.01542310
#
# Stress axis : x y z
#
# Youngs Moduli (GPa) = 35.33508 35.33880 50.24744
#
# Poissons Ratio (x) = 0.70315 0.26738
# Poissons Ratio (y) = 0.70307 0.26730
# Poissons Ratio (z) = 0.18802 0.18799
#
# Static dielectric constant tensor:
#      x y z
#    x 1.530910 0.000000 0.000000 
#    y 0.000000 1.530910 0.000000 
#    z 0.000000 0.000000 1.548510 
# 
# From -- ./inp_files/1370.got.cif
#   From: 2010.05.17/outbox.cif.g08.bks.cpg/sg124_1_cif.got.tgz:1370.got - 2010.05.20 11:49:17.
