data_PCOD9562216
_publ_section_title
;
Structure prediction by ZEFSAII (Michael W. Deem and Ramdas Pophale) SiO2 
 PCOD9562216
Probable space group: P 4/M M M
;
_chemical_formula_sum "Si O2"
_cell_formula_units_Z 96
_cell_length_a 24.996231
_cell_length_b 24.996231
_cell_length_c 8.009510
_cell_angle_alpha 90.000000
_cell_angle_beta 90.000000
_cell_angle_gamma 90.000000
_cell_volume 5004.434472
_symmetry_space_group_name_H-M "P 4/M M M"
_symmetry_group_IT_number 123
_symmetry_cell_setting 'tetragonal'
loop_
_space_group_symop_operation_xyz
x,y,z
-y,x,z
-x,-y,z
y,-x,z
x,-y,-z
-x,y,-z
y,x,-z
-y,-x,-z
-x,-y,-z
y,-x,-z
x,y,-z
-y,x,-z
-x,y,z
x,-y,z
-y,-x,z
y,x,z
loop_
_atom_site_type_symbol
_atom_site_label
_atom_site_fract_x
_atom_site_fract_y
_atom_site_fract_z
Si Si1 0.232222 0.560028 0.204094
Si Si2 0.440597 0.937441 0.298601
Si Si3 0.768265 0.853969 0.301773
Si Si4 0.146668 0.939242 0.200270
Si Si5 0.852489 0.354740 0.802903
Si Si6 0.440217 0.644892 0.203814
O O1 0.215814 0.500000 0.257528
O O2 0.194942 0.607581 0.266559
O O3 0.293719 0.568346 0.253348
O O4 0.230237 0.560009 0.000000
O O5 0.439751 0.933370 0.500000
O O6 0.500000 0.918595 0.241427
O O7 0.390732 0.904726 0.229799
O O8 0.436457 0.000000 0.255410
O O9 0.773634 0.854936 0.500000
O O10 0.802034 0.802034 0.238680
O O11 0.799315 0.906159 0.235389
O O12 0.705520 0.853602 0.262699
O O13 0.097640 0.902361 0.264555
O O14 0.147141 0.000000 0.265162
O O15 0.141051 0.942116 0.000000
O O16 0.844696 0.349963 0.000000
O O17 0.500000 0.628628 0.254587
O O18 0.395163 0.604838 0.264878
O O19 0.439222 0.644304 0.000000
#
# Coordination Sequence:
#
# PCOD9562216 Si02
#       6
#    16  16  16  16  16  16
#     4   8  15  27  41  61  91 123 155 196 247 298
#     4   9  19  36  55  75 103 138 172 207 250 302
#     4  10  22  39  55  72 100 138 176 214 257 304
#     4   9  18  34  57  84 112 139 167 202 244 290
#     4  11  21  32  52  78 100 127 168 216 261 308
#     4   8  13  21  33  51  79 115 152 189 230 278
#
# _framework density 19.182987000000001
#
# number of rings (size 3 to 8) (size 9 to 14) (size 15 to 20)
#    0.000    2.833    0.000    3.000    0.000    4.333 
#    0.000    4.167    0.000    0.000    0.000    2.333 
#    0.000    0.000    0.000    0.000    0.000    0.500 
#
# Total GULP energy -535231.443847 kJ/mol
# GULP energy per Si atom -5575.327540 kJ/mol
# Density = 1.913933 g / cm^3
# Si number density = 19.182987 Si / 1000 Ang^3
#
#
#
# Elastic Constant Matrix: (Units=GPa)
#
#
# Indices 1 2 3 4 5 6 
#
# 1 155.5623 100.2520 7.6459 0.0000 0.0000 0.0000
# 2 100.2520 155.5623 7.6459 0.0000 0.0000 0.0000
# 3 7.6459 7.6459 16.4899 0.0000 0.0000 0.0000
# 4 0.0000 0.0000 0.0000 6.1297 0.0000 0.0000
# 5 0.0000 0.0000 0.0000 0.0000 6.1297 0.0000
# 6 0.0000 0.0000 0.0000 0.0000 0.0000 31.5071
#
#
#
# Elastic Compliance Matrix: (Units=1/GPa)
#
#
# Indices 1 2 3 4 5 6 
#
# 1 0.011050 -0.007030 -0.001864 0.000000 0.000000 0.000000
# 2 -0.007030 0.011050 -0.001864 0.000000 0.000000 0.000000
# 3 -0.001864 -0.001864 0.062372 0.000000 0.000000 0.000000
# 4 0.000000 0.000000 0.000000 0.163141 0.000000 0.000000
# 5 0.000000 0.000000 0.000000 0.000000 0.163141 0.000000
# 6 0.000000 0.000000 0.000000 0.000000 0.000000 0.031739
#
#
# Mechanical properties :
#
#
# Convention : Reuss Voigt Hill
#
# Bulk Modulus (GPa) = 15.88409 62.07801 38.98105
# Shear Modulus (GPa) = 10.30939 22.89134 16.60037
#
# Velocity S-wave (km/s) = 2.32076 3.45819 2.94491
# Velocity P-wave (km/s) = 3.93440 6.95533 5.65049
#
# Compressibility (1/GPa) = 0.06295607
#
# Stress axis : x y z
#
# Youngs Moduli (GPa) = 90.49631 90.49631 16.03288
#
# Poissons Ratio (x) = 0.63616 0.02989
# Poissons Ratio (y) = 0.63616 0.02989
# Poissons Ratio (z) = 0.16870 0.16870
#
# Static dielectric constant tensor:
#      x y z
#    x 1.671240 0.000000 0.000000 
#    y 0.000000 1.671240 0.000000 
#    z 0.000000 0.000000 1.682480 
# 
# From -- ./inp_files/1618.got.cif
#   From: 2010.05.17/outbox.cif.g08.bks.cpg/sg123_1_cif.got.tgz:1618.got - 2010.05.20 11:43:04.
