data_PCOD9562630
_publ_section_title
;
Structure prediction by ZEFSAII (Michael W. Deem and Ramdas Pophale) SiO2 
 PCOD9562630
Probable space group: P 4/M C C
;
_chemical_formula_sum "Si O2"
_cell_formula_units_Z 96
_cell_length_a 23.243455
_cell_length_b 23.243455
_cell_length_c 9.640694
_cell_angle_alpha 90.000000
_cell_angle_beta 90.000000
_cell_angle_gamma 90.000000
_cell_volume 5208.463990
_symmetry_space_group_name_H-M "P 4/M C C"
_symmetry_group_IT_number 124
_symmetry_cell_setting 'tetragonal'
loop_
_space_group_symop_operation_xyz
x,y,z
-y,x,z
-x,-y,z
y,-x,z
x,-y,1/2-z
-x,y,1/2-z
y,x,1/2-z
-y,-x,1/2-z
-x,-y,-z
y,-x,-z
x,y,-z
-y,x,-z
-x,y,1/2+z
x,-y,1/2+z
-y,-x,1/2+z
y,x,1/2+z
loop_
_atom_site_type_symbol
_atom_site_label
_atom_site_fract_x
_atom_site_fract_y
_atom_site_fract_z
Si Si1 0.271592 0.943431 0.660961
Si Si2 0.432311 0.338830 0.500000
Si Si3 0.724782 0.629343 0.754190
Si Si4 0.056687 0.443099 0.835644
Si Si5 0.943929 0.866792 0.661210
Si Si6 0.146462 0.660144 0.662978
Si Si7 0.568657 0.333331 0.500000
O O1 0.291894 0.946697 0.500000
O O2 0.202360 0.942272 0.658147
O O3 0.294431 0.887463 0.741548
O O4 0.288292 0.000000 0.750000
O O5 0.409783 0.300995 0.625730
O O6 0.500765 0.345101 0.500000
O O7 0.394581 0.397495 0.500000
O O8 0.688497 0.688497 0.750000
O O9 0.790943 0.644477 0.778347
O O10 0.705593 0.591653 0.624591
O O11 0.074477 0.500000 0.750000
O O12 0.106231 0.396055 0.830725
O O13 0.000000 0.423665 0.750000
O O14 0.044697 0.453541 0.000000
O O15 0.891210 0.891210 0.750000
O O16 0.944854 0.886527 0.500000
O O17 0.000000 0.884581 0.750000
O O18 0.150752 0.677804 0.500000
#
# Coordination Sequence:
#
# PCOD9562630 Si02
#       7
#    16   8  16  16  16  16   8
#     4  10  22  39  61  88 119 156 203 254 306 357
#     4  10  20  41  62  90 125 157 199 243 300 356
#     4  10  22  41  59  86 123 161 197 245 304 359
#     4  10  21  37  56  80 113 149 185 236 288 335
#     4  10  21  38  59  87 120 156 198 248 302 361
#     4  11  23  39  59  85 115 154 200 245 295 356
#     4  10  22  37  66  90 121 161 195 247 298 358
#
# _framework density 18.431538
#
# number of rings (size 3 to 8) (size 9 to 14) (size 15 to 20)
#    0.000    1.833    0.833    3.000    1.167    7.000 
#    0.000    2.500    0.000    3.000    0.000    0.000 
#    0.000    0.000    0.000    0.000    0.000    0.000 
#
# Total GULP energy -535277.284447 kJ/mol
# GULP energy per Si atom -5575.805046 kJ/mol
# Density = 1.838959 g / cm^3
# Si number density = 18.431538 Si / 1000 Ang^3
#
#
#
# Elastic Constant Matrix: (Units=GPa)
#
#
# Indices 1 2 3 4 5 6 
#
# 1 78.2010 10.7626 50.0068 0.0000 0.0000 0.0000
# 2 10.7626 78.2010 50.0068 0.0000 0.0000 0.0000
# 3 50.0068 50.0068 194.4775 0.0000 0.0000 0.0000
# 4 0.0000 0.0000 0.0000 31.7448 0.0000 0.0000
# 5 0.0000 0.0000 0.0000 0.0000 31.7448 0.0000
# 6 0.0000 0.0000 0.0000 0.0000 0.0000 50.8145
#
#
#
# Elastic Compliance Matrix: (Units=1/GPa)
#
#
# Indices 1 2 3 4 5 6 
#
# 1 0.015320 0.000491 -0.004066 0.000000 0.000000 0.000000
# 2 0.000491 0.015320 -0.004066 0.000000 0.000000 0.000000
# 3 -0.004066 -0.004066 0.007233 0.000000 0.000000 0.000000
# 4 0.000000 0.000000 0.000000 0.031501 0.000000 0.000000
# 5 0.000000 0.000000 0.000000 0.000000 0.031501 0.000000
# 6 0.000000 0.000000 0.000000 0.000000 0.000000 0.019679
#
#
# Mechanical properties :
#
#
# Convention : Reuss Voigt Hill
#
# Bulk Modulus (GPa) = 44.26216 63.60354 53.93285
# Shear Modulus (GPa) = 34.87616 38.86773 36.87195
#
# Velocity S-wave (km/s) = 4.35466 4.59711 4.47753
# Velocity P-wave (km/s) = 7.02500 7.92217 7.48703
#
# Compressibility (1/GPa) = 0.02259266
#
# Stress axis : x y z
#
# Youngs Moduli (GPa) = 65.27539 65.27539 138.25958
#
# Poissons Ratio (x) = -0.03207 0.56210
# Poissons Ratio (y) = -0.03207 0.56210
# Poissons Ratio (z) = 0.26538 0.26538
#
# Static dielectric constant tensor:
#      x y z
#    x 1.619640 0.000000 0.000000 
#    y 0.000000 1.619640 0.000000 
#    z 0.000000 0.000000 1.620230 
# 
# From -- ./inp_files/1426.got.cif
#   From: 2010.05.17/outbox.cif.g08.bks.cpg/sg124_1_cif.got.tgz:1426.got - 2010.05.20 11:49:17.
