data_PCOD9562978
_publ_section_title
;
Structure prediction by ZEFSAII (Michael W. Deem and Ramdas Pophale) SiO2 
 PCOD9562978
Probable space group: P 4/N B M
;
_chemical_formula_sum "Si O2"
_cell_formula_units_Z 48
_cell_length_a 10.950032
_cell_length_b 10.950032
_cell_length_c 16.126966
_cell_angle_alpha 90.000000
_cell_angle_beta 90.000000
_cell_angle_gamma 90.000000
_cell_volume 1933.674843
_symmetry_space_group_name_H-M "P 4/N B M"
_symmetry_group_IT_number 125
_space_group.IT_coordinate_system_code '2'
_symmetry_cell_setting 'tetragonal'
loop_
_space_group_symop_operation_xyz
x,y,z
1/2-y,x,z
1/2-x,1/2-y,z
y,1/2-x,z
x,1/2-y,-z
1/2-x,y,-z
y,x,-z
1/2-y,1/2-x,-z
-x,-y,-z
1/2+y,-x,-z
1/2+x,1/2+y,-z
-y,1/2+x,-z
-x,1/2+y,z
1/2+x,-y,z
-y,-x,z
1/2+y,1/2+x,z
loop_
_atom_site_type_symbol
_atom_site_label
_atom_site_fract_x
_atom_site_fract_y
_atom_site_fract_z
Si Si1 0.457252 0.746152 0.410994
Si Si2 0.043175 0.755212 0.768990
Si Si3 0.331014 0.025109 0.936478
O O1 0.523004 0.750000 0.500000
O O2 0.378732 0.621269 0.410727
O O3 0.355588 0.855588 0.411281
O O4 0.519224 0.754382 0.321362
O O5 0.120047 0.879954 0.777795
O O6 0.147242 0.647242 0.768311
O O7 0.959966 0.735886 0.849209
O O8 0.455023 0.955023 0.915960
O O9 0.250000 0.945610 0.000000
O O10 0.369805 0.130196 0.000000
#
# Coordination Sequence:
#
# PCOD9562978 Si02
#       3
#    16  16  16
#     4   7   9  14  27  51  82 110 136 171 216 263
#     4   8  13  22  38  60  85 113 145 182 224 267
#     4  10  20  32  46  65  88 116 150 186 225 267
#
# _framework density 24.823201999999998
#
# number of rings (size 3 to 8) (size 9 to 14) (size 15 to 20)
#    0.000    3.667    0.000    4.000    0.000    2.000 
#    0.000    0.000    0.000    0.000    0.000    2.333 
#    0.000   16.000    0.000    3.000    0.000    7.667 
#
# Total GULP energy -267289.059041 kJ/mol
# GULP energy per Si atom -5568.522063 kJ/mol
# Density = 2.476670 g / cm^3
# Si number density = 24.823202 Si / 1000 Ang^3
#
#
#
# Elastic Constant Matrix: (Units=GPa)
#
#
# Indices 1 2 3 4 5 6 
#
# 1 33.5896 31.7822 43.1780 0.0000 0.0000 0.0000
# 2 31.7822 33.5907 43.1773 0.0000 0.0000 0.0000
# 3 43.1780 43.1773 374.3707 0.0000 0.0000 0.0000
# 4 0.0000 0.0000 0.0000 -9.7490 0.0000 0.0000
# 5 0.0000 0.0000 0.0000 0.0000 -9.7495 0.0000
# 6 0.0000 0.0000 0.0000 0.0000 0.0000 15.6768
#
#
#
# Elastic Compliance Matrix: (Units=1/GPa)
#
#
# Indices 1 2 3 4 5 6 
#
# 1 0.285592 -0.267540 -0.002083 0.000000 0.000000 0.000000
# 2 -0.267540 0.285580 -0.002080 0.000000 0.000000 0.000000
# 3 -0.002083 -0.002080 0.003151 0.000000 0.000000 0.000000
# 4 0.000000 0.000000 0.000000 -0.102575 0.000000 0.000000
# 5 0.000000 0.000000 0.000000 0.000000 -0.102569 0.000000
# 6 0.000000 0.000000 0.000000 0.000000 0.000000 0.063788
#
#
# Mechanical properties :
#
#
# Convention : Reuss Voigt Hill
#
# Bulk Modulus (GPa) = 32.34297 75.31402 53.82850
# Shear Modulus (GPa) = 5.06750 20.79655 12.93203
#
# Velocity S-wave (km/s) = 1.43034 2.89759 2.28494
# Velocity P-wave (km/s) = 3.97309 6.44987 5.35660
#
# Compressibility (1/GPa) = 0.03091862
#
# Stress axis : x y z
#
# Youngs Moduli (GPa) = 3.50149 3.50165 317.33395
#
# Poissons Ratio (x) = 0.93683 0.66088
# Poissons Ratio (y) = 0.93679 0.66009
# Poissons Ratio (z) = 0.00729 0.00728
#
# Static dielectric constant tensor:
#      x y z
#    x 2.133320 0.000000 0.000000 
#    y 0.000000 2.133320 0.000000 
#    z 0.000000 0.000000 2.012140 
# 
# From -- ./inp_files/4508.got.cif
#   From: 2010.05.17/outbox.cif.g08.bks.cpg/sg125_3_cif.got.tgz:4508.got - 2010.05.20 11:54:10.
