data_PCOD9562162
_publ_section_title
;
Structure prediction by ZEFSAII (Michael W. Deem and Ramdas Pophale) SiO2 
 PCOD9562162
Probable space group: P 4/M M M
;
_chemical_formula_sum "Si O2"
_cell_formula_units_Z 72
_cell_length_a 13.534044
_cell_length_b 13.534044
_cell_length_c 23.669134
_cell_angle_alpha 90.000000
_cell_angle_beta 90.000000
_cell_angle_gamma 90.000000
_cell_volume 4335.483488
_symmetry_space_group_name_H-M "P 4/M M M"
_symmetry_group_IT_number 123
_symmetry_cell_setting 'tetragonal'
loop_
_space_group_symop_operation_xyz
x,y,z
-y,x,z
-x,-y,z
y,-x,z
x,-y,-z
-x,y,-z
y,x,-z
-y,-x,-z
-x,-y,-z
y,-x,-z
x,y,-z
-y,x,-z
-x,y,z
x,-y,z
-y,-x,z
y,x,z
loop_
_atom_site_type_symbol
_atom_site_label
_atom_site_fract_x
_atom_site_fract_y
_atom_site_fract_z
Si Si1 0.719549 0.116193 0.271019
Si Si2 0.216781 0.617331 0.624440
Si Si3 0.615846 0.779691 0.834019
Si Si4 0.778150 0.385176 0.500000
Si Si5 0.278372 0.884250 0.934025
O O1 0.820482 0.179519 0.271438
O O2 0.659094 0.146137 0.327141
O O3 0.657116 0.154258 0.217368
O O4 0.736419 0.000000 0.267974
O O5 0.233984 0.500000 0.631711
O O6 0.317826 0.682175 0.628289
O O7 0.173161 0.633807 0.561033
O O8 0.500000 0.763439 0.828489
O O9 0.678483 0.678483 0.832992
O O10 0.643028 0.836006 0.891923
O O11 0.751491 0.500000 0.500000
O O12 0.680776 0.319224 0.500000
O O13 0.177107 0.822894 0.925310
O O14 0.265595 0.000000 0.922114
O O15 0.306013 0.873273 0.000000
#
# Coordination Sequence:
#
# PCOD9562162 Si02
#       5
#    16  16  16   8  16
#     4  10  21  36  53  73  96 123 157 197 241 288
#     4   9  17  29  46  70  99 130 163 197 235 281
#     4  10  21  36  53  74 100 129 162 199 238 283
#     4   8  14  25  41  63  94 128 160 196 235 276
#     4   9  18  32  50  74 103 133 166 204 245 289
#
# _framework density 16.607144000000002
#
# number of rings (size 3 to 8) (size 9 to 14) (size 15 to 20)
#    0.000    2.667    0.000    1.333    0.000    4.556 
#    0.000    5.000    0.000   10.000    0.000    3.111 
#    0.000    4.444    0.000    0.000    0.000    0.000 
#
# Total GULP energy -401120.226826 kJ/mol
# GULP energy per Si atom -5571.114261 kJ/mol
# Density = 1.656935 g / cm^3
# Si number density = 16.607144 Si / 1000 Ang^3
#
#
#
# Elastic Constant Matrix: (Units=GPa)
#
#
# Indices 1 2 3 4 5 6 
#
# 1 -10.9731 179.3107 61.4835 0.0000 0.0000 0.0000
# 2 179.3107 -10.9808 61.4934 0.0000 0.0000 0.0000
# 3 61.4835 61.4934 101.1484 0.0000 0.0000 0.0000
# 4 0.0000 0.0000 0.0000 19.0899 0.0000 0.0000
# 5 0.0000 0.0000 0.0000 0.0000 19.0899 0.0000
# 6 0.0000 0.0000 0.0000 0.0000 0.0000 -2.7272
#
#
#
# Elastic Compliance Matrix: (Units=1/GPa)
#
#
# Indices 1 2 3 4 5 6 
#
# 1 0.002716 0.007971 -0.006497 0.000000 0.000000 0.000000
# 2 0.007971 0.002715 -0.006496 0.000000 0.000000 0.000000
# 3 -0.006497 -0.006496 0.017785 0.000000 0.000000 0.000000
# 4 0.000000 0.000000 0.000000 0.052384 0.000000 0.000000
# 5 0.000000 0.000000 0.000000 0.000000 0.052384 0.000000
# 6 0.000000 0.000000 0.000000 0.000000 0.000000 -0.366674
#
#
# Mechanical properties :
#
#
# Convention : Reuss Voigt Hill
#
# Bulk Modulus (GPa) = 75.91656 75.97441 75.94548
# Shear Modulus (GPa) = -22.29594 -7.78235 -15.03914
#
# Velocity S-wave (km/s) = -3.66806 -2.16710 -3.01255
# Velocity P-wave (km/s) = 5.27948 6.29171 5.80769
#
# Compressibility (1/GPa) = 0.01317236
#
# Stress axis : x y z
#
# Youngs Moduli (GPa) = 368.15837 368.30921 56.22780
#
# Poissons Ratio (x) = -2.93574 0.36531
# Poissons Ratio (y) = -2.93454 0.36524
# Poissons Ratio (z) = 2.39192 2.39246
#
# Static dielectric constant tensor:
#      x y z
#    x 1.526700 0.000000 0.000000 
#    y 0.000000 1.526710 0.000000 
#    z 0.000000 0.000000 1.599610 
# 
# From -- ./inp_files/7842.got.cif
#   From: 2010.05.17/outbox.cif.g08.bks.cpg/sg123_4_cif.got.tgz:7842.got - 2010.05.20 11:43:04.
