data_PCOD9562997
_publ_section_title
;
Structure prediction by ZEFSAII (Michael W. Deem and Ramdas Pophale) SiO2 
 PCOD9562997
Probable space group: P 4/N B M
;
_chemical_formula_sum "Si O2"
_cell_formula_units_Z 72
_cell_length_a 12.823385
_cell_length_b 12.823385
_cell_length_c 26.493559
_cell_angle_alpha 90.000000
_cell_angle_beta 90.000000
_cell_angle_gamma 90.000000
_cell_volume 4356.579723
_symmetry_space_group_name_H-M "P 4/N B M"
_symmetry_group_IT_number 125
_space_group.IT_coordinate_system_code '2'
_symmetry_cell_setting 'tetragonal'
loop_
_space_group_symop_operation_xyz
x,y,z
1/2-y,x,z
1/2-x,1/2-y,z
y,1/2-x,z
x,1/2-y,-z
1/2-x,y,-z
y,x,-z
1/2-y,1/2-x,-z
-x,-y,-z
1/2+y,-x,-z
1/2+x,1/2+y,-z
-y,1/2+x,-z
-x,1/2+y,z
1/2+x,-y,z
-y,-x,z
1/2+y,1/2+x,z
loop_
_atom_site_type_symbol
_atom_site_label
_atom_site_fract_x
_atom_site_fract_y
_atom_site_fract_z
Si Si1 0.875068 0.375068 0.054436
Si Si2 0.874330 0.374330 0.834815
Si Si3 0.125672 0.874329 0.165186
Si Si4 0.374370 0.874370 0.500000
Si Si5 1.000000 0.000001 0.752039
Si Si6 0.874386 0.625613 0.667959
Si Si7 0.624933 0.375068 0.054436
Si Si8 0.500000 1.000000 0.416030
O O1 0.911593 0.411593 0.109449
O O2 0.750000 0.391060 0.054371
O O3 0.914513 0.414513 0.000000
O O4 0.891578 0.250001 0.832044
O O5 0.911594 0.411594 0.890552
O O6 0.930138 0.430138 0.788910
O O7 0.069865 0.930136 0.211091
O O8 0.392400 0.750000 0.500000
O O9 0.428120 0.928120 0.548337
O O10 0.428121 0.928121 0.451663
O O11 0.071670 0.071670 0.716204
O O12 0.892442 0.750000 0.667986
O O13 0.928089 0.571910 0.619580
#
# Coordination Sequence:
#
# PCOD9562997 Si02
#       8
#     8   8   8   8   8  16   8   8
#     4   7  10  19  37  59  82 110 143 179 223 276
#     4   9  17  29  45  65  89 117 150 189 234 285
#     4   9  17  29  45  65  89 117 150 189 234 285
#     4  10  20  34  54  82 112 134 154 188 234 276
#     4  11  20  31  47  69  93 120 155 198 244 282
#     4  10  21  36  52  70  95 128 165 201 234 270
#     4   7  10  19  37  59  82 110 143 179 223 276
#     4  10  20  35  56  78 101 132 166 194 224 270
#
# _framework density 16.526726
#
# number of rings (size 3 to 8) (size 9 to 14) (size 15 to 20)
#    0.000    2.778    0.000    4.667    0.000    0.000 
#    0.000    0.556    0.000   16.000    0.000    0.000 
#    0.000    0.000    0.000   27.111    0.000    1.778 
#
# Total GULP energy -400943.982389 kJ/mol
# GULP energy per Si atom -5568.666422 kJ/mol
# Density = 1.648911 g / cm^3
# Si number density = 16.526726 Si / 1000 Ang^3
#
#
#
# Elastic Constant Matrix: (Units=GPa)
#
#
# Indices 1 2 3 4 5 6 
#
# 1 131.0972 49.4890 84.1985 0.0000 0.0000 0.0000
# 2 49.4890 131.0972 84.1985 0.0000 0.0000 0.0000
# 3 84.1985 84.1985 192.8165 0.0000 0.0000 0.0000
# 4 0.0000 0.0000 0.0000 47.7538 0.0000 0.0000
# 5 0.0000 0.0000 0.0000 0.0000 47.7538 0.0000
# 6 0.0000 0.0000 0.0000 0.0000 0.0000 29.0600
#
#
#
# Elastic Compliance Matrix: (Units=1/GPa)
#
#
# Indices 1 2 3 4 5 6 
#
# 1 0.010797 -0.001456 -0.004079 0.000000 0.000000 0.000000
# 2 -0.001456 0.010797 -0.004079 0.000000 0.000000 0.000000
# 3 -0.004079 -0.004079 0.008749 0.000000 0.000000 0.000000
# 4 0.000000 0.000000 0.000000 0.020941 0.000000 0.000000
# 5 0.000000 0.000000 0.000000 0.000000 0.020941 0.000000
# 6 0.000000 0.000000 0.000000 0.000000 0.000000 0.034412
#
#
# Mechanical properties :
#
#
# Convention : Reuss Voigt Hill
#
# Bulk Modulus (GPa) = 89.96929 98.97586 94.47258
# Shear Modulus (GPa) = 38.58896 40.72185 39.65541
#
# Velocity S-wave (km/s) = 4.83737 4.96925 4.90375
# Velocity P-wave (km/s) = 9.26051 9.64070 9.45251
#
# Compressibility (1/GPa) = 0.01111490
#
# Stress axis : x y z
#
# Youngs Moduli (GPa) = 92.61410 92.61410 114.30132
#
# Poissons Ratio (x) = 0.13486 0.46625
# Poissons Ratio (y) = 0.13486 0.46625
# Poissons Ratio (z) = 0.37779 0.37779
#
# Static dielectric constant tensor:
#      x y z
#    x 1.535820 0.000000 0.000000 
#    y 0.000000 1.535820 0.000000 
#    z 0.000000 0.000000 1.575680 
# 
# From -- ./inp_files/6385.got.cif
#   From: 2010.05.17/outbox.cif.g08.bks.cpg/sg125_4_cif.got.tgz:6385.got - 2010.05.20 11:54:10.
