data_PCOD9562182
_publ_section_title
;
Structure prediction by ZEFSAII (Michael W. Deem and Ramdas Pophale) SiO2 
 PCOD9562182
Probable space group: P 4/M M M
;
_chemical_formula_sum "Si O2"
_cell_formula_units_Z 72
_cell_length_a 20.987677
_cell_length_b 20.987677
_cell_length_c 8.789400
_cell_angle_alpha 90.000000
_cell_angle_beta 90.000000
_cell_angle_gamma 90.000000
_cell_volume 3871.577640
_symmetry_space_group_name_H-M "P 4/M M M"
_symmetry_group_IT_number 123
_symmetry_cell_setting 'tetragonal'
loop_
_space_group_symop_operation_xyz
x,y,z
-y,x,z
-x,-y,z
y,-x,z
x,-y,-z
-x,y,-z
y,x,-z
-y,-x,-z
-x,-y,-z
y,-x,-z
x,y,-z
-y,x,-z
-x,y,z
x,-y,z
-y,-x,z
y,x,z
loop_
_atom_site_type_symbol
_atom_site_label
_atom_site_fract_x
_atom_site_fract_y
_atom_site_fract_z
Si Si1 0.404316 0.184800 0.821523
Si Si2 0.178177 0.926380 0.178782
Si Si3 0.675880 0.571520 0.316573
Si Si4 0.074333 0.500000 0.185053
Si Si5 0.273141 0.165460 0.326504
O O1 0.422004 0.251643 0.742325
O O2 0.441088 0.120492 0.769682
O O3 0.330569 0.174293 0.787884
O O4 0.417632 0.192114 0.000000
O O5 0.114835 0.885166 0.203794
O O6 0.232767 0.896289 0.282039
O O7 0.167825 0.000000 0.209496
O O8 0.195662 0.918793 0.000000
O O9 0.677937 0.575454 0.500000
O O10 0.652950 0.500000 0.275605
O O11 0.627801 0.627801 0.263663
O O12 0.000000 0.500000 0.238470
O O13 0.070413 0.500000 0.000000
O O14 0.296736 0.162753 0.500000
O O15 0.224676 0.224676 0.314539
#
# Coordination Sequence:
#
# PCOD9562182 Si02
#       5
#    16  16  16   8  16
#     4  11  21  36  59  84 110 143 186 233 285 342
#     4   9  18  33  53  78 108 142 182 228 279 336
#     4  10  21  37  58  84 116 154 193 235 283 336
#     4   9  20  38  57  79 108 141 178 222 275 333
#     4  10  21  36  54  78 109 144 183 228 277 329
#
# _framework density 18.597069999999999
#
# number of rings (size 3 to 8) (size 9 to 14) (size 15 to 20)
#    0.000    2.111    1.111    2.000    0.000    6.222 
#    0.000    4.444    0.000    4.667    0.000    4.667 
#    0.000    0.000    0.000    0.000    0.000    0.000 
#
# Total GULP energy -401447.879700 kJ/mol
# GULP energy per Si atom -5575.664996 kJ/mol
# Density = 1.855474 g / cm^3
# Si number density = 18.597070 Si / 1000 Ang^3
#
#
#
# Elastic Constant Matrix: (Units=GPa)
#
#
# Indices 1 2 3 4 5 6 
#
# 1 113.7104 39.3473 21.8915 0.0000 0.0000 0.0000
# 2 39.3473 113.7104 21.8915 0.0000 0.0000 0.0000
# 3 21.8915 21.8915 14.8981 0.0000 0.0000 0.0000
# 4 0.0000 0.0000 0.0000 18.6730 0.0000 0.0000
# 5 0.0000 0.0000 0.0000 0.0000 18.6730 0.0000
# 6 0.0000 0.0000 0.0000 0.0000 0.0000 -7.6780
#
#
#
# Elastic Compliance Matrix: (Units=1/GPa)
#
#
# Indices 1 2 3 4 5 6 
#
# 1 0.012359 -0.001088 -0.016562 0.000000 0.000000 0.000000
# 2 -0.001088 0.012359 -0.016562 0.000000 0.000000 0.000000
# 3 -0.016562 -0.016562 0.115796 0.000000 0.000000 0.000000
# 4 0.000000 0.000000 0.000000 0.053553 0.000000 0.000000
# 5 0.000000 0.000000 0.000000 0.000000 0.053553 0.000000
# 6 0.000000 0.000000 0.000000 0.000000 0.000000 -0.130243
#
#
# Mechanical properties :
#
#
# Convention : Reuss Voigt Hill
#
# Bulk Modulus (GPa) = 13.87153 45.39775 29.63464
# Shear Modulus (GPa) = 23.82843 16.54617 20.18730
#
# Velocity S-wave (km/s) = 3.58341 2.98605 3.29828
# Velocity P-wave (km/s) = 4.95946 6.02934 5.52038
#
# Compressibility (1/GPa) = 0.07209008
#
# Stress axis : x y z
#
# Youngs Moduli (GPa) = 80.91048 80.91048 8.63588
#
# Poissons Ratio (x) = 0.08805 0.14303
# Poissons Ratio (y) = 0.08805 0.14303
# Poissons Ratio (z) = 1.34004 1.34004
#
# Static dielectric constant tensor:
#      x y z
#    x 1.637410 0.000000 0.000000 
#    y 0.000000 1.637410 0.000000 
#    z 0.000000 0.000000 1.658670 
# 
# From -- ./inp_files/1060.got.cif
#   From: 2010.05.17/outbox.cif.g08.bks.cpg/sg123_1_cif.got.tgz:1060.got - 2010.05.20 11:43:04.
