data_PCOD9562308
_publ_section_title
;
Structure prediction by ZEFSAII (Michael W. Deem and Ramdas Pophale) SiO2 
 PCOD9562308
Probable space group: P 4/M C C
;
_chemical_formula_sum "Si O2"
_cell_formula_units_Z 96
_cell_length_a 27.718364
_cell_length_b 27.718364
_cell_length_c 8.855959
_cell_angle_alpha 90.000000
_cell_angle_beta 90.000000
_cell_angle_gamma 90.000000
_cell_volume 6804.101516
_symmetry_space_group_name_H-M "P 4/M C C"
_symmetry_group_IT_number 124
_symmetry_cell_setting 'tetragonal'
loop_
_space_group_symop_operation_xyz
x,y,z
-y,x,z
-x,-y,z
y,-x,z
x,-y,1/2-z
-x,y,1/2-z
y,x,1/2-z
-y,-x,1/2-z
-x,-y,-z
y,-x,-z
x,y,-z
-y,x,-z
-x,y,1/2+z
x,-y,1/2+z
-y,-x,1/2+z
y,x,1/2+z
loop_
_atom_site_type_symbol
_atom_site_label
_atom_site_fract_x
_atom_site_fract_y
_atom_site_fract_z
Si Si1 0.871342 0.947175 0.180321
Si Si2 0.610947 0.452873 0.666503
Si Si3 0.731346 0.345533 0.181625
Si Si4 0.794795 0.870892 0.180561
Si Si5 0.273714 0.197112 0.681601
Si Si6 0.273842 0.549543 0.327789
O O1 0.912063 0.912063 0.250000
O O2 0.818784 0.922847 0.209458
O O3 0.874631 0.000000 0.250000
O O4 0.877951 0.948666 0.000000
O O5 0.592091 0.500000 0.750000
O O6 0.595048 0.404953 0.750000
O O7 0.590813 0.451007 0.500000
O O8 0.668305 0.456242 0.661035
O O9 0.686564 0.313437 0.250000
O O10 0.780401 0.321982 0.248412
O O11 0.731825 0.401140 0.233936
O O12 0.729331 0.341427 0.000000
O O13 0.834874 0.834874 0.250000
O O14 0.745065 0.854629 0.259110
O O15 0.791267 0.863536 0.000000
O O16 0.234267 0.234267 0.750000
O O17 0.274075 0.199008 0.500000
O O18 0.255607 0.500000 0.250000
O O19 0.255456 0.554633 0.500000
#
# Coordination Sequence:
#
# PCOD9562308 Si02
#       6
#    16  16  16  16  16  16
#     4  10  20  32  46  62  83 111 148 190 231 269
#     4  10  20  32  45  57  70  86 109 141 179 221
#     4  11  20  30  44  62  83 105 130 163 199 238
#     4   9  16  27  42  60  81 106 134 169 211 256
#     4  10  17  26  41  61  83 105 129 161 200 245
#     4  10  20  33  46  60  77  99 125 153 187 230
#
# _framework density 14.109137
#
# number of rings (size 3 to 8) (size 9 to 14) (size 15 to 20)
#    0.000    2.000    0.000    7.500    0.000    5.667 
#    0.000    1.667    0.000    0.000    0.000    0.000 
#    0.000    0.000    0.000    0.000    0.000    0.833 
#
# Total GULP energy -534532.749543 kJ/mol
# GULP energy per Si atom -5568.049474 kJ/mol
# Density = 1.407702 g / cm^3
# Si number density = 14.109137 Si / 1000 Ang^3
#
#
#
# Elastic Constant Matrix: (Units=GPa)
#
#
# Indices 1 2 3 4 5 6 
#
# 1 53.1811 48.7466 43.3081 0.0000 0.0000 0.0000
# 2 48.7466 53.1791 43.3081 0.0000 0.0000 0.0000
# 3 43.3081 43.3081 133.1693 0.0000 0.0000 0.0000
# 4 0.0000 0.0000 0.0000 22.9012 0.0000 0.0000
# 5 0.0000 0.0000 0.0000 0.0000 22.9029 0.0000
# 6 0.0000 0.0000 0.0000 0.0000 0.0000 18.7808
#
#
#
# Elastic Compliance Matrix: (Units=1/GPa)
#
#
# Indices 1 2 3 4 5 6 
#
# 1 0.119553 -0.105999 -0.004408 0.000000 0.000000 0.000000
# 2 -0.105999 0.119559 -0.004410 0.000000 0.000000 0.000000
# 3 -0.004408 -0.004410 0.010377 0.000000 0.000000 0.000000
# 4 0.000000 0.000000 0.000000 0.043666 0.000000 0.000000
# 5 0.000000 0.000000 0.000000 0.000000 0.043663 0.000000
# 6 0.000000 0.000000 0.000000 0.000000 0.000000 0.053246
#
#
# Mechanical properties :
#
#
# Convention : Reuss Voigt Hill
#
# Bulk Modulus (GPa) = 50.36242 56.69503 53.52872
# Shear Modulus (GPa) = 7.98318 19.86145 13.92231
#
# Velocity S-wave (km/s) = 2.38127 3.75600 3.14468
# Velocity P-wave (km/s) = 6.58278 7.68639 7.15589
#
# Compressibility (1/GPa) = 0.01985608
#
# Stress axis : x y z
#
# Youngs Moduli (GPa) = 8.36446 8.36404 96.36654
#
# Poissons Ratio (x) = 0.88658 0.42480
# Poissons Ratio (y) = 0.88662 0.42498
# Poissons Ratio (z) = 0.03687 0.03689
#
# Static dielectric constant tensor:
#      x y z
#    x 1.481850 0.000000 0.000000 
#    y 0.000000 1.481840 0.000000 
#    z 0.000000 0.000000 1.488180 
# 
# From -- ./inp_files/1508.got.cif
#   From: 2010.05.17/outbox.cif.g08.bks.cpg/sg124_1_cif.got.tgz:1508.got - 2010.05.20 11:49:17.
