data_PCOD9562559
_publ_section_title
;
Structure prediction by ZEFSAII (Michael W. Deem and Ramdas Pophale) SiO2 
 PCOD9562559
Probable space group: P 4/M C C
;
_chemical_formula_sum "Si O2"
_cell_formula_units_Z 96
_cell_length_a 24.659513
_cell_length_b 24.659513
_cell_length_c 8.808286
_cell_angle_alpha 90.000000
_cell_angle_beta 90.000000
_cell_angle_gamma 90.000000
_cell_volume 5356.244563
_symmetry_space_group_name_H-M "P 4/M C C"
_symmetry_group_IT_number 124
_symmetry_cell_setting 'tetragonal'
loop_
_space_group_symop_operation_xyz
x,y,z
-y,x,z
-x,-y,z
y,-x,z
x,-y,1/2-z
-x,y,1/2-z
y,x,1/2-z
-y,-x,1/2-z
-x,-y,-z
y,-x,-z
x,y,-z
-y,x,-z
-x,y,1/2+z
x,-y,1/2+z
-y,-x,1/2+z
y,x,1/2+z
loop_
_atom_site_type_symbol
_atom_site_label
_atom_site_fract_x
_atom_site_fract_y
_atom_site_fract_z
Si Si1 0.441280 0.640009 0.680764
Si Si2 0.559649 0.940788 0.683593
Si Si3 0.648543 0.269426 0.319057
Si Si4 0.140902 0.059112 0.318002
Si Si5 0.353561 0.848469 0.816842
Si Si6 0.229768 0.851677 0.817839
O O1 0.500000 0.648997 0.750000
O O2 0.413097 0.586904 0.750000
O O3 0.444630 0.634809 0.500000
O O4 0.400992 0.689871 0.716252
O O5 0.500000 0.927790 0.750000
O O6 0.556800 0.943945 0.500000
O O7 0.603336 0.894741 0.726923
O O8 0.574562 0.000000 0.750000
O O9 0.702092 0.297909 0.250000
O O10 0.654926 0.265944 0.500000
O O11 0.635916 0.210745 0.251364
O O12 0.087829 0.087829 0.250000
O O13 0.137334 0.057052 0.500000
O O14 0.191128 0.098172 0.275158
O O15 0.148100 0.000000 0.250000
O O16 0.291576 0.861418 0.770597
O O17 0.355173 0.844868 0.000000
O O18 0.202017 0.797984 0.750000
O O19 0.228713 0.846647 0.000000
#
# Coordination Sequence:
#
# PCOD9562559 Si02
#       6
#    16  16  16  16  16  16
#     4  10  21  37  56  79 108 142 181 224 270 318
#     4  10  21  38  58  79 107 141 177 221 270 319
#     4  10  21  36  55  80 111 145 179 220 269 318
#     4  10  20  35  54  76 104 137 174 215 260 308
#     4  10  21  36  56  82 109 140 179 220 263 318
#     4   9  19  35  53  76 107 139 171 211 259 308
#
# _framework density 17.923005
#
# number of rings (size 3 to 8) (size 9 to 14) (size 15 to 20)
#    0.000    2.167    0.000    3.000    0.000    7.667 
#    0.000    5.000    0.000    0.000    0.000    0.000 
#    0.000    0.000    0.000    0.000    0.000    0.000 
#
# Total GULP energy -535931.875434 kJ/mol
# GULP energy per Si atom -5582.623702 kJ/mol
# Density = 1.788221 g / cm^3
# Si number density = 17.923005 Si / 1000 Ang^3
#
#
#
# Elastic Constant Matrix: (Units=GPa)
#
#
# Indices 1 2 3 4 5 6 
#
# 1 160.6684 80.9925 49.3967 0.0000 0.0000 0.0000
# 2 80.9925 160.7023 49.4087 0.0000 0.0000 0.0000
# 3 49.3967 49.4087 38.2245 0.0000 0.0000 0.0000
# 4 0.0000 0.0000 0.0000 29.9250 0.0000 0.0000
# 5 0.0000 0.0000 0.0000 0.0000 29.9242 0.0000
# 6 0.0000 0.0000 0.0000 0.0000 0.0000 26.1644
#
#
#
# Elastic Compliance Matrix: (Units=1/GPa)
#
#
# Indices 1 2 3 4 5 6 
#
# 1 0.010661 -0.001887 -0.011337 0.000000 0.000000 0.000000
# 2 -0.001887 0.010661 -0.011341 0.000000 0.000000 0.000000
# 3 -0.011337 -0.011341 0.055472 0.000000 0.000000 0.000000
# 4 0.000000 0.000000 0.000000 0.033417 0.000000 0.000000
# 5 0.000000 0.000000 0.000000 0.000000 0.033418 0.000000
# 6 0.000000 0.000000 0.000000 0.000000 0.000000 0.038220
#
#
# Mechanical properties :
#
#
# Convention : Reuss Voigt Hill
#
# Bulk Modulus (GPa) = 36.15094 79.91011 58.03053
# Shear Modulus (GPa) = 20.81595 29.18921 25.00258
#
# Velocity S-wave (km/s) = 3.41164 4.03996 3.73902
# Velocity P-wave (km/s) = 5.97771 8.15130 7.14761
#
# Compressibility (1/GPa) = 0.02766179
#
# Stress axis : x y z
#
# Youngs Moduli (GPa) = 93.79957 93.80218 18.02719
#
# Poissons Ratio (x) = 0.17703 0.20438
# Poissons Ratio (y) = 0.17703 0.20445
# Poissons Ratio (z) = 1.06345 1.06382
#
# Static dielectric constant tensor:
#      x y z
#    x 1.599580 0.000000 0.000000 
#    y 0.000000 1.599580 0.000000 
#    z 0.000000 0.000000 1.601490 
# 
# From -- ./inp_files/1380.got.cif
#   From: 2010.05.17/outbox.cif.g08.bks.cpg/sg124_1_cif.got.tgz:1380.got - 2010.05.20 11:49:17.
