data_PCOD9562328
_publ_section_title
;
Structure prediction by ZEFSAII (Michael W. Deem and Ramdas Pophale) SiO2 
 PCOD9562328
Probable space group: P 4/M C C
;
_chemical_formula_sum "Si O2"
_cell_formula_units_Z 72
_cell_length_a 12.193517
_cell_length_b 12.193517
_cell_length_c 25.210068
_cell_angle_alpha 90.000000
_cell_angle_beta 90.000000
_cell_angle_gamma 90.000000
_cell_volume 3748.279721
_symmetry_space_group_name_H-M "P 4/M C C"
_symmetry_group_IT_number 124
_symmetry_cell_setting 'tetragonal'
loop_
_space_group_symop_operation_xyz
x,y,z
-y,x,z
-x,-y,z
y,-x,z
x,-y,1/2-z
-x,y,1/2-z
y,x,1/2-z
-y,-x,1/2-z
-x,-y,-z
y,-x,-z
x,y,-z
-y,x,-z
-x,y,1/2+z
x,-y,1/2+z
-y,-x,1/2+z
y,x,1/2+z
loop_
_atom_site_type_symbol
_atom_site_label
_atom_site_fract_x
_atom_site_fract_y
_atom_site_fract_z
Si Si1 0.203037 0.618391 0.237009
Si Si2 0.323103 0.476572 0.563896
Si Si3 0.585704 0.100637 0.379320
Si Si4 0.738197 0.000000 0.250000
Si Si5 0.824188 0.034441 0.634823
O O1 0.246888 0.500000 0.250000
O O2 0.292591 0.707410 0.250000
O O3 0.156354 0.606515 0.177951
O O4 0.096858 0.658570 0.269755
O O5 0.408345 0.380077 0.580830
O O6 0.321331 0.476602 0.500000
O O7 0.201273 0.456945 0.585142
O O8 0.707695 0.056367 0.392636
O O9 0.500000 0.000000 0.377755
O O10 0.807111 0.037882 0.300776
O O11 0.915837 0.125028 0.621890
#
# Coordination Sequence:
#
# PCOD9562328 Si02
#       5
#    16  16  16   8  16
#     4  11  23  36  52  79 121 161 202 243 295 358
#     4   9  21  43  70  96 121 155 203 261 327 395
#     4  11  24  36  63  91 125 161 207 259 311 372
#     4  10  17  33  54  72 104 157 207 248 284 332
#     4  10  20  33  52  80 116 156 204 247 292 353
#
# _framework density 19.208812000000002
#
# number of rings (size 3 to 8) (size 9 to 14) (size 15 to 20)
#    0.000    1.778    0.000    7.000    6.222    1.556 
#    0.000    0.000    0.000    0.000    0.000    1.556 
#    0.000    0.000    0.000    0.000    0.000    0.000 
#
# Total GULP energy -401546.901354 kJ/mol
# GULP energy per Si atom -5577.040297 kJ/mol
# Density = 1.916509 g / cm^3
# Si number density = 19.208812 Si / 1000 Ang^3
#
#
#
# Elastic Constant Matrix: (Units=GPa)
#
#
# Indices 1 2 3 4 5 6 
#
# 1 166.7429 93.6866 28.3305 0.0000 0.0000 0.0000
# 2 93.6866 166.7385 28.3313 0.0000 0.0000 0.0000
# 3 28.3305 28.3313 23.8039 0.0000 0.0000 0.0000
# 4 0.0000 0.0000 0.0000 -44.0681 0.0000 0.0000
# 5 0.0000 0.0000 0.0000 0.0000 -43.8254 0.0000
# 6 0.0000 0.0000 0.0000 0.0000 0.0000 57.2279
#
#
#
# Elastic Compliance Matrix: (Units=1/GPa)
#
#
# Indices 1 2 3 4 5 6 
#
# 1 0.009435 -0.004253 -0.006167 0.000000 0.000000 0.000000
# 2 -0.004253 0.009435 -0.006168 0.000000 0.000000 0.000000
# 3 -0.006167 -0.006168 0.056690 0.000000 0.000000 0.000000
# 4 0.000000 0.000000 0.000000 -0.022692 0.000000 0.000000
# 5 0.000000 0.000000 0.000000 0.000000 -0.022818 0.000000
# 6 0.000000 0.000000 0.000000 0.000000 0.000000 0.017474
#
#
# Mechanical properties :
#
#
# Convention : Reuss Voigt Hill
#
# Bulk Modulus (GPa) = 23.59335 73.10910 48.35122
# Shear Modulus (GPa) = 52.72737 7.66267 30.19502
#
# Velocity S-wave (km/s) = 5.24492 1.99945 3.96907
# Velocity P-wave (km/s) = 6.99915 6.59342 6.79931
#
# Compressibility (1/GPa) = 0.04238483
#
# Stress axis : x y z
#
# Youngs Moduli (GPa) = 105.99029 105.98516 17.63984
#
# Poissons Ratio (x) = 0.45080 0.10878
# Poissons Ratio (y) = 0.45082 0.10880
# Poissons Ratio (z) = 0.65360 0.65367
#
# Static dielectric constant tensor:
#      x y z
#    x 1.713760 0.000000 0.000000 
#    y 0.000000 1.713750 0.000000 
#    z 0.000000 0.000000 1.701730 
# 
# From -- ./inp_files/6501.got.cif
#   From: 2010.05.17/outbox.cif.g08.bks.cpg/sg124_4_cif.got.tgz:6501.got - 2010.05.20 11:49:17.
