data_PCOD9562950
_publ_section_title
;
Structure prediction by ZEFSAII (Michael W. Deem and Ramdas Pophale) SiO2 
 PCOD9562950
Probable space group: P 4/N B M
;
_chemical_formula_sum "Si O2"
_cell_formula_units_Z 112
_cell_length_a 15.662567
_cell_length_b 15.662567
_cell_length_c 25.523308
_cell_angle_alpha 90.000000
_cell_angle_beta 90.000000
_cell_angle_gamma 90.000000
_cell_volume 6261.275954
_symmetry_space_group_name_H-M "P 4/N B M"
_symmetry_group_IT_number 125
_space_group.IT_coordinate_system_code '2'
_symmetry_cell_setting 'tetragonal'
loop_
_space_group_symop_operation_xyz
x,y,z
1/2-y,x,z
1/2-x,1/2-y,z
y,1/2-x,z
x,1/2-y,-z
1/2-x,y,-z
y,x,-z
1/2-y,1/2-x,-z
-x,-y,-z
1/2+y,-x,-z
1/2+x,1/2+y,-z
-y,1/2+x,-z
-x,1/2+y,z
1/2+x,-y,z
-y,-x,z
1/2+y,1/2+x,z
loop_
_atom_site_type_symbol
_atom_site_label
_atom_site_fract_x
_atom_site_fract_y
_atom_site_fract_z
Si Si1 0.391876 0.244310 0.562292
Si Si2 0.186724 0.542899 0.162750
Si Si3 0.467907 0.834476 0.369072
Si Si4 0.606649 0.253880 0.942876
Si Si5 0.129118 0.176687 0.199811
Si Si6 0.068755 0.434633 0.710432
Si Si7 0.425616 0.784777 0.727619
O O1 0.335483 0.328350 0.574113
O O2 0.408028 0.250000 0.500000
O O3 0.479180 0.228578 0.593629
O O4 0.114829 0.614829 0.163601
O O5 0.239059 0.553057 0.109214
O O6 0.146707 0.448545 0.164121
O O7 0.243303 0.556651 0.215361
O O8 0.537046 0.900960 0.345151
O O9 0.430464 0.784738 0.318502
O O10 0.391575 0.891575 0.393055
O O11 0.658221 0.341780 0.938085
O O12 0.679160 0.179160 0.944284
O O13 0.563056 0.250000 0.000000
O O14 0.222133 0.137721 0.192375
O O15 0.098342 0.147717 0.257174
O O16 0.146033 0.501073 0.713577
O O17 0.986441 0.486441 0.733111
O O18 0.336797 0.836797 0.728890
#
# Coordination Sequence:
#
# PCOD9562950 Si02
#       7
#    16  16  16  16  16  16  16
#     4   9  19  38  62  83 104 134 181 236 280 318
#     4  11  20  33  53  77 107 142 178 218 272 325
#     4  11  21  34  53  79 113 146 178 217 267 326
#     4   8  15  29  50  77 106 136 176 227 279 328
#     4  11  21  34  51  74 104 139 181 219 260 311
#     4  10  19  34  53  77 111 144 177 218 264 317
#     4  11  22  34  51  78 112 147 181 214 261 325
#
# _framework density 17.887727000000002
#
# number of rings (size 3 to 8) (size 9 to 14) (size 15 to 20)
#    0.000    1.857    2.857    3.000    0.000    1.714 
#    0.000    3.571    0.000    0.857    0.000    4.000 
#    0.000    0.000    0.000    0.000    0.000    0.000 
#
# Total GULP energy -623954.462989 kJ/mol
# GULP energy per Si atom -5571.021991 kJ/mol
# Density = 1.784701 g / cm^3
# Si number density = 17.887727 Si / 1000 Ang^3
#
#
#
# Elastic Constant Matrix: (Units=GPa)
#
#
# Indices 1 2 3 4 5 6 
#
# 1 73.4926 26.3038 35.7508 0.0000 0.0000 0.0000
# 2 26.3038 73.4926 35.7508 0.0000 0.0000 0.0000
# 3 35.7508 35.7508 76.4037 0.0000 0.0000 0.0000
# 4 0.0000 0.0000 0.0000 20.6205 0.0000 0.0000
# 5 0.0000 0.0000 0.0000 0.0000 20.6205 0.0000
# 6 0.0000 0.0000 0.0000 0.0000 0.0000 28.1855
#
#
#
# Elastic Compliance Matrix: (Units=1/GPa)
#
#
# Indices 1 2 3 4 5 6 
#
# 1 0.018133 -0.003059 -0.007053 0.000000 0.000000 0.000000
# 2 -0.003059 0.018133 -0.007053 0.000000 0.000000 0.000000
# 3 -0.007053 -0.007053 0.019689 0.000000 0.000000 0.000000
# 4 0.000000 0.000000 0.000000 0.048495 0.000000 0.000000
# 5 0.000000 0.000000 0.000000 0.000000 0.048495 0.000000
# 6 0.000000 0.000000 0.000000 0.000000 0.000000 0.035479
#
#
# Mechanical properties :
#
#
# Convention : Reuss Voigt Hill
#
# Bulk Modulus (GPa) = 46.24585 46.55551 46.40068
# Shear Modulus (GPa) = 21.74257 22.25755 22.00006
#
# Velocity S-wave (km/s) = 3.49019 3.53128 3.51079
# Velocity P-wave (km/s) = 6.49241 6.53526 6.51387
#
# Compressibility (1/GPa) = 0.02162356
#
# Stress axis : x y z
#
# Youngs Moduli (GPa) = 55.14887 55.14887 50.78924
#
# Poissons Ratio (x) = 0.16869 0.35824
# Poissons Ratio (y) = 0.16869 0.35824
# Poissons Ratio (z) = 0.38899 0.38899
#
# Static dielectric constant tensor:
#      x y z
#    x 1.642790 0.000000 0.000000 
#    y 0.000000 1.642790 0.000000 
#    z 0.000000 0.000000 1.609870 
# 
# From -- ./inp_files/6258.got.cif
#   From: 2010.05.17/outbox.cif.g08.bks.cpg/sg125_4_cif.got.tgz:6258.got - 2010.05.20 11:54:10.
