data_PCOD9562088
_publ_section_title
;
Structure prediction by ZEFSAII (Michael W. Deem and Ramdas Pophale) SiO2 
 PCOD9562088
Probable space group: P 4/M M M
;
_chemical_formula_sum "Si O2"
_cell_formula_units_Z 56
_cell_length_a 12.900747
_cell_length_b 12.900747
_cell_length_c 19.978973
_cell_angle_alpha 90.000000
_cell_angle_beta 90.000000
_cell_angle_gamma 90.000000
_cell_volume 3325.085955
_symmetry_space_group_name_H-M "P 4/M M M"
_symmetry_group_IT_number 123
_symmetry_cell_setting 'tetragonal'
loop_
_space_group_symop_operation_xyz
x,y,z
-y,x,z
-x,-y,z
y,-x,z
x,-y,-z
-x,y,-z
y,x,-z
-y,-x,-z
-x,-y,-z
y,-x,-z
x,y,-z
-y,x,-z
-x,y,z
x,-y,z
-y,-x,z
y,x,z
loop_
_atom_site_type_symbol
_atom_site_label
_atom_site_fract_x
_atom_site_fract_y
_atom_site_fract_z
Si Si1 0.621698 0.206296 0.424829
Si Si2 0.290569 0.120048 0.291580
Si Si3 0.206549 0.621502 0.157757
Si Si4 0.625750 0.000000 0.076762
O O1 0.640285 0.164021 0.500000
O O2 0.500000 0.226606 0.418228
O O3 0.688710 0.311291 0.419055
O O4 0.659559 0.134366 0.364661
O O5 0.183004 0.183004 0.290775
O O6 0.361767 0.173303 0.235044
O O7 0.277705 0.000000 0.275812
O O8 0.227791 0.500000 0.145247
O O9 0.304123 0.695878 0.143839
O O10 0.105742 0.655324 0.114760
O O11 0.500000 0.000000 0.077011
O O12 0.661251 0.000000 0.000000
#
# Coordination Sequence:
#
# PCOD9562088 Si02
#       4
#    16  16  16   8
#     4   9  18  31  47  70  99 131 168 209 254 305
#     4  10  20  34  52  73  99 132 171 216 262 309
#     4  10  20  34  54  81 110 141 176 215 262 314
#     4   9  18  34  56  79 104 138 178 214 249 301
#
# _framework density 16.841671000000002
#
# number of rings (size 3 to 8) (size 9 to 14) (size 15 to 20)
#    0.000    2.429    1.429    0.857    0.000    3.714 
#    0.000    2.857    0.000    5.571    0.000    9.000 
#    0.000    0.000    0.000    0.000    0.000    0.000 
#
# Total GULP energy -312096.868134 kJ/mol
# GULP energy per Si atom -5573.158360 kJ/mol
# Density = 1.680334 g / cm^3
# Si number density = 16.841671 Si / 1000 Ang^3
#
#
#
# Elastic Constant Matrix: (Units=GPa)
#
#
# Indices 1 2 3 4 5 6 
#
# 1 99.3117 46.6569 33.3853 0.0000 0.0000 0.0000
# 2 46.6569 99.3117 33.3853 0.0000 0.0000 0.0000
# 3 33.3853 33.3853 87.2208 0.0000 0.0000 0.0000
# 4 0.0000 0.0000 0.0000 19.9160 0.0000 0.0000
# 5 0.0000 0.0000 0.0000 0.0000 19.9160 0.0000
# 6 0.0000 0.0000 0.0000 0.0000 0.0000 7.5811
#
#
#
# Elastic Compliance Matrix: (Units=1/GPa)
#
#
# Indices 1 2 3 4 5 6 
#
# 1 0.013648 -0.005343 -0.003179 0.000000 0.000000 0.000000
# 2 -0.005343 0.013648 -0.003179 0.000000 0.000000 0.000000
# 3 -0.003179 -0.003179 0.013899 0.000000 0.000000 0.000000
# 4 0.000000 0.000000 0.000000 0.050211 0.000000 0.000000
# 5 0.000000 0.000000 0.000000 0.000000 0.050211 0.000000
# 6 0.000000 0.000000 0.000000 0.000000 0.000000 0.131907
#
#
# Mechanical properties :
#
#
# Convention : Reuss Voigt Hill
#
# Bulk Modulus (GPa) = 56.20163 56.96657 56.58410
# Shear Modulus (GPa) = 16.50945 20.97707 18.74326
#
# Velocity S-wave (km/s) = 3.13433 3.53306 3.33965
# Velocity P-wave (km/s) = 6.82215 7.10926 6.96718
#
# Compressibility (1/GPa) = 0.01779308
#
# Stress axis : x y z
#
# Youngs Moduli (GPa) = 73.26949 73.26949 71.94933
#
# Poissons Ratio (x) = 0.39150 0.22872
# Poissons Ratio (y) = 0.39150 0.22872
# Poissons Ratio (z) = 0.23291 0.23291
#
# Static dielectric constant tensor:
#      x y z
#    x 1.543720 0.000000 0.000000 
#    y 0.000000 1.543720 0.000000 
#    z 0.000000 0.000000 1.590580 
# 
# From -- ./inp_files/6088.got.cif
#   From: 2010.05.17/outbox.cif.g08.bks.cpg/sg123_4_cif.got.tgz:6088.got - 2010.05.20 11:43:04.
