data_PCOD9562925
_publ_section_title
;
Structure prediction by ZEFSAII (Michael W. Deem and Ramdas Pophale) SiO2 
 PCOD9562925
Probable space group: P 4/N B M
;
_chemical_formula_sum "Si O2"
_cell_formula_units_Z 96
_cell_length_a 22.397737
_cell_length_b 22.397737
_cell_length_c 11.096915
_cell_angle_alpha 90.000000
_cell_angle_beta 90.000000
_cell_angle_gamma 90.000000
_cell_volume 5566.863095
_symmetry_space_group_name_H-M "P 4/N B M"
_symmetry_group_IT_number 125
_space_group.IT_coordinate_system_code '2'
_symmetry_cell_setting 'tetragonal'
loop_
_space_group_symop_operation_xyz
x,y,z
1/2-y,x,z
1/2-x,1/2-y,z
y,1/2-x,z
x,1/2-y,-z
1/2-x,y,-z
y,x,-z
1/2-y,1/2-x,-z
-x,-y,-z
1/2+y,-x,-z
1/2+x,1/2+y,-z
-y,1/2+x,-z
-x,1/2+y,z
1/2+x,-y,z
-y,-x,z
1/2+y,1/2+x,z
loop_
_atom_site_type_symbol
_atom_site_label
_atom_site_fract_x
_atom_site_fract_y
_atom_site_fract_z
Si Si1 0.539578 0.788115 0.613733
Si Si2 0.750802 0.845615 0.266317
Si Si3 0.597942 0.597942 0.500000
Si Si4 0.877382 0.026610 0.785544
Si Si5 0.866851 0.534119 0.971797
Si Si6 0.614500 0.750000 0.000000
Si Si7 0.977564 0.925842 0.726535
O O1 0.516105 0.750000 0.500000
O O2 0.586590 0.748123 0.688613
O O3 0.583565 0.840162 0.564682
O O4 0.491821 0.821328 0.700765
O O5 0.692732 0.807830 0.305206
O O6 0.747592 0.848442 0.122012
O O7 0.544921 0.595620 0.597868
O O8 0.910684 0.089317 0.761076
O O9 0.926944 0.975201 0.759819
O O10 0.864413 0.017903 0.928073
O O11 0.877160 0.517959 0.832417
O O12 0.923933 0.576068 0.000000
O O13 0.808630 0.573817 0.991679
O O14 0.039387 0.960614 0.718365
#
# Coordination Sequence:
#
# PCOD9562925 Si02
#       7
#    16  16   8  16  16   8  16
#     4  11  22  35  51  70  98 136 175 214 256 310
#     4  11  23  36  50  69  97 139 186 231 267 301
#     4  10  21  32  50  69 100 132 168 212 257 304
#     4   9  18  34  52  73  96 126 164 211 268 319
#     4  10  19  31  51  72  95 129 170 219 264 312
#     4  12  22  31  52  72 100 130 176 225 278 302
#     4   9  18  31  50  72  93 122 164 213 261 314
#
# _framework density 17.244900000000001
#
# number of rings (size 3 to 8) (size 9 to 14) (size 15 to 20)
#    0.000    1.833    1.667    3.250    7.000    3.333 
#    0.000    0.833    0.000    0.000    0.000    0.000 
#    0.000    0.333    0.000    0.667    0.000    8.583 
#
# Total GULP energy -535179.556652 kJ/mol
# GULP energy per Si atom -5574.787048 kJ/mol
# Density = 1.720565 g / cm^3
# Si number density = 17.244900 Si / 1000 Ang^3
#
#
#
# Elastic Constant Matrix: (Units=GPa)
#
#
# Indices 1 2 3 4 5 6 
#
# 1 42.8475 29.9916 33.3891 0.0000 0.0000 0.0000
# 2 29.9916 42.8467 33.3888 0.0000 0.0000 0.0000
# 3 33.3891 33.3888 110.1388 0.0000 0.0000 0.0000
# 4 0.0000 0.0000 0.0000 18.0716 0.0000 0.0000
# 5 0.0000 0.0000 0.0000 0.0000 18.0716 0.0000
# 6 0.0000 0.0000 0.0000 0.0000 0.0000 22.9942
#
#
#
# Elastic Compliance Matrix: (Units=1/GPa)
#
#
# Indices 1 2 3 4 5 6 
#
# 1 0.048400 -0.029387 -0.005764 0.000000 0.000000 0.000000
# 2 -0.029387 0.048401 -0.005764 0.000000 0.000000 0.000000
# 3 -0.005764 -0.005764 0.012574 0.000000 0.000000 0.000000
# 4 0.000000 0.000000 0.000000 0.055335 0.000000 0.000000
# 5 0.000000 0.000000 0.000000 0.000000 0.055336 0.000000
# 6 0.000000 0.000000 0.000000 0.000000 0.000000 0.043489
#
#
# Mechanical properties :
#
#
# Convention : Reuss Voigt Hill
#
# Bulk Modulus (GPa) = 36.30424 43.26354 39.78389
# Shear Modulus (GPa) = 14.10250 18.43172 16.26711
#
# Velocity S-wave (km/s) = 2.86278 3.27283 3.07465
# Velocity P-wave (km/s) = 5.65908 6.27886 5.97701
#
# Compressibility (1/GPa) = 0.02754499
#
# Stress axis : x y z
#
# Youngs Moduli (GPa) = 20.66116 20.66072 79.52812
#
# Poissons Ratio (x) = 0.60716 0.45839
# Poissons Ratio (y) = 0.60717 0.45840
# Poissons Ratio (z) = 0.11909 0.11909
#
# Static dielectric constant tensor:
#      x y z
#    x 1.592030 0.000000 0.000000 
#    y 0.000000 1.592030 0.000000 
#    z 0.000000 0.000000 1.696630 
# 
# From -- ./inp_files/4190.got.cif
#   From: 2010.05.17/outbox.cif.g08.bks.cpg/sg125_3_cif.got.tgz:4190.got - 2010.05.20 11:54:10.
