data_PCOD9562894
_publ_section_title
;
Structure prediction by ZEFSAII (Michael W. Deem and Ramdas Pophale) SiO2 
 PCOD9562894
Probable space group: P 4/N B M
;
_chemical_formula_sum "Si O2"
_cell_formula_units_Z 112
_cell_length_a 14.591291
_cell_length_b 14.591291
_cell_length_c 28.230011
_cell_angle_alpha 90.000000
_cell_angle_beta 90.000000
_cell_angle_gamma 90.000000
_cell_volume 6010.332315
_symmetry_space_group_name_H-M "P 4/N B M"
_symmetry_group_IT_number 125
_space_group.IT_coordinate_system_code '2'
_symmetry_cell_setting 'tetragonal'
loop_
_space_group_symop_operation_xyz
x,y,z
1/2-y,x,z
1/2-x,1/2-y,z
y,1/2-x,z
x,1/2-y,-z
1/2-x,y,-z
y,x,-z
1/2-y,1/2-x,-z
-x,-y,-z
1/2+y,-x,-z
1/2+x,1/2+y,-z
-y,1/2+x,-z
-x,1/2+y,z
1/2+x,-y,z
-y,-x,z
1/2+y,1/2+x,z
loop_
_atom_site_type_symbol
_atom_site_label
_atom_site_fract_x
_atom_site_fract_y
_atom_site_fract_z
Si Si1 0.247961 0.604363 0.776701
Si Si2 0.310140 0.390998 0.616000
Si Si3 0.995273 0.153953 0.866173
Si Si4 0.505106 0.851799 0.477211
Si Si5 0.745105 0.402138 0.055072
Si Si6 0.649192 0.635791 0.795045
Si Si7 0.373723 0.021905 0.287292
O O1 0.326669 0.673332 0.795511
O O2 0.168468 0.668468 0.755417
O O3 0.203772 0.551573 0.820798
O O4 0.297817 0.541172 0.738560
O O5 0.203531 0.365829 0.609161
O O6 0.339087 0.465999 0.577494
O O7 0.330165 0.425314 0.668889
O O8 0.936878 0.063123 0.876434
O O9 0.981792 0.223175 0.909639
O O10 0.094342 0.126772 0.846308
O O11 0.498341 0.750000 0.500000
O O12 0.587975 0.912026 0.500000
O O13 0.413161 0.913161 0.482484
O O14 0.648045 0.351956 0.064869
O O15 0.821430 0.321430 0.061140
O O16 0.750000 0.429278 0.000000
O O17 0.757574 0.627979 0.789980
O O18 0.591797 0.589821 0.753028
O O19 0.455856 0.955856 0.302952
#
# Coordination Sequence:
#
# PCOD9562894 Si02
#       7
#    16  16  16  16  16  16  16
#     4   9  18  33  53  78 109 144 180 224 282 347
#     4  11  23  40  64  92 124 165 210 255 302 358
#     4  10  18  31  52  78 104 138 182 226 278 344
#     4  11  23  43  71 102 133 167 212 265 320 379
#     4   8  14  26  48  80 113 139 168 220 292 361
#     4  11  22  37  52  72 105 145 191 237 282 330
#     4  11  22  38  57  84 119 152 194 244 298 357
#
# _framework density 18.634575999999999
#
# number of rings (size 3 to 8) (size 9 to 14) (size 15 to 20)
#    0.000    1.857    2.857    2.571    0.000    3.143 
#    0.000    1.429    0.000    2.571    0.000    4.000 
#    0.000    0.000    0.000    0.000    0.000    0.000 
#
# Total GULP energy -624591.333406 kJ/mol
# GULP energy per Si atom -5576.708334 kJ/mol
# Density = 1.859216 g / cm^3
# Si number density = 18.634576 Si / 1000 Ang^3
#
#
#
# Elastic Constant Matrix: (Units=GPa)
#
#
# Indices 1 2 3 4 5 6 
#
# 1 84.3705 30.6873 22.4066 0.0000 0.0000 0.0000
# 2 30.6873 84.3708 22.4068 0.0000 0.0000 0.0000
# 3 22.4066 22.4068 77.2055 0.0000 0.0000 0.0000
# 4 0.0000 0.0000 0.0000 27.4327 0.0000 0.0000
# 5 0.0000 0.0000 0.0000 0.0000 27.4327 0.0000
# 6 0.0000 0.0000 0.0000 0.0000 0.0000 8.6543
#
#
#
# Elastic Compliance Matrix: (Units=1/GPa)
#
#
# Indices 1 2 3 4 5 6 
#
# 1 0.014213 -0.004414 -0.002844 0.000000 0.000000 0.000000
# 2 -0.004414 0.014213 -0.002844 0.000000 0.000000 0.000000
# 3 -0.002844 -0.002844 0.014603 0.000000 0.000000 0.000000
# 4 0.000000 0.000000 0.000000 0.036453 0.000000 0.000000
# 5 0.000000 0.000000 0.000000 0.000000 0.036453 0.000000
# 6 0.000000 0.000000 0.000000 0.000000 0.000000 0.115549
#
#
# Mechanical properties :
#
#
# Convention : Reuss Voigt Hill
#
# Bulk Modulus (GPa) = 43.81054 44.10533 43.95794
# Shear Modulus (GPa) = 19.28289 24.06704 21.67496
#
# Velocity S-wave (km/s) = 3.22031 3.59768 3.41421
# Velocity P-wave (km/s) = 6.11462 6.40138 6.25964
#
# Compressibility (1/GPa) = 0.02282556
#
# Stress axis : x y z
#
# Youngs Moduli (GPa) = 70.35648 70.35664 68.47841
#
# Poissons Ratio (x) = 0.31058 0.19474
# Poissons Ratio (y) = 0.31058 0.19474
# Poissons Ratio (z) = 0.20008 0.20008
#
# Static dielectric constant tensor:
#      x y z
#    x 1.683660 0.000000 0.000000 
#    y 0.000000 1.683660 0.000000 
#    z 0.000000 0.000000 1.630970 
# 
# From -- ./inp_files/6244.got.cif
#   From: 2010.05.17/outbox.cif.g08.bks.cpg/sg125_4_cif.got.tgz:6244.got - 2010.05.20 11:54:10.
