data_PCOD9562763
_publ_section_title
;
Structure prediction by ZEFSAII (Michael W. Deem and Ramdas Pophale) SiO2 
 PCOD9562763
Probable space group: P 4/M C C
;
_chemical_formula_sum "Si O2"
_cell_formula_units_Z 104
_cell_length_a 18.045831
_cell_length_b 18.045831
_cell_length_c 19.648410
_cell_angle_alpha 90.000000
_cell_angle_beta 90.000000
_cell_angle_gamma 90.000000
_cell_volume 6398.544337
_symmetry_space_group_name_H-M "P 4/M C C"
_symmetry_group_IT_number 124
_symmetry_cell_setting 'tetragonal'
loop_
_space_group_symop_operation_xyz
x,y,z
-y,x,z
-x,-y,z
y,-x,z
x,-y,1/2-z
-x,y,1/2-z
y,x,1/2-z
-y,-x,1/2-z
-x,-y,-z
y,-x,-z
x,y,-z
-y,x,-z
-x,y,1/2+z
x,-y,1/2+z
-y,-x,1/2+z
y,x,1/2+z
loop_
_atom_site_type_symbol
_atom_site_label
_atom_site_fract_x
_atom_site_fract_y
_atom_site_fract_z
Si Si1 0.265916 0.848285 0.000000
Si Si2 0.755512 0.122836 0.236410
Si Si3 0.325387 0.937577 0.368968
Si Si4 0.482178 0.911907 0.420188
Si Si5 0.115229 0.763575 0.000000
Si Si6 0.641540 0.114124 0.127111
Si Si7 0.973932 0.850444 0.000000
Si Si8 0.112942 0.957914 0.157265
O O1 0.199405 0.789965 0.000000
O O2 0.316489 0.846154 0.065735
O O3 0.225955 0.928314 0.000000
O O4 0.804419 0.195582 0.250000
O O5 0.724149 0.082843 0.303711
O O6 0.681311 0.141363 0.194792
O O7 0.811852 0.072862 0.190310
O O8 0.407542 0.902618 0.376458
O O9 0.281482 0.907235 0.433690
O O10 0.339396 0.025772 0.374258
O O11 0.473267 0.889066 0.500000
O O12 0.554283 0.877167 0.384747
O O13 0.500000 0.000000 0.422744
O O14 0.061315 0.834052 0.000000
O O15 0.957869 0.883338 0.925171
O O16 0.042398 0.907040 0.177146
#
# Coordination Sequence:
#
# PCOD9562763 Si02
#       8
#     8  16  16  16   8  16   8  16
#     4  12  20  31  52  78 101 139 180 223 272 317
#     4  12  27  37  53  74 108 147 181 222 284 331
#     4  11  22  38  57  77 101 137 181 231 283 334
#     4   9  18  35  61  84 100 124 169 232 291 336
#     4  12  22  35  54  74 103 141 184 231 276 321
#     4  11  21  36  57  79 102 132 179 228 280 336
#     4  12  22  35  58  75  96 132 188 248 284 319
#     4  11  25  41  54  69  95 140 196 246 286 326
#
# _framework density 16.253696999999999
#
# number of rings (size 3 to 8) (size 9 to 14) (size 15 to 20)
#    0.000    0.923    4.615    2.769    6.462    1.231 
#    0.000    3.077    0.000    0.000    0.000    0.000 
#    0.000    0.000    0.000    0.000    0.000   53.846 
#
# Total GULP energy -580910.589423 kJ/mol
# GULP energy per Si atom -5585.678744 kJ/mol
# Density = 1.621670 g / cm^3
# Si number density = 16.253697 Si / 1000 Ang^3
#
#
#
# Elastic Constant Matrix: (Units=GPa)
#
#
# Indices 1 2 3 4 5 6 
#
# 1 85.7134 24.3838 34.4169 0.0000 0.0000 0.0000
# 2 24.3838 85.7133 34.4167 0.0000 0.0000 0.0000
# 3 34.4169 34.4167 101.2502 0.0000 0.0000 0.0000
# 4 0.0000 0.0000 0.0000 21.1037 0.0000 0.0000
# 5 0.0000 0.0000 0.0000 0.0000 21.1023 0.0000
# 6 0.0000 0.0000 0.0000 0.0000 0.0000 13.6717
#
#
#
# Elastic Compliance Matrix: (Units=1/GPa)
#
#
# Indices 1 2 3 4 5 6 
#
# 1 0.013920 -0.002386 -0.003921 0.000000 0.000000 0.000000
# 2 -0.002386 0.013920 -0.003921 0.000000 0.000000 0.000000
# 3 -0.003921 -0.003921 0.012542 0.000000 0.000000 0.000000
# 4 0.000000 0.000000 0.000000 0.047385 0.000000 0.000000
# 5 0.000000 0.000000 0.000000 0.000000 0.047388 0.000000
# 6 0.000000 0.000000 0.000000 0.000000 0.000000 0.073144
#
#
# Mechanical properties :
#
#
# Convention : Reuss Voigt Hill
#
# Bulk Modulus (GPa) = 50.18183 51.01240 50.59712
# Shear Modulus (GPa) = 21.24090 23.13950 22.19020
#
# Velocity S-wave (km/s) = 3.61894 3.77722 3.69892
# Velocity P-wave (km/s) = 6.95726 7.10467 7.03135
#
# Compressibility (1/GPa) = 0.01992753
#
# Stress axis : x y z
#
# Youngs Moduli (GPa) = 71.84043 71.84046 79.73254
#
# Poissons Ratio (x) = 0.17138 0.31260
# Poissons Ratio (y) = 0.17138 0.31260
# Poissons Ratio (z) = 0.28166 0.28166
#
# Static dielectric constant tensor:
#      x y z
#    x 1.559310 0.000000 0.000000 
#    y 0.000000 1.559310 0.000000 
#    z 0.000000 0.000000 1.137000 
# 
# From -- ./inp_files/4397.got.cif
#   From: 2010.05.17/outbox.cif.g08.bks.cpg/sg124_3_cif.got.tgz:4397.got - 2010.05.20 11:49:17.
