data_PCOD9562656
_publ_section_title
;
Structure prediction by ZEFSAII (Michael W. Deem and Ramdas Pophale) SiO2 
 PCOD9562656
Probable space group: P 4/M C C
;
_chemical_formula_sum "Si O2"
_cell_formula_units_Z 112
_cell_length_a 13.916863
_cell_length_b 13.916863
_cell_length_c 24.508620
_cell_angle_alpha 90.000000
_cell_angle_beta 90.000000
_cell_angle_gamma 90.000000
_cell_volume 4746.806870
_symmetry_space_group_name_H-M "P 4/M C C"
_symmetry_group_IT_number 124
_symmetry_cell_setting 'tetragonal'
loop_
_space_group_symop_operation_xyz
x,y,z
-y,x,z
-x,-y,z
y,-x,z
x,-y,1/2-z
-x,y,1/2-z
y,x,1/2-z
-y,-x,1/2-z
-x,-y,-z
y,-x,-z
x,y,-z
-y,x,-z
-x,y,1/2+z
x,-y,1/2+z
-y,-x,1/2+z
y,x,1/2+z
loop_
_atom_site_type_symbol
_atom_site_label
_atom_site_fract_x
_atom_site_fract_y
_atom_site_fract_z
Si Si1 0.302973 0.818608 0.662856
Si Si2 0.009029 0.838538 0.560513
Si Si3 0.559090 0.897451 0.064886
Si Si4 0.729231 0.599347 0.938504
Si Si5 0.278535 0.131246 0.628718
Si Si6 0.890149 0.398203 0.734699
Si Si7 0.387087 0.396919 0.661538
O O1 0.365050 0.867837 0.613452
O O2 0.190283 0.810253 0.652719
O O3 0.319810 0.861273 0.721707
O O4 0.337666 0.708049 0.673013
O O5 0.010920 0.794845 0.500000
O O6 0.031760 0.757751 0.604522
O O7 0.914383 0.902943 0.564146
O O8 0.489197 0.803804 0.067097
O O9 0.500000 0.000000 0.075246
O O10 0.591041 0.903239 0.000000
O O11 0.798202 0.686030 0.919212
O O12 0.633868 0.597825 0.901947
O O13 0.700149 0.611361 0.000000
O O14 0.362642 0.122810 0.673233
O O15 0.841810 0.500000 0.750000
O O16 0.000000 0.409724 0.750000
O O17 0.494204 0.370276 0.680631
#
# Coordination Sequence:
#
# PCOD9562656 Si02
#       7
#    16  16  16  16  16  16  16
#     4  11  24  42  68  96 133 173 231 288 341 417
#     4   9  20  40  68 103 140 178 218 271 350 438
#     4  10  22  39  64  97 140 183 224 279 347 416
#     4  10  21  37  59  94 134 173 218 272 333 410
#     4  11  24  41  66  98 134 174 227 289 344 410
#     4  11  27  46  70  95 127 179 234 293 355 418
#     4  10  21  39  64  94 130 177 222 276 339 410
#
# _framework density 23.594809000000001
#
# number of rings (size 3 to 8) (size 9 to 14) (size 15 to 20)
#    0.000    1.714    1.429    2.143    8.000    3.429 
#    0.000    3.571    0.000    0.000    0.000    0.000 
#    0.000    0.000    0.000    0.000    0.000    0.000 
#
# Total GULP energy -624604.670147 kJ/mol
# GULP energy per Si atom -5576.827412 kJ/mol
# Density = 2.354111 g / cm^3
# Si number density = 23.594809 Si / 1000 Ang^3
#
#
#
# Elastic Constant Matrix: (Units=GPa)
#
#
# Indices 1 2 3 4 5 6 
#
# 1 85.6380 15.4009 20.4708 0.0000 0.0000 0.0000
# 2 15.4009 85.6380 20.4708 0.0000 0.0000 0.0000
# 3 20.4708 20.4708 90.3433 0.0000 0.0000 0.0000
# 4 0.0000 0.0000 0.0000 24.3874 0.0000 0.0000
# 5 0.0000 0.0000 0.0000 0.0000 24.3874 0.0000
# 6 0.0000 0.0000 0.0000 0.0000 0.0000 21.6681
#
#
#
# Elastic Compliance Matrix: (Units=1/GPa)
#
#
# Indices 1 2 3 4 5 6 
#
# 1 0.012568 -0.001670 -0.002469 0.000000 0.000000 0.000000
# 2 -0.001670 0.012568 -0.002469 0.000000 0.000000 0.000000
# 3 -0.002469 -0.002469 0.012188 0.000000 0.000000 0.000000
# 4 0.000000 0.000000 0.000000 0.041005 0.000000 0.000000
# 5 0.000000 0.000000 0.000000 0.000000 0.041005 0.000000
# 6 0.000000 0.000000 0.000000 0.000000 0.000000 0.046151
#
#
# Mechanical properties :
#
#
# Convention : Reuss Voigt Hill
#
# Bulk Modulus (GPa) = 41.48313 41.58938 41.53626
# Shear Modulus (GPa) = 26.77576 27.77368 27.27472
#
# Velocity S-wave (km/s) = 3.37236 3.43463 3.40363
# Velocity P-wave (km/s) = 5.72568 5.77872 5.75226
#
# Compressibility (1/GPa) = 0.02410619
#
# Stress axis : x y z
#
# Youngs Moduli (GPa) = 79.56951 79.56951 82.04838
#
# Poissons Ratio (x) = 0.13287 0.20260
# Poissons Ratio (y) = 0.13287 0.20260
# Poissons Ratio (z) = 0.19648 0.19648
#
# Static dielectric constant tensor:
#      x y z
#    x 1.965310 0.000000 0.000000 
#    y 0.000000 1.965310 0.000000 
#    z 0.000000 0.000000 1.915740 
# 
# From -- ./inp_files/6112.got.cif
#   From: 2010.05.17/outbox.cif.g08.bks.cpg/sg124_4_cif.got.tgz:6112.got - 2010.05.20 11:49:17.
