data_PCOD9562064
_publ_section_title
;
Structure prediction by ZEFSAII (Michael W. Deem and Ramdas Pophale) SiO2 
 PCOD9562064
Probable space group: P 4/M M M
;
_chemical_formula_sum "Si O2"
_cell_formula_units_Z 88
_cell_length_a 18.549207
_cell_length_b 18.549207
_cell_length_c 14.614392
_cell_angle_alpha 90.000000
_cell_angle_beta 90.000000
_cell_angle_gamma 90.000000
_cell_volume 5028.418873
_symmetry_space_group_name_H-M "P 4/M M M"
_symmetry_group_IT_number 123
_symmetry_cell_setting 'tetragonal'
loop_
_space_group_symop_operation_xyz
x,y,z
-y,x,z
-x,-y,z
y,-x,z
x,-y,-z
-x,y,-z
y,x,-z
-y,-x,-z
-x,-y,-z
y,-x,-z
x,y,-z
-y,x,-z
-x,y,z
x,-y,z
-y,-x,z
y,x,z
loop_
_atom_site_type_symbol
_atom_site_label
_atom_site_fract_x
_atom_site_fract_y
_atom_site_fract_z
Si Si1 0.913271 0.500000 0.890614
Si Si2 0.304591 0.187876 0.396336
Si Si3 0.417069 0.698036 0.141512
Si Si4 0.690945 0.419550 0.637454
Si Si5 0.914851 0.360267 0.762157
Si Si6 0.299008 0.820527 0.899489
O O1 0.895467 0.431654 0.824019
O O2 0.000000 0.500000 0.899036
O O3 0.887406 0.500000 0.000000
O O4 0.291629 0.161685 0.500000
O O5 0.231857 0.231857 0.364475
O O6 0.365031 0.249887 0.398832
O O7 0.340962 0.128587 0.330226
O O8 0.500000 0.703561 0.110087
O O9 0.375061 0.624940 0.112989
O O10 0.418513 0.698187 0.252039
O O11 0.365159 0.763812 0.113722
O O12 0.701373 0.500000 0.605555
O O13 0.613249 0.386752 0.615062
O O14 0.884834 0.298832 0.828627
O O15 0.000000 0.361985 0.746752
O O16 0.228864 0.771136 0.891845
O O17 0.306151 0.851528 0.000000
#
# Coordination Sequence:
#
# PCOD9562064 Si02
#       6
#     8  16  16  16  16  16
#     4   9  20  36  51  75 111 147 183 224 276 330
#     4  10  21  37  57  79 106 142 179 217 269 330
#     4   9  17  29  46  68  96 131 174 223 272 321
#     4   9  17  30  48  70  96 129 171 218 268 316
#     4  11  22  36  55  78 106 140 181 227 273 320
#     4  10  20  33  51  75 103 137 176 218 267 323
#
# _framework density 17.500530999999999
#
# number of rings (size 3 to 8) (size 9 to 14) (size 15 to 20)
#    0.000    2.273    1.818    1.091    2.545    2.545 
#    0.000    1.818    0.000    1.636    0.000    5.091 
#    0.000    5.818    0.000   16.000    0.000    0.000 
#
# Total GULP energy -489919.592892 kJ/mol
# GULP energy per Si atom -5567.268101 kJ/mol
# Density = 1.746070 g / cm^3
# Si number density = 17.500531 Si / 1000 Ang^3
#
#
#
# Elastic Constant Matrix: (Units=GPa)
#
#
# Indices 1 2 3 4 5 6 
#
# 1 71.1995 12.4431 32.7178 0.0000 0.0000 0.0000
# 2 12.4431 71.1995 32.7178 0.0000 0.0000 0.0000
# 3 32.7178 32.7178 112.1004 0.0000 0.0000 0.0000
# 4 0.0000 0.0000 0.0000 -16.7004 0.0000 0.0000
# 5 0.0000 0.0000 0.0000 0.0000 -16.7004 0.0000
# 6 0.0000 0.0000 0.0000 0.0000 0.0000 11.4930
#
#
#
# Elastic Compliance Matrix: (Units=1/GPa)
#
#
# Indices 1 2 3 4 5 6 
#
# 1 0.016256 -0.000763 -0.004522 0.000000 0.000000 0.000000
# 2 -0.000763 0.016256 -0.004522 0.000000 0.000000 0.000000
# 3 -0.004522 -0.004522 0.011560 0.000000 0.000000 0.000000
# 4 0.000000 0.000000 0.000000 -0.059879 0.000000 0.000000
# 5 0.000000 0.000000 0.000000 0.000000 -0.059879 0.000000
# 6 0.000000 0.000000 0.000000 0.000000 0.000000 0.087009
#
#
# Mechanical properties :
#
#
# Convention : Reuss Voigt Hill
#
# Bulk Modulus (GPa) = 40.88469 45.58408 43.23439
# Shear Modulus (GPa) = 127.90724 7.39317 67.65021
#
# Velocity S-wave (km/s) = 8.55841 2.05760 6.22415
# Velocity P-wave (km/s) = 11.00338 5.63460 8.74137
#
# Compressibility (1/GPa) = 0.02445903
#
# Stress axis : x y z
#
# Youngs Moduli (GPa) = 61.51454 61.51454 86.50449
#
# Poissons Ratio (x) = 0.04694 0.39116
# Poissons Ratio (y) = 0.04694 0.39116
# Poissons Ratio (z) = 0.27816 0.27816
#
# Static dielectric constant tensor:
#      x y z
#    x 1.603110 0.000000 0.000000 
#    y 0.000000 1.603110 0.000000 
#    z 0.000000 0.000000 1.692410 
# 
# From -- ./inp_files/4058.got.cif
#   From: 2010.05.17/outbox.cif.g08.bks.cpg/sg123_3_cif.got.tgz:4058.got - 2010.05.20 11:43:04.
