data_PCOD9562355
_publ_section_title
;
Structure prediction by ZEFSAII (Michael W. Deem and Ramdas Pophale) SiO2 
 PCOD9562355
Probable space group: P 4/M C C
;
_chemical_formula_sum "Si O2"
_cell_formula_units_Z 96
_cell_length_a 17.013873
_cell_length_b 17.013873
_cell_length_c 16.978818
_cell_angle_alpha 90.000000
_cell_angle_beta 90.000000
_cell_angle_gamma 90.000000
_cell_volume 4914.890273
_symmetry_space_group_name_H-M "P 4/M C C"
_symmetry_group_IT_number 124
_symmetry_cell_setting 'tetragonal'
loop_
_space_group_symop_operation_xyz
x,y,z
-y,x,z
-x,-y,z
y,-x,z
x,-y,1/2-z
-x,y,1/2-z
y,x,1/2-z
-y,-x,1/2-z
-x,-y,-z
y,-x,-z
x,y,-z
-y,x,-z
-x,y,1/2+z
x,-y,1/2+z
-y,-x,1/2+z
y,x,1/2+z
loop_
_atom_site_type_symbol
_atom_site_label
_atom_site_fract_x
_atom_site_fract_y
_atom_site_fract_z
Si Si1 0.194656 0.535422 0.910129
Si Si2 0.998298 0.207746 0.409897
Si Si3 0.979909 0.390376 0.086121
Si Si4 0.423011 0.876903 0.803663
Si Si5 0.835235 0.172044 0.903407
Si Si6 0.677573 0.224554 0.306454
O O1 0.187088 0.450666 0.868772
O O2 0.240723 0.600925 0.859984
O O3 0.104484 0.569033 0.909718
O O4 0.220610 0.530826 0.000000
O O5 0.989074 0.179733 0.500000
O O6 0.028645 0.296995 0.411380
O O7 0.909776 0.205605 0.378722
O O8 0.073438 0.162170 0.377730
O O9 0.040645 0.410337 0.153963
O O10 0.015298 0.410017 0.000000
O O11 0.500000 0.882864 0.750000
O O12 0.351467 0.846308 0.750927
O O13 0.799475 0.247971 0.860286
O O14 0.831023 0.182628 0.000000
O O15 0.705635 0.294366 0.250000
#
# Coordination Sequence:
#
# PCOD9562355 Si02
#       6
#    16  16  16  16  16  16
#     4  10  20  37  58  77 107 145 182 226 277 336
#     4   9  18  31  53  75  97 137 194 251 289 329
#     4  10  18  33  53  76 103 138 182 226 278 340
#     4  10  22  34  50  80 111 138 178 223 276 338
#     4  10  19  36  53  73 102 144 201 253 299 340
#     4  11  22  36  52  78 114 151 182 222 283 345
#
# _framework density 19.53248
#
# number of rings (size 3 to 8) (size 9 to 14) (size 15 to 20)
#    0.000    2.000    1.667    2.500    0.000    6.333 
#    3.000    4.167    0.000    0.000    0.000    1.167 
#    0.000   27.000    0.000   13.500    0.000    0.000 
#
# Total GULP energy -535443.839564 kJ/mol
# GULP energy per Si atom -5577.539995 kJ/mol
# Density = 1.948802 g / cm^3
# Si number density = 19.532480 Si / 1000 Ang^3
#
#
#
# Elastic Constant Matrix: (Units=GPa)
#
#
# Indices 1 2 3 4 5 6 
#
# 1 32.5641 -8.9880 9.2638 0.0000 0.0000 0.0000
# 2 -8.9880 32.5625 9.2632 0.0000 0.0000 0.0000
# 3 9.2638 9.2632 90.1892 0.0000 0.0000 0.0000
# 4 0.0000 0.0000 0.0000 24.1138 0.0000 0.0000
# 5 0.0000 0.0000 0.0000 0.0000 24.1148 0.0000
# 6 0.0000 0.0000 0.0000 0.0000 0.0000 21.4216
#
#
#
# Elastic Compliance Matrix: (Units=1/GPa)
#
#
# Indices 1 2 3 4 5 6 
#
# 1 0.035103 0.011038 -0.004739 0.000000 0.000000 0.000000
# 2 0.011038 0.035105 -0.004739 0.000000 0.000000 0.000000
# 3 -0.004739 -0.004739 0.012061 0.000000 0.000000 0.000000
# 4 0.000000 0.000000 0.000000 0.041470 0.000000 0.000000
# 5 0.000000 0.000000 0.000000 0.000000 0.041468 0.000000
# 6 0.000000 0.000000 0.000000 0.000000 0.000000 0.046682
#
#
# Mechanical properties :
#
#
# Convention : Reuss Voigt Hill
#
# Bulk Modulus (GPa) = 11.71126 19.37706 15.54416
# Shear Modulus (GPa) = 21.07618 23.64850 22.36234
#
# Velocity S-wave (km/s) = 3.28843 3.48332 3.38728
# Velocity P-wave (km/s) = 4.51964 5.11078 4.82427
#
# Compressibility (1/GPa) = 0.08538790
#
# Stress axis : x y z
#
# Youngs Moduli (GPa) = 28.48723 28.48591 82.90930
#
# Poissons Ratio (x) = -0.31442 0.39293
# Poissons Ratio (y) = -0.31443 0.39293
# Poissons Ratio (z) = 0.13501 0.13500
#
# Static dielectric constant tensor:
#      x y z
#    x 1.710690 0.000000 0.000000 
#    y 0.000000 1.710690 0.000000 
#    z 0.000000 0.000000 1.780130 
# 
# From -- ./inp_files/4288.got.cif
#   From: 2010.05.17/outbox.cif.g08.bks.cpg/sg124_3_cif.got.tgz:4288.got - 2010.05.20 11:49:17.
