data_PCOD9562435
_publ_section_title
;
Structure prediction by ZEFSAII (Michael W. Deem and Ramdas Pophale) SiO2 
 PCOD9562435
Probable space group: P 4/M C C
;
_chemical_formula_sum "Si O2"
_cell_formula_units_Z 96
_cell_length_a 23.872473
_cell_length_b 23.872473
_cell_length_c 9.565362
_cell_angle_alpha 90.000000
_cell_angle_beta 90.000000
_cell_angle_gamma 90.000000
_cell_volume 5451.251663
_symmetry_space_group_name_H-M "P 4/M C C"
_symmetry_group_IT_number 124
_symmetry_cell_setting 'tetragonal'
loop_
_space_group_symop_operation_xyz
x,y,z
-y,x,z
-x,-y,z
y,-x,z
x,-y,1/2-z
-x,y,1/2-z
y,x,1/2-z
-y,-x,1/2-z
-x,-y,-z
y,-x,-z
x,y,-z
-y,x,-z
-x,y,1/2+z
x,-y,1/2+z
-y,-x,1/2+z
y,x,1/2+z
loop_
_atom_site_type_symbol
_atom_site_label
_atom_site_fract_x
_atom_site_fract_y
_atom_site_fract_z
Si Si1 0.752322 0.824645 0.839873
Si Si2 0.945888 0.702265 0.669983
Si Si3 0.584947 0.051610 0.165269
Si Si4 0.627576 0.372425 0.250000
Si Si5 0.756855 0.638046 0.339852
Si Si6 0.444649 0.578760 0.000000
Si Si7 0.821460 0.448424 0.660224
O O1 0.803042 0.803042 0.750000
O O2 0.732227 0.886929 0.803586
O O3 0.701559 0.779476 0.829078
O O4 0.769262 0.825615 0.000000
O O5 0.953426 0.697917 0.500000
O O6 0.939764 0.642221 0.746935
O O7 0.000000 0.727716 0.750000
O O8 0.554474 0.111155 0.168109
O O9 0.558519 0.000000 0.250000
O O10 0.593652 0.037969 0.000000
O O11 0.625881 0.308394 0.307352
O O12 0.611866 0.417635 0.369162
O O13 0.768437 0.620184 0.500000
O O14 0.794572 0.605514 0.229593
O O15 0.424348 0.512900 0.000000
O O16 0.800486 0.500000 0.750000
O O17 0.805041 0.453402 0.500000
#
# Coordination Sequence:
#
# PCOD9562435 Si02
#       7
#    16  16  16   8  16   8  16
#     4  10  21  35  57  84 118 157 194 240 290 342
#     4  10  19  33  54  81 112 153 198 242 288 338
#     4  10  20  34  54  79 105 146 195 241 289 338
#     4  12  24  43  70  94 116 152 186 228 295 362
#     4  11  23  41  60  86 119 151 187 230 284 354
#     4  11  26  48  70  92 118 146 188 244 302 366
#     4  11  25  40  57  80 111 148 190 239 291 344
#
# _framework density 17.610634000000001
#
# number of rings (size 3 to 8) (size 9 to 14) (size 15 to 20)
#    0.000    1.417    3.333    3.000    1.167    6.333 
#    0.000    1.667    0.000    0.000    0.000    0.000 
#    0.000    0.333    0.000    3.667    0.000    2.667 
#
# Total GULP energy -535124.831129 kJ/mol
# GULP energy per Si atom -5574.216991 kJ/mol
# Density = 1.757055 g / cm^3
# Si number density = 17.610634 Si / 1000 Ang^3
#
#
#
# Elastic Constant Matrix: (Units=GPa)
#
#
# Indices 1 2 3 4 5 6 
#
# 1 74.3647 26.4035 48.3554 0.0000 0.0000 0.0000
# 2 26.4035 74.3649 48.3554 0.0000 0.0000 0.0000
# 3 48.3554 48.3554 141.5703 0.0000 0.0000 0.0000
# 4 0.0000 0.0000 0.0000 31.1186 0.0000 0.0000
# 5 0.0000 0.0000 0.0000 0.0000 31.1183 0.0000
# 6 0.0000 0.0000 0.0000 0.0000 0.0000 3.7699
#
#
#
# Elastic Compliance Matrix: (Units=1/GPa)
#
#
# Indices 1 2 3 4 5 6 
#
# 1 0.017807 -0.003043 -0.005043 0.000000 0.000000 0.000000
# 2 -0.003043 0.017807 -0.005043 0.000000 0.000000 0.000000
# 3 -0.005043 -0.005043 0.010508 0.000000 0.000000 0.000000
# 4 0.000000 0.000000 0.000000 0.032135 0.000000 0.000000
# 5 0.000000 0.000000 0.000000 0.000000 0.032135 0.000000
# 6 0.000000 0.000000 0.000000 0.000000 0.000000 0.265262
#
#
# Mechanical properties :
#
#
# Convention : Reuss Voigt Hill
#
# Bulk Modulus (GPa) = 50.34093 59.61428 54.97760
# Shear Modulus (GPa) = 12.23891 24.34705 18.29298
#
# Velocity S-wave (km/s) = 2.63909 3.72226 3.22646
# Velocity P-wave (km/s) = 6.15906 7.23867 6.72058
#
# Compressibility (1/GPa) = 0.01986455
#
# Stress axis : x y z
#
# Youngs Moduli (GPa) = 56.15836 56.15857 95.16196
#
# Poissons Ratio (x) = 0.17091 0.47987
# Poissons Ratio (y) = 0.17091 0.47987
# Poissons Ratio (z) = 0.28319 0.28319
#
# Static dielectric constant tensor:
#      x y z
#    x 1.628310 0.000000 0.000000 
#    y 0.000000 1.628310 0.000000 
#    z 0.000000 0.000000 1.607390 
# 
# From -- ./inp_files/1432.got.cif
#   From: 2010.05.17/outbox.cif.g08.bks.cpg/sg124_1_cif.got.tgz:1432.got - 2010.05.20 11:49:17.
