data_PCOD9562454
_publ_section_title
;
Structure prediction by ZEFSAII (Michael W. Deem and Ramdas Pophale) SiO2 
 PCOD9562454
Probable space group: P 4/M C C
;
_chemical_formula_sum "Si O2"
_cell_formula_units_Z 88
_cell_length_a 18.784891
_cell_length_b 18.784891
_cell_length_c 14.611768
_cell_angle_alpha 90.000000
_cell_angle_beta 90.000000
_cell_angle_gamma 90.000000
_cell_volume 5156.085695
_symmetry_space_group_name_H-M "P 4/M C C"
_symmetry_group_IT_number 124
_symmetry_cell_setting 'tetragonal'
loop_
_space_group_symop_operation_xyz
x,y,z
-y,x,z
-x,-y,z
y,-x,z
x,-y,1/2-z
-x,y,1/2-z
y,x,1/2-z
-y,-x,1/2-z
-x,-y,-z
y,-x,-z
x,y,-z
-y,x,-z
-x,y,1/2+z
x,-y,1/2+z
-y,-x,1/2+z
y,x,1/2+z
loop_
_atom_site_type_symbol
_atom_site_label
_atom_site_fract_x
_atom_site_fract_y
_atom_site_fract_z
Si Si1 0.190041 0.305518 0.263891
Si Si2 0.853260 0.588059 0.890370
Si Si3 0.377942 0.990172 0.609041
Si Si4 0.049343 0.222489 0.330385
Si Si5 0.569596 0.163057 0.610033
Si Si6 0.960159 0.885096 0.500000
O O1 0.257904 0.257904 0.250000
O O2 0.173587 0.347138 0.170193
O O3 0.124981 0.253549 0.295089
O O4 0.202759 0.366745 0.339562
O O5 0.937098 0.583841 0.866761
O O6 0.818658 0.511828 0.867780
O O7 0.847049 0.599733 0.000000
O O8 0.378885 0.986060 0.500000
O O9 0.295524 0.990053 0.638314
O O10 0.415472 0.918461 0.641321
O O11 0.054834 0.165376 0.411937
O O12 0.000000 0.191545 0.250000
O O13 0.576879 0.166936 0.500000
O O14 0.042879 0.912108 0.500000
#
# Coordination Sequence:
#
# PCOD9562454 Si02
#       6
#    16  16  16  16  16   8
#     4  11  24  36  52  84 113 153 187 230 281 339
#     4  10  19  34  55  82 113 149 183 223 272 339
#     4   9  16  31  52  81 110 135 169 215 271 337
#     4  11  22  39  59  82 106 137 187 240 300 346
#     4   9  19  34  55  80 114 148 184 224 274 338
#     4  11  28  46  62  76  95 140 202 270 321 344
#
# _framework density 17.067211
#
# number of rings (size 3 to 8) (size 9 to 14) (size 15 to 20)
#    0.000    1.909    2.727    1.091    3.818    2.909 
#    0.000    2.727    0.000    0.000    0.000    0.000 
#    0.000    5.818    0.000   16.000    0.000    0.000 
#
# Total GULP energy -490744.927768 kJ/mol
# GULP energy per Si atom -5576.646906 kJ/mol
# Density = 1.702837 g / cm^3
# Si number density = 17.067211 Si / 1000 Ang^3
#
#
#
# Elastic Constant Matrix: (Units=GPa)
#
#
# Indices 1 2 3 4 5 6 
#
# 1 91.4375 57.0459 51.8017 0.0000 0.0000 0.0000
# 2 57.0459 91.4375 51.8017 0.0000 0.0000 0.0000
# 3 51.8017 51.8017 93.8594 0.0000 0.0000 0.0000
# 4 0.0000 0.0000 0.0000 20.7200 0.0000 0.0000
# 5 0.0000 0.0000 0.0000 0.0000 20.7200 0.0000
# 6 0.0000 0.0000 0.0000 0.0000 0.0000 18.5501
#
#
#
# Elastic Compliance Matrix: (Units=1/GPa)
#
#
# Indices 1 2 3 4 5 6 
#
# 1 0.020015 -0.009062 -0.006045 0.000000 0.000000 0.000000
# 2 -0.009062 0.020015 -0.006045 0.000000 0.000000 0.000000
# 3 -0.006045 -0.006045 0.017326 0.000000 0.000000 0.000000
# 4 0.000000 0.000000 0.000000 0.048263 0.000000 0.000000
# 5 0.000000 0.000000 0.000000 0.000000 0.048263 0.000000
# 6 0.000000 0.000000 0.000000 0.000000 0.000000 0.053908
#
#
# Mechanical properties :
#
#
# Convention : Reuss Voigt Hill
#
# Bulk Modulus (GPa) = 66.43437 66.44810 66.44123
# Shear Modulus (GPa) = 19.59941 19.73703 19.66822
#
# Velocity S-wave (km/s) = 3.39243 3.40432 3.39838
# Velocity P-wave (km/s) = 7.37255 7.38040 7.37647
#
# Compressibility (1/GPa) = 0.01505245
#
# Stress axis : x y z
#
# Youngs Moduli (GPa) = 49.96342 49.96342 57.71511
#
# Poissons Ratio (x) = 0.45278 0.34887
# Poissons Ratio (y) = 0.45278 0.34887
# Poissons Ratio (z) = 0.30201 0.30201
#
# Static dielectric constant tensor:
#      x y z
#    x 1.569390 0.000000 0.000000 
#    y 0.000000 1.569390 0.000000 
#    z 0.000000 0.000000 1.627210 
# 
# From -- ./inp_files/3182.got.cif
#   From: 2010.05.17/outbox.cif.g08.bks.cpg/sg124_2_cif.got.tgz:3182.got - 2010.05.20 11:49:17.
