data_PCOD9562966
_publ_section_title
;
Structure prediction by ZEFSAII (Michael W. Deem and Ramdas Pophale) SiO2 
 PCOD9562966
Probable space group: P 4/N B M
;
_chemical_formula_sum "Si O2"
_cell_formula_units_Z 72
_cell_length_a 14.237283
_cell_length_b 14.237283
_cell_length_c 17.326317
_cell_angle_alpha 90.000000
_cell_angle_beta 90.000000
_cell_angle_gamma 90.000000
_cell_volume 3512.048393
_symmetry_space_group_name_H-M "P 4/N B M"
_symmetry_group_IT_number 125
_space_group.IT_coordinate_system_code '2'
_symmetry_cell_setting 'tetragonal'
loop_
_space_group_symop_operation_xyz
x,y,z
1/2-y,x,z
1/2-x,1/2-y,z
y,1/2-x,z
x,1/2-y,-z
1/2-x,y,-z
y,x,-z
1/2-y,1/2-x,-z
-x,-y,-z
1/2+y,-x,-z
1/2+x,1/2+y,-z
-y,1/2+x,-z
-x,1/2+y,z
1/2+x,-y,z
-y,-x,z
1/2+y,1/2+x,z
loop_
_atom_site_type_symbol
_atom_site_label
_atom_site_fract_x
_atom_site_fract_y
_atom_site_fract_z
Si Si1 0.885397 0.819464 0.863059
Si Si2 0.511366 0.011366 0.909726
Si Si3 0.077529 0.922472 0.228054
Si Si4 0.387882 0.377694 0.306335
Si Si5 0.828118 0.171883 0.645733
Si Si6 0.524308 0.747425 0.590413
O O1 0.789089 0.873266 0.888775
O O2 0.886101 0.812427 0.769402
O O3 0.974569 0.883478 0.887136
O O4 0.441971 0.941971 0.861256
O O5 0.500000 0.000000 0.000000
O O6 0.150656 0.849345 0.263663
O O7 0.978069 0.897610 0.265511
O O8 0.472509 0.350896 0.363920
O O9 0.301416 0.392372 0.364431
O O10 0.750000 0.250000 0.635926
O O11 0.924874 0.204393 0.606782
O O12 0.541974 0.750000 0.500000
#
# Coordination Sequence:
#
# PCOD9562966 Si02
#       6
#    16   8   8  16   8  16
#     4  10  20  39  68  95 125 168 214 264 310 383
#     4  10  22  40  65  98 133 161 198 263 325 388
#     4   8  20  39  60  84 119 154 200 245 303 373
#     4  10  19  37  55  85 117 155 202 250 301 367
#     4  10  24  41  59  84 117 164 223 261 302 379
#     4  11  23  35  57  85 120 159 205 266 317 358
#
# _framework density 20.500855000000001
#
# number of rings (size 3 to 8) (size 9 to 14) (size 15 to 20)
#    0.000    2.000    2.222    0.667    3.111    1.333 
#    0.000    5.556    0.000    0.000    0.000    0.000 
#    0.000    0.000    0.000    0.000    0.000    0.000 
#
# Total GULP energy -400953.176493 kJ/mol
# GULP energy per Si atom -5568.794118 kJ/mol
# Density = 2.045419 g / cm^3
# Si number density = 20.500855 Si / 1000 Ang^3
#
#
#
# Elastic Constant Matrix: (Units=GPa)
#
#
# Indices 1 2 3 4 5 6 
#
# 1 51.6608 50.4563 21.0241 0.0000 0.0000 0.0000
# 2 50.4563 51.6608 21.0241 0.0000 0.0000 0.0000
# 3 21.0241 21.0241 142.3156 0.0000 0.0000 0.0000
# 4 0.0000 0.0000 0.0000 14.2991 0.0000 0.0000
# 5 0.0000 0.0000 0.0000 0.0000 14.2991 0.0000
# 6 0.0000 0.0000 0.0000 0.0000 0.0000 43.8452
#
#
#
# Elastic Compliance Matrix: (Units=1/GPa)
#
#
# Indices 1 2 3 4 5 6 
#
# 1 0.420301 -0.409874 -0.001540 0.000000 0.000000 0.000000
# 2 -0.409874 0.420301 -0.001540 0.000000 0.000000 0.000000
# 3 -0.001540 -0.001540 0.007482 0.000000 0.000000 0.000000
# 4 0.000000 0.000000 0.000000 0.069934 0.000000 0.000000
# 5 0.000000 0.000000 0.000000 0.000000 0.069934 0.000000
# 6 0.000000 0.000000 0.000000 0.000000 0.000000 0.022808
#
#
# Mechanical properties :
#
#
# Convention : Reuss Voigt Hill
#
# Bulk Modulus (GPa) = 45.09746 47.84959 46.47353
# Shear Modulus (GPa) = 2.71141 24.69754 13.70447
#
# Velocity S-wave (km/s) = 1.15128 3.47466 2.58831
# Velocity P-wave (km/s) = 4.87984 6.28400 5.62590
#
# Compressibility (1/GPa) = 0.02217420
#
# Stress axis : x y z
#
# Youngs Moduli (GPa) = 2.37925 2.37925 133.65855
#
# Poissons Ratio (x) = 0.97519 0.20588
# Poissons Ratio (y) = 0.97519 0.20588
# Poissons Ratio (z) = 0.00366 0.00366
#
# Static dielectric constant tensor:
#      x y z
#    x 1.848550 0.000000 0.000000 
#    y 0.000000 1.848550 0.000000 
#    z 0.000000 0.000000 1.751200 
# 
# From -- ./inp_files/5364.got.cif
#   From: 2010.05.17/outbox.cif.g08.bks.cpg/sg125_3_cif.got.tgz:5364.got - 2010.05.20 11:54:10.
