data_PCOD9562103
_publ_section_title
;
Structure prediction by ZEFSAII (Michael W. Deem and Ramdas Pophale) SiO2 
 PCOD9562103
Probable space group: P 4/M M M
;
_chemical_formula_sum "Si O2"
_cell_formula_units_Z 80
_cell_length_a 12.983011
_cell_length_b 12.983011
_cell_length_c 27.856914
_cell_angle_alpha 90.000000
_cell_angle_beta 90.000000
_cell_angle_gamma 90.000000
_cell_volume 4695.521717
_symmetry_space_group_name_H-M "P 4/M M M"
_symmetry_group_IT_number 123
_symmetry_cell_setting 'tetragonal'
loop_
_space_group_symop_operation_xyz
x,y,z
-y,x,z
-x,-y,z
y,-x,z
x,-y,-z
-x,y,-z
y,x,-z
-y,-x,-z
-x,-y,-z
y,-x,-z
x,y,-z
-y,x,-z
-x,y,z
x,-y,z
-y,-x,z
y,x,z
loop_
_atom_site_type_symbol
_atom_site_label
_atom_site_fract_x
_atom_site_fract_y
_atom_site_fract_z
Si Si1 0.880022 0.291573 0.693001
Si Si2 0.881078 0.708408 0.500000
Si Si3 0.500000 0.124820 0.944970
Si Si4 0.790368 0.378942 0.210166
Si Si5 0.706371 0.878249 0.113170
Si Si6 0.208347 0.619217 0.403706
O O1 0.811942 0.188059 0.693132
O O2 0.841792 0.357832 0.738353
O O3 0.856006 0.349538 0.643316
O O4 0.000000 0.269788 0.697235
O O5 0.808727 0.808727 0.500000
O O6 0.853272 0.645148 0.547799
O O7 0.000000 0.736411 0.500000
O O8 0.605899 0.153826 0.918066
O O9 0.500000 0.000000 0.944864
O O10 0.500000 0.160482 0.000000
O O11 0.779221 0.500000 0.201738
O O12 0.682132 0.317869 0.209303
O O13 0.859064 0.328231 0.168200
O O14 0.803846 0.803846 0.103196
O O15 0.727525 0.000000 0.105336
O O16 0.234933 0.500000 0.402095
O O17 0.309450 0.690551 0.403796
#
# Coordination Sequence:
#
# PCOD9562103 Si02
#       6
#    16   8   8  16  16  16
#     4  10  21  35  52  76 104 135 173 215 260 313
#     4  10  21  36  54  76 102 132 169 212 256 306
#     4   9  18  34  56  79 105 141 183 223 262 310
#     4  10  20  34  53  78 107 140 178 220 266 317
#     4  10  20  34  54  81 111 144 182 223 270 322
#     4  10  21  36  53  76 103 132 170 212 256 308
#
# _framework density 17.037510000000001
#
# number of rings (size 3 to 8) (size 9 to 14) (size 15 to 20)
#    0.000    2.100    1.000    2.100    0.000    5.300 
#    0.000    0.000    0.000   12.900    0.000    3.500 
#    0.000    0.000    0.000    0.000    0.000    0.000 
#
# Total GULP energy -446369.835724 kJ/mol
# GULP energy per Si atom -5579.622947 kJ/mol
# Density = 1.699873 g / cm^3
# Si number density = 17.037510 Si / 1000 Ang^3
#
#
#
# Elastic Constant Matrix: (Units=GPa)
#
#
# Indices 1 2 3 4 5 6 
#
# 1 132.6170 15.6796 33.4420 0.0000 0.0000 0.0000
# 2 15.6796 132.6170 33.4420 0.0000 0.0000 0.0000
# 3 33.4420 33.4420 104.8832 0.0000 0.0000 0.0000
# 4 0.0000 0.0000 0.0000 19.1142 0.0000 0.0000
# 5 0.0000 0.0000 0.0000 0.0000 19.1142 0.0000
# 6 0.0000 0.0000 0.0000 0.0000 0.0000 6.1449
#
#
#
# Elastic Compliance Matrix: (Units=1/GPa)
#
#
# Indices 1 2 3 4 5 6 
#
# 1 0.008214 -0.000338 -0.002511 0.000000 0.000000 0.000000
# 2 -0.000338 0.008214 -0.002511 0.000000 0.000000 0.000000
# 3 -0.002511 -0.002511 0.011136 0.000000 0.000000 0.000000
# 4 0.000000 0.000000 0.000000 0.052317 0.000000 0.000000
# 5 0.000000 0.000000 0.000000 0.000000 0.052317 0.000000
# 6 0.000000 0.000000 0.000000 0.000000 0.000000 0.162738
#
#
# Mechanical properties :
#
#
# Convention : Reuss Voigt Hill
#
# Bulk Modulus (GPa) = 59.37307 59.47158 59.42233
# Shear Modulus (GPa) = 16.06323 28.04490 22.05407
#
# Velocity S-wave (km/s) = 3.07386 4.06158 3.60174
# Velocity P-wave (km/s) = 6.89364 7.54833 7.22840
#
# Compressibility (1/GPa) = 0.01684265
#
# Stress axis : x y z
#
# Youngs Moduli (GPa) = 121.74769 121.74769 89.80034
#
# Poissons Ratio (x) = 0.04114 0.22551
# Poissons Ratio (y) = 0.04114 0.22551
# Poissons Ratio (z) = 0.30573 0.30573
#
# Static dielectric constant tensor:
#      x y z
#    x 1.548630 0.000000 0.000000 
#    y 0.000000 1.548630 0.000000 
#    z 0.000000 0.000000 1.588050 
# 
# From -- ./inp_files/8331.got.cif
#   From: 2010.05.17/outbox.cif.g08.bks.cpg/sg123_5_cif.got.tgz:8331.got - 2010.05.20 11:43:04.
