data_PCOD9562215
_publ_section_title
;
Structure prediction by ZEFSAII (Michael W. Deem and Ramdas Pophale) SiO2 
 PCOD9562215
Probable space group: P 4/M M M
;
_chemical_formula_sum "Si O2"
_cell_formula_units_Z 72
_cell_length_a 21.737421
_cell_length_b 21.737421
_cell_length_c 8.051404
_cell_angle_alpha 90.000000
_cell_angle_beta 90.000000
_cell_angle_gamma 90.000000
_cell_volume 3804.412959
_symmetry_space_group_name_H-M "P 4/M M M"
_symmetry_group_IT_number 123
_symmetry_cell_setting 'tetragonal'
loop_
_space_group_symop_operation_xyz
x,y,z
-y,x,z
-x,-y,z
y,-x,z
x,-y,-z
-x,y,-z
y,x,-z
-y,-x,-z
-x,-y,-z
y,-x,-z
x,y,-z
-y,x,-z
-x,y,z
x,-y,z
-y,-x,z
y,x,z
loop_
_atom_site_type_symbol
_atom_site_label
_atom_site_fract_x
_atom_site_fract_y
_atom_site_fract_z
Si Si1 0.662548 0.140244 0.803245
Si Si2 0.000000 0.697543 0.201742
Si Si3 0.164924 0.000000 0.691463
Si Si4 0.870225 0.129776 0.184183
Si Si5 0.675077 0.426030 0.000000
Si Si6 0.220339 0.779662 0.314102
Si Si7 0.573384 0.239820 0.685132
O O1 0.669131 0.067654 0.757717
O O2 0.722281 0.183850 0.767476
O O3 0.607501 0.175345 0.712544
O O4 0.651863 0.141607 0.000000
O O5 0.000000 0.761895 0.295926
O O6 0.000000 0.706768 0.000000
O O7 0.142404 0.059312 0.786997
O O8 0.144699 0.000000 0.500000
O O9 0.831764 0.168237 0.315284
O O10 0.850424 0.149577 0.000000
O O11 0.714570 0.409345 0.835626
O O12 0.665450 0.500000 0.000000
O O13 0.612511 0.387490 0.000000
O O14 0.238840 0.761161 0.500000
O O15 0.588355 0.263647 0.500000
O O16 0.500000 0.231613 0.695092
#
# Coordination Sequence:
#
# PCOD9562215 Si02
#       7
#    16   8   8   8   8   8  16
#     4  11  22  38  61  88 119 157 203 250 305 368
#     4  10  22  38  58  84 116 155 192 241 308 369
#     4  12  24  39  59  81 107 142 188 243 298 361
#     4  12  24  41  59  78 110 150 189 236 301 370
#     4  10  22  41  66  97 133 173 211 252 302 356
#     4  12  24  36  55  89 120 150 194 248 305 360
#     4  10  22  41  64  92 128 167 207 253 305 359
#
# _framework density 18.92539
#
# number of rings (size 3 to 8) (size 9 to 14) (size 15 to 20)
#    0.000    1.111    3.333    3.667    1.556    1.667 
#    0.000    1.667    0.000    3.333    0.000    3.111 
#    0.000    0.000    0.000    0.000    0.000    0.000 
#
# Total GULP energy -401695.183448 kJ/mol
# GULP energy per Si atom -5579.099770 kJ/mol
# Density = 1.888232 g / cm^3
# Si number density = 18.925390 Si / 1000 Ang^3
#
#
#
# Elastic Constant Matrix: (Units=GPa)
#
#
# Indices 1 2 3 4 5 6 
#
# 1 61.4676 37.7603 32.9712 0.0000 0.0000 0.0000
# 2 37.7603 61.4568 32.9685 0.0000 0.0000 0.0000
# 3 32.9712 32.9685 114.7790 0.0000 0.0000 0.0000
# 4 0.0000 0.0000 0.0000 5.6590 0.0000 0.0000
# 5 0.0000 0.0000 0.0000 0.0000 5.6573 0.0000
# 6 0.0000 0.0000 0.0000 0.0000 0.0000 43.1982
#
#
#
# Elastic Compliance Matrix: (Units=1/GPa)
#
#
# Indices 1 2 3 4 5 6 
#
# 1 0.027321 -0.014867 -0.003578 0.000000 0.000000 0.000000
# 2 -0.014867 0.027326 -0.003578 0.000000 0.000000 0.000000
# 3 -0.003578 -0.003578 0.010768 0.000000 0.000000 0.000000
# 4 0.000000 0.000000 0.000000 0.176709 0.000000 0.000000
# 5 0.000000 0.000000 0.000000 0.000000 0.176762 0.000000
# 6 0.000000 0.000000 0.000000 0.000000 0.000000 0.023149
#
#
# Mechanical properties :
#
#
# Convention : Reuss Voigt Hill
#
# Bulk Modulus (GPa) = 46.79830 49.45593 48.12712
# Shear Modulus (GPa) = 10.13779 19.83646 14.98712
#
# Velocity S-wave (km/s) = 2.31697 3.24101 2.81713
# Velocity P-wave (km/s) = 5.65148 6.33990 6.00556
#
# Compressibility (1/GPa) = 0.02136830
#
# Stress axis : x y z
#
# Youngs Moduli (GPa) = 36.60193 36.59540 92.86836
#
# Poissons Ratio (x) = 0.54407 0.33226
# Poissons Ratio (y) = 0.54417 0.33230
# Poissons Ratio (z) = 0.13095 0.13095
#
# Static dielectric constant tensor:
#      x y z
#    x 1.649490 0.000000 0.000000 
#    y 0.000000 1.649490 0.000000 
#    z 0.000000 0.000000 1.673790 
# 
# From -- ./inp_files/1263.got.cif
#   From: 2010.05.17/outbox.cif.g08.bks.cpg/sg123_1_cif.got.tgz:1263.got - 2010.05.20 11:43:04.
