data_PCOD9562937
_publ_section_title
;
Structure prediction by ZEFSAII (Michael W. Deem and Ramdas Pophale) SiO2 
 PCOD9562937
Probable space group: P 4/N B M
;
_chemical_formula_sum "Si O2"
_cell_formula_units_Z 96
_cell_length_a 14.881985
_cell_length_b 14.881985
_cell_length_c 22.720195
_cell_angle_alpha 90.000000
_cell_angle_beta 90.000000
_cell_angle_gamma 90.000000
_cell_volume 5031.920597
_symmetry_space_group_name_H-M "P 4/N B M"
_symmetry_group_IT_number 125
_space_group.IT_coordinate_system_code '2'
_symmetry_cell_setting 'tetragonal'
loop_
_space_group_symop_operation_xyz
x,y,z
1/2-y,x,z
1/2-x,1/2-y,z
y,1/2-x,z
x,1/2-y,-z
1/2-x,y,-z
y,x,-z
1/2-y,1/2-x,-z
-x,-y,-z
1/2+y,-x,-z
1/2+x,1/2+y,-z
-y,1/2+x,-z
-x,1/2+y,z
1/2+x,-y,z
-y,-x,z
1/2+y,1/2+x,z
loop_
_atom_site_type_symbol
_atom_site_label
_atom_site_fract_x
_atom_site_fract_y
_atom_site_fract_z
Si Si1 0.296224 0.106350 0.276286
Si Si2 0.445098 0.554903 0.421615
Si Si3 0.533011 0.244524 0.365349
Si Si4 0.448328 0.704694 0.937144
Si Si5 0.172907 0.672907 0.858650
Si Si6 0.803986 0.892153 0.145583
Si Si7 0.675810 0.175810 0.272272
Si Si8 0.094943 0.594943 0.443614
O O1 0.358393 0.193774 0.278263
O O2 0.314066 0.066176 0.211375
O O3 0.301215 0.044581 0.333162
O O4 0.355096 0.515910 0.390809
O O5 0.521114 0.478886 0.423342
O O6 0.412771 0.587230 0.486215
O O7 0.600443 0.222296 0.311910
O O8 0.571480 0.307828 0.416546
O O9 0.374122 0.625879 0.943153
O O10 0.407217 0.781402 0.894530
O O11 0.537892 0.671580 0.904822
O O12 0.465338 0.750000 0.000000
O O13 0.250000 0.750000 0.857295
O O14 0.145507 0.645507 0.792530
O O15 0.699711 0.861008 0.141189
O O16 0.750000 0.250000 0.261818
#
# Coordination Sequence:
#
# PCOD9562937 Si02
#       8
#    16   8  16  16   8  16   8   8
#     4   9  18  35  60  85 111 145 186 235 294 349
#     4  10  24  37  55  82 113 156 194 234 282 341
#     4  11  20  35  58  81 114 144 191 232 280 337
#     4  11  21  37  58  83 112 154 198 237 284 344
#     4   9  19  33  55  74 114 145 178 226 289 342
#     4   9  20  40  61  83 116 153 189 238 303 358
#     4  10  19  33  49  83 105 139 177 224 276 341
#     4  11  22  39  55  79 116 154 193 234 287 335
#
# _framework density 19.078202000000001
#
# number of rings (size 3 to 8) (size 9 to 14) (size 15 to 20)
#    0.000    2.000    1.667    3.500    0.000    0.667 
#    3.000    2.500    7.333    0.000    0.000    7.000 
#    0.000    0.000    0.000    0.000    0.000    0.000 
#
# Total GULP energy -535179.602318 kJ/mol
# GULP energy per Si atom -5574.787524 kJ/mol
# Density = 1.903478 g / cm^3
# Si number density = 19.078202 Si / 1000 Ang^3
#
#
#
# Elastic Constant Matrix: (Units=GPa)
#
#
# Indices 1 2 3 4 5 6 
#
# 1 30.5260 -9.6771 12.9146 0.0000 0.0000 0.0000
# 2 -9.6771 30.5260 12.9146 0.0000 0.0000 0.0000
# 3 12.9146 12.9146 105.6913 0.0000 0.0000 0.0000
# 4 0.0000 0.0000 0.0000 23.1733 0.0000 0.0000
# 5 0.0000 0.0000 0.0000 0.0000 23.1733 0.0000
# 6 0.0000 0.0000 0.0000 0.0000 0.0000 -7.6149
#
#
#
# Elastic Compliance Matrix: (Units=1/GPa)
#
#
# Indices 1 2 3 4 5 6 
#
# 1 0.040697 0.015823 -0.006906 0.000000 0.000000 0.000000
# 2 0.015823 0.040697 -0.006906 0.000000 0.000000 0.000000
# 3 -0.006906 -0.006906 0.011149 0.000000 0.000000 0.000000
# 4 0.000000 0.000000 0.000000 0.043153 0.000000 0.000000
# 5 0.000000 0.000000 0.000000 0.000000 0.043153 0.000000
# 6 0.000000 0.000000 0.000000 0.000000 0.000000 -0.131321
#
#
# Mechanical properties :
#
#
# Convention : Reuss Voigt Hill
#
# Bulk Modulus (GPa) = 10.35579 22.11641 16.23610
# Shear Modulus (GPa) = 66.05443 17.78576 41.92009
#
# Velocity S-wave (km/s) = 5.89051 3.05660 4.69260
# Velocity P-wave (km/s) = 7.19055 4.90660 6.15544
#
# Compressibility (1/GPa) = 0.09656433
#
# Stress axis : x y z
#
# Youngs Moduli (GPa) = 24.57189 24.57189 89.69164
#
# Poissons Ratio (x) = -0.38881 0.61944
# Poissons Ratio (y) = -0.38881 0.61944
# Poissons Ratio (z) = 0.16970 0.16970
#
# Static dielectric constant tensor:
#      x y z
#    x 1.675200 0.000000 0.000000 
#    y 0.000000 1.675200 0.000000 
#    z 0.000000 0.000000 1.679420 
# 
# From -- ./inp_files/5994.got.cif
#   From: 2010.05.17/outbox.cif.g08.bks.cpg/sg125_3_cif.got.tgz:5994.got - 2010.05.20 11:54:10.
