data_PCOD9562134
_publ_section_title
;
Structure prediction by ZEFSAII (Michael W. Deem and Ramdas Pophale) SiO2 
 PCOD9562134
Probable space group: P 4/M M M
;
_chemical_formula_sum "Si O2"
_cell_formula_units_Z 104
_cell_length_a 26.354139
_cell_length_b 26.354139
_cell_length_c 7.997453
_cell_angle_alpha 90.000000
_cell_angle_beta 90.000000
_cell_angle_gamma 90.000000
_cell_volume 5554.556144
_symmetry_space_group_name_H-M "P 4/M M M"
_symmetry_group_IT_number 123
_symmetry_cell_setting 'tetragonal'
loop_
_space_group_symop_operation_xyz
x,y,z
-y,x,z
-x,-y,z
y,-x,z
x,-y,-z
-x,y,-z
y,x,-z
-y,-x,-z
-x,-y,-z
y,-x,-z
x,y,-z
-y,x,-z
-x,y,z
x,-y,z
-y,-x,z
y,x,z
loop_
_atom_site_type_symbol
_atom_site_label
_atom_site_fract_x
_atom_site_fract_y
_atom_site_fract_z
Si Si1 0.318457 0.598386 0.822895
Si Si2 0.943953 0.600639 0.201790
Si Si3 0.775465 0.346479 0.304772
Si Si4 0.282108 0.943285 0.299058
Si Si5 0.556410 0.161095 0.202988
Si Si6 0.835921 0.245415 0.295587
Si Si7 0.642147 0.555666 0.500000
O O1 0.371049 0.628952 0.830918
O O2 0.275208 0.640085 0.793457
O O3 0.323047 0.563300 0.662550
O O4 0.309170 0.572118 0.000000
O O5 0.934604 0.658425 0.259946
O O6 0.897712 0.564914 0.250530
O O7 0.000000 0.585368 0.261307
O O8 0.944830 0.601452 0.000000
O O9 0.762792 0.338980 0.500000
O O10 0.809150 0.396833 0.282291
O O11 0.805438 0.296535 0.246888
O O12 0.276885 0.944548 0.500000
O O13 0.251105 0.894182 0.237706
O O14 0.268913 0.000000 0.235040
O O15 0.500000 0.178277 0.251107
O O16 0.560494 0.165209 0.000000
O O17 0.836834 0.245196 0.500000
O O18 0.803609 0.196392 0.241965
O O19 0.618948 0.500000 0.500000
O O20 0.599006 0.599006 0.500000
#
# Coordination Sequence:
#
# PCOD9562134 Si02
#       7
#    16  16  16  16  16  16   8
#     4  10  21  38  60  83 108 140 175 211 253 307
#     4   9  17  30  48  66  87 120 162 207 253 300
#     4  11  20  33  52  73 101 136 172 213 264 314
#     4   9  16  28  47  68  91 122 160 200 244 297
#     4  10  21  34  46  64  93 127 167 215 259 302
#     4   9  17  28  46  73 101 129 162 204 255 309
#     4  10  22  41  64  90 116 140 171 211 257 317
#
# _framework density 18.723367
#
# number of rings (size 3 to 8) (size 9 to 14) (size 15 to 20)
#    0.000    2.308    2.308    0.923    0.000    2.231 
#    0.000    1.538    0.000    1.385    0.000    5.385 
#    0.000    0.308    0.000    4.308    0.000    0.000 
#
# Total GULP energy -580017.606675 kJ/mol
# GULP energy per Si atom -5577.092372 kJ/mol
# Density = 1.868075 g / cm^3
# Si number density = 18.723367 Si / 1000 Ang^3
#
#
#
# Elastic Constant Matrix: (Units=GPa)
#
#
# Indices 1 2 3 4 5 6 
#
# 1 73.0882 18.4840 15.1705 0.0000 0.0000 0.0000
# 2 18.4840 73.0882 15.1705 0.0000 0.0000 0.0000
# 3 15.1705 15.1705 59.5473 0.0000 0.0000 0.0000
# 4 0.0000 0.0000 0.0000 989.4015 0.0000 0.0000
# 5 0.0000 0.0000 0.0000 0.0000 989.4015 0.0000
# 6 0.0000 0.0000 0.0000 0.0000 0.0000 16.4095
#
#
#
# Elastic Compliance Matrix: (Units=1/GPa)
#
#
# Indices 1 2 3 4 5 6 
#
# 1 0.015120 -0.003193 -0.003039 0.000000 0.000000 0.000000
# 2 -0.003193 0.015120 -0.003039 0.000000 0.000000 0.000000
# 3 -0.003039 -0.003039 0.018342 0.000000 0.000000 0.000000
# 4 0.000000 0.000000 0.000000 0.001011 0.000000 0.000000
# 5 0.000000 0.000000 0.000000 0.000000 0.001011 0.000000
# 6 0.000000 0.000000 0.000000 0.000000 0.000000 0.060940
#
#
# Mechanical properties :
#
#
# Convention : Reuss Voigt Hill
#
# Bulk Modulus (GPa) = 33.28730 33.70818 33.49774
# Shear Modulus (GPa) = 35.68912 409.50240 222.59576
#
# Velocity S-wave (km/s) = 4.37066 14.80496 10.91534
# Velocity P-wave (km/s) = 6.57931 17.61509 13.29621
#
# Compressibility (1/GPa) = 0.03004149
#
# Stress axis : x y z
#
# Youngs Moduli (GPa) = 66.13591 66.13591 54.52078
#
# Poissons Ratio (x) = 0.21119 0.16567
# Poissons Ratio (y) = 0.21119 0.16567
# Poissons Ratio (z) = 0.20096 0.20096
#
# Static dielectric constant tensor:
#      x y z
#    x 1.664260 0.000000 0.000000 
#    y 0.000000 1.664260 0.000000 
#    z 0.000000 0.000000 1.694530 
# 
# From -- ./inp_files/1920.got.cif
#   From: 2010.05.17/outbox.cif.g08.bks.cpg/sg123_1_cif.got.tgz:1920.got - 2010.05.20 11:43:04.
