data_PCOD9562261
_publ_section_title
;
Structure prediction by ZEFSAII (Michael W. Deem and Ramdas Pophale) SiO2 
 PCOD9562261
Probable space group: P 4/M M M
;
_chemical_formula_sum "Si O2"
_cell_formula_units_Z 64
_cell_length_a 20.575820
_cell_length_b 20.575820
_cell_length_c 7.288447
_cell_angle_alpha 90.000000
_cell_angle_beta 90.000000
_cell_angle_gamma 90.000000
_cell_volume 3085.668763
_symmetry_space_group_name_H-M "P 4/M M M"
_symmetry_group_IT_number 123
_symmetry_cell_setting 'tetragonal'
loop_
_space_group_symop_operation_xyz
x,y,z
-y,x,z
-x,-y,z
y,-x,z
x,-y,-z
-x,y,-z
y,x,-z
-y,-x,-z
-x,-y,-z
y,-x,-z
x,y,-z
-y,x,-z
-x,y,z
x,-y,z
-y,-x,z
y,x,z
loop_
_atom_site_type_symbol
_atom_site_label
_atom_site_fract_x
_atom_site_fract_y
_atom_site_fract_z
Si Si1 0.716365 0.179606 0.776304
Si Si2 0.327105 0.570449 0.278640
Si Si3 0.176372 0.428424 0.791373
Si Si4 0.926228 0.176301 0.223074
O O1 0.752864 0.247137 0.720076
O O2 0.643297 0.164285 0.710290
O O3 0.764757 0.121323 0.724240
O O4 0.713235 0.182320 0.000000
O O5 0.321878 0.574592 0.500000
O O6 0.356364 0.500000 0.234939
O O7 0.371229 0.628772 0.213155
O O8 0.254667 0.571849 0.204436
O O9 0.158111 0.500000 0.711971
O O10 0.150955 0.428038 0.000000
O O11 0.889867 0.110133 0.278483
O O12 0.000000 0.181922 0.286446
O O13 0.927339 0.176848 0.000000
#
# Coordination Sequence:
#
# PCOD9562261 Si02
#       4
#    16  16  16  16
#     4   8  13  21  33  48  66  90 120 152 186 224
#     4   9  17  27  37  50  69  92 118 150 189 231
#     4   9  16  25  38  54  70  91 122 158 189 217
#     4   8  13  20  30  46  69  97 126 152 179 214
#
# _framework density 20.741046000000001
#
# number of rings (size 3 to 8) (size 9 to 14) (size 15 to 20)
#    0.000    3.500    0.000    2.250    0.000    2.000 
#    0.000    2.500    0.000    0.750    0.000    8.750 
#    0.000    1.000    0.000    7.000    0.000    8.250 
#
# Total GULP energy -356417.929978 kJ/mol
# GULP energy per Si atom -5569.030156 kJ/mol
# Density = 2.069384 g / cm^3
# Si number density = 20.741046 Si / 1000 Ang^3
#
#
#
# Elastic Constant Matrix: (Units=GPa)
#
#
# Indices 1 2 3 4 5 6 
#
# 1 133.1717 45.8393 2.4948 0.0000 0.0000 0.0000
# 2 45.8393 133.1717 2.4948 0.0000 0.0000 0.0000
# 3 2.4948 2.4948 86.0798 0.0000 0.0000 0.0000
# 4 0.0000 0.0000 0.0000 -5.0678 0.0000 0.0000
# 5 0.0000 0.0000 0.0000 0.0000 -5.0678 0.0000
# 6 0.0000 0.0000 0.0000 0.0000 0.0000 15.9806
#
#
#
# Elastic Compliance Matrix: (Units=1/GPa)
#
#
# Indices 1 2 3 4 5 6 
#
# 1 0.008521 -0.002930 -0.000162 0.000000 0.000000 0.000000
# 2 -0.002930 0.008521 -0.000162 0.000000 0.000000 0.000000
# 3 -0.000162 -0.000162 0.011627 0.000000 0.000000 0.000000
# 4 0.000000 0.000000 0.000000 -0.197325 0.000000 0.000000
# 5 0.000000 0.000000 0.000000 0.000000 -0.197325 0.000000
# 6 0.000000 0.000000 0.000000 0.000000 0.000000 0.062576
#
#
# Mechanical properties :
#
#
# Convention : Reuss Voigt Hill
#
# Bulk Modulus (GPa) = 45.12653 50.45345 47.78999
# Shear Modulus (GPa) = -17.27047 21.27528 2.00241
#
# Velocity S-wave (km/s) = -2.88873 3.20622 0.98363
# Velocity P-wave (km/s) = 3.26772 6.17128 4.93774
#
# Compressibility (1/GPa) = 0.02215991
#
# Stress axis : x y z
#
# Youngs Moduli (GPa) = 117.36207 117.36207 86.01029
#
# Poissons Ratio (x) = 0.34386 0.01394
# Poissons Ratio (y) = 0.34386 0.01394
# Poissons Ratio (z) = 0.01902 0.01902
#
# Static dielectric constant tensor:
#      x y z
#    x 1.738370 0.000000 0.000000 
#    y 0.000000 1.738370 0.000000 
#    z 0.000000 0.000000 1.799920 
# 
# From -- ./inp_files/860.got.cif
#   From: 2010.05.17/outbox.cif.g08.bks.cpg/sg123_1_cif.got.tgz:860.got - 2010.05.20 11:43:04.
