data_PCOD9562976
_publ_section_title
;
Structure prediction by ZEFSAII (Michael W. Deem and Ramdas Pophale) SiO2 
 PCOD9562976
Probable space group: P 4/N B M
;
_chemical_formula_sum "Si O2"
_cell_formula_units_Z 72
_cell_length_a 20.442862
_cell_length_b 20.442862
_cell_length_c 9.285333
_cell_angle_alpha 90.000000
_cell_angle_beta 90.000000
_cell_angle_gamma 90.000000
_cell_volume 3880.439148
_symmetry_space_group_name_H-M "P 4/N B M"
_symmetry_group_IT_number 125
_space_group.IT_coordinate_system_code '2'
_symmetry_cell_setting 'tetragonal'
loop_
_space_group_symop_operation_xyz
x,y,z
1/2-y,x,z
1/2-x,1/2-y,z
y,1/2-x,z
x,1/2-y,-z
1/2-x,y,-z
y,x,-z
1/2-y,1/2-x,-z
-x,-y,-z
1/2+y,-x,-z
1/2+x,1/2+y,-z
-y,1/2+x,-z
-x,1/2+y,z
1/2+x,-y,z
-y,-x,z
1/2+y,1/2+x,z
loop_
_atom_site_type_symbol
_atom_site_label
_atom_site_fract_x
_atom_site_fract_y
_atom_site_fract_z
Si Si1 0.826563 0.673438 0.500000
Si Si2 0.885094 0.490979 0.594733
Si Si3 0.567622 0.622351 0.305522
Si Si4 0.698481 0.091644 0.805069
Si Si5 0.052144 0.841059 0.123579
O O1 0.839471 0.750000 0.500000
O O2 0.851193 0.638602 0.352728
O O3 0.939584 0.439584 0.548719
O O4 0.862153 0.527453 0.451995
O O5 0.920095 0.544463 0.697375
O O6 0.829220 0.451932 0.676172
O O7 0.522115 0.649487 0.178917
O O8 0.662871 0.162871 0.798927
O O9 0.776713 0.086887 0.808617
O O10 0.672304 0.058713 0.953129
O O11 0.094636 0.905365 0.159522
#
# Coordination Sequence:
#
# PCOD9562976 Si02
#       5
#     8  16  16  16  16
#     4   9  20  36  53  80 108 136 171 214 264 333
#     4   9  17  32  50  75 105 132 170 215 266 318
#     4  10  20  30  56  80 103 132 173 219 271 313
#     4   9  20  35  52  74 107 147 181 219 266 321
#     4  10  20  34  52  78 108 140 183 226 266 313
#
# _framework density 18.554601000000002
#
# number of rings (size 3 to 8) (size 9 to 14) (size 15 to 20)
#    0.000    2.778    0.000    2.667    6.222    1.333 
#    0.000    5.556    0.000    0.000    0.000    3.111 
#    0.000    0.000    0.000    0.000    0.000    0.000 
#
# Total GULP energy -400815.739852 kJ/mol
# GULP energy per Si atom -5566.885276 kJ/mol
# Density = 1.851237 g / cm^3
# Si number density = 18.554601 Si / 1000 Ang^3
#
#
#
# Elastic Constant Matrix: (Units=GPa)
#
#
# Indices 1 2 3 4 5 6 
#
# 1 77.6626 -18.3717 7.5621 0.0000 0.0000 0.0000
# 2 -18.3717 77.6613 7.5618 0.0000 0.0000 0.0000
# 3 7.5621 7.5618 6.2029 0.0000 0.0000 0.0000
# 4 0.0000 0.0000 0.0000 -10.2685 0.0000 0.0000
# 5 0.0000 0.0000 0.0000 0.0000 -10.2877 0.0000
# 6 0.0000 0.0000 0.0000 0.0000 0.0000 15.3295
#
#
#
# Elastic Compliance Matrix: (Units=1/GPa)
#
#
# Indices 1 2 3 4 5 6 
#
# 1 0.017446 0.007033 -0.029842 0.000000 0.000000 0.000000
# 2 0.007033 0.017446 -0.029841 0.000000 0.000000 0.000000
# 3 -0.029842 -0.029841 0.233975 0.000000 0.000000 0.000000
# 4 0.000000 0.000000 0.000000 -0.097385 0.000000 0.000000
# 5 0.000000 0.000000 0.000000 0.000000 -0.097204 0.000000
# 6 0.000000 0.000000 0.000000 0.000000 0.000000 0.065234
#
#
# Mechanical properties :
#
#
# Convention : Reuss Voigt Hill
#
# Bulk Modulus (GPa) = 6.11377 17.22569 11.66973
# Shear Modulus (GPa) = 16.70381 9.93964 13.32173
#
# Velocity S-wave (km/s) = 3.00367 2.31702 2.68241
# Velocity P-wave (km/s) = 3.91556 4.05735 3.98708
#
# Compressibility (1/GPa) = 0.16356521
#
# Stress axis : x y z
#
# Youngs Moduli (GPa) = 57.32113 57.32081 4.27397
#
# Poissons Ratio (x) = -0.40311 0.12754
# Poissons Ratio (y) = -0.40312 0.12754
# Poissons Ratio (z) = 1.71056 1.71052
#
# Static dielectric constant tensor:
#      x y z
#    x 1.670490 0.000000 0.000000 
#    y 0.000000 1.670490 0.000000 
#    z 0.000000 0.000000 1.649400 
# 
# From -- ./inp_files/2562.got.cif
#   From: 2010.05.17/outbox.cif.g08.bks.cpg/sg125_2_cif.got.tgz:2562.got - 2010.05.20 11:54:10.
