data_PCOD9562892
_publ_section_title
;
Structure prediction by ZEFSAII (Michael W. Deem and Ramdas Pophale) SiO2 
 PCOD9562892
Probable space group: P 4/N B M
;
_chemical_formula_sum "Si O2"
_cell_formula_units_Z 96
_cell_length_a 22.701850
_cell_length_b 22.701850
_cell_length_c 10.760795
_cell_angle_alpha 90.000000
_cell_angle_beta 90.000000
_cell_angle_gamma 90.000000
_cell_volume 5545.833892
_symmetry_space_group_name_H-M "P 4/N B M"
_symmetry_group_IT_number 125
_space_group.IT_coordinate_system_code '2'
_symmetry_cell_setting 'tetragonal'
loop_
_space_group_symop_operation_xyz
x,y,z
1/2-y,x,z
1/2-x,1/2-y,z
y,1/2-x,z
x,1/2-y,-z
1/2-x,y,-z
y,x,-z
1/2-y,1/2-x,-z
-x,-y,-z
1/2+y,-x,-z
1/2+x,1/2+y,-z
-y,1/2+x,-z
-x,1/2+y,z
1/2+x,-y,z
-y,-x,z
1/2+y,1/2+x,z
loop_
_atom_site_type_symbol
_atom_site_label
_atom_site_fract_x
_atom_site_fract_y
_atom_site_fract_z
Si Si1 0.316531 0.414633 0.000001
Si Si2 0.880729 0.380729 0.768339
Si Si3 0.818292 0.995716 0.242370
Si Si4 0.495716 0.318292 0.757628
Si Si5 0.619271 0.119271 0.231664
Si Si6 0.630607 0.968730 0.500001
Si Si7 0.180526 0.819475 0.000001
Si Si8 0.891096 0.108905 0.499998
O O1 0.323457 0.454401 0.122778
O O2 0.250000 0.391178 0.000000
O O3 0.363698 0.363698 0.000000
O O4 0.323456 0.454402 0.877224
O O5 0.862577 0.449317 0.776593
O O6 0.864682 0.364682 0.625899
O O7 0.847451 0.347451 0.877200
O O8 0.750000 0.016710 0.250300
O O9 0.834183 0.962023 0.370456
O O10 0.550683 0.362577 0.776591
O O11 0.462023 0.334183 0.629541
O O12 0.652550 0.152550 0.122804
O O13 0.635318 0.135318 0.374104
O O14 0.573808 0.926192 0.500000
O O15 0.616817 0.038569 0.500002
O O16 0.169422 0.750000 0.000000
#
# Coordination Sequence:
#
# PCOD9562892 Si02
#       8
#    16   8  16  16   8  16   8   8
#     4  10  21  37  55  77 105 137 175 218 266 320
#     4  10  19  35  54  76 104 140 176 216 268 318
#     4  10  20  34  53  77 106 139 176 219 265 316
#     4  10  20  34  53  77 106 139 176 219 265 316
#     4  10  19  35  54  76 104 140 176 216 268 318
#     4  10  18  31  51  75 103 133 168 209 259 315
#     4  11  22  34  50  72  99 136 184 232 271 312
#     4   8  19  32  50  75 100 130 166 209 256 318
#
# _framework density 17.310292
#
# number of rings (size 3 to 8) (size 9 to 14) (size 15 to 20)
#    0.000    2.083    0.000    3.750    0.000    1.500 
#    0.000    5.833    0.000    1.000    0.000    0.000 
#    0.000   12.000    0.000    0.000    0.000    0.000 
#
# Total GULP energy -534950.786520 kJ/mol
# GULP energy per Si atom -5572.404026 kJ/mol
# Density = 1.727089 g / cm^3
# Si number density = 17.310292 Si / 1000 Ang^3
#
#
#
# Elastic Constant Matrix: (Units=GPa)
#
#
# Indices 1 2 3 4 5 6 
#
# 1 63.3496 50.3645 54.9140 0.0000 0.0000 0.0000
# 2 50.3645 63.3387 54.9159 0.0000 0.0000 0.0000
# 3 54.9140 54.9159 170.7360 0.0000 0.0000 0.0000
# 4 0.0000 0.0000 0.0000 20.0172 0.0000 0.0000
# 5 0.0000 0.0000 0.0000 0.0000 20.0184 0.0000
# 6 0.0000 0.0000 0.0000 0.0000 0.0000 33.4125
#
#
#
# Elastic Compliance Matrix: (Units=1/GPa)
#
#
# Indices 1 2 3 4 5 6 
#
# 1 0.044895 -0.032143 -0.004101 0.000000 0.000000 0.000000
# 2 -0.032143 0.044907 -0.004106 0.000000 0.000000 0.000000
# 3 -0.004101 -0.004106 0.008497 0.000000 0.000000 0.000000
# 4 0.000000 0.000000 0.000000 0.049957 0.000000 0.000000
# 5 0.000000 0.000000 0.000000 0.000000 0.049954 0.000000
# 6 0.000000 0.000000 0.000000 0.000000 0.000000 0.029929
#
#
# Mechanical properties :
#
#
# Convention : Reuss Voigt Hill
#
# Bulk Modulus (GPa) = 56.82241 68.64592 62.73417
# Shear Modulus (GPa) = 15.88796 23.83830 19.86313
#
# Velocity S-wave (km/s) = 3.03286 3.71498 3.39112
# Velocity P-wave (km/s) = 6.72022 7.62520 7.18697
#
# Compressibility (1/GPa) = 0.01759869
#
# Stress axis : x y z
#
# Youngs Moduli (GPa) = 22.27427 22.26840 117.69432
#
# Poissons Ratio (x) = 0.71577 0.48267
# Poissons Ratio (y) = 0.71596 0.48322
# Poissons Ratio (z) = 0.09135 0.09143
#
# Static dielectric constant tensor:
#      x y z
#    x 1.566840 0.000000 0.000000 
#    y 0.000000 1.566840 0.000000 
#    z 0.000000 0.000000 1.611630 
# 
# From -- ./inp_files/4230.got.cif
#   From: 2010.05.17/outbox.cif.g08.bks.cpg/sg125_3_cif.got.tgz:4230.got - 2010.05.20 11:54:10.
