data_PCOD9562670
_publ_section_title
;
Structure prediction by ZEFSAII (Michael W. Deem and Ramdas Pophale) SiO2 
 PCOD9562670
Probable space group: P 4/M C C
;
_chemical_formula_sum "Si O2"
_cell_formula_units_Z 108
_cell_length_a 15.217123
_cell_length_b 15.217123
_cell_length_c 25.141023
_cell_angle_alpha 90.000000
_cell_angle_beta 90.000000
_cell_angle_gamma 90.000000
_cell_volume 5821.676213
_symmetry_space_group_name_H-M "P 4/M C C"
_symmetry_group_IT_number 124
_symmetry_cell_setting 'tetragonal'
loop_
_space_group_symop_operation_xyz
x,y,z
-y,x,z
-x,-y,z
y,-x,z
x,-y,1/2-z
-x,y,1/2-z
y,x,1/2-z
-y,-x,1/2-z
-x,-y,-z
y,-x,-z
x,y,-z
-y,x,-z
-x,y,1/2+z
x,-y,1/2+z
-y,-x,1/2+z
y,x,1/2+z
loop_
_atom_site_type_symbol
_atom_site_label
_atom_site_fract_x
_atom_site_fract_y
_atom_site_fract_z
Si Si1 0.017423 0.198398 0.106695
Si Si2 0.490971 0.105082 0.687076
Si Si3 0.000000 0.000000 0.642697
Si Si4 0.833472 0.793293 0.560486
Si Si5 0.658902 0.784830 0.152466
Si Si6 0.940460 0.693699 0.800849
Si Si7 0.598369 0.607900 0.812079
Si Si8 0.793236 0.793236 0.750000
O O1 0.113570 0.205230 0.080747
O O2 0.002335 0.275166 0.149566
O O3 0.939301 0.196941 0.064307
O O4 0.011536 0.106921 0.137781
O O5 0.500000 0.121506 0.750000
O O6 0.566758 0.161662 0.658625
O O7 0.386601 0.120567 0.679351
O O8 0.500000 0.000000 0.676288
O O9 0.806999 0.775748 0.500000
O O10 0.809732 0.716956 0.601859
O O11 0.642353 0.680480 0.151918
O O12 0.715248 0.797207 0.206728
O O13 0.881683 0.776287 0.782856
O O14 0.000000 0.667341 0.750000
O O15 0.493945 0.619228 0.820066
O O16 0.622503 0.622503 0.750000
#
# Coordination Sequence:
#
# PCOD9562670 Si02
#       8
#    16  16   4  16  16  16  16   8
#     4  10  21  39  61  85 119 161 206 253 305 360
#     4  11  21  36  54  80 117 162 198 231 296 372
#     4   8  20  36  54  84 116 154 200 245 301 348
#     4  11  23  41  61  87 118 160 215 265 306 355
#     4  12  23  36  61  89 119 157 201 254 305 372
#     4  12  23  36  56  86 130 163 198 241 300 382
#     4   9  20  35  55  87 123 152 185 240 308 373
#     4  12  22  34  52  92 120 148 198 240 296 368
#
# _framework density 18.551359000000001
#
# number of rings (size 3 to 8) (size 9 to 14) (size 15 to 20)
#    0.000    1.185    5.185    2.667    6.222    0.000 
#    0.000    2.593    0.000    7.556    0.000    1.037 
#    0.000    0.000    0.000    0.000    0.000    0.000 
#
# Total GULP energy -601412.608058 kJ/mol
# GULP energy per Si atom -5568.635260 kJ/mol
# Density = 1.850914 g / cm^3
# Si number density = 18.551359 Si / 1000 Ang^3
#
#
#
# Elastic Constant Matrix: (Units=GPa)
#
#
# Indices 1 2 3 4 5 6 
#
# 1 86.1997 24.9280 36.1819 0.0000 0.0000 0.0000
# 2 24.9280 86.1997 36.1819 0.0000 0.0000 0.0000
# 3 36.1819 36.1819 85.7093 0.0000 0.0000 0.0000
# 4 0.0000 0.0000 0.0000 15.8451 0.0000 0.0000
# 5 0.0000 0.0000 0.0000 0.0000 15.8451 0.0000
# 6 0.0000 0.0000 0.0000 0.0000 0.0000 27.3518
#
#
#
# Elastic Compliance Matrix: (Units=1/GPa)
#
#
# Indices 1 2 3 4 5 6 
#
# 1 0.014365 -0.001955 -0.005239 0.000000 0.000000 0.000000
# 2 -0.001955 0.014365 -0.005239 0.000000 0.000000 0.000000
# 3 -0.005239 -0.005239 0.016090 0.000000 0.000000 0.000000
# 4 0.000000 0.000000 0.000000 0.063111 0.000000 0.000000
# 5 0.000000 0.000000 0.000000 0.000000 0.063111 0.000000
# 6 0.000000 0.000000 0.000000 0.000000 0.000000 0.036561
#
#
# Mechanical properties :
#
#
# Convention : Reuss Voigt Hill
#
# Bulk Modulus (GPa) = 50.11234 50.29914 50.20574
# Shear Modulus (GPa) = 20.90982 22.52952 21.71967
#
# Velocity S-wave (km/s) = 3.36092 3.48866 3.42539
# Velocity P-wave (km/s) = 6.49095 6.58787 6.53959
#
# Compressibility (1/GPa) = 0.01995517
#
# Stress axis : x y z
#
# Youngs Moduli (GPa) = 69.61159 69.61159 62.14849
#
# Poissons Ratio (x) = 0.13611 0.32559
# Poissons Ratio (y) = 0.13611 0.32559
# Poissons Ratio (z) = 0.36469 0.36469
#
# Static dielectric constant tensor:
#      x y z
#    x 1.695870 0.000000 0.000000 
#    y 0.000000 1.695870 0.000000 
#    z 0.000000 0.000000 1.621360 
# 
# From -- ./inp_files/6142.got.cif
#   From: 2010.05.17/outbox.cif.g08.bks.cpg/sg124_4_cif.got.tgz:6142.got - 2010.05.20 11:49:17.
