data_PCOD9562649
_publ_section_title
;
Structure prediction by ZEFSAII (Michael W. Deem and Ramdas Pophale) SiO2 
 PCOD9562649
Probable space group: P 4/M C C
;
_chemical_formula_sum "Si O2"
_cell_formula_units_Z 96
_cell_length_a 25.679283
_cell_length_b 25.679283
_cell_length_c 9.292532
_cell_angle_alpha 90.000000
_cell_angle_beta 90.000000
_cell_angle_gamma 90.000000
_cell_volume 6127.733261
_symmetry_space_group_name_H-M "P 4/M C C"
_symmetry_group_IT_number 124
_symmetry_cell_setting 'tetragonal'
loop_
_space_group_symop_operation_xyz
x,y,z
-y,x,z
-x,-y,z
y,-x,z
x,-y,1/2-z
-x,y,1/2-z
y,x,1/2-z
-y,-x,1/2-z
-x,-y,-z
y,-x,-z
x,y,-z
-y,x,-z
-x,y,1/2+z
x,-y,1/2+z
-y,-x,1/2+z
y,x,1/2+z
loop_
_atom_site_type_symbol
_atom_site_label
_atom_site_fract_x
_atom_site_fract_y
_atom_site_fract_z
Si Si1 0.166854 0.755372 0.673502
Si Si2 0.832609 0.367705 0.326233
Si Si3 0.445162 0.367823 0.170708
Si Si4 0.554521 0.755652 0.830102
Si Si5 0.243594 0.050747 0.334068
Si Si6 0.370302 0.949208 0.834276
O O1 0.209765 0.790236 0.750000
O O2 0.169396 0.760917 0.500000
O O3 0.173532 0.693867 0.704539
O O4 0.108182 0.771247 0.720332
O O5 0.828862 0.373890 0.500000
O O6 0.790005 0.401324 0.244624
O O7 0.891335 0.384576 0.281904
O O8 0.500000 0.378232 0.250000
O O9 0.401388 0.401388 0.250000
O O10 0.434414 0.306065 0.185065
O O11 0.448197 0.379851 0.000000
O O12 0.500000 0.765958 0.750000
O O13 0.550316 0.767075 0.000000
O O14 0.227899 0.046616 0.500000
O O15 0.306953 0.050310 0.330952
O O16 0.225096 0.000000 0.250000
O O17 0.388854 0.000000 0.750000
O O18 0.386192 0.953606 0.000000
#
# Coordination Sequence:
#
# PCOD9562649 Si02
#       6
#    16  16  16  16  16  16
#     4   9  18  30  43  64  96 128 156 190 231 274
#     4   9  18  32  48  67  94 126 157 191 233 278
#     4  10  21  37  56  78 102 126 154 189 229 273
#     4  10  21  36  54  74  95 123 159 195 230 271
#     4   8  14  25  40  59  84 116 154 191 227 269
#     4   8  14  25  42  64  89 117 149 188 232 274
#
# _framework density 15.666478
#
# number of rings (size 3 to 8) (size 9 to 14) (size 15 to 20)
#    0.000    3.000    0.000    3.000    0.000    4.833 
#    0.000    7.500    0.000    0.500    0.000    3.500 
#    0.000    0.333    0.000    3.667    0.000    3.000 
#
# Total GULP energy -534599.983056 kJ/mol
# GULP energy per Si atom -5568.749824 kJ/mol
# Density = 1.563082 g / cm^3
# Si number density = 15.666478 Si / 1000 Ang^3
#
#
#
# Elastic Constant Matrix: (Units=GPa)
#
#
# Indices 1 2 3 4 5 6 
#
# 1 87.2438 71.9721 61.7559 0.0000 0.0000 0.0000
# 2 71.9721 87.2474 61.7559 0.0000 0.0000 0.0000
# 3 61.7559 61.7559 77.4804 0.0000 0.0000 0.0000
# 4 0.0000 0.0000 0.0000 28.9485 0.0000 0.0000
# 5 0.0000 0.0000 0.0000 0.0000 28.9485 0.0000
# 6 0.0000 0.0000 0.0000 0.0000 0.0000 -6.7035
#
#
#
# Elastic Compliance Matrix: (Units=1/GPa)
#
#
# Indices 1 2 3 4 5 6 
#
# 1 0.040966 -0.024509 -0.013117 0.000000 0.000000 0.000000
# 2 -0.024509 0.040962 -0.013114 0.000000 0.000000 0.000000
# 3 -0.013117 -0.013114 0.033814 0.000000 0.000000 0.000000
# 4 0.000000 0.000000 0.000000 0.034544 0.000000 0.000000
# 5 0.000000 0.000000 0.000000 0.000000 0.034544 0.000000
# 6 0.000000 0.000000 0.000000 0.000000 0.000000 -0.149176
#
#
# Mechanical properties :
#
#
# Convention : Reuss Voigt Hill
#
# Bulk Modulus (GPa) = 70.11654 71.43773 70.77714
# Shear Modulus (GPa) = 35.23919 14.00454 24.62186
#
# Velocity S-wave (km/s) = 4.74786 2.99309 3.96868
# Velocity P-wave (km/s) = 8.65501 7.59229 8.14101
#
# Compressibility (1/GPa) = 0.01426197
#
# Stress axis : x y z
#
# Youngs Moduli (GPa) = 24.41059 24.41297 29.57378
#
# Poissons Ratio (x) = 0.59834 0.38792
# Poissons Ratio (y) = 0.59828 0.38782
# Poissons Ratio (z) = 0.32019 0.32015
#
# Static dielectric constant tensor:
#      x y z
#    x 1.514300 0.000000 0.000000 
#    y 0.000000 1.514300 0.000000 
#    z 0.000000 0.000000 1.522530 
# 
# From -- ./inp_files/1334.got.cif
#   From: 2010.05.17/outbox.cif.g08.bks.cpg/sg124_1_cif.got.tgz:1334.got - 2010.05.20 11:49:17.
