data_PCOD9562734
_publ_section_title
;
Structure prediction by ZEFSAII (Michael W. Deem and Ramdas Pophale) SiO2 
 PCOD9562734
Probable space group: P 4/M C C
;
_chemical_formula_sum "Si O2"
_cell_formula_units_Z 96
_cell_length_a 16.090313
_cell_length_b 16.090313
_cell_length_c 20.967469
_cell_angle_alpha 90.000000
_cell_angle_beta 90.000000
_cell_angle_gamma 90.000000
_cell_volume 5428.439405
_symmetry_space_group_name_H-M "P 4/M C C"
_symmetry_group_IT_number 124
_symmetry_cell_setting 'tetragonal'
loop_
_space_group_symop_operation_xyz
x,y,z
-y,x,z
-x,-y,z
y,-x,z
x,-y,1/2-z
-x,y,1/2-z
y,x,1/2-z
-y,-x,1/2-z
-x,-y,-z
y,-x,-z
x,y,-z
-y,x,-z
-x,y,1/2+z
x,-y,1/2+z
-y,-x,1/2+z
y,x,1/2+z
loop_
_atom_site_type_symbol
_atom_site_label
_atom_site_fract_x
_atom_site_fract_y
_atom_site_fract_z
Si Si1 0.000000 0.866161 0.250000
Si Si2 0.755601 0.000000 0.370007
Si Si3 0.263385 0.598974 0.750000
Si Si4 0.599081 0.898500 0.500000
Si Si5 0.821526 0.679463 0.874476
Si Si6 0.140738 0.000000 0.000000
Si Si7 0.320537 0.821526 0.625524
Si Si8 0.898500 0.400919 0.000000
O O1 1.000000 0.821983 0.184102
O O2 0.919115 0.919115 0.250000
O O3 0.800764 0.000001 0.438280
O O4 0.708089 0.085489 0.358061
O O5 0.708088 0.914512 0.358062
O O6 0.273552 0.500000 0.750000
O O7 0.349929 0.650072 0.750000
O O8 0.215530 0.628061 0.685338
O O9 0.215531 0.628061 0.814662
O O10 0.630374 0.844450 0.560582
O O11 0.500000 0.901081 0.500000
O O12 0.624318 1.000000 0.500000
O O13 0.757386 0.757386 0.885053
O O14 0.080485 0.080485 0.000000
O O15 0.369625 0.844450 0.560582
#
# Coordination Sequence:
#
# PCOD9562734 Si02
#       8
#     8  16  16   8  16   8  16   8
#     4  11  22  34  48  68  99 144 196 248 295 338
#     4  12  22  37  53  80 112 156 198 244 296 345
#     4  10  23  43  67  95 123 155 197 250 316 385
#     4  11  22  39  59  86 118 155 204 252 307 364
#     4  11  22  39  61  88 122 161 205 251 302 361
#     4  11  22  34  50  74 107 154 214 270 303 332
#     4  11  22  39  61  88 122 161 205 251 302 361
#     4  11  22  39  59  86 118 155 204 252 307 364
#
# _framework density 17.684640000000002
#
# number of rings (size 3 to 8) (size 9 to 14) (size 15 to 20)
#    0.000    1.000    1.667    6.500    0.000    2.833 
#    0.000    0.833    0.000    0.000    0.000    0.000 
#    0.000   12.000    0.000    0.000    0.000    0.000 
#
# Total GULP energy -534740.980761 kJ/mol
# GULP energy per Si atom -5570.218550 kJ/mol
# Density = 1.764439 g / cm^3
# Si number density = 17.684640 Si / 1000 Ang^3
#
#
#
# Elastic Constant Matrix: (Units=GPa)
#
#
# Indices 1 2 3 4 5 6 
#
# 1 150.4806 79.3824 76.1844 0.0000 0.0000 0.0000
# 2 79.3824 150.4809 76.1851 0.0000 0.0000 0.0000
# 3 76.1844 76.1851 159.2617 0.0000 0.0000 0.0000
# 4 0.0000 0.0000 0.0000 72.4523 0.0000 0.0000
# 5 0.0000 0.0000 0.0000 0.0000 72.4313 0.0000
# 6 0.0000 0.0000 0.0000 0.0000 0.0000 18.4594
#
#
#
# Elastic Compliance Matrix: (Units=1/GPa)
#
#
# Indices 1 2 3 4 5 6 
#
# 1 0.010218 -0.003847 -0.003047 0.000000 0.000000 0.000000
# 2 -0.003847 0.010218 -0.003047 0.000000 0.000000 0.000000
# 3 -0.003047 -0.003047 0.009194 0.000000 0.000000 0.000000
# 4 0.000000 0.000000 0.000000 0.013802 0.000000 0.000000
# 5 0.000000 0.000000 0.000000 0.000000 0.013806 0.000000
# 6 0.000000 0.000000 0.000000 0.000000 0.000000 0.054173
#
#
# Mechanical properties :
#
#
# Convention : Reuss Voigt Hill
#
# Bulk Modulus (GPa) = 102.60787 102.63630 102.62209
# Shear Modulus (GPa) = 37.16258 47.90003 42.53131
#
# Velocity S-wave (km/s) = 4.58908 5.21004 4.90939
# Velocity P-wave (km/s) = 9.28582 9.71368 9.50216
#
# Compressibility (1/GPa) = 0.00974584
#
# Stress axis : x y z
#
# Youngs Moduli (GPa) = 97.86928 97.86898 108.76104
#
# Poissons Ratio (x) = 0.37653 0.33143
# Poissons Ratio (y) = 0.37653 0.33144
# Poissons Ratio (z) = 0.29824 0.29825
#
# Static dielectric constant tensor:
#      x y z
#    x 1.638960 0.000000 0.000000 
#    y 0.000000 1.638960 0.000000 
#    z 0.000000 0.000000 1.148730 
# 
# From -- ./inp_files/5422.got.cif
#   From: 2010.05.17/outbox.cif.g08.bks.cpg/sg124_3_cif.got.tgz:5422.got - 2010.05.20 11:49:17.
