data_PCOD9562751
_publ_section_title
;
Structure prediction by ZEFSAII (Michael W. Deem and Ramdas Pophale) SiO2 
 PCOD9562751
Probable space group: P 4/M C C
;
_chemical_formula_sum "Si O2"
_cell_formula_units_Z 72
_cell_length_a 11.811596
_cell_length_b 11.811596
_cell_length_c 27.692534
_cell_angle_alpha 90.000000
_cell_angle_beta 90.000000
_cell_angle_gamma 90.000000
_cell_volume 3863.490652
_symmetry_space_group_name_H-M "P 4/M C C"
_symmetry_group_IT_number 124
_symmetry_cell_setting 'tetragonal'
loop_
_space_group_symop_operation_xyz
x,y,z
-y,x,z
-x,-y,z
y,-x,z
x,-y,1/2-z
-x,y,1/2-z
y,x,1/2-z
-y,-x,1/2-z
-x,-y,-z
y,-x,-z
x,y,-z
-y,x,-z
-x,y,1/2+z
x,-y,1/2+z
-y,-x,1/2+z
y,x,1/2+z
loop_
_atom_site_type_symbol
_atom_site_label
_atom_site_fract_x
_atom_site_fract_y
_atom_site_fract_z
Si Si1 0.704393 0.843169 0.872960
Si Si2 0.914730 0.287720 0.399950
Si Si3 0.384666 0.354564 0.807483
Si Si4 0.505302 0.862133 0.944264
Si Si5 0.018763 0.812491 0.500000
O O1 0.833884 0.814863 0.885643
O O2 0.672902 0.754258 0.831381
O O3 0.618329 0.821094 0.917660
O O4 0.692071 0.978630 0.864717
O O5 0.836480 0.396738 0.410677
O O6 0.969269 0.259094 0.451860
O O7 0.517885 0.347129 0.821132
O O8 0.360147 0.360147 0.750000
O O9 0.500000 0.000000 0.944480
O O10 0.497057 0.824562 0.000000
O O11 0.902833 0.880373 0.500000
#
# Coordination Sequence:
#
# PCOD9562751 Si02
#       5
#    16  16  16  16   8
#     4  11  22  34  52  82 113 148 188 235 282 344
#     4  11  21  33  53  77 115 152 198 238 281 335
#     4   9  19  40  68  89 106 135 180 238 300 355
#     4   9  19  31  47  72 109 152 190 229 278 329
#     4  11  20  32  49  77 113 155 204 239 272 330
#
# _framework density 18.635997
#
# number of rings (size 3 to 8) (size 9 to 14) (size 15 to 20)
#    0.000    1.889    3.333    2.000    3.111    0.444 
#    0.000    1.111    0.000    2.667    0.000    6.222 
#    0.000    0.000    0.000    0.000    0.000    0.000 
#
# Total GULP energy -401005.307698 kJ/mol
# GULP energy per Si atom -5569.518162 kJ/mol
# Density = 1.859358 g / cm^3
# Si number density = 18.635997 Si / 1000 Ang^3
#
#
#
# Elastic Constant Matrix: (Units=GPa)
#
#
# Indices 1 2 3 4 5 6 
#
# 1 87.7701 19.7250 30.4315 0.0000 0.0000 0.0000
# 2 19.7250 87.7701 30.4315 0.0000 0.0000 0.0000
# 3 30.4315 30.4315 49.8649 0.0000 0.0000 0.0000
# 4 0.0000 0.0000 0.0000 29.2798 0.0000 0.0000
# 5 0.0000 0.0000 0.0000 0.0000 29.2798 0.0000
# 6 0.0000 0.0000 0.0000 0.0000 0.0000 41.8382
#
#
#
# Elastic Compliance Matrix: (Units=1/GPa)
#
#
# Indices 1 2 3 4 5 6 
#
# 1 0.014455 -0.000241 -0.008675 0.000000 0.000000 0.000000
# 2 -0.000241 0.014455 -0.008675 0.000000 0.000000 0.000000
# 3 -0.008675 -0.008675 0.030642 0.000000 0.000000 0.000000
# 4 0.000000 0.000000 0.000000 0.034153 0.000000 0.000000
# 5 0.000000 0.000000 0.000000 0.000000 0.034153 0.000000
# 6 0.000000 0.000000 0.000000 0.000000 0.000000 0.023902
#
#
# Mechanical properties :
#
#
# Convention : Reuss Voigt Hill
#
# Bulk Modulus (GPa) = 41.03072 42.95346 41.99209
# Shear Modulus (GPa) = 25.63245 29.73403 27.68324
#
# Velocity S-wave (km/s) = 3.71270 3.99872 3.85836
# Velocity P-wave (km/s) = 6.35952 6.66471 6.51391
#
# Compressibility (1/GPa) = 0.02437199
#
# Stress axis : x y z
#
# Youngs Moduli (GPa) = 69.17913 69.17913 32.63480
#
# Poissons Ratio (x) = 0.01667 0.28310
# Poissons Ratio (y) = 0.01667 0.28310
# Poissons Ratio (z) = 0.60011 0.60011
#
# Static dielectric constant tensor:
#      x y z
#    x 1.692460 0.000000 0.000000 
#    y 0.000000 1.692460 0.000000 
#    z 0.000000 0.000000 1.636700 
# 
# From -- ./inp_files/6464.got.cif
#   From: 2010.05.17/outbox.cif.g08.bks.cpg/sg124_4_cif.got.tgz:6464.got - 2010.05.20 11:49:17.
