data_PCOD9562200
_publ_section_title
;
Structure prediction by ZEFSAII (Michael W. Deem and Ramdas Pophale) SiO2 
 PCOD9562200
Probable space group: P 4/M M M
;
_chemical_formula_sum "Si O2"
_cell_formula_units_Z 56
_cell_length_a 18.359560
_cell_length_b 18.359560
_cell_length_c 8.304750
_cell_angle_alpha 90.000000
_cell_angle_beta 90.000000
_cell_angle_gamma 90.000000
_cell_volume 2799.310679
_symmetry_space_group_name_H-M "P 4/M M M"
_symmetry_group_IT_number 123
_symmetry_cell_setting 'tetragonal'
loop_
_space_group_symop_operation_xyz
x,y,z
-y,x,z
-x,-y,z
y,-x,z
x,-y,-z
-x,y,-z
y,x,-z
-y,-x,-z
-x,-y,-z
y,-x,-z
x,y,-z
-y,x,-z
-x,y,z
x,-y,z
-y,-x,z
y,x,z
loop_
_atom_site_type_symbol
_atom_site_label
_atom_site_fract_x
_atom_site_fract_y
_atom_site_fract_z
Si Si1 0.305359 0.582144 0.806464
Si Si2 0.500000 0.086726 0.816313
Si Si3 0.157866 0.353302 0.308674
Si Si4 0.916107 0.797302 0.303109
O O1 0.294941 0.500000 0.743910
O O2 0.379077 0.620924 0.749354
O O3 0.237608 0.632727 0.761284
O O4 0.308153 0.578108 0.000000
O O5 0.426277 0.113534 0.733432
O O6 0.500000 0.000000 0.819207
O O7 0.500000 0.115535 0.000000
O O8 0.164283 0.346953 0.500000
O O9 0.118253 0.279951 0.249828
O O10 0.916595 0.796692 0.500000
O O11 0.863471 0.863471 0.253257
O O12 0.000000 0.804609 0.250800
#
# Coordination Sequence:
#
# PCOD9562200 Si02
#       4
#    16   8  16  16
#     4  10  21  37  57  81 112 150 191 235 283 338
#     4  11  23  37  55  81 114 149 186 231 281 342
#     4  11  21  35  56  83 115 150 187 233 288 344
#     4   9  18  32  51  78 112 149 189 232 278 331
#
# _framework density 20.004925
#
# number of rings (size 3 to 8) (size 9 to 14) (size 15 to 20)
#    0.000    1.857    1.429    3.000    0.000    4.571 
#    0.000    2.857    0.000    0.000    0.000    2.000 
#    0.000    0.000    0.000   17.714    0.000   18.286 
#
# Total GULP energy -312735.018858 kJ/mol
# GULP energy per Si atom -5584.553908 kJ/mol
# Density = 1.995939 g / cm^3
# Si number density = 20.004925 Si / 1000 Ang^3
#
#
#
# Elastic Constant Matrix: (Units=GPa)
#
#
# Indices 1 2 3 4 5 6 
#
# 1 142.0196 124.3202 8.3613 0.0000 0.0000 0.0000
# 2 124.3202 142.0196 8.3613 0.0000 0.0000 0.0000
# 3 8.3613 8.3613 6.8968 0.0000 0.0000 0.0000
# 4 0.0000 0.0000 0.0000 17.5398 0.0000 0.0000
# 5 0.0000 0.0000 0.0000 0.0000 17.5398 0.0000
# 6 0.0000 0.0000 0.0000 0.0000 0.0000 44.0644
#
#
#
# Elastic Compliance Matrix: (Units=1/GPa)
#
#
# Indices 1 2 3 4 5 6 
#
# 1 0.030282 -0.026218 -0.004927 0.000000 0.000000 0.000000
# 2 -0.026218 0.030282 -0.004927 0.000000 0.000000 0.000000
# 3 -0.004927 -0.004927 0.156941 0.000000 0.000000 0.000000
# 4 0.000000 0.000000 0.000000 0.057013 0.000000 0.000000
# 5 0.000000 0.000000 0.000000 0.000000 0.057013 0.000000
# 6 0.000000 0.000000 0.000000 0.000000 0.000000 0.022694
#
#
# Mechanical properties :
#
#
# Convention : Reuss Voigt Hill
#
# Bulk Modulus (GPa) = 6.87942 63.66908 35.27425
# Shear Modulus (GPa) = 10.53028 25.82168 18.17598
#
# Velocity S-wave (km/s) = 2.29680 3.59662 3.01753
# Velocity P-wave (km/s) = 3.23729 7.01023 5.46001
#
# Compressibility (1/GPa) = 0.14536119
#
# Stress axis : x y z
#
# Youngs Moduli (GPa) = 33.02342 33.02342 6.37182
#
# Poissons Ratio (x) = 0.86579 0.03139
# Poissons Ratio (y) = 0.86579 0.03139
# Poissons Ratio (z) = 0.16270 0.16270
#
# Static dielectric constant tensor:
#      x y z
#    x 1.699660 0.000000 0.000000 
#    y 0.000000 1.699660 0.000000 
#    z 0.000000 0.000000 1.710370 
# 
# From -- ./inp_files/574.got.cif
#   From: 2010.05.17/outbox.cif.g08.bks.cpg/sg123_1_cif.got.tgz:574.got - 2010.05.20 11:43:04.
