data_PCOD9562383
_publ_section_title
;
Structure prediction by ZEFSAII (Michael W. Deem and Ramdas Pophale) SiO2 
 PCOD9562383
Probable space group: P 4/M C C
;
_chemical_formula_sum "Si O2"
_cell_formula_units_Z 96
_cell_length_a 20.333132
_cell_length_b 20.333132
_cell_length_c 14.078808
_cell_angle_alpha 90.000000
_cell_angle_beta 90.000000
_cell_angle_gamma 90.000000
_cell_volume 5820.689682
_symmetry_space_group_name_H-M "P 4/M C C"
_symmetry_group_IT_number 124
_symmetry_cell_setting 'tetragonal'
loop_
_space_group_symop_operation_xyz
x,y,z
-y,x,z
-x,-y,z
y,-x,z
x,-y,1/2-z
-x,y,1/2-z
y,x,1/2-z
-y,-x,1/2-z
-x,-y,-z
y,-x,-z
x,y,-z
-y,x,-z
-x,y,1/2+z
x,-y,1/2+z
-y,-x,1/2+z
y,x,1/2+z
loop_
_atom_site_type_symbol
_atom_site_label
_atom_site_fract_x
_atom_site_fract_y
_atom_site_fract_z
Si Si1 0.962268 0.341057 0.893507
Si Si2 0.822266 0.825120 0.886557
Si Si3 0.131116 0.279173 0.747624
Si Si4 0.926479 0.514615 0.361756
Si Si5 0.945075 0.089720 0.884932
Si Si6 0.882629 0.378040 0.396006
O O1 0.934658 0.294985 0.811352
O O2 0.919790 0.408670 0.883970
O O3 0.039296 0.359611 0.883495
O O4 0.953248 0.313673 0.000000
O O5 0.869847 0.773513 0.833656
O O6 0.752298 0.821772 0.832881
O O7 0.850748 0.897359 0.861452
O O8 0.820114 0.817152 0.000000
O O9 0.151216 0.344649 0.805635
O O10 0.927878 0.500000 0.250000
O O11 0.879581 0.457047 0.397870
O O12 0.000000 0.500000 0.398177
O O13 0.020767 0.087936 0.853781
O O14 0.947212 0.088512 0.000000
O O15 0.862015 0.352872 0.500000
#
# Coordination Sequence:
#
# PCOD9562383 Si02
#       6
#    16  16  16  16  16  16
#     4  10  19  30  46  68  93 119 144 170 207 259
#     4  10  22  37  50  64  82 106 138 184 240 288
#     4  11  21  33  46  60  82 109 141 177 212 260
#     4   9  15  27  45  66  95 123 142 165 199 246
#     4   8  15  30  50  65  74  89 119 164 223 289
#     4  10  19  30  46  68  93 119 144 170 207 259
#
# _framework density 16.492891
#
# number of rings (size 3 to 8) (size 9 to 14) (size 15 to 20)
#    0.000    2.333    1.667    2.500    0.000    4.667 
#    0.000    5.833    0.000    4.000    0.000    0.000 
#    0.000    0.000    0.000    0.000    0.000    0.000 
#
# Total GULP energy -534478.834125 kJ/mol
# GULP energy per Si atom -5567.487855 kJ/mol
# Density = 1.645535 g / cm^3
# Si number density = 16.492891 Si / 1000 Ang^3
#
#
#
# Elastic Constant Matrix: (Units=GPa)
#
#
# Indices 1 2 3 4 5 6 
#
# 1 40.4678 18.0990 19.2115 0.0000 0.0000 0.0000
# 2 18.0990 40.4678 19.2115 0.0000 0.0000 0.0000
# 3 19.2115 19.2115 129.9729 0.0000 0.0000 0.0000
# 4 0.0000 0.0000 0.0000 17.1996 0.0000 0.0000
# 5 0.0000 0.0000 0.0000 0.0000 17.1996 0.0000
# 6 0.0000 0.0000 0.0000 0.0000 0.0000 9.1558
#
#
#
# Elastic Compliance Matrix: (Units=1/GPa)
#
#
# Indices 1 2 3 4 5 6 
#
# 1 0.031807 -0.012899 -0.002795 0.000000 0.000000 0.000000
# 2 -0.012899 0.031807 -0.002795 0.000000 0.000000 0.000000
# 3 -0.002795 -0.002795 0.008520 0.000000 0.000000 0.000000
# 4 0.000000 0.000000 0.000000 0.058141 0.000000 0.000000
# 5 0.000000 0.000000 0.000000 0.000000 0.058141 0.000000
# 6 0.000000 0.000000 0.000000 0.000000 0.000000 0.109220
#
#
# Mechanical properties :
#
#
# Convention : Reuss Voigt Hill
#
# Bulk Modulus (GPa) = 28.44387 35.99472 32.21930
# Shear Modulus (GPa) = 14.43707 19.00345 16.72026
#
# Velocity S-wave (km/s) = 2.96184 3.39812 3.18745
# Velocity P-wave (km/s) = 5.38333 6.10476 5.75536
#
# Compressibility (1/GPa) = 0.03515696
#
# Stress axis : x y z
#
# Youngs Moduli (GPa) = 31.44000 31.44000 117.36912
#
# Poissons Ratio (x) = 0.40553 0.32803
# Poissons Ratio (y) = 0.40553 0.32803
# Poissons Ratio (z) = 0.08787 0.08787
#
# Static dielectric constant tensor:
#      x y z
#    x 1.591210 0.000000 0.000000 
#    y 0.000000 1.591210 0.000000 
#    z 0.000000 0.000000 1.641980 
# 
# From -- ./inp_files/3400.got.cif
#   From: 2010.05.17/outbox.cif.g08.bks.cpg/sg124_2_cif.got.tgz:3400.got - 2010.05.20 11:49:17.
