data_PCOD9562875
_publ_section_title
;
Structure prediction by ZEFSAII (Michael W. Deem and Ramdas Pophale) SiO2 
 PCOD9562875
Probable space group: P 4/M C C
;
_chemical_formula_sum "Si O2"
_cell_formula_units_Z 88
_cell_length_a 12.000000
_cell_length_b 12.000000
_cell_length_c 30.000000
_cell_angle_alpha 90.000000
_cell_angle_beta 90.000000
_cell_angle_gamma 90.000000
_cell_volume 4320.000000
_symmetry_space_group_name_H-M "P 4/M C C"
_symmetry_group_IT_number 124
_symmetry_cell_setting 'tetragonal'
loop_
_space_group_symop_operation_xyz
x,y,z
-y,x,z
-x,-y,z
y,-x,z
x,-y,1/2-z
-x,y,1/2-z
y,x,1/2-z
-y,-x,1/2-z
-x,-y,-z
y,-x,-z
x,y,-z
-y,x,-z
-x,y,1/2+z
x,-y,1/2+z
-y,-x,1/2+z
y,x,1/2+z
loop_
_atom_site_type_symbol
_atom_site_label
_atom_site_fract_x
_atom_site_fract_y
_atom_site_fract_z
Si Si1 0.636840 0.915415 0.000000
Si Si2 0.853978 0.106716 0.103666
Si Si3 0.172062 0.372205 0.129504
Si Si4 0.317245 0.516256 0.302878
Si Si5 0.000000 0.500000 0.422813
Si Si6 0.786978 0.861267 0.500000
Si Si7 0.429825 0.672994 0.047688
O O1 0.561178 0.913794 0.044125
O O2 0.728454 0.819359 0.000000
O O3 0.692014 0.040336 0.000000
O O4 0.760424 0.169029 0.132265
O O5 0.976148 0.150139 0.113966
O O6 0.835940 0.115252 0.049974
O O7 0.207842 0.447846 0.170860
O O8 0.257293 0.397916 0.089815
O O9 0.055718 0.409687 0.108585
O O10 0.383644 0.403655 0.314899
O O11 0.300775 0.500000 0.250000
O O12 0.362367 0.558021 0.048706
O O13 0.407631 0.730946 0.000000
#
# Coordination Sequence:
#
# PCOD9562875 Si02
#       7
#     8  16  16  16   8   8  16
#     4  11  24  37  56  76 124 164 223 262 308 345
#     4  11  23  38  56  83 118 166 227 271 295 353
#     4  12  23  37  60  85 118 161 195 249 325 367
#     4   9  20  41  68  96 122 150 194 247 300 377
#     4  11  26  42  45  88 128 154 199 280 307 360
#     4  12  18  37  56  76 104 180 224 266 297 353
#     4   9  20  36  51  76 112 153 199 238 284 366
#
# _framework density 20.370370000000001
#
# number of rings (size 3 to 8) (size 9 to 14) (size 15 to 20)
#    0.000    1.455    3.636    2.182    3.818    8.182 
#    0.000    0.455    0.000    0.000    0.000    0.000 
#    0.000    5.818    0.000    0.000    0.000    0.000 
#
# Total GULP energy -490713.672015 kJ/mol
# GULP energy per Si atom -5576.291727 kJ/mol
# Density = 2.032401 g / cm^3
# Si number density = 20.370370 Si / 1000 Ang^3
#
#
#
# Elastic Constant Matrix: (Units=GPa)
#
#
# Indices 1 2 3 4 5 6 
#
# 1 66.6472 26.4718 24.4784 0.0000 0.0000 0.0000
# 2 26.4718 66.6472 24.4784 0.0000 0.0000 0.0000
# 3 24.4784 24.4784 51.4677 0.0000 0.0000 0.0000
# 4 0.0000 0.0000 0.0000 13.5649 0.0000 0.0000
# 5 0.0000 0.0000 0.0000 0.0000 13.5649 0.0000
# 6 0.0000 0.0000 0.0000 0.0000 0.0000 14.8213
#
#
#
# Elastic Compliance Matrix: (Units=1/GPa)
#
#
# Indices 1 2 3 4 5 6 
#
# 1 0.019605 -0.005286 -0.006810 0.000000 0.000000 0.000000
# 2 -0.005286 0.019605 -0.006810 0.000000 0.000000 0.000000
# 3 -0.006810 -0.006810 0.025908 0.000000 0.000000 0.000000
# 4 0.000000 0.000000 0.000000 0.073720 0.000000 0.000000
# 5 0.000000 0.000000 0.000000 0.000000 0.073720 0.000000
# 6 0.000000 0.000000 0.000000 0.000000 0.000000 0.067471
#
#
# Mechanical properties :
#
#
# Convention : Reuss Voigt Hill
#
# Bulk Modulus (GPa) = 36.62325 37.29102 36.95714
# Shear Modulus (GPa) = 15.29320 15.67913 15.48616
#
# Velocity S-wave (km/s) = 2.74297 2.77736 2.76022
# Velocity P-wave (km/s) = 5.29618 5.35081 5.32357
#
# Compressibility (1/GPa) = 0.02730506
#
# Stress axis : x y z
#
# Youngs Moduli (GPa) = 51.00690 51.00690 38.59829
#
# Poissons Ratio (x) = 0.26961 0.26287
# Poissons Ratio (y) = 0.26961 0.26287
# Poissons Ratio (z) = 0.34738 0.34738
#
# Static dielectric constant tensor:
#      x y z
#    x 1.813140 0.000000 0.000000 
#    y 0.000000 1.813140 0.000000 
#    z 0.000000 0.000000 1.688780 
# 
# From -- ./inp_files/7143.got.cif
#   From: 2010.05.17/outbox.ucp.g08.bks.cvg/sg124_4_cif.got.tgz:7143.got - 2010.06.11 11:36:13.
