data_PCOD9562292
_publ_section_title
;
Structure prediction by ZEFSAII (Michael W. Deem and Ramdas Pophale) SiO2 
 PCOD9562292
Probable space group: P 4/M M M
;
_chemical_formula_sum "Si O2"
_cell_formula_units_Z 96
_cell_length_a 18.000000
_cell_length_b 18.000000
_cell_length_c 18.000000
_cell_angle_alpha 90.000000
_cell_angle_beta 90.000000
_cell_angle_gamma 90.000000
_cell_volume 5832.000000
_symmetry_space_group_name_H-M "P 4/M M M"
_symmetry_group_IT_number 123
_symmetry_cell_setting 'tetragonal'
loop_
_space_group_symop_operation_xyz
x,y,z
-y,x,z
-x,-y,z
y,-x,z
x,-y,-z
-x,y,-z
y,x,-z
-y,-x,-z
-x,-y,-z
y,-x,-z
x,y,-z
-y,x,-z
-x,y,z
x,-y,z
-y,-x,z
y,x,z
loop_
_atom_site_type_symbol
_atom_site_label
_atom_site_fract_x
_atom_site_fract_y
_atom_site_fract_z
Si Si1 0.866783 0.629361 0.416876
Si Si2 0.418095 0.084704 0.737039
Si Si3 0.291728 0.412598 0.361772
Si Si4 0.084735 0.203121 0.589658
Si Si5 0.297181 0.585236 0.086828
Si Si6 0.662835 0.778174 0.218431
O O1 0.894234 0.615319 0.500000
O O2 0.908334 0.585907 0.352083
O O3 0.780171 0.608476 0.410694
O O4 0.878397 0.716443 0.399105
O O5 0.500000 0.112541 0.760682
O O6 0.353087 0.136484 0.766967
O O7 0.410467 0.000000 0.759374
O O8 0.305898 0.500000 0.365544
O O9 0.362191 0.362191 0.381682
O O10 0.265228 0.388094 0.279060
O O11 0.080781 0.194767 0.500000
O O12 0.137511 0.137511 0.618288
O O13 0.000000 0.202073 0.617772
O O14 0.296146 0.500000 0.109593
O O15 0.378269 0.621732 0.096141
O O16 0.243500 0.633064 0.137973
O O17 0.277922 0.590376 0.000000
O O18 0.744858 0.744858 0.228671
#
# Coordination Sequence:
#
# PCOD9562292 Si02
#       6
#    16  16  16  16  16  16
#     4  10  19  32  47  62  83 109 141 178 216 264
#     4  10  20  32  47  67  89 113 141 178 225 267
#     4  10  20  32  47  65  84 111 145 181 222 263
#     4   9  17  28  42  60  81 104 129 160 199 244
#     4   9  16  25  40  63  90 121 154 187 222 257
#     4   9  17  31  48  65  88 117 151 183 212 258
#
# _framework density 16.460905
#
# number of rings (size 3 to 8) (size 9 to 14) (size 15 to 20)
#    0.000    2.500    0.000    4.000    0.000    4.500 
#    0.000    2.500    0.000    3.500    0.000    3.500 
#    0.000    0.333    0.000    0.000    0.000    0.000 
#
# Total GULP energy -534805.003430 kJ/mol
# GULP energy per Si atom -5570.885452 kJ/mol
# Density = 1.642344 g / cm^3
# Si number density = 16.460905 Si / 1000 Ang^3
#
#
#
# Elastic Constant Matrix: (Units=GPa)
#
#
# Indices 1 2 3 4 5 6 
#
# 1 65.0466 41.8455 0.9501 0.0000 0.0000 0.0000
# 2 41.8455 65.0466 0.9501 0.0000 0.0000 0.0000
# 3 0.9501 0.9501 20.2210 0.0000 0.0000 0.0000
# 4 0.0000 0.0000 0.0000 3.1556 0.0000 0.0000
# 5 0.0000 0.0000 0.0000 0.0000 3.1556 0.0000
# 6 0.0000 0.0000 0.0000 0.0000 0.0000 16.5116
#
#
#
# Elastic Compliance Matrix: (Units=1/GPa)
#
#
# Indices 1 2 3 4 5 6 
#
# 1 0.026232 -0.016869 -0.000440 0.000000 0.000000 0.000000
# 2 -0.016869 0.026232 -0.000440 0.000000 0.000000 0.000000
# 3 -0.000440 -0.000440 0.049495 0.000000 0.000000 0.000000
# 4 0.000000 0.000000 0.000000 0.316900 0.000000 0.000000
# 5 0.000000 0.000000 0.000000 0.000000 0.316900 0.000000
# 6 0.000000 0.000000 0.000000 0.000000 0.000000 0.060563
#
#
# Mechanical properties :
#
#
# Convention : Reuss Voigt Hill
#
# Bulk Modulus (GPa) = 15.04634 26.42283 20.73458
# Shear Modulus (GPa) = 5.85497 11.66913 8.76205
#
# Velocity S-wave (km/s) = 1.88802 2.66541 2.30965
# Velocity P-wave (km/s) = 3.73006 5.05561 4.44255
#
# Compressibility (1/GPa) = 0.06646137
#
# Stress axis : x y z
#
# Youngs Moduli (GPa) = 38.12109 38.12109 20.20409
#
# Poissons Ratio (x) = 0.64307 0.00889
# Poissons Ratio (y) = 0.64307 0.00889
# Poissons Ratio (z) = 0.01677 0.01677
#
# Static dielectric constant tensor:
#      x y z
#    x 1.572630 0.000000 0.000000 
#    y 0.000000 1.572630 0.000000 
#    z 0.000000 0.000000 1.568120 
# 
# From -- ./inp_files/5469.got.cif
#   From: 2010.05.17/outbox.ucp.g08.bks.cvg/sg123_3_cif.got.tgz:5469.got - 2010.06.11 11:35:48.
