data_PCOD9562802
_publ_section_title
;
Structure prediction by ZEFSAII (Michael W. Deem and Ramdas Pophale) SiO2 
 PCOD9562802
Probable space group: P 4/M C C
;
_chemical_formula_sum "Si O2"
_cell_formula_units_Z 72
_cell_length_a 11.798305
_cell_length_b 11.798305
_cell_length_c 29.461319
_cell_angle_alpha 90.000000
_cell_angle_beta 90.000000
_cell_angle_gamma 90.000000
_cell_volume 4101.015631
_symmetry_space_group_name_H-M "P 4/M C C"
_symmetry_group_IT_number 124
_symmetry_cell_setting 'tetragonal'
loop_
_space_group_symop_operation_xyz
x,y,z
-y,x,z
-x,-y,z
y,-x,z
x,-y,1/2-z
-x,y,1/2-z
y,x,1/2-z
-y,-x,1/2-z
-x,-y,-z
y,-x,-z
x,y,-z
-y,x,-z
-x,y,1/2+z
x,-y,1/2+z
-y,-x,1/2+z
y,x,1/2+z
loop_
_atom_site_type_symbol
_atom_site_label
_atom_site_fract_x
_atom_site_fract_y
_atom_site_fract_z
Si Si1 0.670754 0.000000 0.250000
Si Si2 0.790351 0.441982 0.797002
Si Si3 0.826114 0.924633 0.676074
Si Si4 0.665258 0.754457 0.354326
Si Si5 0.620346 0.648246 0.549197
O O1 0.600401 0.916726 0.217108
O O2 0.753338 0.917481 0.277915
O O3 0.744976 0.500000 0.750000
O O4 0.722875 0.336186 0.819151
O O5 0.786290 0.542981 0.833676
O O6 0.741304 0.866865 0.641474
O O7 0.943722 0.857886 0.673518
O O8 0.660080 0.701818 0.404085
O O9 0.483963 0.652713 0.549867
O O10 0.658647 0.695486 0.500000
#
# Coordination Sequence:
#
# PCOD9562802 Si02
#       5
#     8  16  16  16  16
#     4  12  23  41  54  82 120 163 213 254 290 336
#     4  12  25  37  54  85 127 169 200 236 291 362
#     4  11  24  39  59  82 110 156 213 255 291 340
#     4  12  23  39  60  88 123 163 199 246 303 364
#     4   9  18  36  62  90 121 157 198 245 302 373
#
# _framework density 17.556626999999999
#
# number of rings (size 3 to 8) (size 9 to 14) (size 15 to 20)
#    0.000    0.889    6.667    2.333    0.000    1.333 
#    0.000    1.111    0.000    1.333    0.000    6.222 
#    0.000    0.000    0.000    0.000    0.000    0.000 
#
# Total GULP energy -401260.147628 kJ/mol
# GULP energy per Si atom -5573.057606 kJ/mol
# Density = 1.751667 g / cm^3
# Si number density = 17.556627 Si / 1000 Ang^3
#
#
#
# Elastic Constant Matrix: (Units=GPa)
#
#
# Indices 1 2 3 4 5 6 
#
# 1 77.7389 48.3436 31.2576 0.0000 0.0000 0.0000
# 2 48.3436 77.7389 31.2576 0.0000 0.0000 0.0000
# 3 31.2576 31.2576 121.3349 0.0000 0.0000 0.0000
# 4 0.0000 0.0000 0.0000 20.4739 0.0000 0.0000
# 5 0.0000 0.0000 0.0000 0.0000 20.4739 0.0000
# 6 0.0000 0.0000 0.0000 0.0000 0.0000 34.4214
#
#
#
# Elastic Compliance Matrix: (Units=1/GPa)
#
#
# Indices 1 2 3 4 5 6 
#
# 1 0.021556 -0.012463 -0.002342 0.000000 0.000000 0.000000
# 2 -0.012463 0.021556 -0.002342 0.000000 0.000000 0.000000
# 3 -0.002342 -0.002342 0.009449 0.000000 0.000000 0.000000
# 4 0.000000 0.000000 0.000000 0.048843 0.000000 0.000000
# 5 0.000000 0.000000 0.000000 0.000000 0.048843 0.000000
# 6 0.000000 0.000000 0.000000 0.000000 0.000000 0.029052
#
#
# Mechanical properties :
#
#
# Convention : Reuss Voigt Hill
#
# Bulk Modulus (GPa) = 54.75147 55.39225 55.07186
# Shear Modulus (GPa) = 22.76024 26.13745 24.44885
#
# Velocity S-wave (km/s) = 3.60445 3.86262 3.73576
# Velocity P-wave (km/s) = 6.96965 7.17720 7.07419
#
# Compressibility (1/GPa) = 0.01826435
#
# Stress axis : x y z
#
# Youngs Moduli (GPa) = 46.39102 46.39102 105.83661
#
# Poissons Ratio (x) = 0.57818 0.24791
# Poissons Ratio (y) = 0.57818 0.24791
# Poissons Ratio (z) = 0.10867 0.10867
#
# Static dielectric constant tensor:
#      x y z
#    x 1.638640 0.000000 0.000000 
#    y 0.000000 1.638640 0.000000 
#    z 0.000000 0.000000 1.630000 
# 
# From -- ./inp_files/6457.got.cif
#   From: 2010.05.17/outbox.cif.g08.bks.cpg/sg124_4_cif.got.tgz:6457.got - 2010.05.20 11:49:17.
