data_PCOD9562466
_publ_section_title
;
Structure prediction by ZEFSAII (Michael W. Deem and Ramdas Pophale) SiO2 
 PCOD9562466
Probable space group: P 4/M C C
;
_chemical_formula_sum "Si O2"
_cell_formula_units_Z 96
_cell_length_a 24.358640
_cell_length_b 24.358640
_cell_length_c 8.686903
_cell_angle_alpha 90.000000
_cell_angle_beta 90.000000
_cell_angle_gamma 90.000000
_cell_volume 5154.316063
_symmetry_space_group_name_H-M "P 4/M C C"
_symmetry_group_IT_number 124
_symmetry_cell_setting 'tetragonal'
loop_
_space_group_symop_operation_xyz
x,y,z
-y,x,z
-x,-y,z
y,-x,z
x,-y,1/2-z
-x,y,1/2-z
y,x,1/2-z
-y,-x,1/2-z
-x,-y,-z
y,-x,-z
x,y,-z
-y,x,-z
-x,y,1/2+z
x,-y,1/2+z
-y,-x,1/2+z
y,x,1/2+z
loop_
_atom_site_type_symbol
_atom_site_label
_atom_site_fract_x
_atom_site_fract_y
_atom_site_fract_z
Si Si1 0.739548 0.180720 0.313459
Si Si2 0.054132 0.411633 0.819295
Si Si3 0.289745 0.057452 0.816260
Si Si4 0.745523 0.361121 0.824074
Si Si5 0.837772 0.548893 0.327439
Si Si6 0.648337 0.562968 0.185501
O O1 0.796215 0.203786 0.250000
O O2 0.736628 0.181965 0.500000
O O3 0.731793 0.117314 0.265387
O O4 0.693130 0.224584 0.256974
O O5 0.058394 0.353184 0.734417
O O6 0.110088 0.441505 0.778965
O O7 0.000000 0.438932 0.750000
O O8 0.047746 0.403776 0.000000
O O9 0.266256 0.000000 0.750000
O O10 0.286017 0.054817 0.000000
O O11 0.798335 0.399989 0.833659
O O12 0.698178 0.395628 0.737758
O O13 0.725665 0.350103 0.000000
O O14 0.804307 0.500000 0.250000
O O15 0.856047 0.536606 0.500000
O O16 0.653999 0.500000 0.250000
O O17 0.593437 0.593437 0.250000
O O18 0.647194 0.560563 0.000000
#
# Coordination Sequence:
#
# PCOD9562466 Si02
#       6
#    16  16  16  16  16  16
#     4  10  21  36  56  85 120 154 192 237 282 331
#     4  11  21  34  53  75 101 139 185 232 285 336
#     4  10  19  35  55  80 112 151 192 239 285 334
#     4  10  21  40  61  85 118 153 186 231 283 337
#     4  11  22  37  54  76 107 141 186 236 283 333
#     4  12  26  45  68  94 120 149 186 229 282 347
#
# _framework density 18.625169
#
# number of rings (size 3 to 8) (size 9 to 14) (size 15 to 20)
#    0.000    1.333    1.667    6.000    0.000    6.500 
#    0.000    2.500    0.000    0.000    0.000    0.000 
#    0.000    0.333    0.000    3.667    0.000    2.667 
#
# Total GULP energy -535372.360018 kJ/mol
# GULP energy per Si atom -5576.795417 kJ/mol
# Density = 1.858278 g / cm^3
# Si number density = 18.625169 Si / 1000 Ang^3
#
#
#
# Elastic Constant Matrix: (Units=GPa)
#
#
# Indices 1 2 3 4 5 6 
#
# 1 104.6249 66.0255 32.0700 0.0000 0.0000 0.0000
# 2 66.0255 104.6295 32.0702 0.0000 0.0000 0.0000
# 3 32.0700 32.0702 67.9120 0.0000 0.0000 0.0000
# 4 0.0000 0.0000 0.0000 26.5949 0.0000 0.0000
# 5 0.0000 0.0000 0.0000 0.0000 26.5949 0.0000
# 6 0.0000 0.0000 0.0000 0.0000 0.0000 8.2818
#
#
#
# Elastic Compliance Matrix: (Units=1/GPa)
#
#
# Indices 1 2 3 4 5 6 
#
# 1 0.016515 -0.009391 -0.003364 0.000000 0.000000 0.000000
# 2 -0.009391 0.016515 -0.003364 0.000000 0.000000 0.000000
# 3 -0.003364 -0.003364 0.017902 0.000000 0.000000 0.000000
# 4 0.000000 0.000000 0.000000 0.037601 0.000000 0.000000
# 5 0.000000 0.000000 0.000000 0.000000 0.037601 0.000000
# 6 0.000000 0.000000 0.000000 0.000000 0.000000 0.120747
#
#
# Mechanical properties :
#
#
# Convention : Reuss Voigt Hill
#
# Bulk Modulus (GPa) = 53.49375 59.72200 56.60787
# Shear Modulus (GPa) = 17.52223 22.09435 19.80829
#
# Velocity S-wave (km/s) = 3.07055 3.44795 3.26471
# Velocity P-wave (km/s) = 6.43075 6.92719 6.68358
#
# Compressibility (1/GPa) = 0.01869377
#
# Stress axis : x y z
#
# Youngs Moduli (GPa) = 60.54958 60.55255 55.85837
#
# Poissons Ratio (x) = 0.56863 0.18793
# Poissons Ratio (y) = 0.56860 0.18792
# Poissons Ratio (z) = 0.20372 0.20371
#
# Static dielectric constant tensor:
#      x y z
#    x 1.668520 0.000000 0.000000 
#    y 0.000000 1.668520 0.000000 
#    z 0.000000 0.000000 1.665860 
# 
# From -- ./inp_files/1341.got.cif
#   From: 2010.05.17/outbox.cif.g08.bks.cpg/sg124_1_cif.got.tgz:1341.got - 2010.05.20 11:49:17.
