data_PCOD9562657
_publ_section_title
;
Structure prediction by ZEFSAII (Michael W. Deem and Ramdas Pophale) SiO2 
 PCOD9562657
Probable space group: P 4/M C C
;
_chemical_formula_sum "Si O2"
_cell_formula_units_Z 52
_cell_length_a 17.496933
_cell_length_b 17.496933
_cell_length_c 9.476335
_cell_angle_alpha 90.000000
_cell_angle_beta 90.000000
_cell_angle_gamma 90.000000
_cell_volume 2901.110446
_symmetry_space_group_name_H-M "P 4/M C C"
_symmetry_group_IT_number 124
_symmetry_cell_setting 'tetragonal'
loop_
_space_group_symop_operation_xyz
x,y,z
-y,x,z
-x,-y,z
y,-x,z
x,-y,1/2-z
-x,y,1/2-z
y,x,1/2-z
-y,-x,1/2-z
-x,-y,-z
y,-x,-z
x,y,-z
-y,x,-z
-x,y,1/2+z
x,-y,1/2+z
-y,-x,1/2+z
y,x,1/2+z
loop_
_atom_site_type_symbol
_atom_site_label
_atom_site_fract_x
_atom_site_fract_y
_atom_site_fract_z
Si Si1 0.338365 0.226009 0.665813
Si Si2 0.652623 0.927887 0.163328
Si Si3 0.723769 0.500000 0.250000
Si Si4 0.536139 0.622040 0.000000
Si Si5 0.500000 0.000000 0.250000
O O1 0.291744 0.291744 0.750000
O O2 0.316556 0.225084 0.500000
O O3 0.325788 0.147487 0.750739
O O4 0.430853 0.234537 0.672557
O O5 0.560372 0.945757 0.168235
O O6 0.685138 0.000000 0.250000
O O7 0.675190 0.924091 0.000000
O O8 0.671804 0.544098 0.362345
O O9 0.449835 0.590854 0.000000
#
# Coordination Sequence:
#
# PCOD9562657 Si02
#       5
#    16  16   8   8   4
#     4  12  26  41  60  85 116 154 200 250 305 359
#     4  10  21  37  60  85 117 148 188 236 290 357
#     4  12  25  37  57  72 105 142 194 243 304 353
#     4  11  22  38  54  70  91 132 188 252 303 358
#     4   8  20  32  62  84 120 150 200 234 302 356
#
# _framework density 17.924171999999999
#
# number of rings (size 3 to 8) (size 9 to 14) (size 15 to 20)
#    0.923    0.154    1.538    6.000    4.308    3.692 
#    0.000    0.000    0.000    0.000    0.000    0.000 
#    0.000    0.615    0.000    6.154    0.000    3.692 
#
# Total GULP energy -289820.218692 kJ/mol
# GULP energy per Si atom -5573.465744 kJ/mol
# Density = 1.788338 g / cm^3
# Si number density = 17.924172 Si / 1000 Ang^3
#
#
#
# Elastic Constant Matrix: (Units=GPa)
#
#
# Indices 1 2 3 4 5 6 
#
# 1 83.3615 18.8019 39.8949 0.0000 0.0000 0.0000
# 2 18.8019 83.3615 39.8949 0.0000 0.0000 0.0000
# 3 39.8949 39.8949 178.8418 0.0000 0.0000 0.0000
# 4 0.0000 0.0000 0.0000 23.6441 0.0000 0.0000
# 5 0.0000 0.0000 0.0000 0.0000 23.6441 0.0000
# 6 0.0000 0.0000 0.0000 0.0000 0.0000 12.2030
#
#
#
# Elastic Compliance Matrix: (Units=1/GPa)
#
#
# Indices 1 2 3 4 5 6 
#
# 1 0.013671 -0.001818 -0.002644 0.000000 0.000000 0.000000
# 2 -0.001818 0.013671 -0.002644 0.000000 0.000000 0.000000
# 3 -0.002644 -0.002644 0.006771 0.000000 0.000000 0.000000
# 4 0.000000 0.000000 0.000000 0.042294 0.000000 0.000000
# 5 0.000000 0.000000 0.000000 0.000000 0.042294 0.000000
# 6 0.000000 0.000000 0.000000 0.000000 0.000000 0.081947
#
#
# Mechanical properties :
#
#
# Convention : Reuss Voigt Hill
#
# Bulk Modulus (GPa) = 50.24814 60.30535 55.27675
# Shear Modulus (GPa) = 22.57381 28.36311 25.46846
#
# Velocity S-wave (km/s) = 3.55266 3.98225 3.77357
# Velocity P-wave (km/s) = 6.70247 7.40690 7.06347
#
# Compressibility (1/GPa) = 0.01990123
#
# Stress axis : x y z
#
# Youngs Moduli (GPa) = 73.14514 73.14514 147.68381
#
# Poissons Ratio (x) = 0.13299 0.39050
# Poissons Ratio (y) = 0.13299 0.39050
# Poissons Ratio (z) = 0.19341 0.19341
#
# Static dielectric constant tensor:
#      x y z
#    x 1.620990 0.000000 0.000000 
#    y 0.000000 1.620990 0.000000 
#    z 0.000000 0.000000 1.615830 
# 
# From -- ./inp_files/590.got.cif
#   From: 2010.05.17/outbox.cif.g08.bks.cpg/sg124_1_cif.got.tgz:590.got - 2010.05.20 11:49:17.
