data_PCOD9562862
_publ_section_title
;
Structure prediction by ZEFSAII (Michael W. Deem and Ramdas Pophale) SiO2 
 PCOD9562862
Probable space group: P 4/M C C
;
_chemical_formula_sum "Si O2"
_cell_formula_units_Z 116
_cell_length_a 18.000000
_cell_length_b 18.000000
_cell_length_c 18.000000
_cell_angle_alpha 90.000000
_cell_angle_beta 90.000000
_cell_angle_gamma 90.000000
_cell_volume 5832.000000
_symmetry_space_group_name_H-M "P 4/M C C"
_symmetry_group_IT_number 124
_symmetry_cell_setting 'tetragonal'
loop_
_space_group_symop_operation_xyz
x,y,z
-y,x,z
-x,-y,z
y,-x,z
x,-y,1/2-z
-x,y,1/2-z
y,x,1/2-z
-y,-x,1/2-z
-x,-y,-z
y,-x,-z
x,y,-z
-y,x,-z
-x,y,1/2+z
x,-y,1/2+z
-y,-x,1/2+z
y,x,1/2+z
loop_
_atom_site_type_symbol
_atom_site_label
_atom_site_fract_x
_atom_site_fract_y
_atom_site_fract_z
Si Si1 0.765576 0.827097 0.083234
Si Si2 0.422023 0.865238 0.286688
Si Si3 0.297385 0.582565 0.272638
Si Si4 0.000000 0.000000 0.119906
Si Si5 0.764665 0.339005 0.411898
Si Si6 0.921944 0.687308 0.831503
Si Si7 0.061673 0.372141 0.582579
Si Si8 0.138660 0.087217 0.671245
O O1 0.733399 0.745074 0.100515
O O2 0.701471 0.887456 0.081928
O O3 0.830689 0.852467 0.137211
O O4 0.798345 0.820583 0.000000
O O5 0.500000 0.884322 0.250000
O O6 0.407200 0.778832 0.273341
O O7 0.353814 0.906647 0.246296
O O8 0.429124 0.889789 0.370856
O O9 0.322398 0.500000 0.250000
O O10 0.358257 0.641743 0.250000
O O11 0.274333 0.600876 0.358175
O O12 0.967887 0.913307 0.124275
O O13 0.762022 0.355827 0.500000
O O14 0.848221 0.326847 0.381052
O O15 0.937453 0.775185 0.821820
O O16 0.987443 0.647579 0.874641
O O17 0.045916 0.396730 0.500000
O O18 0.097057 0.097057 0.750000
#
# Coordination Sequence:
#
# PCOD9562862 Si02
#       8
#    16  16  16   4  16  16  16  16
#     4   9  19  34  55  81 110 143 188 240 292 348
#     4  10  22  40  58  82 113 146 184 230 282 345
#     4  10  21  39  63  91 121 152 186 226 280 347
#     4  12  25  36  49  74 113 152 201 262 305 344
#     4   9  18  36  59  84 114 153 196 243 293 351
#     4  10  21  35  57  80 109 148 193 244 302 357
#     4  11  21  34  54  82 111 144 187 238 289 342
#     4  11  21  35  53  75 104 148 198 244 294 349
#
# _framework density 19.890260999999999
#
# number of rings (size 3 to 8) (size 9 to 14) (size 15 to 20)
#    0.000    1.931    0.000    3.931    0.000    6.759 
#    0.000    9.310    0.000    0.000    0.000    0.966 
#    0.000    0.000    0.000    0.000    0.000    0.000 
#
# Total GULP energy -646437.963031 kJ/mol
# GULP energy per Si atom -5572.741061 kJ/mol
# Density = 1.984499 g / cm^3
# Si number density = 19.890261 Si / 1000 Ang^3
#
#
#
# Elastic Constant Matrix: (Units=GPa)
#
#
# Indices 1 2 3 4 5 6 
#
# 1 33.0776 -1.0513 4.1639 0.0000 0.0000 0.0000
# 2 -1.0513 33.0577 4.1597 0.0000 0.0000 0.0000
# 3 4.1639 4.1597 59.1044 0.0000 0.0000 0.0000
# 4 0.0000 0.0000 0.0000 10.4401 0.0000 0.0000
# 5 0.0000 0.0000 0.0000 0.0000 10.4369 0.0000
# 6 0.0000 0.0000 0.0000 0.0000 0.0000 10.7695
#
#
#
# Elastic Compliance Matrix: (Units=1/GPa)
#
#
# Indices 1 2 3 4 5 6 
#
# 1 0.030554 0.001254 -0.002241 0.000000 0.000000 0.000000
# 2 0.001254 0.030572 -0.002240 0.000000 0.000000 0.000000
# 3 -0.002241 -0.002240 0.017235 0.000000 0.000000 0.000000
# 4 0.000000 0.000000 0.000000 0.095785 0.000000 0.000000
# 5 0.000000 0.000000 0.000000 0.000000 0.095814 0.000000
# 6 0.000000 0.000000 0.000000 0.000000 0.000000 0.092855
#
#
# Mechanical properties :
#
#
# Convention : Reuss Voigt Hill
#
# Bulk Modulus (GPa) = 13.90699 15.53159 14.71929
# Shear Modulus (GPa) = 12.71499 14.19379 13.45439
#
# Velocity S-wave (km/s) = 2.53110 2.67424 2.60365
# Velocity P-wave (km/s) = 3.94322 4.16665 4.05647
#
# Compressibility (1/GPa) = 0.07190626
#
# Stress axis : x y z
#
# Youngs Moduli (GPa) = 32.72910 32.70987 58.02241
#
# Poissons Ratio (x) = -0.04101 0.13001
# Poissons Ratio (y) = -0.04103 0.12996
# Poissons Ratio (z) = 0.07334 0.07327
#
# Static dielectric constant tensor:
#      x y z
#    x 1.700370 0.000000 0.000000 
#    y 0.000000 1.700370 0.000000 
#    z 0.000000 0.000000 1.742390 
# 
# From -- ./inp_files/4449.got.cif
#   From: 2010.05.17/outbox.ucp.g08.bks.cvg/sg124_3_cif.got.tgz:4449.got - 2010.06.11 11:36:13.
