data_PCOD9562235
_publ_section_title
;
Structure prediction by ZEFSAII (Michael W. Deem and Ramdas Pophale) SiO2 
 PCOD9562235
Probable space group: P 4/M M M
;
_chemical_formula_sum "Si O2"
_cell_formula_units_Z 52
_cell_length_a 16.436410
_cell_length_b 16.436410
_cell_length_c 10.635416
_cell_angle_alpha 90.000000
_cell_angle_beta 90.000000
_cell_angle_gamma 90.000000
_cell_volume 2873.216911
_symmetry_space_group_name_H-M "P 4/M M M"
_symmetry_group_IT_number 123
_symmetry_cell_setting 'tetragonal'
loop_
_space_group_symop_operation_xyz
x,y,z
-y,x,z
-x,-y,z
y,-x,z
x,-y,-z
-x,y,-z
y,x,-z
-y,-x,-z
-x,-y,-z
y,-x,-z
x,y,-z
-y,x,-z
-x,y,z
x,-y,z
-y,-x,z
y,x,z
loop_
_atom_site_type_symbol
_atom_site_label
_atom_site_fract_x
_atom_site_fract_y
_atom_site_fract_z
Si Si1 0.228771 0.905649 0.000000
Si Si2 0.340076 0.096852 0.245498
Si Si3 0.500000 0.364764 0.767052
Si Si4 0.674417 0.189103 0.500000
Si Si5 0.500000 0.277485 0.500000
Si Si6 0.816954 0.500000 0.145386
O O1 0.281167 0.890823 0.873889
O O2 0.152386 0.847615 0.000000
O O3 0.205399 0.000000 0.000000
O O4 0.310035 0.135664 0.375625
O O5 0.422000 0.144549 0.211292
O O6 0.354122 0.000000 0.258879
O O7 0.578750 0.421251 0.790874
O O8 0.500000 0.334351 0.622797
O O9 0.500000 0.280695 0.843181
O O10 0.733123 0.266878 0.500000
O O11 0.581264 0.222162 0.500000
O O12 0.841147 0.500000 0.000000
#
# Coordination Sequence:
#
# PCOD9562235 Si02
#       6
#     8  16   8   8   4   8
#     4  10  22  40  63  91 120 156 198 244 303 366
#     4  11  23  40  63  90 123 160 202 249 304 366
#     4  11  24  41  58  81 118 162 208 254 296 347
#     4  12  23  39  62  91 125 159 203 251 304 360
#     4  12  22  35  59  86 110 152 198 252 295 345
#     4  12  24  40  61  90 119 161 204 254 306 355
#
# _framework density 18.098182000000001
#
# number of rings (size 3 to 8) (size 9 to 14) (size 15 to 20)
#    0.000    0.769    4.615    3.231    0.000    3.231 
#    0.000    3.077    0.000    0.000    0.000    0.000 
#    0.000   11.077    0.000    0.000    0.000    0.000 
#
# Total GULP energy -290654.900030 kJ/mol
# GULP energy per Si atom -5589.517308 kJ/mol
# Density = 1.805699 g / cm^3
# Si number density = 18.098182 Si / 1000 Ang^3
#
#
#
# Elastic Constant Matrix: (Units=GPa)
#
#
# Indices 1 2 3 4 5 6 
#
# 1 120.3511 78.4609 54.4179 0.0000 0.0000 0.0000
# 2 78.4609 120.3433 54.4214 0.0000 0.0000 0.0000
# 3 54.4179 54.4214 140.8010 0.0000 0.0000 0.0000
# 4 0.0000 0.0000 0.0000 8.7505 0.0000 0.0000
# 5 0.0000 0.0000 0.0000 0.0000 8.7406 0.0000
# 6 0.0000 0.0000 0.0000 0.0000 0.0000 26.9385
#
#
#
# Elastic Compliance Matrix: (Units=1/GPa)
#
#
# Indices 1 2 3 4 5 6 
#
# 1 0.015126 -0.008747 -0.002465 0.000000 0.000000 0.000000
# 2 -0.008747 0.015128 -0.002466 0.000000 0.000000 0.000000
# 3 -0.002465 -0.002466 0.009008 0.000000 0.000000 0.000000
# 4 0.000000 0.000000 0.000000 0.114279 0.000000 0.000000
# 5 0.000000 0.000000 0.000000 0.000000 0.114409 0.000000
# 6 0.000000 0.000000 0.000000 0.000000 0.000000 0.037122
#
#
# Mechanical properties :
#
#
# Convention : Reuss Voigt Hill
#
# Bulk Modulus (GPa) = 83.99976 84.01065 84.00521
# Shear Modulus (GPa) = 14.86339 21.83228 18.34783
#
# Velocity S-wave (km/s) = 2.86888 3.47699 3.18747
# Velocity P-wave (km/s) = 7.58209 7.91451 7.75008
#
# Compressibility (1/GPa) = 0.01190480
#
# Stress axis : x y z
#
# Youngs Moduli (GPa) = 66.11026 66.10331 111.00843
#
# Poissons Ratio (x) = 0.57821 0.27366
# Poissons Ratio (y) = 0.57827 0.27380
# Poissons Ratio (z) = 0.16298 0.16304
#
# Static dielectric constant tensor:
#      x y z
#    x 1.589840 0.000000 0.000000 
#    y 0.000000 1.589840 0.000000 
#    z 0.000000 0.000000 1.633450 
# 
# From -- ./inp_files/2490.got.cif
#   From: 2010.05.17/outbox.cif.g08.bks.cpg/sg123_2_cif.got.tgz:2490.got - 2010.05.20 11:43:04.
