data_PCOD9562924
_publ_section_title
;
Structure prediction by ZEFSAII (Michael W. Deem and Ramdas Pophale) SiO2 
 PCOD9562924
Probable space group: P 4/N B M
;
_chemical_formula_sum "Si O2"
_cell_formula_units_Z 96
_cell_length_a 21.135120
_cell_length_b 21.135120
_cell_length_c 11.247470
_cell_angle_alpha 90.000000
_cell_angle_beta 90.000000
_cell_angle_gamma 90.000000
_cell_volume 5024.169462
_symmetry_space_group_name_H-M "P 4/N B M"
_symmetry_group_IT_number 125
_space_group.IT_coordinate_system_code '2'
_symmetry_cell_setting 'tetragonal'
loop_
_space_group_symop_operation_xyz
x,y,z
1/2-y,x,z
1/2-x,1/2-y,z
y,1/2-x,z
x,1/2-y,-z
1/2-x,y,-z
y,x,-z
1/2-y,1/2-x,-z
-x,-y,-z
1/2+y,-x,-z
1/2+x,1/2+y,-z
-y,1/2+x,-z
-x,1/2+y,z
1/2+x,-y,z
-y,-x,z
1/2+y,1/2+x,z
loop_
_atom_site_type_symbol
_atom_site_label
_atom_site_fract_x
_atom_site_fract_y
_atom_site_fract_z
Si Si1 0.447766 0.750000 0.000000
Si Si2 0.854756 0.250000 0.500000
Si Si3 0.543648 0.641033 0.940801
Si Si4 0.987161 0.388321 0.692737
Si Si5 0.115870 0.718395 0.248599
Si Si6 0.849248 0.780193 0.827672
Si Si7 0.596882 0.688328 0.571727
O O1 0.488919 0.684021 0.002390
O O2 0.407852 0.746955 0.876693
O O3 0.810784 0.189217 0.481121
O O4 0.885560 0.239962 0.630233
O O5 0.516789 0.606377 0.823781
O O6 0.591209 0.695939 0.898927
O O7 0.587330 0.587330 0.000000
O O8 0.952345 0.452345 0.653122
O O9 0.933577 0.335916 0.714476
O O10 0.039844 0.358337 0.607392
O O11 0.183825 0.683825 0.229899
O O12 0.790193 0.826043 0.852597
O O13 0.869366 0.786647 0.690757
O O14 0.574484 0.750000 0.500000
O O15 0.648682 0.648682 0.500000
#
# Coordination Sequence:
#
# PCOD9562924 Si02
#       7
#     8   8  16  16  16  16  16
#     4  10  20  36  58  86 118 154 202 260 298 358
#     4   9  18  34  58  90 124 154 187 240 314 384
#     4  10  20  35  55  80 111 152 197 246 303 357
#     4   9  21  39  55  77 110 155 202 246 294 351
#     4   9  19  37  59  83 116 156 198 244 299 363
#     4  10  19  31  50  78 116 154 190 238 297 364
#     4  11  21  34  56  84 114 152 194 247 297 357
#
# _framework density 19.107637
#
# number of rings (size 3 to 8) (size 9 to 14) (size 15 to 20)
#    0.000    2.250    1.667    1.000    1.167    1.500 
#    0.000    0.833    0.000    2.000    0.000    0.000 
#    0.000    0.000    0.000    0.000    0.000    0.000 
#
# Total GULP energy -534704.130596 kJ/mol
# GULP energy per Si atom -5569.834694 kJ/mol
# Density = 1.906415 g / cm^3
# Si number density = 19.107637 Si / 1000 Ang^3
#
#
#
# Elastic Constant Matrix: (Units=GPa)
#
#
# Indices 1 2 3 4 5 6 
#
# 1 54.9373 24.0243 43.4391 0.0000 0.0000 0.0000
# 2 24.0243 54.9373 43.4391 0.0000 0.0000 0.0000
# 3 43.4391 43.4391 126.5194 0.0000 0.0000 0.0000
# 4 0.0000 0.0000 0.0000 -24.2835 0.0000 0.0000
# 5 0.0000 0.0000 0.0000 0.0000 -24.2835 0.0000
# 6 0.0000 0.0000 0.0000 0.0000 0.0000 33.9586
#
#
#
# Elastic Compliance Matrix: (Units=1/GPa)
#
#
# Indices 1 2 3 4 5 6 
#
# 1 0.026351 -0.005998 -0.006988 0.000000 0.000000 0.000000
# 2 -0.005998 0.026351 -0.006988 0.000000 0.000000 0.000000
# 3 -0.006988 -0.006988 0.012702 0.000000 0.000000 0.000000
# 4 0.000000 0.000000 0.000000 -0.041180 0.000000 0.000000
# 5 0.000000 0.000000 0.000000 0.000000 -0.041180 0.000000
# 6 0.000000 0.000000 0.000000 0.000000 0.000000 0.029448
#
#
# Mechanical properties :
#
#
# Convention : Reuss Voigt Hill
#
# Bulk Modulus (GPa) = 39.28281 50.91102 45.09691
# Shear Modulus (GPa) = 82.06869 5.44443 43.75656
#
# Velocity S-wave (km/s) = 6.56079 1.68983 4.79059
# Velocity P-wave (km/s) = 8.83149 5.52355 7.36562
#
# Compressibility (1/GPa) = 0.02545643
#
# Stress axis : x y z
#
# Youngs Moduli (GPa) = 37.94935 37.94935 78.72513
#
# Poissons Ratio (x) = 0.22762 0.55013
# Poissons Ratio (y) = 0.22762 0.55013
# Poissons Ratio (z) = 0.26519 0.26519
#
# Static dielectric constant tensor:
#      x y z
#    x 1.714780 0.000000 0.000000 
#    y 0.000000 1.714780 0.000000 
#    z 0.000000 0.000000 1.690460 
# 
# From -- ./inp_files/4210.got.cif
#   From: 2010.05.17/outbox.cif.g08.bks.cpg/sg125_3_cif.got.tgz:4210.got - 2010.05.20 11:54:10.
