data_PCOD9562650
_publ_section_title
;
Structure prediction by ZEFSAII (Michael W. Deem and Ramdas Pophale) SiO2 
 PCOD9562650
Probable space group: P 4/M C C
;
_chemical_formula_sum "Si O2"
_cell_formula_units_Z 88
_cell_length_a 17.185525
_cell_length_b 17.185525
_cell_length_c 15.455264
_cell_angle_alpha 90.000000
_cell_angle_beta 90.000000
_cell_angle_gamma 90.000000
_cell_volume 4564.592746
_symmetry_space_group_name_H-M "P 4/M C C"
_symmetry_group_IT_number 124
_symmetry_cell_setting 'tetragonal'
loop_
_space_group_symop_operation_xyz
x,y,z
-y,x,z
-x,-y,z
y,-x,z
x,-y,1/2-z
-x,y,1/2-z
y,x,1/2-z
-y,-x,1/2-z
-x,-y,-z
y,-x,-z
x,y,-z
-y,x,-z
-x,y,1/2+z
x,-y,1/2+z
-y,-x,1/2+z
y,x,1/2+z
loop_
_atom_site_type_symbol
_atom_site_label
_atom_site_fract_x
_atom_site_fract_y
_atom_site_fract_z
Si Si1 0.659314 0.231421 0.774016
Si Si2 0.908157 0.903382 0.500000
Si Si3 0.443545 0.846657 0.096683
Si Si4 0.133346 0.805679 0.662572
Si Si5 0.670981 0.016733 0.151180
Si Si6 0.854245 0.372513 0.905255
O O1 0.681073 0.318927 0.750000
O O2 0.584564 0.213985 0.831274
O O3 0.733593 0.195180 0.827253
O O4 0.652432 0.188356 0.682165
O O5 0.864332 0.865469 0.582467
O O6 0.002099 0.893764 0.500000
O O7 0.390595 0.922544 0.112377
O O8 0.534413 0.865765 0.102380
O O9 0.427820 0.817137 0.000000
O O10 0.145675 0.854326 0.750000
O O11 0.054222 0.756186 0.655330
O O12 0.646611 0.000000 0.250000
O O13 0.668291 0.937519 0.099296
O O14 0.817771 0.356830 0.000000
#
# Coordination Sequence:
#
# PCOD9562650 Si02
#       6
#    16   8  16  16  16  16
#     4  10  22  38  55  84 114 156 193 225 280 341
#     4  11  28  44  62  80  95 136 198 264 323 368
#     4  10  21  36  57  84 120 155 182 229 285 341
#     4  10  24  42  57  80 107 142 189 246 311 358
#     4  11  21  35  57  85 109 148 188 229 298 357
#     4  11  22  36  57  86 117 149 188 233 282 344
#
# _framework density 19.278828000000001
#
# number of rings (size 3 to 8) (size 9 to 14) (size 15 to 20)
#    0.000    1.545    3.636    1.636    8.909    2.909 
#    4.909    0.909    0.000    0.000    0.000    0.000 
#    0.000    5.818    0.000   16.000    0.000    0.000 
#
# Total GULP energy -490961.133067 kJ/mol
# GULP energy per Si atom -5579.103785 kJ/mol
# Density = 1.923495 g / cm^3
# Si number density = 19.278828 Si / 1000 Ang^3
#
#
#
# Elastic Constant Matrix: (Units=GPa)
#
#
# Indices 1 2 3 4 5 6 
#
# 1 41.4257 36.2562 31.7257 0.0000 0.0000 0.0000
# 2 36.2562 41.4220 31.7241 0.0000 0.0000 0.0000
# 3 31.7257 31.7241 126.1064 0.0000 0.0000 0.0000
# 4 0.0000 0.0000 0.0000 -3.7918 0.0000 0.0000
# 5 0.0000 0.0000 0.0000 0.0000 -3.8056 0.0000
# 6 0.0000 0.0000 0.0000 0.0000 0.0000 16.6377
#
#
#
# Elastic Compliance Matrix: (Units=1/GPa)
#
#
# Indices 1 2 3 4 5 6 
#
# 1 0.104851 -0.088653 -0.004076 0.000000 0.000000 0.000000
# 2 -0.088653 0.104860 -0.004076 0.000000 0.000000 0.000000
# 3 -0.004076 -0.004076 0.009981 0.000000 0.000000 0.000000
# 4 0.000000 0.000000 0.000000 -0.263726 0.000000 0.000000
# 5 0.000000 0.000000 0.000000 0.000000 -0.262772 0.000000
# 6 0.000000 0.000000 0.000000 0.000000 0.000000 0.060105
#
#
# Mechanical properties :
#
#
# Convention : Reuss Voigt Hill
#
# Bulk Modulus (GPa) = 38.34124 45.37402 41.85763
# Shear Modulus (GPa) = -112.62383 9.09126 -51.76628
#
# Velocity S-wave (km/s) = -7.65148 2.17392 -5.18745
# Velocity P-wave (km/s) = 7.62426 5.46699 3.75775
#
# Compressibility (1/GPa) = 0.02608158
#
# Stress axis : x y z
#
# Youngs Moduli (GPa) = 9.53731 9.53649 100.19319
#
# Poissons Ratio (x) = 0.84544 0.40841
# Poissons Ratio (y) = 0.84551 0.40840
# Poissons Ratio (z) = 0.03888 0.03887
#
# Static dielectric constant tensor:
#      x y z
#    x 1.689300 0.000000 0.000000 
#    y 0.000000 1.689300 0.000000 
#    z 0.000000 0.000000 1.696860 
# 
# From -- ./inp_files/3250.got.cif
#   From: 2010.05.17/outbox.cif.g08.bks.cpg/sg124_2_cif.got.tgz:3250.got - 2010.05.20 11:49:17.
