data_PCOD9562597
_publ_section_title
;
Structure prediction by ZEFSAII (Michael W. Deem and Ramdas Pophale) SiO2 
 PCOD9562597
Probable space group: P 4/M C C
;
_chemical_formula_sum "Si O2"
_cell_formula_units_Z 96
_cell_length_a 15.714190
_cell_length_b 15.714190
_cell_length_c 22.352454
_cell_angle_alpha 90.000000
_cell_angle_beta 90.000000
_cell_angle_gamma 90.000000
_cell_volume 5519.620381
_symmetry_space_group_name_H-M "P 4/M C C"
_symmetry_group_IT_number 124
_symmetry_cell_setting 'tetragonal'
loop_
_space_group_symop_operation_xyz
x,y,z
-y,x,z
-x,-y,z
y,-x,z
x,-y,1/2-z
-x,y,1/2-z
y,x,1/2-z
-y,-x,1/2-z
-x,-y,-z
y,-x,-z
x,y,-z
-y,x,-z
-x,y,1/2+z
x,-y,1/2+z
-y,-x,1/2+z
y,x,1/2+z
loop_
_atom_site_type_symbol
_atom_site_label
_atom_site_fract_x
_atom_site_fract_y
_atom_site_fract_z
Si Si1 0.318131 0.305132 0.000000
Si Si2 0.068812 0.116235 0.071611
Si Si3 0.350979 0.102210 0.311542
Si Si4 0.676770 0.910811 0.172850
Si Si5 0.786874 0.767284 0.113526
Si Si6 0.764852 0.489161 0.500000
Si Si7 0.094220 0.506423 0.100882
O O1 0.273366 0.264503 0.059379
O O2 0.295785 0.406118 0.000000
O O3 0.418946 0.282654 0.000000
O O4 0.125648 0.196170 0.086699
O O5 0.971500 0.113084 0.093057
O O6 0.065057 0.112011 0.000000
O O7 0.352832 0.109970 0.240281
O O8 0.306145 0.182887 0.341734
O O9 0.442191 0.093350 0.342994
O O10 0.303773 0.011999 0.325782
O O11 0.747216 0.844819 0.151149
O O12 0.600536 0.897099 0.126361
O O13 0.829040 0.485243 0.443427
O O14 0.000000 0.500000 0.072238
#
# Coordination Sequence:
#
# PCOD9562597 Si02
#       7
#     8  16  16  16  16   8  16
#     4  12  26  39  64  81 118 140 190 246 294 362
#     4   9  18  31  47  72 111 154 193 232 275 324
#     4  10  21  36  56  83 116 154 192 233 283 337
#     4  10  21  36  56  83 116 154 192 233 283 337
#     4  12  20  36  54  85 109 154 191 246 277 334
#     4  12  23  45  58  92 112 148 192 229 303 352
#     4  10  20  36  60  86 121 147 180 235 292 349
#
# _framework density 17.392499999999998
#
# number of rings (size 3 to 8) (size 9 to 14) (size 15 to 20)
#    0.000    1.500    4.167    2.750    0.000    2.167 
#    0.000    0.000    0.000    0.000    0.000    7.000 
#    0.000    2.667    0.000    0.000    0.000    0.000 
#
# Total GULP energy -535141.441685 kJ/mol
# GULP energy per Si atom -5574.390018 kJ/mol
# Density = 1.735291 g / cm^3
# Si number density = 17.392500 Si / 1000 Ang^3
#
#
#
# Elastic Constant Matrix: (Units=GPa)
#
#
# Indices 1 2 3 4 5 6 
#
# 1 61.0167 21.6392 18.4702 0.0000 0.0000 0.0000
# 2 21.6392 61.0167 18.4702 0.0000 0.0000 0.0000
# 3 18.4702 18.4702 76.4789 0.0000 0.0000 0.0000
# 4 0.0000 0.0000 0.0000 19.7823 0.0000 0.0000
# 5 0.0000 0.0000 0.0000 0.0000 19.7823 0.0000
# 6 0.0000 0.0000 0.0000 0.0000 0.0000 33.1637
#
#
#
# Elastic Compliance Matrix: (Units=1/GPa)
#
#
# Indices 1 2 3 4 5 6 
#
# 1 0.019479 -0.005917 -0.003275 0.000000 0.000000 0.000000
# 2 -0.005917 0.019479 -0.003275 0.000000 0.000000 0.000000
# 3 -0.003275 -0.003275 0.014658 0.000000 0.000000 0.000000
# 4 0.000000 0.000000 0.000000 0.050550 0.000000 0.000000
# 5 0.000000 0.000000 0.000000 0.000000 0.050550 0.000000
# 6 0.000000 0.000000 0.000000 0.000000 0.000000 0.030153
#
#
# Mechanical properties :
#
#
# Convention : Reuss Voigt Hill
#
# Bulk Modulus (GPa) = 34.86698 35.07463 34.97081
# Shear Modulus (GPa) = 22.79322 23.87451 23.33387
#
# Velocity S-wave (km/s) = 3.62404 3.70900 3.66677
# Velocity P-wave (km/s) = 6.13206 6.20907 6.17069
#
# Compressibility (1/GPa) = 0.02868043
#
# Stress axis : x y z
#
# Youngs Moduli (GPa) = 51.33812 51.33812 68.22426
#
# Poissons Ratio (x) = 0.30374 0.22346
# Poissons Ratio (y) = 0.30374 0.22346
# Poissons Ratio (z) = 0.16815 0.16815
#
# Static dielectric constant tensor:
#      x y z
#    x 1.600580 0.000000 0.000000 
#    y 0.000000 1.600580 0.000000 
#    z 0.000000 0.000000 1.574190 
# 
# From -- ./inp_files/6046.got.cif
#   From: 2010.05.17/outbox.cif.g08.bks.cpg/sg124_4_cif.got.tgz:6046.got - 2010.05.20 11:49:17.
