data_PCOD9562526
_publ_section_title
;
Structure prediction by ZEFSAII (Michael W. Deem and Ramdas Pophale) SiO2 
 PCOD9562526
Probable space group: P 4/M C C
;
_chemical_formula_sum "Si O2"
_cell_formula_units_Z 64
_cell_length_a 20.222627
_cell_length_b 20.222627
_cell_length_c 8.613112
_cell_angle_alpha 90.000000
_cell_angle_beta 90.000000
_cell_angle_gamma 90.000000
_cell_volume 3522.372141
_symmetry_space_group_name_H-M "P 4/M C C"
_symmetry_group_IT_number 124
_symmetry_cell_setting 'tetragonal'
loop_
_space_group_symop_operation_xyz
x,y,z
-y,x,z
-x,-y,z
y,-x,z
x,-y,1/2-z
-x,y,1/2-z
y,x,1/2-z
-y,-x,1/2-z
-x,-y,-z
y,-x,-z
x,y,-z
-y,x,-z
-x,y,1/2+z
x,-y,1/2+z
-y,-x,1/2+z
y,x,1/2+z
loop_
_atom_site_type_symbol
_atom_site_label
_atom_site_fract_x
_atom_site_fract_y
_atom_site_fract_z
Si Si1 0.316332 0.931003 0.314196
Si Si2 0.067128 0.167983 0.815025
Si Si3 0.426403 0.674145 0.185940
Si Si4 0.779821 0.678162 0.312914
O O1 0.317976 0.935319 0.500000
O O2 0.241301 0.931153 0.253656
O O3 0.337732 0.856209 0.269727
O O4 0.347182 0.000000 0.250000
O O5 0.128546 0.128546 0.750000
O O6 0.000000 0.135990 0.750000
O O7 0.066441 0.170042 0.000000
O O8 0.500000 0.681536 0.250000
O O9 0.392578 0.607423 0.250000
O O10 0.379456 0.732951 0.247774
O O11 0.425819 0.673831 0.000000
O O12 0.746848 0.746848 0.250000
O O13 0.776014 0.680720 0.500000
#
# Coordination Sequence:
#
# PCOD9562526 Si02
#       4
#    16  16  16  16
#     4  10  20  33  51  75 103 135 174 221 273 325
#     4  11  21  33  47  64  88 119 159 205 259 319
#     4  11  22  38  60  87 119 153 188 224 265 314
#     4  10  20  34  54  81 110 144 185 228 275 327
#
# _framework density 18.169574000000001
#
# number of rings (size 3 to 8) (size 9 to 14) (size 15 to 20)
#    0.000    1.500    0.000    9.750    0.000    6.500 
#    0.000    2.500    0.000    0.750    0.000    5.250 
#    0.000    0.000    0.000    0.000    0.000    0.000 
#
# Total GULP energy -357008.914391 kJ/mol
# GULP energy per Si atom -5578.264287 kJ/mol
# Density = 1.812822 g / cm^3
# Si number density = 18.169574 Si / 1000 Ang^3
#
#
#
# Elastic Constant Matrix: (Units=GPa)
#
#
# Indices 1 2 3 4 5 6 
#
# 1 107.6996 29.7320 34.4045 0.0000 0.0000 0.0000
# 2 29.7320 107.7034 34.4055 0.0000 0.0000 0.0000
# 3 34.4045 34.4055 65.1105 0.0000 0.0000 0.0000
# 4 0.0000 0.0000 0.0000 33.2188 0.0000 0.0000
# 5 0.0000 0.0000 0.0000 0.0000 33.2185 0.0000
# 6 0.0000 0.0000 0.0000 0.0000 0.0000 14.7960
#
#
#
# Elastic Compliance Matrix: (Units=1/GPa)
#
#
# Indices 1 2 3 4 5 6 
#
# 1 0.011360 -0.001466 -0.005228 0.000000 0.000000 0.000000
# 2 -0.001466 0.011359 -0.005228 0.000000 0.000000 0.000000
# 3 -0.005228 -0.005228 0.020884 0.000000 0.000000 0.000000
# 4 0.000000 0.000000 0.000000 0.030103 0.000000 0.000000
# 5 0.000000 0.000000 0.000000 0.000000 0.030104 0.000000
# 6 0.000000 0.000000 0.000000 0.000000 0.000000 0.067586
#
#
# Mechanical properties :
#
#
# Convention : Reuss Voigt Hill
#
# Bulk Modulus (GPa) = 50.60929 53.06638 51.83783
# Shear Modulus (GPa) = 24.77383 28.37809 26.57596
#
# Velocity S-wave (km/s) = 3.69654 3.95631 3.82863
# Velocity P-wave (km/s) = 6.79217 7.08092 6.93804
#
# Compressibility (1/GPa) = 0.01975922
#
# Stress axis : x y z
#
# Youngs Moduli (GPa) = 88.02953 88.03217 47.88460
#
# Poissons Ratio (x) = 0.12904 0.25034
# Poissons Ratio (y) = 0.12904 0.25034
# Poissons Ratio (z) = 0.46021 0.46023
#
# Static dielectric constant tensor:
#      x y z
#    x 1.635850 0.000000 0.000000 
#    y 0.000000 1.635840 0.000000 
#    z 0.000000 0.000000 1.601610 
# 
# From -- ./inp_files/883.got.cif
#   From: 2010.05.17/outbox.cif.g08.bks.cpg/sg124_1_cif.got.tgz:883.got - 2010.05.20 11:49:17.
