data_PCOD9562719
_publ_section_title
;
Structure prediction by ZEFSAII (Michael W. Deem and Ramdas Pophale) SiO2 
 PCOD9562719
Probable space group: P 4/M C C
;
_chemical_formula_sum "Si O2"
_cell_formula_units_Z 48
_cell_length_a 8.200982
_cell_length_b 8.200982
_cell_length_c 32.970221
_cell_angle_alpha 90.000000
_cell_angle_beta 90.000000
_cell_angle_gamma 90.000000
_cell_volume 2217.448671
_symmetry_space_group_name_H-M "P 4/M C C"
_symmetry_group_IT_number 124
_symmetry_cell_setting 'tetragonal'
loop_
_space_group_symop_operation_xyz
x,y,z
-y,x,z
-x,-y,z
y,-x,z
x,-y,1/2-z
-x,y,1/2-z
y,x,1/2-z
-y,-x,1/2-z
-x,-y,-z
y,-x,-z
x,y,-z
-y,x,-z
-x,y,1/2+z
x,-y,1/2+z
-y,-x,1/2+z
y,x,1/2+z
loop_
_atom_site_type_symbol
_atom_site_label
_atom_site_fract_x
_atom_site_fract_y
_atom_site_fract_z
Si Si1 0.543028 0.768792 0.796477
Si Si2 0.736268 0.074649 0.363964
Si Si3 0.500000 0.000000 0.431409
Si Si4 0.917707 0.263593 0.500000
O O1 0.374549 0.675951 0.805213
O O2 0.500000 0.814827 0.750000
O O3 0.632406 0.905385 0.822975
O O4 0.614113 0.103305 0.401316
O O5 0.892080 0.192190 0.366434
O O6 0.621329 0.901048 0.460814
O O7 0.803992 0.104793 0.500000
#
# Coordination Sequence:
#
# PCOD9562719 Si02
#       4
#    16  16   8   8
#     4   9  19  39  63  90 127 172 215 260 323 391
#     4  11  23  40  65  95 127 168 219 273 327 384
#     4  11  22  38  65  94 126 162 201 258 322 383
#     4  10  22  42  68  96 126 164 210 259 318 391
#
# _framework density 21.6465
#
# number of rings (size 3 to 8) (size 9 to 14) (size 15 to 20)
#    0.000    1.833    0.000    5.000    0.000    2.667 
#    0.000   24.167    0.000   50.000    0.000    0.000 
#    0.000    0.000    0.000    0.000    0.000    0.000 
#
# Total GULP energy -267447.155243 kJ/mol
# GULP energy per Si atom -5571.815734 kJ/mol
# Density = 2.159723 g / cm^3
# Si number density = 21.646500 Si / 1000 Ang^3
#
#
#
# Elastic Constant Matrix: (Units=GPa)
#
#
# Indices 1 2 3 4 5 6 
#
# 1 121.4522 66.3246 54.6145 0.0000 0.0000 0.0000
# 2 66.3246 121.4522 54.6145 0.0000 0.0000 0.0000
# 3 54.6145 54.6145 128.6992 0.0000 0.0000 0.0000
# 4 0.0000 0.0000 0.0000 31.2756 0.0000 0.0000
# 5 0.0000 0.0000 0.0000 0.0000 31.2756 0.0000
# 6 0.0000 0.0000 0.0000 0.0000 0.0000 48.9325
#
#
#
# Elastic Compliance Matrix: (Units=1/GPa)
#
#
# Indices 1 2 3 4 5 6 
#
# 1 0.012605 -0.005534 -0.003001 0.000000 0.000000 0.000000
# 2 -0.005534 0.012605 -0.003001 0.000000 0.000000 0.000000
# 3 -0.003001 -0.003001 0.010317 0.000000 0.000000 0.000000
# 4 0.000000 0.000000 0.000000 0.031974 0.000000 0.000000
# 5 0.000000 0.000000 0.000000 0.000000 0.031974 0.000000
# 6 0.000000 0.000000 0.000000 0.000000 0.000000 0.020436
#
#
# Mechanical properties :
#
#
# Convention : Reuss Voigt Hill
#
# Bulk Modulus (GPa) = 80.28166 80.30118 80.29142
# Shear Modulus (GPa) = 33.98252 35.36676 34.67464
#
# Velocity S-wave (km/s) = 3.96648 4.04645 4.00667
# Velocity P-wave (km/s) = 7.62531 7.68172 7.65357
#
# Compressibility (1/GPa) = 0.01245615
#
# Stress axis : x y z
#
# Youngs Moduli (GPa) = 79.33157 79.33157 96.93017
#
# Poissons Ratio (x) = 0.43905 0.29085
# Poissons Ratio (y) = 0.43905 0.29085
# Poissons Ratio (z) = 0.23804 0.23804
#
# Static dielectric constant tensor:
#      x y z
#    x 2.044370 0.000000 0.000000 
#    y 0.000000 2.044370 0.000000 
#    z 0.000000 0.000000 1.835520 
# 
# From -- ./inp_files/6783.got.cif
#   From: 2010.05.17/outbox.cif.g08.bks.cpg/sg124_4_cif.got.tgz:6783.got - 2010.05.20 11:49:17.
