data_PCOD9562564
_publ_section_title
;
Structure prediction by ZEFSAII (Michael W. Deem and Ramdas Pophale) SiO2 
 PCOD9562564
Probable space group: P 4/M C C
;
_chemical_formula_sum "Si O2"
_cell_formula_units_Z 112
_cell_length_a 15.625579
_cell_length_b 15.625579
_cell_length_c 24.545860
_cell_angle_alpha 90.000000
_cell_angle_beta 90.000000
_cell_angle_gamma 90.000000
_cell_volume 5993.085736
_symmetry_space_group_name_H-M "P 4/M C C"
_symmetry_group_IT_number 124
_symmetry_cell_setting 'tetragonal'
loop_
_space_group_symop_operation_xyz
x,y,z
-y,x,z
-x,-y,z
y,-x,z
x,-y,1/2-z
-x,y,1/2-z
y,x,1/2-z
-y,-x,1/2-z
-x,-y,-z
y,-x,-z
x,y,-z
-y,x,-z
-x,y,1/2+z
x,-y,1/2+z
-y,-x,1/2+z
y,x,1/2+z
loop_
_atom_site_type_symbol
_atom_site_label
_atom_site_fract_x
_atom_site_fract_y
_atom_site_fract_z
Si Si1 0.904453 0.416912 0.224163
Si Si2 0.293076 0.335785 0.066874
Si Si3 0.235063 0.956155 0.400650
Si Si4 0.472314 0.260831 0.062900
Si Si5 0.772205 0.095043 0.274808
Si Si6 0.431423 0.072184 0.905508
Si Si7 0.794463 0.142643 0.937539
O O1 0.860564 0.500000 0.250000
O O2 0.868140 0.323166 0.236311
O O3 0.913091 0.431720 0.159816
O O4 0.000000 0.413167 0.250000
O O5 0.386053 0.303259 0.086231
O O6 0.279367 0.433321 0.085674
O O7 0.216021 0.271559 0.083038
O O8 0.292532 0.333213 0.000000
O O9 0.224267 0.919599 0.339631
O O10 0.334166 0.952514 0.418425
O O11 0.181216 0.889622 0.436088
O O12 0.208272 0.054749 0.404277
O O13 0.456571 0.159979 0.066177
O O14 0.476149 0.289088 0.000000
O O15 0.843682 0.156319 0.250000
O O16 0.779741 0.000000 0.250000
O O17 0.500000 0.000000 0.919288
O O18 0.770717 0.122216 0.000000
#
# Coordination Sequence:
#
# PCOD9562564 Si02
#       7
#    16  16  16  16  16  16  16
#     4   9  17  35  55  79 110 139 177 228 281 336
#     4   9  19  36  56  79 115 153 190 236 284 338
#     4  11  23  37  58  84 113 152 200 238 286 345
#     4  10  20  35  54  82 116 152 190 235 286 341
#     4  10  21  37  57  82 113 145 183 234 286 333
#     4  11  20  33  57  86 110 147 189 236 292 340
#     4  11  22  39  57  80 118 158 194 238 285 339
#
# _framework density 18.688203999999999
#
# number of rings (size 3 to 8) (size 9 to 14) (size 15 to 20)
#    0.000    1.857    2.857    2.143    0.000    1.571 
#    2.571    3.571    0.000    0.000    0.000    0.000 
#    0.000    0.286    0.000    0.143    0.000    0.143 
#
# Total GULP energy -624666.814319 kJ/mol
# GULP energy per Si atom -5577.382271 kJ/mol
# Density = 1.864567 g / cm^3
# Si number density = 18.688204 Si / 1000 Ang^3
#
#
#
# Elastic Constant Matrix: (Units=GPa)
#
#
# Indices 1 2 3 4 5 6 
#
# 1 146.9233 77.1844 8.6896 0.0000 0.0000 0.0000
# 2 77.1844 146.9256 8.6898 0.0000 0.0000 0.0000
# 3 8.6896 8.6898 27.4374 0.0000 0.0000 0.0000
# 4 0.0000 0.0000 0.0000 7.8522 0.0000 0.0000
# 5 0.0000 0.0000 0.0000 0.0000 7.8522 0.0000
# 6 0.0000 0.0000 0.0000 0.0000 0.0000 30.5268
#
#
#
# Elastic Compliance Matrix: (Units=1/GPa)
#
#
# Indices 1 2 3 4 5 6 
#
# 1 0.009457 -0.004882 -0.001449 0.000000 0.000000 0.000000
# 2 -0.004882 0.009457 -0.001449 0.000000 0.000000 0.000000
# 3 -0.001449 -0.001449 0.037364 0.000000 0.000000 0.000000
# 4 0.000000 0.000000 0.000000 0.127352 0.000000 0.000000
# 5 0.000000 0.000000 0.000000 0.000000 0.127352 0.000000
# 6 0.000000 0.000000 0.000000 0.000000 0.000000 0.032758
#
#
# Mechanical properties :
#
#
# Convention : Reuss Voigt Hill
#
# Bulk Modulus (GPa) = 24.55908 56.71266 40.63587
# Shear Modulus (GPa) = 13.40941 24.36108 18.88524
#
# Velocity S-wave (km/s) = 2.68159 3.61439 3.18235
# Velocity P-wave (km/s) = 4.77052 6.91600 5.94092
#
# Compressibility (1/GPa) = 0.04071814
#
# Stress axis : x y z
#
# Youngs Moduli (GPa) = 105.74408 105.74567 26.76348
#
# Poissons Ratio (x) = 0.51628 0.03877
# Poissons Ratio (y) = 0.51627 0.03878
# Poissons Ratio (z) = 0.15320 0.15321
#
# Static dielectric constant tensor:
#      x y z
#    x 1.645420 0.000000 0.000000 
#    y 0.000000 1.645420 0.000000 
#    z 0.000000 0.000000 1.697230 
# 
# From -- ./inp_files/6647.got.cif
#   From: 2010.05.17/outbox.cif.g08.bks.cpg/sg124_4_cif.got.tgz:6647.got - 2010.05.20 11:49:17.
