data_PCOD9562784
_publ_section_title
;
Structure prediction by ZEFSAII (Michael W. Deem and Ramdas Pophale) SiO2 
 PCOD9562784
Probable space group: P 4/M C C
;
_chemical_formula_sum "Si O2"
_cell_formula_units_Z 92
_cell_length_a 14.498327
_cell_length_b 14.498327
_cell_length_c 20.929278
_cell_angle_alpha 90.000000
_cell_angle_beta 90.000000
_cell_angle_gamma 90.000000
_cell_volume 4399.365332
_symmetry_space_group_name_H-M "P 4/M C C"
_symmetry_group_IT_number 124
_symmetry_cell_setting 'tetragonal'
loop_
_space_group_symop_operation_xyz
x,y,z
-y,x,z
-x,-y,z
y,-x,z
x,-y,1/2-z
-x,y,1/2-z
y,x,1/2-z
-y,-x,1/2-z
-x,-y,-z
y,-x,-z
x,y,-z
-y,x,-z
-x,y,1/2+z
x,-y,1/2+z
-y,-x,1/2+z
y,x,1/2+z
loop_
_atom_site_type_symbol
_atom_site_label
_atom_site_fract_x
_atom_site_fract_y
_atom_site_fract_z
Si Si1 0.110154 0.401723 0.260625
Si Si2 0.000000 0.500000 0.000000
Si Si3 0.393810 0.386103 0.177018
Si Si4 0.885514 0.258133 0.650002
Si Si5 0.890764 0.890764 0.750000
Si Si6 0.657640 0.928050 0.100371
Si Si7 0.727767 0.285058 0.070230
O O1 0.155835 0.500000 0.250000
O O2 0.137466 0.327516 0.208289
O O3 0.117218 0.378533 0.334037
O O4 0.000000 0.408562 0.250000
O O5 0.029841 0.576557 0.056445
O O6 0.504349 0.374629 0.169995
O O7 0.363944 0.363944 0.250000
O O8 0.343823 0.324821 0.124009
O O9 0.862242 0.160820 0.684611
O O10 0.820341 0.282621 0.591512
O O11 0.989350 0.275053 0.624568
O O12 0.000000 0.872918 0.750000
O O13 0.699829 0.837832 0.068105
O O14 0.688786 0.303868 0.000000
#
# Coordination Sequence:
#
# PCOD9562784 Si02
#       7
#    16   4  16  16   8  16  16
#     4   9  18  36  61  96 125 166 223 282 345 414
#     4  12  24  44  66  96 144 204 226 280 356 452
#     4   9  22  47  74  99 131 178 234 295 360 423
#     4  11  23  42  68  95 139 182 225 292 361 412
#     4  11  22  40  68 102 128 165 230 298 358 413
#     4  11  24  43  66  94 143 184 231 286 350 430
#     4  12  27  43  62 101 140 182 240 285 342 432
#
# _framework density 20.912109000000001
#
# number of rings (size 3 to 8) (size 9 to 14) (size 15 to 20)
#    0.000    1.478    0.870    6.261    4.870    3.478 
#    0.000    0.870    0.000    0.000    0.000    3.652 
#    0.000    0.000    0.000    0.000    0.000    0.000 
#
# Total GULP energy -512331.638597 kJ/mol
# GULP energy per Si atom -5568.822159 kJ/mol
# Density = 2.086451 g / cm^3
# Si number density = 20.912109 Si / 1000 Ang^3
#
#
#
# Elastic Constant Matrix: (Units=GPa)
#
#
# Indices 1 2 3 4 5 6 
#
# 1 71.9119 56.1350 52.6560 0.0000 0.0000 0.0000
# 2 56.1350 71.9119 52.6560 0.0000 0.0000 0.0000
# 3 52.6560 52.6560 172.5648 0.0000 0.0000 0.0000
# 4 0.0000 0.0000 0.0000 13.1179 0.0000 0.0000
# 5 0.0000 0.0000 0.0000 0.0000 13.1179 0.0000
# 6 0.0000 0.0000 0.0000 0.0000 0.0000 19.4509
#
#
#
# Elastic Compliance Matrix: (Units=1/GPa)
#
#
# Indices 1 2 3 4 5 6 
#
# 1 0.036905 -0.026479 -0.003181 0.000000 0.000000 0.000000
# 2 -0.026479 0.036905 -0.003181 0.000000 0.000000 0.000000
# 3 -0.003181 -0.003181 0.007736 0.000000 0.000000 0.000000
# 4 0.000000 0.000000 0.000000 0.076232 0.000000 0.000000
# 5 0.000000 0.000000 0.000000 0.000000 0.076232 0.000000
# 6 0.000000 0.000000 0.000000 0.000000 0.000000 0.051412
#
#
# Mechanical properties :
#
#
# Convention : Reuss Voigt Hill
#
# Bulk Modulus (GPa) = 63.03913 71.03142 67.03528
# Shear Modulus (GPa) = 14.02949 19.46678 16.74814
#
# Velocity S-wave (km/s) = 2.59294 3.05435 2.83306
# Velocity P-wave (km/s) = 6.25897 6.81756 6.54423
#
# Compressibility (1/GPa) = 0.01586316
#
# Stress axis : x y z
#
# Youngs Moduli (GPa) = 27.09667 27.09667 129.25786
#
# Poissons Ratio (x) = 0.71748 0.41122
# Poissons Ratio (y) = 0.71748 0.41122
# Poissons Ratio (z) = 0.08621 0.08621
#
# Static dielectric constant tensor:
#      x y z
#    x 1.807420 0.000000 0.000000 
#    y 0.000000 1.807420 0.000000 
#    z 0.000000 0.000000 1.720110 
# 
# From -- ./inp_files/5363.got.cif
#   From: 2010.05.17/outbox.cif.g08.bks.cpg/sg124_3_cif.got.tgz:5363.got - 2010.05.20 11:49:17.
