data_PCOD9562817
_publ_section_title
;
Structure prediction by ZEFSAII (Michael W. Deem and Ramdas Pophale) SiO2 
 PCOD9562817
Probable space group: P 4/M C C
;
_chemical_formula_sum "Si O2"
_cell_formula_units_Z 56
_cell_length_a 10.260886
_cell_length_b 10.260886
_cell_length_c 22.515687
_cell_angle_alpha 90.000000
_cell_angle_beta 90.000000
_cell_angle_gamma 90.000000
_cell_volume 2370.581702
_symmetry_space_group_name_H-M "P 4/M C C"
_symmetry_group_IT_number 124
_symmetry_cell_setting 'tetragonal'
loop_
_space_group_symop_operation_xyz
x,y,z
-y,x,z
-x,-y,z
y,-x,z
x,-y,1/2-z
-x,y,1/2-z
y,x,1/2-z
-y,-x,1/2-z
-x,-y,-z
y,-x,-z
x,y,-z
-y,x,-z
-x,y,1/2+z
x,-y,1/2+z
-y,-x,1/2+z
y,x,1/2+z
loop_
_atom_site_type_symbol
_atom_site_label
_atom_site_fract_x
_atom_site_fract_y
_atom_site_fract_z
Si Si1 0.094786 0.811491 0.623772
Si Si2 0.206790 0.206790 0.250000
Si Si3 0.424990 0.295558 0.825612
Si Si4 0.462584 0.152108 0.432246
O O1 0.106899 0.801956 0.695489
O O2 0.153823 0.683097 0.594654
O O3 0.944335 0.831436 0.606627
O O4 0.196105 0.347226 0.283757
O O5 0.572741 0.342198 0.815640
O O6 0.440517 0.234177 0.890719
O O7 0.464755 0.197858 0.500000
O O8 0.500000 0.000000 0.430433
#
# Coordination Sequence:
#
# PCOD9562817 Si02
#       4
#    16   8  16  16
#     4  11  25  46  72 106 145 189 239 296 366 438
#     4  12  22  44  74 102 144 188 236 293 353 436
#     4  11  24  44  71 102 142 190 241 292 360 435
#     4  11  26  47  72 104 142 189 247 303 359 428
#
# _framework density 23.622893000000001
#
# number of rings (size 3 to 8) (size 9 to 14) (size 15 to 20)
#    0.000    0.857    2.857    3.429    0.000    4.571 
#    0.000    2.857    0.000    0.000    0.000    0.000 
#    0.000    0.000    0.000    0.000    0.000    0.000 
#
# Total GULP energy -313079.663843 kJ/mol
# GULP energy per Si atom -5590.708283 kJ/mol
# Density = 2.356913 g / cm^3
# Si number density = 23.622893 Si / 1000 Ang^3
#
#
#
# Elastic Constant Matrix: (Units=GPa)
#
#
# Indices 1 2 3 4 5 6 
#
# 1 98.8558 33.8704 22.3916 0.0000 0.0000 0.0000
# 2 33.8704 98.8558 22.3916 0.0000 0.0000 0.0000
# 3 22.3916 22.3916 113.4171 0.0000 0.0000 0.0000
# 4 0.0000 0.0000 0.0000 31.5379 0.0000 0.0000
# 5 0.0000 0.0000 0.0000 0.0000 31.5379 0.0000
# 6 0.0000 0.0000 0.0000 0.0000 0.0000 39.9915
#
#
#
# Elastic Compliance Matrix: (Units=1/GPa)
#
#
# Indices 1 2 3 4 5 6 
#
# 1 0.011730 -0.003658 -0.001594 0.000000 0.000000 0.000000
# 2 -0.003658 0.011730 -0.001594 0.000000 0.000000 0.000000
# 3 -0.001594 -0.001594 0.009446 0.000000 0.000000 0.000000
# 4 0.000000 0.000000 0.000000 0.031708 0.000000 0.000000
# 5 0.000000 0.000000 0.000000 0.000000 0.031708 0.000000
# 6 0.000000 0.000000 0.000000 0.000000 0.000000 0.025005
#
#
# Mechanical properties :
#
#
# Convention : Reuss Voigt Hill
#
# Bulk Modulus (GPa) = 52.04062 52.04844 52.04453
# Shear Modulus (GPa) = 35.35486 36.11180 35.73333
#
# Velocity S-wave (km/s) = 3.87283 3.91407 3.89351
# Velocity P-wave (km/s) = 6.48660 6.51978 6.50321
#
# Compressibility (1/GPa) = 0.01921576
#
# Stress axis : x y z
#
# Youngs Moduli (GPa) = 85.25115 85.25115 105.86195
#
# Poissons Ratio (x) = 0.31185 0.16871
# Poissons Ratio (y) = 0.31185 0.16871
# Poissons Ratio (z) = 0.13586 0.13586
#
# Static dielectric constant tensor:
#      x y z
#    x 1.926410 0.000000 0.000000 
#    y 0.000000 1.926410 0.000000 
#    z 0.000000 0.000000 1.912430 
# 
# From -- ./inp_files/4874.got.cif
#   From: 2010.05.17/outbox.cif.g08.bks.cpg/sg124_3_cif.got.tgz:4874.got - 2010.05.20 11:49:17.
