data_PCOD9562313
_publ_section_title
;
Structure prediction by ZEFSAII (Michael W. Deem and Ramdas Pophale) SiO2 
 PCOD9562313
Probable space group: P 4/M C C
;
_chemical_formula_sum "Si O2"
_cell_formula_units_Z 96
_cell_length_a 27.697059
_cell_length_b 27.697059
_cell_length_c 8.729595
_cell_angle_alpha 90.000000
_cell_angle_beta 90.000000
_cell_angle_gamma 90.000000
_cell_volume 6696.708698
_symmetry_space_group_name_H-M "P 4/M C C"
_symmetry_group_IT_number 124
_symmetry_cell_setting 'tetragonal'
loop_
_space_group_symop_operation_xyz
x,y,z
-y,x,z
-x,-y,z
y,-x,z
x,-y,1/2-z
-x,y,1/2-z
y,x,1/2-z
-y,-x,1/2-z
-x,-y,-z
y,-x,-z
x,y,-z
-y,x,-z
-x,y,1/2+z
x,-y,1/2+z
-y,-x,1/2+z
y,x,1/2+z
loop_
_atom_site_type_symbol
_atom_site_label
_atom_site_fract_x
_atom_site_fract_y
_atom_site_fract_z
Si Si1 0.272234 0.550150 0.325692
Si Si2 0.344174 0.266902 0.816484
Si Si3 0.805351 0.728192 0.815827
Si Si4 0.875400 0.202137 0.815582
Si Si5 0.452303 0.612405 0.168460
Si Si6 0.869576 0.053416 0.184736
O O1 0.254152 0.500000 0.250000
O O2 0.253856 0.555386 0.500000
O O3 0.266349 0.599763 0.232108
O O4 0.330178 0.544666 0.335977
O O5 0.312303 0.312303 0.750000
O O6 0.320789 0.217968 0.747255
O O7 0.339158 0.268153 0.000000
O O8 0.766953 0.766953 0.750000
O O9 0.856234 0.746760 0.748404
O O10 0.805829 0.729321 0.000000
O O11 0.836708 0.163293 0.750000
O O12 0.924999 0.180973 0.748880
O O13 0.874946 0.201445 0.000000
O O14 0.500000 0.593686 0.250000
O O15 0.404066 0.595935 0.250000
O O16 0.450597 0.592193 0.000000
O O17 0.911699 0.088302 0.250000
O O18 0.876722 0.000000 0.250000
O O19 0.870053 0.054565 0.000000
#
# Coordination Sequence:
#
# PCOD9562313 Si02
#       6
#    16  16  16  16  16  16
#     4  10  20  33  46  60  77 100 126 155 190 234
#     4  11  20  30  44  63  84 106 132 166 203 244
#     4  10  17  27  42  62  85 108 133 166 206 251
#     4  10  17  28  44  63  85 111 140 175 217 263
#     4  10  20  32  45  57  70  86 110 142 181 224
#     4  11  21  34  48  65  86 115 153 195 237 275
#
# _framework density 14.3354
#
# number of rings (size 3 to 8) (size 9 to 14) (size 15 to 20)
#    0.000    1.667    0.000   10.500    0.000    3.667 
#    0.000    1.667    0.000    0.000    0.000    0.000 
#    0.000    0.000    0.000    0.000    0.000    0.833 
#
# Total GULP energy -534796.855645 kJ/mol
# GULP energy per Si atom -5570.800580 kJ/mol
# Density = 1.430277 g / cm^3
# Si number density = 14.335400 Si / 1000 Ang^3
#
#
#
# Elastic Constant Matrix: (Units=GPa)
#
#
# Indices 1 2 3 4 5 6 
#
# 1 51.1851 47.0477 40.6056 0.0000 0.0000 0.0000
# 2 47.0477 51.1878 40.6063 0.0000 0.0000 0.0000
# 3 40.6056 40.6063 166.4618 0.0000 0.0000 0.0000
# 4 0.0000 0.0000 0.0000 13.2369 0.0000 0.0000
# 5 0.0000 0.0000 0.0000 0.0000 13.2377 0.0000
# 6 0.0000 0.0000 0.0000 0.0000 0.0000 19.7678
#
#
#
# Elastic Compliance Matrix: (Units=1/GPa)
#
#
# Indices 1 2 3 4 5 6 
#
# 1 0.127187 -0.114433 -0.003111 0.000000 0.000000 0.000000
# 2 -0.114433 0.127180 -0.003110 0.000000 0.000000 0.000000
# 3 -0.003111 -0.003110 0.007525 0.000000 0.000000 0.000000
# 4 0.000000 0.000000 0.000000 0.075547 0.000000 0.000000
# 5 0.000000 0.000000 0.000000 0.000000 0.075542 0.000000
# 6 0.000000 0.000000 0.000000 0.000000 0.000000 0.050587
#
#
# Mechanical properties :
#
#
# Convention : Reuss Voigt Hill
#
# Bulk Modulus (GPa) = 48.57796 58.37266 53.47531
# Shear Modulus (GPa) = 7.02506 18.62014 12.82260
#
# Velocity S-wave (km/s) = 2.21611 3.60792 2.99402
# Velocity P-wave (km/s) = 6.36463 7.62652 7.02397
#
# Compressibility (1/GPa) = 0.02058547
#
# Stress axis : x y z
#
# Youngs Moduli (GPa) = 7.86241 7.86286 132.89218
#
# Poissons Ratio (x) = 0.89977 0.41341
# Poissons Ratio (y) = 0.89972 0.41330
# Poissons Ratio (z) = 0.02446 0.02445
#
# Static dielectric constant tensor:
#      x y z
#    x 1.493790 0.000000 0.000000 
#    y 0.000000 1.493780 0.000000 
#    z 0.000000 0.000000 1.496950 
# 
# From -- ./inp_files/1540.got.cif
#   From: 2010.05.17/outbox.cif.g08.bks.cpg/sg124_1_cif.got.tgz:1540.got - 2010.05.20 11:49:17.
