data_PCOD9562636
_publ_section_title
;
Structure prediction by ZEFSAII (Michael W. Deem and Ramdas Pophale) SiO2 
 PCOD9562636
Probable space group: P 4/M C C
;
_chemical_formula_sum "Si O2"
_cell_formula_units_Z 96
_cell_length_a 17.931426
_cell_length_b 17.931426
_cell_length_c 17.937583
_cell_angle_alpha 90.000000
_cell_angle_beta 90.000000
_cell_angle_gamma 90.000000
_cell_volume 5767.579376
_symmetry_space_group_name_H-M "P 4/M C C"
_symmetry_group_IT_number 124
_symmetry_cell_setting 'tetragonal'
loop_
_space_group_symop_operation_xyz
x,y,z
-y,x,z
-x,-y,z
y,-x,z
x,-y,1/2-z
-x,y,1/2-z
y,x,1/2-z
-y,-x,1/2-z
-x,-y,-z
y,-x,-z
x,y,-z
-y,x,-z
-x,y,1/2+z
x,-y,1/2+z
-y,-x,1/2+z
y,x,1/2+z
loop_
_atom_site_type_symbol
_atom_site_label
_atom_site_fract_x
_atom_site_fract_y
_atom_site_fract_z
Si Si1 0.445954 0.714412 0.590007
Si Si2 0.411810 0.995683 0.084500
Si Si3 0.776664 0.748002 0.834800
Si Si4 0.690975 0.925007 0.708652
Si Si5 0.384721 0.692503 0.910483
Si Si6 0.351028 0.852482 0.640017
O O1 0.445278 0.724083 0.500000
O O2 0.530524 0.702558 0.614213
O O3 0.389912 0.646556 0.607087
O O4 0.409083 0.786736 0.626247
O O5 0.374953 0.077697 0.090176
O O6 0.500000 0.000000 0.102097
O O7 0.366901 0.948065 0.144869
O O8 0.404842 0.966780 0.000000
O O9 0.746700 0.746700 0.750000
O O10 0.866049 0.749536 0.825914
O O11 0.751168 0.672490 0.874969
O O12 0.731257 0.816227 0.872504
O O13 0.649173 0.881789 0.775300
O O14 0.720840 0.000000 0.750000
O O15 0.382175 0.701005 0.000000
#
# Coordination Sequence:
#
# PCOD9562636 Si02
#       6
#    16  16  16  16  16  16
#     4   9  17  30  47  69  94 127 170 216 264 308
#     4  10  21  34  48  72 106 138 170 210 255 304
#     4   9  18  34  50  72  97 128 168 211 255 308
#     4   9  19  34  51  73  98 128 167 208 257 311
#     4   9  18  30  46  67  92 126 171 218 263 308
#     4   9  18  33  50  70 101 135 166 205 255 307
#
# _framework density 16.644765
#
# number of rings (size 3 to 8) (size 9 to 14) (size 15 to 20)
#    0.000    2.833    0.000    0.500    2.333    4.667 
#    3.000    4.167    0.000    0.000    0.000    9.333 
#    0.000  175.667    0.000   24.000    0.000    0.000 
#
# Total GULP energy -534552.064466 kJ/mol
# GULP energy per Si atom -5568.250672 kJ/mol
# Density = 1.660688 g / cm^3
# Si number density = 16.644765 Si / 1000 Ang^3
#
#
#
# Elastic Constant Matrix: (Units=GPa)
#
#
# Indices 1 2 3 4 5 6 
#
# 1 102.5718 47.8681 29.1490 0.0000 0.0000 0.0000
# 2 47.8681 102.5718 29.1490 0.0000 0.0000 0.0000
# 3 29.1490 29.1490 30.8525 0.0000 0.0000 0.0000
# 4 0.0000 0.0000 0.0000 16.0442 0.0000 0.0000
# 5 0.0000 0.0000 0.0000 0.0000 16.0442 0.0000
# 6 0.0000 0.0000 0.0000 0.0000 0.0000 7.9474
#
#
#
# Elastic Compliance Matrix: (Units=1/GPa)
#
#
# Indices 1 2 3 4 5 6 
#
# 1 0.014383 -0.003897 -0.009907 0.000000 0.000000 0.000000
# 2 -0.003897 0.014383 -0.009907 0.000000 0.000000 0.000000
# 3 -0.009907 -0.009907 0.051133 0.000000 0.000000 0.000000
# 4 0.000000 0.000000 0.000000 0.062328 0.000000 0.000000
# 5 0.000000 0.000000 0.000000 0.000000 0.062328 0.000000
# 6 0.000000 0.000000 0.000000 0.000000 0.000000 0.125828
#
#
# Mechanical properties :
#
#
# Convention : Reuss Voigt Hill
#
# Bulk Modulus (GPa) = 30.79174 49.81426 40.30300
# Shear Modulus (GPa) = 12.86561 16.66247 14.76404
#
# Velocity S-wave (km/s) = 2.78322 3.16739 2.98150
# Velocity P-wave (km/s) = 5.37289 6.58554 6.00988
#
# Compressibility (1/GPa) = 0.03247624
#
# Stress axis : x y z
#
# Youngs Moduli (GPa) = 69.52462 69.52462 19.55677
#
# Poissons Ratio (x) = 0.27093 0.19376
# Poissons Ratio (y) = 0.27093 0.19376
# Poissons Ratio (z) = 0.68881 0.68881
#
# Static dielectric constant tensor:
#      x y z
#    x 1.573480 0.000000 0.000000 
#    y 0.000000 1.573480 0.000000 
#    z 0.000000 0.000000 1.578550 
# 
# From -- ./inp_files/4252.got.cif
#   From: 2010.05.17/outbox.cif.g08.bks.cpg/sg124_3_cif.got.tgz:4252.got - 2010.05.20 11:49:17.
