data_PCOD9562729
_publ_section_title
;
Structure prediction by ZEFSAII (Michael W. Deem and Ramdas Pophale) SiO2 
 PCOD9562729
Probable space group: P 4/M C C
;
_chemical_formula_sum "Si O2"
_cell_formula_units_Z 72
_cell_length_a 14.852148
_cell_length_b 14.852148
_cell_length_c 15.567765
_cell_angle_alpha 90.000000
_cell_angle_beta 90.000000
_cell_angle_gamma 90.000000
_cell_volume 3434.035684
_symmetry_space_group_name_H-M "P 4/M C C"
_symmetry_group_IT_number 124
_symmetry_cell_setting 'tetragonal'
loop_
_space_group_symop_operation_xyz
x,y,z
-y,x,z
-x,-y,z
y,-x,z
x,-y,1/2-z
-x,y,1/2-z
y,x,1/2-z
-y,-x,1/2-z
-x,-y,-z
y,-x,-z
x,y,-z
-y,x,-z
-x,y,1/2+z
x,-y,1/2+z
-y,-x,1/2+z
y,x,1/2+z
loop_
_atom_site_type_symbol
_atom_site_label
_atom_site_fract_x
_atom_site_fract_y
_atom_site_fract_z
Si Si1 0.027950 0.650415 0.597599
Si Si2 0.634104 0.823592 0.900301
Si Si3 0.702012 0.702012 0.750000
Si Si4 0.550004 0.799388 0.664748
Si Si5 0.145788 0.009424 0.353545
O O1 0.035615 0.620627 0.500000
O O2 0.117777 0.613327 0.639956
O O3 0.022928 0.757659 0.606390
O O4 0.928392 0.619957 0.625114
O O5 0.695825 0.778474 0.825422
O O6 0.533838 0.780570 0.897622
O O7 0.668098 0.819481 0.000000
O O8 0.612029 0.716237 0.694035
O O9 0.500000 0.829381 0.750000
O O10 0.080972 0.092229 0.377600
O O11 0.155299 0.000000 0.250000
#
# Coordination Sequence:
#
# PCOD9562729 Si02
#       5
#    16  16   8  16  16
#     4  11  24  37  61  93 127 167 214 262 308 366
#     4  10  23  42  63  95 132 166 211 264 322 384
#     4  10  24  40  66  97 125 166 210 256 316 390
#     4  10  23  41  64  92 124 166 205 260 321 382
#     4   9  21  38  57  84 126 178 223 257 294 349
#
# _framework density 20.966584999999998
#
# number of rings (size 3 to 8) (size 9 to 14) (size 15 to 20)
#    0.000    2.000    0.000    2.000    9.333    7.111 
#    0.000    1.111    0.000   27.000    0.000   14.000 
#    0.000    0.000    0.000    0.000    0.000    0.000 
#
# Total GULP energy -401339.297134 kJ/mol
# GULP energy per Si atom -5574.156905 kJ/mol
# Density = 2.091886 g / cm^3
# Si number density = 20.966585 Si / 1000 Ang^3
#
#
#
# Elastic Constant Matrix: (Units=GPa)
#
#
# Indices 1 2 3 4 5 6 
#
# 1 79.0496 37.2709 20.6007 0.0000 0.0000 0.0000
# 2 37.2709 79.0496 20.6007 0.0000 0.0000 0.0000
# 3 20.6007 20.6007 67.3117 0.0000 0.0000 0.0000
# 4 0.0000 0.0000 0.0000 10.3570 0.0000 0.0000
# 5 0.0000 0.0000 0.0000 0.0000 10.3570 0.0000
# 6 0.0000 0.0000 0.0000 0.0000 0.0000 12.0331
#
#
#
# Elastic Compliance Matrix: (Units=1/GPa)
#
#
# Indices 1 2 3 4 5 6 
#
# 1 0.016789 -0.007147 -0.002951 0.000000 0.000000 0.000000
# 2 -0.007147 0.016789 -0.002951 0.000000 0.000000 0.000000
# 3 -0.002951 -0.002951 0.016663 0.000000 0.000000 0.000000
# 4 0.000000 0.000000 0.000000 0.096553 0.000000 0.000000
# 5 0.000000 0.000000 0.000000 0.000000 0.096553 0.000000
# 6 0.000000 0.000000 0.000000 0.000000 0.000000 0.083104
#
#
# Mechanical properties :
#
#
# Convention : Reuss Voigt Hill
#
# Bulk Modulus (GPa) = 41.41989 42.48395 41.95192
# Shear Modulus (GPa) = 13.86593 16.34532 15.10563
#
# Velocity S-wave (km/s) = 2.57443 2.79514 2.68705
# Velocity P-wave (km/s) = 5.35117 5.54290 5.44788
#
# Compressibility (1/GPa) = 0.02414299
#
# Stress axis : x y z
#
# Youngs Moduli (GPa) = 59.56309 59.56309 60.01485
#
# Poissons Ratio (x) = 0.42568 0.17710
# Poissons Ratio (y) = 0.42568 0.17710
# Poissons Ratio (z) = 0.17577 0.17577
#
# Static dielectric constant tensor:
#      x y z
#    x 1.800360 0.000000 0.000000 
#    y 0.000000 1.800360 0.000000 
#    z 0.000000 0.000000 1.708480 
# 
# From -- ./inp_files/4044.got.cif
#   From: 2010.05.17/outbox.cif.g08.bks.cpg/sg124_3_cif.got.tgz:4044.got - 2010.05.20 11:49:17.
