data_PCOD9562050
_publ_section_title
;
Structure prediction by ZEFSAII (Michael W. Deem and Ramdas Pophale) SiO2 
 PCOD9562050
Probable space group: P 4/M M M
;
_chemical_formula_sum "Si O2"
_cell_formula_units_Z 80
_cell_length_a 12.877631
_cell_length_b 12.877631
_cell_length_c 29.432023
_cell_angle_alpha 90.000000
_cell_angle_beta 90.000000
_cell_angle_gamma 90.000000
_cell_volume 4880.811859
_symmetry_space_group_name_H-M "P 4/M M M"
_symmetry_group_IT_number 123
_symmetry_cell_setting 'tetragonal'
loop_
_space_group_symop_operation_xyz
x,y,z
-y,x,z
-x,-y,z
y,-x,z
x,-y,-z
-x,y,-z
y,x,-z
-y,-x,-z
-x,-y,-z
y,-x,-z
x,y,-z
-y,x,-z
-x,y,z
x,-y,z
-y,-x,z
y,x,z
loop_
_atom_site_type_symbol
_atom_site_label
_atom_site_fract_x
_atom_site_fract_y
_atom_site_fract_z
Si Si1 0.000000 0.373975 0.447877
Si Si2 0.796673 0.376607 0.890975
Si Si3 0.119618 0.289781 0.303212
Si Si4 0.000000 0.374008 0.052081
Si Si5 0.206878 0.378689 0.393166
Si Si6 0.791660 0.620911 0.214357
O O1 0.105718 0.344197 0.422028
O O2 0.000000 0.500000 0.447641
O O3 0.000000 0.338619 0.500000
O O4 0.774177 0.500000 0.898341
O O5 0.696959 0.303042 0.899224
O O6 0.826945 0.365017 0.837761
O O7 0.894593 0.344597 0.921704
O O8 0.181858 0.181858 0.304527
O O9 0.174495 0.362756 0.340531
O O10 0.132373 0.336717 0.252963
O O11 0.000000 0.278236 0.314916
O O12 0.000000 0.500000 0.051868
O O13 0.000000 0.337985 0.000000
O O14 0.227999 0.500000 0.402107
O O15 0.304347 0.304347 0.402749
O O16 0.773557 0.500000 0.221658
O O17 0.686277 0.686277 0.219563
#
# Coordination Sequence:
#
# PCOD9562050 Si02
#       6
#     8  16  16   8  16  16
#     4   9  18  34  55  76 100 133 173 216 258 301
#     4   9  18  32  50  74 102 131 166 205 247 297
#     4  10  20  33  50  73 101 134 172 213 255 299
#     4   9  18  32  49  70  96 127 163 204 252 301
#     4  10  20  34  53  79 108 138 173 211 255 307
#     4   9  18  30  46  71 100 131 164 199 242 292
#
# _framework density 16.390716000000001
#
# number of rings (size 3 to 8) (size 9 to 14) (size 15 to 20)
#    0.000    2.600    1.000    0.600    1.400    2.800 
#    0.000    2.000    0.000    4.200    0.000    7.000 
#    0.000    0.000    0.000    0.000    0.000    0.000 
#
# Total GULP energy -445686.908365 kJ/mol
# GULP energy per Si atom -5571.086355 kJ/mol
# Density = 1.635341 g / cm^3
# Si number density = 16.390716 Si / 1000 Ang^3
#
#
#
# Elastic Constant Matrix: (Units=GPa)
#
#
# Indices 1 2 3 4 5 6 
#
# 1 198.5926 -55.5589 43.9966 0.0000 0.0000 0.0000
# 2 -55.5589 198.5926 43.9966 0.0000 0.0000 0.0000
# 3 43.9966 43.9966 77.8458 0.0000 0.0000 0.0000
# 4 0.0000 0.0000 0.0000 18.3578 0.0000 0.0000
# 5 0.0000 0.0000 0.0000 0.0000 18.3578 0.0000
# 6 0.0000 0.0000 0.0000 0.0000 0.0000 7.3140
#
#
#
# Elastic Compliance Matrix: (Units=1/GPa)
#
#
# Indices 1 2 3 4 5 6 
#
# 1 0.007326 0.003392 -0.006057 0.000000 0.000000 0.000000
# 2 0.003392 0.007326 -0.006057 0.000000 0.000000 0.000000
# 3 -0.006057 -0.006057 0.019693 0.000000 0.000000 0.000000
# 4 0.000000 0.000000 0.000000 0.054473 0.000000 0.000000
# 5 0.000000 0.000000 0.000000 0.000000 0.054473 0.000000
# 6 0.000000 0.000000 0.000000 0.000000 0.000000 0.136724
#
#
# Mechanical properties :
#
#
# Convention : Reuss Voigt Hill
#
# Bulk Modulus (GPa) = 59.17578 59.98883 59.58230
# Shear Modulus (GPa) = 16.49649 38.31237 27.40443
#
# Velocity S-wave (km/s) = 3.17591 4.83996 4.09338
# Velocity P-wave (km/s) = 7.04486 8.24089 7.66624
#
# Compressibility (1/GPa) = 0.01689881
#
# Stress axis : x y z
#
# Youngs Moduli (GPa) = 136.49503 136.49503 50.77942
#
# Poissons Ratio (x) = -0.46294 0.30760
# Poissons Ratio (y) = -0.46294 0.30760
# Poissons Ratio (z) = 0.82682 0.82682
#
# Static dielectric constant tensor:
#      x y z
#    x 1.531690 0.000000 0.000000 
#    y 0.000000 1.531690 0.000000 
#    z 0.000000 0.000000 1.569090 
# 
# From -- ./inp_files/8357.got.cif
#   From: 2010.05.17/outbox.cif.g08.bks.cpg/sg123_5_cif.got.tgz:8357.got - 2010.05.20 11:43:04.
