data_PCOD9562133
_publ_section_title
;
Structure prediction by ZEFSAII (Michael W. Deem and Ramdas Pophale) SiO2 
 PCOD9562133
Probable space group: P 4/M M M
;
_chemical_formula_sum "Si O2"
_cell_formula_units_Z 80
_cell_length_a 24.079470
_cell_length_b 24.079470
_cell_length_c 7.615170
_cell_angle_alpha 90.000000
_cell_angle_beta 90.000000
_cell_angle_gamma 90.000000
_cell_volume 4415.434536
_symmetry_space_group_name_H-M "P 4/M M M"
_symmetry_group_IT_number 123
_symmetry_cell_setting 'tetragonal'
loop_
_space_group_symop_operation_xyz
x,y,z
-y,x,z
-x,-y,z
y,-x,z
x,-y,-z
-x,y,-z
y,x,-z
-y,-x,-z
-x,-y,-z
y,-x,-z
x,y,-z
-y,x,-z
-x,y,z
x,-y,z
-y,-x,z
y,x,z
loop_
_atom_site_type_symbol
_atom_site_label
_atom_site_fract_x
_atom_site_fract_y
_atom_site_fract_z
Si Si1 0.774048 0.630901 0.711847
Si Si2 0.321523 0.937920 0.708271
Si Si3 0.834053 0.745865 0.286089
Si Si4 0.562715 0.121232 0.204419
Si Si5 0.349942 0.650059 0.715578
Si Si6 0.562197 0.437804 0.714384
O O1 0.775729 0.627382 0.500000
O O2 0.797436 0.691742 0.758770
O O3 0.814991 0.582964 0.777504
O O4 0.710971 0.631140 0.771889
O O5 0.311807 0.941169 0.500000
O O6 0.274594 0.894867 0.776326
O O7 0.384095 0.913208 0.725743
O O8 0.318783 0.000000 0.782369
O O9 0.835986 0.749182 0.500000
O O10 0.801345 0.801345 0.226116
O O11 0.500000 0.113105 0.278385
O O12 0.559697 0.107152 0.000000
O O13 0.348401 0.651600 0.500000
O O14 0.394064 0.605937 0.776403
O O15 0.575691 0.500000 0.769472
O O16 0.562751 0.437250 0.500000
#
# Coordination Sequence:
#
# PCOD9562133 Si02
#       6
#    16  16  16  16   8   8
#     4   9  16  27  45  67  87 107 139 184 227 269
#     4   9  18  31  48  70  92 115 149 192 228 260
#     4   8  12  22  42  64  87 113 135 165 215 262
#     4  10  21  34  45  60  87 123 157 187 224 270
#     4   9  15  24  42  65  85 106 138 180 227 275
#     4   8  14  23  32  47  77 110 134 164 214 273
#
# _framework density 18.118261
#
# number of rings (size 3 to 8) (size 9 to 14) (size 15 to 20)
#    0.000    3.100    1.000    2.100    0.000    3.200 
#    0.000    4.500    0.000    0.000    0.000    0.000 
#    0.000    0.400    0.000   10.000    0.000    3.600 
#
# Total GULP energy -445397.860841 kJ/mol
# GULP energy per Si atom -5567.473261 kJ/mol
# Density = 1.807702 g / cm^3
# Si number density = 18.118261 Si / 1000 Ang^3
#
#
#
# Elastic Constant Matrix: (Units=GPa)
#
#
# Indices 1 2 3 4 5 6 
#
# 1 245.1547 -32.2640 2.1807 0.0000 0.0000 0.0000
# 2 -32.2640 245.1553 2.1802 0.0000 0.0000 0.0000
# 3 2.1807 2.1802 34.5306 0.0000 0.0000 0.0000
# 4 0.0000 0.0000 0.0000 -62.0403 0.0000 0.0000
# 5 0.0000 0.0000 0.0000 0.0000 -62.0408 0.0000
# 6 0.0000 0.0000 0.0000 0.0000 0.0000 16.9526
#
#
#
# Elastic Compliance Matrix: (Units=1/GPa)
#
#
# Indices 1 2 3 4 5 6 
#
# 1 0.004154 0.000549 -0.000297 0.000000 0.000000 0.000000
# 2 0.000549 0.004154 -0.000297 0.000000 0.000000 0.000000
# 3 -0.000297 -0.000297 0.028997 0.000000 0.000000 0.000000
# 4 0.000000 0.000000 0.000000 -0.016119 0.000000 0.000000
# 5 0.000000 0.000000 0.000000 0.000000 -0.016118 0.000000
# 6 0.000000 0.000000 0.000000 0.000000 0.000000 0.058988
#
#
# Mechanical properties :
#
#
# Convention : Reuss Voigt Hill
#
# Bulk Modulus (GPa) = 26.87015 52.11492 39.49254
# Shear Modulus (GPa) = 65.31585 15.42387 40.36986
#
# Velocity S-wave (km/s) = 6.01066 2.92085 4.72543
# Velocity P-wave (km/s) = 7.93935 6.34045 7.18452
#
# Compressibility (1/GPa) = 0.03721601
#
# Stress axis : x y z
#
# Youngs Moduli (GPa) = 240.73213 240.73272 34.48592
#
# Poissons Ratio (x) = -0.13224 0.01024
# Poissons Ratio (y) = -0.13224 0.01024
# Poissons Ratio (z) = 0.07150 0.07149
#
# Static dielectric constant tensor:
#      x y z
#    x 1.630040 0.000000 0.000000 
#    y 0.000000 1.630040 0.000000 
#    z 0.000000 0.000000 1.669820 
# 
# From -- ./inp_files/1446.got.cif
#   From: 2010.05.17/outbox.cif.g08.bks.cpg/sg123_1_cif.got.tgz:1446.got - 2010.05.20 11:43:04.
