data_PCOD9562442
_publ_section_title
;
Structure prediction by ZEFSAII (Michael W. Deem and Ramdas Pophale) SiO2 
 PCOD9562442
Probable space group: P 4/M C C
;
_chemical_formula_sum "Si O2"
_cell_formula_units_Z 112
_cell_length_a 14.970793
_cell_length_b 14.970793
_cell_length_c 28.753078
_cell_angle_alpha 90.000000
_cell_angle_beta 90.000000
_cell_angle_gamma 90.000000
_cell_volume 6444.273343
_symmetry_space_group_name_H-M "P 4/M C C"
_symmetry_group_IT_number 124
_symmetry_cell_setting 'tetragonal'
loop_
_space_group_symop_operation_xyz
x,y,z
-y,x,z
-x,-y,z
y,-x,z
x,-y,1/2-z
-x,y,1/2-z
y,x,1/2-z
-y,-x,1/2-z
-x,-y,-z
y,-x,-z
x,y,-z
-y,x,-z
-x,y,1/2+z
x,-y,1/2+z
-y,-x,1/2+z
y,x,1/2+z
loop_
_atom_site_type_symbol
_atom_site_label
_atom_site_fract_x
_atom_site_fract_y
_atom_site_fract_z
Si Si1 0.544193 0.909645 0.444768
Si Si2 0.259110 0.155804 0.444221
Si Si3 0.232657 0.495940 0.377809
Si Si4 0.255558 0.835451 0.795243
Si Si5 0.686261 0.303396 0.125931
Si Si6 0.925546 0.870306 0.129760
Si Si7 0.453774 0.902133 0.204188
O O1 0.537978 0.911402 0.500000
O O2 0.648822 0.897780 0.433196
O O3 0.494850 0.823251 0.425311
O O4 0.500000 0.000000 0.425937
O O5 0.248066 0.161451 0.500000
O O6 0.273340 0.251166 0.418857
O O7 0.180344 0.106425 0.416840
O O8 0.277914 0.402306 0.369263
O O9 0.299281 0.579506 0.378583
O O10 0.158031 0.520435 0.339524
O O11 0.207216 0.792785 0.750000
O O12 0.285495 0.754583 0.829188
O O13 0.186550 0.892916 0.825928
O O14 0.346495 0.894102 0.787996
O O15 0.031765 0.882169 0.130737
O O16 0.500000 0.862501 0.250000
O O17 0.500000 0.000000 0.198672
#
# Coordination Sequence:
#
# PCOD9562442 Si02
#       7
#    16  16  16  16  16  16  16
#     4   9  18  32  52  78 103 129 166 214 268 319
#     4   9  19  36  55  77 105 136 174 219 267 316
#     4  10  19  34  51  73 107 140 171 216 262 311
#     4  10  21  38  58  80 109 143 177 222 277 326
#     4   9  20  34  53  78 105 139 176 215 264 322
#     4  10  23  39  53  76 108 142 182 219 257 317
#     4  10  21  34  54  83 107 133 175 224 272 322
#
# _framework density 17.379771000000002
#
# number of rings (size 3 to 8) (size 9 to 14) (size 15 to 20)
#    0.000    2.429    0.000    2.143    0.000    8.857 
#    0.000    2.857    0.000    0.000    0.000    6.000 
#    0.000    0.000    0.000    0.000    0.000    0.000 
#
# Total GULP energy -624273.956882 kJ/mol
# GULP energy per Si atom -5573.874615 kJ/mol
# Density = 1.734021 g / cm^3
# Si number density = 17.379771 Si / 1000 Ang^3
#
#
#
# Elastic Constant Matrix: (Units=GPa)
#
#
# Indices 1 2 3 4 5 6 
#
# 1 95.4454 61.6724 47.8865 0.0000 0.0000 0.0000
# 2 61.6724 95.4449 47.8866 0.0000 0.0000 0.0000
# 3 47.8865 47.8866 75.9175 0.0000 0.0000 0.0000
# 4 0.0000 0.0000 0.0000 19.8550 0.0000 0.0000
# 5 0.0000 0.0000 0.0000 0.0000 19.8552 0.0000
# 6 0.0000 0.0000 0.0000 0.0000 0.0000 24.9406
#
#
#
# Elastic Compliance Matrix: (Units=1/GPa)
#
#
# Indices 1 2 3 4 5 6 
#
# 1 0.019975 -0.009635 -0.006522 0.000000 0.000000 0.000000
# 2 -0.009635 0.019975 -0.006523 0.000000 0.000000 0.000000
# 3 -0.006522 -0.006523 0.021401 0.000000 0.000000 0.000000
# 4 0.000000 0.000000 0.000000 0.050365 0.000000 0.000000
# 5 0.000000 0.000000 0.000000 0.000000 0.050365 0.000000
# 6 0.000000 0.000000 0.000000 0.000000 0.000000 0.040095
#
#
# Mechanical properties :
#
#
# Convention : Reuss Voigt Hill
#
# Bulk Modulus (GPa) = 62.53264 64.63321 63.58292
# Shear Modulus (GPa) = 19.77335 20.22098 19.99716
#
# Velocity S-wave (km/s) = 3.37667 3.41468 3.39573
# Velocity P-wave (km/s) = 7.15966 7.26748 7.21377
#
# Compressibility (1/GPa) = 0.01599165
#
# Stress axis : x y z
#
# Youngs Moduli (GPa) = 50.06246 50.06204 46.72760
#
# Poissons Ratio (x) = 0.48233 0.30478
# Poissons Ratio (y) = 0.48233 0.30478
# Poissons Ratio (z) = 0.32653 0.32653
#
# Static dielectric constant tensor:
#      x y z
#    x 1.584150 0.000000 0.000000 
#    y 0.000000 1.584150 0.000000 
#    z 0.000000 0.000000 1.606570 
# 
# From -- ./inp_files/7284.got.cif
#   From: 2010.05.17/outbox.cif.g08.bks.cpg/sg124_4_cif.got.tgz:7284.got - 2010.05.20 11:49:17.
