data_PCOD9562239
_publ_section_title
;
Structure prediction by ZEFSAII (Michael W. Deem and Ramdas Pophale) SiO2 
 PCOD9562239
Probable space group: P 4/M M M
;
_chemical_formula_sum "Si O2"
_cell_formula_units_Z 112
_cell_length_a 23.601742
_cell_length_b 23.601742
_cell_length_c 13.565156
_cell_angle_alpha 90.000000
_cell_angle_beta 90.000000
_cell_angle_gamma 90.000000
_cell_volume 7556.364687
_symmetry_space_group_name_H-M "P 4/M M M"
_symmetry_group_IT_number 123
_symmetry_cell_setting 'tetragonal'
loop_
_space_group_symop_operation_xyz
x,y,z
-y,x,z
-x,-y,z
y,-x,z
x,-y,-z
-x,y,-z
y,x,-z
-y,-x,-z
-x,-y,-z
y,-x,-z
x,y,-z
-y,x,-z
-x,y,z
x,-y,z
-y,-x,z
y,x,z
loop_
_atom_site_type_symbol
_atom_site_label
_atom_site_fract_x
_atom_site_fract_y
_atom_site_fract_z
Si Si1 0.432915 0.063440 0.118115
Si Si2 0.155500 0.935638 0.880321
Si Si3 0.342433 0.564483 0.309411
Si Si4 0.217028 0.566116 0.614044
Si Si5 0.630745 0.171802 0.202618
Si Si6 0.749996 0.154061 0.115108
Si Si7 0.705738 0.613150 0.887606
O O1 0.500000 0.068345 0.138544
O O2 0.400265 0.115474 0.165447
O O3 0.414464 0.000000 0.149569
O O4 0.425844 0.066319 0.000000
O O5 0.102171 0.897830 0.846629
O O6 0.212582 0.900863 0.858442
O O7 0.155061 0.000000 0.844613
O O8 0.152588 0.936950 0.000000
O O9 0.361174 0.500000 0.323261
O O10 0.390323 0.609678 0.335211
O O11 0.284503 0.573640 0.369891
O O12 0.324290 0.575081 0.195290
O O13 0.202610 0.574708 0.500000
O O14 0.204879 0.500000 0.640396
O O15 0.186079 0.608402 0.688408
O O16 0.697228 0.162638 0.186045
O O17 0.615975 0.228013 0.138642
O O18 0.792954 0.207047 0.119047
O O19 0.730947 0.148984 0.000000
O O20 0.674737 0.674737 0.879522
O O21 0.697825 0.593793 0.000000
#
# Coordination Sequence:
#
# PCOD9562239 Si02
#       7
#    16  16  16  16  16  16  16
#     4   9  18  30  41  59  90 117 135 165 204 236
#     4   8  14  24  37  55  83 121 161 194 218 238
#     4   9  18  31  46  65  88 114 142 172 212 261
#     4   9  19  35  51  66  84 104 132 179 229 261
#     4  11  18  27  47  67  80 108 149 174 204 263
#     4   9  17  27  38  58  91 121 142 173 215 255
#     4   9  17  28  42  63  90 114 140 179 217 248
#
# _framework density 14.821942
#
# number of rings (size 3 to 8) (size 9 to 14) (size 15 to 20)
#    0.000    2.857    0.000    3.429    0.000    3.714 
#    0.000    2.143    0.000    0.429    0.000    6.000 
#    0.000    0.000    0.000    0.429    0.000    0.714 
#
# Total GULP energy -623844.719377 kJ/mol
# GULP energy per Si atom -5570.042137 kJ/mol
# Density = 1.478821 g / cm^3
# Si number density = 14.821942 Si / 1000 Ang^3
#
#
#
# Elastic Constant Matrix: (Units=GPa)
#
#
# Indices 1 2 3 4 5 6 
#
# 1 89.6089 47.6553 26.5280 0.0000 0.0000 0.0000
# 2 47.6553 89.6089 26.5280 0.0000 0.0000 0.0000
# 3 26.5280 26.5280 50.3159 0.0000 0.0000 0.0000
# 4 0.0000 0.0000 0.0000 11.2646 0.0000 0.0000
# 5 0.0000 0.0000 0.0000 0.0000 11.2646 0.0000
# 6 0.0000 0.0000 0.0000 0.0000 0.0000 10.0664
#
#
#
# Elastic Compliance Matrix: (Units=1/GPa)
#
#
# Indices 1 2 3 4 5 6 
#
# 1 0.016493 -0.007343 -0.004824 0.000000 0.000000 0.000000
# 2 -0.007343 0.016493 -0.004824 0.000000 0.000000 0.000000
# 3 -0.004824 -0.004824 0.024961 0.000000 0.000000 0.000000
# 4 0.000000 0.000000 0.000000 0.088773 0.000000 0.000000
# 5 0.000000 0.000000 0.000000 0.000000 0.088773 0.000000
# 6 0.000000 0.000000 0.000000 0.000000 0.000000 0.099341
#
#
# Mechanical properties :
#
#
# Convention : Reuss Voigt Hill
#
# Bulk Modulus (GPa) = 41.72813 47.88402 44.80607
# Shear Modulus (GPa) = 13.26947 15.10729 14.18838
#
# Velocity S-wave (km/s) = 2.99533 3.19604 3.09731
# Velocity P-wave (km/s) = 6.33851 6.78202 6.56401
#
# Compressibility (1/GPa) = 0.02396465
#
# Stress axis : x y z
#
# Youngs Moduli (GPa) = 60.63226 60.63226 40.06220
#
# Poissons Ratio (x) = 0.44522 0.19326
# Poissons Ratio (y) = 0.44522 0.19326
# Poissons Ratio (z) = 0.29249 0.29249
#
# Static dielectric constant tensor:
#      x y z
#    x 1.494950 0.000000 0.000000 
#    y 0.000000 1.494950 0.000000 
#    z 0.000000 0.000000 1.474060 
# 
# From -- ./inp_files/3421.got.cif
#   From: 2010.05.17/outbox.cif.g08.bks.cpg/sg123_2_cif.got.tgz:3421.got - 2010.05.20 11:43:04.
