data_PCOD9562157
_publ_section_title
;
Structure prediction by ZEFSAII (Michael W. Deem and Ramdas Pophale) SiO2 
 PCOD9562157
Probable space group: P 4/M M M
;
_chemical_formula_sum "Si O2"
_cell_formula_units_Z 88
_cell_length_a 13.666318
_cell_length_b 13.666318
_cell_length_c 28.027986
_cell_angle_alpha 90.000000
_cell_angle_beta 90.000000
_cell_angle_gamma 90.000000
_cell_volume 5234.737831
_symmetry_space_group_name_H-M "P 4/M M M"
_symmetry_group_IT_number 123
_symmetry_cell_setting 'tetragonal'
loop_
_space_group_symop_operation_xyz
x,y,z
-y,x,z
-x,-y,z
y,-x,z
x,-y,-z
-x,y,-z
y,x,-z
-y,-x,-z
-x,-y,-z
y,-x,-z
x,y,-z
-y,x,-z
-x,y,z
x,-y,z
-y,-x,z
y,x,z
loop_
_atom_site_type_symbol
_atom_site_label
_atom_site_fract_x
_atom_site_fract_y
_atom_site_fract_z
Si Si1 0.275453 0.885270 0.169814
Si Si2 0.776733 0.613677 0.637242
Si Si3 0.116706 0.278905 0.000000
Si Si4 0.615874 0.221671 0.912165
Si Si5 0.275417 0.885700 0.555674
Si Si6 0.274533 0.886101 0.717875
O O1 0.174551 0.825450 0.161473
O O2 0.355492 0.832787 0.136936
O O3 0.298919 0.876665 0.226027
O O4 0.266023 0.000000 0.158197
O O5 0.755568 0.500000 0.636915
O O6 0.679431 0.679431 0.637076
O O7 0.839712 0.645895 0.591265
O O8 0.838547 0.645000 0.683749
O O9 0.154287 0.339471 0.954137
O O10 0.176333 0.176333 0.000000
O O11 0.000000 0.267075 0.000000
O O12 0.500000 0.234434 0.917226
O O13 0.676595 0.323406 0.913915
O O14 0.303222 0.874445 0.500000
O O15 0.176070 0.823931 0.563126
O O16 0.261265 0.000000 0.565430
O O17 0.175440 0.824560 0.709454
O O18 0.261498 0.000000 0.706931
#
# Coordination Sequence:
#
# PCOD9562157 Si02
#       6
#    16  16   8  16  16  16
#     4   9  18  32  50  74 103 133 165 200 239 287
#     4  10  21  36  52  70  94 124 161 206 250 291
#     4  10  21  36  54  78 106 134 165 200 240 290
#     4  10  21  36  53  74 100 130 167 210 252 294
#     4   9  18  32  50  74 103 132 161 193 231 279
#     4   9  18  32  50  74 103 132 162 197 238 287
#
# _framework density 16.810776000000001
#
# number of rings (size 3 to 8) (size 9 to 14) (size 15 to 20)
#    0.000    2.545    0.000    1.364    0.000    5.364 
#    0.000    5.455    0.000    8.182    0.000    7.636 
#    0.000    0.000    0.000    0.000    0.000    0.000 
#
# Total GULP energy -490799.816206 kJ/mol
# GULP energy per Si atom -5577.270639 kJ/mol
# Density = 1.677251 g / cm^3
# Si number density = 16.810776 Si / 1000 Ang^3
#
#
#
# Elastic Constant Matrix: (Units=GPa)
#
#
# Indices 1 2 3 4 5 6 
#
# 1 141.9345 58.0429 57.5020 0.0000 0.0000 0.0000
# 2 58.0429 141.9345 57.5020 0.0000 0.0000 0.0000
# 3 57.5020 57.5020 63.3449 0.0000 0.0000 0.0000
# 4 0.0000 0.0000 0.0000 19.3149 0.0000 0.0000
# 5 0.0000 0.0000 0.0000 0.0000 19.3149 0.0000
# 6 0.0000 0.0000 0.0000 0.0000 0.0000 3.6659
#
#
#
# Elastic Compliance Matrix: (Units=1/GPa)
#
#
# Indices 1 2 3 4 5 6 
#
# 1 0.011191 -0.000729 -0.009497 0.000000 0.000000 0.000000
# 2 -0.000729 0.011191 -0.009497 0.000000 0.000000 0.000000
# 3 -0.009497 -0.009497 0.033029 0.000000 0.000000 0.000000
# 4 0.000000 0.000000 0.000000 0.051773 0.000000 0.000000
# 5 0.000000 0.000000 0.000000 0.000000 0.051773 0.000000
# 6 0.000000 0.000000 0.000000 0.000000 0.000000 0.272787
#
#
# Mechanical properties :
#
#
# Convention : Reuss Voigt Hill
#
# Bulk Modulus (GPa) = 62.63852 77.03421 69.83636
# Shear Modulus (GPa) = 10.49287 20.07028 15.28157
#
# Velocity S-wave (km/s) = 2.50106 3.45903 3.01829
# Velocity P-wave (km/s) = 6.75886 7.86619 7.33346
#
# Compressibility (1/GPa) = 0.01596462
#
# Stress axis : x y z
#
# Youngs Moduli (GPa) = 89.35574 89.35574 30.27633
#
# Poissons Ratio (x) = 0.06513 0.28754
# Poissons Ratio (y) = 0.06513 0.28754
# Poissons Ratio (z) = 0.84864 0.84864
#
# Static dielectric constant tensor:
#      x y z
#    x 1.537010 0.000000 0.000000 
#    y 0.000000 1.537010 0.000000 
#    z 0.000000 0.000000 1.588840 
# 
# From -- ./inp_files/8478.got.cif
#   From: 2010.05.17/outbox.cif.g08.bks.cpg/sg123_5_cif.got.tgz:8478.got - 2010.05.20 11:43:04.
