data_PCOD9562494
_publ_section_title
;
Structure prediction by ZEFSAII (Michael W. Deem and Ramdas Pophale) SiO2 
 PCOD9562494
Probable space group: P 4/M C C
;
_chemical_formula_sum "Si O2"
_cell_formula_units_Z 96
_cell_length_a 26.084730
_cell_length_b 26.084730
_cell_length_c 8.685619
_cell_angle_alpha 90.000000
_cell_angle_beta 90.000000
_cell_angle_gamma 90.000000
_cell_volume 5909.809289
_symmetry_space_group_name_H-M "P 4/M C C"
_symmetry_group_IT_number 124
_symmetry_cell_setting 'tetragonal'
loop_
_space_group_symop_operation_xyz
x,y,z
-y,x,z
-x,-y,z
y,-x,z
x,-y,1/2-z
-x,y,1/2-z
y,x,1/2-z
-y,-x,1/2-z
-x,-y,-z
y,-x,-z
x,y,-z
-y,x,-z
-x,y,1/2+z
x,-y,1/2+z
-y,-x,1/2+z
y,x,1/2+z
loop_
_atom_site_type_symbol
_atom_site_label
_atom_site_fract_x
_atom_site_fract_y
_atom_site_fract_z
Si Si1 0.253628 0.666028 0.815820
Si Si2 0.861321 0.664804 0.185407
Si Si3 0.551634 0.863123 0.683789
Si Si4 0.252631 0.448038 0.684269
Si Si5 0.863054 0.943731 0.184642
Si Si6 0.749990 0.055862 0.185741
O O1 0.290599 0.709402 0.750000
O O2 0.195253 0.671435 0.755968
O O3 0.273147 0.608433 0.773735
O O4 0.252706 0.669224 0.000000
O O5 0.883144 0.608175 0.225807
O O6 0.900790 0.709094 0.229796
O O7 0.855563 0.665933 0.000000
O O8 0.500000 0.888243 0.750000
O O9 0.547216 0.861442 0.500000
O O10 0.552601 0.805162 0.749110
O O11 0.277573 0.500000 0.750000
O O12 0.250503 0.451942 0.500000
O O13 0.902395 0.902395 0.250000
O O14 0.805771 0.932170 0.244825
O O15 0.876214 0.000000 0.250000
O O16 0.863718 0.944563 0.000000
O O17 0.735020 0.000000 0.250000
O O18 0.753553 0.053463 0.000000
#
# Coordination Sequence:
#
# PCOD9562494 Si02
#       6
#    16  16  16  16  16  16
#     4  10  20  31  45  67  97 128 159 193 235 281
#     4   9  19  33  49  68  94 126 160 195 238 286
#     4   9  15  25  42  65  90 118 151 192 236 280
#     4   9  16  26  41  62  86 118 156 192 229 275
#     4  11  22  38  58  81 105 130 158 192 233 279
#     4  10  20  36  55  75  97 126 162 200 238 280
#
# _framework density 16.24418
#
# number of rings (size 3 to 8) (size 9 to 14) (size 15 to 20)
#    0.000    2.333    0.000    5.500    0.000    4.833 
#    0.000    0.833    0.000    0.500    0.000    3.500 
#    0.000    0.333    0.000    3.667    0.000    2.667 
#
# Total GULP energy -534880.102771 kJ/mol
# GULP energy per Si atom -5571.667737 kJ/mol
# Density = 1.620721 g / cm^3
# Si number density = 16.244180 Si / 1000 Ang^3
#
#
#
# Elastic Constant Matrix: (Units=GPa)
#
#
# Indices 1 2 3 4 5 6 
#
# 1 109.1219 93.7604 46.1954 0.0000 0.0000 0.0000
# 2 93.7604 109.1186 46.1943 0.0000 0.0000 0.0000
# 3 46.1954 46.1943 75.0515 0.0000 0.0000 0.0000
# 4 0.0000 0.0000 0.0000 23.7328 0.0000 0.0000
# 5 0.0000 0.0000 0.0000 0.0000 23.7330 0.0000
# 6 0.0000 0.0000 0.0000 0.0000 0.0000 -3.3875
#
#
#
# Elastic Compliance Matrix: (Units=1/GPa)
#
#
# Indices 1 2 3 4 5 6 
#
# 1 0.035976 -0.029128 -0.004216 0.000000 0.000000 0.000000
# 2 -0.029128 0.035977 -0.004215 0.000000 0.000000 0.000000
# 3 -0.004216 -0.004215 0.018513 0.000000 0.000000 0.000000
# 4 0.000000 0.000000 0.000000 0.042136 0.000000 0.000000
# 5 0.000000 0.000000 0.000000 0.000000 0.042135 0.000000
# 6 0.000000 0.000000 0.000000 0.000000 0.000000 -0.295203
#
#
# Mechanical properties :
#
#
# Convention : Reuss Voigt Hill
#
# Bulk Modulus (GPa) = 65.15036 73.95468 69.55252
# Shear Modulus (GPa) = -124.28224 15.95847 -54.16188
#
# Velocity S-wave (km/s) = -8.75642 3.13774 -5.78055
# Velocity P-wave (km/s) = 7.87650 7.66505 1.28184
#
# Compressibility (1/GPa) = 0.01534911
#
# Stress axis : x y z
#
# Youngs Moduli (GPa) = 27.79603 27.79535 54.01486
#
# Poissons Ratio (x) = 0.80963 0.22770
# Poissons Ratio (y) = 0.80965 0.22768
# Poissons Ratio (z) = 0.11718 0.11716
#
# Static dielectric constant tensor:
#      x y z
#    x 1.552950 0.000000 0.000000 
#    y 0.000000 1.552950 0.000000 
#    z 0.000000 0.000000 1.545780 
# 
# From -- ./inp_files/1509.got.cif
#   From: 2010.05.17/outbox.cif.g08.bks.cpg/sg124_1_cif.got.tgz:1509.got - 2010.05.20 11:49:17.
