data_PCOD9562574
_publ_section_title
;
Structure prediction by ZEFSAII (Michael W. Deem and Ramdas Pophale) SiO2 
 PCOD9562574
Probable space group: P 4/M C C
;
_chemical_formula_sum "Si O2"
_cell_formula_units_Z 96
_cell_length_a 24.314376
_cell_length_b 24.314376
_cell_length_c 8.363463
_cell_angle_alpha 90.000000
_cell_angle_beta 90.000000
_cell_angle_gamma 90.000000
_cell_volume 4944.386326
_symmetry_space_group_name_H-M "P 4/M C C"
_symmetry_group_IT_number 124
_symmetry_cell_setting 'tetragonal'
loop_
_space_group_symop_operation_xyz
x,y,z
-y,x,z
-x,-y,z
y,-x,z
x,-y,1/2-z
-x,y,1/2-z
y,x,1/2-z
-y,-x,1/2-z
-x,-y,-z
y,-x,-z
x,y,-z
-y,x,-z
-x,y,1/2+z
x,-y,1/2+z
-y,-x,1/2+z
y,x,1/2+z
loop_
_atom_site_type_symbol
_atom_site_label
_atom_site_fract_x
_atom_site_fract_y
_atom_site_fract_z
Si Si1 0.826290 0.556546 0.815696
Si Si2 0.821450 0.258960 0.689528
Si Si3 0.349651 0.436202 0.809470
Si Si4 0.058918 0.577410 0.812765
Si Si5 0.057781 0.701583 0.306061
Si Si6 0.249842 0.640836 0.819076
O O1 0.802655 0.500000 0.750000
O O2 0.891546 0.555819 0.795641
O O3 0.802561 0.601302 0.696887
O O4 0.811418 0.567365 0.000000
O O5 0.798711 0.201290 0.750000
O O6 0.821130 0.260525 0.500000
O O7 0.884292 0.270531 0.739021
O O8 0.776855 0.304797 0.743837
O O9 0.344449 0.500000 0.750000
O O10 0.405213 0.405213 0.750000
O O11 0.299438 0.395064 0.757435
O O12 0.349851 0.438113 0.000000
O O13 0.059397 0.642880 0.782392
O O14 0.000000 0.558587 0.750000
O O15 0.066878 0.565022 0.000000
O O16 0.056707 0.693880 0.500000
O O17 0.000000 0.728190 0.250000
O O18 0.266385 0.652865 0.000000
#
# Coordination Sequence:
#
# PCOD9562574 Si02
#       6
#    16  16  16  16  16  16
#     4  12  24  39  56  79 109 146 194 245 295 350
#     4  11  23  38  59  89 124 161 202 249 295 348
#     4  12  26  47  71  97 125 155 192 238 293 358
#     4  11  21  35  55  78 106 145 190 240 294 346
#     4  10  20  35  57  83 116 156 200 245 295 348
#     4  12  24  41  63  89 120 158 196 238 295 354
#
# _framework density 19.415958
#
# number of rings (size 3 to 8) (size 9 to 14) (size 15 to 20)
#    0.000    0.667    1.667    9.000    0.000    2.500 
#    0.000    2.500    0.000    0.000    0.000    0.000 
#    0.000    0.333    0.000    3.667    0.000    2.667 
#
# Total GULP energy -536133.177122 kJ/mol
# GULP energy per Si atom -5584.720595 kJ/mol
# Density = 1.937177 g / cm^3
# Si number density = 19.415958 Si / 1000 Ang^3
#
#
#
# Elastic Constant Matrix: (Units=GPa)
#
#
# Indices 1 2 3 4 5 6 
#
# 1 103.2488 66.0486 24.8847 0.0000 0.0000 0.0000
# 2 66.0486 103.2544 24.8813 0.0000 0.0000 0.0000
# 3 24.8847 24.8813 106.2005 0.0000 0.0000 0.0000
# 4 0.0000 0.0000 0.0000 28.8286 0.0000 0.0000
# 5 0.0000 0.0000 0.0000 0.0000 28.8284 0.0000
# 6 0.0000 0.0000 0.0000 0.0000 0.0000 -21.9526
#
#
#
# Elastic Compliance Matrix: (Units=1/GPa)
#
#
# Indices 1 2 3 4 5 6 
#
# 1 0.016612 -0.010268 -0.001487 0.000000 0.000000 0.000000
# 2 -0.010268 0.016611 -0.001486 0.000000 0.000000 0.000000
# 3 -0.001487 -0.001486 0.010113 0.000000 0.000000 0.000000
# 4 0.000000 0.000000 0.000000 0.034688 0.000000 0.000000
# 5 0.000000 0.000000 0.000000 0.000000 0.034688 0.000000
# 6 0.000000 0.000000 0.000000 0.000000 0.000000 -0.045553
#
#
# Mechanical properties :
#
#
# Convention : Reuss Voigt Hill
#
# Bulk Modulus (GPa) = 59.33121 60.48144 59.90633
# Shear Modulus (GPa) = 50.37357 20.26681 35.32019
#
# Velocity S-wave (km/s) = 5.09909 3.23433 4.26976
# Velocity P-wave (km/s) = 8.08034 6.72055 7.43161
#
# Compressibility (1/GPa) = 0.01685453
#
# Stress axis : x y z
#
# Youngs Moduli (GPa) = 60.19680 60.20120 98.88614
#
# Poissons Ratio (x) = 0.61815 0.14703
# Poissons Ratio (y) = 0.61810 0.14692
# Poissons Ratio (z) = 0.08951 0.08944
#
# Static dielectric constant tensor:
#      x y z
#    x 1.795160 0.000000 0.000000 
#    y 0.000000 1.795160 0.000000 
#    z 0.000000 0.000000 1.664200 
# 
# From -- ./inp_files/1367.got.cif
#   From: 2010.05.17/outbox.cif.g08.bks.cpg/sg124_1_cif.got.tgz:1367.got - 2010.05.20 11:49:17.
