data_PCOD9562242
_publ_section_title
;
Structure prediction by ZEFSAII (Michael W. Deem and Ramdas Pophale) SiO2 
 PCOD9562242
Probable space group: P 4/M M M
;
_chemical_formula_sum "Si O2"
_cell_formula_units_Z 88
_cell_length_a 25.800043
_cell_length_b 25.800043
_cell_length_c 8.028747
_cell_angle_alpha 90.000000
_cell_angle_beta 90.000000
_cell_angle_gamma 90.000000
_cell_volume 5344.272967
_symmetry_space_group_name_H-M "P 4/M M M"
_symmetry_group_IT_number 123
_symmetry_cell_setting 'tetragonal'
loop_
_space_group_symop_operation_xyz
x,y,z
-y,x,z
-x,-y,z
y,-x,z
x,-y,-z
-x,y,-z
y,x,-z
-y,-x,-z
-x,-y,-z
y,-x,-z
x,y,-z
-y,x,-z
-x,y,z
x,-y,z
-y,-x,z
y,x,z
loop_
_atom_site_type_symbol
_atom_site_label
_atom_site_fract_x
_atom_site_fract_y
_atom_site_fract_z
Si Si1 0.941359 0.720470 0.693952
Si Si2 0.000000 0.439528 0.687921
Si Si3 0.208060 0.440814 0.203468
Si Si4 0.611140 0.100802 0.807319
Si Si5 0.667028 0.249184 0.796947
Si Si6 0.751773 0.166276 0.800930
O O1 0.945809 0.731326 0.500000
O O2 0.917565 0.663218 0.718000
O O3 0.894228 0.754743 0.761755
O O4 0.000000 0.723163 0.766746
O O5 0.050844 0.424284 0.787564
O O6 0.000000 0.500000 0.667484
O O7 0.000000 0.415439 0.500000
O O8 0.217711 0.500000 0.260757
O O9 0.150985 0.420067 0.253494
O O10 0.245180 0.392981 0.255857
O O11 0.208898 0.442623 0.000000
O O12 0.625193 0.110889 0.000000
O O13 0.701071 0.298929 0.743894
O O14 0.699875 0.197813 0.744743
O O15 0.666762 0.249483 0.000000
O O16 0.800132 0.199869 0.737185
O O17 0.750723 0.170588 0.000000
#
# Coordination Sequence:
#
# PCOD9562242 Si02
#       6
#    16   8  16  16  16  16
#     4  11  22  33  46  66  95 125 154 189 230 274
#     4  11  23  35  43  55  81 115 151 195 242 279
#     4   9  16  25  39  61  84 105 140 189 232 270
#     4  11  20  31  46  61  80 113 156 196 231 266
#     4   8  13  23  40  61  84 108 137 179 231 277
#     4   9  17  31  51  71  89 114 152 193 232 276
#
# _framework density 16.466225000000001
#
# number of rings (size 3 to 8) (size 9 to 14) (size 15 to 20)
#    0.000    2.273    2.727    3.000    0.000    2.909 
#    0.000    0.000    0.000    0.000    0.000    0.000 
#    0.000    0.727    0.000    9.091    0.000    2.909 
#
# Total GULP energy -489978.552854 kJ/mol
# GULP energy per Si atom -5567.938101 kJ/mol
# Density = 1.642875 g / cm^3
# Si number density = 16.466225 Si / 1000 Ang^3
#
#
#
# Elastic Constant Matrix: (Units=GPa)
#
#
# Indices 1 2 3 4 5 6 
#
# 1 110.4406 70.4563 3.8361 0.0000 0.0000 0.0000
# 2 70.4563 110.4406 3.8361 0.0000 0.0000 0.0000
# 3 3.8361 3.8361 12.5571 0.0000 0.0000 0.0000
# 4 0.0000 0.0000 0.0000 -6.2082 0.0000 0.0000
# 5 0.0000 0.0000 0.0000 0.0000 -6.2082 0.0000
# 6 0.0000 0.0000 0.0000 0.0000 0.0000 22.0468
#
#
#
# Elastic Compliance Matrix: (Units=1/GPa)
#
#
# Indices 1 2 3 4 5 6 
#
# 1 0.015305 -0.009705 -0.001711 0.000000 0.000000 0.000000
# 2 -0.009705 0.015305 -0.001711 0.000000 0.000000 0.000000
# 3 -0.001711 -0.001711 0.080681 0.000000 0.000000 0.000000
# 4 0.000000 0.000000 0.000000 -0.161076 0.000000 0.000000
# 5 0.000000 0.000000 0.000000 0.000000 -0.161076 0.000000
# 6 0.000000 0.000000 0.000000 0.000000 0.000000 0.045358
#
#
# Mechanical properties :
#
#
# Convention : Reuss Voigt Hill
#
# Bulk Modulus (GPa) = 11.75931 43.29946 27.52939
# Shear Modulus (GPa) = -45.08416 12.28005 -16.40205
#
# Velocity S-wave (km/s) = -5.23825 2.73385 -3.15953
# Velocity P-wave (km/s) = 5.42482 6.02646 1.85601
#
# Compressibility (1/GPa) = 0.08503897
#
# Stress axis : x y z
#
# Youngs Moduli (GPa) = 65.33719 65.33719 12.39442
#
# Poissons Ratio (x) = 0.63407 0.02121
# Poissons Ratio (y) = 0.63407 0.02121
# Poissons Ratio (z) = 0.11179 0.11179
#
# Static dielectric constant tensor:
#      x y z
#    x 1.582000 0.000000 0.000000 
#    y 0.000000 1.582000 0.000000 
#    z 0.000000 0.000000 1.629210 
# 
# From -- ./inp_files/1820.got.cif
#   From: 2010.05.17/outbox.cif.g08.bks.cpg/sg123_1_cif.got.tgz:1820.got - 2010.05.20 11:43:04.
