data_PCOD9562069
_publ_section_title
;
Structure prediction by ZEFSAII (Michael W. Deem and Ramdas Pophale) SiO2 
 PCOD9562069
Probable space group: P 4/M M M
;
_chemical_formula_sum "Si O2"
_cell_formula_units_Z 80
_cell_length_a 23.138277
_cell_length_b 23.138277
_cell_length_c 8.152985
_cell_angle_alpha 90.000000
_cell_angle_beta 90.000000
_cell_angle_gamma 90.000000
_cell_volume 4364.943988
_symmetry_space_group_name_H-M "P 4/M M M"
_symmetry_group_IT_number 123
_symmetry_cell_setting 'tetragonal'
loop_
_space_group_symop_operation_xyz
x,y,z
-y,x,z
-x,-y,z
y,-x,z
x,-y,-z
-x,y,-z
y,x,-z
-y,-x,-z
-x,-y,-z
y,-x,-z
x,y,-z
-y,x,-z
-x,y,z
x,-y,z
-y,-x,z
y,x,z
loop_
_atom_site_type_symbol
_atom_site_label
_atom_site_fract_x
_atom_site_fract_y
_atom_site_fract_z
Si Si1 0.500000 0.799864 0.687957
Si Si2 0.683558 0.316443 0.186195
Si Si3 0.500000 0.674872 0.815817
Si Si4 0.197281 0.368510 0.695126
Si Si5 0.601964 0.398037 0.319406
Si Si6 0.841976 0.747150 0.804452
Si Si7 0.159177 0.933776 0.301418
O O1 0.500000 0.820199 0.500000
O O2 0.500000 0.730000 0.698332
O O3 0.434845 0.815342 0.753606
O O4 0.748391 0.339385 0.211277
O O5 0.650352 0.349648 0.327707
O O6 0.667407 0.332594 0.000000
O O7 0.552873 0.633442 0.780326
O O8 0.500000 0.697662 0.000000
O O9 0.209317 0.372928 0.500000
O O10 0.152353 0.316201 0.724008
O O11 0.582937 0.417064 0.500000
O O12 0.785633 0.785633 0.747492
O O13 0.896679 0.787187 0.764691
O O14 0.836297 0.740473 0.000000
O O15 0.162189 0.933191 0.500000
O O16 0.101568 0.898433 0.253646
O O17 0.159002 0.000000 0.246243
#
# Coordination Sequence:
#
# PCOD9562069 Si02
#       7
#     8   8   8  16   8  16  16
#     4  10  22  36  51  73 101 131 166 208 268 339
#     4  12  22  32  49  75 100 126 165 211 265 324
#     4  12  24  37  53  70  88 113 154 206 255 312
#     4  11  21  34  53  75 102 137 174 217 273 334
#     4  12  24  39  53  66  88 120 157 197 253 322
#     4  10  20  33  51  77 110 143 183 231 275 323
#     4   9  18  33  54  82 117 156 197 234 269 312
#
# _framework density 18.327840999999999
#
# number of rings (size 3 to 8) (size 9 to 14) (size 15 to 20)
#    0.000    1.400    3.000    3.900    0.000    2.400 
#    0.000    2.000    0.000    0.000    0.000    3.500 
#    0.000    5.600    0.000    0.000    0.000    0.000 
#
# Total GULP energy -445507.590595 kJ/mol
# GULP energy per Si atom -5568.844882 kJ/mol
# Density = 1.828613 g / cm^3
# Si number density = 18.327841 Si / 1000 Ang^3
#
#
#
# Elastic Constant Matrix: (Units=GPa)
#
#
# Indices 1 2 3 4 5 6 
#
# 1 122.6260 46.1996 11.5210 0.0000 0.0000 0.0000
# 2 46.1996 122.6260 11.5210 0.0000 0.0000 0.0000
# 3 11.5210 11.5210 55.1733 0.0000 0.0000 0.0000
# 4 0.0000 0.0000 0.0000 15.2546 0.0000 0.0000
# 5 0.0000 0.0000 0.0000 0.0000 15.2547 0.0000
# 6 0.0000 0.0000 0.0000 0.0000 0.0000 16.0831
#
#
#
# Elastic Compliance Matrix: (Units=1/GPa)
#
#
# Indices 1 2 3 4 5 6 
#
# 1 0.009591 -0.003494 -0.001273 0.000000 0.000000 0.000000
# 2 -0.003494 0.009591 -0.001273 0.000000 0.000000 0.000000
# 3 -0.001273 -0.001273 0.018656 0.000000 0.000000 0.000000
# 4 0.000000 0.000000 0.000000 0.065554 0.000000 0.000000
# 5 0.000000 0.000000 0.000000 0.000000 0.065553 0.000000
# 6 0.000000 0.000000 0.000000 0.000000 0.000000 0.062177
#
#
# Mechanical properties :
#
#
# Convention : Reuss Voigt Hill
#
# Bulk Modulus (GPa) = 38.82305 48.76760 43.79533
# Shear Modulus (GPa) = 19.85793 24.73073 22.29433
#
# Velocity S-wave (km/s) = 3.29520 3.67734 3.49150
# Velocity P-wave (km/s) = 5.97548 6.68556 6.34047
#
# Compressibility (1/GPa) = 0.02575789
#
# Stress axis : x y z
#
# Youngs Moduli (GPa) = 104.26708 104.26709 53.60084
#
# Poissons Ratio (x) = 0.36428 0.06824
# Poissons Ratio (y) = 0.36428 0.06824
# Poissons Ratio (z) = 0.13275 0.13275
#
# Static dielectric constant tensor:
#      x y z
#    x 1.603700 0.000000 0.000000 
#    y 0.000000 1.603700 0.000000 
#    z 0.000000 0.000000 1.635180 
# 
# From -- ./inp_files/1527.got.cif
#   From: 2010.05.17/outbox.cif.g08.bks.cpg/sg123_1_cif.got.tgz:1527.got - 2010.05.20 11:43:04.
