data_PCOD9562493
_publ_section_title
;
Structure prediction by ZEFSAII (Michael W. Deem and Ramdas Pophale) SiO2 
 PCOD9562493
Probable space group: P 4/M C C
;
_chemical_formula_sum "Si O2"
_cell_formula_units_Z 96
_cell_length_a 26.087565
_cell_length_b 26.087565
_cell_length_c 8.802559
_cell_angle_alpha 90.000000
_cell_angle_beta 90.000000
_cell_angle_gamma 90.000000
_cell_volume 5990.678775
_symmetry_space_group_name_H-M "P 4/M C C"
_symmetry_group_IT_number 124
_symmetry_cell_setting 'tetragonal'
loop_
_space_group_symop_operation_xyz
x,y,z
-y,x,z
-x,-y,z
y,-x,z
x,-y,1/2-z
-x,y,1/2-z
y,x,1/2-z
-y,-x,1/2-z
-x,-y,-z
y,-x,-z
x,y,-z
-y,x,-z
-x,y,1/2+z
x,-y,1/2+z
-y,-x,1/2+z
y,x,1/2+z
loop_
_atom_site_type_symbol
_atom_site_label
_atom_site_fract_x
_atom_site_fract_y
_atom_site_fract_z
Si Si1 0.138813 0.551001 0.681224
Si Si2 0.859668 0.664803 0.183127
Si Si3 0.665729 0.745469 0.181768
Si Si4 0.253661 0.448660 0.681666
Si Si5 0.864693 0.944400 0.317751
Si Si6 0.745772 0.055254 0.182802
O O1 0.113340 0.500000 0.750000
O O2 0.141586 0.545425 0.500000
O O3 0.118390 0.607794 0.717383
O O4 0.196211 0.552439 0.749906
O O5 0.803427 0.670634 0.255398
O O6 0.899372 0.708244 0.233364
O O7 0.853619 0.667762 0.000000
O O8 0.708517 0.708517 0.250000
O O9 0.607973 0.725579 0.219253
O O10 0.670105 0.747064 0.000000
O O11 0.278825 0.500000 0.750000
O O12 0.250954 0.453626 0.500000
O O13 0.901501 0.901501 0.250000
O O14 0.868877 0.945674 0.500000
O O15 0.805119 0.934318 0.276786
O O16 0.878159 0.000000 0.250000
O O17 0.731596 0.000000 0.250000
O O18 0.742812 0.052209 0.000000
#
# Coordination Sequence:
#
# PCOD9562493 Si02
#       6
#    16  16  16  16  16  16
#     4   9  15  24  41  63  88 116 148 188 231 273
#     4   9  18  32  48  67  92 123 156 191 233 277
#     4  10  20  31  44  66  96 127 157 190 230 276
#     4   9  16  26  41  61  85 116 154 190 226 270
#     4  10  20  35  54  75  98 121 147 181 221 266
#     4   9  19  35  53  72  94 121 155 192 228 269
#
# _framework density 16.024895000000001
#
# number of rings (size 3 to 8) (size 9 to 14) (size 15 to 20)
#    0.000    2.667    0.000    3.000    0.000    4.833 
#    0.000    2.500    0.000    0.500    0.000    3.500 
#    0.000    0.333    0.000    3.667    0.000    2.667 
#
# Total GULP energy -534599.005086 kJ/mol
# GULP energy per Si atom -5568.739636 kJ/mol
# Density = 1.598842 g / cm^3
# Si number density = 16.024895 Si / 1000 Ang^3
#
#
#
# Elastic Constant Matrix: (Units=GPa)
#
#
# Indices 1 2 3 4 5 6 
#
# 1 105.2338 82.4479 38.9337 0.0000 0.0000 0.0000
# 2 82.4479 105.2338 38.9337 0.0000 0.0000 0.0000
# 3 38.9337 38.9337 45.7831 0.0000 0.0000 0.0000
# 4 0.0000 0.0000 0.0000 26.2909 0.0000 0.0000
# 5 0.0000 0.0000 0.0000 0.0000 26.2909 0.0000
# 6 0.0000 0.0000 0.0000 0.0000 0.0000 -2.8363
#
#
#
# Elastic Compliance Matrix: (Units=1/GPa)
#
#
# Indices 1 2 3 4 5 6 
#
# 1 0.026060 -0.017827 -0.007001 0.000000 0.000000 0.000000
# 2 -0.017827 0.026060 -0.007001 0.000000 0.000000 0.000000
# 3 -0.007001 -0.007001 0.033750 0.000000 0.000000 0.000000
# 4 0.000000 0.000000 0.000000 0.038036 0.000000 0.000000
# 5 0.000000 0.000000 0.000000 0.000000 0.038036 0.000000
# 6 0.000000 0.000000 0.000000 0.000000 0.000000 -0.352574
#
#
# Mechanical properties :
#
#
# Convention : Reuss Voigt Hill
#
# Bulk Modulus (GPa) = 45.02341 64.09794 54.56067
# Shear Modulus (GPa) = -41.81640 16.34480 -12.73580
#
# Velocity S-wave (km/s) = -5.11383 3.19715 -2.82219
# Velocity P-wave (km/s) = 2.59065 7.32904 4.84785
#
# Compressibility (1/GPa) = 0.02221067
#
# Stress axis : x y z
#
# Youngs Moduli (GPa) = 38.37323 38.37323 29.62982
#
# Poissons Ratio (x) = 0.68408 0.20745
# Poissons Ratio (y) = 0.68408 0.20745
# Poissons Ratio (z) = 0.26866 0.26866
#
# Static dielectric constant tensor:
#      x y z
#    x 1.544100 0.000000 0.000000 
#    y 0.000000 1.544100 0.000000 
#    z 0.000000 0.000000 1.537060 
# 
# From -- ./inp_files/1510.got.cif
#   From: 2010.05.17/outbox.cif.g08.bks.cpg/sg124_1_cif.got.tgz:1510.got - 2010.05.20 11:49:17.
