data_PCOD9562236
_publ_section_title
;
Structure prediction by ZEFSAII (Michael W. Deem and Ramdas Pophale) SiO2 
 PCOD9562236
Probable space group: P 4/M M M
;
_chemical_formula_sum "Si O2"
_cell_formula_units_Z 96
_cell_length_a 24.267453
_cell_length_b 24.267453
_cell_length_c 8.881380
_cell_angle_alpha 90.000000
_cell_angle_beta 90.000000
_cell_angle_gamma 90.000000
_cell_volume 5230.327058
_symmetry_space_group_name_H-M "P 4/M M M"
_symmetry_group_IT_number 123
_symmetry_cell_setting 'tetragonal'
loop_
_space_group_symop_operation_xyz
x,y,z
-y,x,z
-x,-y,z
y,-x,z
x,-y,-z
-x,y,-z
y,x,-z
-y,-x,-z
-x,-y,-z
y,-x,-z
x,y,-z
-y,x,-z
-x,y,z
x,-y,z
-y,-x,z
y,x,z
loop_
_atom_site_type_symbol
_atom_site_label
_atom_site_fract_x
_atom_site_fract_y
_atom_site_fract_z
Si Si1 0.713326 0.938508 0.324903
Si Si2 0.178863 0.734948 0.178430
Si Si3 0.636379 0.752195 0.325689
Si Si4 0.580442 0.937657 0.671367
Si Si5 0.169215 0.561559 0.166416
Si Si6 0.564717 0.653445 0.181040
O O1 0.730295 0.934817 0.500000
O O2 0.730926 0.883036 0.240733
O O3 0.646809 0.937358 0.323028
O O4 0.729904 0.000000 0.268160
O O5 0.205732 0.794269 0.208522
O O6 0.221515 0.690625 0.249949
O O7 0.177969 0.725336 0.000000
O O8 0.646443 0.740700 0.500000
O O9 0.593930 0.801881 0.299138
O O10 0.605110 0.700304 0.249992
O O11 0.564426 0.922316 0.500000
O O12 0.560561 0.894778 0.794107
O O13 0.562508 0.000000 0.698289
O O14 0.191698 0.500000 0.163193
O O15 0.178828 0.586257 0.000000
O O16 0.500000 0.656337 0.229697
O O17 0.594914 0.594914 0.213593
O O18 0.564978 0.660872 0.000000
#
# Coordination Sequence:
#
# PCOD9562236 Si02
#       6
#    16  16  16  16  16  16
#     4   9  18  34  56  82 112 147 187 229 274 325
#     4  11  23  37  56  85 118 150 187 230 275 325
#     4  12  24  38  57  81 109 144 184 224 271 328
#     4   9  18  33  52  74 101 135 177 224 273 322
#     4  11  23  36  51  73 102 137 180 229 277 325
#     4  10  22  41  64  88 113 140 172 215 270 334
#
# _framework density 18.354492
#
# number of rings (size 3 to 8) (size 9 to 14) (size 15 to 20)
#    0.000    1.667    1.667    4.500    0.000    8.500 
#    0.000    4.167    0.000    0.000    0.000    1.167 
#    0.000    0.333    0.000    3.667    0.000    2.667 
#
# Total GULP energy -535450.044714 kJ/mol
# GULP energy per Si atom -5577.604632 kJ/mol
# Density = 1.831272 g / cm^3
# Si number density = 18.354492 Si / 1000 Ang^3
#
#
#
# Elastic Constant Matrix: (Units=GPa)
#
#
# Indices 1 2 3 4 5 6 
#
# 1 100.3932 69.4865 42.1419 0.0000 0.0000 0.0000
# 2 69.4865 100.3932 42.1419 0.0000 0.0000 0.0000
# 3 42.1419 42.1419 65.1877 0.0000 0.0000 0.0000
# 4 0.0000 0.0000 0.0000 29.6446 0.0000 0.0000
# 5 0.0000 0.0000 0.0000 0.0000 29.6446 0.0000
# 6 0.0000 0.0000 0.0000 0.0000 0.0000 -562.9605
#
#
#
# Elastic Compliance Matrix: (Units=1/GPa)
#
#
# Indices 1 2 3 4 5 6 
#
# 1 0.020511 -0.011845 -0.005602 0.000000 0.000000 0.000000
# 2 -0.011845 0.020511 -0.005602 0.000000 0.000000 0.000000
# 3 -0.005602 -0.005602 0.022584 0.000000 0.000000 0.000000
# 4 0.000000 0.000000 0.000000 0.033733 0.000000 0.000000
# 5 0.000000 0.000000 0.000000 0.000000 0.033733 0.000000
# 6 0.000000 0.000000 0.000000 0.000000 0.000000 -0.001776
#
#
# Mechanical properties :
#
#
# Convention : Reuss Voigt Hill
#
# Bulk Modulus (GPa) = 57.12152 63.72387 60.42270
# Shear Modulus (GPa) = 27.58937 -93.25402 -32.83233
#
# Velocity S-wave (km/s) = 3.88124 -7.13565 -4.23400
# Velocity P-wave (km/s) = 7.16060 5.75293 3.01480
#
# Compressibility (1/GPa) = 0.01750654
#
# Stress axis : x y z
#
# Youngs Moduli (GPa) = 48.75491 48.75491 44.27956
#
# Poissons Ratio (x) = 0.57749 0.24807
# Poissons Ratio (y) = 0.57749 0.24807
# Poissons Ratio (z) = 0.27314 0.27314
#
# Static dielectric constant tensor:
#      x y z
#    x 1.657790 0.000000 0.000000 
#    y 0.000000 1.657790 0.000000 
#    z 0.000000 0.000000 1.635340 
# 
# From -- ./inp_files/1563.got.cif
#   From: 2010.05.17/outbox.cif.g08.bks.cpg/sg123_1_cif.got.tgz:1563.got - 2010.05.20 11:43:04.
