data_PCOD9562008
_publ_section_title
;
Structure prediction by ZEFSAII (Michael W. Deem and Ramdas Pophale) SiO2 
 PCOD9562008
Probable space group: P 4/M M M
;
_chemical_formula_sum "Si O2"
_cell_formula_units_Z 88
_cell_length_a 14.248492
_cell_length_b 14.248492
_cell_length_c 28.484722
_cell_angle_alpha 90.000000
_cell_angle_beta 90.000000
_cell_angle_gamma 90.000000
_cell_volume 5782.954710
_symmetry_space_group_name_H-M "P 4/M M M"
_symmetry_group_IT_number 123
_symmetry_cell_setting 'tetragonal'
loop_
_space_group_symop_operation_xyz
x,y,z
-y,x,z
-x,-y,z
y,-x,z
x,-y,-z
-x,y,-z
y,x,-z
-y,-x,-z
-x,-y,-z
y,-x,-z
x,y,-z
-y,x,-z
-x,y,z
x,-y,z
-y,-x,z
y,x,z
loop_
_atom_site_type_symbol
_atom_site_label
_atom_site_fract_x
_atom_site_fract_y
_atom_site_fract_z
Si Si1 0.894432 0.385896 0.000000
Si Si2 0.888594 0.391642 0.356989
Si Si3 0.762694 0.609729 0.084793
Si Si4 0.610211 0.234524 0.552593
Si Si5 0.766814 0.611162 0.805652
Si Si6 0.887509 0.268306 0.734638
O O1 0.839208 0.358496 0.953043
O O2 0.897923 0.500000 0.000000
O O3 0.000000 0.350211 0.000000
O O4 0.864416 0.500000 0.343965
O O5 0.835385 0.367833 0.404972
O O6 0.867592 0.320728 0.314778
O O7 0.000000 0.388961 0.365095
O O8 0.744212 0.500000 0.076905
O O9 0.669750 0.669750 0.077594
O O10 0.791887 0.620509 0.139146
O O11 0.626689 0.194793 0.500000
O O12 0.500000 0.257546 0.555656
O O13 0.673826 0.326175 0.557201
O O14 0.757680 0.500000 0.795162
O O15 0.669882 0.669882 0.798476
O O16 0.844847 0.662394 0.774167
O O17 0.828181 0.171820 0.736856
O O18 0.000000 0.256295 0.739344
#
# Coordination Sequence:
#
# PCOD9562008 Si02
#       6
#     8  16  16  16  16  16
#     4   9  17  28  41  59  85 117 151 185 219 252
#     4   9  17  29  46  67  88 111 141 178 222 270
#     4   9  17  29  45  66  92 119 147 180 218 264
#     4   9  17  28  42  61  86 116 147 178 212 251
#     4   9  18  31  47  69  95 122 152 185 223 270
#     4  10  20  33  49  68  90 117 150 189 231 273
#
# _framework density 15.217134
#
# number of rings (size 3 to 8) (size 9 to 14) (size 15 to 20)
#    0.000    2.818    0.000    1.364    0.000    2.909 
#    0.000    6.364    0.000    1.636    0.000    2.545 
#    0.000    2.909    0.000   16.909    0.000    0.909 
#
# Total GULP energy -489949.598117 kJ/mol
# GULP energy per Si atom -5567.609070 kJ/mol
# Density = 1.518250 g / cm^3
# Si number density = 15.217134 Si / 1000 Ang^3
#
#
#
# Elastic Constant Matrix: (Units=GPa)
#
#
# Indices 1 2 3 4 5 6 
#
# 1 85.4071 54.7394 67.5447 0.0000 0.0000 0.0000
# 2 54.7394 85.4071 67.5447 0.0000 0.0000 0.0000
# 3 67.5447 67.5447 104.9876 0.0000 0.0000 0.0000
# 4 0.0000 0.0000 0.0000 23.8903 0.0000 0.0000
# 5 0.0000 0.0000 0.0000 0.0000 23.8903 0.0000
# 6 0.0000 0.0000 0.0000 0.0000 0.0000 14.2868
#
#
#
# Elastic Compliance Matrix: (Units=1/GPa)
#
#
# Indices 1 2 3 4 5 6 
#
# 1 0.025696 -0.006912 -0.012085 0.000000 0.000000 0.000000
# 2 -0.006912 0.025696 -0.012085 0.000000 0.000000 0.000000
# 3 -0.012085 -0.012085 0.025075 0.000000 0.000000 0.000000
# 4 0.000000 0.000000 0.000000 0.041858 0.000000 0.000000
# 5 0.000000 0.000000 0.000000 0.000000 0.041858 0.000000
# 6 0.000000 0.000000 0.000000 0.000000 0.000000 0.069995
#
#
# Mechanical properties :
#
#
# Convention : Reuss Voigt Hill
#
# Bulk Modulus (GPa) = 69.91328 72.82880 71.37104
# Shear Modulus (GPa) = 16.82880 18.14498 17.48689
#
# Velocity S-wave (km/s) = 3.32913 3.45687 3.39360
# Velocity P-wave (km/s) = 7.79878 7.99355 7.89677
#
# Compressibility (1/GPa) = 0.01430343
#
# Stress axis : x y z
#
# Youngs Moduli (GPa) = 38.91651 38.91651 39.88022
#
# Poissons Ratio (x) = 0.26898 0.48196
# Poissons Ratio (y) = 0.26898 0.48196
# Poissons Ratio (z) = 0.47031 0.47031
#
# Static dielectric constant tensor:
#      x y z
#    x 1.486250 0.000000 0.000000 
#    y 0.000000 1.486250 0.000000 
#    z 0.000000 0.000000 1.518890 
# 
# From -- ./inp_files/7193.got.cif
#   From: 2010.05.17/outbox.cif.g08.bks.cpg/sg123_4_cif.got.tgz:7193.got - 2010.05.20 11:43:04.
