data_PCOD9562758
_publ_section_title
;
Structure prediction by ZEFSAII (Michael W. Deem and Ramdas Pophale) SiO2 
 PCOD9562758
Probable space group: P 4/M C C
;
_chemical_formula_sum "Si O2"
_cell_formula_units_Z 80
_cell_length_a 23.293020
_cell_length_b 23.293020
_cell_length_c 9.663697
_cell_angle_alpha 90.000000
_cell_angle_beta 90.000000
_cell_angle_gamma 90.000000
_cell_volume 5243.181644
_symmetry_space_group_name_H-M "P 4/M C C"
_symmetry_group_IT_number 124
_symmetry_cell_setting 'tetragonal'
loop_
_space_group_symop_operation_xyz
x,y,z
-y,x,z
-x,-y,z
y,-x,z
x,-y,1/2-z
-x,y,1/2-z
y,x,1/2-z
-y,-x,1/2-z
-x,-y,-z
y,-x,-z
x,y,-z
-y,x,-z
-x,y,1/2+z
x,-y,1/2+z
-y,-x,1/2+z
y,x,1/2+z
loop_
_atom_site_type_symbol
_atom_site_label
_atom_site_fract_x
_atom_site_fract_y
_atom_site_fract_z
Si Si1 0.721065 0.200771 0.341348
Si Si2 0.222547 0.549036 0.656800
Si Si3 0.373872 0.876906 0.762615
Si Si4 0.377750 0.699963 0.660216
Si Si5 0.947670 0.420700 0.500000
Si Si6 0.446542 0.082914 0.000000
O O1 0.771982 0.228019 0.250000
O O2 0.739085 0.192046 0.500000
O O3 0.689198 0.143747 0.284053
O O4 0.670724 0.249604 0.343635
O O5 0.194641 0.500000 0.750000
O O6 0.236251 0.531898 0.500000
O O7 0.177645 0.600814 0.655185
O O8 0.275332 0.569929 0.750627
O O9 0.414486 0.888993 0.630713
O O10 0.384251 0.929397 0.866102
O O11 0.350852 0.649149 0.750000
O O12 0.390877 0.686291 0.500000
O O13 0.914854 0.483448 0.500000
O O14 0.014966 0.433502 0.500000
#
# Coordination Sequence:
#
# PCOD9562758 Si02
#       6
#    16  16  16  16   8   8
#     4   9  18  30  47  66  86 107 136 178 229 290
#     4  11  21  30  44  63  84 109 141 176 218 267
#     4  11  21  33  48  66  88 115 149 193 243 281
#     4   9  17  29  44  61  84 108 132 162 206 262
#     4  11  22  34  49  66  84 128 163 206 238 285
#     4  11  22  36  47  62  92 120 169 204 244 273
#
# _framework density 15.257911
#
# number of rings (size 3 to 8) (size 9 to 14) (size 15 to 20)
#    0.000    1.800    2.000    3.600    4.200    4.000 
#    0.000    0.000    0.000    0.000    0.000    0.000 
#    0.000    0.400    0.000    4.000    0.000    2.600 
#
# Total GULP energy -445634.347727 kJ/mol
# GULP energy per Si atom -5570.429347 kJ/mol
# Density = 1.522318 g / cm^3
# Si number density = 15.257911 Si / 1000 Ang^3
#
#
#
# Elastic Constant Matrix: (Units=GPa)
#
#
# Indices 1 2 3 4 5 6 
#
# 1 38.2442 27.8790 31.0751 0.0000 0.0000 0.0000
# 2 27.8790 38.2443 31.0754 0.0000 0.0000 0.0000
# 3 31.0751 31.0754 148.5112 0.0000 0.0000 0.0000
# 4 0.0000 0.0000 0.0000 35.2210 0.0000 0.0000
# 5 0.0000 0.0000 0.0000 0.0000 35.2249 0.0000
# 6 0.0000 0.0000 0.0000 0.0000 0.0000 26.2726
#
#
#
# Elastic Compliance Matrix: (Units=1/GPa)
#
#
# Indices 1 2 3 4 5 6 
#
# 1 0.057651 -0.038825 -0.003939 0.000000 0.000000 0.000000
# 2 -0.038825 0.057651 -0.003939 0.000000 0.000000 0.000000
# 3 -0.003939 -0.003939 0.008382 0.000000 0.000000 0.000000
# 4 0.000000 0.000000 0.000000 0.028392 0.000000 0.000000
# 5 0.000000 0.000000 0.000000 0.000000 0.028389 0.000000
# 6 0.000000 0.000000 0.000000 0.000000 0.000000 0.038062
#
#
# Mechanical properties :
#
#
# Convention : Reuss Voigt Hill
#
# Bulk Modulus (GPa) = 33.02859 45.00653 39.01756
# Shear Modulus (GPa) = 15.52661 28.34173 21.93417
#
# Velocity S-wave (km/s) = 3.19346 4.31456 3.79563
# Velocity P-wave (km/s) = 5.94066 7.37440 6.69601
#
# Compressibility (1/GPa) = 0.03027680
#
# Stress axis : x y z
#
# Youngs Moduli (GPa) = 17.34570 17.34568 119.30296
#
# Poissons Ratio (x) = 0.67345 0.46995
# Poissons Ratio (y) = 0.67345 0.46997
# Poissons Ratio (z) = 0.06833 0.06833
#
# Static dielectric constant tensor:
#      x y z
#    x 1.535470 0.000000 0.000000 
#    y 0.000000 1.535470 0.000000 
#    z 0.000000 0.000000 1.542940 
# 
# From -- ./inp_files/1219.got.cif
#   From: 2010.05.17/outbox.cif.g08.bks.cpg/sg124_1_cif.got.tgz:1219.got - 2010.05.20 11:49:17.
