data_PCOD9562027
_publ_section_title
;
Structure prediction by ZEFSAII (Michael W. Deem and Ramdas Pophale) SiO2 
 PCOD9562027
Probable space group: P 4/M M M
;
_chemical_formula_sum "Si O2"
_cell_formula_units_Z 104
_cell_length_a 26.121820
_cell_length_b 26.121820
_cell_length_c 9.161293
_cell_angle_alpha 90.000000
_cell_angle_beta 90.000000
_cell_angle_gamma 90.000000
_cell_volume 6251.203516
_symmetry_space_group_name_H-M "P 4/M M M"
_symmetry_group_IT_number 123
_symmetry_cell_setting 'tetragonal'
loop_
_space_group_symop_operation_xyz
x,y,z
-y,x,z
-x,-y,z
y,-x,z
x,-y,-z
-x,y,-z
y,x,-z
-y,-x,-z
-x,-y,-z
y,-x,-z
x,y,-z
-y,x,-z
-x,y,z
x,-y,z
-y,-x,z
y,x,z
loop_
_atom_site_type_symbol
_atom_site_label
_atom_site_fract_x
_atom_site_fract_y
_atom_site_fract_z
Si Si1 0.217442 0.128914 0.333558
Si Si2 0.437621 0.894643 0.669746
Si Si3 0.198889 0.714557 0.163174
Si Si4 0.000000 0.562438 0.170224
Si Si5 0.856865 0.940988 0.171751
Si Si6 0.358417 0.724863 0.674045
Si Si7 0.560931 0.788286 0.826892
O O1 0.233492 0.122135 0.500000
O O2 0.174093 0.174093 0.331584
O O3 0.263763 0.147562 0.233140
O O4 0.189431 0.080061 0.267498
O O5 0.421650 0.893634 0.500000
O O6 0.500000 0.895179 0.671804
O O7 0.422320 0.842158 0.752056
O O8 0.421232 0.947375 0.749258
O O9 0.237052 0.762949 0.149719
O O10 0.228584 0.677555 0.272458
O O11 0.192480 0.693116 0.000000
O O12 0.000000 0.500000 0.173394
O O13 0.000000 0.577671 0.000000
O O14 0.906131 0.906131 0.203216
O O15 0.867496 0.000000 0.198354
O O16 0.844549 0.933910 0.000000
O O17 0.364647 0.725206 0.500000
O O18 0.327154 0.672847 0.714076
O O19 0.410630 0.739734 0.755126
O O20 0.500000 0.784100 0.804638
O O21 0.570594 0.790231 0.000000
#
# Coordination Sequence:
#
# PCOD9562027 Si02
#       7
#    16  16  16   8  16  16  16
#     4   9  16  26  41  61  84 108 137 176 221 271
#     4   9  16  26  41  62  89 122 161 204 248 291
#     4   9  16  27  45  68  92 116 143 179 224 271
#     4   9  15  23  37  59  87 117 153 199 245 287
#     4   9  17  28  41  58  81 110 146 188 234 285
#     4  10  20  33  50  74 103 133 166 204 246 293
#     4  10  20  33  49  71 101 137 175 213 254 299
#
# _framework density 16.636797000000001
#
# number of rings (size 3 to 8) (size 9 to 14) (size 15 to 20)
#    0.000    2.692    0.000    2.538    0.000    8.769 
#    0.000    0.769    0.000    0.000    2.000    2.154 
#    0.000    0.308    0.000    3.385    0.000    2.462 
#
# Total GULP energy -579299.781050 kJ/mol
# GULP energy per Si atom -5570.190202 kJ/mol
# Density = 1.659893 g / cm^3
# Si number density = 16.636797 Si / 1000 Ang^3
#
#
#
# Elastic Constant Matrix: (Units=GPa)
#
#
# Indices 1 2 3 4 5 6 
#
# 1 54.2110 33.1812 42.2116 0.0000 0.0000 0.0000
# 2 33.1812 54.2110 42.2116 0.0000 0.0000 0.0000
# 3 42.2116 42.2116 95.0833 0.0000 0.0000 0.0000
# 4 0.0000 0.0000 0.0000 20.3539 0.0000 0.0000
# 5 0.0000 0.0000 0.0000 0.0000 20.3539 0.0000
# 6 0.0000 0.0000 0.0000 0.0000 0.0000 18.1134
#
#
#
# Elastic Compliance Matrix: (Units=1/GPa)
#
#
# Indices 1 2 3 4 5 6 
#
# 1 0.033793 -0.013758 -0.008894 0.000000 0.000000 0.000000
# 2 -0.013758 0.033793 -0.008894 0.000000 0.000000 0.000000
# 3 -0.008894 -0.008894 0.018414 0.000000 0.000000 0.000000
# 4 0.000000 0.000000 0.000000 0.049131 0.000000 0.000000
# 5 0.000000 0.000000 0.000000 0.000000 0.049131 0.000000
# 6 0.000000 0.000000 0.000000 0.000000 0.000000 0.055208
#
#
# Mechanical properties :
#
#
# Convention : Reuss Voigt Hill
#
# Bulk Modulus (GPa) = 43.65553 48.74598 46.20075
# Shear Modulus (GPa) = 16.11868 17.49097 16.80482
#
# Velocity S-wave (km/s) = 3.11602 3.24596 3.18165
# Velocity P-wave (km/s) = 6.26446 6.58878 6.42867
#
# Compressibility (1/GPa) = 0.02290660
#
# Stress axis : x y z
#
# Youngs Moduli (GPa) = 29.59178 29.59178 54.30581
#
# Poissons Ratio (x) = 0.40713 0.48301
# Poissons Ratio (y) = 0.40713 0.48301
# Poissons Ratio (z) = 0.26320 0.26320
#
# Static dielectric constant tensor:
#      x y z
#    x 1.567040 0.000000 0.000000 
#    y 0.000000 1.567040 0.000000 
#    z 0.000000 0.000000 1.572780 
# 
# From -- ./inp_files/1933.got.cif
#   From: 2010.05.17/outbox.cif.g08.bks.cpg/sg123_1_cif.got.tgz:1933.got - 2010.05.20 11:43:04.
