data_PCOD9562148
_publ_section_title
;
Structure prediction by ZEFSAII (Michael W. Deem and Ramdas Pophale) SiO2 
 PCOD9562148
Probable space group: P 4/M M M
;
_chemical_formula_sum "Si O2"
_cell_formula_units_Z 48
_cell_length_a 18.451979
_cell_length_b 18.451979
_cell_length_c 7.431901
_cell_angle_alpha 90.000000
_cell_angle_beta 90.000000
_cell_angle_gamma 90.000000
_cell_volume 2530.380425
_symmetry_space_group_name_H-M "P 4/M M M"
_symmetry_group_IT_number 123
_symmetry_cell_setting 'tetragonal'
loop_
_space_group_symop_operation_xyz
x,y,z
-y,x,z
-x,-y,z
y,-x,z
x,-y,-z
-x,y,-z
y,x,-z
-y,-x,-z
-x,-y,-z
y,-x,-z
x,y,-z
-y,x,-z
-x,y,z
x,-y,z
-y,-x,z
y,x,z
loop_
_atom_site_type_symbol
_atom_site_label
_atom_site_fract_x
_atom_site_fract_y
_atom_site_fract_z
Si Si1 0.298573 0.701428 0.788126
Si Si2 0.134092 0.685950 0.217752
Si Si3 0.418480 0.581521 0.284033
Si Si4 0.084818 0.198762 0.500000
Si Si5 0.417088 0.000000 0.781813
O O1 0.324188 0.781508 0.725731
O O2 0.359027 0.640974 0.759689
O O3 0.289629 0.710372 0.000000
O O4 0.110510 0.757262 0.324182
O O5 0.073844 0.625474 0.269623
O O6 0.130683 0.692999 0.000000
O O7 0.400378 0.500000 0.220151
O O8 0.421594 0.578407 0.500000
O O9 0.121597 0.121597 0.500000
O O10 0.000000 0.195704 0.500000
O O11 0.500000 0.000000 0.718644
O O12 0.418442 0.000000 0.000000
#
# Coordination Sequence:
#
# PCOD9562148 Si02
#       5
#     8  16   8   8   8
#     4  10  21  35  59  88 112 149 200 250 297 352
#     4  10  21  38  59  87 121 157 195 240 300 361
#     4   9  20  38  56  78 116 162 201 247 308 358
#     4  12  24  39  64  90 116 154 198 242 292 354
#     4   9  18  35  59  85 120 160 194 238 296 359
#
# _framework density 18.969480000000001
#
# number of rings (size 3 to 8) (size 9 to 14) (size 15 to 20)
#    0.000    2.000    3.333    0.500    2.333    2.167 
#    0.000    5.833    0.000    0.000    0.000    2.333 
#    0.000    0.000    0.000    0.000    0.000    0.000 
#
# Total GULP energy -267588.375166 kJ/mol
# GULP energy per Si atom -5574.757816 kJ/mol
# Density = 1.892630 g / cm^3
# Si number density = 18.969480 Si / 1000 Ang^3
#
#
#
# Elastic Constant Matrix: (Units=GPa)
#
#
# Indices 1 2 3 4 5 6 
#
# 1 164.1106 102.1611 11.0894 0.0000 0.0000 0.0000
# 2 102.1611 164.1099 11.0887 0.0000 0.0000 0.0000
# 3 11.0894 11.0887 55.4637 0.0000 0.0000 0.0000
# 4 0.0000 0.0000 0.0000 13.5730 0.0000 0.0000
# 5 0.0000 0.0000 0.0000 0.0000 13.5732 0.0000
# 6 0.0000 0.0000 0.0000 0.0000 0.0000 40.3284
#
#
#
# Elastic Compliance Matrix: (Units=1/GPa)
#
#
# Indices 1 2 3 4 5 6 
#
# 1 0.009981 -0.006162 -0.000764 0.000000 0.000000 0.000000
# 2 -0.006162 0.009981 -0.000763 0.000000 0.000000 0.000000
# 3 -0.000764 -0.000763 0.018335 0.000000 0.000000 0.000000
# 4 0.000000 0.000000 0.000000 0.073676 0.000000 0.000000
# 5 0.000000 0.000000 0.000000 0.000000 0.073675 0.000000
# 6 0.000000 0.000000 0.000000 0.000000 0.000000 0.024796
#
#
# Mechanical properties :
#
#
# Convention : Reuss Voigt Hill
#
# Bulk Modulus (GPa) = 43.63161 70.26250 56.94706
# Shear Modulus (GPa) = 21.41687 30.78458 26.10073
#
# Velocity S-wave (km/s) = 3.36373 4.03283 3.71338
# Velocity P-wave (km/s) = 6.17553 7.66845 6.96212
#
# Compressibility (1/GPa) = 0.02291916
#
# Stress axis : x y z
#
# Youngs Moduli (GPa) = 100.19336 100.19310 54.54007
#
# Poissons Ratio (x) = 0.61734 0.04165
# Poissons Ratio (y) = 0.61735 0.04164
# Poissons Ratio (z) = 0.07652 0.07650
#
# Static dielectric constant tensor:
#      x y z
#    x 1.655210 0.000000 0.000000 
#    y 0.000000 1.655210 0.000000 
#    z 0.000000 0.000000 1.698950 
# 
# From -- ./inp_files/499.got.cif
#   From: 2010.05.17/outbox.cif.g08.bks.cpg/sg123_1_cif.got.tgz:499.got - 2010.05.20 11:43:04.
