data_PCOD9562905
_publ_section_title
;
Structure prediction by ZEFSAII (Michael W. Deem and Ramdas Pophale) SiO2 
 PCOD9562905
Probable space group: P 4/N B M
;
_chemical_formula_sum "Si O2"
_cell_formula_units_Z 56
_cell_length_a 13.266576
_cell_length_b 13.266576
_cell_length_c 16.155861
_cell_angle_alpha 90.000000
_cell_angle_beta 90.000000
_cell_angle_gamma 90.000000
_cell_volume 2843.464474
_symmetry_space_group_name_H-M "P 4/N B M"
_symmetry_group_IT_number 125
_space_group.IT_coordinate_system_code '2'
_symmetry_cell_setting 'tetragonal'
loop_
_space_group_symop_operation_xyz
x,y,z
1/2-y,x,z
1/2-x,1/2-y,z
y,1/2-x,z
x,1/2-y,-z
1/2-x,y,-z
y,x,-z
1/2-y,1/2-x,-z
-x,-y,-z
1/2+y,-x,-z
1/2+x,1/2+y,-z
-y,1/2+x,-z
-x,1/2+y,z
1/2+x,-y,z
-y,-x,z
1/2+y,1/2+x,z
loop_
_atom_site_type_symbol
_atom_site_label
_atom_site_fract_x
_atom_site_fract_y
_atom_site_fract_z
Si Si1 0.836268 0.163732 0.701962
Si Si2 0.802242 0.027638 0.177188
Si Si3 0.015739 0.984262 0.403002
Si Si4 0.659572 0.613783 0.312032
Si Si5 0.079314 0.750000 0.000000
O O1 0.750000 0.250000 0.676894
O O2 0.777161 0.083124 0.760589
O O3 0.901216 0.098785 0.632927
O O4 0.895255 0.104746 0.172594
O O5 0.841975 0.924871 0.217792
O O6 0.758953 0.018698 0.085200
O O7 0.907387 0.958763 0.365448
O O8 0.000000 0.000000 0.500000
O O9 0.776707 0.617399 0.330765
O O10 0.153982 0.846019 0.007227
#
# Coordination Sequence:
#
# PCOD9562905 Si02
#       5
#     8  16   8  16   8
#     4  10  20  40  69  95 129 173 223 279 334 387
#     4  10  18  35  65  96 134 178 222 278 341 395
#     4  12  26  46  73  99 131 169 225 281 341 413
#     4  11  24  43  67  93 130 178 215 265 336 408
#     4   9  16  28  56 103 138 170 230 293 335 398
#
# _framework density 19.694286000000002
#
# number of rings (size 3 to 8) (size 9 to 14) (size 15 to 20)
#    0.000    1.571    5.714    0.000    0.000    1.143 
#    0.000    2.857    3.143    6.857    0.000    0.000 
#    0.000    0.000    0.000    0.000    0.000    0.000 
#
# Total GULP energy -311995.007400 kJ/mol
# GULP energy per Si atom -5571.339418 kJ/mol
# Density = 1.964946 g / cm^3
# Si number density = 19.694286 Si / 1000 Ang^3
#
#
#
# Elastic Constant Matrix: (Units=GPa)
#
#
# Indices 1 2 3 4 5 6 
#
# 1 102.5634 31.4554 56.1661 0.0000 0.0000 0.0000
# 2 31.4554 102.5634 56.1661 0.0000 0.0000 0.0000
# 3 56.1661 56.1661 151.2327 0.0000 0.0000 0.0000
# 4 0.0000 0.0000 0.0000 22.9898 0.0000 0.0000
# 5 0.0000 0.0000 0.0000 0.0000 22.9898 0.0000
# 6 0.0000 0.0000 0.0000 0.0000 0.0000 -1.2134
#
#
#
# Elastic Compliance Matrix: (Units=1/GPa)
#
#
# Indices 1 2 3 4 5 6 
#
# 1 0.012449 -0.001614 -0.004024 0.000000 0.000000 0.000000
# 2 -0.001614 0.012449 -0.004024 0.000000 0.000000 0.000000
# 3 -0.004024 -0.004024 0.009601 0.000000 0.000000 0.000000
# 4 0.000000 0.000000 0.000000 0.043498 0.000000 0.000000
# 5 0.000000 0.000000 0.000000 0.000000 0.043498 0.000000
# 6 0.000000 0.000000 0.000000 0.000000 0.000000 -0.824158
#
#
# Mechanical properties :
#
#
# Convention : Reuss Voigt Hill
#
# Bulk Modulus (GPa) = 65.89925 71.54830 68.72378
# Shear Modulus (GPa) = -7.37155 23.12472 7.87658
#
# Velocity S-wave (km/s) = -1.93678 3.43035 2.00203
# Velocity P-wave (km/s) = 5.34156 7.21790 6.34942
#
# Compressibility (1/GPa) = 0.01517468
#
# Stress axis : x y z
#
# Youngs Moduli (GPa) = 80.32987 80.32987 104.15540
#
# Poissons Ratio (x) = 0.12969 0.41909
# Poissons Ratio (y) = 0.12969 0.41909
# Poissons Ratio (z) = 0.32322 0.32322
#
# Static dielectric constant tensor:
#      x y z
#    x 1.734700 0.000000 0.000000 
#    y 0.000000 1.734700 0.000000 
#    z 0.000000 0.000000 1.707850 
# 
# From -- ./inp_files/4581.got.cif
#   From: 2010.05.17/outbox.cif.g08.bks.cpg/sg125_3_cif.got.tgz:4581.got - 2010.05.20 11:54:10.
