data_PCOD9562209
_publ_section_title
;
Structure prediction by ZEFSAII (Michael W. Deem and Ramdas Pophale) SiO2 
 PCOD9562209
Probable space group: P 4/M M M
;
_chemical_formula_sum "Si O2"
_cell_formula_units_Z 56
_cell_length_a 18.454988
_cell_length_b 18.454988
_cell_length_c 8.543752
_cell_angle_alpha 90.000000
_cell_angle_beta 90.000000
_cell_angle_gamma 90.000000
_cell_volume 2909.887292
_symmetry_space_group_name_H-M "P 4/M M M"
_symmetry_group_IT_number 123
_symmetry_cell_setting 'tetragonal'
loop_
_space_group_symop_operation_xyz
x,y,z
-y,x,z
-x,-y,z
y,-x,z
x,-y,-z
-x,y,-z
y,x,-z
-y,-x,-z
-x,-y,-z
y,-x,-z
x,y,-z
-y,x,-z
-x,y,z
x,-y,z
-y,-x,z
y,x,z
loop_
_atom_site_type_symbol
_atom_site_label
_atom_site_fract_x
_atom_site_fract_y
_atom_site_fract_z
Si Si1 0.581744 0.699939 0.310949
Si Si2 0.000000 0.583967 0.190877
Si Si3 0.153574 0.351618 0.812517
Si Si4 0.195639 0.195639 0.682649
Si Si5 0.085155 0.085155 0.184370
O O1 0.584195 0.700578 0.500000
O O2 0.500000 0.679901 0.263145
O O3 0.642340 0.642340 0.256278
O O4 0.600897 0.780121 0.252119
O O5 0.925505 0.621834 0.242764
O O6 0.000000 0.500000 0.237907
O O7 0.000000 0.586086 0.000000
O O8 0.169002 0.269897 0.759919
O O9 0.154559 0.355905 0.000000
O O10 0.208707 0.208707 0.500000
O O11 0.135136 0.135136 0.711473
O O12 0.000000 0.098663 0.211049
O O13 0.099851 0.099851 0.000000
#
# Coordination Sequence:
#
# PCOD9562209 Si02
#       5
#    16   8  16   8   8
#     4  10  21  38  60  87 122 162 200 244 300 362
#     4   9  20  38  61  91 122 151 190 243 299 356
#     4  11  22  39  63  89 117 158 205 250 302 358
#     4  12  25  39  57  86 123 159 200 247 300 360
#     4   9  20  40  64  88 116 153 199 247 294 349
#
# _framework density 19.244731000000002
#
# number of rings (size 3 to 8) (size 9 to 14) (size 15 to 20)
#    0.000    1.714    1.429    3.429    2.000    2.571 
#    0.000    4.286    0.000    5.143    0.000    2.000 
#    0.000    0.000    0.000    0.000    0.000    0.000 
#
# Total GULP energy -312891.065826 kJ/mol
# GULP energy per Si atom -5587.340461 kJ/mol
# Density = 1.920093 g / cm^3
# Si number density = 19.244731 Si / 1000 Ang^3
#
#
#
# Elastic Constant Matrix: (Units=GPa)
#
#
# Indices 1 2 3 4 5 6 
#
# 1 135.1433 98.1251 20.8848 0.0000 0.0000 0.0000
# 2 98.1251 135.1433 20.8848 0.0000 0.0000 0.0000
# 3 20.8848 20.8848 13.8054 0.0000 0.0000 0.0000
# 4 0.0000 0.0000 0.0000 22.2707 0.0000 0.0000
# 5 0.0000 0.0000 0.0000 0.0000 22.2707 0.0000
# 6 0.0000 0.0000 0.0000 0.0000 0.0000 24.6418
#
#
#
# Elastic Compliance Matrix: (Units=1/GPa)
#
#
# Indices 1 2 3 4 5 6 
#
# 1 0.016447 -0.010567 -0.008895 0.000000 0.000000 0.000000
# 2 -0.010567 0.016447 -0.008895 0.000000 0.000000 0.000000
# 3 -0.008895 -0.008895 0.099347 0.000000 0.000000 0.000000
# 4 0.000000 0.000000 0.000000 0.044902 0.000000 0.000000
# 5 0.000000 0.000000 0.000000 0.000000 0.044902 0.000000
# 6 0.000000 0.000000 0.000000 0.000000 0.000000 0.040581
#
#
# Mechanical properties :
#
#
# Convention : Reuss Voigt Hill
#
# Bulk Modulus (GPa) = 13.24017 62.65350 37.94683
# Shear Modulus (GPa) = 14.51315 23.44978 18.98146
#
# Velocity S-wave (km/s) = 2.74913 3.49449 3.14398
# Velocity P-wave (km/s) = 4.11969 6.99349 5.73937
#
# Compressibility (1/GPa) = 0.07552774
#
# Stress axis : x y z
#
# Youngs Moduli (GPa) = 60.80249 60.80249 10.06570
#
# Poissons Ratio (x) = 0.64250 0.08953
# Poissons Ratio (y) = 0.64250 0.08953
# Poissons Ratio (z) = 0.54082 0.54082
#
# Static dielectric constant tensor:
#      x y z
#    x 1.650480 0.000000 0.000000 
#    y 0.000000 1.650480 0.000000 
#    z 0.000000 0.000000 1.664090 
# 
# From -- ./inp_files/629.got.cif
#   From: 2010.05.17/outbox.cif.g08.bks.cpg/sg123_1_cif.got.tgz:629.got - 2010.05.20 11:43:04.
