data_PCOD9562349
_publ_section_title
;
Structure prediction by ZEFSAII (Michael W. Deem and Ramdas Pophale) SiO2 
 PCOD9562349
Probable space group: P 4/M C C
;
_chemical_formula_sum "Si O2"
_cell_formula_units_Z 112
_cell_length_a 16.640107
_cell_length_b 16.640107
_cell_length_c 19.116911
_cell_angle_alpha 90.000000
_cell_angle_beta 90.000000
_cell_angle_gamma 90.000000
_cell_volume 5293.341915
_symmetry_space_group_name_H-M "P 4/M C C"
_symmetry_group_IT_number 124
_symmetry_cell_setting 'tetragonal'
loop_
_space_group_symop_operation_xyz
x,y,z
-y,x,z
-x,-y,z
y,-x,z
x,-y,1/2-z
-x,y,1/2-z
y,x,1/2-z
-y,-x,1/2-z
-x,-y,-z
y,-x,-z
x,y,-z
-y,x,-z
-x,y,1/2+z
x,-y,1/2+z
-y,-x,1/2+z
y,x,1/2+z
loop_
_atom_site_type_symbol
_atom_site_label
_atom_site_fract_x
_atom_site_fract_y
_atom_site_fract_z
Si Si1 0.408486 0.026079 0.419518
Si Si2 0.411183 0.779954 0.749462
Si Si3 0.721553 0.574227 0.401609
Si Si4 0.389625 0.714414 0.901119
Si Si5 0.239782 0.832770 0.081100
Si Si6 0.869822 0.309783 0.079406
Si Si7 0.319286 0.079210 0.702186
O O1 0.388431 0.052740 0.500000
O O2 0.350795 0.952060 0.397809
O O3 0.500000 0.000000 0.422498
O O4 0.396080 0.080608 0.351525
O O5 0.500000 0.819594 0.750000
O O6 0.417333 0.724659 0.682050
O O7 0.394952 0.727952 0.817868
O O8 0.341042 0.846557 0.746671
O O9 0.646070 0.628434 0.422629
O O10 0.724438 0.481855 0.423808
O O11 0.802661 0.620666 0.422552
O O12 0.322144 0.779589 0.923267
O O13 0.172042 0.770218 0.107926
O O14 0.252730 0.898210 0.142814
O O15 0.223689 0.859597 0.000000
O O16 0.887628 0.286139 0.000000
O O17 0.308599 0.000000 0.750000
#
# Coordination Sequence:
#
# PCOD9562349 Si02
#       7
#    16  16  16  16  16  16  16
#     4  10  22  35  52  82 115 147 183 234 291 343
#     4   9  19  31  45  63  93 133 170 216 285 354
#     4  10  18  32  47  68  96 132 184 241 289 344
#     4   9  19  30  48  69  92 132 185 240 297 337
#     4   9  19  37  55  73 104 149 193 229 280 357
#     4   9  19  35  54  74 103 148 190 227 281 346
#     4  11  22  32  52  81 107 140 181 234 290 344
#
# _framework density 21.158657000000002
#
# number of rings (size 3 to 8) (size 9 to 14) (size 15 to 20)
#    0.000    2.429    0.000    1.714    8.000    0.857 
#    0.000    2.143    0.000    2.571    0.000    4.000 
#    0.000    0.571    0.000   17.571    0.000   17.714 
#
# Total GULP energy -623634.302213 kJ/mol
# GULP energy per Si atom -5568.163413 kJ/mol
# Density = 2.111050 g / cm^3
# Si number density = 21.158657 Si / 1000 Ang^3
#
#
#
# Elastic Constant Matrix: (Units=GPa)
#
#
# Indices 1 2 3 4 5 6 
#
# 1 62.1554 22.9983 15.6352 0.0000 0.0000 0.0000
# 2 22.9983 62.1554 15.6352 0.0000 0.0000 0.0000
# 3 15.6352 15.6352 130.9534 0.0000 0.0000 0.0000
# 4 0.0000 0.0000 0.0000-2399.8001 0.0000 0.0000
# 5 0.0000 0.0000 0.0000 0.0000-2399.8001 0.0000
# 6 0.0000 0.0000 0.0000 0.0000 0.0000 21.9934
#
#
#
# Elastic Compliance Matrix: (Units=1/GPa)
#
#
# Indices 1 2 3 4 5 6 
#
# 1 0.018910 -0.006628 -0.001466 0.000000 0.000000 0.000000
# 2 -0.006628 0.018910 -0.001466 0.000000 0.000000 0.000000
# 3 -0.001466 -0.001466 0.007986 0.000000 0.000000 0.000000
# 4 0.000000 0.000000 0.000000 -0.000417 0.000000 0.000000
# 5 0.000000 0.000000 0.000000 0.000000 -0.000417 0.000000
# 6 0.000000 0.000000 0.000000 0.000000 0.000000 0.045468
#
#
# Mechanical properties :
#
#
# Convention : Reuss Voigt Hill
#
# Bulk Modulus (GPa) = 37.47453 40.42238 38.94845
# Shear Modulus (GPa) = 42.20904 -942.12167 -449.95632
#
# Velocity S-wave (km/s) = 4.47126 -21.12420 -14.59863
# Velocity P-wave (km/s) = 6.66377 23.99646 16.30068
#
# Compressibility (1/GPa) = 0.02668479
#
# Stress axis : x y z
#
# Youngs Moduli (GPa) = 52.88189 52.88189 125.21180
#
# Poissons Ratio (x) = 0.35051 0.18361
# Poissons Ratio (y) = 0.35051 0.18361
# Poissons Ratio (z) = 0.07755 0.07755
#
# Static dielectric constant tensor:
#      x y z
#    x 1.806820 0.000000 0.000000 
#    y 0.000000 1.806820 0.000000 
#    z 0.000000 0.000000 1.894590 
# 
# From -- ./inp_files/5527.got.cif
#   From: 2010.05.17/outbox.cif.g08.bks.cpg/sg124_3_cif.got.tgz:5527.got - 2010.05.20 11:49:17.
