data_PCOD9562807
_publ_section_title
;
Structure prediction by ZEFSAII (Michael W. Deem and Ramdas Pophale) SiO2 
 PCOD9562807
Probable space group: P 4/M C C
;
_chemical_formula_sum "Si O2"
_cell_formula_units_Z 88
_cell_length_a 17.462120
_cell_length_b 17.462120
_cell_length_c 14.532763
_cell_angle_alpha 90.000000
_cell_angle_beta 90.000000
_cell_angle_gamma 90.000000
_cell_volume 4431.411985
_symmetry_space_group_name_H-M "P 4/M C C"
_symmetry_group_IT_number 124
_symmetry_cell_setting 'tetragonal'
loop_
_space_group_symop_operation_xyz
x,y,z
-y,x,z
-x,-y,z
y,-x,z
x,-y,1/2-z
-x,y,1/2-z
y,x,1/2-z
-y,-x,1/2-z
-x,-y,-z
y,-x,-z
x,y,-z
-y,x,-z
-x,y,1/2+z
x,-y,1/2+z
-y,-x,1/2+z
y,x,1/2+z
loop_
_atom_site_type_symbol
_atom_site_label
_atom_site_fract_x
_atom_site_fract_y
_atom_site_fract_z
Si Si1 0.781546 0.961303 0.000000
Si Si2 0.236174 0.534378 0.647496
Si Si3 0.546921 0.922516 0.895248
Si Si4 0.630520 0.509513 0.000000
Si Si5 0.704351 0.073595 0.692439
Si Si6 0.804687 0.146233 0.000000
Si Si7 0.287524 0.211642 0.324735
O O1 0.738087 0.937251 0.092219
O O2 0.849498 0.897647 0.000000
O O3 0.787860 0.054298 0.000000
O O4 0.246791 0.500000 0.750000
O O5 0.157065 0.497753 0.610646
O O6 0.310852 0.514950 0.586370
O O7 0.219080 0.625128 0.643223
O O8 0.613934 0.918575 0.821600
O O9 0.500000 0.000000 0.877861
O O10 0.576591 0.929907 0.000000
O O11 0.568706 0.579672 0.000000
O O12 0.730033 0.143840 0.753129
O O13 0.724367 0.000000 0.750000
O O14 0.766254 0.191077 0.912422
O O15 0.280016 0.280016 0.250000
#
# Coordination Sequence:
#
# PCOD9562807 Si02
#       7
#     8  16  16   8  16   8  16
#     4  12  26  44  70 101 132 191 232 293 345 408
#     4  12  26  44  72 104 139 183 233 285 352 429
#     4  11  24  40  65 101 147 185 224 272 349 431
#     4  11  29  53  73  96 133 183 244 311 358 402
#     4  12  23  41  68 100 141 179 227 278 351 426
#     4  12  27  47  71 100 144 178 241 287 348 410
#     4  12  26  43  70 106 138 180 225 293 349 413
#
# _framework density 19.858229999999999
#
# number of rings (size 3 to 8) (size 9 to 14) (size 15 to 20)
#    0.000    0.273    7.273    1.636    2.545    0.182 
#    3.273    0.909    0.000    0.000    0.000    0.000 
#    0.000    0.000    0.000    0.000    0.000    0.000 
#
# Total GULP energy -490608.994530 kJ/mol
# GULP energy per Si atom -5575.102211 kJ/mol
# Density = 1.981303 g / cm^3
# Si number density = 19.858230 Si / 1000 Ang^3
#
#
#
# Elastic Constant Matrix: (Units=GPa)
#
#
# Indices 1 2 3 4 5 6 
#
# 1 77.1053 39.7362 40.9409 0.0000 0.0000 0.0000
# 2 39.7362 77.1053 40.9409 0.0000 0.0000 0.0000
# 3 40.9409 40.9409 146.2891 0.0000 0.0000 0.0000
# 4 0.0000 0.0000 0.0000 24.0093 0.0000 0.0000
# 5 0.0000 0.0000 0.0000 0.0000 24.0093 0.0000
# 6 0.0000 0.0000 0.0000 0.0000 0.0000 38.9182
#
#
#
# Elastic Compliance Matrix: (Units=1/GPa)
#
#
# Indices 1 2 3 4 5 6 
#
# 1 0.018703 -0.008057 -0.002980 0.000000 0.000000 0.000000
# 2 -0.008057 0.018703 -0.002980 0.000000 0.000000 0.000000
# 3 -0.002980 -0.002980 0.008504 0.000000 0.000000 0.000000
# 4 0.000000 0.000000 0.000000 0.041650 0.000000 0.000000
# 5 0.000000 0.000000 0.000000 0.000000 0.041650 0.000000
# 6 0.000000 0.000000 0.000000 0.000000 0.000000 0.025695
#
#
# Mechanical properties :
#
#
# Convention : Reuss Voigt Hill
#
# Bulk Modulus (GPa) = 55.93314 60.41507 58.17411
# Shear Modulus (GPa) = 26.46939 29.31284 27.89111
#
# Velocity S-wave (km/s) = 3.65488 3.84618 3.75175
# Velocity P-wave (km/s) = 6.78515 7.08614 6.93727
#
# Compressibility (1/GPa) = 0.01787849
#
# Stress axis : x y z
#
# Youngs Moduli (GPa) = 53.46626 53.46626 117.59801
#
# Poissons Ratio (x) = 0.43076 0.35040
# Poissons Ratio (y) = 0.43076 0.35040
# Poissons Ratio (z) = 0.15931 0.15931
#
# Static dielectric constant tensor:
#      x y z
#    x 1.582000 0.000000 0.000000 
#    y 0.000000 1.582000 0.000000 
#    z 0.000000 0.000000 1.800360 
# 
# From -- ./inp_files/3268.got.cif
#   From: 2010.05.17/outbox.cif.g08.bks.cpg/sg124_2_cif.got.tgz:3268.got - 2010.05.20 11:49:17.
