data_PCOD9562001
_publ_section_title
;
Structure prediction by ZEFSAII (Michael W. Deem and Ramdas Pophale) SiO2 
 PCOD9562001
Probable space group: P 4/M M M
;
_chemical_formula_sum "Si O2"
_cell_formula_units_Z 96
_cell_length_a 21.321316
_cell_length_b 21.321316
_cell_length_c 12.183402
_cell_angle_alpha 90.000000
_cell_angle_beta 90.000000
_cell_angle_gamma 90.000000
_cell_volume 5538.556469
_symmetry_space_group_name_H-M "P 4/M M M"
_symmetry_group_IT_number 123
_symmetry_cell_setting 'tetragonal'
loop_
_space_group_symop_operation_xyz
x,y,z
-y,x,z
-x,-y,z
y,-x,z
x,-y,-z
-x,y,-z
y,x,-z
-y,-x,-z
-x,-y,-z
y,-x,-z
x,y,-z
-y,x,-z
-x,y,z
x,-y,z
-y,-x,z
y,x,z
loop_
_atom_site_type_symbol
_atom_site_label
_atom_site_fract_x
_atom_site_fract_y
_atom_site_fract_z
Si Si1 0.266757 0.160038 0.125251
Si Si2 0.712187 0.808639 0.500000
Si Si3 0.931112 0.425822 0.631680
Si Si4 0.199502 0.368752 0.710248
Si Si5 0.073337 0.824105 0.256919
Si Si6 0.774743 0.069894 0.500000
Si Si7 0.322364 0.427957 0.631124
O O1 0.214117 0.214117 0.125664
O O2 0.328016 0.189392 0.181281
O O3 0.236222 0.104507 0.197975
O O4 0.277531 0.140032 0.000000
O O5 0.782213 0.782213 0.500000
O O6 0.678740 0.787039 0.390518
O O7 0.717728 0.882573 0.500000
O O8 0.926347 0.419829 0.500000
O O9 0.931934 0.500000 0.655420
O O10 0.868061 0.398861 0.684073
O O11 0.000000 0.399737 0.665458
O O12 0.259417 0.414074 0.701153
O O13 0.115486 0.884515 0.227187
O O14 0.078357 0.813177 0.388001
O O15 0.000000 0.830941 0.229325
O O16 0.749503 0.000000 0.500000
O O17 0.307144 0.422787 0.500000
O O18 0.342889 0.500000 0.649346
O O19 0.376620 0.376620 0.654100
#
# Coordination Sequence:
#
# PCOD9562001 Si02
#       7
#    16   8  16  16  16   8  16
#     4  10  22  38  53  71  98 133 171 215 268 318
#     4  12  20  28  47  76 107 132 161 208 269 318
#     4   9  18  32  49  74 110 144 170 202 248 301
#     4  12  20  31  54  80 106 136 174 219 263 316
#     4  10  20  34  52  73 100 134 173 220 272 328
#     4  10  20  32  49  74 105 138 173 210 263 330
#     4  10  20  33  51  79 114 149 184 219 261 317
#
# _framework density 17.333034999999999
#
# number of rings (size 3 to 8) (size 9 to 14) (size 15 to 20)
#    0.000    1.667    3.333    3.250    0.000    3.333 
#    0.000    0.833    0.000    3.500    0.000    3.500 
#    0.000    0.000    0.000    3.500    0.000    0.167 
#
# Total GULP energy -535319.960213 kJ/mol
# GULP energy per Si atom -5576.249586 kJ/mol
# Density = 1.729358 g / cm^3
# Si number density = 17.333035 Si / 1000 Ang^3
#
#
#
# Elastic Constant Matrix: (Units=GPa)
#
#
# Indices 1 2 3 4 5 6 
#
# 1 91.9130 45.2694 25.0971 0.0000 0.0000 0.0000
# 2 45.2694 91.9130 25.0971 0.0000 0.0000 0.0000
# 3 25.0971 25.0971 71.8345 0.0000 0.0000 0.0000
# 4 0.0000 0.0000 0.0000 4.2885 0.0000 0.0000
# 5 0.0000 0.0000 0.0000 0.0000 4.2885 0.0000
# 6 0.0000 0.0000 0.0000 0.0000 0.0000 27.1836
#
#
#
# Elastic Compliance Matrix: (Units=1/GPa)
#
#
# Indices 1 2 3 4 5 6 
#
# 1 0.014899 -0.006541 -0.002920 0.000000 0.000000 0.000000
# 2 -0.006541 0.014899 -0.002920 0.000000 0.000000 0.000000
# 3 -0.002920 -0.002920 0.015961 0.000000 0.000000 0.000000
# 4 0.000000 0.000000 0.000000 0.233180 0.000000 0.000000
# 5 0.000000 0.000000 0.000000 0.000000 0.233180 0.000000
# 6 0.000000 0.000000 0.000000 0.000000 0.000000 0.036787
#
#
# Mechanical properties :
#
#
# Convention : Reuss Voigt Hill
#
# Bulk Modulus (GPa) = 47.62584 49.62086 48.62335
# Shear Modulus (GPa) = 8.61080 17.83192 13.22136
#
# Velocity S-wave (km/s) = 2.23129 3.21094 2.76485
# Velocity P-wave (km/s) = 5.84592 6.51436 6.18917
#
# Compressibility (1/GPa) = 0.02099701
#
# Stress axis : x y z
#
# Youngs Moduli (GPa) = 67.12042 67.12042 62.65156
#
# Poissons Ratio (x) = 0.43901 0.18295
# Poissons Ratio (y) = 0.43901 0.18295
# Poissons Ratio (z) = 0.19600 0.19600
#
# Static dielectric constant tensor:
#      x y z
#    x 1.612940 0.000000 0.000000 
#    y 0.000000 1.612940 0.000000 
#    z 0.000000 0.000000 1.572760 
# 
# From -- ./inp_files/3189.got.cif
#   From: 2010.05.17/outbox.cif.g08.bks.cpg/sg123_2_cif.got.tgz:3189.got - 2010.05.20 11:43:04.
