data_PCOD9562678
_publ_section_title
;
Structure prediction by ZEFSAII (Michael W. Deem and Ramdas Pophale) SiO2 
 PCOD9562678
Probable space group: P 4/M C C
;
_chemical_formula_sum "Si O2"
_cell_formula_units_Z 80
_cell_length_a 14.977913
_cell_length_b 14.977913
_cell_length_c 15.953479
_cell_angle_alpha 90.000000
_cell_angle_beta 90.000000
_cell_angle_gamma 90.000000
_cell_volume 3578.969623
_symmetry_space_group_name_H-M "P 4/M C C"
_symmetry_group_IT_number 124
_symmetry_cell_setting 'tetragonal'
loop_
_space_group_symop_operation_xyz
x,y,z
-y,x,z
-x,-y,z
y,-x,z
x,-y,1/2-z
-x,y,1/2-z
y,x,1/2-z
-y,-x,1/2-z
-x,-y,-z
y,-x,-z
x,y,-z
-y,x,-z
-x,y,1/2+z
x,-y,1/2+z
-y,-x,1/2+z
y,x,1/2+z
loop_
_atom_site_type_symbol
_atom_site_label
_atom_site_fract_x
_atom_site_fract_y
_atom_site_fract_z
Si Si1 0.310439 0.067320 0.829683
Si Si2 0.578339 0.937387 0.594147
Si Si3 0.739810 0.396143 0.847194
Si Si4 0.130959 0.070067 0.901731
Si Si5 0.260947 0.592891 0.648848
O O1 0.369646 0.155694 0.844936
O O2 0.209183 0.099275 0.840044
O O3 0.323716 0.000000 0.750000
O O4 0.335706 0.000198 0.904363
O O5 0.549265 0.915471 0.500000
O O6 0.602290 0.845120 0.637713
O O7 0.500000 0.000000 0.633034
O O8 0.721401 0.406707 0.748095
O O9 0.720566 0.493511 0.885535
O O10 0.674952 0.320126 0.884141
O O11 0.035636 0.115868 0.887661
O O12 0.153360 0.084886 0.000000
#
# Coordination Sequence:
#
# PCOD9562678 Si02
#       5
#    16  16  16  16  16
#     4  12  23  36  61  91 125 160 206 253 313 371
#     4  11  23  40  62  90 124 160 202 255 318 378
#     4  10  22  38  65  91 125 163 207 262 315 370
#     4   9  21  41  59  81 120 165 206 252 308 369
#     4  10  21  41  61  93 125 162 208 256 315 374
#
# _framework density 22.352802000000001
#
# number of rings (size 3 to 8) (size 9 to 14) (size 15 to 20)
#    0.000    1.600    4.000    1.200    2.800    1.600 
#    0.000    5.000    0.000    0.000    0.000    1.400 
#    0.000    0.000    0.000    0.000    0.000    0.000 
#
# Total GULP energy -445920.640415 kJ/mol
# GULP energy per Si atom -5574.008005 kJ/mol
# Density = 2.230193 g / cm^3
# Si number density = 22.352802 Si / 1000 Ang^3
#
#
#
# Elastic Constant Matrix: (Units=GPa)
#
#
# Indices 1 2 3 4 5 6 
#
# 1 122.0451 64.7297 15.0653 0.0000 0.0000 0.0000
# 2 64.7297 122.0451 15.0653 0.0000 0.0000 0.0000
# 3 15.0653 15.0653 33.6505 0.0000 0.0000 0.0000
# 4 0.0000 0.0000 0.0000 12.5914 0.0000 0.0000
# 5 0.0000 0.0000 0.0000 0.0000 12.5914 0.0000
# 6 0.0000 0.0000 0.0000 0.0000 0.0000 28.9777
#
#
#
# Elastic Compliance Matrix: (Units=1/GPa)
#
#
# Indices 1 2 3 4 5 6 
#
# 1 0.011609 -0.005838 -0.002584 0.000000 0.000000 0.000000
# 2 -0.005838 0.011609 -0.002584 0.000000 0.000000 0.000000
# 3 -0.002584 -0.002584 0.032031 0.000000 0.000000 0.000000
# 4 0.000000 0.000000 0.000000 0.079419 0.000000 0.000000
# 5 0.000000 0.000000 0.000000 0.000000 0.079419 0.000000
# 6 0.000000 0.000000 0.000000 0.000000 0.000000 0.034509
#
#
# Mechanical properties :
#
#
# Convention : Reuss Voigt Hill
#
# Bulk Modulus (GPa) = 30.08620 51.94016 41.01318
# Shear Modulus (GPa) = 17.75024 23.02414 20.38719
#
# Velocity S-wave (km/s) = 2.82103 3.21290 3.02332
# Velocity P-wave (km/s) = 4.90916 6.08692 5.52948
#
# Compressibility (1/GPa) = 0.03323783
#
# Stress axis : x y z
#
# Youngs Moduli (GPa) = 86.13955 86.13955 31.22020
#
# Poissons Ratio (x) = 0.50290 0.08066
# Poissons Ratio (y) = 0.50290 0.08066
# Poissons Ratio (z) = 0.22255 0.22255
#
# Static dielectric constant tensor:
#      x y z
#    x 1.871620 0.000000 0.000000 
#    y 0.000000 1.871620 0.000000 
#    z 0.000000 0.000000 1.885560 
# 
# From -- ./inp_files/5079.got.cif
#   From: 2010.05.17/outbox.cif.g08.bks.cpg/sg124_3_cif.got.tgz:5079.got - 2010.05.20 11:49:17.
