data_PCOD9562122
_publ_section_title
;
Structure prediction by ZEFSAII (Michael W. Deem and Ramdas Pophale) SiO2 
 PCOD9562122
Probable space group: P 4/M M M
;
_chemical_formula_sum "Si O2"
_cell_formula_units_Z 96
_cell_length_a 21.995042
_cell_length_b 21.995042
_cell_length_c 11.218025
_cell_angle_alpha 90.000000
_cell_angle_beta 90.000000
_cell_angle_gamma 90.000000
_cell_volume 5427.077141
_symmetry_space_group_name_H-M "P 4/M M M"
_symmetry_group_IT_number 123
_symmetry_cell_setting 'tetragonal'
loop_
_space_group_symop_operation_xyz
x,y,z
-y,x,z
-x,-y,z
y,-x,z
x,-y,-z
-x,y,-z
y,x,-z
-y,-x,-z
-x,-y,-z
y,-x,-z
x,y,-z
-y,x,-z
-x,y,z
x,-y,z
-y,-x,z
y,x,z
loop_
_atom_site_type_symbol
_atom_site_label
_atom_site_fract_x
_atom_site_fract_y
_atom_site_fract_z
Si Si1 0.139170 0.605926 0.724878
Si Si2 0.731343 0.168778 0.856658
Si Si3 0.667124 0.427401 0.129215
Si Si4 0.500000 0.070273 0.141591
Si Si5 0.930646 0.833858 0.144644
Si Si6 0.269301 0.428487 0.632219
Si Si7 0.571387 0.071513 0.500000
O O1 0.158360 0.668524 0.787695
O O2 0.107627 0.558684 0.814900
O O3 0.198842 0.577764 0.663615
O O4 0.092841 0.608190 0.615384
O O5 0.769600 0.230401 0.828302
O O6 0.776514 0.112459 0.827204
O O7 0.721291 0.168671 0.000000
O O8 0.668149 0.500000 0.131466
O O9 0.599711 0.400290 0.129760
O O10 0.698276 0.403653 0.249213
O O11 0.695033 0.408598 0.000000
O O12 0.500000 0.000000 0.188057
O O13 0.500000 0.067329 0.000000
O O14 0.894283 0.894283 0.183862
O O15 0.000000 0.829598 0.187589
O O16 0.932722 0.835865 0.000000
O O17 0.282291 0.402551 0.500000
O O18 0.284914 0.500000 0.626440
O O19 0.500000 0.094646 0.500000
O O20 0.566520 0.000000 0.500000
#
# Coordination Sequence:
#
# PCOD9562122 Si02
#       7
#    16  16  16   8  16  16   8
#     4  12  21  37  59  80 106 148 193 234 284 341
#     4   9  20  37  54  77 112 152 190 231 286 349
#     4   9  19  35  55  81 111 142 179 226 283 346
#     4  11  24  37  53  87 125 150 184 237 294 351
#     4   8  14  26  45  70 102 139 177 217 262 314
#     4  10  20  36  55  76 103 136 181 230 279 331
#     4  11  22  38  59  82 112 152 195 244 297 352
#
# _framework density 17.689080000000001
#
# number of rings (size 3 to 8) (size 9 to 14) (size 15 to 20)
#    0.000    2.167    2.500    2.000    0.000    4.000 
#    0.000    5.417    0.000    0.000    0.000    2.333 
#    0.000    0.000    0.000    0.000    0.000   13.333 
#
# Total GULP energy -534450.608656 kJ/mol
# GULP energy per Si atom -5567.193840 kJ/mol
# Density = 1.764882 g / cm^3
# Si number density = 17.689080 Si / 1000 Ang^3
#
#
#
# Elastic Constant Matrix: (Units=GPa)
#
#
# Indices 1 2 3 4 5 6 
#
# 1 43.3305 74.6753 46.6602 0.0000 0.0000 0.0000
# 2 74.6753 43.3305 46.6602 0.0000 0.0000 0.0000
# 3 46.6602 46.6602 125.7703 0.0000 0.0000 0.0000
# 4 0.0000 0.0000 0.0000 90.8811 0.0000 0.0000
# 5 0.0000 0.0000 0.0000 0.0000 90.8811 0.0000
# 6 0.0000 0.0000 0.0000 0.0000 0.0000 12.0282
#
#
#
# Elastic Compliance Matrix: (Units=1/GPa)
#
#
# Indices 1 2 3 4 5 6 
#
# 1 -0.009955 0.021948 -0.004449 0.000000 0.000000 0.000000
# 2 0.021948 -0.009955 -0.004449 0.000000 0.000000 0.000000
# 3 -0.004449 -0.004449 0.011252 0.000000 0.000000 0.000000
# 4 0.000000 0.000000 0.000000 0.011003 0.000000 0.000000
# 5 0.000000 0.000000 0.000000 0.000000 0.011003 0.000000
# 6 0.000000 0.000000 0.000000 0.000000 0.000000 0.083138
#
#
# Mechanical properties :
#
#
# Convention : Reuss Voigt Hill
#
# Bulk Modulus (GPa) = 57.33708 60.93584 59.13646
# Shear Modulus (GPa) = 65.61615 41.72047 53.66831
#
# Velocity S-wave (km/s) = 6.09710 4.86175 5.51413
# Velocity P-wave (km/s) = 9.05817 8.12641 8.60491
#
# Compressibility (1/GPa) = 0.01744072
#
# Stress axis : x y z
#
# Youngs Moduli (GPa) = -100.44939 -100.44939 88.87088
#
# Poissons Ratio (x) = 2.20466 0.39541
# Poissons Ratio (y) = 2.20466 0.39541
# Poissons Ratio (z) = -0.44692 -0.44692
#
# Static dielectric constant tensor:
#      x y z
#    x 1.608570 0.000000 0.000000 
#    y 0.000000 1.608570 0.000000 
#    z 0.000000 0.000000 1.632490 
# 
# From -- ./inp_files/3181.got.cif
#   From: 2010.05.17/outbox.cif.g08.bks.cpg/sg123_2_cif.got.tgz:3181.got - 2010.05.20 11:43:04.
