data_PCOD9562212
_publ_section_title
;
Structure prediction by ZEFSAII (Michael W. Deem and Ramdas Pophale) SiO2 
 PCOD9562212
Probable space group: P 4/M M M
;
_chemical_formula_sum "Si O2"
_cell_formula_units_Z 56
_cell_length_a 18.384946
_cell_length_b 18.384946
_cell_length_c 8.717848
_cell_angle_alpha 90.000000
_cell_angle_beta 90.000000
_cell_angle_gamma 90.000000
_cell_volume 2946.687018
_symmetry_space_group_name_H-M "P 4/M M M"
_symmetry_group_IT_number 123
_symmetry_cell_setting 'tetragonal'
loop_
_space_group_symop_operation_xyz
x,y,z
-y,x,z
-x,-y,z
y,-x,z
x,-y,-z
-x,y,-z
y,x,-z
-y,-x,-z
-x,-y,-z
y,-x,-z
x,y,-z
-y,x,-z
-x,y,z
x,-y,z
-y,-x,z
y,x,z
loop_
_atom_site_type_symbol
_atom_site_label
_atom_site_fract_x
_atom_site_fract_y
_atom_site_fract_z
Si Si1 0.581635 0.700553 0.184899
Si Si2 0.000000 0.586455 0.182452
Si Si3 0.152615 0.358509 0.684394
Si Si4 0.196209 0.196209 0.684236
Si Si5 0.083164 0.083164 0.184656
O O1 0.500000 0.674671 0.222496
O O2 0.644108 0.644108 0.237236
O O3 0.593501 0.780521 0.254235
O O4 0.586779 0.705992 0.000000
O O5 0.925979 0.618951 0.252309
O O6 0.000000 0.500000 0.210996
O O7 0.000000 0.598805 0.000000
O O8 0.150896 0.361817 0.500000
O O9 0.173144 0.276607 0.734930
O O10 0.196673 0.196673 0.500000
O O11 0.138523 0.138523 0.742787
O O12 0.000000 0.099397 0.229473
O O13 0.086991 0.086991 0.000000
#
# Coordination Sequence:
#
# PCOD9562212 Si02
#       5
#    16   8  16   8   8
#     4  10  21  38  61  89 121 158 201 249 302 361
#     4  11  25  43  63  91 124 157 198 247 299 358
#     4  11  23  41  62  88 122 159 200 247 301 360
#     4  10  23  39  57  84 117 151 194 242 288 345
#     4   9  20  38  58  84 116 149 189 235 284 340
#
# _framework density 19.004393
#
# number of rings (size 3 to 8) (size 9 to 14) (size 15 to 20)
#    0.000    1.714    1.429    2.571    2.000    8.286 
#    0.000    2.143    0.000    0.000    0.000    2.000 
#    0.000    0.000    0.000    0.000    0.000    0.000 
#
# Total GULP energy -312841.885538 kJ/mol
# GULP energy per Si atom -5586.462242 kJ/mol
# Density = 1.896114 g / cm^3
# Si number density = 19.004393 Si / 1000 Ang^3
#
#
#
# Elastic Constant Matrix: (Units=GPa)
#
#
# Indices 1 2 3 4 5 6 
#
# 1 116.4518 94.4402 41.3735 0.0000 0.0000 0.0000
# 2 94.4402 116.4518 41.3735 0.0000 0.0000 0.0000
# 3 41.3735 41.3735 24.1180 0.0000 0.0000 0.0000
# 4 0.0000 0.0000 0.0000 127.3478 0.0000 0.0000
# 5 0.0000 0.0000 0.0000 0.0000 127.3478 0.0000
# 6 0.0000 0.0000 0.0000 0.0000 0.0000 28.8463
#
#
#
# Elastic Compliance Matrix: (Units=1/GPa)
#
#
# Indices 1 2 3 4 5 6 
#
# 1 0.029968 -0.015463 -0.024883 0.000000 0.000000 0.000000
# 2 -0.015463 0.029968 -0.024883 0.000000 0.000000 0.000000
# 3 -0.024883 -0.024883 0.126833 0.000000 0.000000 0.000000
# 4 0.000000 0.000000 0.000000 0.007853 0.000000 0.000000
# 5 0.000000 0.000000 0.000000 0.000000 0.007853 0.000000
# 6 0.000000 0.000000 0.000000 0.000000 0.000000 0.034666
#
#
# Mechanical properties :
#
#
# Convention : Reuss Voigt Hill
#
# Bulk Modulus (GPa) = 17.75803 67.93288 42.84546
# Shear Modulus (GPa) = 12.94109 62.03066 37.48587
#
# Velocity S-wave (km/s) = 2.61234 5.71936 4.44608
# Velocity P-wave (km/s) = 4.29692 8.91281 6.99649
#
# Compressibility (1/GPa) = 0.05631255
#
# Stress axis : x y z
#
# Youngs Moduli (GPa) = 33.36928 33.36928 7.88439
#
# Poissons Ratio (x) = 0.51598 0.19618
# Poissons Ratio (y) = 0.51598 0.19618
# Poissons Ratio (z) = 0.83031 0.83031
#
# Static dielectric constant tensor:
#      x y z
#    x 1.644970 0.000000 0.000000 
#    y 0.000000 1.644970 0.000000 
#    z 0.000000 0.000000 1.643290 
# 
# From -- ./inp_files/630.got.cif
#   From: 2010.05.17/outbox.cif.g08.bks.cpg/sg123_1_cif.got.tgz:630.got - 2010.05.20 11:43:04.
