data_PCOD9562329
_publ_section_title
;
Structure prediction by ZEFSAII (Michael W. Deem and Ramdas Pophale) SiO2 
 PCOD9562329
Probable space group: P 4/M C C
;
_chemical_formula_sum "Si O2"
_cell_formula_units_Z 64
_cell_length_a 11.949116
_cell_length_b 11.949116
_cell_length_c 20.663940
_cell_angle_alpha 90.000000
_cell_angle_beta 90.000000
_cell_angle_gamma 90.000000
_cell_volume 2950.425729
_symmetry_space_group_name_H-M "P 4/M C C"
_symmetry_group_IT_number 124
_symmetry_cell_setting 'tetragonal'
loop_
_space_group_symop_operation_xyz
x,y,z
-y,x,z
-x,-y,z
y,-x,z
x,-y,1/2-z
-x,y,1/2-z
y,x,1/2-z
-y,-x,1/2-z
-x,-y,-z
y,-x,-z
x,y,-z
-y,x,-z
-x,y,1/2+z
x,-y,1/2+z
-y,-x,1/2+z
y,x,1/2+z
loop_
_atom_site_type_symbol
_atom_site_label
_atom_site_fract_x
_atom_site_fract_y
_atom_site_fract_z
Si Si1 0.323827 0.453828 0.889841
Si Si2 0.700441 0.116928 0.237992
Si Si3 0.759753 0.500000 0.750000
Si Si4 0.078897 0.608866 0.594592
Si Si5 0.809262 0.978845 0.500000
O O1 0.422365 0.367558 0.906236
O O2 0.309291 0.452165 0.810595
O O3 0.206622 0.424165 0.922797
O O4 0.787502 0.212499 0.250000
O O5 0.594447 0.158399 0.279613
O O6 0.645363 0.095699 0.168631
O O7 0.757435 0.000000 0.250000
O O8 0.034492 0.720404 0.558840
O O9 0.000000 0.500000 0.585960
O O10 0.904341 0.879959 0.500000
#
# Coordination Sequence:
#
# PCOD9562329 Si02
#       5
#    16  16   8  16   8
#     4  10  20  34  59  98 136 177 219 273 340 420
#     4  11  23  37  62  99 138 180 220 278 345 425
#     4  10  17  33  56  86 136 181 219 262 322 418
#     4  11  25  44  74 101 140 184 239 295 365 437
#     4  11  29  52  78 101 130 186 248 317 369 432
#
# _framework density 21.691786
#
# number of rings (size 3 to 8) (size 9 to 14) (size 15 to 20)
#    0.000    1.375    0.000    7.500    7.000    1.250 
#    0.000    0.000    0.000    1.500    0.000    0.000 
#    0.000    0.000    0.000    0.000    0.000    0.000 
#
# Total GULP energy -356815.123440 kJ/mol
# GULP energy per Si atom -5575.236304 kJ/mol
# Density = 2.164241 g / cm^3
# Si number density = 21.691786 Si / 1000 Ang^3
#
#
#
# Elastic Constant Matrix: (Units=GPa)
#
#
# Indices 1 2 3 4 5 6 
#
# 1 174.7369 84.4774 16.9347 0.0000 0.0000 0.0000
# 2 84.4774 174.7336 16.9370 0.0000 0.0000 0.0000
# 3 16.9347 16.9370 42.8436 0.0000 0.0000 0.0000
# 4 0.0000 0.0000 0.0000 10.2755 0.0000 0.0000
# 5 0.0000 0.0000 0.0000 0.0000 10.2756 0.0000
# 6 0.0000 0.0000 0.0000 0.0000 0.0000 101.4631
#
#
#
# Elastic Compliance Matrix: (Units=1/GPa)
#
#
# Indices 1 2 3 4 5 6 
#
# 1 0.007574 -0.003506 -0.001608 0.000000 0.000000 0.000000
# 2 -0.003506 0.007574 -0.001608 0.000000 0.000000 0.000000
# 3 -0.001608 -0.001608 0.024612 0.000000 0.000000 0.000000
# 4 0.000000 0.000000 0.000000 0.097319 0.000000 0.000000
# 5 0.000000 0.000000 0.000000 0.000000 0.097318 0.000000
# 6 0.000000 0.000000 0.000000 0.000000 0.000000 0.009856
#
#
# Mechanical properties :
#
#
# Convention : Reuss Voigt Hill
#
# Bulk Modulus (GPa) = 38.00002 69.89025 53.94514
# Shear Modulus (GPa) = 18.76400 42.66716 30.71558
#
# Velocity S-wave (km/s) = 2.94433 4.43987 3.76706
# Velocity P-wave (km/s) = 5.39583 7.65329 6.62147
#
# Compressibility (1/GPa) = 0.02631577
#
# Stress axis : x y z
#
# Youngs Moduli (GPa) = 132.03842 132.03449 40.63055
#
# Poissons Ratio (x) = 0.46287 0.06532
# Poissons Ratio (y) = 0.46289 0.06535
# Poissons Ratio (z) = 0.21228 0.21236
#
# Static dielectric constant tensor:
#      x y z
#    x 1.811040 0.000000 0.000000 
#    y 0.000000 1.811050 0.000000 
#    z 0.000000 0.000000 -5.430690 
# 
# From -- ./inp_files/5916.got.cif
#   From: 2010.05.17/outbox.cif.g08.bks.cpg/sg124_3_cif.got.tgz:5916.got - 2010.05.20 11:49:17.
