data_PCOD9562287
_publ_section_title
;
Structure prediction by ZEFSAII (Michael W. Deem and Ramdas Pophale) SiO2 
 PCOD9562287
Probable space group: P 4/M M M
;
_chemical_formula_sum "Si O2"
_cell_formula_units_Z 128
_cell_length_a 21.000000
_cell_length_b 21.000000
_cell_length_c 18.000000
_cell_angle_alpha 90.000000
_cell_angle_beta 90.000000
_cell_angle_gamma 90.000000
_cell_volume 7938.000000
_symmetry_space_group_name_H-M "P 4/M M M"
_symmetry_group_IT_number 123
_symmetry_cell_setting 'tetragonal'
loop_
_space_group_symop_operation_xyz
x,y,z
-y,x,z
-x,-y,z
y,-x,z
x,-y,-z
-x,y,-z
y,x,-z
-y,-x,-z
-x,-y,-z
y,-x,-z
x,y,-z
-y,x,-z
-x,y,z
x,-y,z
-y,-x,z
y,x,z
loop_
_atom_site_type_symbol
_atom_site_label
_atom_site_fract_x
_atom_site_fract_y
_atom_site_fract_z
Si Si1 0.250211 0.928352 0.815128
Si Si2 0.929805 0.613776 0.269250
Si Si3 0.317524 0.110604 0.587559
Si Si4 0.807881 0.427098 0.822316
Si Si5 0.362620 0.744847 0.583000
Si Si6 0.573566 0.317740 0.278157
Si Si7 0.293894 0.811413 0.089142
Si Si8 0.924369 0.181700 0.660646
O O1 0.318705 0.929999 0.773999
O O2 0.256554 0.871278 0.873840
O O3 0.200752 0.916636 0.747859
O O4 0.238959 0.000000 0.845765
O O5 0.923026 0.633568 0.355659
O O6 0.867522 0.579139 0.235692
O O7 0.000000 0.583881 0.256973
O O8 0.324248 0.095053 0.500000
O O9 0.334427 0.185237 0.598036
O O10 0.245511 0.095004 0.614548
O O11 0.810792 0.500000 0.853258
O O12 0.739676 0.420224 0.781246
O O13 0.811549 0.365952 0.877399
O O14 0.390714 0.745297 0.500000
O O15 0.303261 0.696740 0.583617
O O16 0.410313 0.717610 0.644194
O O17 0.500000 0.340254 0.277178
O O18 0.625226 0.374775 0.267637
O O19 0.252706 0.747295 0.106881
O O20 0.296448 0.817565 0.000000
O O21 0.877085 0.122915 0.643278
O O22 0.000000 0.169144 0.648154
#
# Coordination Sequence:
#
# PCOD9562287 Si02
#       8
#    16  16  16  16  16  16  16  16
#     4   8  16  31  50  73  99 128 162 201 249 302
#     4   9  17  30  48  72  99 127 163 208 255 298
#     4  10  18  30  48  71  97 128 168 217 268 312
#     4  10  20  35  53  73  99 135 173 206 245 296
#     4   9  17  29  47  72  98 124 159 205 254 303
#     4  10  20  34  53  76 101 131 167 206 251 302
#     4  10  20  33  52  79 107 133 162 201 249 298
#     4  10  20  32  47  68  96 133 176 220 265 314
#
# _framework density 16.124969
#
# number of rings (size 3 to 8) (size 9 to 14) (size 15 to 20)
#    0.000    2.500    1.250    2.250    0.000    3.000 
#    0.000    0.000    0.000    0.375    0.000    7.000 
#    0.000    0.000    0.000   23.250    0.000    0.000 
#
# Total GULP energy -712782.453404 kJ/mol
# GULP energy per Si atom -5568.612917 kJ/mol
# Density = 1.608827 g / cm^3
# Si number density = 16.124969 Si / 1000 Ang^3
#
#
#
# Elastic Constant Matrix: (Units=GPa)
#
#
# Indices 1 2 3 4 5 6 
#
# 1 93.3531 31.3962 31.5340 0.0000 0.0000 0.0000
# 2 31.3962 93.3531 31.5340 0.0000 0.0000 0.0000
# 3 31.5340 31.5340 74.6105 0.0000 0.0000 0.0000
# 4 0.0000 0.0000 0.0000 20.1044 0.0000 0.0000
# 5 0.0000 0.0000 0.0000 0.0000 20.1044 0.0000
# 6 0.0000 0.0000 0.0000 0.0000 0.0000 16.5169
#
#
#
# Elastic Compliance Matrix: (Units=1/GPa)
#
#
# Indices 1 2 3 4 5 6 
#
# 1 0.013167 -0.002973 -0.004309 0.000000 0.000000 0.000000
# 2 -0.002973 0.013167 -0.004309 0.000000 0.000000 0.000000
# 3 -0.004309 -0.004309 0.017045 0.000000 0.000000 0.000000
# 4 0.000000 0.000000 0.000000 0.049740 0.000000 0.000000
# 5 0.000000 0.000000 0.000000 0.000000 0.049740 0.000000
# 6 0.000000 0.000000 0.000000 0.000000 0.000000 0.060544
#
#
# Mechanical properties :
#
#
# Convention : Reuss Voigt Hill
#
# Bulk Modulus (GPa) = 49.50694 50.02725 49.76709
# Shear Modulus (GPa) = 21.43000 22.46864 21.94932
#
# Velocity S-wave (km/s) = 3.64949 3.73689 3.69345
# Velocity P-wave (km/s) = 6.96614 7.05061 7.00850
#
# Compressibility (1/GPa) = 0.02019919
#
# Stress axis : x y z
#
# Youngs Moduli (GPa) = 75.94575 75.94575 58.66820
#
# Poissons Ratio (x) = 0.22578 0.25278
# Poissons Ratio (y) = 0.22578 0.25278
# Poissons Ratio (z) = 0.32722 0.32722
#
# Static dielectric constant tensor:
#      x y z
#    x 1.542210 0.000000 0.000000 
#    y 0.000000 1.542210 0.000000 
#    z 0.000000 0.000000 1.544600 
# 
# From -- ./inp_files/5994.got.cif
#   From: 2010.05.17/outbox.ucp.g08.bks.cvg/sg123_3_cif.got.tgz:5994.got - 2010.06.11 11:35:48.
