data_PCOD9562081
_publ_section_title
;
Structure prediction by ZEFSAII (Michael W. Deem and Ramdas Pophale) SiO2 
 PCOD9562081
Probable space group: P 4/M M M
;
_chemical_formula_sum "Si O2"
_cell_formula_units_Z 64
_cell_length_a 12.785071
_cell_length_b 12.785071
_cell_length_c 24.318438
_cell_angle_alpha 90.000000
_cell_angle_beta 90.000000
_cell_angle_gamma 90.000000
_cell_volume 3975.044223
_symmetry_space_group_name_H-M "P 4/M M M"
_symmetry_group_IT_number 123
_symmetry_cell_setting 'tetragonal'
loop_
_space_group_symop_operation_xyz
x,y,z
-y,x,z
-x,-y,z
y,-x,z
x,-y,-z
-x,y,-z
y,x,-z
-y,-x,-z
-x,-y,-z
y,-x,-z
x,y,-z
-y,x,-z
-x,y,z
x,-y,z
-y,-x,z
y,x,z
loop_
_atom_site_type_symbol
_atom_site_label
_atom_site_fract_x
_atom_site_fract_y
_atom_site_fract_z
Si Si1 0.000000 0.627105 0.631972
Si Si2 0.627026 0.000000 0.241840
Si Si3 0.704396 0.876108 0.937773
Si Si4 0.205694 0.622446 0.565318
Si Si5 0.205277 0.621272 0.174013
O O1 0.895280 0.657752 0.599647
O O2 0.000000 0.500000 0.632025
O O3 0.000000 0.662491 0.695072
O O4 0.657635 0.105368 0.209873
O O5 0.500000 0.000000 0.241530
O O6 0.814224 0.814224 0.933575
O O7 0.633253 0.829720 0.889593
O O8 0.716683 0.000000 0.930118
O O9 0.664220 0.858464 0.000000
O O10 0.182953 0.629822 0.500000
O O11 0.226635 0.500000 0.577362
O O12 0.304830 0.695171 0.577317
O O13 0.227452 0.500000 0.186357
O O14 0.303619 0.696382 0.183717
#
# Coordination Sequence:
#
# PCOD9562081 Si02
#       5
#     8   8  16  16  16
#     4   9  17  30  49  70  94 127 166 203 240 284
#     4   9  18  33  51  70  92 123 164 207 245 282
#     4   9  17  29  47  72 100 130 164 202 246 295
#     4   9  17  29  47  73 103 133 165 201 241 285
#     4  10  20  34  51  72  99 128 161 200 242 291
#
# _framework density 16.100449000000001
#
# number of rings (size 3 to 8) (size 9 to 14) (size 15 to 20)
#    0.000    2.750    1.250    0.375    0.000    3.750 
#    0.000    3.750    0.000    0.750    0.000   14.000 
#    0.000    0.000    0.000    0.000    0.000    0.000 
#
# Total GULP energy -356481.864743 kJ/mol
# GULP energy per Si atom -5570.029137 kJ/mol
# Density = 1.606380 g / cm^3
# Si number density = 16.100449 Si / 1000 Ang^3
#
#
#
# Elastic Constant Matrix: (Units=GPa)
#
#
# Indices 1 2 3 4 5 6 
#
# 1 90.4433 57.2530 51.2031 0.0000 0.0000 0.0000
# 2 57.2530 90.4433 51.2031 0.0000 0.0000 0.0000
# 3 51.2031 51.2031 81.2538 0.0000 0.0000 0.0000
# 4 0.0000 0.0000 0.0000 15.4968 0.0000 0.0000
# 5 0.0000 0.0000 0.0000 0.0000 15.4968 0.0000
# 6 0.0000 0.0000 0.0000 0.0000 0.0000 6.1150
#
#
#
# Elastic Compliance Matrix: (Units=1/GPa)
#
#
# Indices 1 2 3 4 5 6 
#
# 1 0.021077 -0.009052 -0.007577 0.000000 0.000000 0.000000
# 2 -0.009052 0.021077 -0.007577 0.000000 0.000000 0.000000
# 3 -0.007577 -0.007577 0.021857 0.000000 0.000000 0.000000
# 4 0.000000 0.000000 0.000000 0.064529 0.000000 0.000000
# 5 0.000000 0.000000 0.000000 0.000000 0.064529 0.000000
# 6 0.000000 0.000000 0.000000 0.000000 0.000000 0.163533
#
#
# Mechanical properties :
#
#
# Convention : Reuss Voigt Hill
#
# Bulk Modulus (GPa) = 64.11684 64.60653 64.36169
# Shear Modulus (GPa) = 12.18871 14.25381 13.22126
#
# Velocity S-wave (km/s) = 2.75442 2.97864 2.86872
# Velocity P-wave (km/s) = 7.07285 7.21415 7.14385
#
# Compressibility (1/GPa) = 0.01559653
#
# Stress axis : x y z
#
# Youngs Moduli (GPa) = 47.44541 47.44541 45.75181
#
# Poissons Ratio (x) = 0.42949 0.34668
# Poissons Ratio (y) = 0.42949 0.34668
# Poissons Ratio (z) = 0.35951 0.35951
#
# Static dielectric constant tensor:
#      x y z
#    x 1.518900 0.000000 0.000000 
#    y 0.000000 1.518900 0.000000 
#    z 0.000000 0.000000 1.554890 
# 
# From -- ./inp_files/7054.got.cif
#   From: 2010.05.17/outbox.cif.g08.bks.cpg/sg123_4_cif.got.tgz:7054.got - 2010.05.20 11:43:04.
