data_PCOD9562737
_publ_section_title
;
Structure prediction by ZEFSAII (Michael W. Deem and Ramdas Pophale) SiO2 
 PCOD9562737
Probable space group: P 4/M C C
;
_chemical_formula_sum "Si O2"
_cell_formula_units_Z 96
_cell_length_a 14.901134
_cell_length_b 14.901134
_cell_length_c 21.422275
_cell_angle_alpha 90.000000
_cell_angle_beta 90.000000
_cell_angle_gamma 90.000000
_cell_volume 4756.683228
_symmetry_space_group_name_H-M "P 4/M C C"
_symmetry_group_IT_number 124
_symmetry_cell_setting 'tetragonal'
loop_
_space_group_symop_operation_xyz
x,y,z
-y,x,z
-x,-y,z
y,-x,z
x,-y,1/2-z
-x,y,1/2-z
y,x,1/2-z
-y,-x,1/2-z
-x,-y,-z
y,-x,-z
x,y,-z
-y,x,-z
-x,y,1/2+z
x,-y,1/2+z
-y,-x,1/2+z
y,x,1/2+z
loop_
_atom_site_type_symbol
_atom_site_label
_atom_site_fract_x
_atom_site_fract_y
_atom_site_fract_z
Si Si1 0.876453 0.288701 0.867076
Si Si2 0.005121 0.145977 0.675680
Si Si3 0.092035 0.735746 0.000000
Si Si4 0.615082 0.402297 0.676195
Si Si5 0.107934 0.399069 0.246995
Si Si6 0.794387 0.311164 0.370284
Si Si7 0.256389 0.875777 0.000000
O O1 0.970859 0.237726 0.856729
O O2 0.880422 0.318561 0.938200
O O3 0.862272 0.356518 0.811751
O O4 0.793697 0.221798 0.858453
O O5 0.919464 0.087780 0.659946
O O6 0.000000 0.161229 0.750000
O O7 0.158097 0.824343 0.000000
O O8 0.984557 0.754708 0.000000
O O9 0.622013 0.510094 0.664849
O O10 0.623975 0.376026 0.750000
O O11 0.694962 0.355682 0.637047
O O12 0.141028 0.500000 0.250000
O O13 0.146002 0.351655 0.185521
O O14 0.000000 0.397386 0.250000
O O15 0.841052 0.310315 0.438439
#
# Coordination Sequence:
#
# PCOD9562737 Si02
#       7
#    16  16   8  16  16  16   8
#     4  11  23  38  63  89 120 172 207 266 322 378
#     4   9  20  33  52  85 121 155 201 260 320 372
#     4  10  24  41  63  88 132 167 226 267 317 394
#     4   9  19  37  67 103 132 157 199 270 342 398
#     4  11  25  40  61  93 124 161 215 268 316 384
#     4  11  24  40  65  92 127 171 214 263 329 389
#     4  10  24  45  61  95 125 184 219 268 327 377
#
# _framework density 20.182129
#
# number of rings (size 3 to 8) (size 9 to 14) (size 15 to 20)
#    0.000    1.833    0.000    4.000   16.333    0.167 
#    0.000    1.667    0.000    4.000    0.000    0.000 
#    0.000    0.000    0.000    0.000    0.000    0.000 
#
# Total GULP energy -535352.154194 kJ/mol
# GULP energy per Si atom -5576.584940 kJ/mol
# Density = 2.013619 g / cm^3
# Si number density = 20.182129 Si / 1000 Ang^3
#
#
#
# Elastic Constant Matrix: (Units=GPa)
#
#
# Indices 1 2 3 4 5 6 
#
# 1 86.4349 26.0472 81.4170 0.0000 0.0000 0.0000
# 2 26.0472 86.4349 81.4170 0.0000 0.0000 0.0000
# 3 81.4170 81.4170 164.6844 0.0000 0.0000 0.0000
# 4 0.0000 0.0000 0.0000 13.7250 0.0000 0.0000
# 5 0.0000 0.0000 0.0000 0.0000 13.7250 0.0000
# 6 0.0000 0.0000 0.0000 0.0000 0.0000 38.9295
#
#
#
# Elastic Compliance Matrix: (Units=1/GPa)
#
#
# Indices 1 2 3 4 5 6 
#
# 1 0.023915 0.007355 -0.015459 0.000000 0.000000 0.000000
# 2 0.007355 0.023915 -0.015459 0.000000 0.000000 0.000000
# 3 -0.015459 -0.015459 0.021358 0.000000 0.000000 0.000000
# 4 0.000000 0.000000 0.000000 0.072860 0.000000 0.000000
# 5 0.000000 0.000000 0.000000 0.000000 0.072860 0.000000
# 6 0.000000 0.000000 0.000000 0.000000 0.000000 0.025687
#
#
# Mechanical properties :
#
#
# Convention : Reuss Voigt Hill
#
# Bulk Modulus (GPa) = 45.33022 79.47962 62.40492
# Shear Modulus (GPa) = 16.94493 23.18746 20.06619
#
# Velocity S-wave (km/s) = 2.90073 3.39324 3.15660
# Velocity P-wave (km/s) = 5.80761 7.40397 6.65384
#
# Compressibility (1/GPa) = 0.02206034
#
# Stress axis : x y z
#
# Youngs Moduli (GPa) = 41.81543 41.81546 46.82170
#
# Poissons Ratio (x) = -0.30755 0.72382
# Poissons Ratio (y) = -0.30755 0.72382
# Poissons Ratio (z) = 0.64643 0.64643
#
# Static dielectric constant tensor:
#      x y z
#    x 1.738810 0.000000 0.000000 
#    y 0.000000 1.738810 0.000000 
#    z 0.000000 0.000000 1.757080 
# 
# From -- ./inp_files/5347.got.cif
#   From: 2010.05.17/outbox.cif.g08.bks.cpg/sg124_3_cif.got.tgz:5347.got - 2010.05.20 11:49:17.
