data_PCOD9562345
_publ_section_title
;
Structure prediction by ZEFSAII (Michael W. Deem and Ramdas Pophale) SiO2 
 PCOD9562345
Probable space group: P 4/M C C
;
_chemical_formula_sum "Si O2"
_cell_formula_units_Z 96
_cell_length_a 17.129301
_cell_length_b 17.129301
_cell_length_c 19.862512
_cell_angle_alpha 90.000000
_cell_angle_beta 90.000000
_cell_angle_gamma 90.000000
_cell_volume 5827.918295
_symmetry_space_group_name_H-M "P 4/M C C"
_symmetry_group_IT_number 124
_symmetry_cell_setting 'tetragonal'
loop_
_space_group_symop_operation_xyz
x,y,z
-y,x,z
-x,-y,z
y,-x,z
x,-y,1/2-z
-x,y,1/2-z
y,x,1/2-z
-y,-x,1/2-z
-x,-y,-z
y,-x,-z
x,y,-z
-y,x,-z
-x,y,1/2+z
x,-y,1/2+z
-y,-x,1/2+z
y,x,1/2+z
loop_
_atom_site_type_symbol
_atom_site_label
_atom_site_fract_x
_atom_site_fract_y
_atom_site_fract_z
Si Si1 0.729394 0.766900 0.681862
Si Si2 0.968847 0.768616 0.074730
Si Si3 0.160812 0.367332 0.075179
Si Si4 0.468424 0.919291 0.421388
Si Si5 0.300872 0.141026 0.920200
Si Si6 0.815882 0.076331 0.788163
O O1 0.718161 0.718161 0.750000
O O2 0.656290 0.780970 0.633957
O O3 0.796828 0.736596 0.630902
O O4 0.755240 0.852047 0.710495
O O5 0.915483 0.689824 0.080931
O O6 0.944368 0.826304 0.133852
O O7 0.059015 0.745228 0.082326
O O8 0.954582 0.799706 0.000000
O O9 0.136125 0.456846 0.079883
O O10 0.192318 0.352509 0.000000
O O11 0.448753 0.937890 0.500000
O O12 0.389043 0.879965 0.396750
O O13 0.500000 0.000000 0.389903
O O14 0.300684 0.165762 0.000000
O O15 0.891560 0.108441 0.750000
O O16 0.785660 0.000000 0.750000
#
# Coordination Sequence:
#
# PCOD9562345 Si02
#       6
#    16  16  16  16  16  16
#     4  10  20  32  46  65  94 131 165 206 242 295
#     4   9  16  27  47  70  91 116 153 203 247 292
#     4   9  16  28  46  69  96 125 158 198 246 292
#     4   9  15  27  49  77 102 125 156 201 254 308
#     4  10  18  30  51  75  98 125 162 202 251 309
#     4  10  20  34  47  61  83 120 164 208 253 298
#
# _framework density 16.472432999999999
#
# number of rings (size 3 to 8) (size 9 to 14) (size 15 to 20)
#    0.000    2.500    1.667    2.500    0.000    0.833 
#    0.000    1.667    0.000    1.000    0.000    3.500 
#    0.000    0.667    0.000    7.667    0.000    3.000 
#
# Total GULP energy -534440.719119 kJ/mol
# GULP energy per Si atom -5567.090824 kJ/mol
# Density = 1.643494 g / cm^3
# Si number density = 16.472433 Si / 1000 Ang^3
#
#
#
# Elastic Constant Matrix: (Units=GPa)
#
#
# Indices 1 2 3 4 5 6 
#
# 1 36.7867 14.2685 22.4144 0.0000 0.0000 0.0000
# 2 14.2685 36.7871 22.4151 0.0000 0.0000 0.0000
# 3 22.4144 22.4151 97.5075 0.0000 0.0000 0.0000
# 4 0.0000 0.0000 0.0000 13.8239 0.0000 0.0000
# 5 0.0000 0.0000 0.0000 0.0000 13.8238 0.0000
# 6 0.0000 0.0000 0.0000 0.0000 0.0000 8.4996
#
#
#
# Elastic Compliance Matrix: (Units=1/GPa)
#
#
# Indices 1 2 3 4 5 6 
#
# 1 0.034474 -0.009934 -0.005641 0.000000 0.000000 0.000000
# 2 -0.009934 0.034474 -0.005641 0.000000 0.000000 0.000000
# 3 -0.005641 -0.005641 0.012849 0.000000 0.000000 0.000000
# 4 0.000000 0.000000 0.000000 0.072339 0.000000 0.000000
# 5 0.000000 0.000000 0.000000 0.000000 0.072339 0.000000
# 6 0.000000 0.000000 0.000000 0.000000 0.000000 0.117652
#
#
# Mechanical properties :
#
#
# Convention : Reuss Voigt Hill
#
# Bulk Modulus (GPa) = 25.40377 32.14190 28.77284
# Shear Modulus (GPa) = 12.50996 14.69500 13.60248
#
# Velocity S-wave (km/s) = 2.75880 2.99004 2.87674
# Velocity P-wave (km/s) = 5.05998 5.61029 5.34223
#
# Compressibility (1/GPa) = 0.03936424
#
# Stress axis : x y z
#
# Youngs Moduli (GPa) = 29.00734 29.00742 77.82609
#
# Poissons Ratio (x) = 0.28816 0.43902
# Poissons Ratio (y) = 0.28816 0.43904
# Poissons Ratio (z) = 0.16363 0.16364
#
# Static dielectric constant tensor:
#      x y z
#    x 1.563840 0.000000 0.000000 
#    y 0.000000 1.563830 0.000000 
#    z 0.000000 0.000000 1.614340 
# 
# From -- ./inp_files/5453.got.cif
#   From: 2010.05.17/outbox.cif.g08.bks.cpg/sg124_3_cif.got.tgz:5453.got - 2010.05.20 11:49:17.
