data_PCOD9562143
_publ_section_title
;
Structure prediction by ZEFSAII (Michael W. Deem and Ramdas Pophale) SiO2 
 PCOD9562143
Probable space group: P 4/M M M
;
_chemical_formula_sum "Si O2"
_cell_formula_units_Z 88
_cell_length_a 14.717718
_cell_length_b 14.717718
_cell_length_c 20.896751
_cell_angle_alpha 90.000000
_cell_angle_beta 90.000000
_cell_angle_gamma 90.000000
_cell_volume 4526.470794
_symmetry_space_group_name_H-M "P 4/M M M"
_symmetry_group_IT_number 123
_symmetry_cell_setting 'tetragonal'
loop_
_space_group_symop_operation_xyz
x,y,z
-y,x,z
-x,-y,z
y,-x,z
x,-y,-z
-x,y,-z
y,x,-z
-y,-x,-z
-x,-y,-z
y,-x,-z
x,y,-z
-y,x,-z
-x,y,z
x,-y,z
-y,-x,z
y,x,z
loop_
_atom_site_type_symbol
_atom_site_label
_atom_site_fract_x
_atom_site_fract_y
_atom_site_fract_z
Si Si1 0.751343 0.897665 0.207078
Si Si2 0.842998 0.301270 0.926792
Si Si3 0.750878 0.103160 0.423152
Si Si4 0.102956 0.500000 0.076728
Si Si5 0.396672 0.749673 0.395639
Si Si6 0.396138 0.749762 0.758225
O O1 0.838577 0.838577 0.227098
O O2 0.748076 0.897628 0.129347
O O3 0.663338 0.839287 0.227403
O O4 0.750478 0.000000 0.230946
O O5 0.743723 0.256278 0.925116
O O6 0.846315 0.406903 0.909234
O O7 0.877330 0.290292 0.000000
O O8 0.760665 0.098703 0.500000
O O9 0.833383 0.166618 0.398293
O O10 0.658415 0.158288 0.410203
O O11 0.751094 0.000000 0.398535
O O12 0.000000 0.500000 0.104071
O O13 0.093586 0.500000 0.000000
O O14 0.500000 0.748893 0.419726
O O15 0.333644 0.666357 0.419442
O O16 0.400400 0.741981 0.318706
O O17 0.500000 0.752641 0.781718
O O18 0.335932 0.664069 0.781965
#
# Coordination Sequence:
#
# PCOD9562143 Si02
#       6
#    16  16  16   8  16  16
#     4  10  21  35  51  72  98 128 163 203 245 292
#     4   9  18  32  49  70  97 126 156 196 243 287
#     4   9  18  32  50  73 101 134 172 213 255 297
#     4   9  16  26  44  69  91 115 151 188 225 275
#     4   9  18  33  52  74 102 133 165 204 247 293
#     4   9  19  35  54  77 102 129 163 202 246 294
#
# _framework density 19.441195
#
# number of rings (size 3 to 8) (size 9 to 14) (size 15 to 20)
#    0.000    2.818    0.000    0.545    1.273    3.636 
#    0.000    5.455    0.000    0.273    0.000   12.091 
#    0.000    0.000    0.000    0.000    0.000    0.000 
#
# Total GULP energy -490417.854173 kJ/mol
# GULP energy per Si atom -5572.930161 kJ/mol
# Density = 1.939695 g / cm^3
# Si number density = 19.441195 Si / 1000 Ang^3
#
#
#
# Elastic Constant Matrix: (Units=GPa)
#
#
# Indices 1 2 3 4 5 6 
#
# 1 179.8877 104.9314 4.2870 0.0000 0.0000 0.0000
# 2 104.9314 179.8877 4.2870 0.0000 0.0000 0.0000
# 3 4.2870 4.2870 42.1210 0.0000 0.0000 0.0000
# 4 0.0000 0.0000 0.0000 16.2811 0.0000 0.0000
# 5 0.0000 0.0000 0.0000 0.0000 16.2811 0.0000
# 6 0.0000 0.0000 0.0000 0.0000 0.0000 5.0316
#
#
#
# Elastic Compliance Matrix: (Units=1/GPa)
#
#
# Indices 1 2 3 4 5 6 
#
# 1 0.008431 -0.004910 -0.000358 0.000000 0.000000 0.000000
# 2 -0.004910 0.008431 -0.000358 0.000000 0.000000 0.000000
# 3 -0.000358 -0.000358 0.023814 0.000000 0.000000 0.000000
# 4 0.000000 0.000000 0.000000 0.061421 0.000000 0.000000
# 5 0.000000 0.000000 0.000000 0.000000 0.061421 0.000000
# 6 0.000000 0.000000 0.000000 0.000000 0.000000 0.198743
#
#
# Mechanical properties :
#
#
# Convention : Reuss Voigt Hill
#
# Bulk Modulus (GPa) = 33.98600 69.87860 51.93230
# Shear Modulus (GPa) = 13.04382 26.74483 19.89432
#
# Velocity S-wave (km/s) = 2.59306 3.71304 3.20239
# Velocity P-wave (km/s) = 5.14632 7.37589 6.35958
#
# Compressibility (1/GPa) = 0.02942388
#
# Stress axis : x y z
#
# Youngs Moduli (GPa) = 118.60365 118.60365 41.99197
#
# Poissons Ratio (x) = 0.58230 0.01505
# Poissons Ratio (y) = 0.58230 0.01505
# Poissons Ratio (z) = 0.04251 0.04251
#
# Static dielectric constant tensor:
#      x y z
#    x 1.675290 0.000000 0.000000 
#    y 0.000000 1.675290 0.000000 
#    z 0.000000 0.000000 1.749820 
# 
# From -- ./inp_files/6356.got.cif
#   From: 2010.05.17/outbox.cif.g08.bks.cpg/sg123_4_cif.got.tgz:6356.got - 2010.05.20 11:43:04.
