data_PCOD9562694
_publ_section_title
;
Structure prediction by ZEFSAII (Michael W. Deem and Ramdas Pophale) SiO2 
 PCOD9562694
Probable space group: P 4/M C C
;
_chemical_formula_sum "Si O2"
_cell_formula_units_Z 112
_cell_length_a 15.160168
_cell_length_b 15.160168
_cell_length_c 24.386239
_cell_angle_alpha 90.000000
_cell_angle_beta 90.000000
_cell_angle_gamma 90.000000
_cell_volume 5604.706228
_symmetry_space_group_name_H-M "P 4/M C C"
_symmetry_group_IT_number 124
_symmetry_cell_setting 'tetragonal'
loop_
_space_group_symop_operation_xyz
x,y,z
-y,x,z
-x,-y,z
y,-x,z
x,-y,1/2-z
-x,y,1/2-z
y,x,1/2-z
-y,-x,1/2-z
-x,-y,-z
y,-x,-z
x,y,-z
-y,x,-z
-x,y,1/2+z
x,-y,1/2+z
-y,-x,1/2+z
y,x,1/2+z
loop_
_atom_site_type_symbol
_atom_site_label
_atom_site_fract_x
_atom_site_fract_y
_atom_site_fract_z
Si Si1 0.902007 0.680937 0.753137
Si Si2 0.238262 0.109525 0.868088
Si Si3 0.611368 0.582428 0.434915
Si Si4 0.089982 0.749295 0.626142
Si Si5 0.267642 0.591017 0.768453
Si Si6 0.790549 0.594384 0.394059
Si Si7 0.441257 0.912319 0.065728
O O1 0.885732 0.738265 0.697706
O O2 0.900033 0.736403 0.808425
O O3 0.827076 0.607904 0.758945
O O4 0.000000 0.641704 0.750000
O O5 0.165884 0.180258 0.887030
O O6 0.331230 0.134925 0.895607
O O7 0.215147 0.009195 0.882426
O O8 0.518694 0.619236 0.413437
O O9 0.601484 0.580041 0.500000
O O10 0.702778 0.628783 0.423684
O O11 0.094414 0.652910 0.596927
O O12 0.309326 0.500000 0.750000
O O13 0.328719 0.671282 0.750000
O O14 0.244093 0.585993 0.832119
O O15 0.830373 0.504457 0.417894
O O16 0.500000 0.000000 0.079761
O O17 0.426824 0.912788 0.000000
#
# Coordination Sequence:
#
# PCOD9562694 Si02
#       7
#    16  16  16  16  16  16  16
#     4   9  19  37  63  91 125 164 210 264 319 391
#     4  10  22  37  62  96 124 172 213 259 327 392
#     4   9  20  37  57  85 116 150 199 258 315 372
#     4  11  21  41  64  91 133 168 210 270 327 389
#     4  11  24  38  54  85 124 166 210 254 308 385
#     4  11  22  38  62  87 120 162 212 259 324 379
#     4  11  24  43  65  93 127 165 217 278 329 378
#
# _framework density 19.983207
#
# number of rings (size 3 to 8) (size 9 to 14) (size 15 to 20)
#    0.000    1.714    1.429    3.857    4.000    0.714 
#    0.000    1.429    0.000    2.571    0.000    1.000 
#    0.000    0.000    0.000    0.000    0.000    0.000 
#
# Total GULP energy -624518.850713 kJ/mol
# GULP energy per Si atom -5576.061167 kJ/mol
# Density = 1.993772 g / cm^3
# Si number density = 19.983207 Si / 1000 Ang^3
#
#
#
# Elastic Constant Matrix: (Units=GPa)
#
#
# Indices 1 2 3 4 5 6 
#
# 1 87.9800 52.9497 22.3384 0.0000 0.0000 0.0000
# 2 52.9497 87.9739 22.3429 0.0000 0.0000 0.0000
# 3 22.3384 22.3429 18.8744 0.0000 0.0000 0.0000
# 4 0.0000 0.0000 0.0000 11.2142 0.0000 0.0000
# 5 0.0000 0.0000 0.0000 0.0000 11.2069 0.0000
# 6 0.0000 0.0000 0.0000 0.0000 0.0000 5.9960
#
#
#
# Elastic Compliance Matrix: (Units=1/GPa)
#
#
# Indices 1 2 3 4 5 6 
#
# 1 0.019951 -0.008595 -0.013438 0.000000 0.000000 0.000000
# 2 -0.008595 0.019957 -0.013451 0.000000 0.000000 0.000000
# 3 -0.013438 -0.013451 0.084809 0.000000 0.000000 0.000000
# 4 0.000000 0.000000 0.000000 0.089173 0.000000 0.000000
# 5 0.000000 0.000000 0.000000 0.000000 0.089231 0.000000
# 6 0.000000 0.000000 0.000000 0.000000 0.000000 0.166777
#
#
# Mechanical properties :
#
#
# Convention : Reuss Voigt Hill
#
# Bulk Modulus (GPa) = 18.60531 43.34338 30.97434
# Shear Modulus (GPa) = 8.94804 12.16325 10.55565
#
# Velocity S-wave (km/s) = 2.11837 2.46981 2.30081
# Velocity P-wave (km/s) = 3.91331 5.46537 4.75312
#
# Compressibility (1/GPa) = 0.05374810
#
# Stress axis : x y z
#
# Youngs Moduli (GPa) = 50.12237 50.10881 11.79118
#
# Poissons Ratio (x) = 0.43070 0.15845
# Poissons Ratio (y) = 0.43082 0.15860
# Poissons Ratio (z) = 0.67354 0.67402
#
# Static dielectric constant tensor:
#      x y z
#    x 1.734690 0.000000 0.000000 
#    y 0.000000 1.734690 0.000000 
#    z 0.000000 0.000000 1.633470 
# 
# From -- ./inp_files/6615.got.cif
#   From: 2010.05.17/outbox.cif.g08.bks.cpg/sg124_4_cif.got.tgz:6615.got - 2010.05.20 11:49:17.
