data_PCOD9562654
_publ_section_title
;
Structure prediction by ZEFSAII (Michael W. Deem and Ramdas Pophale) SiO2 
 PCOD9562654
Probable space group: P 4/M C C
;
_chemical_formula_sum "Si O2"
_cell_formula_units_Z 96
_cell_length_a 15.932235
_cell_length_b 15.932235
_cell_length_c 20.822363
_cell_angle_alpha 90.000000
_cell_angle_beta 90.000000
_cell_angle_gamma 90.000000
_cell_volume 5285.467669
_symmetry_space_group_name_H-M "P 4/M C C"
_symmetry_group_IT_number 124
_symmetry_cell_setting 'tetragonal'
loop_
_space_group_symop_operation_xyz
x,y,z
-y,x,z
-x,-y,z
y,-x,z
x,-y,1/2-z
-x,y,1/2-z
y,x,1/2-z
-y,-x,1/2-z
-x,-y,-z
y,-x,-z
x,y,-z
-y,x,-z
-x,y,1/2+z
x,-y,1/2+z
-y,-x,1/2+z
y,x,1/2+z
loop_
_atom_site_type_symbol
_atom_site_label
_atom_site_fract_x
_atom_site_fract_y
_atom_site_fract_z
Si Si1 0.640479 0.500000 0.136567
Si Si2 0.775857 0.500000 0.250000
Si Si3 0.677627 0.818984 0.500000
Si Si4 0.732287 0.500000 0.500000
Si Si5 0.762092 0.902244 0.120592
Si Si6 0.322374 0.818984 0.500000
Si Si7 0.097756 0.762092 0.620592
Si Si8 0.344562 0.902734 0.250000
O O1 0.581209 0.581209 0.146026
O O2 0.715642 0.500000 0.187717
O O3 0.676150 0.500000 0.064294
O O4 0.836143 0.580743 0.250000
O O5 0.582437 0.789633 0.500000
O O6 0.735903 0.735903 0.500000
O O7 0.703027 0.871438 0.562675
O O8 0.789633 0.582437 0.500000
O O9 0.703026 0.871438 0.062675
O O10 0.844099 0.844099 0.119820
O O11 0.712545 0.891153 0.187118
O O12 0.783003 0.000000 0.112837
O O13 0.108847 0.712545 0.687118
O O14 0.374976 0.000000 0.250000
#
# Coordination Sequence:
#
# PCOD9562654 Si02
#       8
#    16   8   8   8  16   8  16  16
#     4  11  24  39  56  84 117 146 186 238 280 323
#     4  12  23  39  62  82 110 156 194 223 279 344
#     4  10  21  37  57  84 114 145 187 233 277 332
#     4  12  22  37  61  84 110 154 194 224 281 343
#     4  10  21  38  59  84 115 148 185 233 284 334
#     4  10  21  37  57  84 114 145 187 233 277 332
#     4  10  21  38  59  84 115 148 185 233 284 334
#     4  10  22  38  57  84 115 146 186 235 278 326
#
# _framework density 18.16301
#
# number of rings (size 3 to 8) (size 9 to 14) (size 15 to 20)
#    0.000    1.500    0.000    5.250    0.000    7.000 
#    0.000    3.333    0.000    6.000    0.000    0.000 
#    0.000    0.000    0.000    0.000    0.000    0.000 
#
# Total GULP energy -536696.113648 kJ/mol
# GULP energy per Si atom -5590.584517 kJ/mol
# Density = 1.812167 g / cm^3
# Si number density = 18.163010 Si / 1000 Ang^3
#
#
#
# Elastic Constant Matrix: (Units=GPa)
#
#
# Indices 1 2 3 4 5 6 
#
# 1 143.4362 83.7405 59.3730 0.0000 0.0000 0.0000
# 2 83.7405 143.4362 59.3730 0.0000 0.0000 0.0000
# 3 59.3730 59.3730 141.3757 0.0000 0.0000 0.0000
# 4 0.0000 0.0000 0.0000 18.3922 0.0000 0.0000
# 5 0.0000 0.0000 0.0000 0.0000 18.3922 0.0000
# 6 0.0000 0.0000 0.0000 0.0000 0.0000 12.5414
#
#
#
# Elastic Compliance Matrix: (Units=1/GPa)
#
#
# Indices 1 2 3 4 5 6 
#
# 1 0.011196 -0.005556 -0.002369 0.000000 0.000000 0.000000
# 2 -0.005556 0.011196 -0.002369 0.000000 0.000000 0.000000
# 3 -0.002369 -0.002369 0.009063 0.000000 0.000000 0.000000
# 4 0.000000 0.000000 0.000000 0.054371 0.000000 0.000000
# 5 0.000000 0.000000 0.000000 0.000000 0.054371 0.000000
# 6 0.000000 0.000000 0.000000 0.000000 0.000000 0.079736
#
#
# Mechanical properties :
#
#
# Convention : Reuss Voigt Hill
#
# Bulk Modulus (GPa) = 92.01040 92.58011 92.29525
# Shear Modulus (GPa) = 20.47999 24.91593 22.69796
#
# Velocity S-wave (km/s) = 3.36157 3.70779 3.53892
# Velocity P-wave (km/s) = 8.11387 8.33143 8.22337
#
# Compressibility (1/GPa) = 0.01086834
#
# Stress axis : x y z
#
# Youngs Moduli (GPa) = 89.31935 89.31935 110.34125
#
# Poissons Ratio (x) = 0.49625 0.26135
# Poissons Ratio (y) = 0.49625 0.26135
# Poissons Ratio (z) = 0.21156 0.21156
#
# Static dielectric constant tensor:
#      x y z
#    x 1.592750 0.000000 0.000000 
#    y 0.000000 1.592750 0.000000 
#    z 0.000000 0.000000 1.607290 
# 
# From -- ./inp_files/5391.got.cif
#   From: 2010.05.17/outbox.cif.g08.bks.cpg/sg124_3_cif.got.tgz:5391.got - 2010.05.20 11:49:17.
