data_PCOD9562829
_publ_section_title
;
Structure prediction by ZEFSAII (Michael W. Deem and Ramdas Pophale) SiO2 
 PCOD9562829
Probable space group: P 4/M C C
;
_chemical_formula_sum "Si O2"
_cell_formula_units_Z 80
_cell_length_a 22.367161
_cell_length_b 22.367161
_cell_length_c 10.297191
_cell_angle_alpha 90.000000
_cell_angle_beta 90.000000
_cell_angle_gamma 90.000000
_cell_volume 5151.580565
_symmetry_space_group_name_H-M "P 4/M C C"
_symmetry_group_IT_number 124
_symmetry_cell_setting 'tetragonal'
loop_
_space_group_symop_operation_xyz
x,y,z
-y,x,z
-x,-y,z
y,-x,z
x,-y,1/2-z
-x,y,1/2-z
y,x,1/2-z
-y,-x,1/2-z
-x,-y,-z
y,-x,-z
x,y,-z
-y,x,-z
-x,y,1/2+z
x,-y,1/2+z
-y,-x,1/2+z
y,x,1/2+z
loop_
_atom_site_type_symbol
_atom_site_label
_atom_site_fract_x
_atom_site_fract_y
_atom_site_fract_z
Si Si1 0.553682 0.120276 0.153321
Si Si2 0.371220 0.628781 0.250000
Si Si3 0.433155 0.425509 0.000000
Si Si4 0.377659 0.758750 0.847886
Si Si5 0.946068 0.680422 0.152021
Si Si6 0.824264 0.250283 0.651328
O O1 0.500000 0.104137 0.250000
O O2 0.576055 0.188028 0.181258
O O3 0.613222 0.080152 0.170760
O O4 0.536916 0.116691 0.000000
O O5 0.405006 0.604254 0.374369
O O6 0.383028 0.699305 0.234943
O O7 0.504288 0.418878 0.000000
O O8 0.311022 0.785458 0.833047
O O9 0.385055 0.743159 0.000000
O O10 0.891907 0.727114 0.174411
O O11 0.000000 0.690462 0.250000
O O12 0.963491 0.685073 0.000000
O O13 0.798646 0.201355 0.750000
O O14 0.819042 0.231665 0.500000
#
# Coordination Sequence:
#
# PCOD9562829 Si02
#       6
#    16   8   8  16  16  16
#     4   9  19  35  50  70 101 132 164 210 254 295
#     4  12  20  37  60  72  88 120 154 198 257 310
#     4  11  26  42  52  66  88 116 154 198 250 314
#     4   9  18  34  51  74  98 119 152 197 249 306
#     4   9  19  34  51  72 103 139 175 211 248 292
#     4   9  17  31  52  74 104 133 159 203 251 289
#
# _framework density 15.529214
#
# number of rings (size 3 to 8) (size 9 to 14) (size 15 to 20)
#    0.000    2.500    2.000    3.000    0.000    4.400 
#    1.800    4.000    0.000    0.000    0.000    0.000 
#    0.000    0.400    0.000    4.400    0.000    3.200 
#
# Total GULP energy -446058.428521 kJ/mol
# GULP energy per Si atom -5575.730357 kJ/mol
# Density = 1.549387 g / cm^3
# Si number density = 15.529214 Si / 1000 Ang^3
#
#
#
# Elastic Constant Matrix: (Units=GPa)
#
#
# Indices 1 2 3 4 5 6 
#
# 1 153.2021 -27.8166 73.1474 0.0000 0.0000 0.0000
# 2 -27.8166 153.2035 73.1475 0.0000 0.0000 0.0000
# 3 73.1474 73.1475 125.3592 0.0000 0.0000 0.0000
# 4 0.0000 0.0000 0.0000 -13.5871 0.0000 0.0000
# 5 0.0000 0.0000 0.0000 0.0000 -13.5860 0.0000
# 6 0.0000 0.0000 0.0000 0.0000 0.0000 10.9628
#
#
#
# Elastic Compliance Matrix: (Units=1/GPa)
#
#
# Indices 1 2 3 4 5 6 
#
# 1 0.015255 0.009731 -0.014579 0.000000 0.000000 0.000000
# 2 0.009731 0.015255 -0.014579 0.000000 0.000000 0.000000
# 3 -0.014579 -0.014579 0.024991 0.000000 0.000000 0.000000
# 4 0.000000 0.000000 0.000000 -0.073599 0.000000 0.000000
# 5 0.000000 0.000000 0.000000 0.000000 -0.073605 0.000000
# 6 0.000000 0.000000 0.000000 0.000000 0.000000 0.091218
#
#
# Mechanical properties :
#
#
# Convention : Reuss Voigt Hill
#
# Bulk Modulus (GPa) = 60.07576 74.30239 67.18907
# Shear Modulus (GPa) = 113.84690 17.64371 65.74531
#
# Velocity S-wave (km/s) = 8.57150 3.37436 6.51371
# Velocity P-wave (km/s) = 11.69318 7.94559 9.99657
#
# Compressibility (1/GPa) = 0.01664565
#
# Stress axis : x y z
#
# Youngs Moduli (GPa) = 65.55169 65.55245 40.01407
#
# Poissons Ratio (x) = -0.63788 0.58338
# Poissons Ratio (y) = -0.63787 0.58338
# Poissons Ratio (z) = 0.95570 0.95571
#
# Static dielectric constant tensor:
#      x y z
#    x 1.505350 0.000000 0.000000 
#    y 0.000000 1.505350 0.000000 
#    z 0.000000 0.000000 1.505360 
# 
# From -- ./inp_files/1216.got.cif
#   From: 2010.05.17/outbox.cif.g08.bks.cpg/sg124_1_cif.got.tgz:1216.got - 2010.05.20 11:49:17.
