data_PCOD9562941
_publ_section_title
;
Structure prediction by ZEFSAII (Michael W. Deem and Ramdas Pophale) SiO2 
 PCOD9562941
Probable space group: P 4/N B M
;
_chemical_formula_sum "Si O2"
_cell_formula_units_Z 96
_cell_length_a 21.911386
_cell_length_b 21.911386
_cell_length_c 11.141459
_cell_angle_alpha 90.000000
_cell_angle_beta 90.000000
_cell_angle_gamma 90.000000
_cell_volume 5349.112917
_symmetry_space_group_name_H-M "P 4/N B M"
_symmetry_group_IT_number 125
_space_group.IT_coordinate_system_code '2'
_symmetry_cell_setting 'tetragonal'
loop_
_space_group_symop_operation_xyz
x,y,z
1/2-y,x,z
1/2-x,1/2-y,z
y,1/2-x,z
x,1/2-y,-z
1/2-x,y,-z
y,x,-z
1/2-y,1/2-x,-z
-x,-y,-z
1/2+y,-x,-z
1/2+x,1/2+y,-z
-y,1/2+x,-z
-x,1/2+y,z
1/2+x,-y,z
-y,-x,z
1/2+y,1/2+x,z
loop_
_atom_site_type_symbol
_atom_site_label
_atom_site_fract_x
_atom_site_fract_y
_atom_site_fract_z
Si Si1 0.677963 0.079565 0.994553
Si Si2 0.539105 0.135713 0.737816
Si Si3 0.366128 0.731527 0.638850
Si Si4 0.825792 0.912204 0.354630
Si Si5 0.813612 0.923523 0.643028
Si Si6 0.345270 0.941925 0.737101
O O1 0.644840 0.144840 0.984833
O O2 0.655617 0.050497 0.119012
O O3 0.750000 0.085566 0.000000
O O4 0.658764 0.044119 0.874780
O O5 0.569794 0.069794 0.730960
O O6 0.581170 0.181206 0.658819
O O7 0.471673 0.139917 0.691295
O O8 0.359236 0.750000 0.500000
O O9 0.303585 0.696415 0.677984
O O10 0.393499 0.790735 0.706032
O O11 0.819177 0.917833 0.498723
O O12 0.755581 0.913445 0.313157
O O13 0.867458 0.855743 0.315097
O O14 0.833704 0.992209 0.678447
O O15 0.407690 0.907690 0.700394
#
# Coordination Sequence:
#
# PCOD9562941 Si02
#       6
#    16  16  16  16  16  16
#     4  10  19  33  52  74 104 146 191 235 275 313
#     4  10  20  35  56  79 107 148 188 225 272 325
#     4  11  21  33  50  75 111 150 187 224 268 320
#     4  10  20  37  60  82 113 141 177 226 273 338
#     4  10  21  37  58  85 110 143 178 221 281 331
#     4  11  22  35  54  80 113 146 188 234 269 320
#
# _framework density 17.946899999999999
#
# number of rings (size 3 to 8) (size 9 to 14) (size 15 to 20)
#    0.000    1.667    3.333    1.500    0.000    4.333 
#    0.000    5.833    0.000    3.000    0.000    0.000 
#    0.000    4.000    0.000    0.000    0.000    0.000 
#
# Total GULP energy -535298.083592 kJ/mol
# GULP energy per Si atom -5576.021704 kJ/mol
# Density = 1.790605 g / cm^3
# Si number density = 17.946900 Si / 1000 Ang^3
#
#
#
# Elastic Constant Matrix: (Units=GPa)
#
#
# Indices 1 2 3 4 5 6 
#
# 1 128.0164 24.2985 15.2075 0.0000 0.0000 0.0000
# 2 24.2985 128.0164 15.2075 0.0000 0.0000 0.0000
# 3 15.2075 15.2075 31.9475 0.0000 0.0000 0.0000
# 4 0.0000 0.0000 0.0000 12.0390 0.0000 0.0000
# 5 0.0000 0.0000 0.0000 0.0000 12.0390 0.0000
# 6 0.0000 0.0000 0.0000 0.0000 0.0000 15.2133
#
#
#
# Elastic Compliance Matrix: (Units=1/GPa)
#
#
# Indices 1 2 3 4 5 6 
#
# 1 0.008448 -0.001193 -0.003453 0.000000 0.000000 0.000000
# 2 -0.001193 0.008448 -0.003453 0.000000 0.000000 0.000000
# 3 -0.003453 -0.003453 0.034589 0.000000 0.000000 0.000000
# 4 0.000000 0.000000 0.000000 0.083063 0.000000 0.000000
# 5 0.000000 0.000000 0.000000 0.000000 0.083063 0.000000
# 6 0.000000 0.000000 0.000000 0.000000 0.000000 0.065732
#
#
# Mechanical properties :
#
#
# Convention : Reuss Voigt Hill
#
# Bulk Modulus (GPa) = 28.34050 44.15639 36.24844
# Shear Modulus (GPa) = 16.06134 23.40938 19.73536
#
# Velocity S-wave (km/s) = 2.99479 3.61552 3.31970
# Velocity P-wave (km/s) = 5.27105 6.48742 5.91061
#
# Compressibility (1/GPa) = 0.03528520
#
# Stress axis : x y z
#
# Youngs Moduli (GPa) = 118.36773 118.36773 28.91074
#
# Poissons Ratio (x) = 0.14125 0.09984
# Poissons Ratio (y) = 0.14125 0.09984
# Poissons Ratio (z) = 0.40878 0.40878
#
# Static dielectric constant tensor:
#      x y z
#    x 1.617890 0.000000 0.000000 
#    y 0.000000 1.617890 0.000000 
#    z 0.000000 0.000000 1.639950 
# 
# From -- ./inp_files/4136.got.cif
#   From: 2010.05.17/outbox.cif.g08.bks.cpg/sg125_3_cif.got.tgz:4136.got - 2010.05.20 11:54:10.
