data_PCOD9562850
_publ_section_title
;
Structure prediction by ZEFSAII (Michael W. Deem and Ramdas Pophale) SiO2 
 PCOD9562850
Probable space group: P 4/M C C
;
_chemical_formula_sum "Si O2"
_cell_formula_units_Z 80
_cell_length_a 16.400894
_cell_length_b 16.400894
_cell_length_c 14.513318
_cell_angle_alpha 90.000000
_cell_angle_beta 90.000000
_cell_angle_gamma 90.000000
_cell_volume 3903.927598
_symmetry_space_group_name_H-M "P 4/M C C"
_symmetry_group_IT_number 124
_symmetry_cell_setting 'tetragonal'
loop_
_space_group_symop_operation_xyz
x,y,z
-y,x,z
-x,-y,z
y,-x,z
x,-y,1/2-z
-x,y,1/2-z
y,x,1/2-z
-y,-x,1/2-z
-x,-y,-z
y,-x,-z
x,y,-z
-y,x,-z
-x,y,1/2+z
x,-y,1/2+z
-y,-x,1/2+z
y,x,1/2+z
loop_
_atom_site_type_symbol
_atom_site_label
_atom_site_fract_x
_atom_site_fract_y
_atom_site_fract_z
Si Si1 0.048546 0.580007 0.112560
Si Si2 0.575356 0.395931 0.358509
Si Si3 0.757616 0.985793 0.388048
Si Si4 0.781798 0.354040 0.889998
Si Si5 0.178943 0.159034 0.887449
O O1 0.142987 0.589436 0.143882
O O2 0.000000 0.500000 0.143280
O O3 0.003408 0.664186 0.139061
O O4 0.049017 0.577451 0.000000
O O5 0.610073 0.482224 0.394153
O O6 0.585759 0.414242 0.250000
O O7 0.617374 0.309746 0.373666
O O8 0.756986 0.983108 0.500000
O O9 0.795531 0.901596 0.354205
O O10 0.811666 0.064191 0.362450
O O11 0.797434 0.262149 0.856750
O O12 0.792125 0.351460 0.000000
O O13 0.177144 0.161733 0.000000
#
# Coordination Sequence:
#
# PCOD9562850 Si02
#       5
#    16  16  16  16  16
#     4   8  14  24  37  57  88 121 147 175 220 275
#     4   9  19  35  50  64  86 117 151 184 224 276
#     4   8  13  21  32  49  79 115 145 174 211 257
#     4   9  17  28  44  69  94 115 149 191 224 263
#     4   8  14  23  35  56  85 113 143 179 216 257
#
# _framework density 20.492183000000001
#
# number of rings (size 3 to 8) (size 9 to 14) (size 15 to 20)
#    0.000    3.600    0.000    3.000    0.000    2.800 
#    0.000    7.000    0.000    0.000    0.000   19.600 
#    0.000    0.000    0.000    7.200    0.000    8.000 
#
# Total GULP energy -445643.810696 kJ/mol
# GULP energy per Si atom -5570.547634 kJ/mol
# Density = 2.044554 g / cm^3
# Si number density = 20.492183 Si / 1000 Ang^3
#
#
#
# Elastic Constant Matrix: (Units=GPa)
#
#
# Indices 1 2 3 4 5 6 
#
# 1 171.7505 129.7156 3.5440 0.0000 0.0000 0.0000
# 2 129.7156 171.7510 3.5440 0.0000 0.0000 0.0000
# 3 3.5440 3.5440 59.2452 0.0000 0.0000 0.0000
# 4 0.0000 0.0000 0.0000 14.9971 0.0000 0.0000
# 5 0.0000 0.0000 0.0000 0.0000 14.9976 0.0000
# 6 0.0000 0.0000 0.0000 0.0000 0.0000 30.0676
#
#
#
# Elastic Compliance Matrix: (Units=1/GPa)
#
#
# Indices 1 2 3 4 5 6 
#
# 1 0.013556 -0.010234 -0.000199 0.000000 0.000000 0.000000
# 2 -0.010234 0.013556 -0.000199 0.000000 0.000000 0.000000
# 3 -0.000199 -0.000199 0.016903 0.000000 0.000000 0.000000
# 4 0.000000 0.000000 0.000000 0.066680 0.000000 0.000000
# 5 0.000000 0.000000 0.000000 0.000000 0.066677 0.000000
# 6 0.000000 0.000000 0.000000 0.000000 0.000000 0.033258
#
#
# Mechanical properties :
#
#
# Convention : Reuss Voigt Hill
#
# Bulk Modulus (GPa) = 43.95307 75.15044 59.55175
# Shear Modulus (GPa) = 20.87892 29.74200 25.31046
#
# Velocity S-wave (km/s) = 3.19544 3.81383 3.51825
# Velocity P-wave (km/s) = 5.92535 7.49307 6.75484
#
# Compressibility (1/GPa) = 0.02275154
#
# Stress axis : x y z
#
# Youngs Moduli (GPa) = 73.76956 73.76975 59.16184
#
# Poissons Ratio (x) = 0.75495 0.01176
# Poissons Ratio (y) = 0.75495 0.01176
# Poissons Ratio (z) = 0.01466 0.01466
#
# Static dielectric constant tensor:
#      x y z
#    x 1.721780 0.000000 0.000000 
#    y 0.000000 1.721780 0.000000 
#    z 0.000000 0.000000 1.800470 
# 
# From -- ./inp_files/5061.got.cif
#   From: 2010.05.17/outbox.cif.g08.bks.cpg/sg124_3_cif.got.tgz:5061.got - 2010.05.20 11:49:17.
