data_PCOD9562573
_publ_section_title
;
Structure prediction by ZEFSAII (Michael W. Deem and Ramdas Pophale) SiO2 
 PCOD9562573
Probable space group: P 4/M C C
;
_chemical_formula_sum "Si O2"
_cell_formula_units_Z 68
_cell_length_a 11.960202
_cell_length_b 11.960202
_cell_length_c 20.649100
_cell_angle_alpha 90.000000
_cell_angle_beta 90.000000
_cell_angle_gamma 90.000000
_cell_volume 2953.780077
_symmetry_space_group_name_H-M "P 4/M C C"
_symmetry_group_IT_number 124
_symmetry_cell_setting 'tetragonal'
loop_
_space_group_symop_operation_xyz
x,y,z
-y,x,z
-x,-y,z
y,-x,z
x,-y,1/2-z
-x,y,1/2-z
y,x,1/2-z
-y,-x,1/2-z
-x,-y,-z
y,-x,-z
x,y,-z
-y,x,-z
-x,y,1/2+z
x,-y,1/2+z
-y,-x,1/2+z
y,x,1/2+z
loop_
_atom_site_type_symbol
_atom_site_label
_atom_site_fract_x
_atom_site_fract_y
_atom_site_fract_z
Si Si1 0.500000 0.500000 0.155056
Si Si2 0.817751 0.630499 0.389654
Si Si3 0.132293 0.691293 0.747638
Si Si4 0.402276 0.744646 0.875738
Si Si5 0.033991 0.825238 0.922441
O O1 0.544496 0.369876 0.151656
O O2 0.818317 0.629811 0.311113
O O3 0.709901 0.703218 0.411981
O O4 0.804197 0.503942 0.413322
O O5 0.927834 0.701236 0.405552
O O6 0.185236 0.814765 0.750000
O O7 0.176820 0.634858 0.682794
O O8 0.000000 0.691176 0.750000
O O9 0.914976 0.872562 0.899017
O O10 0.030940 0.831426 0.000000
#
# Coordination Sequence:
#
# PCOD9562573 Si02
#       5
#     4  16  16  16  16
#     4   8  16  36  61  72 109 158 213 228 268 336
#     4  10  20  35  57  79 113 151 191 229 295 337
#     4  10  22  36  50  80 120 158 197 233 284 344
#     4   9  19  35  53  85 114 152 192 243 276 349
#     4   9  20  40  63  84 107 143 195 246 293 356
#
# _framework density 23.021346000000001
#
# number of rings (size 3 to 8) (size 9 to 14) (size 15 to 20)
#    0.000    2.588    0.000    1.412    6.588    4.000 
#    0.000   18.235    0.000    2.824    0.000    4.941 
#    0.000    0.000    0.000    0.000    0.000    0.000 
#
# Total GULP energy -378741.094545 kJ/mol
# GULP energy per Si atom -5569.721979 kJ/mol
# Density = 2.296895 g / cm^3
# Si number density = 23.021346 Si / 1000 Ang^3
#
#
#
# Elastic Constant Matrix: (Units=GPa)
#
#
# Indices 1 2 3 4 5 6 
#
# 1 119.9190 17.2481 -1.2748 0.0000 0.0000 0.0000
# 2 17.2481 119.9187 -1.2748 0.0000 0.0000 0.0000
# 3 -1.2748 -1.2748 29.4462 0.0000 0.0000 0.0000
# 4 0.0000 0.0000 0.0000 2.5176 0.0000 0.0000
# 5 0.0000 0.0000 0.0000 0.0000 2.5183 0.0000
# 6 0.0000 0.0000 0.0000 0.0000 0.0000 36.8527
#
#
#
# Elastic Compliance Matrix: (Units=1/GPa)
#
#
# Indices 1 2 3 4 5 6 
#
# 1 0.008518 -0.001222 0.000316 0.000000 0.000000 0.000000
# 2 -0.001222 0.008518 0.000316 0.000000 0.000000 0.000000
# 3 0.000316 0.000316 0.033988 0.000000 0.000000 0.000000
# 4 0.000000 0.000000 0.000000 0.397208 0.000000 0.000000
# 5 0.000000 0.000000 0.000000 0.000000 0.397090 0.000000
# 6 0.000000 0.000000 0.000000 0.000000 0.000000 0.027135
#
#
# Mechanical properties :
#
#
# Convention : Reuss Voigt Hill
#
# Bulk Modulus (GPa) = 20.06274 33.18674 26.62474
# Shear Modulus (GPa) = 5.61639 25.35008 15.48324
#
# Velocity S-wave (km/s) = 1.56363 3.32197 2.59619
# Velocity P-wave (km/s) = 3.46319 5.40008 4.53622
#
# Compressibility (1/GPa) = 0.04984363
#
# Stress axis : x y z
#
# Youngs Moduli (GPa) = 117.39775 117.39740 29.42251
#
# Poissons Ratio (x) = 0.14344 -0.00929
# Poissons Ratio (y) = 0.14344 -0.00929
# Poissons Ratio (z) = -0.03708 -0.03708
#
# Static dielectric constant tensor:
#      x y z
#    x 1.884970 0.000000 0.000000 
#    y 0.000000 1.884980 0.000000 
#    z 0.000000 0.000000 1.917450 
# 
# From -- ./inp_files/6467.got.cif
#   From: 2010.05.17/outbox.cif.g08.bks.cpg/sg124_4_cif.got.tgz:6467.got - 2010.05.20 11:49:17.
