data_PCOD9562332
_publ_section_title
;
Structure prediction by ZEFSAII (Michael W. Deem and Ramdas Pophale) SiO2 
 PCOD9562332
Probable space group: P 4/M C C
;
_chemical_formula_sum "Si O2"
_cell_formula_units_Z 120
_cell_length_a 18.040848
_cell_length_b 18.040848
_cell_length_c 26.593864
_cell_angle_alpha 90.000000
_cell_angle_beta 90.000000
_cell_angle_gamma 90.000000
_cell_volume 8655.563331
_symmetry_space_group_name_H-M "P 4/M C C"
_symmetry_group_IT_number 124
_symmetry_cell_setting 'tetragonal'
loop_
_space_group_symop_operation_xyz
x,y,z
-y,x,z
-x,-y,z
y,-x,z
x,-y,1/2-z
-x,y,1/2-z
y,x,1/2-z
-y,-x,1/2-z
-x,-y,-z
y,-x,-z
x,y,-z
-y,x,-z
-x,y,1/2+z
x,-y,1/2+z
-y,-x,1/2+z
y,x,1/2+z
loop_
_atom_site_type_symbol
_atom_site_label
_atom_site_fract_x
_atom_site_fract_y
_atom_site_fract_z
Si Si1 0.014242 0.880522 0.061163
Si Si2 0.596660 0.423492 0.000000
Si Si3 0.477541 0.788021 0.060749
Si Si4 0.955087 0.712975 0.438772
Si Si5 0.346943 0.207180 0.060725
Si Si6 0.428765 0.952630 0.938948
Si Si7 0.359869 0.331657 0.404575
Si Si8 0.587793 0.411247 0.307272
O O1 0.025594 0.796127 0.078333
O O2 0.936889 0.919705 0.076147
O O3 0.014404 0.879165 0.000000
O O4 0.599852 0.511227 0.000000
O O5 0.631310 0.391828 0.949382
O O6 0.565058 0.788911 0.073603
O O7 0.442949 0.867647 0.074079
O O8 0.425841 0.726364 0.085938
O O9 0.472981 0.778627 0.000000
O O10 0.957324 0.713871 0.500000
O O11 0.872228 0.686850 0.425059
O O12 0.011864 0.648702 0.421983
O O13 0.304774 0.276116 0.086084
O O14 0.341403 0.213504 0.000000
O O15 0.500000 0.000000 0.922049
O O16 0.428552 0.956445 0.000000
O O17 0.369523 0.368700 0.350644
O O18 0.600423 0.499586 0.313226
O O19 0.608456 0.391545 0.250000
#
# Coordination Sequence:
#
# PCOD9562332 Si02
#       8
#    16   8  16  16  16  16  16  16
#     4   8  14  24  36  50  68  93 128 172 213 246
#     4  11  20  28  38  54  81 117 143 162 204 270
#     4  10  18  27  39  54  81 112 143 175 212 256
#     4   9  16  25  39  54  72 105 142 176 205 244
#     4  10  18  27  37  53  82 110 138 172 212 248
#     4   9  15  26  39  52  69 107 147 171 198 248
#     4  12  20  28  40  62  85 110 139 180 223 259
#     4   9  18  32  47  59  75 107 149 187 216 250
#
# _framework density 13.863915
#
# number of rings (size 3 to 8) (size 9 to 14) (size 15 to 20)
#    0.000    2.333    2.667    3.200    0.000    2.133 
#    0.000    4.000    0.000    0.000    0.000    0.000 
#    0.000    1.067    0.800    0.000    0.000    0.000 
#
# Total GULP energy -668385.062798 kJ/mol
# GULP energy per Si atom -5569.875523 kJ/mol
# Density = 1.383236 g / cm^3
# Si number density = 13.863915 Si / 1000 Ang^3
#
#
#
# Elastic Constant Matrix: (Units=GPa)
#
#
# Indices 1 2 3 4 5 6 
#
# 1 90.0162 39.0157 13.1962 0.0000 0.0000 0.0000
# 2 39.0157 90.0163 13.1964 0.0000 0.0000 0.0000
# 3 13.1962 13.1964 35.6192 0.0000 0.0000 0.0000
# 4 0.0000 0.0000 0.0000 6.8536 0.0000 0.0000
# 5 0.0000 0.0000 0.0000 0.0000 6.8535 0.0000
# 6 0.0000 0.0000 0.0000 0.0000 0.0000 15.9131
#
#
#
# Elastic Compliance Matrix: (Units=1/GPa)
#
#
# Indices 1 2 3 4 5 6 
#
# 1 0.013997 -0.005611 -0.003107 0.000000 0.000000 0.000000
# 2 -0.005611 0.013997 -0.003107 0.000000 0.000000 0.000000
# 3 -0.003107 -0.003107 0.030377 0.000000 0.000000 0.000000
# 4 0.000000 0.000000 0.000000 0.145910 0.000000 0.000000
# 5 0.000000 0.000000 0.000000 0.000000 0.145911 0.000000
# 6 0.000000 0.000000 0.000000 0.000000 0.000000 0.062841
#
#
# Mechanical properties :
#
#
# Convention : Reuss Voigt Hill
#
# Bulk Modulus (GPa) = 28.80108 38.49650 33.64879
# Shear Modulus (GPa) = 11.15437 15.94025 13.54731
#
# Velocity S-wave (km/s) = 2.83956 3.39450 3.12935
# Velocity P-wave (km/s) = 5.61872 6.57200 6.11397
#
# Compressibility (1/GPa) = 0.03472092
#
# Stress axis : x y z
#
# Youngs Moduli (GPa) = 71.44613 71.44613 32.91999
#
# Poissons Ratio (x) = 0.40089 0.10227
# Poissons Ratio (y) = 0.40089 0.10227
# Poissons Ratio (z) = 0.22196 0.22196
#
# Static dielectric constant tensor:
#      x y z
#    x 1.480680 0.000000 0.000000 
#    y 0.000000 1.480680 0.000000 
#    z 0.000000 0.000000 1.411780 
# 
# From -- ./inp_files/6683.got.cif
#   From: 2010.05.17/outbox.cif.g08.bks.cpg/sg124_4_cif.got.tgz:6683.got - 2010.05.20 11:49:17.
