data_PCOD9562635
_publ_section_title
;
Structure prediction by ZEFSAII (Michael W. Deem and Ramdas Pophale) SiO2 
 PCOD9562635
Probable space group: P 4/M C C
;
_chemical_formula_sum "Si O2"
_cell_formula_units_Z 112
_cell_length_a 13.692035
_cell_length_b 13.692035
_cell_length_c 37.910097
_cell_angle_alpha 90.000000
_cell_angle_beta 90.000000
_cell_angle_gamma 90.000000
_cell_volume 7107.074974
_symmetry_space_group_name_H-M "P 4/M C C"
_symmetry_group_IT_number 124
_symmetry_cell_setting 'tetragonal'
loop_
_space_group_symop_operation_xyz
x,y,z
-y,x,z
-x,-y,z
y,-x,z
x,-y,1/2-z
-x,y,1/2-z
y,x,1/2-z
-y,-x,1/2-z
-x,-y,-z
y,-x,-z
x,y,-z
-y,x,-z
-x,y,1/2+z
x,-y,1/2+z
-y,-x,1/2+z
y,x,1/2+z
loop_
_atom_site_type_symbol
_atom_site_label
_atom_site_fract_x
_atom_site_fract_y
_atom_site_fract_z
Si Si1 0.886494 0.723280 0.790012
Si Si2 0.884408 0.613863 0.638583
Si Si3 0.115019 0.884981 0.041675
Si Si4 0.384790 0.615210 0.458393
Si Si5 0.750122 0.249877 0.910004
Si Si6 0.613863 0.884408 0.638583
Si Si7 0.276720 0.113506 0.790012
O O1 0.868779 0.645270 0.820719
O O2 0.814482 0.814482 0.795147
O O3 0.871743 0.685829 0.750000
O O4 0.000000 0.754009 0.792801
O O5 0.818677 0.682471 0.614262
O O6 0.861365 0.500000 0.633463
O O7 0.868779 0.645270 0.679281
O O8 0.000000 0.627945 0.630990
O O9 0.182258 0.817743 0.065511
O O10 0.000000 0.866788 0.048425
O O11 0.132329 0.867671 0.000000
O O12 0.366727 0.500000 0.451923
O O13 0.366667 0.633333 0.500000
O O14 0.317849 0.682150 0.434262
O O15 0.682471 0.181323 0.885738
#
# Coordination Sequence:
#
# PCOD9562635 Si02
#       7
#    16  16  16  16  16  16  16
#     4   9  17  31  50  72  98 130 167 203 241 289
#     4  10  21  34  48  72 103 131 163 205 247 288
#     4   9  19  35  53  74 100 130 165 200 234 285
#     4   9  19  35  53  74  98 124 161 206 246 289
#     4  12  19  32  53  76  98 132 162 198 247 300
#     4  10  21  34  48  72 103 131 163 205 247 288
#     4   9  17  31  50  72  98 130 167 203 241 289
#
# _framework density 15.758944
#
# number of rings (size 3 to 8) (size 9 to 14) (size 15 to 20)
#    0.000    2.286    1.429    3.000    0.000    0.857 
#    0.000    4.286    0.000    0.000    0.000   12.000 
#    0.000    2.286    0.000    0.000    0.000    0.000 
#
# Total GULP energy -624441.960144 kJ/mol
# GULP energy per Si atom -5575.374644 kJ/mol
# Density = 1.572308 g / cm^3
# Si number density = 15.758944 Si / 1000 Ang^3
#
#
#
# Elastic Constant Matrix: (Units=GPa)
#
#
# Indices 1 2 3 4 5 6 
#
# 1 102.5509 85.0274 85.0708 0.0000 0.0000 0.0000
# 2 85.0274 102.5509 85.0708 0.0000 0.0000 0.0000
# 3 85.0708 85.0708 115.9037 0.0000 0.0000 0.0000
# 4 0.0000 0.0000 0.0000 26.3871 0.0000 0.0000
# 5 0.0000 0.0000 0.0000 0.0000 26.3871 0.0000
# 6 0.0000 0.0000 0.0000 0.0000 0.0000 30.0459
#
#
#
# Elastic Compliance Matrix: (Units=1/GPa)
#
#
# Indices 1 2 3 4 5 6 
#
# 1 0.036508 -0.020558 -0.011707 0.000000 0.000000 0.000000
# 2 -0.020558 0.036508 -0.011707 0.000000 0.000000 0.000000
# 3 -0.011707 -0.011707 0.025813 0.000000 0.000000 0.000000
# 4 0.000000 0.000000 0.000000 0.037897 0.000000 0.000000
# 5 0.000000 0.000000 0.000000 0.000000 0.037897 0.000000
# 6 0.000000 0.000000 0.000000 0.000000 0.000000 0.033282
#
#
# Mechanical properties :
#
#
# Convention : Reuss Voigt Hill
#
# Bulk Modulus (GPa) = 91.86738 92.37152 92.11945
# Shear Modulus (GPa) = 16.69578 20.95312 18.82445
#
# Velocity S-wave (km/s) = 3.25845 3.65033 3.45994
# Velocity P-wave (km/s) = 8.51931 8.74695 8.63388
#
# Compressibility (1/GPa) = 0.01088526
#
# Stress axis : x y z
#
# Youngs Moduli (GPa) = 27.39134 27.39134 38.74079
#
# Poissons Ratio (x) = 0.56312 0.45352
# Poissons Ratio (y) = 0.56312 0.45352
# Poissons Ratio (z) = 0.32066 0.32066
#
# Static dielectric constant tensor:
#      x y z
#    x 1.499330 0.000000 0.000000 
#    y 0.000000 1.499330 0.000000 
#    z 0.000000 0.000000 1.522170 
# 
# From -- ./inp_files/7280.got.cif
#   From: 2010.05.17/outbox.cif.g08.bks.cpg/sg124_4_cif.got.tgz:7280.got - 2010.05.20 11:49:17.
