data_PCOD9562931
_publ_section_title
;
Structure prediction by ZEFSAII (Michael W. Deem and Ramdas Pophale) SiO2 
 PCOD9562931
Probable space group: P 4/N B M
;
_chemical_formula_sum "Si O2"
_cell_formula_units_Z 112
_cell_length_a 23.735508
_cell_length_b 23.735508
_cell_length_c 12.299330
_cell_angle_alpha 90.000000
_cell_angle_beta 90.000000
_cell_angle_gamma 90.000000
_cell_volume 6929.126921
_symmetry_space_group_name_H-M "P 4/N B M"
_symmetry_group_IT_number 125
_space_group.IT_coordinate_system_code '2'
_symmetry_cell_setting 'tetragonal'
loop_
_space_group_symop_operation_xyz
x,y,z
1/2-y,x,z
1/2-x,1/2-y,z
y,1/2-x,z
x,1/2-y,-z
1/2-x,y,-z
y,x,-z
1/2-y,1/2-x,-z
-x,-y,-z
1/2+y,-x,-z
1/2+x,1/2+y,-z
-y,1/2+x,-z
-x,1/2+y,z
1/2+x,-y,z
-y,-x,z
1/2+y,1/2+x,z
loop_
_atom_site_type_symbol
_atom_site_label
_atom_site_fract_x
_atom_site_fract_y
_atom_site_fract_z
Si Si1 0.982314 0.576145 0.138103
Si Si2 0.986485 0.108128 0.834412
Si Si3 0.525082 0.117251 0.402641
Si Si4 0.519511 0.385768 0.361698
Si Si5 0.688896 0.482984 0.024669
Si Si6 0.712564 0.121445 0.392016
Si Si7 0.096856 0.693130 0.225334
O O1 0.930575 0.535223 0.112975
O O2 0.040478 0.540478 0.114024
O O3 0.982291 0.585910 0.268475
O O4 0.983778 0.637820 0.084892
O O5 0.931926 0.068074 0.827417
O O6 0.005071 0.123766 0.712645
O O7 0.970796 0.160754 0.908467
O O8 0.556390 0.056390 0.400145
O O9 0.494441 0.122952 0.518685
O O10 0.573134 0.165248 0.400300
O O11 0.571989 0.428012 0.379113
O O12 0.547882 0.331788 0.304714
O O13 0.698945 0.430255 0.105841
O O14 0.750000 0.509518 0.000000
O O15 0.750000 0.117566 0.500000
O O16 0.680229 0.180229 0.391677
O O17 0.750110 0.115646 0.284298
O O18 0.147137 0.647137 0.222526
#
# Coordination Sequence:
#
# PCOD9562931 Si02
#       7
#    16  16  16  16  16  16  16
#     4   9  18  32  53  74  95 124 160 204 247 295
#     4  10  19  32  51  75  98 124 161 206 248 293
#     4   9  17  28  43  66  96 120 149 195 247 300
#     4   8  14  27  44  66  91 117 144 182 248 307
#     4  11  21  33  48  67  93 125 163 196 245 310
#     4  11  20  30  45  65  90 126 173 220 254 284
#     4  10  19  32  47  61  85 123 166 214 258 292
#
# _framework density 16.163653
#
# number of rings (size 3 to 8) (size 9 to 14) (size 15 to 20)
#    0.000    2.286    1.429    3.857    0.000    2.714 
#    0.000    4.286    0.000    0.000    0.000    0.000 
#    0.000    4.571    0.000    0.000    0.000    0.000 
#
# Total GULP energy -623653.287610 kJ/mol
# GULP energy per Si atom -5568.332925 kJ/mol
# Density = 1.612686 g / cm^3
# Si number density = 16.163653 Si / 1000 Ang^3
#
#
#
# Elastic Constant Matrix: (Units=GPa)
#
#
# Indices 1 2 3 4 5 6 
#
# 1 43.5400 16.2810 18.3767 0.0000 0.0000 0.0000
# 2 16.2810 43.5400 18.3767 0.0000 0.0000 0.0000
# 3 18.3767 18.3767 102.4396 0.0000 0.0000 0.0000
# 4 0.0000 0.0000 0.0000 22.0274 0.0000 0.0000
# 5 0.0000 0.0000 0.0000 0.0000 22.0274 0.0000
# 6 0.0000 0.0000 0.0000 0.0000 0.0000 11.1383
#
#
#
# Elastic Compliance Matrix: (Units=1/GPa)
#
#
# Indices 1 2 3 4 5 6 
#
# 1 0.027736 -0.008949 -0.003370 0.000000 0.000000 0.000000
# 2 -0.008949 0.027736 -0.003370 0.000000 0.000000 0.000000
# 3 -0.003370 -0.003370 0.010971 0.000000 0.000000 0.000000
# 4 0.000000 0.000000 0.000000 0.045398 0.000000 0.000000
# 5 0.000000 0.000000 0.000000 0.000000 0.045398 0.000000
# 6 0.000000 0.000000 0.000000 0.000000 0.000000 0.089780
#
#
# Mechanical properties :
#
#
# Convention : Reuss Voigt Hill
#
# Bulk Modulus (GPa) = 28.51893 32.84314 30.68103
# Shear Modulus (GPa) = 17.23624 20.13766 18.68695
#
# Velocity S-wave (km/s) = 3.26906 3.53350 3.40385
# Velocity P-wave (km/s) = 5.65076 6.08365 5.87120
#
# Compressibility (1/GPa) = 0.03506443
#
# Stress axis : x y z
#
# Youngs Moduli (GPa) = 36.05408 36.05408 91.14919
#
# Poissons Ratio (x) = 0.32265 0.30719
# Poissons Ratio (y) = 0.32265 0.30719
# Poissons Ratio (z) = 0.12151 0.12151
#
# Static dielectric constant tensor:
#      x y z
#    x 1.537190 0.000000 0.000000 
#    y 0.000000 1.537190 0.000000 
#    z 0.000000 0.000000 1.640510 
# 
# From -- ./inp_files/4339.got.cif
#   From: 2010.05.17/outbox.cif.g08.bks.cpg/sg125_3_cif.got.tgz:4339.got - 2010.05.20 11:54:10.
