data_PCOD9562467
_publ_section_title
;
Structure prediction by ZEFSAII (Michael W. Deem and Ramdas Pophale) SiO2 
 PCOD9562467
Probable space group: P 4/M C C
;
_chemical_formula_sum "Si O2"
_cell_formula_units_Z 112
_cell_length_a 18.976796
_cell_length_b 18.976796
_cell_length_c 14.851753
_cell_angle_alpha 90.000000
_cell_angle_beta 90.000000
_cell_angle_gamma 90.000000
_cell_volume 5348.395267
_symmetry_space_group_name_H-M "P 4/M C C"
_symmetry_group_IT_number 124
_symmetry_cell_setting 'tetragonal'
loop_
_space_group_symop_operation_xyz
x,y,z
-y,x,z
-x,-y,z
y,-x,z
x,-y,1/2-z
-x,y,1/2-z
y,x,1/2-z
-y,-x,1/2-z
-x,-y,-z
y,-x,-z
x,y,-z
-y,x,-z
-x,y,1/2+z
x,-y,1/2+z
-y,-x,1/2+z
y,x,1/2+z
loop_
_atom_site_type_symbol
_atom_site_label
_atom_site_fract_x
_atom_site_fract_y
_atom_site_fract_z
Si Si1 0.724669 0.964137 0.391751
Si Si2 0.113303 0.001511 0.642365
Si Si3 0.682213 0.529547 0.398100
Si Si4 0.672205 0.622741 0.111471
Si Si5 0.423899 0.974631 0.394830
Si Si6 0.498426 0.840125 0.642880
Si Si7 0.656177 0.172148 0.894305
O O1 0.719092 0.962621 0.500000
O O2 0.803002 0.993371 0.374966
O O3 0.653598 0.004868 0.359325
O O4 0.712069 0.883952 0.357014
O O5 0.069959 0.932040 0.610203
O O6 0.107588 0.000000 0.750000
O O7 0.653533 0.532277 0.500000
O O8 0.655466 0.456756 0.356761
O O9 0.668363 0.605979 0.358720
O O10 0.764990 0.515728 0.399722
O O11 0.748817 0.649052 0.143581
O O12 0.677064 0.621390 0.000000
O O13 0.425244 0.995192 0.500000
O O14 0.436838 0.891678 0.386734
O O15 0.500000 0.000000 0.354210
O O16 0.500000 0.833978 0.750000
O O17 0.577713 0.861749 0.613972
O O18 0.671670 0.180127 0.000000
#
# Coordination Sequence:
#
# PCOD9562467 Si02
#       7
#    16  16  16  16  16  16  16
#     4  10  20  34  58  86 109 138 182 234 276 315
#     4   9  20  41  64  82 110 154 189 219 274 343
#     4   9  17  32  51  72 100 138 181 226 272 318
#     4   8  15  28  51  75  98 136 182 224 269 317
#     4  10  19  35  56  77 107 146 179 213 262 320
#     4  11  21  32  49  75 107 141 178 217 267 320
#     4   9  17  34  53  71 104 147 179 213 273 334
#
# _framework density 20.940860000000001
#
# number of rings (size 3 to 8) (size 9 to 14) (size 15 to 20)
#    0.000    2.571    1.429    2.571    0.000    2.286 
#    2.571    5.000    0.000    0.000    0.000    4.000 
#    0.000    0.000    0.000    0.000    0.000    0.000 
#
# Total GULP energy -623477.181089 kJ/mol
# GULP energy per Si atom -5566.760545 kJ/mol
# Density = 2.089320 g / cm^3
# Si number density = 20.940860 Si / 1000 Ang^3
#
#
#
# Elastic Constant Matrix: (Units=GPa)
#
#
# Indices 1 2 3 4 5 6 
#
# 1 108.5140 62.6584 0.3414 0.0000 0.0000 0.0000
# 2 62.6584 108.5140 0.3414 0.0000 0.0000 0.0000
# 3 0.3414 0.3414 48.3003 0.0000 0.0000 0.0000
# 4 0.0000 0.0000 0.0000 -51.7102 0.0000 0.0000
# 5 0.0000 0.0000 0.0000 0.0000 -51.7102 0.0000
# 6 0.0000 0.0000 0.0000 0.0000 0.0000 32.2579
#
#
#
# Elastic Compliance Matrix: (Units=1/GPa)
#
#
# Indices 1 2 3 4 5 6 
#
# 1 0.013825 -0.007983 -0.000041 0.000000 0.000000 0.000000
# 2 -0.007983 0.013825 -0.000041 0.000000 0.000000 0.000000
# 3 -0.000041 -0.000041 0.020704 0.000000 0.000000 0.000000
# 4 0.000000 0.000000 0.000000 -0.019339 0.000000 0.000000
# 5 0.000000 0.000000 0.000000 0.000000 -0.019339 0.000000
# 6 0.000000 0.000000 0.000000 0.000000 0.000000 0.031000
#
#
# Mechanical properties :
#
#
# Convention : Reuss Voigt Hill
#
# Bulk Modulus (GPa) = 31.03308 43.55673 37.29491
# Shear Modulus (GPa) = 74.02036 -0.76669 36.62684
#
# Velocity S-wave (km/s) = 5.95181 -0.60573 4.18671
# Velocity P-wave (km/s) = 7.87932 4.51174 6.42026
#
# Compressibility (1/GPa) = 0.03222368
#
# Stress axis : x y z
#
# Youngs Moduli (GPa) = 72.33323 72.33323 48.29894
#
# Poissons Ratio (x) = 0.57741 0.00199
# Poissons Ratio (y) = 0.57741 0.00199
# Poissons Ratio (z) = 0.00299 0.00299
#
# Static dielectric constant tensor:
#      x y z
#    x 1.802540 0.000000 0.000000 
#    y 0.000000 1.802540 0.000000 
#    z 0.000000 0.000000 1.821100 
# 
# From -- ./inp_files/5525.got.cif
#   From: 2010.05.17/outbox.cif.g08.bks.cpg/sg124_3_cif.got.tgz:5525.got - 2010.05.20 11:49:17.
