data_PCOD9562451
_publ_section_title
;
Structure prediction by ZEFSAII (Michael W. Deem and Ramdas Pophale) SiO2 
 PCOD9562451
Probable space group: P 4/M C C
;
_chemical_formula_sum "Si O2"
_cell_formula_units_Z 72
_cell_length_a 19.931672
_cell_length_b 19.931672
_cell_length_c 9.850653
_cell_angle_alpha 90.000000
_cell_angle_beta 90.000000
_cell_angle_gamma 90.000000
_cell_volume 3913.384173
_symmetry_space_group_name_H-M "P 4/M C C"
_symmetry_group_IT_number 124
_symmetry_cell_setting 'tetragonal'
loop_
_space_group_symop_operation_xyz
x,y,z
-y,x,z
-x,-y,z
y,-x,z
x,-y,1/2-z
-x,y,1/2-z
y,x,1/2-z
-y,-x,1/2-z
-x,-y,-z
y,-x,-z
x,y,-z
-y,x,-z
-x,y,1/2+z
x,-y,1/2+z
-y,-x,1/2+z
y,x,1/2+z
loop_
_atom_site_type_symbol
_atom_site_label
_atom_site_fract_x
_atom_site_fract_y
_atom_site_fract_z
Si Si1 0.941564 0.822545 0.000000
Si Si2 0.223090 0.907114 0.500000
Si Si3 0.471798 0.391394 0.000000
Si Si4 0.672462 0.187346 0.500000
Si Si5 0.362158 0.249213 0.728056
Si Si6 0.189021 0.726494 0.500000
Si Si7 0.500000 0.303552 0.750000
Si Si8 0.873180 0.126821 0.250000
O O1 0.880326 0.767891 0.000000
O O2 0.931711 0.865769 0.138050
O O3 0.014020 0.790204 0.000000
O O4 0.300982 0.888033 0.500000
O O5 0.188963 0.879670 0.357988
O O6 0.546666 0.421518 0.000000
O O7 0.465015 0.348285 0.134848
O O8 0.633260 0.211453 0.629940
O O9 0.745042 0.225687 0.500000
O O10 0.316109 0.316109 0.750000
O O11 0.320364 0.200995 0.629405
O O12 0.437534 0.265264 0.682259
#
# Coordination Sequence:
#
# PCOD9562451 Si02
#       8
#     8   8   8   8  16   8   8   8
#     4  11  21  35  59  85 112 149 186 229 271 320
#     4  11  21  35  59  85 112 149 186 229 271 320
#     4  11  22  34  52  72 102 148 191 224 258 318
#     4  10  19  34  55  79 105 135 183 229 280 317
#     4  10  21  33  53  78 105 142 181 227 279 330
#     4  10  19  34  55  79 105 135 183 229 280 317
#     4  12  22  37  52  76 113 142 184 230 282 334
#     4  10  20  34  54  81 112 146 180 224 267 318
#
# _framework density 18.398398
#
# number of rings (size 3 to 8) (size 9 to 14) (size 15 to 20)
#    0.000    1.444    2.222    5.333    3.111    2.667 
#    0.000    0.000    0.000   23.333    0.000    4.667 
#    0.000    0.000    0.000    0.000    0.000    0.000 
#
# Total GULP energy -401310.722832 kJ/mol
# GULP energy per Si atom -5573.760039 kJ/mol
# Density = 1.835652 g / cm^3
# Si number density = 18.398398 Si / 1000 Ang^3
#
#
#
# Elastic Constant Matrix: (Units=GPa)
#
#
# Indices 1 2 3 4 5 6 
#
# 1 55.8437 32.5816 10.0276 0.0000 0.0000 0.0000
# 2 32.5816 55.8437 10.0276 0.0000 0.0000 0.0000
# 3 10.0276 10.0276 114.1432 0.0000 0.0000 0.0000
# 4 0.0000 0.0000 0.0000 17.0509 0.0000 0.0000
# 5 0.0000 0.0000 0.0000 0.0000 17.0505 0.0000
# 6 0.0000 0.0000 0.0000 0.0000 0.0000 -25.9914
#
#
#
# Elastic Compliance Matrix: (Units=1/GPa)
#
#
# Indices 1 2 3 4 5 6 
#
# 1 0.027264 -0.015725 -0.001014 0.000000 0.000000 0.000000
# 2 -0.015725 0.027264 -0.001014 0.000000 0.000000 0.000000
# 3 -0.001014 -0.001014 0.008939 0.000000 0.000000 0.000000
# 4 0.000000 0.000000 0.000000 0.058648 0.000000 0.000000
# 5 0.000000 0.000000 0.000000 0.000000 0.058649 0.000000
# 6 0.000000 0.000000 0.000000 0.000000 0.000000 -0.038474
#
#
# Mechanical properties :
#
#
# Convention : Reuss Voigt Hill
#
# Bulk Modulus (GPa) = 35.76282 36.78936 36.27609
# Shear Modulus (GPa) = 26.72164 13.16826 19.94495
#
# Velocity S-wave (km/s) = 3.81516 2.67821 3.29608
# Velocity P-wave (km/s) = 6.23598 5.44088 5.85195
#
# Compressibility (1/GPa) = 0.02796200
#
# Stress axis : x y z
#
# Youngs Moduli (GPa) = 36.67889 36.67884 111.86894
#
# Poissons Ratio (x) = 0.57677 0.11340
# Poissons Ratio (y) = 0.57677 0.11340
# Poissons Ratio (z) = 0.03718 0.03718
#
# Static dielectric constant tensor:
#      x y z
#    x 1.653330 0.000000 0.000000 
#    y 0.000000 1.653330 0.000000 
#    z 0.000000 0.000000 1.664560 
# 
# From -- ./inp_files/1128.got.cif
#   From: 2010.05.17/outbox.cif.g08.bks.cpg/sg124_1_cif.got.tgz:1128.got - 2010.05.20 11:49:17.
