data_PCOD9562440
_publ_section_title
;
Structure prediction by ZEFSAII (Michael W. Deem and Ramdas Pophale) SiO2 
 PCOD9562440
Probable space group: P 4/M C C
;
_chemical_formula_sum "Si O2"
_cell_formula_units_Z 96
_cell_length_a 13.725027
_cell_length_b 13.725027
_cell_length_c 32.254357
_cell_angle_alpha 90.000000
_cell_angle_beta 90.000000
_cell_angle_gamma 90.000000
_cell_volume 6075.958564
_symmetry_space_group_name_H-M "P 4/M C C"
_symmetry_group_IT_number 124
_symmetry_cell_setting 'tetragonal'
loop_
_space_group_symop_operation_xyz
x,y,z
-y,x,z
-x,-y,z
y,-x,z
x,-y,1/2-z
-x,y,1/2-z
y,x,1/2-z
-y,-x,1/2-z
-x,-y,-z
y,-x,-z
x,y,-z
-y,x,-z
-x,y,1/2+z
x,-y,1/2+z
-y,-x,1/2+z
y,x,1/2+z
loop_
_atom_site_type_symbol
_atom_site_label
_atom_site_fract_x
_atom_site_fract_y
_atom_site_fract_z
Si Si1 0.384267 0.615734 0.547621
Si Si2 0.285395 0.714605 0.375140
Si Si3 0.884394 0.280019 0.750000
Si Si4 0.115268 0.386570 0.162754
Si Si5 0.615927 0.384074 0.795465
Si Si6 0.115268 0.386570 0.337246
O O1 0.367741 0.500000 0.553134
O O2 0.359508 0.640493 0.500000
O O3 0.326180 0.673821 0.582118
O O4 0.174382 0.682762 0.368257
O O5 0.337397 0.662605 0.335717
O O6 0.317237 0.825619 0.368258
O O7 0.813757 0.186244 0.750000
O O8 0.867505 0.345129 0.709041
O O9 0.867505 0.345129 0.790959
O O10 0.000000 0.252790 0.750000
O O11 0.146389 0.500000 0.159725
O O12 0.000000 0.383099 0.155225
O O13 0.631836 0.500001 0.796813
O O14 0.650900 0.349101 0.750000
#
# Coordination Sequence:
#
# PCOD9562440 Si02
#       6
#    16  16  16  16  16  16
#     4   9  18  32  50  76 107 132 158 195 242 302
#     4  12  20  31  52  71  91 129 172 204 240 297
#     4  10  19  34  49  68  96 134 177 214 254 298
#     4  10  21  34  48  69  98 131 168 211 255 301
#     4   9  18  28  38  62  97 123 148 187 232 279
#     4  10  21  34  48  69  98 131 168 211 255 301
#
# _framework density 15.799975999999999
#
# number of rings (size 3 to 8) (size 9 to 14) (size 15 to 20)
#    0.000    2.000    1.667    4.500    2.333    3.500 
#    0.000    0.000    0.000    1.500    0.000    4.667 
#    0.000    0.000    0.000    1.500    0.000    0.333 
#
# Total GULP energy -535896.683087 kJ/mol
# GULP energy per Si atom -5582.257115 kJ/mol
# Density = 1.576401 g / cm^3
# Si number density = 15.799976 Si / 1000 Ang^3
#
#
#
# Elastic Constant Matrix: (Units=GPa)
#
#
# Indices 1 2 3 4 5 6 
#
# 1 74.7578 38.0100 27.7791 0.0000 0.0000 0.0000
# 2 38.0100 74.7591 27.7788 0.0000 0.0000 0.0000
# 3 27.7791 27.7788 79.9490 0.0000 0.0000 0.0000
# 4 0.0000 0.0000 0.0000 14.2672 0.0000 0.0000
# 5 0.0000 0.0000 0.0000 0.0000 14.2681 0.0000
# 6 0.0000 0.0000 0.0000 0.0000 0.0000 25.2913
#
#
#
# Elastic Compliance Matrix: (Units=1/GPa)
#
#
# Indices 1 2 3 4 5 6 
#
# 1 0.018956 -0.008256 -0.003718 0.000000 0.000000 0.000000
# 2 -0.008256 0.018955 -0.003717 0.000000 0.000000 0.000000
# 3 -0.003718 -0.003717 0.015091 0.000000 0.000000 0.000000
# 4 0.000000 0.000000 0.000000 0.070091 0.000000 0.000000
# 5 0.000000 0.000000 0.000000 0.000000 0.070087 0.000000
# 6 0.000000 0.000000 0.000000 0.000000 0.000000 0.039539
#
#
# Mechanical properties :
#
#
# Convention : Reuss Voigt Hill
#
# Bulk Modulus (GPa) = 46.25411 46.28906 46.27159
# Shear Modulus (GPa) = 18.42918 19.82518 19.12718
#
# Velocity S-wave (km/s) = 3.41897 3.54610 3.48312
# Velocity P-wave (km/s) = 6.70255 6.79168 6.74726
#
# Compressibility (1/GPa) = 0.02161970
#
# Stress axis : x y z
#
# Youngs Moduli (GPa) = 52.75414 52.75533 66.26302
#
# Poissons Ratio (x) = 0.43557 0.24634
# Poissons Ratio (y) = 0.43556 0.24633
# Poissons Ratio (z) = 0.19612 0.19611
#
# Static dielectric constant tensor:
#      x y z
#    x 1.561630 0.000000 0.000000 
#    y 0.000000 1.561630 0.000000 
#    z 0.000000 0.000000 1.497380 
# 
# From -- ./inp_files/7205.got.cif
#   From: 2010.05.17/outbox.cif.g08.bks.cpg/sg124_4_cif.got.tgz:7205.got - 2010.05.20 11:49:17.
