data_PCOD9562290
_publ_section_title
;
Structure prediction by ZEFSAII (Michael W. Deem and Ramdas Pophale) SiO2 
 PCOD9562290
Probable space group: P 4/M M M
;
_chemical_formula_sum "Si O2"
_cell_formula_units_Z 104
_cell_length_a 18.000000
_cell_length_b 18.000000
_cell_length_c 18.000000
_cell_angle_alpha 90.000000
_cell_angle_beta 90.000000
_cell_angle_gamma 90.000000
_cell_volume 5832.000000
_symmetry_space_group_name_H-M "P 4/M M M"
_symmetry_group_IT_number 123
_symmetry_cell_setting 'tetragonal'
loop_
_space_group_symop_operation_xyz
x,y,z
-y,x,z
-x,-y,z
y,-x,z
x,-y,-z
-x,y,-z
y,x,-z
-y,-x,-z
-x,-y,-z
y,-x,-z
x,y,-z
-y,x,-z
-x,y,z
x,-y,z
-y,-x,z
y,x,z
loop_
_atom_site_type_symbol
_atom_site_label
_atom_site_fract_x
_atom_site_fract_y
_atom_site_fract_z
Si Si1 0.706132 0.585588 0.132099
Si Si2 0.083510 0.412023 0.500000
Si Si3 0.083496 0.414532 0.236862
Si Si4 0.082945 0.195529 0.589361
Si Si5 0.834208 0.662257 0.364225
Si Si6 0.129067 0.410419 0.920736
Si Si7 0.303076 0.415663 0.310086
O O1 0.688289 0.500000 0.114362
O O2 0.641554 0.641554 0.109869
O O3 0.784312 0.604703 0.094532
O O4 0.714922 0.590173 0.221840
O O5 0.079258 0.500000 0.500000
O O6 0.126134 0.385134 0.427840
O O7 0.000000 0.380437 0.500000
O O8 0.111937 0.500000 0.240040
O O9 0.131863 0.362194 0.286414
O O10 0.085294 0.388394 0.152237
O O11 0.000000 0.415461 0.265808
O O12 0.082343 0.203397 0.500000
O O13 0.113990 0.113990 0.606487
O O14 0.141138 0.254875 0.619482
O O15 0.000000 0.209335 0.617165
O O16 0.749942 0.637453 0.357152
O O17 0.121355 0.500000 0.923794
O O18 0.105051 0.379918 0.000000
O O19 0.292109 0.500000 0.332911
O O20 0.386660 0.386660 0.317910
#
# Coordination Sequence:
#
# PCOD9562290 Si02
#       7
#    16   8  16  16  16  16  16
#     4   9  17  30  47  68  94 125 163 208 257 308
#     4  11  22  32  47  74 106 140 171 203 248 302
#     4  10  19  30  47  70  97 132 169 205 249 302
#     4  10  21  37  56  79 107 138 172 209 250 299
#     4  12  20  34  53  75 105 135 167 211 257 303
#     4   9  17  30  46  64  90 123 160 205 253 299
#     4  10  20  34  53  75 101 135 175 219 264 311
#
# _framework density 17.832647000000001
#
# number of rings (size 3 to 8) (size 9 to 14) (size 15 to 20)
#    0.000    1.923    2.308    3.231    0.000    2.308 
#    0.000    3.846    0.000    0.000    0.000    2.154 
#    0.000    1.846    0.000    0.000    0.000    0.154 
#
# Total GULP energy -579413.519515 kJ/mol
# GULP energy per Si atom -5571.283841 kJ/mol
# Density = 1.779206 g / cm^3
# Si number density = 17.832647 Si / 1000 Ang^3
#
#
#
# Elastic Constant Matrix: (Units=GPa)
#
#
# Indices 1 2 3 4 5 6 
#
# 1 4.1724 90.2482 25.0046 0.0000 0.0000 0.0000
# 2 90.2482 4.1724 25.0046 0.0000 0.0000 0.0000
# 3 25.0046 25.0046 36.8491 0.0000 0.0000 0.0000
# 4 0.0000 0.0000 0.0000 86.8329 0.0000 0.0000
# 5 0.0000 0.0000 0.0000 0.0000 86.8329 0.0000
# 6 0.0000 0.0000 0.0000 0.0000 0.0000 13.8466
#
#
#
# Elastic Compliance Matrix: (Units=1/GPa)
#
#
# Indices 1 2 3 4 5 6 
#
# 1 0.002458 0.014075 -0.011219 0.000000 0.000000 0.000000
# 2 0.014075 0.002458 -0.011219 0.000000 0.000000 0.000000
# 3 -0.011219 -0.011219 0.042363 0.000000 0.000000 0.000000
# 4 0.000000 0.000000 0.000000 0.011516 0.000000 0.000000
# 5 0.000000 0.000000 0.000000 0.000000 0.011516 0.000000
# 6 0.000000 0.000000 0.000000 0.000000 0.000000 0.072220
#
#
# Mechanical properties :
#
#
# Convention : Reuss Voigt Hill
#
# Bulk Modulus (GPa) = 32.72892 36.18985 34.45939
# Shear Modulus (GPa) = 29.50914 31.16490 30.33702
#
# Velocity S-wave (km/s) = 4.07231 4.18500 4.12904
# Velocity P-wave (km/s) = 6.36434 6.60988 6.48828
#
# Compressibility (1/GPa) = 0.03055402
#
# Stress axis : x y z
#
# Youngs Moduli (GPa) = 406.91155 406.91155 23.60558
#
# Poissons Ratio (x) = -5.72736 0.26482
# Poissons Ratio (y) = -5.72736 0.26482
# Poissons Ratio (z) = 4.56497 4.56497
#
# Static dielectric constant tensor:
#      x y z
#    x 1.626330 0.000000 0.000000 
#    y 0.000000 1.626330 0.000000 
#    z 0.000000 0.000000 1.608400 
# 
# From -- ./inp_files/5601.got.cif
#   From: 2010.05.17/outbox.ucp.g08.bks.cvg/sg123_3_cif.got.tgz:5601.got - 2010.06.11 11:35:48.
