data_PCOD9562073
_publ_section_title
;
Structure prediction by ZEFSAII (Michael W. Deem and Ramdas Pophale) SiO2 
 PCOD9562073
Probable space group: P 4/M M M
;
_chemical_formula_sum "Si O2"
_cell_formula_units_Z 96
_cell_length_a 23.868178
_cell_length_b 23.868178
_cell_length_c 7.797709
_cell_angle_alpha 90.000000
_cell_angle_beta 90.000000
_cell_angle_gamma 90.000000
_cell_volume 4442.276225
_symmetry_space_group_name_H-M "P 4/M M M"
_symmetry_group_IT_number 123
_symmetry_cell_setting 'tetragonal'
loop_
_space_group_symop_operation_xyz
x,y,z
-y,x,z
-x,-y,z
y,-x,z
x,-y,-z
-x,y,-z
y,x,-z
-y,-x,-z
-x,-y,-z
y,-x,-z
x,y,-z
-y,x,-z
-x,y,z
x,-y,z
-y,-x,z
y,x,z
loop_
_atom_site_type_symbol
_atom_site_label
_atom_site_fract_x
_atom_site_fract_y
_atom_site_fract_z
Si Si1 0.320888 0.938677 0.199441
Si Si2 0.432455 0.777542 0.192548
Si Si3 0.061521 0.146509 0.791978
Si Si4 0.153972 0.759600 0.792495
Si Si5 0.435729 0.346000 0.706015
Si Si6 0.900391 0.563358 0.302947
O O1 0.294924 0.880330 0.270614
O O2 0.387575 0.932564 0.208669
O O3 0.304764 0.000000 0.273763
O O4 0.303136 0.940463 0.000000
O O5 0.500000 0.772626 0.189611
O O6 0.413645 0.716568 0.254535
O O7 0.422304 0.834026 0.296088
O O8 0.411516 0.787329 0.000000
O O9 0.087605 0.087605 0.735663
O O10 0.106856 0.193686 0.753415
O O11 0.000000 0.157820 0.724844
O O12 0.058738 0.145583 0.000000
O O13 0.212896 0.787105 0.729765
O O14 0.160905 0.754348 0.000000
O O15 0.438206 0.350675 0.500000
O O16 0.500000 0.352144 0.770008
O O17 0.393770 0.393770 0.771348
O O18 0.918686 0.563326 0.500000
O O19 0.906922 0.500000 0.233755
#
# Coordination Sequence:
#
# PCOD9562073 Si02
#       6
#    16  16  16  16  16  16
#     4  10  20  33  52  79 108 138 174 215 256 301
#     4   9  17  31  52  74  95 123 163 210 258 310
#     4   8  12  17  27  46  75 112 151 189 228 269
#     4   8  14  26  44  65  91 125 164 204 244 285
#     4   9  17  29  46  70 102 140 181 225 274 329
#     4  10  21  37  56  76 100 132 168 207 258 323
#
# _framework density 21.610543
#
# number of rings (size 3 to 8) (size 9 to 14) (size 15 to 20)
#    0.000    3.000    0.000    2.500    0.000    6.333 
#    0.000    4.167    0.000    3.500    0.000    2.333 
#    0.000    0.000    0.000    0.000    0.000    0.000 
#
# Total GULP energy -534432.990974 kJ/mol
# GULP energy per Si atom -5567.010323 kJ/mol
# Density = 2.156136 g / cm^3
# Si number density = 21.610543 Si / 1000 Ang^3
#
#
#
# Elastic Constant Matrix: (Units=GPa)
#
#
# Indices 1 2 3 4 5 6 
#
# 1 83.4760 31.3249 -0.1115 0.0000 0.0000 0.0000
# 2 31.3249 83.4760 -0.1115 0.0000 0.0000 0.0000
# 3 -0.1115 -0.1115 29.7136 0.0000 0.0000 0.0000
# 4 0.0000 0.0000 0.0000 -15.5259 0.0000 0.0000
# 5 0.0000 0.0000 0.0000 0.0000 -15.5259 0.0000
# 6 0.0000 0.0000 0.0000 0.0000 0.0000 17.3430
#
#
#
# Elastic Compliance Matrix: (Units=1/GPa)
#
#
# Indices 1 2 3 4 5 6 
#
# 1 0.013943 -0.005232 0.000033 0.000000 0.000000 0.000000
# 2 -0.005232 0.013943 0.000033 0.000000 0.000000 0.000000
# 3 0.000033 0.000033 0.033655 0.000000 0.000000 0.000000
# 4 0.000000 0.000000 0.000000 -0.064409 0.000000 0.000000
# 5 0.000000 0.000000 0.000000 0.000000 -0.064409 0.000000
# 6 0.000000 0.000000 0.000000 0.000000 0.000000 0.057660
#
#
# Mechanical properties :
#
#
# Convention : Reuss Voigt Hill
#
# Bulk Modulus (GPa) = 19.52852 28.76326 24.14589
# Shear Modulus (GPa) = 281.11908 8.29583 144.70745
#
# Velocity S-wave (km/s) = 11.41782 1.96141 8.19188
# Velocity P-wave (km/s) = 13.52325 4.29747 10.03361
#
# Compressibility (1/GPa) = 0.05120717
#
# Stress axis : x y z
#
# Youngs Moduli (GPa) = 71.72094 71.72094 29.71341
#
# Poissons Ratio (x) = 0.37525 -0.00097
# Poissons Ratio (y) = 0.37525 -0.00097
# Poissons Ratio (z) = -0.00234 -0.00234
#
# Static dielectric constant tensor:
#      x y z
#    x 1.818950 0.000000 0.000000 
#    y 0.000000 1.818950 0.000000 
#    z 0.000000 0.000000 1.836030 
# 
# From -- ./inp_files/1596.got.cif
#   From: 2010.05.17/outbox.cif.g08.bks.cpg/sg123_1_cif.got.tgz:1596.got - 2010.05.20 11:43:04.
