data_PCOD9562337
_publ_section_title
;
Structure prediction by ZEFSAII (Michael W. Deem and Ramdas Pophale) SiO2 
 PCOD9562337
Probable space group: P 4/M C C
;
_chemical_formula_sum "Si O2"
_cell_formula_units_Z 72
_cell_length_a 14.489216
_cell_length_b 14.489216
_cell_length_c 18.091696
_cell_angle_alpha 90.000000
_cell_angle_beta 90.000000
_cell_angle_gamma 90.000000
_cell_volume 3798.123263
_symmetry_space_group_name_H-M "P 4/M C C"
_symmetry_group_IT_number 124
_symmetry_cell_setting 'tetragonal'
loop_
_space_group_symop_operation_xyz
x,y,z
-y,x,z
-x,-y,z
y,-x,z
x,-y,1/2-z
-x,y,1/2-z
y,x,1/2-z
-y,-x,1/2-z
-x,-y,-z
y,-x,-z
x,y,-z
-y,x,-z
-x,y,1/2+z
x,-y,1/2+z
-y,-x,1/2+z
y,x,1/2+z
loop_
_atom_site_type_symbol
_atom_site_label
_atom_site_fract_x
_atom_site_fract_y
_atom_site_fract_z
Si Si1 0.500000 0.000000 0.622702
Si Si2 0.754045 0.635770 0.699786
Si Si3 0.505545 0.208477 0.920009
Si Si4 0.071649 0.318118 0.198418
Si Si5 0.726826 0.791601 0.584124
O O1 0.511222 0.097750 0.581739
O O2 0.407630 0.017443 0.669108
O O3 0.667298 0.667298 0.750000
O O4 0.750647 0.541504 0.653489
O O5 0.841273 0.645467 0.754070
O O6 0.767341 0.711125 0.634655
O O7 0.615453 0.223039 0.917695
O O8 0.470963 0.244487 0.000000
O O9 0.113460 0.263082 0.129491
O O10 0.000000 0.264999 0.250000
O O11 0.759887 0.793362 0.500000
#
# Coordination Sequence:
#
# PCOD9562337 Si02
#       5
#     8  16  16  16  16
#     4  10  18  28  48  76 105 123 160 202 262 318
#     4  10  20  31  48  70  99 141 174 208 252 300
#     4  10  19  31  50  73 101 137 170 209 255 308
#     4  10  18  29  47  72 101 132 162 198 249 305
#     4   9  20  34  47  69 104 137 173 210 250 301
#
# _framework density 18.956731000000001
#
# number of rings (size 3 to 8) (size 9 to 14) (size 15 to 20)
#    0.000    2.222    2.222    1.333    3.111    3.556 
#    0.000    0.000    0.000    0.667    0.000   10.889 
#    0.000   36.000    0.000   18.000    0.000    0.000 
#
# Total GULP energy -401220.493169 kJ/mol
# GULP energy per Si atom -5572.506850 kJ/mol
# Density = 1.891358 g / cm^3
# Si number density = 18.956731 Si / 1000 Ang^3
#
#
#
# Elastic Constant Matrix: (Units=GPa)
#
#
# Indices 1 2 3 4 5 6 
#
# 1 21.0542 4.2271 4.7803 0.0000 0.0000 0.0000
# 2 4.2271 21.0542 4.7803 0.0000 0.0000 0.0000
# 3 4.7803 4.7803 124.5090 0.0000 0.0000 0.0000
# 4 0.0000 0.0000 0.0000 19.7245 0.0000 0.0000
# 5 0.0000 0.0000 0.0000 0.0000 19.7245 0.0000
# 6 0.0000 0.0000 0.0000 0.0000 0.0000 11.2916
#
#
#
# Elastic Compliance Matrix: (Units=1/GPa)
#
#
# Indices 1 2 3 4 5 6 
#
# 1 0.049783 -0.009645 -0.001541 0.000000 0.000000 0.000000
# 2 -0.009645 0.049783 -0.001541 0.000000 0.000000 0.000000
# 3 -0.001541 -0.001541 0.008150 0.000000 0.000000 0.000000
# 4 0.000000 0.000000 0.000000 0.050698 0.000000 0.000000
# 5 0.000000 0.000000 0.000000 0.000000 0.050698 0.000000
# 6 0.000000 0.000000 0.000000 0.000000 0.000000 0.088561
#
#
# Mechanical properties :
#
#
# Convention : Reuss Voigt Hill
#
# Bulk Modulus (GPa) = 12.15638 21.57695 16.86667
# Shear Modulus (GPa) = 14.26339 20.33676 17.30008
#
# Velocity S-wave (km/s) = 2.74600 3.27891 3.02422
# Velocity P-wave (km/s) = 4.05964 5.07365 4.59470
#
# Compressibility (1/GPa) = 0.08226130
#
# Stress axis : x y z
#
# Youngs Moduli (GPa) = 20.08730 20.08730 122.70122
#
# Poissons Ratio (x) = 0.19374 0.18908
# Poissons Ratio (y) = 0.19374 0.18908
# Poissons Ratio (z) = 0.03095 0.03095
#
# Static dielectric constant tensor:
#      x y z
#    x 1.665250 0.000000 0.000000 
#    y 0.000000 1.665250 0.000000 
#    z 0.000000 0.000000 1.763850 
# 
# From -- ./inp_files/4075.got.cif
#   From: 2010.05.17/outbox.cif.g08.bks.cpg/sg124_3_cif.got.tgz:4075.got - 2010.05.20 11:49:17.
