data_PCOD9562508
_publ_section_title
;
Structure prediction by ZEFSAII (Michael W. Deem and Ramdas Pophale) SiO2 
 PCOD9562508
Probable space group: P 4/M C C
;
_chemical_formula_sum "Si O2"
_cell_formula_units_Z 96
_cell_length_a 26.891974
_cell_length_b 26.891974
_cell_length_c 8.555854
_cell_angle_alpha 90.000000
_cell_angle_beta 90.000000
_cell_angle_gamma 90.000000
_cell_volume 6187.407657
_symmetry_space_group_name_H-M "P 4/M C C"
_symmetry_group_IT_number 124
_symmetry_cell_setting 'tetragonal'
loop_
_space_group_symop_operation_xyz
x,y,z
-y,x,z
-x,-y,z
y,-x,z
x,-y,1/2-z
-x,y,1/2-z
y,x,1/2-z
-y,-x,1/2-z
-x,-y,-z
y,-x,-z
x,y,-z
-y,x,-z
-x,y,1/2+z
x,-y,1/2+z
-y,-x,1/2+z
y,x,1/2+z
loop_
_atom_site_type_symbol
_atom_site_label
_atom_site_fract_x
_atom_site_fract_y
_atom_site_fract_z
Si Si1 0.631159 0.857953 0.312119
Si Si2 0.450623 0.210067 0.820211
Si Si3 0.055479 0.554541 0.685277
Si Si4 0.220781 0.702293 0.188429
Si Si5 0.710892 0.612774 0.818700
Si Si6 0.447367 0.376604 0.182028
O O1 0.626104 0.847396 0.500000
O O2 0.594261 0.827430 0.200570
O O3 0.605396 0.912230 0.288416
O O4 0.684248 0.832798 0.261113
O O5 0.500000 0.187091 0.750000
O O6 0.434960 0.253668 0.703138
O O7 0.455337 0.225810 0.000000
O O8 0.073085 0.500000 0.750000
O O9 0.054018 0.547952 0.500000
O O10 0.000000 0.561676 0.750000
O O11 0.246407 0.753594 0.250000
O O12 0.259734 0.659155 0.244135
O O13 0.218041 0.703077 0.000000
O O14 0.663582 0.594292 0.725434
O O15 0.700504 0.622710 0.000000
O O16 0.500000 0.361145 0.250000
O O17 0.428641 0.428641 0.250000
O O18 0.451753 0.380573 0.000000
#
# Coordination Sequence:
#
# PCOD9562508 Si02
#       6
#    16  16  16  16  16  16
#     4  10  20  33  47  67  90 117 151 188 225 268
#     4  11  20  30  44  64  88 115 141 171 208 251
#     4  10  20  32  49  69  94 124 158 196 236 280
#     4  11  21  34  51  71  94 121 147 178 215 259
#     4  11  21  35  52  71  91 111 133 161 194 238
#     4  12  25  42  58  73  86 100 120 146 180 223
#
# _framework density 15.515383
#
# number of rings (size 3 to 8) (size 9 to 14) (size 15 to 20)
#    0.000    1.167    0.000   11.000    0.000    4.167 
#    0.000    0.833    0.000    0.000    0.000    0.000 
#    0.000    0.000    0.000    0.000    0.000    0.000 
#
# Total GULP energy -534557.698583 kJ/mol
# GULP energy per Si atom -5568.309360 kJ/mol
# Density = 1.548007 g / cm^3
# Si number density = 15.515383 Si / 1000 Ang^3
#
#
#
# Elastic Constant Matrix: (Units=GPa)
#
#
# Indices 1 2 3 4 5 6 
#
# 1 38.6566 46.3554 18.2828 0.0000 0.0000 0.0000
# 2 46.3554 38.6502 18.2796 0.0000 0.0000 0.0000
# 3 18.2828 18.2796 109.3451 0.0000 0.0000 0.0000
# 4 0.0000 0.0000 0.0000 15.1384 0.0000 0.0000
# 5 0.0000 0.0000 0.0000 0.0000 15.1385 0.0000
# 6 0.0000 0.0000 0.0000 0.0000 0.0000 22.5804
#
#
#
# Elastic Compliance Matrix: (Units=1/GPa)
#
#
# Indices 1 2 3 4 5 6 
#
# 1 -0.058576 0.071255 -0.002118 0.000000 0.000000 0.000000
# 2 0.071255 -0.058585 -0.002120 0.000000 0.000000 0.000000
# 3 -0.002118 -0.002120 0.009854 0.000000 0.000000 0.000000
# 4 0.000000 0.000000 0.000000 0.066057 0.000000 0.000000
# 5 0.000000 0.000000 0.000000 0.000000 0.066057 0.000000
# 6 0.000000 0.000000 0.000000 0.000000 0.000000 0.044286
#
#
# Mechanical properties :
#
#
# Convention : Reuss Voigt Hill
#
# Bulk Modulus (GPa) = 37.41483 39.16530 38.29006
# Shear Modulus (GPa) = -89.23378 17.48708 -35.87335
#
# Velocity S-wave (km/s) = -7.59197 3.36084 -4.81366
# Velocity P-wave (km/s) = 7.25835 6.35280 2.48249
#
# Compressibility (1/GPa) = 0.02672737
#
# Stress axis : x y z
#
# Youngs Moduli (GPa) = -17.07180 -17.06924 101.48232
#
# Poissons Ratio (x) = 1.21628 0.21493
# Poissons Ratio (y) = 1.21646 0.21517
# Poissons Ratio (z) = -0.03616 -0.03619
#
# Static dielectric constant tensor:
#      x y z
#    x 1.585890 0.000000 0.000000 
#    y 0.000000 1.585890 0.000000 
#    z 0.000000 0.000000 1.509460 
# 
# From -- ./inp_files/1561.got.cif
#   From: 2010.05.17/outbox.cif.g08.bks.cpg/sg124_1_cif.got.tgz:1561.got - 2010.05.20 11:49:17.
