data_PCOD9562911
_publ_section_title
;
Structure prediction by ZEFSAII (Michael W. Deem and Ramdas Pophale) SiO2 
 PCOD9562911
Probable space group: P 4/N B M
;
_chemical_formula_sum "Si O2"
_cell_formula_units_Z 128
_cell_length_a 19.485073
_cell_length_b 19.485073
_cell_length_c 20.969011
_cell_angle_alpha 90.000000
_cell_angle_beta 90.000000
_cell_angle_gamma 90.000000
_cell_volume 7961.263932
_symmetry_space_group_name_H-M "P 4/N B M"
_symmetry_group_IT_number 125
_space_group.IT_coordinate_system_code '2'
_symmetry_cell_setting 'tetragonal'
loop_
_space_group_symop_operation_xyz
x,y,z
1/2-y,x,z
1/2-x,1/2-y,z
y,1/2-x,z
x,1/2-y,-z
1/2-x,y,-z
y,x,-z
1/2-y,1/2-x,-z
-x,-y,-z
1/2+y,-x,-z
1/2+x,1/2+y,-z
-y,1/2+x,-z
-x,1/2+y,z
1/2+x,-y,z
-y,-x,z
1/2+y,1/2+x,z
loop_
_atom_site_type_symbol
_atom_site_label
_atom_site_fract_x
_atom_site_fract_y
_atom_site_fract_z
Si Si1 0.172469 0.056646 1.000000
Si Si2 0.554728 0.170436 0.258485
Si Si3 0.829564 0.445273 0.741515
Si Si4 0.000846 0.114302 0.127705
Si Si5 0.054027 0.170209 0.370726
Si Si6 0.054027 0.170209 0.629274
Si Si7 0.614304 0.500845 0.872296
Si Si8 0.003244 0.614191 0.500000
O O1 0.157431 0.013945 0.935928
O O2 0.250000 0.081367 0.000000
O O3 0.118848 0.118848 0.000000
O O4 0.157431 0.013944 0.064070
O O5 0.617945 0.117945 0.265334
O O6 0.575561 0.250000 0.264208
O O7 0.497631 0.155943 0.312355
O O8 0.520573 0.157124 0.189491
O O9 0.882055 0.382055 0.734666
O O10 0.842877 0.479428 0.810509
O O11 0.844057 0.502370 0.687645
O O12 0.940449 0.059552 0.115293
O O13 0.068945 0.068943 0.141217
O O14 0.075204 0.250000 0.367866
O O15 0.118352 0.118351 0.368682
O O16 0.012647 0.156450 0.436237
O O17 0.012647 0.156450 0.563763
O O18 0.559553 0.440448 0.884707
O O19 0.947054 0.552947 0.500000
O O20 0.077015 0.577015 0.500000
#
# Coordination Sequence:
#
# PCOD9562911 Si02
#       8
#    16  16  16  16  16  16  16  16
#     4  10  19  30  45  65  92 124 155 189 228 273
#     4  10  20  33  50  72  97 126 160 198 241 289
#     4  10  20  33  50  72  97 126 160 198 241 289
#     4   9  17  30  49  71  92 116 151 195 240 283
#     4  10  20  33  50  73 100 130 165 203 244 290
#     4  10  20  33  50  73 100 130 165 203 244 290
#     4   9  17  30  49  71  92 116 151 195 240 283
#     4   9  17  30  49  71  95 125 161 199 236 275
#
# _framework density 16.077850000000002
#
# number of rings (size 3 to 8) (size 9 to 14) (size 15 to 20)
#    0.000    2.375    0.000    3.000    0.000    4.625 
#    0.000    0.000    0.000    2.250    0.000    3.500 
#    0.000   18.000    0.000    0.000    0.000    0.000 
#
# Total GULP energy -713671.183398 kJ/mol
# GULP energy per Si atom -5575.556120 kJ/mol
# Density = 1.604126 g / cm^3
# Si number density = 16.077850 Si / 1000 Ang^3
#
#
#
# Elastic Constant Matrix: (Units=GPa)
#
#
# Indices 1 2 3 4 5 6 
#
# 1 87.1157 55.9673 58.8851 0.0000 0.0000 0.0000
# 2 55.9673 87.1159 58.8852 0.0000 0.0000 0.0000
# 3 58.8851 58.8852 137.4043 0.0000 0.0000 0.0000
# 4 0.0000 0.0000 0.0000 20.5877 0.0000 0.0000
# 5 0.0000 0.0000 0.0000 0.0000 20.5878 0.0000
# 6 0.0000 0.0000 0.0000 0.0000 0.0000 14.4553
#
#
#
# Elastic Compliance Matrix: (Units=1/GPa)
#
#
# Indices 1 2 3 4 5 6 
#
# 1 0.021451 -0.010653 -0.004627 0.000000 0.000000 0.000000
# 2 -0.010653 0.021451 -0.004627 0.000000 0.000000 0.000000
# 3 -0.004627 -0.004627 0.011244 0.000000 0.000000 0.000000
# 4 0.000000 0.000000 0.000000 0.048573 0.000000 0.000000
# 5 0.000000 0.000000 0.000000 0.000000 0.048572 0.000000
# 6 0.000000 0.000000 0.000000 0.000000 0.000000 0.069179
#
#
# Mechanical properties :
#
#
# Convention : Reuss Voigt Hill
#
# Bulk Modulus (GPa) = 69.78466 73.23456 71.50961
# Shear Modulus (GPa) = 18.86348 20.31940 19.59144
#
# Velocity S-wave (km/s) = 3.42900 3.55887 3.49454
# Velocity P-wave (km/s) = 7.69258 7.90799 7.80103
#
# Compressibility (1/GPa) = 0.01432980
#
# Stress axis : x y z
#
# Youngs Moduli (GPa) = 46.61781 46.61797 88.93653
#
# Poissons Ratio (x) = 0.49663 0.41155
# Poissons Ratio (y) = 0.49663 0.41154
# Poissons Ratio (z) = 0.21572 0.21572
#
# Static dielectric constant tensor:
#      x y z
#    x 1.516730 0.000000 0.000000 
#    y 0.000000 1.516730 0.000000 
#    z 0.000000 0.000000 1.533800 
# 
# From -- ./inp_files/5638.got.cif
#   From: 2010.05.17/outbox.cif.g08.bks.cpg/sg125_3_cif.got.tgz:5638.got - 2010.05.20 11:54:10.
