data_PCOD9562709
_publ_section_title
;
Structure prediction by ZEFSAII (Michael W. Deem and Ramdas Pophale) SiO2 
 PCOD9562709
Probable space group: P 4/M C C
;
_chemical_formula_sum "Si O2"
_cell_formula_units_Z 48
_cell_length_a 7.933925
_cell_length_b 7.933925
_cell_length_c 33.771535
_cell_angle_alpha 90.000000
_cell_angle_beta 90.000000
_cell_angle_gamma 90.000000
_cell_volume 2125.822417
_symmetry_space_group_name_H-M "P 4/M C C"
_symmetry_group_IT_number 124
_symmetry_cell_setting 'tetragonal'
loop_
_space_group_symop_operation_xyz
x,y,z
-y,x,z
-x,-y,z
y,-x,z
x,-y,1/2-z
-x,y,1/2-z
y,x,1/2-z
-y,-x,1/2-z
-x,-y,-z
y,-x,-z
x,y,-z
-y,x,-z
-x,y,1/2+z
x,-y,1/2+z
-y,-x,1/2+z
y,x,1/2+z
loop_
_atom_site_type_symbol
_atom_site_label
_atom_site_fract_x
_atom_site_fract_y
_atom_site_fract_z
Si Si1 0.500000 0.000000 0.931966
Si Si2 0.270347 0.906755 0.000000
Si Si3 0.387227 0.249434 0.125151
Si Si4 0.822703 0.775374 0.707189
O O1 0.363188 0.092094 0.903554
O O2 0.609518 0.115012 0.961936
O O3 0.102752 0.793352 0.000000
O O4 0.582190 0.286410 0.116773
O O5 0.345740 0.223637 0.171282
O O6 0.739497 0.739497 0.750000
O O7 0.026605 0.775025 0.704417
#
# Coordination Sequence:
#
# PCOD9562709 Si02
#       4
#     8   8  16  16
#     4  11  22  40  62  87 124 164 206 261 330 393
#     4  10  22  40  64  92 120 158 208 263 322 390
#     4  11  23  37  56  85 120 159 205 258 315 378
#     4   9  19  37  60  85 116 158 205 252 309 375
#
# _framework density 22.579498000000001
#
# number of rings (size 3 to 8) (size 9 to 14) (size 15 to 20)
#    0.000    1.833    0.000    5.000    0.000    1.333 
#    0.000    8.333    0.000    8.000    0.000    0.000 
#    0.000    0.000    0.000    0.000    0.000    0.000 
#
# Total GULP energy -267493.344788 kJ/mol
# GULP energy per Si atom -5572.778016 kJ/mol
# Density = 2.252811 g / cm^3
# Si number density = 22.579498 Si / 1000 Ang^3
#
#
#
# Elastic Constant Matrix: (Units=GPa)
#
#
# Indices 1 2 3 4 5 6 
#
# 1 55.9875 4.5273 42.7398 0.0000 0.0000 0.0000
# 2 4.5273 55.9875 42.7398 0.0000 0.0000 0.0000
# 3 42.7398 42.7398 201.9959 0.0000 0.0000 0.0000
# 4 0.0000 0.0000 0.0000 32.7487 0.0000 0.0000
# 5 0.0000 0.0000 0.0000 0.0000 32.7487 0.0000
# 6 0.0000 0.0000 0.0000 0.0000 0.0000 69.9515
#
#
#
# Elastic Compliance Matrix: (Units=1/GPa)
#
#
# Indices 1 2 3 4 5 6 
#
# 1 0.021501 0.002068 -0.004987 0.000000 0.000000 0.000000
# 2 0.002068 0.021501 -0.004987 0.000000 0.000000 0.000000
# 3 -0.004987 -0.004987 0.007061 0.000000 0.000000 0.000000
# 4 0.000000 0.000000 0.000000 0.030536 0.000000 0.000000
# 5 0.000000 0.000000 0.000000 0.000000 0.030536 0.000000
# 6 0.000000 0.000000 0.000000 0.000000 0.000000 0.014296
#
#
# Mechanical properties :
#
#
# Convention : Reuss Voigt Hill
#
# Bulk Modulus (GPa) = 29.19586 54.88721 42.04154
# Shear Modulus (GPa) = 32.75304 42.02070 37.38687
#
# Velocity S-wave (km/s) = 3.81276 4.31862 4.07355
# Velocity P-wave (km/s) = 5.68693 7.01631 6.38630
#
# Compressibility (1/GPa) = 0.03425143
#
# Stress axis : x y z
#
# Youngs Moduli (GPa) = 46.50988 46.50988 141.62417
#
# Poissons Ratio (x) = -0.09620 0.70627
# Poissons Ratio (y) = -0.09620 0.70627
# Poissons Ratio (z) = 0.23194 0.23194
#
# Static dielectric constant tensor:
#      x y z
#    x 1.896850 0.000000 0.000000 
#    y 0.000000 1.896850 0.000000 
#    z 0.000000 0.000000 1.879250 
# 
# From -- ./inp_files/6765.got.cif
#   From: 2010.05.17/outbox.cif.g08.bks.cpg/sg124_4_cif.got.tgz:6765.got - 2010.05.20 11:49:17.
