data_PCOD9562735
_publ_section_title
;
Structure prediction by ZEFSAII (Michael W. Deem and Ramdas Pophale) SiO2 
 PCOD9562735
Probable space group: P 4/M C C
;
_chemical_formula_sum "Si O2"
_cell_formula_units_Z 64
_cell_length_a 14.516695
_cell_length_b 14.516695
_cell_length_c 13.994000
_cell_angle_alpha 90.000000
_cell_angle_beta 90.000000
_cell_angle_gamma 90.000000
_cell_volume 2949.017666
_symmetry_space_group_name_H-M "P 4/M C C"
_symmetry_group_IT_number 124
_symmetry_cell_setting 'tetragonal'
loop_
_space_group_symop_operation_xyz
x,y,z
-y,x,z
-x,-y,z
y,-x,z
x,-y,1/2-z
-x,y,1/2-z
y,x,1/2-z
-y,-x,1/2-z
-x,-y,-z
y,-x,-z
x,y,-z
-y,x,-z
-x,y,1/2+z
x,-y,1/2+z
-y,-x,1/2+z
y,x,1/2+z
loop_
_atom_site_type_symbol
_atom_site_label
_atom_site_fract_x
_atom_site_fract_y
_atom_site_fract_z
Si Si1 0.815456 0.606581 0.230214
Si Si2 0.365871 0.572812 0.614476
Si Si3 0.266060 0.068239 0.386712
Si Si4 0.144035 0.754669 0.113849
O O1 0.828094 0.500000 0.250000
O O2 0.721454 0.612765 0.168938
O O3 0.900147 0.643142 0.167361
O O4 0.816161 0.670769 0.324037
O O5 0.379478 0.463877 0.637469
O O6 0.353020 0.580172 0.500000
O O7 0.280679 0.071771 0.500000
O O8 0.193253 0.148810 0.362973
O O9 0.237436 0.964490 0.363908
O O10 0.155440 0.737674 0.000000
#
# Coordination Sequence:
#
# PCOD9562735 Si02
#       4
#    16  16  16  16
#     4  12  26  39  65  98 135 181 224 269 335 406
#     4   9  21  42  67  97 131 171 226 287 337 387
#     4  10  23  45  70 100 133 173 224 287 349 408
#     4  10  24  45  70  99 136 175 227 286 343 409
#
# _framework density 21.70214
#
# number of rings (size 3 to 8) (size 9 to 14) (size 15 to 20)
#    0.000    1.750    0.000    3.000    7.000    4.500 
#    0.000    6.250    0.000    3.000    0.000    1.750 
#    0.000    0.000    0.000    0.000    0.000    0.000 
#
# Total GULP energy -358454.772608 kJ/mol
# GULP energy per Si atom -5600.855822 kJ/mol
# Density = 2.165275 g / cm^3
# Si number density = 21.702140 Si / 1000 Ang^3
#
#
#
# Elastic Constant Matrix: (Units=GPa)
#
#
# Indices 1 2 3 4 5 6 
#
# 1 148.4448 65.8709 58.3994 0.0000 0.0000 0.0000
# 2 65.8709 148.4448 58.3994 0.0000 0.0000 0.0000
# 3 58.3994 58.3994 95.2890 0.0000 0.0000 0.0000
# 4 0.0000 0.0000 0.0000 40.4149 0.0000 0.0000
# 5 0.0000 0.0000 0.0000 0.0000 40.4149 0.0000
# 6 0.0000 0.0000 0.0000 0.0000 0.0000 23.8119
#
#
#
# Elastic Compliance Matrix: (Units=1/GPa)
#
#
# Indices 1 2 3 4 5 6 
#
# 1 0.009558 -0.002552 -0.004294 0.000000 0.000000 0.000000
# 2 -0.002552 0.009558 -0.004294 0.000000 0.000000 0.000000
# 3 -0.004294 -0.004294 0.015757 0.000000 0.000000 0.000000
# 4 0.000000 0.000000 0.000000 0.024743 0.000000 0.000000
# 5 0.000000 0.000000 0.000000 0.000000 0.024743 0.000000
# 6 0.000000 0.000000 0.000000 0.000000 0.000000 0.041996
#
#
# Mechanical properties :
#
#
# Convention : Reuss Voigt Hill
#
# Bulk Modulus (GPa) = 79.40020 84.16865 81.78442
# Shear Modulus (GPa) = 32.71525 34.89559 33.80542
#
# Velocity S-wave (km/s) = 3.88682 4.01425 3.95105
# Velocity P-wave (km/s) = 7.53717 7.76875 7.65383
#
# Compressibility (1/GPa) = 0.01259443
#
# Stress axis : x y z
#
# Youngs Moduli (GPa) = 104.62217 104.62217 63.46223
#
# Poissons Ratio (x) = 0.26701 0.27249
# Poissons Ratio (y) = 0.26701 0.27249
# Poissons Ratio (z) = 0.44922 0.44922
#
# Static dielectric constant tensor:
#      x y z
#    x 1.771530 0.000000 0.000000 
#    y 0.000000 1.771530 0.000000 
#    z 0.000000 0.000000 1.828550 
# 
# From -- ./inp_files/2969.got.cif
#   From: 2010.05.17/outbox.cif.g08.bks.cpg/sg124_2_cif.got.tgz:2969.got - 2010.05.20 11:49:17.
