data_PCOD9562769
_publ_section_title
;
Structure prediction by ZEFSAII (Michael W. Deem and Ramdas Pophale) SiO2 
 PCOD9562769
Probable space group: P 4/M C C
;
_chemical_formula_sum "Si O2"
_cell_formula_units_Z 64
_cell_length_a 14.186432
_cell_length_b 14.186432
_cell_length_c 15.637246
_cell_angle_alpha 90.000000
_cell_angle_beta 90.000000
_cell_angle_gamma 90.000000
_cell_volume 3147.071643
_symmetry_space_group_name_H-M "P 4/M C C"
_symmetry_group_IT_number 124
_symmetry_cell_setting 'tetragonal'
loop_
_space_group_symop_operation_xyz
x,y,z
-y,x,z
-x,-y,z
y,-x,z
x,-y,1/2-z
-x,y,1/2-z
y,x,1/2-z
-y,-x,1/2-z
-x,-y,-z
y,-x,-z
x,y,-z
-y,x,-z
-x,y,1/2+z
x,-y,1/2+z
-y,-x,1/2+z
y,x,1/2+z
loop_
_atom_site_type_symbol
_atom_site_label
_atom_site_fract_x
_atom_site_fract_y
_atom_site_fract_z
Si Si1 0.397725 0.240572 0.855215
Si Si2 0.122194 0.784570 0.336623
Si Si3 0.252523 0.075504 0.904728
Si Si4 0.249591 0.390085 0.851338
O O1 0.336368 0.147754 0.877668
O O2 0.341324 0.333875 0.884391
O O3 0.505100 0.236252 0.886231
O O4 0.399372 0.251583 0.752190
O O5 0.173577 0.826424 0.250000
O O6 0.158178 0.861808 0.403285
O O7 0.166499 0.684698 0.363000
O O8 0.011517 0.767444 0.342221
O O9 0.272595 0.040434 0.000000
#
# Coordination Sequence:
#
# PCOD9562769 Si02
#       4
#    16  16  16  16
#     4   9  18  34  57  87 122 155 197 245 295 355
#     4  11  21  39  61  85 115 158 207 252 301 362
#     4  11  23  39  58  87 122 158 198 253 311 364
#     4   9  17  34  59  87 117 154 202 246 292 342
#
# _framework density 20.336365000000001
#
# number of rings (size 3 to 8) (size 9 to 14) (size 15 to 20)
#    0.000    2.000    5.000    1.500    0.000    2.000 
#    0.000   15.000    0.000    0.000    0.000    7.000 
#    0.000    0.000    0.000    0.000    0.000    0.000 
#
# Total GULP energy -356342.779399 kJ/mol
# GULP energy per Si atom -5567.855928 kJ/mol
# Density = 2.029008 g / cm^3
# Si number density = 20.336365 Si / 1000 Ang^3
#
#
#
# Elastic Constant Matrix: (Units=GPa)
#
#
# Indices 1 2 3 4 5 6 
#
# 1 185.3006 84.7319 21.9200 0.0000 0.0000 0.0000
# 2 84.7319 185.3012 21.9201 0.0000 0.0000 0.0000
# 3 21.9200 21.9201 73.8033 0.0000 0.0000 0.0000
# 4 0.0000 0.0000 0.0000 -1.7922 0.0000 0.0000
# 5 0.0000 0.0000 0.0000 0.0000 -1.7926 0.0000
# 6 0.0000 0.0000 0.0000 0.0000 0.0000 6.9120
#
#
#
# Elastic Compliance Matrix: (Units=1/GPa)
#
#
# Indices 1 2 3 4 5 6 
#
# 1 0.006917 -0.003026 -0.001156 0.000000 0.000000 0.000000
# 2 -0.003026 0.006917 -0.001156 0.000000 0.000000 0.000000
# 3 -0.001156 -0.001156 0.014236 0.000000 0.000000 0.000000
# 4 0.000000 0.000000 0.000000 -0.557978 0.000000 0.000000
# 5 0.000000 0.000000 0.000000 0.000000 -0.557851 0.000000
# 6 0.000000 0.000000 0.000000 0.000000 0.000000 0.144676
#
#
# Mechanical properties :
#
#
# Convention : Reuss Voigt Hill
#
# Bulk Modulus (GPa) = 57.48692 77.94990 67.71841
# Shear Modulus (GPa) = -5.39601 21.72099 8.16249
#
# Velocity S-wave (km/s) = -1.63069 3.27170 2.00561
# Velocity P-wave (km/s) = 4.97834 7.25848 6.22372
#
# Compressibility (1/GPa) = 0.01739526
#
# Stress axis : x y z
#
# Youngs Moduli (GPa) = 144.56811 144.56858 70.24457
#
# Poissons Ratio (x) = 0.43750 0.08118
# Poissons Ratio (y) = 0.43750 0.08118
# Poissons Ratio (z) = 0.16707 0.16707
#
# Static dielectric constant tensor:
#      x y z
#    x 1.721200 0.000000 0.000000 
#    y 0.000000 1.721200 0.000000 
#    z 0.000000 0.000000 1.855230 
# 
# From -- ./inp_files/3921.got.cif
#   From: 2010.05.17/outbox.cif.g08.bks.cpg/sg124_2_cif.got.tgz:3921.got - 2010.05.20 11:49:17.
