data_PCOD9562256
_publ_section_title
;
Structure prediction by ZEFSAII (Michael W. Deem and Ramdas Pophale) SiO2 
 PCOD9562256
Probable space group: P 4/M M M
;
_chemical_formula_sum "Si O2"
_cell_formula_units_Z 56
_cell_length_a 20.316018
_cell_length_b 20.316018
_cell_length_c 7.440631
_cell_angle_alpha 90.000000
_cell_angle_beta 90.000000
_cell_angle_gamma 90.000000
_cell_volume 3071.050409
_symmetry_space_group_name_H-M "P 4/M M M"
_symmetry_group_IT_number 123
_symmetry_cell_setting 'tetragonal'
loop_
_space_group_symop_operation_xyz
x,y,z
-y,x,z
-x,-y,z
y,-x,z
x,-y,-z
-x,y,-z
y,x,-z
-y,-x,-z
-x,-y,-z
y,-x,-z
x,y,-z
-y,x,-z
-x,y,z
x,-y,z
-y,-x,z
y,x,z
loop_
_atom_site_type_symbol
_atom_site_label
_atom_site_fract_x
_atom_site_fract_y
_atom_site_fract_z
Si Si1 0.817893 0.288125 0.280185
Si Si2 0.817725 0.075419 0.280945
Si Si3 0.000000 0.579374 0.202336
Si Si4 0.573943 0.853690 0.707011
O O1 0.819121 0.290075 0.500000
O O2 0.755156 0.244845 0.227591
O O3 0.882366 0.246251 0.225770
O O4 0.817641 0.362890 0.213020
O O5 0.817547 0.074454 0.500000
O O6 0.881652 0.118349 0.227445
O O7 0.817859 0.000000 0.219830
O O8 0.069259 0.594955 0.291505
O O9 0.000000 0.500000 0.196080
O O10 0.000000 0.605334 0.000000
O O11 0.568381 0.833211 0.500000
O O12 0.500000 0.847997 0.786185
#
# Coordination Sequence:
#
# PCOD9562256 Si02
#       4
#    16  16   8  16
#     4   8  14  23  34  50  73  97 119 149 191 231
#     4   8  13  19  26  38  58  86 116 143 177 219
#     4   9  17  27  37  53  79 105 126 151 188 228
#     4   9  16  25  39  58  76  96 127 161 187 219
#
# _framework density 18.234805000000001
#
# number of rings (size 3 to 8) (size 9 to 14) (size 15 to 20)
#    0.000    3.571    0.000    2.143    2.000    2.000 
#    0.000    1.429    0.000    0.857    0.000    0.000 
#    0.000    0.571    0.000    8.000    0.000   12.571 
#
# Total GULP energy -311816.379387 kJ/mol
# GULP energy per Si atom -5568.149632 kJ/mol
# Density = 1.819330 g / cm^3
# Si number density = 18.234805 Si / 1000 Ang^3
#
#
#
# Elastic Constant Matrix: (Units=GPa)
#
#
# Indices 1 2 3 4 5 6 
#
# 1 145.5780 70.9714 4.6102 0.0000 0.0000 0.0000
# 2 70.9714 145.5780 4.6102 0.0000 0.0000 0.0000
# 3 4.6102 4.6102 56.4103 0.0000 0.0000 0.0000
# 4 0.0000 0.0000 0.0000 -25.6773 0.0000 0.0000
# 5 0.0000 0.0000 0.0000 0.0000 -25.6773 0.0000
# 6 0.0000 0.0000 0.0000 0.0000 0.0000 10.3753
#
#
#
# Elastic Compliance Matrix: (Units=1/GPa)
#
#
# Indices 1 2 3 4 5 6 
#
# 1 0.009019 -0.004385 -0.000379 0.000000 0.000000 0.000000
# 2 -0.004385 0.009019 -0.000379 0.000000 0.000000 0.000000
# 3 -0.000379 -0.000379 0.017789 0.000000 0.000000 0.000000
# 4 0.000000 0.000000 0.000000 -0.038945 0.000000 0.000000
# 5 0.000000 0.000000 0.000000 0.000000 -0.038945 0.000000
# 6 0.000000 0.000000 0.000000 0.000000 0.000000 0.096382
#
#
# Mechanical properties :
#
#
# Convention : Reuss Voigt Hill
#
# Bulk Modulus (GPa) = 39.15077 56.43889 47.79483
# Shear Modulus (GPa) = 68.38240 9.62909 39.00574
#
# Velocity S-wave (km/s) = 6.13045 2.30045 4.63004
# Velocity P-wave (km/s) = 8.46327 6.17045 7.40612
#
# Compressibility (1/GPa) = 0.02554228
#
# Stress axis : x y z
#
# Youngs Moduli (GPa) = 110.87914 110.87914 56.21404
#
# Poissons Ratio (x) = 0.48618 0.02129
# Poissons Ratio (y) = 0.48618 0.02129
# Poissons Ratio (z) = 0.04199 0.04199
#
# Static dielectric constant tensor:
#      x y z
#    x 1.637070 0.000000 0.000000 
#    y 0.000000 1.637070 0.000000 
#    z 0.000000 0.000000 1.682950 
# 
# From -- ./inp_files/743.got.cif
#   From: 2010.05.17/outbox.cif.g08.bks.cpg/sg123_1_cif.got.tgz:743.got - 2010.05.20 11:43:04.
