data_PCOD9562996
_publ_section_title
;
Structure prediction by ZEFSAII (Michael W. Deem and Ramdas Pophale) SiO2 
 PCOD9562996
Probable space group: P 4/N B M
;
_chemical_formula_sum "Si O2"
_cell_formula_units_Z 96
_cell_length_a 25.213018
_cell_length_b 25.213018
_cell_length_c 7.845678
_cell_angle_alpha 90.000000
_cell_angle_beta 90.000000
_cell_angle_gamma 90.000000
_cell_volume 4987.468293
_symmetry_space_group_name_H-M "P 4/N B M"
_symmetry_group_IT_number 125
_space_group.IT_coordinate_system_code '2'
_symmetry_cell_setting 'tetragonal'
loop_
_space_group_symop_operation_xyz
x,y,z
1/2-y,x,z
1/2-x,1/2-y,z
y,1/2-x,z
x,1/2-y,-z
1/2-x,y,-z
y,x,-z
1/2-y,1/2-x,-z
-x,-y,-z
1/2+y,-x,-z
1/2+x,1/2+y,-z
-y,1/2+x,-z
-x,1/2+y,z
1/2+x,-y,z
-y,-x,z
1/2+y,1/2+x,z
loop_
_atom_site_type_symbol
_atom_site_label
_atom_site_fract_x
_atom_site_fract_y
_atom_site_fract_z
Si Si1 0.985630 0.870857 0.339466
Si Si2 0.810993 0.604686 0.531230
Si Si3 0.800036 0.112270 0.221505
Si Si4 0.881926 0.032524 0.300374
Si Si5 0.591798 0.179010 0.180991
Si Si6 0.575606 0.887944 0.169594
O O1 0.942027 0.828393 0.402460
O O2 0.946575 0.912869 0.248262
O O3 0.007880 0.895034 0.515708
O O4 0.034042 0.843045 0.238585
O O5 0.750000 0.611063 0.500000
O O6 0.840629 0.659372 0.500000
O O7 0.838007 0.588965 0.710649
O O8 0.832465 0.167536 0.254099
O O9 0.827474 0.064586 0.324394
O O10 0.737044 0.109291 0.250876
O O11 0.812588 0.097027 0.023661
O O12 0.924247 0.075754 0.248903
O O13 0.881812 0.987428 0.157415
O O14 0.634544 0.134544 0.232910
O O15 0.610010 0.889991 0.000000
#
# Coordination Sequence:
#
# PCOD9562996 Si02
#       6
#    16  16  16  16  16  16
#     4  10  21  34  53  82 111 145 189 235 285 348
#     4   9  20  38  58  85 115 150 190 229 281 346
#     4   9  20  36  52  78 110 144 194 245 294 348
#     4  10  20  34  55  78 109 153 191 234 289 348
#     4  10  20  34  54  79 109 147 193 242 295 350
#     4  10  21  37  56  84 120 149 187 237 288 343
#
# _framework density 19.248242000000001
#
# number of rings (size 3 to 8) (size 9 to 14) (size 15 to 20)
#    0.000    2.333    0.000    3.000    4.667    2.833 
#    0.000    4.167    0.000    0.000    0.000    7.000 
#    0.000    0.000    0.000    0.000    0.000    0.000 
#
# Total GULP energy -534411.114240 kJ/mol
# GULP energy per Si atom -5566.782440 kJ/mol
# Density = 1.920443 g / cm^3
# Si number density = 19.248242 Si / 1000 Ang^3
#
#
#
# Elastic Constant Matrix: (Units=GPa)
#
#
# Indices 1 2 3 4 5 6 
#
# 1 163.7491 55.9812 28.4997 0.0000 0.0000 0.0000
# 2 55.9812 163.7408 28.4977 0.0000 0.0000 0.0000
# 3 28.4997 28.4977 50.5137 0.0000 0.0000 0.0000
# 4 0.0000 0.0000 0.0000 7.2257 0.0000 0.0000
# 5 0.0000 0.0000 0.0000 0.0000 7.2212 0.0000
# 6 0.0000 0.0000 0.0000 0.0000 0.0000 -14.3656
#
#
#
# Elastic Compliance Matrix: (Units=1/GPa)
#
#
# Indices 1 2 3 4 5 6 
#
# 1 0.007305 -0.001974 -0.003008 0.000000 0.000000 0.000000
# 2 -0.001974 0.007306 -0.003008 0.000000 0.000000 0.000000
# 3 -0.003008 -0.003008 0.023191 0.000000 0.000000 0.000000
# 4 0.000000 0.000000 0.000000 0.138395 0.000000 0.000000
# 5 0.000000 0.000000 0.000000 0.000000 0.138480 0.000000
# 6 0.000000 0.000000 0.000000 0.000000 0.000000 -0.069611
#
#
# Mechanical properties :
#
#
# Convention : Reuss Voigt Hill
#
# Bulk Modulus (GPa) = 45.82550 67.10675 56.46612
# Shear Modulus (GPa) = 18.63447 17.68459 18.15953
#
# Velocity S-wave (km/s) = 3.11483 3.03440 3.07488
# Velocity P-wave (km/s) = 6.06593 6.87141 6.48120
#
# Compressibility (1/GPa) = 0.02182191
#
# Stress axis : x y z
#
# Youngs Moduli (GPa) = 136.88676 136.88112 43.12106
#
# Poissons Ratio (x) = 0.27022 0.12970
# Poissons Ratio (y) = 0.27023 0.12970
# Poissons Ratio (z) = 0.41175 0.41170
#
# Static dielectric constant tensor:
#      x y z
#    x 1.680970 0.000000 0.000000 
#    y 0.000000 1.680970 0.000000 
#    z 0.000000 0.000000 1.748270 
# 
# From -- ./inp_files/2864.got.cif
#   From: 2010.05.17/outbox.cif.g08.bks.cpg/sg125_2_cif.got.tgz:2864.got - 2010.05.20 11:54:10.
