data_PCOD9562832
_publ_section_title
;
Structure prediction by ZEFSAII (Michael W. Deem and Ramdas Pophale) SiO2 
 PCOD9562832
Probable space group: P 4/M C C
;
_chemical_formula_sum "Si O2"
_cell_formula_units_Z 72
_cell_length_a 10.777892
_cell_length_b 10.777892
_cell_length_c 28.830656
_cell_angle_alpha 90.000000
_cell_angle_beta 90.000000
_cell_angle_gamma 90.000000
_cell_volume 3349.054223
_symmetry_space_group_name_H-M "P 4/M C C"
_symmetry_group_IT_number 124
_symmetry_cell_setting 'tetragonal'
loop_
_space_group_symop_operation_xyz
x,y,z
-y,x,z
-x,-y,z
y,-x,z
x,-y,1/2-z
-x,y,1/2-z
y,x,1/2-z
-y,-x,1/2-z
-x,-y,-z
y,-x,-z
x,y,-z
-y,x,-z
-x,y,1/2+z
x,-y,1/2+z
-y,-x,1/2+z
y,x,1/2+z
loop_
_atom_site_type_symbol
_atom_site_label
_atom_site_fract_x
_atom_site_fract_y
_atom_site_fract_z
Si Si1 0.294237 0.740267 0.152386
Si Si2 0.341954 0.362829 0.448807
Si Si3 0.934098 0.201132 0.500000
Si Si4 0.803694 0.933145 0.401147
Si Si5 0.855793 0.525045 0.695182
O O1 0.289937 0.686322 0.099824
O O2 0.262945 0.885127 0.144154
O O3 0.197646 0.660971 0.182222
O O4 0.431916 0.753061 0.172660
O O5 0.488098 0.331527 0.448185
O O6 0.292147 0.322929 0.500000
O O7 0.916910 0.266485 0.450471
O O8 0.075088 0.147381 0.500000
O O9 0.927562 0.850109 0.400909
O O10 0.853145 0.500000 0.750000
O O11 0.000000 0.500000 0.680290
#
# Coordination Sequence:
#
# PCOD9562832 Si02
#       5
#    16  16   8  16  16
#     4  12  21  38  64  88 121 159 200 248 306 365
#     4   9  18  34  55  84 121 159 196 234 285 356
#     4   7  12  26  46  72 108 149 194 240 284 337
#     4   9  18  32  52  79 112 156 203 239 286 350
#     4  11  26  45  64  91 122 155 205 264 316 364
#
# _framework density 21.498605000000001
#
# number of rings (size 3 to 8) (size 9 to 14) (size 15 to 20)
#    0.000    2.111    2.222    4.000    1.556    0.444 
#    0.000    1.111    0.000    1.333    0.000    9.333 
#    0.000    0.000    0.000    0.000    0.000    0.000 
#
# Total GULP energy -400952.567479 kJ/mol
# GULP energy per Si atom -5568.785659 kJ/mol
# Density = 2.144967 g / cm^3
# Si number density = 21.498605 Si / 1000 Ang^3
#
#
#
# Elastic Constant Matrix: (Units=GPa)
#
#
# Indices 1 2 3 4 5 6 
#
# 1 55.4918 35.7112 31.1191 0.0000 0.0000 0.0000
# 2 35.7112 55.4918 31.1191 0.0000 0.0000 0.0000
# 3 31.1191 31.1191 90.2266 0.0000 0.0000 0.0000
# 4 0.0000 0.0000 0.0000 26.9301 0.0000 0.0000
# 5 0.0000 0.0000 0.0000 0.0000 26.9301 0.0000
# 6 0.0000 0.0000 0.0000 0.0000 0.0000 28.1672
#
#
#
# Elastic Compliance Matrix: (Units=1/GPa)
#
#
# Indices 1 2 3 4 5 6 
#
# 1 0.032447 -0.018108 -0.004946 0.000000 0.000000 0.000000
# 2 -0.018108 0.032447 -0.004946 0.000000 0.000000 0.000000
# 3 -0.004946 -0.004946 0.014495 0.000000 0.000000 0.000000
# 4 0.000000 0.000000 0.000000 0.037133 0.000000 0.000000
# 5 0.000000 0.000000 0.000000 0.000000 0.037133 0.000000
# 6 0.000000 0.000000 0.000000 0.000000 0.000000 0.035502
#
#
# Mechanical properties :
#
#
# Convention : Reuss Voigt Hill
#
# Bulk Modulus (GPa) = 42.75138 44.12323 43.43731
# Shear Modulus (GPa) = 19.76652 23.28950 21.52801
#
# Velocity S-wave (km/s) = 3.03550 3.29493 3.16787
# Velocity P-wave (km/s) = 5.67579 5.91977 5.79906
#
# Compressibility (1/GPa) = 0.02339106
#
# Stress axis : x y z
#
# Youngs Moduli (GPa) = 30.81934 30.81934 68.99045
#
# Poissons Ratio (x) = 0.55806 0.34121
# Poissons Ratio (y) = 0.55806 0.34121
# Poissons Ratio (z) = 0.15242 0.15242
#
# Static dielectric constant tensor:
#      x y z
#    x 1.826300 0.000000 0.000000 
#    y 0.000000 1.826300 0.000000 
#    z 0.000000 0.000000 1.825780 
# 
# From -- ./inp_files/6462.got.cif
#   From: 2010.05.17/outbox.cif.g08.bks.cpg/sg124_4_cif.got.tgz:6462.got - 2010.05.20 11:49:17.
