data_PCOD9562999
_publ_section_title
;
Structure prediction by ZEFSAII (Michael W. Deem and Ramdas Pophale) SiO2 
 PCOD9562999
Probable space group: P 4/N B M
;
_chemical_formula_sum "Si O2"
_cell_formula_units_Z 104
_cell_length_a 17.166627
_cell_length_b 17.166627
_cell_length_c 19.364487
_cell_angle_alpha 90.000000
_cell_angle_beta 90.000000
_cell_angle_gamma 90.000000
_cell_volume 5706.580366
_symmetry_space_group_name_H-M "P 4/N B M"
_symmetry_group_IT_number 125
_space_group.IT_coordinate_system_code '2'
_symmetry_cell_setting 'tetragonal'
loop_
_space_group_symop_operation_xyz
x,y,z
1/2-y,x,z
1/2-x,1/2-y,z
y,1/2-x,z
x,1/2-y,-z
1/2-x,y,-z
y,x,-z
1/2-y,1/2-x,-z
-x,-y,-z
1/2+y,-x,-z
1/2+x,1/2+y,-z
-y,1/2+x,-z
-x,1/2+y,z
1/2+x,-y,z
-y,-x,z
1/2+y,1/2+x,z
loop_
_atom_site_type_symbol
_atom_site_label
_atom_site_fract_x
_atom_site_fract_y
_atom_site_fract_z
Si Si1 0.629846 0.629846 0.500000
Si Si2 0.982344 0.140701 0.286278
Si Si3 0.827723 0.457747 0.453833
Si Si4 0.363129 0.198378 0.643509
Si Si5 0.915894 0.961126 0.813634
Si Si6 0.166800 0.348489 0.918605
Si Si7 0.688925 0.061785 0.288793
O O1 0.543525 0.639478 0.469174
O O2 0.691846 0.638324 0.438930
O O3 0.920881 0.079120 0.317221
O O4 0.939946 0.221028 0.267344
O O5 0.054945 0.163824 0.334203
O O6 0.024354 0.097979 0.223044
O O7 0.750000 0.446560 0.500000
O O8 0.891444 0.391444 0.470477
O O9 0.812455 0.453533 0.371400
O O10 0.349632 0.286985 0.667486
O O11 0.874016 0.913041 0.872782
O O12 0.858430 0.997053 0.755186
O O13 0.966238 0.033763 0.840669
O O14 0.144849 0.258939 0.903219
O O15 0.146746 0.353255 0.000000
O O16 0.642252 0.142252 0.277554
#
# Coordination Sequence:
#
# PCOD9562999 Si02
#       7
#     8  16  16  16  16  16  16
#     4  12  21  35  54  74  98 127 165 210 268 332
#     4  11  22  36  55  78 103 136 179 222 269 323
#     4  11  24  39  56  77 102 136 179 230 287 346
#     4  11  23  37  53  75 102 131 167 214 271 334
#     4  10  20  34  55  81 111 145 181 227 273 320
#     4   9  18  33  55  84 117 151 183 215 257 315
#     4  10  22  39  55  76 107 141 182 231 284 339
#
# _framework density 18.224574
#
# number of rings (size 3 to 8) (size 9 to 14) (size 15 to 20)
#    0.000    1.538    0.000    6.692    0.000    5.692 
#    0.000    3.077    0.000    0.000    0.000    0.000 
#    0.000    0.000    0.000   28.615    0.000    0.154 
#
# Total GULP energy -580786.146644 kJ/mol
# GULP energy per Si atom -5584.482179 kJ/mol
# Density = 1.818309 g / cm^3
# Si number density = 18.224574 Si / 1000 Ang^3
#
#
#
# Elastic Constant Matrix: (Units=GPa)
#
#
# Indices 1 2 3 4 5 6 
#
# 1 127.1123 83.0040 46.4022 0.0000 0.0000 0.0000
# 2 83.0040 127.1121 46.4022 0.0000 0.0000 0.0000
# 3 46.4022 46.4022 54.8936 0.0000 0.0000 0.0000
# 4 0.0000 0.0000 0.0000 26.9688 0.0000 0.0000
# 5 0.0000 0.0000 0.0000 0.0000 26.9690 0.0000
# 6 0.0000 0.0000 0.0000 0.0000 0.0000 35.0954
#
#
#
# Elastic Compliance Matrix: (Units=1/GPa)
#
#
# Indices 1 2 3 4 5 6 
#
# 1 0.015133 -0.007538 -0.006420 0.000000 0.000000 0.000000
# 2 -0.007538 0.015133 -0.006420 0.000000 0.000000 0.000000
# 3 -0.006420 -0.006420 0.029071 0.000000 0.000000 0.000000
# 4 0.000000 0.000000 0.000000 0.037080 0.000000 0.000000
# 5 0.000000 0.000000 0.000000 0.000000 0.037080 0.000000
# 6 0.000000 0.000000 0.000000 0.000000 0.000000 0.028494
#
#
# Mechanical properties :
#
#
# Convention : Reuss Voigt Hill
#
# Bulk Modulus (GPa) = 53.81978 73.41496 63.61737
# Shear Modulus (GPa) = 23.93022 26.69396 25.31209
#
# Velocity S-wave (km/s) = 3.62757 3.83132 3.73084
# Velocity P-wave (km/s) = 6.86595 7.74229 7.31725
#
# Compressibility (1/GPa) = 0.01858053
#
# Stress axis : x y z
#
# Youngs Moduli (GPa) = 66.07999 66.07985 34.39864
#
# Poissons Ratio (x) = 0.49813 0.22084
# Poissons Ratio (y) = 0.49813 0.22084
# Poissons Ratio (z) = 0.42423 0.42424
#
# Static dielectric constant tensor:
#      x y z
#    x 1.653380 0.000000 0.000000 
#    y 0.000000 1.653380 0.000000 
#    z 0.000000 0.000000 1.623760 
# 
# From -- ./inp_files/5510.got.cif
#   From: 2010.05.17/outbox.cif.g08.bks.cpg/sg125_3_cif.got.tgz:5510.got - 2010.05.20 11:54:10.
