data_PCOD9562935
_publ_section_title
;
Structure prediction by ZEFSAII (Michael W. Deem and Ramdas Pophale) SiO2 
 PCOD9562935
Probable space group: P 4/N B M
;
_chemical_formula_sum "Si O2"
_cell_formula_units_Z 48
_cell_length_a 20.595748
_cell_length_b 20.595748
_cell_length_c 4.682972
_cell_angle_alpha 90.000000
_cell_angle_beta 90.000000
_cell_angle_gamma 90.000000
_cell_volume 1986.445708
_symmetry_space_group_name_H-M "P 4/N B M"
_symmetry_group_IT_number 125
_space_group.IT_coordinate_system_code '2'
_symmetry_cell_setting 'tetragonal'
loop_
_space_group_symop_operation_xyz
x,y,z
1/2-y,x,z
1/2-x,1/2-y,z
y,1/2-x,z
x,1/2-y,-z
1/2-x,y,-z
y,x,-z
1/2-y,1/2-x,-z
-x,-y,-z
1/2+y,-x,-z
1/2+x,1/2+y,-z
-y,1/2+x,-z
-x,1/2+y,z
1/2+x,-y,z
-y,-x,z
1/2+y,1/2+x,z
loop_
_atom_site_type_symbol
_atom_site_label
_atom_site_fract_x
_atom_site_fract_y
_atom_site_fract_z
Si Si1 0.597368 0.200586 0.746525
Si Si2 0.920829 0.677241 0.078128
Si Si3 0.379983 0.482957 0.435247
O O1 0.619383 0.250000 0.500000
O O2 0.655240 0.155240 0.859408
O O3 0.547739 0.150268 0.579244
O O4 0.573631 0.250000 0.000000
O O5 0.931881 0.667044 0.410130
O O6 0.929199 0.750000 0.000000
O O7 0.852167 0.647834 0.000000
O O8 0.973800 0.633620 0.899952
O O9 0.451380 0.451380 0.500000
#
# Coordination Sequence:
#
# PCOD9562935 Si02
#       3
#    16  16  16
#     4  12  26  44  68  96 129 171 217 269 328 393
#     4  10  19  32  53  82 119 162 206 255 312 376
#     4  10  21  38  62  90 120 159 207 262 321 381
#
# _framework density 24.163762999999999
#
# number of rings (size 3 to 8) (size 9 to 14) (size 15 to 20)
#    0.000    1.333    0.000    7.000    0.000    3.000 
#    0.000    0.000    0.000   16.000    0.000    0.000 
#    0.000    0.000    0.000    0.000    0.000    0.000 
#
# Total GULP energy -267246.698550 kJ/mol
# GULP energy per Si atom -5567.639553 kJ/mol
# Density = 2.410877 g / cm^3
# Si number density = 24.163763 Si / 1000 Ang^3
#
#
#
# Elastic Constant Matrix: (Units=GPa)
#
#
# Indices 1 2 3 4 5 6 
#
# 1 64.3200 126.5004 13.2768 0.0000 0.0000 0.0000
# 2 126.5004 64.3157 13.2768 0.0000 0.0000 0.0000
# 3 13.2768 13.2768 91.6434 0.0000 0.0000 0.0000
# 4 0.0000 0.0000 0.0000 21.4025 0.0000 0.0000
# 5 0.0000 0.0000 0.0000 0.0000 21.4029 0.0000
# 6 0.0000 0.0000 0.0000 0.0000 0.0000 31.6795
#
#
#
# Elastic Compliance Matrix: (Units=1/GPa)
#
#
# Indices 1 2 3 4 5 6 
#
# 1 -0.005366 0.010715 -0.000775 0.000000 0.000000 0.000000
# 2 0.010715 -0.005367 -0.000775 0.000000 0.000000 0.000000
# 3 -0.000775 -0.000775 0.011136 0.000000 0.000000 0.000000
# 4 0.000000 0.000000 0.000000 0.046724 0.000000 0.000000
# 5 0.000000 0.000000 0.000000 0.000000 0.046723 0.000000
# 6 0.000000 0.000000 0.000000 0.000000 0.000000 0.031566
#
#
# Mechanical properties :
#
#
# Convention : Reuss Voigt Hill
#
# Bulk Modulus (GPa) = 53.37943 58.48745 55.93344
# Shear Modulus (GPa) = 44.11918 19.37865 31.74891
#
# Velocity S-wave (km/s) = 4.27762 2.83498 3.62872
# Velocity P-wave (km/s) = 6.82173 5.91382 6.38394
#
# Compressibility (1/GPa) = 0.01873381
#
# Stress axis : x y z
#
# Youngs Moduli (GPa) = -186.34291 -186.33029 89.79584
#
# Poissons Ratio (x) = 1.99654 0.06958
# Poissons Ratio (y) = 1.99667 0.06958
# Poissons Ratio (z) = -0.14439 -0.14437
#
# Static dielectric constant tensor:
#      x y z
#    x 1.938250 0.000000 0.000000 
#    y 0.000000 1.938260 0.000000 
#    z 0.000000 0.000000 1.865970 
# 
# From -- ./inp_files/659.got.cif
#   From: 2010.05.17/outbox.cif.g08.bks.cpg/sg125_1_cif.got.tgz:659.got - 2010.05.20 11:54:10.
