data_PCOD9562054
_publ_section_title
;
Structure prediction by ZEFSAII (Michael W. Deem and Ramdas Pophale) SiO2 
 PCOD9562054
Probable space group: P 4/M M M
;
_chemical_formula_sum "Si O2"
_cell_formula_units_Z 88
_cell_length_a 13.424352
_cell_length_b 13.424352
_cell_length_c 29.491110
_cell_angle_alpha 90.000000
_cell_angle_beta 90.000000
_cell_angle_gamma 90.000000
_cell_volume 5314.688090
_symmetry_space_group_name_H-M "P 4/M M M"
_symmetry_group_IT_number 123
_symmetry_cell_setting 'tetragonal'
loop_
_space_group_symop_operation_xyz
x,y,z
-y,x,z
-x,-y,z
y,-x,z
x,-y,-z
-x,y,-z
y,x,-z
-y,-x,-z
-x,-y,-z
y,-x,-z
x,y,-z
-y,x,-z
-x,y,z
x,-y,z
-y,-x,z
y,x,z
loop_
_atom_site_type_symbol
_atom_site_label
_atom_site_fract_x
_atom_site_fract_y
_atom_site_fract_z
Si Si1 0.717202 0.116717 0.451288
Si Si2 0.620713 0.113529 0.000000
Si Si3 0.782693 0.616895 0.734204
Si Si4 0.882728 0.717156 0.820613
Si Si5 0.618809 0.780601 0.906030
Si Si6 0.714614 0.118223 0.648568
O O1 0.664481 0.136207 0.500000
O O2 0.815285 0.184716 0.451680
O O3 0.669489 0.135883 0.402030
O O4 0.742883 0.000000 0.450954
O O5 0.648349 0.170505 0.954099
O O6 0.500000 0.109469 0.000000
O O7 0.657873 0.000000 0.000000
O O8 0.764712 0.500000 0.737547
O O9 0.681337 0.681337 0.734466
O O10 0.847279 0.655518 0.776688
O O11 0.841250 0.644698 0.688247
O O12 0.818995 0.818995 0.820742
O O13 0.850484 0.656077 0.865255
O O14 0.000000 0.734295 0.819600
O O15 0.500000 0.769220 0.904551
O O16 0.676413 0.676413 0.901079
O O17 0.816444 0.183557 0.651377
O O18 0.732486 0.000000 0.653877
#
# Coordination Sequence:
#
# PCOD9562054 Si02
#       6
#    16   8  16  16  16  16
#     4   8  13  21  34  54  83 119 155 190 227 267
#     4   9  17  30  49  71  95 127 167 209 252 295
#     4  10  21  36  53  73  95 120 154 195 239 288
#     4  10  21  36  54  77 103 131 164 199 236 282
#     4  10  20  33  50  74 103 135 172 211 251 297
#     4   9  17  28  43  66  95 126 160 194 229 274
#
# _framework density 16.557884999999999
#
# number of rings (size 3 to 8) (size 9 to 14) (size 15 to 20)
#    0.000    2.636    0.000    1.909    0.000    4.182 
#    0.000    2.727    0.000    8.727    0.000    2.545 
#    0.000    6.545    0.000    7.091    0.000    0.000 
#
# Total GULP energy -490014.616296 kJ/mol
# GULP energy per Si atom -5568.347912 kJ/mol
# Density = 1.652020 g / cm^3
# Si number density = 16.557885 Si / 1000 Ang^3
#
#
#
# Elastic Constant Matrix: (Units=GPa)
#
#
# Indices 1 2 3 4 5 6 
#
# 1 80.6535 57.6939 51.9116 0.0000 0.0000 0.0000
# 2 57.6939 80.6535 51.9116 0.0000 0.0000 0.0000
# 3 51.9116 51.9116 165.6768 0.0000 0.0000 0.0000
# 4 0.0000 0.0000 0.0000 17.5940 0.0000 0.0000
# 5 0.0000 0.0000 0.0000 0.0000 17.5940 0.0000
# 6 0.0000 0.0000 0.0000 0.0000 0.0000 2.1135
#
#
#
# Elastic Compliance Matrix: (Units=1/GPa)
#
#
# Indices 1 2 3 4 5 6 
#
# 1 0.026503 -0.017052 -0.002961 0.000000 0.000000 0.000000
# 2 -0.017052 0.026503 -0.002961 0.000000 0.000000 0.000000
# 3 -0.002961 -0.002961 0.007891 0.000000 0.000000 0.000000
# 4 0.000000 0.000000 0.000000 0.056837 0.000000 0.000000
# 5 0.000000 0.000000 0.000000 0.000000 0.056837 0.000000
# 6 0.000000 0.000000 0.000000 0.000000 0.000000 0.473145
#
#
# Mechanical properties :
#
#
# Convention : Reuss Voigt Hill
#
# Bulk Modulus (GPa) = 66.89954 72.22425 69.56190
# Shear Modulus (GPa) = 7.15669 18.49143 12.82406
#
# Velocity S-wave (km/s) = 2.08125 3.34544 2.78600
# Velocity P-wave (km/s) = 6.80196 7.65745 7.24235
#
# Compressibility (1/GPa) = 0.01494779
#
# Stress axis : x y z
#
# Youngs Moduli (GPa) = 37.73222 37.73222 126.71954
#
# Poissons Ratio (x) = 0.64342 0.37523
# Poissons Ratio (y) = 0.64342 0.37523
# Poissons Ratio (z) = 0.11173 0.11173
#
# Static dielectric constant tensor:
#      x y z
#    x 1.526730 0.000000 0.000000 
#    y 0.000000 1.526730 0.000000 
#    z 0.000000 0.000000 1.604640 
# 
# From -- ./inp_files/8476.got.cif
#   From: 2010.05.17/outbox.cif.g08.bks.cpg/sg123_5_cif.got.tgz:8476.got - 2010.05.20 11:43:04.
