data_PCOD9562619
_publ_section_title
;
Structure prediction by ZEFSAII (Michael W. Deem and Ramdas Pophale) SiO2 
 PCOD9562619
Probable space group: P 4/M C C
;
_chemical_formula_sum "Si O2"
_cell_formula_units_Z 116
_cell_length_a 18.763520
_cell_length_b 18.763520
_cell_length_c 16.935476
_cell_angle_alpha 90.000000
_cell_angle_beta 90.000000
_cell_angle_gamma 90.000000
_cell_volume 5962.467663
_symmetry_space_group_name_H-M "P 4/M C C"
_symmetry_group_IT_number 124
_symmetry_cell_setting 'tetragonal'
loop_
_space_group_symop_operation_xyz
x,y,z
-y,x,z
-x,-y,z
y,-x,z
x,-y,1/2-z
-x,y,1/2-z
y,x,1/2-z
-y,-x,1/2-z
-x,-y,-z
y,-x,-z
x,y,-z
-y,x,-z
-x,y,1/2+z
x,-y,1/2+z
-y,-x,1/2+z
y,x,1/2+z
loop_
_atom_site_type_symbol
_atom_site_label
_atom_site_fract_x
_atom_site_fract_y
_atom_site_fract_z
Si Si1 0.644175 0.148669 0.359149
Si Si2 0.057366 0.153568 0.906385
Si Si3 0.303329 0.995362 0.845198
Si Si4 0.615835 0.503925 0.345268
Si Si5 0.213324 0.205177 0.655006
Si Si6 0.497606 0.225110 0.909550
Si Si7 0.000000 0.000000 0.858983
Si Si8 0.631865 0.154221 0.169976
O O1 0.719197 0.186814 0.375647
O O2 0.577290 0.184646 0.400122
O O3 0.631468 0.155020 0.264891
O O4 0.657490 0.065583 0.375307
O O5 0.015139 0.225591 0.883206
O O6 0.138928 0.171945 0.883530
O O7 0.027805 0.083837 0.863058
O O8 0.051230 0.139467 0.000000
O O9 0.351535 0.925860 0.858353
O O10 0.292575 0.000000 0.750000
O O11 0.566683 0.571314 0.368095
O O12 0.620984 0.500000 0.250000
O O13 0.693899 0.508969 0.380250
O O14 0.201094 0.201094 0.750000
O O15 0.297950 0.197268 0.642911
O O16 0.558773 0.185765 0.860452
O O17 0.519817 0.224970 0.000000
#
# Coordination Sequence:
#
# PCOD9562619 Si02
#       8
#    16  16  16  16  16  16   4  16
#     4  10  20  38  62  86 113 152 204 247 289 350
#     4  11  22  37  58  85 122 164 200 244 306 361
#     4   9  20  40  64  87 113 149 201 257 302 350
#     4   9  20  41  67  90 115 153 196 236 286 350
#     4   9  20  39  63  88 114 151 202 252 296 351
#     4  12  26  38  55  90 126 156 192 238 293 352
#     4  12  25  36  49  82 129 168 197 230 285 364
#     4   9  20  39  60  84 116 155 195 246 301 349
#
# _framework density 19.455031999999999
#
# number of rings (size 3 to 8) (size 9 to 14) (size 15 to 20)
#    0.000    2.069    0.000    3.931    1.931    4.414 
#    0.000    5.517    0.000    0.000    0.000    0.000 
#    0.000    0.000    0.000    0.000    0.000    0.000 
#
# Total GULP energy -647015.085413 kJ/mol
# GULP energy per Si atom -5577.716254 kJ/mol
# Density = 1.941075 g / cm^3
# Si number density = 19.455032 Si / 1000 Ang^3
#
#
#
# Elastic Constant Matrix: (Units=GPa)
#
#
# Indices 1 2 3 4 5 6 
#
# 1 121.4751 72.9036 16.8996 0.0000 0.0000 0.0000
# 2 72.9036 121.4751 16.8996 0.0000 0.0000 0.0000
# 3 16.8996 16.8996 13.5733 0.0000 0.0000 0.0000
# 4 0.0000 0.0000 0.0000 -15.6894 0.0000 0.0000
# 5 0.0000 0.0000 0.0000 0.0000 -15.6894 0.0000
# 6 0.0000 0.0000 0.0000 0.0000 0.0000 20.9399
#
#
#
# Elastic Compliance Matrix: (Units=1/GPa)
#
#
# Indices 1 2 3 4 5 6 
#
# 1 0.013577 -0.007011 -0.008175 0.000000 0.000000 0.000000
# 2 -0.007011 0.013577 -0.008175 0.000000 0.000000 0.000000
# 3 -0.008175 -0.008175 0.094031 0.000000 0.000000 0.000000
# 4 0.000000 0.000000 0.000000 -0.063737 0.000000 0.000000
# 5 0.000000 0.000000 0.000000 0.000000 -0.063737 0.000000
# 6 0.000000 0.000000 0.000000 0.000000 0.000000 0.047756
#
#
# Mechanical properties :
#
#
# Convention : Reuss Voigt Hill
#
# Bulk Modulus (GPa) = 13.42956 52.21434 32.82195
# Shear Modulus (GPa) = 44.24359 7.90026 26.07192
#
# Velocity S-wave (km/s) = 4.77397 2.01732 3.66473
# Velocity P-wave (km/s) = 6.10783 5.68532 5.90036
#
# Compressibility (1/GPa) = 0.07446261
#
# Stress axis : x y z
#
# Youngs Moduli (GPa) = 73.65301 73.65301 10.63476
#
# Poissons Ratio (x) = 0.51638 0.08694
# Poissons Ratio (y) = 0.51638 0.08694
# Poissons Ratio (z) = 0.60213 0.60213
#
# Static dielectric constant tensor:
#      x y z
#    x 1.655820 0.000000 0.000000 
#    y 0.000000 1.655820 0.000000 
#    z 0.000000 0.000000 1.680190 
# 
# From -- ./inp_files/4419.got.cif
#   From: 2010.05.17/outbox.cif.g08.bks.cpg/sg124_3_cif.got.tgz:4419.got - 2010.05.20 11:49:17.
