data_PCOD9562985
_publ_section_title
;
Structure prediction by ZEFSAII (Michael W. Deem and Ramdas Pophale) SiO2 
 PCOD9562985
Probable space group: P 4/N B M
;
_chemical_formula_sum "Si O2"
_cell_formula_units_Z 96
_cell_length_a 20.196634
_cell_length_b 20.196634
_cell_length_c 11.421180
_cell_angle_alpha 90.000000
_cell_angle_beta 90.000000
_cell_angle_gamma 90.000000
_cell_volume 4658.745291
_symmetry_space_group_name_H-M "P 4/N B M"
_symmetry_group_IT_number 125
_space_group.IT_coordinate_system_code '2'
_symmetry_cell_setting 'tetragonal'
loop_
_space_group_symop_operation_xyz
x,y,z
1/2-y,x,z
1/2-x,1/2-y,z
y,1/2-x,z
x,1/2-y,-z
1/2-x,y,-z
y,x,-z
1/2-y,1/2-x,-z
-x,-y,-z
1/2+y,-x,-z
1/2+x,1/2+y,-z
-y,1/2+x,-z
-x,1/2+y,z
1/2+x,-y,z
-y,-x,z
1/2+y,1/2+x,z
loop_
_atom_site_type_symbol
_atom_site_label
_atom_site_fract_x
_atom_site_fract_y
_atom_site_fract_z
Si Si1 0.524521 0.582883 0.109926
Si Si2 0.564567 0.671732 0.510012
Si Si3 0.651438 0.037801 0.310574
Si Si4 0.354801 0.754257 0.322364
Si Si5 0.886783 0.492084 0.730551
Si Si6 0.196592 0.907148 0.910768
O O1 0.459989 0.540012 0.072823
O O2 0.495624 0.646583 0.180249
O O3 0.562668 0.542862 0.210627
O O4 0.575462 0.575462 0.000000
O O5 0.572061 0.750000 0.500000
O O6 0.633805 0.633805 0.500000
O O7 0.518682 0.643351 0.406285
O O8 0.527783 0.653725 0.630448
O O9 0.592679 0.092679 0.313159
O O10 0.719275 0.075619 0.349071
O O11 0.299695 0.700306 0.350923
O O12 0.324342 0.824342 0.367796
O O13 0.362574 0.764192 0.183497
O O14 0.930997 0.430997 0.683868
O O15 0.841108 0.461508 0.833069
O O16 0.140829 0.859172 0.965461
O O17 0.250000 0.933624 0.000000
#
# Coordination Sequence:
#
# PCOD9562985 Si02
#       6
#    16  16  16  16  16  16
#     4   9  18  32  55  91 129 161 198 251 319 381
#     4  12  25  43  65  89 119 157 211 267 329 399
#     4  10  20  36  64  93 124 166 206 259 327 385
#     4   9  18  32  50  78 116 159 209 252 293 365
#     4  10  21  38  61  93 127 158 201 267 326 379
#     4  10  20  32  50  78 119 170 217 257 303 364
#
# _framework density 20.606404999999999
#
# number of rings (size 3 to 8) (size 9 to 14) (size 15 to 20)
#    0.000    2.000    1.667    2.000    2.333    1.667 
#    0.000    0.833    0.000    2.000    0.000    7.000 
#    0.000    1.333    0.000    0.000    0.000    0.000 
#
# Total GULP energy -535229.469193 kJ/mol
# GULP energy per Si atom -5575.306971 kJ/mol
# Density = 2.055950 g / cm^3
# Si number density = 20.606405 Si / 1000 Ang^3
#
#
#
# Elastic Constant Matrix: (Units=GPa)
#
#
# Indices 1 2 3 4 5 6 
#
# 1 88.2290 54.4900 43.6534 0.0000 0.0000 0.0000
# 2 54.4900 88.2290 43.6534 0.0000 0.0000 0.0000
# 3 43.6534 43.6534 66.1371 0.0000 0.0000 0.0000
# 4 0.0000 0.0000 0.0000 19.0750 0.0000 0.0000
# 5 0.0000 0.0000 0.0000 0.0000 19.0750 0.0000
# 6 0.0000 0.0000 0.0000 0.0000 0.0000 27.1465
#
#
#
# Elastic Compliance Matrix: (Units=1/GPa)
#
#
# Indices 1 2 3 4 5 6 
#
# 1 0.020696 -0.008944 -0.007757 0.000000 0.000000 0.000000
# 2 -0.008944 0.020696 -0.007757 0.000000 0.000000 0.000000
# 3 -0.007757 -0.007757 0.025360 0.000000 0.000000 0.000000
# 4 0.000000 0.000000 0.000000 0.052425 0.000000 0.000000
# 5 0.000000 0.000000 0.000000 0.000000 0.052425 0.000000
# 6 0.000000 0.000000 0.000000 0.000000 0.000000 0.036837
#
#
# Mechanical properties :
#
#
# Convention : Reuss Voigt Hill
#
# Bulk Modulus (GPa) = 56.06500 58.46540 57.26520
# Shear Modulus (GPa) = 18.98994 19.77918 19.38456
#
# Velocity S-wave (km/s) = 3.03901 3.10152 3.07042
# Velocity P-wave (km/s) = 6.29132 6.42339 6.35770
#
# Compressibility (1/GPa) = 0.01783644
#
# Stress axis : x y z
#
# Youngs Moduli (GPa) = 48.31947 48.31947 39.43261
#
# Poissons Ratio (x) = 0.43215 0.30587
# Poissons Ratio (y) = 0.43215 0.30587
# Poissons Ratio (z) = 0.37480 0.37480
#
# Static dielectric constant tensor:
#      x y z
#    x 1.774290 0.000000 0.000000 
#    y 0.000000 1.774290 0.000000 
#    z 0.000000 0.000000 1.767470 
# 
# From -- ./inp_files/4145.got.cif
#   From: 2010.05.17/outbox.cif.g08.bks.cpg/sg125_3_cif.got.tgz:4145.got - 2010.05.20 11:54:10.
