data_PCOD9562284
_publ_section_title
;
Structure prediction by ZEFSAII (Michael W. Deem and Ramdas Pophale) SiO2 
 PCOD9562284
Probable space group: P 4/M M M
;
_chemical_formula_sum "Si O2"
_cell_formula_units_Z 96
_cell_length_a 23.966707
_cell_length_b 23.966707
_cell_length_c 7.506657
_cell_angle_alpha 90.000000
_cell_angle_beta 90.000000
_cell_angle_gamma 90.000000
_cell_volume 4311.846634
_symmetry_space_group_name_H-M "P 4/M M M"
_symmetry_group_IT_number 123
_symmetry_cell_setting 'tetragonal'
loop_
_space_group_symop_operation_xyz
x,y,z
-y,x,z
-x,-y,z
y,-x,z
x,-y,-z
-x,y,-z
y,x,-z
-y,-x,-z
-x,-y,-z
y,-x,-z
x,y,-z
-y,x,-z
-x,y,z
x,-y,z
-y,-x,z
y,x,z
loop_
_atom_site_type_symbol
_atom_site_label
_atom_site_fract_x
_atom_site_fract_y
_atom_site_fract_z
Si Si1 0.438677 0.822195 0.780914
Si Si2 0.562450 0.351562 0.285412
Si Si3 0.260661 0.347013 0.796419
Si Si4 0.062911 0.601882 0.206225
Si Si5 0.064047 0.725156 0.711705
Si Si6 0.063858 0.847338 0.212869
O O1 0.500000 0.799369 0.729106
O O2 0.383271 0.789808 0.716170
O O3 0.433842 0.886322 0.720268
O O4 0.436888 0.820437 0.000000
O O5 0.564013 0.343174 0.500000
O O6 0.500000 0.344324 0.222074
O O7 0.587336 0.412665 0.250539
O O8 0.605233 0.308057 0.202882
O O9 0.292188 0.292188 0.718174
O O10 0.245532 0.332433 0.000000
O O11 0.083459 0.666373 0.212372
O O12 0.000000 0.598918 0.283941
O O13 0.057795 0.585823 0.000000
O O14 0.064200 0.718935 0.500000
O O15 0.088791 0.785553 0.754235
O O16 0.000000 0.729792 0.776943
O O17 0.104299 0.895702 0.282211
O O18 0.000000 0.850237 0.283254
O O19 0.060352 0.853756 0.000000
#
# Coordination Sequence:
#
# PCOD9562284 Si02
#       6
#    16  16  16  16  16  16
#     4   9  17  29  47  72  99 125 155 194 239 287
#     4   9  17  28  42  61  85 113 145 181 220 261
#     4   9  17  30  48  67  88 118 154 188 223 266
#     4   9  17  30  49  71  94 121 155 197 244 294
#     4   9  17  30  48  67  89 121 159 196 236 286
#     4   9  17  29  46  69  97 129 166 209 257 308
#
# _framework density 22.264244999999999
#
# number of rings (size 3 to 8) (size 9 to 14) (size 15 to 20)
#    0.000    3.000    0.000    1.000    0.000    4.000 
#    0.000    5.000    0.000    4.500    0.000    7.000 
#    0.000    0.000    0.000    0.000    0.000    0.000 
#
# Total GULP energy -534674.792148 kJ/mol
# GULP energy per Si atom -5569.529085 kJ/mol
# Density = 2.221357 g / cm^3
# Si number density = 22.264245 Si / 1000 Ang^3
#
#
#
# Elastic Constant Matrix: (Units=GPa)
#
#
# Indices 1 2 3 4 5 6 
#
# 1 93.0439 38.7696 -2.5423 0.0000 0.0000 0.0000
# 2 38.7696 93.0439 -2.5423 0.0000 0.0000 0.0000
# 3 -2.5423 -2.5423 62.1283 0.0000 0.0000 0.0000
# 4 0.0000 0.0000 0.0000 -2.7850 0.0000 0.0000
# 5 0.0000 0.0000 0.0000 0.0000 -2.7850 0.0000
# 6 0.0000 0.0000 0.0000 0.0000 0.0000 31.4895
#
#
#
# Elastic Compliance Matrix: (Units=1/GPa)
#
#
# Indices 1 2 3 4 5 6 
#
# 1 0.013012 -0.005413 0.000311 0.000000 0.000000 0.000000
# 2 -0.005413 0.013012 0.000311 0.000000 0.000000 0.000000
# 3 0.000311 0.000311 0.016121 0.000000 0.000000 0.000000
# 4 0.000000 0.000000 0.000000 -0.359060 0.000000 0.000000
# 5 0.000000 0.000000 0.000000 0.000000 -0.359060 0.000000
# 6 0.000000 0.000000 0.000000 0.000000 0.000000 0.031757
#
#
# Mechanical properties :
#
#
# Convention : Reuss Voigt Hill
#
# Bulk Modulus (GPa) = 30.71080 35.06512 32.88796
# Shear Modulus (GPa) = -8.01562 19.48594 5.73516
#
# Velocity S-wave (km/s) = -1.89948 2.96161 1.60672
# Velocity P-wave (km/s) = 3.00217 5.24200 4.27151
#
# Compressibility (1/GPa) = 0.03256184
#
# Stress axis : x y z
#
# Youngs Moduli (GPa) = 76.85386 76.85386 62.03026
#
# Poissons Ratio (x) = 0.41603 -0.01929
# Poissons Ratio (y) = 0.41603 -0.01929
# Poissons Ratio (z) = -0.02390 -0.02390
#
# Static dielectric constant tensor:
#      x y z
#    x 1.849070 0.000000 0.000000 
#    y 0.000000 1.849070 0.000000 
#    z 0.000000 0.000000 1.834410 
# 
# From -- ./inp_files/1571.got.cif
#   From: 2010.05.17/outbox.cif.g08.bks.cpg/sg123_1_cif.got.tgz:1571.got - 2010.05.20 11:43:04.
