data_PCOD9562884
_publ_section_title
;
Structure prediction by ZEFSAII (Michael W. Deem and Ramdas Pophale) SiO2 
 PCOD9562884
Probable space group: P 4/N B M
;
_chemical_formula_sum "Si O2"
_cell_formula_units_Z 112
_cell_length_a 15.524462
_cell_length_b 15.524462
_cell_length_c 26.302234
_cell_angle_alpha 90.000000
_cell_angle_beta 90.000000
_cell_angle_gamma 90.000000
_cell_volume 6339.073020
_symmetry_space_group_name_H-M "P 4/N B M"
_symmetry_group_IT_number 125
_space_group.IT_coordinate_system_code '2'
_symmetry_cell_setting 'tetragonal'
loop_
_space_group_symop_operation_xyz
x,y,z
1/2-y,x,z
1/2-x,1/2-y,z
y,1/2-x,z
x,1/2-y,-z
1/2-x,y,-z
y,x,-z
1/2-y,1/2-x,-z
-x,-y,-z
1/2+y,-x,-z
1/2+x,1/2+y,-z
-y,1/2+x,-z
-x,1/2+y,z
1/2+x,-y,z
-y,-x,z
1/2+y,1/2+x,z
loop_
_atom_site_type_symbol
_atom_site_label
_atom_site_fract_x
_atom_site_fract_y
_atom_site_fract_z
Si Si1 0.491860 0.772844 0.157936
Si Si2 0.606760 0.254368 0.441508
Si Si3 0.340165 0.135930 0.708429
Si Si4 0.411676 0.059182 0.811671
Si Si5 0.746184 0.391995 0.945318
Si Si6 0.516558 0.161699 0.353815
Si Si7 0.389212 0.745817 0.738669
O O1 0.551810 0.856134 0.161129
O O2 0.534719 0.679378 0.163735
O O3 0.442751 0.771418 0.104774
O O4 0.433292 0.779457 0.208642
O O5 0.577283 0.250000 0.500000
O O6 0.654304 0.345697 0.431438
O O7 0.683252 0.183252 0.437114
O O8 0.535927 0.223138 0.401580
O O9 0.365417 0.235983 0.712123
O O10 0.388272 0.086667 0.754075
O O11 0.361459 0.082219 0.657607
O O12 0.480929 0.980929 0.812770
O O13 0.653709 0.346292 0.937582
O O14 0.815573 0.315573 0.951119
O O15 0.750000 0.439196 0.000000
O O16 0.577607 0.077607 0.357869
O O17 0.549663 0.214780 0.304230
O O18 0.335195 0.664806 0.718080
O O19 0.320604 0.820604 0.750805
#
# Coordination Sequence:
#
# PCOD9562884 Si02
#       7
#    16  16  16  16  16  16  16
#     4  12  23  36  54  81 114 148 190 233 275 336
#     4   8  14  26  47  77 113 150 184 225 287 353
#     4  11  22  38  55  75 108 150 191 226 273 333
#     4  12  23  37  58  83 112 150 189 231 284 336
#     4   9  18  35  59  84 112 147 188 240 299 350
#     4  10  18  31  51  78 108 137 179 231 280 336
#     4  10  18  28  46  73 105 136 170 226 290 336
#
# _framework density 17.668199000000001
#
# number of rings (size 3 to 8) (size 9 to 14) (size 15 to 20)
#    0.000    1.714    2.857    4.286    0.000    3.143 
#    0.000    2.857    0.000    3.429    0.000    5.000 
#    0.000    0.000    0.000    0.000    0.000    0.000 
#
# Total GULP energy -624482.837151 kJ/mol
# GULP energy per Si atom -5575.739617 kJ/mol
# Density = 1.762799 g / cm^3
# Si number density = 17.668199 Si / 1000 Ang^3
#
#
#
# Elastic Constant Matrix: (Units=GPa)
#
#
# Indices 1 2 3 4 5 6 
#
# 1 82.5540 34.3734 19.6132 0.0000 0.0000 0.0000
# 2 34.3734 82.5540 19.6132 0.0000 0.0000 0.0000
# 3 19.6132 19.6132 79.5148 0.0000 0.0000 0.0000
# 4 0.0000 0.0000 0.0000 28.3738 0.0000 0.0000
# 5 0.0000 0.0000 0.0000 0.0000 28.3738 0.0000
# 6 0.0000 0.0000 0.0000 0.0000 0.0000 8.8885
#
#
#
# Elastic Compliance Matrix: (Units=1/GPa)
#
#
# Indices 1 2 3 4 5 6 
#
# 1 0.015040 -0.005716 -0.002300 0.000000 0.000000 0.000000
# 2 -0.005716 0.015040 -0.002300 0.000000 0.000000 0.000000
# 3 -0.002300 -0.002300 0.013711 0.000000 0.000000 0.000000
# 4 0.000000 0.000000 0.000000 0.035244 0.000000 0.000000
# 5 0.000000 0.000000 0.000000 0.000000 0.035244 0.000000
# 6 0.000000 0.000000 0.000000 0.000000 0.000000 0.112505
#
#
# Mechanical properties :
#
#
# Convention : Reuss Voigt Hill
#
# Bulk Modulus (GPa) = 43.17936 43.53583 43.35759
# Shear Modulus (GPa) = 19.59764 24.52874 22.06319
#
# Velocity S-wave (km/s) = 3.33408 3.73003 3.53760
# Velocity P-wave (km/s) = 6.27005 6.57610 6.42490
#
# Compressibility (1/GPa) = 0.02315921
#
# Stress axis : x y z
#
# Youngs Moduli (GPa) = 66.49137 66.49137 72.93503
#
# Poissons Ratio (x) = 0.38004 0.16774
# Poissons Ratio (y) = 0.38004 0.16774
# Poissons Ratio (z) = 0.15292 0.15292
#
# Static dielectric constant tensor:
#      x y z
#    x 1.671590 0.000000 0.000000 
#    y 0.000000 1.671590 0.000000 
#    z 0.000000 0.000000 1.611810 
# 
# From -- ./inp_files/6447.got.cif
#   From: 2010.05.17/outbox.cif.g08.bks.cpg/sg125_4_cif.got.tgz:6447.got - 2010.05.20 11:54:10.
