data_PCOD9562009
_publ_section_title
;
Structure prediction by ZEFSAII (Michael W. Deem and Ramdas Pophale) SiO2 
 PCOD9562009
Probable space group: P 4/M M M
;
_chemical_formula_sum "Si O2"
_cell_formula_units_Z 64
_cell_length_a 14.175746
_cell_length_b 14.175746
_cell_length_c 20.477327
_cell_angle_alpha 90.000000
_cell_angle_beta 90.000000
_cell_angle_gamma 90.000000
_cell_volume 4114.955201
_symmetry_space_group_name_H-M "P 4/M M M"
_symmetry_group_IT_number 123
_symmetry_cell_setting 'tetragonal'
loop_
_space_group_symop_operation_xyz
x,y,z
-y,x,z
-x,-y,z
y,-x,z
x,-y,-z
-x,y,-z
y,x,-z
-y,-x,-z
-x,-y,-z
y,-x,-z
x,y,-z
-y,x,-z
-x,y,z
x,-y,z
-y,-x,z
y,x,z
loop_
_atom_site_type_symbol
_atom_site_label
_atom_site_fract_x
_atom_site_fract_y
_atom_site_fract_z
Si Si1 0.264347 0.890117 0.077989
Si Si2 0.888994 0.266818 0.573029
Si Si3 0.231845 0.387456 0.172818
Si Si4 0.109042 0.387727 0.699734
O O1 0.168584 0.831417 0.092219
O O2 0.346950 0.836429 0.116409
O O3 0.257814 0.000000 0.096463
O O4 0.279935 0.885199 0.000000
O O5 0.871958 0.307093 0.500000
O O6 0.826049 0.173952 0.579057
O O7 0.865976 0.336079 0.632470
O O8 0.000000 0.244921 0.577201
O O9 0.244151 0.500000 0.167796
O O10 0.328915 0.328915 0.169544
O O11 0.178703 0.364992 0.240964
O O12 0.112300 0.500000 0.689798
O O13 0.000000 0.363202 0.716695
#
# Coordination Sequence:
#
# PCOD9562009 Si02
#       4
#    16  16  16  16
#     4   9  18  32  50  73  99 125 153 185 222 266
#     4   9  17  28  42  61  86 116 147 178 213 255
#     4  10  20  33  49  68  91 120 154 192 232 273
#     4   9  17  29  46  67  88 111 142 181 226 273
#
# _framework density 15.553023
#
# number of rings (size 3 to 8) (size 9 to 14) (size 15 to 20)
#    0.000    2.750    0.000    1.500    0.000    3.250 
#    0.000    6.250    0.000    0.000    0.000    7.000 
#    0.000    0.000    0.000   23.250    0.000    0.500 
#
# Total GULP energy -356471.380472 kJ/mol
# GULP energy per Si atom -5569.865320 kJ/mol
# Density = 1.551762 g / cm^3
# Si number density = 15.553023 Si / 1000 Ang^3
#
#
#
# Elastic Constant Matrix: (Units=GPa)
#
#
# Indices 1 2 3 4 5 6 
#
# 1 86.9673 56.2296 51.2313 0.0000 0.0000 0.0000
# 2 56.2296 86.9673 51.2313 0.0000 0.0000 0.0000
# 3 51.2313 51.2313 69.1431 0.0000 0.0000 0.0000
# 4 0.0000 0.0000 0.0000 25.2708 0.0000 0.0000
# 5 0.0000 0.0000 0.0000 0.0000 25.2708 0.0000
# 6 0.0000 0.0000 0.0000 0.0000 0.0000 16.3577
#
#
#
# Elastic Compliance Matrix: (Units=1/GPa)
#
#
# Indices 1 2 3 4 5 6 
#
# 1 0.023699 -0.008835 -0.011013 0.000000 0.000000 0.000000
# 2 -0.008835 0.023699 -0.011013 0.000000 0.000000 0.000000
# 3 -0.011013 -0.011013 0.030783 0.000000 0.000000 0.000000
# 4 0.000000 0.000000 0.000000 0.039571 0.000000 0.000000
# 5 0.000000 0.000000 0.000000 0.000000 0.039571 0.000000
# 6 0.000000 0.000000 0.000000 0.000000 0.000000 0.061133
#
#
# Mechanical properties :
#
#
# Convention : Reuss Voigt Hill
#
# Bulk Modulus (GPa) = 60.76166 62.27356 61.51761
# Shear Modulus (GPa) = 17.50305 19.00559 18.25432
#
# Velocity S-wave (km/s) = 3.35831 3.49948 3.42962
# Velocity P-wave (km/s) = 7.36138 7.51365 7.43790
#
# Compressibility (1/GPa) = 0.01645775
#
# Stress axis : x y z
#
# Youngs Moduli (GPa) = 42.19667 42.19667 32.48532
#
# Poissons Ratio (x) = 0.37280 0.35777
# Poissons Ratio (y) = 0.37280 0.35777
# Poissons Ratio (z) = 0.46472 0.46472
#
# Static dielectric constant tensor:
#      x y z
#    x 1.498910 0.000000 0.000000 
#    y 0.000000 1.498910 0.000000 
#    z 0.000000 0.000000 1.525800 
# 
# From -- ./inp_files/3772.got.cif
#   From: 2010.05.17/outbox.cif.g08.bks.cpg/sg123_2_cif.got.tgz:3772.got - 2010.05.20 11:43:04.
