data_PCOD9562218
_publ_section_title
;
Structure prediction by ZEFSAII (Michael W. Deem and Ramdas Pophale) SiO2 
 PCOD9562218
Probable space group: P 4/M M M
;
_chemical_formula_sum "Si O2"
_cell_formula_units_Z 96
_cell_length_a 24.994986
_cell_length_b 24.994986
_cell_length_c 9.278541
_cell_angle_alpha 90.000000
_cell_angle_beta 90.000000
_cell_angle_gamma 90.000000
_cell_volume 5796.762228
_symmetry_space_group_name_H-M "P 4/M M M"
_symmetry_group_IT_number 123
_symmetry_cell_setting 'tetragonal'
loop_
_space_group_symop_operation_xyz
x,y,z
-y,x,z
-x,-y,z
y,-x,z
x,-y,-z
-x,y,-z
y,x,-z
-y,-x,-z
-x,-y,-z
y,-x,-z
x,y,-z
-y,x,-z
-x,y,z
x,-y,z
-y,-x,z
y,x,z
loop_
_atom_site_type_symbol
_atom_site_label
_atom_site_fract_x
_atom_site_fract_y
_atom_site_fract_z
Si Si1 0.939184 0.804370 0.158965
Si Si2 0.349376 0.437804 0.669675
Si Si3 0.938892 0.324306 0.168328
Si Si4 0.155092 0.844909 0.668609
Si Si5 0.240736 0.240736 0.675019
Si Si6 0.563362 0.238595 0.829728
Si Si7 0.826868 0.653321 0.674106
O O1 0.939149 0.740244 0.170861
O O2 0.902810 0.829181 0.279009
O O3 0.000000 0.822585 0.168873
O O4 0.918020 0.818097 0.000000
O O5 0.334932 0.431135 0.500000
O O6 0.364679 0.500000 0.689984
O O7 0.397795 0.397795 0.701229
O O8 0.297928 0.426338 0.767097
O O9 0.886902 0.339991 0.261626
O O10 0.000000 0.341163 0.212624
O O11 0.931807 0.340580 0.000000
O O12 0.159194 0.840807 0.500000
O O13 0.197612 0.802389 0.729525
O O14 0.242226 0.242226 0.500000
O O15 0.214748 0.298229 0.716463
O O16 0.500000 0.228139 0.810536
O O17 0.599713 0.198088 0.740216
O O18 0.575436 0.236009 0.000000
O O19 0.829407 0.652424 0.500000
#
# Coordination Sequence:
#
# PCOD9562218 Si02
#       7
#    16  16  16   8   8  16  16
#     4   9  18  32  49  70  98 135 176 213 253 305
#     4   9  18  33  53  77 105 138 176 219 267 316
#     4   9  18  33  52  76 107 140 174 211 254 308
#     4  11  19  31  49  72 106 137 169 210 257 310
#     4   9  20  33  45  75 114 142 164 204 259 308
#     4  10  22  39  56  76 104 139 181 223 263 312
#     4  11  21  35  55  79 110 142 176 216 261 314
#
# _framework density 16.560967999999999
#
# number of rings (size 3 to 8) (size 9 to 14) (size 15 to 20)
#    0.000    2.333    1.667    2.250    1.167    2.167 
#    0.000    3.750    0.000    0.750    0.000    7.583 
#    0.000    0.000    0.000    0.000    0.000    0.000 
#
# Total GULP energy -534697.414190 kJ/mol
# GULP energy per Si atom -5569.764731 kJ/mol
# Density = 1.652327 g / cm^3
# Si number density = 16.560968 Si / 1000 Ang^3
#
#
#
# Elastic Constant Matrix: (Units=GPa)
#
#
# Indices 1 2 3 4 5 6 
#
# 1 75.5864 59.8185 51.8306 0.0000 0.0000 0.0000
# 2 59.8185 75.5864 51.8302 0.0000 0.0000 0.0000
# 3 51.8306 51.8302 74.3106 0.0000 0.0000 0.0000
# 4 0.0000 0.0000 0.0000 26.7732 0.0000 0.0000
# 5 0.0000 0.0000 0.0000 0.0000 26.7730 0.0000
# 6 0.0000 0.0000 0.0000 0.0000 0.0000 21.7184
#
#
#
# Elastic Compliance Matrix: (Units=1/GPa)
#
#
# Indices 1 2 3 4 5 6 
#
# 1 0.039634 -0.023787 -0.011053 0.000000 0.000000 0.000000
# 2 -0.023787 0.039633 -0.011053 0.000000 0.000000 0.000000
# 3 -0.011053 -0.011053 0.028876 0.000000 0.000000 0.000000
# 4 0.000000 0.000000 0.000000 0.037351 0.000000 0.000000
# 5 0.000000 0.000000 0.000000 0.000000 0.037351 0.000000
# 6 0.000000 0.000000 0.000000 0.000000 0.000000 0.046044
#
#
# Mechanical properties :
#
#
# Convention : Reuss Voigt Hill
#
# Bulk Modulus (GPa) = 61.13382 61.38245 61.25813
# Shear Modulus (GPa) = 15.33149 19.18654 17.25901
#
# Velocity S-wave (km/s) = 3.04593 3.40743 3.23174
# Velocity P-wave (km/s) = 7.02601 7.25436 7.14110
#
# Compressibility (1/GPa) = 0.01635756
#
# Stress axis : x y z
#
# Youngs Moduli (GPa) = 25.23098 25.23125 34.63130
#
# Poissons Ratio (x) = 0.60017 0.38279
# Poissons Ratio (y) = 0.60016 0.38277
# Poissons Ratio (z) = 0.27889 0.27887
#
# Static dielectric constant tensor:
#      x y z
#    x 1.554740 0.000000 0.000000 
#    y 0.000000 1.554740 0.000000 
#    z 0.000000 0.000000 1.560900 
# 
# From -- ./inp_files/1667.got.cif
#   From: 2010.05.17/outbox.cif.g08.bks.cpg/sg123_1_cif.got.tgz:1667.got - 2010.05.20 11:43:04.
