data_PCOD9562101
_publ_section_title
;
Structure prediction by ZEFSAII (Michael W. Deem and Ramdas Pophale) SiO2 
 PCOD9562101
Probable space group: P 4/M M M
;
_chemical_formula_sum "Si O2"
_cell_formula_units_Z 72
_cell_length_a 12.980258
_cell_length_b 12.980258
_cell_length_c 25.191243
_cell_angle_alpha 90.000000
_cell_angle_beta 90.000000
_cell_angle_gamma 90.000000
_cell_volume 4244.399422
_symmetry_space_group_name_H-M "P 4/M M M"
_symmetry_group_IT_number 123
_symmetry_cell_setting 'tetragonal'
loop_
_space_group_symop_operation_xyz
x,y,z
-y,x,z
-x,-y,z
y,-x,z
x,-y,-z
-x,y,-z
y,x,-z
-y,-x,-z
-x,-y,-z
y,-x,-z
x,y,-z
-y,x,-z
-x,y,z
x,-y,z
-y,-x,z
y,x,z
loop_
_atom_site_type_symbol
_atom_site_label
_atom_site_fract_x
_atom_site_fract_y
_atom_site_fract_z
Si Si1 0.210552 0.620407 0.769042
Si Si2 0.293204 0.878452 0.124715
Si Si3 0.290113 0.118444 0.335990
Si Si4 0.875129 0.500000 0.939130
Si Si5 0.379478 0.792047 0.440336
O O1 0.221342 0.500000 0.779828
O O2 0.318619 0.681382 0.770360
O O3 0.140314 0.672951 0.814274
O O4 0.160952 0.638947 0.711456
O O5 0.195989 0.804012 0.113475
O O6 0.394087 0.846058 0.090576
O O7 0.272136 0.000000 0.115725
O O8 0.188038 0.188038 0.335371
O O9 0.343991 0.134993 0.392798
O O10 0.266935 0.000000 0.326948
O O11 0.000000 0.500000 0.938936
O O12 0.839613 0.500000 0.000000
O O13 0.361610 0.834066 0.500000
O O14 0.500000 0.769231 0.435211
O O15 0.310981 0.689020 0.435474
#
# Coordination Sequence:
#
# PCOD9562101 Si02
#       5
#    16  16  16   8  16
#     4  10  20  34  53  78 107 138 173 213 258 309
#     4  10  20  34  54  81 111 144 181 222 268 317
#     4  10  21  35  51  72  97 128 167 211 258 307
#     4   9  18  34  56  79 105 141 182 221 260 307
#     4   9  18  32  49  71  99 129 163 203 247 298
#
# _framework density 16.963529999999999
#
# number of rings (size 3 to 8) (size 9 to 14) (size 15 to 20)
#    0.000    2.333    1.111    1.333    0.000    4.444 
#    0.000    2.222    0.000    8.333    0.000    7.000 
#    0.000    0.000    0.000    0.000    0.000    0.000 
#
# Total GULP energy -401394.871605 kJ/mol
# GULP energy per Si atom -5574.928772 kJ/mol
# Density = 1.692492 g / cm^3
# Si number density = 16.963530 Si / 1000 Ang^3
#
#
#
# Elastic Constant Matrix: (Units=GPa)
#
#
# Indices 1 2 3 4 5 6 
#
# 1 92.9534 50.5371 31.5187 0.0000 0.0000 0.0000
# 2 50.5371 92.9534 31.5187 0.0000 0.0000 0.0000
# 3 31.5187 31.5187 82.7934 0.0000 0.0000 0.0000
# 4 0.0000 0.0000 0.0000 20.2183 0.0000 0.0000
# 5 0.0000 0.0000 0.0000 0.0000 20.2183 0.0000
# 6 0.0000 0.0000 0.0000 0.0000 0.0000 7.0102
#
#
#
# Elastic Compliance Matrix: (Units=1/GPa)
#
#
# Indices 1 2 3 4 5 6 
#
# 1 0.015972 -0.007604 -0.003186 0.000000 0.000000 0.000000
# 2 -0.007604 0.015972 -0.003186 0.000000 0.000000 0.000000
# 3 -0.003186 -0.003186 0.014504 0.000000 0.000000 0.000000
# 4 0.000000 0.000000 0.000000 0.049460 0.000000 0.000000
# 5 0.000000 0.000000 0.000000 0.000000 0.049460 0.000000
# 6 0.000000 0.000000 0.000000 0.000000 0.000000 0.142650
#
#
# Mechanical properties :
#
#
# Convention : Reuss Voigt Hill
#
# Bulk Modulus (GPa) = 54.06049 55.09434 54.57742
# Shear Modulus (GPa) = 15.52145 19.83109 17.67627
#
# Velocity S-wave (km/s) = 3.02816 3.42284 3.23153
# Velocity P-wave (km/s) = 6.64561 6.94044 6.79463
#
# Compressibility (1/GPa) = 0.01849780
#
# Stress axis : x y z
#
# Youngs Moduli (GPa) = 62.60856 62.60856 68.94678
#
# Poissons Ratio (x) = 0.47605 0.21966
# Poissons Ratio (y) = 0.47605 0.21966
# Poissons Ratio (z) = 0.19946 0.19946
#
# Static dielectric constant tensor:
#      x y z
#    x 1.547870 0.000000 0.000000 
#    y 0.000000 1.547870 0.000000 
#    z 0.000000 0.000000 1.592630 
# 
# From -- ./inp_files/7805.got.cif
#   From: 2010.05.17/outbox.cif.g08.bks.cpg/sg123_4_cif.got.tgz:7805.got - 2010.05.20 11:43:04.
