data_PCOD9562791
_publ_section_title
;
Structure prediction by ZEFSAII (Michael W. Deem and Ramdas Pophale) SiO2 
 PCOD9562791
Probable space group: P 4/M C C
;
_chemical_formula_sum "Si O2"
_cell_formula_units_Z 58
_cell_length_a 17.492024
_cell_length_b 17.492024
_cell_length_c 9.758418
_cell_angle_alpha 90.000000
_cell_angle_beta 90.000000
_cell_angle_gamma 90.000000
_cell_volume 2985.791973
_symmetry_space_group_name_H-M "P 4/M C C"
_symmetry_group_IT_number 124
_symmetry_cell_setting 'tetragonal'
loop_
_space_group_symop_operation_xyz
x,y,z
-y,x,z
-x,-y,z
y,-x,z
x,-y,1/2-z
-x,y,1/2-z
y,x,1/2-z
-y,-x,1/2-z
-x,-y,-z
y,-x,-z
x,y,-z
-y,x,-z
-x,y,1/2+z
x,-y,1/2+z
-y,-x,1/2+z
y,x,1/2+z
loop_
_atom_site_type_symbol
_atom_site_label
_atom_site_fract_x
_atom_site_fract_y
_atom_site_fract_z
Si Si1 0.000000 0.000000 0.000000
Si Si2 0.227857 0.255163 0.500000
Si Si3 0.840134 0.632023 0.000000
Si Si4 0.145376 0.089014 0.500000
Si Si5 0.780977 0.000000 0.750000
Si Si6 0.528452 0.087551 0.500000
Si Si7 0.664640 0.880170 0.196548
O O1 0.946082 0.077597 0.000000
O O2 0.318182 0.237829 0.500000
O O3 0.182611 0.173862 0.500000
O O4 0.197403 0.302651 0.369320
O O5 0.878916 0.658262 0.859368
O O6 0.851729 0.540826 0.000000
O O7 0.172579 0.051695 0.643758
O O8 0.726035 0.055025 0.663087
O O9 0.583668 0.100801 0.370441
O O10 0.500000 0.000000 0.500000
#
# Coordination Sequence:
#
# PCOD9562791 Si02
#       7
#     2   8   8   8   8   8  16
#     4  12  28  42  52  82 108 150 204 302 324 358
#     4  11  24  43  60  86 115 168 212 261 316 397
#     4  12  22  38  63  90 117 160 201 260 308 394
#     4  12  26  40  59  77 113 150 220 266 340 369
#     4  12  22  41  63  84 110 162 208 272 326 388
#     4  11  24  40  61  95 128 159 202 261 334 390
#     4  11  23  40  63  88 124 160 210 259 323 389
#
# _framework density 19.425332000000001
#
# number of rings (size 3 to 8) (size 9 to 14) (size 15 to 20)
#    0.000    0.552    2.759    6.621    0.000    4.966 
#    0.000    0.000    0.000    0.000    0.000    0.000 
#    0.000    8.828    0.000   44.138    0.000   16.552 
#
# Total GULP energy -323652.454965 kJ/mol
# GULP energy per Si atom -5580.214741 kJ/mol
# Density = 1.938112 g / cm^3
# Si number density = 19.425332 Si / 1000 Ang^3
#
#
#
# Elastic Constant Matrix: (Units=GPa)
#
#
# Indices 1 2 3 4 5 6 
#
# 1 113.2781 37.4942 32.5958 0.0000 0.0000 0.0000
# 2 37.4942 113.2781 32.5958 0.0000 0.0000 0.0000
# 3 32.5958 32.5958 137.4783 0.0000 0.0000 0.0000
# 4 0.0000 0.0000 0.0000 65.5393 0.0000 0.0000
# 5 0.0000 0.0000 0.0000 0.0000 65.5393 0.0000
# 6 0.0000 0.0000 0.0000 0.0000 0.0000 29.2939
#
#
#
# Elastic Compliance Matrix: (Units=1/GPa)
#
#
# Indices 1 2 3 4 5 6 
#
# 1 0.010293 -0.002903 -0.001752 0.000000 0.000000 0.000000
# 2 -0.002903 0.010293 -0.001752 0.000000 0.000000 0.000000
# 3 -0.001752 -0.001752 0.008105 0.000000 0.000000 0.000000
# 4 0.000000 0.000000 0.000000 0.015258 0.000000 0.000000
# 5 0.000000 0.000000 0.000000 0.000000 0.015258 0.000000
# 6 0.000000 0.000000 0.000000 0.000000 0.000000 0.034137
#
#
# Mechanical properties :
#
#
# Convention : Reuss Voigt Hill
#
# Bulk Modulus (GPa) = 62.98700 63.26732 63.12716
# Shear Modulus (GPa) = 44.86344 49.49773 47.18058
#
# Velocity S-wave (km/s) = 4.81097 5.05335 4.93365
# Velocity P-wave (km/s) = 7.95966 8.16631 8.06365
#
# Compressibility (1/GPa) = 0.01587629
#
# Stress axis : x y z
#
# Youngs Moduli (GPa) = 97.15550 97.15550 123.38438
#
# Poissons Ratio (x) = 0.28201 0.21619
# Poissons Ratio (y) = 0.28201 0.21619
# Poissons Ratio (z) = 0.17023 0.17023
#
# Static dielectric constant tensor:
#      x y z
#    x 1.706620 0.000000 0.000000 
#    y 0.000000 1.706620 0.000000 
#    z 0.000000 0.000000 1.725720 
# 
# From -- ./inp_files/711.got.cif
#   From: 2010.05.17/outbox.cif.g08.bks.cpg/sg124_1_cif.got.tgz:711.got - 2010.05.20 11:49:17.
