data_PCOD9562338
_publ_section_title
;
Structure prediction by ZEFSAII (Michael W. Deem and Ramdas Pophale) SiO2 
 PCOD9562338
Probable space group: P 4/M C C
;
_chemical_formula_sum "Si O2"
_cell_formula_units_Z 88
_cell_length_a 17.805507
_cell_length_b 17.805507
_cell_length_c 15.402538
_cell_angle_alpha 90.000000
_cell_angle_beta 90.000000
_cell_angle_gamma 90.000000
_cell_volume 4883.160262
_symmetry_space_group_name_H-M "P 4/M C C"
_symmetry_group_IT_number 124
_symmetry_cell_setting 'tetragonal'
loop_
_space_group_symop_operation_xyz
x,y,z
-y,x,z
-x,-y,z
y,-x,z
x,-y,1/2-z
-x,y,1/2-z
y,x,1/2-z
-y,-x,1/2-z
-x,-y,-z
y,-x,-z
x,y,-z
-y,x,-z
-x,y,1/2+z
x,-y,1/2+z
-y,-x,1/2+z
y,x,1/2+z
loop_
_atom_site_type_symbol
_atom_site_label
_atom_site_fract_x
_atom_site_fract_y
_atom_site_fract_z
Si Si1 0.586983 0.823451 0.767194
Si Si2 0.949287 0.432206 0.901971
Si Si3 0.898403 0.936306 0.894136
Si Si4 0.279655 0.279655 0.250000
Si Si5 0.053769 0.312068 0.168914
Si Si6 0.205633 0.820192 0.102833
O O1 0.500000 0.809877 0.750000
O O2 0.585768 0.871211 0.855803
O O3 0.635100 0.747537 0.760197
O O4 0.629113 0.883059 0.703825
O O5 0.000000 0.500000 0.861304
O O6 0.000339 0.358415 0.894888
O O7 0.933968 0.454605 0.000000
O O8 0.831434 0.881224 0.869388
O O9 0.977909 0.900725 0.865342
O O10 0.898903 0.936910 0.000000
O O11 0.239555 0.244343 0.165106
O O12 0.100694 0.247059 0.122640
O O13 0.000000 0.289851 0.250000
O O14 0.210216 0.803830 0.000000
#
# Coordination Sequence:
#
# PCOD9562338 Si02
#       6
#    16  16  16   8  16  16
#     4  10  19  36  54  72 107 144 174 220 276 331
#     4  10  18  28  50  83 110 136 179 220 267 334
#     4   8  15  28  46  65  87 126 177 220 260 298
#     4  10  24  38  54  80 102 140 182 214 280 360
#     4   9  18  30  50  75 107 145 177 217 273 333
#     4  10  20  35  52  72 106 141 178 231 280 328
#
# _framework density 18.021117
#
# number of rings (size 3 to 8) (size 9 to 14) (size 15 to 20)
#    0.000    2.545    1.818    1.091    0.000    5.091 
#    0.000    1.818    0.000    1.364    0.000    0.000 
#    0.000    0.000    0.000    6.364    0.000    0.000 
#
# Total GULP energy -490508.834539 kJ/mol
# GULP energy per Si atom -5573.964029 kJ/mol
# Density = 1.798010 g / cm^3
# Si number density = 18.021117 Si / 1000 Ang^3
#
#
#
# Elastic Constant Matrix: (Units=GPa)
#
#
# Indices 1 2 3 4 5 6 
#
# 1 63.8880 25.2561 16.6912 0.0000 0.0000 0.0000
# 2 25.2561 63.8880 16.6912 0.0000 0.0000 0.0000
# 3 16.6912 16.6912 57.1008 0.0000 0.0000 0.0000
# 4 0.0000 0.0000 0.0000 5.6441 0.0000 0.0000
# 5 0.0000 0.0000 0.0000 0.0000 5.6441 0.0000
# 6 0.0000 0.0000 0.0000 0.0000 0.0000 25.5630
#
#
#
# Elastic Compliance Matrix: (Units=1/GPa)
#
#
# Indices 1 2 3 4 5 6 
#
# 1 0.019241 -0.006644 -0.003682 0.000000 0.000000 0.000000
# 2 -0.006644 0.019241 -0.003682 0.000000 0.000000 0.000000
# 3 -0.003682 -0.003682 0.019666 0.000000 0.000000 0.000000
# 4 0.000000 0.000000 0.000000 0.177177 0.000000 0.000000
# 5 0.000000 0.000000 0.000000 0.000000 0.177177 0.000000
# 6 0.000000 0.000000 0.000000 0.000000 0.000000 0.039119
#
#
# Mechanical properties :
#
#
# Convention : Reuss Voigt Hill
#
# Bulk Modulus (GPa) = 33.18919 33.57266 33.38092
# Shear Modulus (GPa) = 10.21072 15.78611 12.99842
#
# Velocity S-wave (km/s) = 2.38291 2.96290 2.68859
# Velocity P-wave (km/s) = 5.10175 5.51136 5.31051
#
# Compressibility (1/GPa) = 0.03013029
#
# Stress axis : x y z
#
# Youngs Moduli (GPa) = 51.97234 51.97234 50.85030
#
# Poissons Ratio (x) = 0.34532 0.18724
# Poissons Ratio (y) = 0.34532 0.18724
# Poissons Ratio (z) = 0.19137 0.19137
#
# Static dielectric constant tensor:
#      x y z
#    x 1.636480 0.000000 0.000000 
#    y 0.000000 1.636480 0.000000 
#    z 0.000000 0.000000 1.647120 
# 
# From -- ./inp_files/3220.got.cif
#   From: 2010.05.17/outbox.cif.g08.bks.cpg/sg124_2_cif.got.tgz:3220.got - 2010.05.20 11:49:17.
