data_PCOD9562294
_publ_section_title
;
Structure prediction by ZEFSAII (Michael W. Deem and Ramdas Pophale) SiO2 
 PCOD9562294
Probable space group: P 4/M M M
;
_chemical_formula_sum "Si O2"
_cell_formula_units_Z 120
_cell_length_a 27.000000
_cell_length_b 27.000000
_cell_length_c 9.000000
_cell_angle_alpha 90.000000
_cell_angle_beta 90.000000
_cell_angle_gamma 90.000000
_cell_volume 6561.000000
_symmetry_space_group_name_H-M "P 4/M M M"
_symmetry_group_IT_number 123
_symmetry_cell_setting 'tetragonal'
loop_
_space_group_symop_operation_xyz
x,y,z
-y,x,z
-x,-y,z
y,-x,z
x,-y,-z
-x,y,-z
y,x,-z
-y,-x,-z
-x,-y,-z
y,-x,-z
x,y,-z
-y,x,-z
-x,y,z
x,-y,z
-y,-x,z
y,x,z
loop_
_atom_site_type_symbol
_atom_site_label
_atom_site_fract_x
_atom_site_fract_y
_atom_site_fract_z
Si Si1 0.325013 0.591437 0.827826
Si Si2 0.644655 0.941601 0.176917
Si Si3 0.246245 0.094350 0.819811
Si Si4 0.556543 0.360516 0.500000
Si Si5 0.608538 0.207817 0.827286
Si Si6 0.138351 0.943301 0.181396
Si Si7 0.121695 0.443609 0.322250
Si Si8 0.720713 0.201745 0.180489
O O1 0.359273 0.640728 0.824438
O O2 0.335317 0.565353 0.665597
O O3 0.266651 0.602027 0.824653
O O4 0.334416 0.570039 0.000000
O O5 0.700696 0.928120 0.228711
O O6 0.600229 0.911870 0.254133
O O7 0.637336 0.000000 0.197527
O O8 0.643036 0.930518 0.000000
O O9 0.194491 0.070462 0.769293
O O10 0.248903 0.152468 0.782192
O O11 0.246071 0.089921 0.000000
O O12 0.500000 0.376413 0.500000
O O13 0.594246 0.405755 0.500000
O O14 0.569117 0.176991 0.733867
O O15 0.664123 0.196936 0.770112
O O16 0.605089 0.191707 0.000000
O O17 0.097557 0.902444 0.228757
O O18 0.126594 0.000000 0.225027
O O19 0.138726 0.942068 0.000000
O O20 0.119275 0.441216 0.500000
O O21 0.108059 0.500000 0.276648
O O22 0.749625 0.250376 0.233308
O O23 0.718444 0.204511 0.000000
#
# Coordination Sequence:
#
# PCOD9562294 Si02
#       8
#    16  16  16   8  16  16  16  16
#     4   9  19  36  58  85 118 154 191 233 283 342
#     4  10  20  36  59  82 102 130 175 231 283 330
#     4   9  15  26  44  70 100 128 165 217 272 321
#     4  10  22  39  60  86 116 152 195 243 289 337
#     4  10  19  34  56  82 111 142 181 227 273 325
#     4   9  16  24  35  56  91 135 179 221 265 315
#     4  11  25  41  55  75 107 144 180 222 271 330
#     4   9  15  24  45  76 106 134 165 208 264 323
#
# _framework density 18.289895000000001
#
# number of rings (size 3 to 8) (size 9 to 14) (size 15 to 20)
#    0.000    2.400    1.333    1.600    0.933    7.400 
#    0.000    3.333    0.000    0.000    0.000    1.867 
#    0.000    0.000    0.000    0.000    0.000    0.133 
#
# Total GULP energy -668218.306206 kJ/mol
# GULP energy per Si atom -5568.485885 kJ/mol
# Density = 1.824827 g / cm^3
# Si number density = 18.289895 Si / 1000 Ang^3
#
#
#
# Elastic Constant Matrix: (Units=GPa)
#
#
# Indices 1 2 3 4 5 6 
#
# 1 109.4435 46.7386 24.6509 0.0000 0.0000 0.0000
# 2 46.7386 109.4493 24.6517 0.0000 0.0000 0.0000
# 3 24.6509 24.6517 51.8289 0.0000 0.0000 0.0000
# 4 0.0000 0.0000 0.0000 13.3038 0.0000 0.0000
# 5 0.0000 0.0000 0.0000 0.0000 13.3038 0.0000
# 6 0.0000 0.0000 0.0000 0.0000 0.0000 1.9100
#
#
#
# Elastic Compliance Matrix: (Units=1/GPa)
#
#
# Indices 1 2 3 4 5 6 
#
# 1 0.011741 -0.004207 -0.003583 0.000000 0.000000 0.000000
# 2 -0.004207 0.011740 -0.003583 0.000000 0.000000 0.000000
# 3 -0.003583 -0.003583 0.022703 0.000000 0.000000 0.000000
# 4 0.000000 0.000000 0.000000 0.075167 0.000000 0.000000
# 5 0.000000 0.000000 0.000000 0.000000 0.075167 0.000000
# 6 0.000000 0.000000 0.000000 0.000000 0.000000 0.523547
#
#
# Mechanical properties :
#
#
# Convention : Reuss Voigt Hill
#
# Bulk Modulus (GPa) = 42.66700 51.42266 47.04483
# Shear Modulus (GPa) = 6.66114 17.34889 12.00501
#
# Velocity S-wave (km/s) = 1.91047 3.08320 2.56476
# Velocity P-wave (km/s) = 5.31463 6.39149 5.87778
#
# Compressibility (1/GPa) = 0.02343732
#
# Stress axis : x y z
#
# Youngs Moduli (GPa) = 85.17387 85.17826 44.04733
#
# Poissons Ratio (x) = 0.35831 0.15783
# Poissons Ratio (y) = 0.35829 0.15783
# Poissons Ratio (z) = 0.30520 0.30522
#
# Static dielectric constant tensor:
#      x y z
#    x 1.634600 0.000000 0.000000 
#    y 0.000000 1.634600 0.000000 
#    z 0.000000 0.000000 1.636140 
# 
# From -- ./inp_files/2016.got.cif
#   From: 2010.05.17/outbox.ucp.g08.bks.cvg/sg123_2_cif.got.tgz:2016.got - 2010.06.11 11:35:48.
