data_PCOD9562085
_publ_section_title
;
Structure prediction by ZEFSAII (Michael W. Deem and Ramdas Pophale) SiO2 
 PCOD9562085
Probable space group: P 4/M M M
;
_chemical_formula_sum "Si O2"
_cell_formula_units_Z 64
_cell_length_a 19.929643
_cell_length_b 19.929643
_cell_length_c 9.846193
_cell_angle_alpha 90.000000
_cell_angle_beta 90.000000
_cell_angle_gamma 90.000000
_cell_volume 3910.815996
_symmetry_space_group_name_H-M "P 4/M M M"
_symmetry_group_IT_number 123
_symmetry_cell_setting 'tetragonal'
loop_
_space_group_symop_operation_xyz
x,y,z
-y,x,z
-x,-y,z
y,-x,z
x,-y,-z
-x,y,-z
y,x,-z
-y,-x,-z
-x,-y,-z
y,-x,-z
x,y,-z
-y,x,-z
-x,y,z
x,-y,z
-y,-x,z
y,x,z
loop_
_atom_site_type_symbol
_atom_site_label
_atom_site_fract_x
_atom_site_fract_y
_atom_site_fract_z
Si Si1 0.076506 0.708482 0.161582
Si Si2 0.423569 0.260295 0.350302
Si Si3 0.098989 0.576557 0.342424
Si Si4 0.313477 0.313477 0.843469
Si Si5 0.800348 0.800348 0.840969
O O1 0.079848 0.638396 0.245050
O O2 0.131647 0.763478 0.210995
O O3 0.000000 0.733809 0.173088
O O4 0.089946 0.695444 0.000000
O O5 0.397211 0.278622 0.500000
O O6 0.500000 0.283482 0.340347
O O7 0.423880 0.179782 0.342797
O O8 0.378885 0.288112 0.231879
O O9 0.078001 0.587486 0.500000
O O10 0.078041 0.500000 0.303285
O O11 0.256545 0.256545 0.830046
O O12 0.325589 0.325589 0.000000
O O13 0.814207 0.814207 0.000000
#
# Coordination Sequence:
#
# PCOD9562085 Si02
#       5
#    16  16  16   8   8
#     4  10  20  34  52  72  98 133 168 205 249 296
#     4   9  18  32  49  71 100 133 168 204 246 298
#     4   9  18  32  49  71 102 136 166 199 239 287
#     4  11  19  29  51  76  99 129 165 212 257 294
#     4   9  18  33  49  72 100 125 161 205 249 293
#
# _framework density 16.364871999999998
#
# number of rings (size 3 to 8) (size 9 to 14) (size 15 to 20)
#    0.000    2.500    2.500    1.875    0.000    2.000 
#    0.000    5.625    0.000    0.750    0.000    5.250 
#    0.000    0.000    0.000    2.250    0.000    2.500 
#
# Total GULP energy -356284.131122 kJ/mol
# GULP energy per Si atom -5566.939549 kJ/mol
# Density = 1.632762 g / cm^3
# Si number density = 16.364872 Si / 1000 Ang^3
#
#
#
# Elastic Constant Matrix: (Units=GPa)
#
#
# Indices 1 2 3 4 5 6 
#
# 1 84.9480 58.2481 51.3909 0.0000 0.0000 0.0000
# 2 58.2481 84.9480 51.3909 0.0000 0.0000 0.0000
# 3 51.3909 51.3909 86.3946 0.0000 0.0000 0.0000
# 4 0.0000 0.0000 0.0000 16.7774 0.0000 0.0000
# 5 0.0000 0.0000 0.0000 0.0000 16.7774 0.0000
# 6 0.0000 0.0000 0.0000 0.0000 0.0000 12.1765
#
#
#
# Elastic Compliance Matrix: (Units=1/GPa)
#
#
# Indices 1 2 3 4 5 6 
#
# 1 0.024820 -0.012633 -0.007249 0.000000 0.000000 0.000000
# 2 -0.012633 0.024820 -0.007249 0.000000 0.000000 0.000000
# 3 -0.007249 -0.007249 0.020199 0.000000 0.000000 0.000000
# 4 0.000000 0.000000 0.000000 0.059604 0.000000 0.000000
# 5 0.000000 0.000000 0.000000 0.000000 0.059604 0.000000
# 6 0.000000 0.000000 0.000000 0.000000 0.000000 0.082126
#
#
# Mechanical properties :
#
#
# Convention : Reuss Voigt Hill
#
# Bulk Modulus (GPa) = 64.20226 64.26117 64.23171
# Shear Modulus (GPa) = 15.12276 15.49695 15.30986
#
# Velocity S-wave (km/s) = 3.04320 3.08062 3.06196
# Velocity P-wave (km/s) = 7.18784 7.21156 7.19971
#
# Compressibility (1/GPa) = 0.01557578
#
# Stress axis : x y z
#
# Youngs Moduli (GPa) = 40.29022 40.29022 49.50774
#
# Poissons Ratio (x) = 0.50900 0.35888
# Poissons Ratio (y) = 0.50900 0.35888
# Poissons Ratio (z) = 0.29207 0.29207
#
# Static dielectric constant tensor:
#      x y z
#    x 1.562590 0.000000 0.000000 
#    y 0.000000 1.562590 0.000000 
#    z 0.000000 0.000000 1.550770 
# 
# From -- ./inp_files/953.got.cif
#   From: 2010.05.17/outbox.cif.g08.bks.cpg/sg123_1_cif.got.tgz:953.got - 2010.05.20 11:43:04.
