data_PCOD9562885
_publ_section_title
;
Structure prediction by ZEFSAII (Michael W. Deem and Ramdas Pophale) SiO2 
 PCOD9562885
Probable space group: P 4/N B M
;
_chemical_formula_sum "Si O2"
_cell_formula_units_Z 104
_cell_length_a 21.592153
_cell_length_b 21.592153
_cell_length_c 13.689415
_cell_angle_alpha 90.000000
_cell_angle_beta 90.000000
_cell_angle_gamma 90.000000
_cell_volume 6382.293725
_symmetry_space_group_name_H-M "P 4/N B M"
_symmetry_group_IT_number 125
_space_group.IT_coordinate_system_code '2'
_symmetry_cell_setting 'tetragonal'
loop_
_space_group_symop_operation_xyz
x,y,z
1/2-y,x,z
1/2-x,1/2-y,z
y,1/2-x,z
x,1/2-y,-z
1/2-x,y,-z
y,x,-z
1/2-y,1/2-x,-z
-x,-y,-z
1/2+y,-x,-z
1/2+x,1/2+y,-z
-y,1/2+x,-z
-x,1/2+y,z
1/2+x,-y,z
-y,-x,z
1/2+y,1/2+x,z
loop_
_atom_site_type_symbol
_atom_site_label
_atom_site_fract_x
_atom_site_fract_y
_atom_site_fract_z
Si Si1 0.426389 0.031829 0.727880
Si Si2 0.472276 0.630169 0.453628
Si Si3 0.697510 0.197510 0.876902
Si Si4 0.750000 0.414337 0.000000
Si Si5 0.657980 0.054529 0.158377
Si Si6 0.625684 0.022013 0.684195
Si Si7 0.755865 0.428807 0.340429
Si Si8 0.199116 0.699116 0.356429
O O1 0.462416 0.096167 0.736384
O O2 0.480518 0.980518 0.735631
O O3 0.398633 0.022687 0.619461
O O4 0.374094 0.008290 0.802609
O O5 0.408951 0.591050 0.435312
O O6 0.487131 0.621849 0.566829
O O7 0.461400 0.700249 0.419404
O O8 0.750000 0.250000 0.896143
O O9 0.633030 0.217135 0.924863
O O10 0.693583 0.193583 0.760941
O O11 0.798807 0.451931 0.064354
O O12 0.604654 0.104654 0.136089
O O13 0.697822 0.082260 0.249207
O O14 0.582531 0.082531 0.706438
O O15 0.697761 0.033439 0.702240
O O16 0.724033 0.367809 0.386288
O O17 0.250000 0.750000 0.381401
#
# Coordination Sequence:
#
# PCOD9562885 Si02
#       8
#    16  16   8   8  16  16  16   8
#     4   8  16  30  46  61  77 109 150 198 233 260
#     4   9  17  29  45  60  81 110 154 197 230 263
#     4  11  18  24  38  61  84 113 154 191 228 271
#     4  12  17  26  42  64  88 112 150 199 236 278
#     4  10  19  30  45  65  87 113 150 195 238 274
#     4  10  18  29  43  59  83 114 155 188 226 268
#     4  11  19  28  39  62  88 119 149 187 232 284
#     4  11  20  28  38  55  89 131 155 183 231 284
#
# _framework density 16.295082000000001
#
# number of rings (size 3 to 8) (size 9 to 14) (size 15 to 20)
#    0.000    2.000    3.846    3.231    0.000    1.846 
#    0.000    0.000    0.000    0.923    0.000    4.308 
#    0.000    9.846    0.000   24.615    0.000    6.154 
#
# Total GULP energy -579885.370997 kJ/mol
# GULP energy per Si atom -5575.820875 kJ/mol
# Density = 1.625799 g / cm^3
# Si number density = 16.295082 Si / 1000 Ang^3
#
#
#
# Elastic Constant Matrix: (Units=GPa)
#
#
# Indices 1 2 3 4 5 6 
#
# 1 60.8107 40.2419 7.5641 0.0000 0.0000 0.0000
# 2 40.2419 60.8107 7.5641 0.0000 0.0000 0.0000
# 3 7.5641 7.5641 47.6211 0.0000 0.0000 0.0000
# 4 0.0000 0.0000 0.0000 13.7293 0.0000 0.0000
# 5 0.0000 0.0000 0.0000 0.0000 13.7293 0.0000
# 6 0.0000 0.0000 0.0000 0.0000 0.0000 23.0281
#
#
#
# Elastic Compliance Matrix: (Units=1/GPa)
#
#
# Indices 1 2 3 4 5 6 
#
# 1 0.029377 -0.019240 -0.001610 0.000000 0.000000 0.000000
# 2 -0.019240 0.029377 -0.001610 0.000000 0.000000 0.000000
# 3 -0.001610 -0.001610 0.021511 0.000000 0.000000 0.000000
# 4 0.000000 0.000000 0.000000 0.072837 0.000000 0.000000
# 5 0.000000 0.000000 0.000000 0.000000 0.072837 0.000000
# 6 0.000000 0.000000 0.000000 0.000000 0.000000 0.043425
#
#
# Mechanical properties :
#
#
# Convention : Reuss Voigt Hill
#
# Bulk Modulus (GPa) = 28.29348 31.10919 29.70133
# Shear Modulus (GPa) = 15.33428 17.68881 16.51155
#
# Velocity S-wave (km/s) = 3.07096 3.29831 3.18667
# Velocity P-wave (km/s) = 5.47497 5.79981 5.63973
#
# Compressibility (1/GPa) = 0.03534383
#
# Stress axis : x y z
#
# Youngs Moduli (GPa) = 34.04006 34.04006 46.48872
#
# Poissons Ratio (x) = 0.65494 0.07485
# Poissons Ratio (y) = 0.65494 0.07485
# Poissons Ratio (z) = 0.05481 0.05481
#
# Static dielectric constant tensor:
#      x y z
#    x 1.572940 0.000000 0.000000 
#    y 0.000000 1.572940 0.000000 
#    z 0.000000 0.000000 1.586490 
# 
# From -- ./inp_files/5107.got.cif
#   From: 2010.05.17/outbox.cif.g08.bks.cpg/sg125_3_cif.got.tgz:5107.got - 2010.05.20 11:54:10.
