data_PCOD9562754
_publ_section_title
;
Structure prediction by ZEFSAII (Michael W. Deem and Ramdas Pophale) SiO2 
 PCOD9562754
Probable space group: P 4/M C C
;
_chemical_formula_sum "Si O2"
_cell_formula_units_Z 88
_cell_length_a 15.781920
_cell_length_b 15.781920
_cell_length_c 20.418956
_cell_angle_alpha 90.000000
_cell_angle_beta 90.000000
_cell_angle_gamma 90.000000
_cell_volume 5085.728929
_symmetry_space_group_name_H-M "P 4/M C C"
_symmetry_group_IT_number 124
_symmetry_cell_setting 'tetragonal'
loop_
_space_group_symop_operation_xyz
x,y,z
-y,x,z
-x,-y,z
y,-x,z
x,-y,1/2-z
-x,y,1/2-z
y,x,1/2-z
-y,-x,1/2-z
-x,-y,-z
y,-x,-z
x,y,-z
-y,x,-z
-x,y,1/2+z
x,-y,1/2+z
-y,-x,1/2+z
y,x,1/2+z
loop_
_atom_site_type_symbol
_atom_site_label
_atom_site_fract_x
_atom_site_fract_y
_atom_site_fract_z
Si Si1 0.511508 0.266555 0.135824
Si Si2 0.512923 0.641609 0.000000
Si Si3 0.123228 0.057972 0.079495
Si Si4 0.330147 0.306233 0.178189
Si Si5 0.903792 0.478579 0.923205
Si Si6 0.712023 0.837453 0.923275
O O1 0.484269 0.302747 0.064802
O O2 0.430958 0.287736 0.180834
O O3 0.597250 0.311216 0.157965
O O4 0.521720 0.166358 0.123083
O O5 0.425976 0.588479 0.000000
O O6 0.210511 0.102614 0.097871
O O7 0.039379 0.109707 0.100578
O O8 0.122593 0.056553 0.000000
O O9 0.292139 0.292139 0.250000
O O10 0.293495 0.243993 0.123056
O O11 0.885481 0.377998 0.918737
O O12 0.000000 0.500000 0.905532
O O13 0.891818 0.503320 0.000000
O O14 0.723570 0.813664 0.000000
#
# Coordination Sequence:
#
# PCOD9562754 Si02
#       6
#    16   8  16  16  16  16
#     4  11  21  35  56  76 110 138 178 214 264 314
#     4  11  20  32  53  86 112 138 167 214 268 317
#     4   8  14  27  50  81 112 135 163 216 277 325
#     4  11  24  38  53  75 106 143 180 218 261 309
#     4   9  18  31  50  78 109 138 170 219 265 308
#     4   9  19  33  53  78 106 137 178 219 263 318
#
# _framework density 17.303319999999999
#
# number of rings (size 3 to 8) (size 9 to 14) (size 15 to 20)
#    0.000    2.273    2.727    1.091    2.545    1.818 
#    0.000    4.545    0.000   14.182    0.000    1.273 
#    0.000    0.000    0.000    0.000    0.000    0.000 
#
# Total GULP energy -490703.529353 kJ/mol
# GULP energy per Si atom -5576.176470 kJ/mol
# Density = 1.726394 g / cm^3
# Si number density = 17.303320 Si / 1000 Ang^3
#
#
#
# Elastic Constant Matrix: (Units=GPa)
#
#
# Indices 1 2 3 4 5 6 
#
# 1 79.7677 26.4626 19.6525 0.0000 0.0000 0.0000
# 2 26.4626 79.7677 19.6525 0.0000 0.0000 0.0000
# 3 19.6525 19.6525 58.6660 0.0000 0.0000 0.0000
# 4 0.0000 0.0000 0.0000 7.5620 0.0000 0.0000
# 5 0.0000 0.0000 0.0000 0.0000 7.5620 0.0000
# 6 0.0000 0.0000 0.0000 0.0000 0.0000 23.4554
#
#
#
# Elastic Compliance Matrix: (Units=1/GPa)
#
#
# Indices 1 2 3 4 5 6 
#
# 1 0.014753 -0.004007 -0.003600 0.000000 0.000000 0.000000
# 2 -0.004007 0.014753 -0.003600 0.000000 0.000000 0.000000
# 3 -0.003600 -0.003600 0.019457 0.000000 0.000000 0.000000
# 4 0.000000 0.000000 0.000000 0.132240 0.000000 0.000000
# 5 0.000000 0.000000 0.000000 0.000000 0.132240 0.000000
# 6 0.000000 0.000000 0.000000 0.000000 0.000000 0.042634
#
#
# Mechanical properties :
#
#
# Convention : Reuss Voigt Hill
#
# Bulk Modulus (GPa) = 37.66526 38.85963 38.26244
# Shear Modulus (GPa) = 12.90859 17.87815 15.39337
#
# Velocity S-wave (km/s) = 2.73430 3.21786 2.98588
# Velocity P-wave (km/s) = 5.63768 6.02601 5.83508
#
# Compressibility (1/GPa) = 0.02654967
#
# Stress axis : x y z
#
# Youngs Moduli (GPa) = 67.78450 67.78450 51.39462
#
# Poissons Ratio (x) = 0.27163 0.18500
# Poissons Ratio (y) = 0.27163 0.18500
# Poissons Ratio (z) = 0.24400 0.24400
#
# Static dielectric constant tensor:
#      x y z
#    x 1.584790 0.000000 0.000000 
#    y 0.000000 1.584790 0.000000 
#    z 0.000000 0.000000 1.584140 
# 
# From -- ./inp_files/5172.got.cif
#   From: 2010.05.17/outbox.cif.g08.bks.cpg/sg124_3_cif.got.tgz:5172.got - 2010.05.20 11:49:17.
