data_PCOD9562006
_publ_section_title
;
Structure prediction by ZEFSAII (Michael W. Deem and Ramdas Pophale) SiO2 
 PCOD9562006
Probable space group: P 4/M M M
;
_chemical_formula_sum "Si O2"
_cell_formula_units_Z 88
_cell_length_a 19.149259
_cell_length_b 19.149259
_cell_length_c 14.976213
_cell_angle_alpha 90.000000
_cell_angle_beta 90.000000
_cell_angle_gamma 90.000000
_cell_volume 5491.689251
_symmetry_space_group_name_H-M "P 4/M M M"
_symmetry_group_IT_number 123
_symmetry_cell_setting 'tetragonal'
loop_
_space_group_symop_operation_xyz
x,y,z
-y,x,z
-x,-y,z
y,-x,z
x,-y,-z
-x,y,-z
y,x,-z
-y,-x,-z
-x,-y,-z
y,-x,-z
x,y,-z
-y,x,-z
-x,y,z
x,-y,z
-y,-x,z
y,x,z
loop_
_atom_site_type_symbol
_atom_site_label
_atom_site_fract_x
_atom_site_fract_y
_atom_site_fract_z
Si Si1 0.915998 0.500000 0.898729
Si Si2 0.416289 0.145838 0.399999
Si Si3 0.419592 0.692610 0.141320
Si Si4 0.693366 0.579701 0.642238
Si Si5 0.917533 0.363987 0.780313
Si Si6 0.306903 0.809913 0.901060
O O1 0.898951 0.432366 0.840150
O O2 0.000000 0.500000 0.906341
O O3 0.887405 0.500000 0.000000
O O4 0.397257 0.123233 0.500000
O O5 0.500000 0.136899 0.389281
O O6 0.402656 0.228728 0.389990
O O7 0.379355 0.104575 0.320780
O O8 0.500000 0.694859 0.111772
O O9 0.377677 0.622324 0.115110
O O10 0.419574 0.695427 0.249539
O O11 0.372793 0.757402 0.109607
O O12 0.677152 0.500000 0.614508
O O13 0.635368 0.635368 0.613411
O O14 0.868362 0.306771 0.825434
O O15 0.000000 0.351360 0.787284
O O16 0.240048 0.759953 0.894905
O O17 0.310383 0.841889 0.000000
#
# Coordination Sequence:
#
# PCOD9562006 Si02
#       6
#     8  16  16  16  16  16
#     4   9  18  30  45  71 101 125 153 194 244 290
#     4  10  20  33  48  66  93 131 169 207 259 318
#     4   9  17  29  45  64  89 123 164 210 256 298
#     4   9  17  30  47  67  92 125 170 223 271 310
#     4  11  21  34  52  74  98 126 163 206 249 295
#     4  10  21  35  51  72 100 133 163 196 246 306
#
# _framework density 16.024211999999999
#
# number of rings (size 3 to 8) (size 9 to 14) (size 15 to 20)
#    0.000    2.273    2.727    0.545    1.273    2.545 
#    0.000    2.727    0.000    0.000    0.000    5.091 
#    0.000    0.364    0.000    2.000    0.000    0.000 
#
# Total GULP energy -491041.869971 kJ/mol
# GULP energy per Si atom -5580.021250 kJ/mol
# Density = 1.598774 g / cm^3
# Si number density = 16.024212 Si / 1000 Ang^3
#
#
#
# Elastic Constant Matrix: (Units=GPa)
#
#
# Indices 1 2 3 4 5 6 
#
# 1 65.7862 19.7768 32.8215 0.0000 0.0000 0.0000
# 2 19.7768 65.7862 32.8215 0.0000 0.0000 0.0000
# 3 32.8215 32.8215 113.3982 0.0000 0.0000 0.0000
# 4 0.0000 0.0000 0.0000 4.3301 0.0000 0.0000
# 5 0.0000 0.0000 0.0000 0.0000 4.3301 0.0000
# 6 0.0000 0.0000 0.0000 0.0000 0.0000 9.1844
#
#
#
# Elastic Compliance Matrix: (Units=1/GPa)
#
#
# Indices 1 2 3 4 5 6 
#
# 1 0.018379 -0.003356 -0.004348 0.000000 0.000000 0.000000
# 2 -0.003356 0.018379 -0.004348 0.000000 0.000000 0.000000
# 3 -0.004348 -0.004348 0.011336 0.000000 0.000000 0.000000
# 4 0.000000 0.000000 0.000000 0.230940 0.000000 0.000000
# 5 0.000000 0.000000 0.000000 0.000000 0.230940 0.000000
# 6 0.000000 0.000000 0.000000 0.000000 0.000000 0.108880
#
#
# Mechanical properties :
#
#
# Convention : Reuss Voigt Hill
#
# Bulk Modulus (GPa) = 41.68579 46.20113 43.94346
# Shear Modulus (GPa) = 7.68103 14.20566 10.94335
#
# Velocity S-wave (km/s) = 2.19176 2.98067 2.61612
# Velocity P-wave (km/s) = 5.69875 6.38283 6.05047
#
# Compressibility (1/GPa) = 0.02398899
#
# Stress axis : x y z
#
# Youngs Moduli (GPa) = 54.41009 54.41009 88.21787
#
# Poissons Ratio (x) = 0.18258 0.38359
# Poissons Ratio (y) = 0.18258 0.38359
# Poissons Ratio (z) = 0.23659 0.23659
#
# Static dielectric constant tensor:
#      x y z
#    x 1.529480 0.000000 0.000000 
#    y 0.000000 1.529480 0.000000 
#    z 0.000000 0.000000 1.578810 
# 
# From -- ./inp_files/4057.got.cif
#   From: 2010.05.17/outbox.cif.g08.bks.cpg/sg123_3_cif.got.tgz:4057.got - 2010.05.20 11:43:04.
