data_PCOD9562637
_publ_section_title
;
Structure prediction by ZEFSAII (Michael W. Deem and Ramdas Pophale) SiO2 
 PCOD9562637
Probable space group: P 4/M C C
;
_chemical_formula_sum "Si O2"
_cell_formula_units_Z 64
_cell_length_a 20.805375
_cell_length_b 20.805375
_cell_length_c 9.095590
_cell_angle_alpha 90.000000
_cell_angle_beta 90.000000
_cell_angle_gamma 90.000000
_cell_volume 3937.150094
_symmetry_space_group_name_H-M "P 4/M C C"
_symmetry_group_IT_number 124
_symmetry_cell_setting 'tetragonal'
loop_
_space_group_symop_operation_xyz
x,y,z
-y,x,z
-x,-y,z
y,-x,z
x,-y,1/2-z
-x,y,1/2-z
y,x,1/2-z
-y,-x,1/2-z
-x,-y,-z
y,-x,-z
x,y,-z
-y,x,-z
-x,y,1/2+z
x,-y,1/2+z
-y,-x,1/2+z
y,x,1/2+z
loop_
_atom_site_type_symbol
_atom_site_label
_atom_site_fract_x
_atom_site_fract_y
_atom_site_fract_z
Si Si1 0.500000 0.698234 0.750000
Si Si2 0.638559 0.735966 0.170889
Si Si3 0.838234 0.261744 0.177507
Si Si4 0.527308 0.396158 0.000000
Si Si5 0.170926 0.930249 0.179029
O O1 0.561788 0.735859 0.808162
O O2 0.467141 0.649857 0.863645
O O3 0.679219 0.679219 0.250000
O O4 0.669379 0.805566 0.207126
O O5 0.651397 0.724459 0.000000
O O6 0.785752 0.214249 0.250000
O O7 0.902334 0.239015 0.260382
O O8 0.843946 0.252377 0.000000
O O9 0.574885 0.455517 0.000000
O O10 0.116883 0.883118 0.250000
O O11 0.161112 0.000000 0.250000
O O12 0.168126 0.929906 0.000000
#
# Coordination Sequence:
#
# PCOD9562637 Si02
#       5
#     8  16  16   8  16
#     4  12  22  33  46  68  91 124 168 214 262 312
#     4  10  21  34  50  69  93 126 165 214 265 313
#     4   9  17  32  51  73  98 129 169 212 257 300
#     4  11  22  34  46  60  88 126 165 204 252 316
#     4  11  21  35  54  81 113 147 179 208 241 284
#
# _framework density 16.255413999999998
#
# number of rings (size 3 to 8) (size 9 to 14) (size 15 to 20)
#    0.000    1.625    1.250    6.750    1.750    2.250 
#    0.000    1.250    0.000    0.000    0.000    0.875 
#    0.000    6.000    0.000    0.000    0.000    0.000 
#
# Total GULP energy -356283.032690 kJ/mol
# GULP energy per Si atom -5566.922386 kJ/mol
# Density = 1.621842 g / cm^3
# Si number density = 16.255414 Si / 1000 Ang^3
#
#
#
# Elastic Constant Matrix: (Units=GPa)
#
#
# Indices 1 2 3 4 5 6 
#
# 1 72.0488 56.0219 28.9693 0.0000 0.0000 0.0000
# 2 56.0219 72.0475 28.9685 0.0000 0.0000 0.0000
# 3 28.9693 28.9685 103.2121 0.0000 0.0000 0.0000
# 4 0.0000 0.0000 0.0000 22.9894 0.0000 0.0000
# 5 0.0000 0.0000 0.0000 0.0000 22.9895 0.0000
# 6 0.0000 0.0000 0.0000 0.0000 0.0000 83.6952
#
#
#
# Elastic Compliance Matrix: (Units=1/GPa)
#
#
# Indices 1 2 3 4 5 6 
#
# 1 0.035671 -0.026727 -0.002510 0.000000 0.000000 0.000000
# 2 -0.026727 0.035671 -0.002510 0.000000 0.000000 0.000000
# 3 -0.002510 -0.002510 0.011098 0.000000 0.000000 0.000000
# 4 0.000000 0.000000 0.000000 0.043498 0.000000 0.000000
# 5 0.000000 0.000000 0.000000 0.000000 0.043498 0.000000
# 6 0.000000 0.000000 0.000000 0.000000 0.000000 0.011948
#
#
# Mechanical properties :
#
#
# Convention : Reuss Voigt Hill
#
# Bulk Modulus (GPa) = 52.78592 52.80310 52.79451
# Shear Modulus (GPa) = 19.90494 34.82474 27.36484
#
# Velocity S-wave (km/s) = 3.50310 4.63357 4.10741
# Velocity P-wave (km/s) = 6.99325 7.82180 7.41910
#
# Compressibility (1/GPa) = 0.01894445
#
# Stress axis : x y z
#
# Youngs Moduli (GPa) = 28.03434 28.03396 90.10679
#
# Poissons Ratio (x) = 0.74926 0.22621
# Poissons Ratio (y) = 0.74927 0.22618
# Poissons Ratio (z) = 0.07038 0.07037
#
# Static dielectric constant tensor:
#      x y z
#    x 1.578230 0.000000 0.000000 
#    y 0.000000 1.578230 0.000000 
#    z 0.000000 0.000000 1.572640 
# 
# From -- ./inp_files/893.got.cif
#   From: 2010.05.17/outbox.cif.g08.bks.cpg/sg124_1_cif.got.tgz:893.got - 2010.05.20 11:49:17.
