data_PCOD9562961
_publ_section_title
;
Structure prediction by ZEFSAII (Michael W. Deem and Ramdas Pophale) SiO2 
 PCOD9562961
Probable space group: P 4/N B M
;
_chemical_formula_sum "Si O2"
_cell_formula_units_Z 80
_cell_length_a 28.075993
_cell_length_b 28.075993
_cell_length_c 5.123077
_cell_angle_alpha 90.000000
_cell_angle_beta 90.000000
_cell_angle_gamma 90.000000
_cell_volume 4038.323761
_symmetry_space_group_name_H-M "P 4/N B M"
_symmetry_group_IT_number 125
_space_group.IT_coordinate_system_code '2'
_symmetry_cell_setting 'tetragonal'
loop_
_space_group_symop_operation_xyz
x,y,z
1/2-y,x,z
1/2-x,1/2-y,z
y,1/2-x,z
x,1/2-y,-z
1/2-x,y,-z
y,x,-z
1/2-y,1/2-x,-z
-x,-y,-z
1/2+y,-x,-z
1/2+x,1/2+y,-z
-y,1/2+x,-z
-x,1/2+y,z
1/2+x,-y,z
-y,-x,z
1/2+y,1/2+x,z
loop_
_atom_site_type_symbol
_atom_site_label
_atom_site_fract_x
_atom_site_fract_y
_atom_site_fract_z
Si Si1 0.615440 0.464022 0.948313
Si Si2 0.720582 0.357426 0.737141
Si Si3 0.656043 0.422130 0.440167
Si Si4 0.887745 0.694257 0.504511
Si Si5 0.430786 0.350669 0.004727
O O1 0.433354 0.566647 0.997516
O O2 0.654813 0.443114 0.151136
O O3 0.620467 0.519892 0.996711
O O4 0.627765 0.454753 0.646105
O O5 0.750000 0.333690 0.500000
O O6 0.676282 0.323719 0.810474
O O7 0.701927 0.405504 0.598245
O O8 0.750000 0.365407 0.000000
O O9 0.626377 0.373624 0.409887
O O10 0.874130 0.750000 0.500000
O O11 0.841338 0.658663 0.500000
O O12 0.920951 0.680560 0.260041
O O13 0.919788 0.682138 0.755983
O O14 0.390068 0.390068 0.000000
#
# Coordination Sequence:
#
# PCOD9562961 Si02
#       5
#    16  16  16  16  16
#     4  10  19  35  58  80 108 149 192 227 267 329
#     4  11  22  36  53  73 100 132 171 224 284 343
#     4   9  19  35  53  73 100 137 180 227 273 316
#     4  10  21  39  61  85 117 155 193 235 287 342
#     4  10  21  37  58  87 122 153 181 227 286 328
#
# _framework density 19.810198
#
# number of rings (size 3 to 8) (size 9 to 14) (size 15 to 20)
#    0.000    2.000    0.000    3.600    0.000    5.000 
#    0.000   10.000    0.000   10.800    0.000    0.000 
#    0.000    0.000    0.000    0.000    0.000    0.000 
#
# Total GULP energy -445621.107411 kJ/mol
# GULP energy per Si atom -5570.263843 kJ/mol
# Density = 1.976511 g / cm^3
# Si number density = 19.810198 Si / 1000 Ang^3
#
#
#
# Elastic Constant Matrix: (Units=GPa)
#
#
# Indices 1 2 3 4 5 6 
#
# 1 76.4020 15.7813 21.9197 0.0000 0.0000 0.0000
# 2 15.7813 76.3986 21.9203 0.0000 0.0000 0.0000
# 3 21.9197 21.9203 116.5097 0.0000 0.0000 0.0000
# 4 0.0000 0.0000 0.0000 6.7907 0.0000 0.0000
# 5 0.0000 0.0000 0.0000 0.0000 6.7942 0.0000
# 6 0.0000 0.0000 0.0000 0.0000 0.0000 9.1065
#
#
#
# Elastic Compliance Matrix: (Units=1/GPa)
#
#
# Indices 1 2 3 4 5 6 
#
# 1 0.014205 -0.002291 -0.002241 0.000000 0.000000 0.000000
# 2 -0.002291 0.014206 -0.002242 0.000000 0.000000 0.000000
# 3 -0.002241 -0.002242 0.009426 0.000000 0.000000 0.000000
# 4 0.000000 0.000000 0.000000 0.147261 0.000000 0.000000
# 5 0.000000 0.000000 0.000000 0.000000 0.147185 0.000000
# 6 0.000000 0.000000 0.000000 0.000000 0.000000 0.109812
#
#
# Mechanical properties :
#
#
# Convention : Reuss Voigt Hill
#
# Bulk Modulus (GPa) = 41.17142 43.17255 42.17199
# Shear Modulus (GPa) = 10.78190 18.51752 14.64971
#
# Velocity S-wave (km/s) = 2.33547 3.06068 2.72233
# Velocity P-wave (km/s) = 5.30100 5.85924 5.58710
#
# Compressibility (1/GPa) = 0.02428869
#
# Stress axis : x y z
#
# Youngs Moduli (GPa) = 70.39783 70.39436 106.08494
#
# Poissons Ratio (x) = 0.16128 0.23778
# Poissons Ratio (y) = 0.16129 0.23780
# Poissons Ratio (z) = 0.15779 0.15780
#
# Static dielectric constant tensor:
#      x y z
#    x 1.730190 0.000000 0.000000 
#    y 0.000000 1.730190 0.000000 
#    z 0.000000 0.000000 1.751840 
# 
# From -- ./inp_files/1168.got.cif
#   From: 2010.05.17/outbox.cif.g08.bks.cpg/sg125_1_cif.got.tgz:1168.got - 2010.05.20 11:54:10.
