data_PCOD9562523
_publ_section_title
;
Structure prediction by ZEFSAII (Michael W. Deem and Ramdas Pophale) SiO2 
 PCOD9562523
Probable space group: P 4/M C C
;
_chemical_formula_sum "Si O2"
_cell_formula_units_Z 80
_cell_length_a 18.424790
_cell_length_b 18.424790
_cell_length_c 15.801670
_cell_angle_alpha 90.000000
_cell_angle_beta 90.000000
_cell_angle_gamma 90.000000
_cell_volume 5364.238527
_symmetry_space_group_name_H-M "P 4/M C C"
_symmetry_group_IT_number 124
_symmetry_cell_setting 'tetragonal'
loop_
_space_group_symop_operation_xyz
x,y,z
-y,x,z
-x,-y,z
y,-x,z
x,-y,1/2-z
-x,y,1/2-z
y,x,1/2-z
-y,-x,1/2-z
-x,-y,-z
y,-x,-z
x,y,-z
-y,x,-z
-x,y,1/2+z
x,-y,1/2+z
-y,-x,1/2+z
y,x,1/2+z
loop_
_atom_site_type_symbol
_atom_site_label
_atom_site_fract_x
_atom_site_fract_y
_atom_site_fract_z
Si Si1 0.682752 0.310582 0.343313
Si Si2 0.422928 0.804944 0.098412
Si Si3 0.918111 0.412839 0.253552
Si Si4 0.817904 0.406010 0.904684
Si Si5 0.435711 0.397845 0.903668
O O1 0.709395 0.290606 0.250000
O O2 0.736822 0.369957 0.383036
O O3 0.658192 0.241113 0.396694
O O4 0.604060 0.348928 0.336656
O O5 0.399867 0.868825 0.163223
O O6 0.510057 0.789340 0.110349
O O7 0.414630 0.825351 0.000000
O O8 0.923693 0.500000 0.250000
O O9 0.874915 0.391531 0.169343
O O10 0.000000 0.383196 0.250000
O O11 0.847645 0.406767 0.000000
O O12 0.521278 0.404535 0.896124
O O13 0.419909 0.371753 0.000000
#
# Coordination Sequence:
#
# PCOD9562523 Si02
#       5
#    16  16  16  16  16
#     4  12  21  29  43  61  87 116 145 186 225 260
#     4  10  20  33  48  66  89 118 150 185 228 272
#     4   9  18  33  50  68  87 106 140 189 233 275
#     4  10  20  33  48  66  89 118 150 185 228 272
#     4   9  18  30  40  52  74 107 147 187 224 261
#
# _framework density 14.91358
#
# number of rings (size 3 to 8) (size 9 to 14) (size 15 to 20)
#    0.000    2.000    2.000    3.600    0.000    6.400 
#    0.000    5.000    0.000    0.000    0.000    0.000 
#    0.000    0.000    0.000    0.000    0.000    8.000 
#
# Total GULP energy -445419.418591 kJ/mol
# GULP energy per Si atom -5567.742732 kJ/mol
# Density = 1.487964 g / cm^3
# Si number density = 14.913580 Si / 1000 Ang^3
#
#
#
# Elastic Constant Matrix: (Units=GPa)
#
#
# Indices 1 2 3 4 5 6 
#
# 1 49.2579 26.9463 30.9608 0.0000 0.0000 0.0000
# 2 26.9463 49.2579 30.9610 0.0000 0.0000 0.0000
# 3 30.9608 30.9610 103.3192 0.0000 0.0000 0.0000
# 4 0.0000 0.0000 0.0000 8.7994 0.0000 0.0000
# 5 0.0000 0.0000 0.0000 0.0000 8.7994 0.0000
# 6 0.0000 0.0000 0.0000 0.0000 0.0000 8.1728
#
#
#
# Elastic Compliance Matrix: (Units=1/GPa)
#
#
# Indices 1 2 3 4 5 6 
#
# 1 0.031083 -0.013737 -0.005198 0.000000 0.000000 0.000000
# 2 -0.013737 0.031083 -0.005198 0.000000 0.000000 0.000000
# 3 -0.005198 -0.005198 0.012794 0.000000 0.000000 0.000000
# 4 0.000000 0.000000 0.000000 0.113644 0.000000 0.000000
# 5 0.000000 0.000000 0.000000 0.000000 0.113644 0.000000
# 6 0.000000 0.000000 0.000000 0.000000 0.000000 0.122357
#
#
# Mechanical properties :
#
#
# Convention : Reuss Voigt Hill
#
# Bulk Modulus (GPa) = 37.46060 42.17455 39.81757
# Shear Modulus (GPa) = 10.37842 12.68546 11.53194
#
# Velocity S-wave (km/s) = 2.64086 2.91966 2.78376
# Velocity P-wave (km/s) = 5.87127 6.30132 6.09009
#
# Compressibility (1/GPa) = 0.02669472
#
# Stress axis : x y z
#
# Youngs Moduli (GPa) = 32.17185 32.17180 78.16105
#
# Poissons Ratio (x) = 0.44193 0.40629
# Poissons Ratio (y) = 0.44193 0.40629
# Poissons Ratio (z) = 0.16723 0.16723
#
# Static dielectric constant tensor:
#      x y z
#    x 1.504540 0.000000 0.000000 
#    y 0.000000 1.504540 0.000000 
#    z 0.000000 0.000000 1.558990 
# 
# From -- ./inp_files/3062.got.cif
#   From: 2010.05.17/outbox.cif.g08.bks.cpg/sg124_2_cif.got.tgz:3062.got - 2010.05.20 11:49:17.
