data_PCOD9562732
_publ_section_title
;
Structure prediction by ZEFSAII (Michael W. Deem and Ramdas Pophale) SiO2 
 PCOD9562732
Probable space group: P 4/M C C
;
_chemical_formula_sum "Si O2"
_cell_formula_units_Z 120
_cell_length_a 14.611045
_cell_length_b 14.611045
_cell_length_c 30.202226
_cell_angle_alpha 90.000000
_cell_angle_beta 90.000000
_cell_angle_gamma 90.000000
_cell_volume 6447.650819
_symmetry_space_group_name_H-M "P 4/M C C"
_symmetry_group_IT_number 124
_symmetry_cell_setting 'tetragonal'
loop_
_space_group_symop_operation_xyz
x,y,z
-y,x,z
-x,-y,z
y,-x,z
x,-y,1/2-z
-x,y,1/2-z
y,x,1/2-z
-y,-x,1/2-z
-x,-y,-z
y,-x,-z
x,y,-z
-y,x,-z
-x,y,1/2+z
x,-y,1/2+z
-y,-x,1/2+z
y,x,1/2+z
loop_
_atom_site_type_symbol
_atom_site_label
_atom_site_fract_x
_atom_site_fract_y
_atom_site_fract_z
Si Si1 0.329975 0.686327 0.089571
Si Si2 0.108067 0.111327 0.199499
Si Si3 0.488221 0.651730 0.301770
Si Si4 0.008825 0.767234 0.051750
Si Si5 0.563270 0.088927 0.548910
Si Si6 0.763113 0.487057 0.121082
Si Si7 0.587392 0.371918 0.000000
Si Si8 0.166478 0.821748 0.395924
O O1 0.407115 0.739270 0.116356
O O2 0.314574 0.580563 0.101774
O O3 0.371705 0.682034 0.041119
O O4 0.236024 0.741423 0.095372
O O5 0.137645 0.137645 0.250000
O O6 0.151524 0.160017 0.156451
O O7 0.998139 0.124730 0.196291
O O8 0.405894 0.580799 0.312461
O O9 0.500000 0.667293 0.250000
O O10 0.471284 0.747146 0.326889
O O11 0.053148 0.666576 0.051518
O O12 0.081997 0.829133 0.077891
O O13 0.916301 0.768234 0.080286
O O14 0.994454 0.793701 0.000000
O O15 0.551890 0.135430 0.500000
O O16 0.537208 0.150539 0.590950
O O17 0.500000 0.000000 0.549027
O O18 0.621993 0.477371 0.000000
#
# Coordination Sequence:
#
# PCOD9562732 Si02
#       8
#    16  16  16  16  16  16   8  16
#     4  12  26  36  59  88 126 164 203 255 310 365
#     4   9  18  37  66  95 119 150 197 259 326 385
#     4   9  18  34  58  87 120 156 193 241 305 371
#     4  11  24  39  59  88 125 168 209 254 304 367
#     4  10  23  43  61  83 121 171 215 243 292 370
#     4  12  22  39  60  90 120 157 202 258 308 358
#     4  11  24  40  58  86 124 173 210 260 320 363
#     4  12  23  41  61  91 125 162 208 258 314 375
#
# _framework density 18.611429999999999
#
# number of rings (size 3 to 8) (size 9 to 14) (size 15 to 20)
#    0.000    1.267    5.333    2.000    3.733    0.533 
#    0.000    2.000    0.000    0.400    0.000    0.000 
#    0.000    0.000    0.000    0.000    0.000    0.000 
#
# Total GULP energy -668628.736305 kJ/mol
# GULP energy per Si atom -5571.906136 kJ/mol
# Density = 1.856907 g / cm^3
# Si number density = 18.611430 Si / 1000 Ang^3
#
#
#
# Elastic Constant Matrix: (Units=GPa)
#
#
# Indices 1 2 3 4 5 6 
#
# 1 53.9186 2.3808 32.4212 0.0000 0.0000 0.0000
# 2 2.3808 53.9186 32.4212 0.0000 0.0000 0.0000
# 3 32.4212 32.4212 140.2408 0.0000 0.0000 0.0000
# 4 0.0000 0.0000 0.0000 41.0756 0.0000 0.0000
# 5 0.0000 0.0000 0.0000 0.0000 41.0756 0.0000
# 6 0.0000 0.0000 0.0000 0.0000 0.0000 27.9557
#
#
#
# Elastic Compliance Matrix: (Units=1/GPa)
#
#
# Indices 1 2 3 4 5 6 
#
# 1 0.021806 0.002402 -0.005596 0.000000 0.000000 0.000000
# 2 0.002402 0.021806 -0.005596 0.000000 0.000000 0.000000
# 3 -0.005596 -0.005596 0.009718 0.000000 0.000000 0.000000
# 4 0.000000 0.000000 0.000000 0.024345 0.000000 0.000000
# 5 0.000000 0.000000 0.000000 0.000000 0.024345 0.000000
# 6 0.000000 0.000000 0.000000 0.000000 0.000000 0.035771
#
#
# Mechanical properties :
#
#
# Convention : Reuss Voigt Hill
#
# Bulk Modulus (GPa) = 27.97351 42.50272 35.23812
# Shear Modulus (GPa) = 29.88860 34.07839 31.98349
#
# Velocity S-wave (km/s) = 4.01175 4.28371 4.14996
# Velocity P-wave (km/s) = 6.04332 6.88138 6.47592
#
# Compressibility (1/GPa) = 0.03574810
#
# Stress axis : x y z
#
# Youngs Moduli (GPa) = 45.85994 45.85994 102.89993
#
# Poissons Ratio (x) = -0.11017 0.57587
# Poissons Ratio (y) = -0.11017 0.57587
# Poissons Ratio (z) = 0.25665 0.25665
#
# Static dielectric constant tensor:
#      x y z
#    x 1.649350 0.000000 0.000000 
#    y 0.000000 1.649350 0.000000 
#    z 0.000000 0.000000 1.692700 
# 
# From -- ./inp_files/7328.got.cif
#   From: 2010.05.17/outbox.cif.g08.bks.cpg/sg124_4_cif.got.tgz:7328.got - 2010.05.20 11:49:17.
