data_PCOD9562398
_publ_section_title
;
Structure prediction by ZEFSAII (Michael W. Deem and Ramdas Pophale) SiO2 
 PCOD9562398
Probable space group: P 4/M C C
;
_chemical_formula_sum "Si O2"
_cell_formula_units_Z 96
_cell_length_a 17.835090
_cell_length_b 17.835090
_cell_length_c 17.629776
_cell_angle_alpha 90.000000
_cell_angle_beta 90.000000
_cell_angle_gamma 90.000000
_cell_volume 5607.863122
_symmetry_space_group_name_H-M "P 4/M C C"
_symmetry_group_IT_number 124
_symmetry_cell_setting 'tetragonal'
loop_
_space_group_symop_operation_xyz
x,y,z
-y,x,z
-x,-y,z
y,-x,z
x,-y,1/2-z
-x,y,1/2-z
y,x,1/2-z
-y,-x,1/2-z
-x,-y,-z
y,-x,-z
x,y,-z
-y,x,-z
-x,y,1/2+z
x,-y,1/2+z
-y,-x,1/2+z
y,x,1/2+z
loop_
_atom_site_type_symbol
_atom_site_label
_atom_site_fract_x
_atom_site_fract_y
_atom_site_fract_z
Si Si1 0.947688 0.626017 0.321223
Si Si2 0.333215 0.085928 0.413987
Si Si3 0.422166 0.400809 0.584439
Si Si4 0.178461 0.700123 0.728232
Si Si5 0.439469 0.722154 0.810001
Si Si6 0.851915 0.502492 0.587889
O O1 0.889132 0.684398 0.285777
O O2 0.901957 0.559699 0.362838
O O3 0.000000 0.599310 0.250000
O O4 0.002690 0.666348 0.380228
O O5 0.306221 0.091131 0.500000
O O6 0.293393 0.142053 0.355421
O O7 0.421536 0.107961 0.413197
O O8 0.512852 0.399668 0.590982
O O9 0.401387 0.374761 0.500000
O O10 0.395825 0.344692 0.648356
O O11 0.231939 0.768062 0.750000
O O12 0.225156 0.622427 0.727675
O O13 0.500000 0.693769 0.750000
O O14 0.484888 0.772824 0.871234
O O15 0.843127 0.527139 0.500000
#
# Coordination Sequence:
#
# PCOD9562398 Si02
#       6
#    16  16  16  16  16  16
#     4  10  19  32  52  76 102 137 171 211 252 306
#     4   9  19  34  54  76 104 136 172 214 257 307
#     4   9  20  37  51  63  82 117 174 241 295 329
#     4  10  22  36  50  73 110 142 173 207 264 316
#     4  11  21  31  49  70  98 132 173 219 268 313
#     4  10  19  31  48  76 103 129 167 210 257 310
#
# _framework density 17.118819999999999
#
# number of rings (size 3 to 8) (size 9 to 14) (size 15 to 20)
#    0.000    2.167    1.667    2.000    2.333    5.333 
#    0.000    2.500    0.000    0.000    0.000    0.000 
#    0.000   27.000    0.000   13.500    0.000    0.000 
#
# Total GULP energy -535662.769138 kJ/mol
# GULP energy per Si atom -5579.820512 kJ/mol
# Density = 1.707986 g / cm^3
# Si number density = 17.118820 Si / 1000 Ang^3
#
#
#
# Elastic Constant Matrix: (Units=GPa)
#
#
# Indices 1 2 3 4 5 6 
#
# 1 49.6929 10.8353 31.5661 0.0000 0.0000 0.0000
# 2 10.8353 49.6934 31.5657 0.0000 0.0000 0.0000
# 3 31.5661 31.5657 109.4115 0.0000 0.0000 0.0000
# 4 0.0000 0.0000 0.0000 17.9896 0.0000 0.0000
# 5 0.0000 0.0000 0.0000 0.0000 17.9905 0.0000
# 6 0.0000 0.0000 0.0000 0.0000 0.0000 17.4977
#
#
#
# Elastic Compliance Matrix: (Units=1/GPa)
#
#
# Indices 1 2 3 4 5 6 
#
# 1 0.024684 -0.001051 -0.006818 0.000000 0.000000 0.000000
# 2 -0.001051 0.024683 -0.006818 0.000000 0.000000 0.000000
# 3 -0.006818 -0.006818 0.013074 0.000000 0.000000 0.000000
# 4 0.000000 0.000000 0.000000 0.055588 0.000000 0.000000
# 5 0.000000 0.000000 0.000000 0.000000 0.055585 0.000000
# 6 0.000000 0.000000 0.000000 0.000000 0.000000 0.057150
#
#
# Mechanical properties :
#
#
# Convention : Reuss Voigt Hill
#
# Bulk Modulus (GPa) = 30.24209 39.63689 34.93949
# Shear Modulus (GPa) = 18.43921 19.68427 19.06174
#
# Velocity S-wave (km/s) = 3.28553 3.39464 3.34053
# Velocity P-wave (km/s) = 5.66545 6.21040 5.94417
#
# Compressibility (1/GPa) = 0.03306649
#
# Stress axis : x y z
#
# Youngs Moduli (GPa) = 40.51223 40.51297 76.48788
#
# Poissons Ratio (x) = 0.04258 0.52151
# Poissons Ratio (y) = 0.04258 0.52150
# Poissons Ratio (z) = 0.27622 0.27622
#
# Static dielectric constant tensor:
#      x y z
#    x 1.569440 0.000000 0.000000 
#    y 0.000000 1.569440 0.000000 
#    z 0.000000 0.000000 1.624560 
# 
# From -- ./inp_files/4276.got.cif
#   From: 2010.05.17/outbox.cif.g08.bks.cpg/sg124_3_cif.got.tgz:4276.got - 2010.05.20 11:49:17.
