data_PCOD9562891
_publ_section_title
;
Structure prediction by ZEFSAII (Michael W. Deem and Ramdas Pophale) SiO2 
 PCOD9562891
Probable space group: P 4/N B M
;
_chemical_formula_sum "Si O2"
_cell_formula_units_Z 96
_cell_length_a 15.807303
_cell_length_b 15.807303
_cell_length_c 20.528172
_cell_angle_alpha 90.000000
_cell_angle_beta 90.000000
_cell_angle_gamma 90.000000
_cell_volume 5129.391338
_symmetry_space_group_name_H-M "P 4/N B M"
_symmetry_group_IT_number 125
_space_group.IT_coordinate_system_code '2'
_symmetry_cell_setting 'tetragonal'
loop_
_space_group_symop_operation_xyz
x,y,z
1/2-y,x,z
1/2-x,1/2-y,z
y,1/2-x,z
x,1/2-y,-z
1/2-x,y,-z
y,x,-z
1/2-y,1/2-x,-z
-x,-y,-z
1/2+y,-x,-z
1/2+x,1/2+y,-z
-y,1/2+x,-z
-x,1/2+y,z
1/2+x,-y,z
-y,-x,z
1/2+y,1/2+x,z
loop_
_atom_site_type_symbol
_atom_site_label
_atom_site_fract_x
_atom_site_fract_y
_atom_site_fract_z
Si Si1 0.448251 0.406829 0.148774
Si Si2 0.493272 0.722933 0.122593
Si Si3 0.923694 0.567767 0.297678
Si Si4 0.250000 0.893223 0.500000
Si Si5 0.790060 0.431552 0.268082
Si Si6 0.883257 0.250000 0.000000
Si Si7 0.032584 0.831054 0.621708
O O1 0.523896 0.476105 0.138046
O O2 0.465029 0.315795 0.117472
O O3 0.358650 0.446261 0.127283
O O4 0.440228 0.392606 0.226644
O O5 0.441798 0.724243 0.190940
O O6 0.436731 0.713149 0.058950
O O7 0.836334 0.517500 0.292996
O O8 0.994284 0.494284 0.303992
O O9 0.941702 0.634755 0.354529
O O10 0.329639 0.829639 0.511055
O O11 0.267148 0.951886 0.437368
O O12 0.853510 0.353510 0.278408
O O13 0.709215 0.425752 0.313605
O O14 0.823045 0.176955 0.027839
O O15 0.087318 0.912683 0.602375
#
# Coordination Sequence:
#
# PCOD9562891 Si02
#       7
#    16  16  16   8  16   8  16
#     4  10  20  37  60  85 115 152 194 241 294 346
#     4  11  22  38  59  83 116 152 193 240 292 350
#     4   8  16  31  49  73 103 135 178 226 270 321
#     4   9  18  30  44  72 112 143 174 224 286 349
#     4  10  19  32  53  79 105 137 183 235 282 331
#     4  11  24  40  58  85 120 156 196 243 300 363
#     4  10  18  31  51  73 102 142 180 223 280 340
#
# _framework density 18.715671
#
# number of rings (size 3 to 8) (size 9 to 14) (size 15 to 20)
#    0.000    2.167    1.667    3.500    0.000    2.667 
#    0.000    2.500    0.000    5.500    0.000    0.000 
#    0.000    1.333    0.000    0.000    0.000    0.000 
#
# Total GULP energy -534828.363926 kJ/mol
# GULP energy per Si atom -5571.128791 kJ/mol
# Density = 1.867307 g / cm^3
# Si number density = 18.715671 Si / 1000 Ang^3
#
#
#
# Elastic Constant Matrix: (Units=GPa)
#
#
# Indices 1 2 3 4 5 6 
#
# 1 63.2326 26.0676 24.3831 0.0000 0.0000 0.0000
# 2 26.0676 63.2326 24.3831 0.0000 0.0000 0.0000
# 3 24.3831 24.3831 80.4152 0.0000 0.0000 0.0000
# 4 0.0000 0.0000 0.0000 24.3273 0.0000 0.0000
# 5 0.0000 0.0000 0.0000 0.0000 24.3273 0.0000
# 6 0.0000 0.0000 0.0000 0.0000 0.0000 18.4816
#
#
#
# Elastic Compliance Matrix: (Units=1/GPa)
#
#
# Indices 1 2 3 4 5 6 
#
# 1 0.020164 -0.006743 -0.004069 0.000000 0.000000 0.000000
# 2 -0.006743 0.020164 -0.004069 0.000000 0.000000 0.000000
# 3 -0.004069 -0.004069 0.014903 0.000000 0.000000 0.000000
# 4 0.000000 0.000000 0.000000 0.041106 0.000000 0.000000
# 5 0.000000 0.000000 0.000000 0.000000 0.041106 0.000000
# 6 0.000000 0.000000 0.000000 0.000000 0.000000 0.054108
#
#
# Mechanical properties :
#
#
# Convention : Reuss Voigt Hill
#
# Bulk Modulus (GPa) = 39.26667 39.61644 39.44155
# Shear Modulus (GPa) = 21.75775 22.23035 21.99405
#
# Velocity S-wave (km/s) = 3.41331 3.45018 3.43179
# Velocity P-wave (km/s) = 6.04652 6.08975 6.06817
#
# Compressibility (1/GPa) = 0.02546689
#
# Stress axis : x y z
#
# Youngs Moduli (GPa) = 49.59413 49.59413 67.09982
#
# Poissons Ratio (x) = 0.33443 0.27305
# Poissons Ratio (y) = 0.33443 0.27305
# Poissons Ratio (z) = 0.20181 0.20181
#
# Static dielectric constant tensor:
#      x y z
#    x 1.678190 0.000000 0.000000 
#    y 0.000000 1.678190 0.000000 
#    z 0.000000 0.000000 1.638640 
# 
# From -- ./inp_files/5960.got.cif
#   From: 2010.05.17/outbox.cif.g08.bks.cpg/sg125_3_cif.got.tgz:5960.got - 2010.05.20 11:54:10.
