data_PCOD9562155
_publ_section_title
;
Structure prediction by ZEFSAII (Michael W. Deem and Ramdas Pophale) SiO2 
 PCOD9562155
Probable space group: P 4/M M M
;
_chemical_formula_sum "Si O2"
_cell_formula_units_Z 112
_cell_length_a 14.289510
_cell_length_b 14.289510
_cell_length_c 30.629570
_cell_angle_alpha 90.000000
_cell_angle_beta 90.000000
_cell_angle_gamma 90.000000
_cell_volume 6254.254840
_symmetry_space_group_name_H-M "P 4/M M M"
_symmetry_group_IT_number 123
_symmetry_cell_setting 'tetragonal'
loop_
_space_group_symop_operation_xyz
x,y,z
-y,x,z
-x,-y,z
y,-x,z
x,-y,-z
-x,y,-z
y,x,-z
-y,-x,-z
-x,-y,-z
y,-x,-z
x,y,-z
-y,x,-z
-x,y,z
x,-y,z
-y,-x,z
y,x,z
loop_
_atom_site_type_symbol
_atom_site_label
_atom_site_fract_x
_atom_site_fract_y
_atom_site_fract_z
Si Si1 0.258959 0.893691 0.786320
Si Si2 0.251197 0.102751 0.947814
Si Si3 0.110473 0.735587 0.447878
Si Si4 0.754178 0.604357 0.176619
Si Si5 0.228505 0.386476 0.382143
Si Si6 0.246330 0.396232 0.928429
Si Si7 0.736930 0.890093 0.318369
O O1 0.171952 0.828049 0.798343
O O2 0.349233 0.850905 0.809473
O O3 0.272292 0.887367 0.734029
O O4 0.242119 0.000000 0.798353
O O5 0.175154 0.175154 0.929409
O O6 0.351997 0.147243 0.940218
O O7 0.241044 0.000000 0.929172
O O8 0.237520 0.098144 0.000000
O O9 0.115460 0.721012 0.500000
O O10 0.168702 0.831299 0.438165
O O11 0.166477 0.653630 0.422667
O O12 0.000000 0.740339 0.436133
O O13 0.743747 0.500000 0.193435
O O14 0.672303 0.672303 0.193165
O O15 0.748040 0.602298 0.124152
O O16 0.238616 0.500000 0.382352
O O17 0.326652 0.326652 0.382272
O O18 0.167134 0.347037 0.341302
O O19 0.259262 0.500000 0.945105
O O20 0.325480 0.325480 0.945035
O O21 0.831772 0.831772 0.329487
O O22 0.740123 0.000000 0.331053
#
# Coordination Sequence:
#
# PCOD9562155 Si02
#       7
#    16  16  16  16  16  16  16
#     4   9  18  32  49  70  97 127 158 192 229 272
#     4   9  18  32  49  69  93 121 153 189 228 270
#     4   9  18  32  50  74 103 132 161 193 231 278
#     4   9  18  32  49  69  93 121 154 193 235 277
#     4  10  21  36  52  70  94 124 160 202 243 283
#     4   9  18  32  49  69  93 121 153 190 232 277
#     4   9  18  32  50  73  99 126 156 190 230 277
#
# _framework density 17.907809
#
# number of rings (size 3 to 8) (size 9 to 14) (size 15 to 20)
#    0.000    2.857    0.000    0.429    0.000    4.429 
#    0.000    8.571    0.000    2.571    0.000   12.000 
#    0.000    0.000    0.000    0.000    0.000    0.000 
#
# Total GULP energy -623864.708659 kJ/mol
# GULP energy per Si atom -5570.220613 kJ/mol
# Density = 1.786705 g / cm^3
# Si number density = 17.907809 Si / 1000 Ang^3
#
#
#
# Elastic Constant Matrix: (Units=GPa)
#
#
# Indices 1 2 3 4 5 6 
#
# 1 138.2027 53.8681 11.0531 0.0000 0.0000 0.0000
# 2 53.8681 138.2027 11.0531 0.0000 0.0000 0.0000
# 3 11.0531 11.0531 14.4112 0.0000 0.0000 0.0000
# 4 0.0000 0.0000 0.0000 22.2390 0.0000 0.0000
# 5 0.0000 0.0000 0.0000 0.0000 22.2390 0.0000
# 6 0.0000 0.0000 0.0000 0.0000 0.0000 8.0263
#
#
#
# Elastic Compliance Matrix: (Units=1/GPa)
#
#
# Indices 1 2 3 4 5 6 
#
# 1 0.008784 -0.003074 -0.004380 0.000000 0.000000 0.000000
# 2 -0.003074 0.008784 -0.004380 0.000000 0.000000 0.000000
# 3 -0.004380 -0.004380 0.076109 0.000000 0.000000 0.000000
# 4 0.000000 0.000000 0.000000 0.044966 0.000000 0.000000
# 5 0.000000 0.000000 0.000000 0.000000 0.044966 0.000000
# 6 0.000000 0.000000 0.000000 0.000000 0.000000 0.124590
#
#
# Mechanical properties :
#
#
# Convention : Reuss Voigt Hill
#
# Bulk Modulus (GPa) = 14.28359 49.19613 31.73986
# Shear Modulus (GPa) = 14.07650 24.82370 19.45010
#
# Velocity S-wave (km/s) = 2.80671 3.72720 3.29921
# Velocity P-wave (km/s) = 4.30081 6.78633 5.68116
#
# Compressibility (1/GPa) = 0.07001042
#
# Stress axis : x y z
#
# Youngs Moduli (GPa) = 113.84308 113.84308 13.13910
#
# Poissons Ratio (x) = 0.34990 0.05755
# Poissons Ratio (y) = 0.34990 0.05755
# Poissons Ratio (z) = 0.49861 0.49861
#
# Static dielectric constant tensor:
#      x y z
#    x 1.602610 0.000000 0.000000 
#    y 0.000000 1.602610 0.000000 
#    z 0.000000 0.000000 1.647850 
# 
# From -- ./inp_files/8746.got.cif
#   From: 2010.05.17/outbox.cif.g08.bks.cpg/sg123_5_cif.got.tgz:8746.got - 2010.05.20 11:43:04.
