data_PCOD9562151
_publ_section_title
;
Structure prediction by ZEFSAII (Michael W. Deem and Ramdas Pophale) SiO2 
 PCOD9562151
Probable space group: P 4/M M M
;
_chemical_formula_sum "Si O2"
_cell_formula_units_Z 56
_cell_length_a 13.704516
_cell_length_b 13.704516
_cell_length_c 18.342150
_cell_angle_alpha 90.000000
_cell_angle_beta 90.000000
_cell_angle_gamma 90.000000
_cell_volume 3444.908136
_symmetry_space_group_name_H-M "P 4/M M M"
_symmetry_group_IT_number 123
_symmetry_cell_setting 'tetragonal'
loop_
_space_group_symop_operation_xyz
x,y,z
-y,x,z
-x,-y,z
y,-x,z
x,-y,-z
-x,y,-z
y,x,-z
-y,-x,-z
-x,-y,-z
y,-x,-z
x,y,-z
-y,x,-z
-x,y,z
x,-y,z
-y,-x,z
y,x,z
loop_
_atom_site_type_symbol
_atom_site_label
_atom_site_fract_x
_atom_site_fract_y
_atom_site_fract_z
Si Si1 0.386063 0.774016 0.914171
Si Si2 0.384192 0.220487 0.339265
Si Si3 0.613246 0.225575 0.500000
Si Si4 0.722957 0.114406 0.790718
O O1 0.500000 0.762970 0.896782
O O2 0.325863 0.674138 0.901338
O O3 0.336100 0.853967 0.863012
O O4 0.377086 0.797773 0.000000
O O5 0.500000 0.237038 0.329500
O O6 0.320271 0.320271 0.334255
O O7 0.368129 0.177568 0.421219
O O8 0.341930 0.149857 0.277715
O O9 0.500000 0.252198 0.500000
O O10 0.678430 0.321571 0.500000
O O11 0.821581 0.178420 0.789268
O O12 0.740929 0.000000 0.788609
#
# Coordination Sequence:
#
# PCOD9562151 Si02
#       4
#    16  16   8  16
#     4   9  18  32  50  74 103 132 160 188 220 264
#     4   9  17  29  46  70  99 129 159 189 224 270
#     4   8  14  25  41  63  94 128 158 188 221 262
#     4  10  21  36  52  69  90 118 155 200 246 288
#
# _framework density 16.255876000000001
#
# number of rings (size 3 to 8) (size 9 to 14) (size 15 to 20)
#    0.000    2.857    0.000    0.857    0.000    3.857 
#    0.000    6.429    0.000    7.714    0.000    4.000 
#    0.000    5.714    0.000    0.000    0.000    0.000 
#
# Total GULP energy -311756.291698 kJ/mol
# GULP energy per Si atom -5567.076637 kJ/mol
# Density = 1.621888 g / cm^3
# Si number density = 16.255876 Si / 1000 Ang^3
#
#
#
# Elastic Constant Matrix: (Units=GPa)
#
#
# Indices 1 2 3 4 5 6 
#
# 1 135.1604 15.8371 59.2385 0.0000 0.0000 0.0000
# 2 15.8371 135.1623 59.2368 0.0000 0.0000 0.0000
# 3 59.2385 59.2368 85.7212 0.0000 0.0000 0.0000
# 4 0.0000 0.0000 0.0000 14.0575 0.0000 0.0000
# 5 0.0000 0.0000 0.0000 0.0000 14.0576 0.0000
# 6 0.0000 0.0000 0.0000 0.0000 0.0000 -19.8394
#
#
#
# Elastic Compliance Matrix: (Units=1/GPa)
#
#
# Indices 1 2 3 4 5 6 
#
# 1 0.011424 0.003043 -0.009997 0.000000 0.000000 0.000000
# 2 0.003043 0.011423 -0.009997 0.000000 0.000000 0.000000
# 3 -0.009997 -0.009997 0.025483 0.000000 0.000000 0.000000
# 4 0.000000 0.000000 0.000000 0.071136 0.000000 0.000000
# 5 0.000000 0.000000 0.000000 0.000000 0.071136 0.000000
# 6 0.000000 0.000000 0.000000 0.000000 0.000000 -0.050405
#
#
# Mechanical properties :
#
#
# Convention : Reuss Voigt Hill
#
# Bulk Modulus (GPa) = 69.31282 69.40764 69.36023
# Shear Modulus (GPa) = 27.94733 16.43724 22.19228
#
# Velocity S-wave (km/s) = 4.15084 3.18332 3.69885
# Velocity P-wave (km/s) = 8.10579 7.50340 7.81040
#
# Compressibility (1/GPa) = 0.01442734
#
# Stress axis : x y z
#
# Youngs Moduli (GPa) = 87.53746 87.54138 39.24259
#
# Poissons Ratio (x) = -0.26638 0.39232
# Poissons Ratio (y) = -0.26637 0.39230
# Poissons Ratio (z) = 0.87513 0.87512
#
# Static dielectric constant tensor:
#      x y z
#    x 1.512980 0.000000 0.000000 
#    y 0.000000 1.512980 0.000000 
#    z 0.000000 0.000000 1.596230 
# 
# From -- ./inp_files/6099.got.cif
#   From: 2010.05.17/outbox.cif.g08.bks.cpg/sg123_4_cif.got.tgz:6099.got - 2010.05.20 11:43:04.
