data_PCOD9562609
_publ_section_title
;
Structure prediction by ZEFSAII (Michael W. Deem and Ramdas Pophale) SiO2 
 PCOD9562609
Probable space group: P 4/M C C
;
_chemical_formula_sum "Si O2"
_cell_formula_units_Z 88
_cell_length_a 14.640991
_cell_length_b 14.640991
_cell_length_c 20.813443
_cell_angle_alpha 90.000000
_cell_angle_beta 90.000000
_cell_angle_gamma 90.000000
_cell_volume 4461.540866
_symmetry_space_group_name_H-M "P 4/M C C"
_symmetry_group_IT_number 124
_symmetry_cell_setting 'tetragonal'
loop_
_space_group_symop_operation_xyz
x,y,z
-y,x,z
-x,-y,z
y,-x,z
x,-y,1/2-z
-x,y,1/2-z
y,x,1/2-z
-y,-x,1/2-z
-x,-y,-z
y,-x,-z
x,y,-z
-y,x,-z
-x,y,1/2+z
x,-y,1/2+z
-y,-x,1/2+z
y,x,1/2+z
loop_
_atom_site_type_symbol
_atom_site_label
_atom_site_fract_x
_atom_site_fract_y
_atom_site_fract_z
Si Si1 0.837492 0.615554 0.071792
Si Si2 0.805423 0.421728 0.875559
Si Si3 0.219728 0.500000 0.750000
Si Si4 0.029309 0.308135 0.573052
Si Si5 0.153833 0.001302 0.177606
Si Si6 0.321462 0.721422 0.816363
O O1 0.798760 0.513778 0.083212
O O2 0.946990 0.618351 0.075904
O O3 0.799247 0.677051 0.129788
O O4 0.812168 0.647609 0.000000
O O5 0.840320 0.453941 0.805261
O O6 0.714185 0.367452 0.854353
O O7 0.875420 0.354176 0.908808
O O8 0.279784 0.423804 0.786759
O O9 0.031991 0.273188 0.500000
O O10 0.006815 0.229523 0.623421
O O11 0.088631 0.913126 0.171629
O O12 0.192955 0.000000 0.250000
O O13 0.264382 0.735619 0.750000
#
# Coordination Sequence:
#
# PCOD9562609 Si02
#       6
#    16  16   8  16  16  16
#     4  10  22  39  57  83 123 163 201 248 308 377
#     4  10  20  37  60  87 120 156 201 252 307 367
#     4   8  18  38  59  87 118 152 198 250 304 365
#     4  11  24  38  58  89 126 165 206 250 309 373
#     4   9  21  42  62  84 119 161 208 259 306 353
#     4   9  19  37  62  88 116 152 201 254 305 363
#
# _framework density 19.724126999999999
#
# number of rings (size 3 to 8) (size 9 to 14) (size 15 to 20)
#    0.000    2.364    0.000    1.636    2.545    8.000 
#    3.273    6.364    0.000   93.545    0.000   11.455 
#    0.000    0.000    0.000    0.000    0.000    0.000 
#
# Total GULP energy -490208.158795 kJ/mol
# GULP energy per Si atom -5570.547259 kJ/mol
# Density = 1.967923 g / cm^3
# Si number density = 19.724127 Si / 1000 Ang^3
#
#
#
# Elastic Constant Matrix: (Units=GPa)
#
#
# Indices 1 2 3 4 5 6 
#
# 1 50.6745 12.3038 51.8558 0.0000 0.0000 0.0000
# 2 12.3038 50.6740 51.8558 0.0000 0.0000 0.0000
# 3 51.8558 51.8558 160.5698 0.0000 0.0000 0.0000
# 4 0.0000 0.0000 0.0000 24.6457 0.0000 0.0000
# 5 0.0000 0.0000 0.0000 0.0000 24.6456 0.0000
# 6 0.0000 0.0000 0.0000 0.0000 0.0000 11.1581
#
#
#
# Elastic Compliance Matrix: (Units=1/GPa)
#
#
# Indices 1 2 3 4 5 6 
#
# 1 0.029989 0.003927 -0.010953 0.000000 0.000000 0.000000
# 2 0.003927 0.029989 -0.010953 0.000000 0.000000 0.000000
# 3 -0.010953 -0.010953 0.013302 0.000000 0.000000 0.000000
# 4 0.000000 0.000000 0.000000 0.040575 0.000000 0.000000
# 5 0.000000 0.000000 0.000000 0.000000 0.040575 0.000000
# 6 0.000000 0.000000 0.000000 0.000000 0.000000 0.089621
#
#
# Mechanical properties :
#
#
# Convention : Reuss Voigt Hill
#
# Bulk Modulus (GPa) = 26.79387 54.88324 40.83855
# Shear Modulus (GPa) = 17.09694 21.81676 19.45685
#
# Velocity S-wave (km/s) = 2.94735 3.32941 3.14419
# Velocity P-wave (km/s) = 5.01959 6.53191 5.82503
#
# Compressibility (1/GPa) = 0.03732197
#
# Stress axis : x y z
#
# Youngs Moduli (GPa) = 33.34595 33.34545 75.17429
#
# Poissons Ratio (x) = -0.13095 0.82339
# Poissons Ratio (y) = -0.13096 0.82340
# Poissons Ratio (z) = 0.36524 0.36524
#
# Static dielectric constant tensor:
#      x y z
#    x 1.706240 0.000000 0.000000 
#    y 0.000000 1.706240 0.000000 
#    z 0.000000 0.000000 1.714340 
# 
# From -- ./inp_files/5200.got.cif
#   From: 2010.05.17/outbox.cif.g08.bks.cpg/sg124_3_cif.got.tgz:5200.got - 2010.05.20 11:49:17.
