data_PCOD9562663
_publ_section_title
;
Structure prediction by ZEFSAII (Michael W. Deem and Ramdas Pophale) SiO2 
 PCOD9562663
Probable space group: P 4/M C C
;
_chemical_formula_sum "Si O2"
_cell_formula_units_Z 56
_cell_length_a 12.135044
_cell_length_b 12.135044
_cell_length_c 18.966812
_cell_angle_alpha 90.000000
_cell_angle_beta 90.000000
_cell_angle_gamma 90.000000
_cell_volume 2793.039323
_symmetry_space_group_name_H-M "P 4/M C C"
_symmetry_group_IT_number 124
_symmetry_cell_setting 'tetragonal'
loop_
_space_group_symop_operation_xyz
x,y,z
-y,x,z
-x,-y,z
y,-x,z
x,-y,1/2-z
-x,y,1/2-z
y,x,1/2-z
-y,-x,1/2-z
-x,-y,-z
y,-x,-z
x,y,-z
-y,x,-z
-x,y,1/2+z
x,-y,1/2+z
-y,-x,1/2+z
y,x,1/2+z
loop_
_atom_site_type_symbol
_atom_site_label
_atom_site_fract_x
_atom_site_fract_y
_atom_site_fract_z
Si Si1 0.114752 0.328054 0.000000
Si Si2 0.669855 0.000000 0.750000
Si Si3 0.855689 0.714212 0.500000
Si Si4 0.792799 0.667722 0.658942
Si Si5 0.583550 0.818768 0.650939
O O1 0.154869 0.395168 0.931421
O O2 0.167281 0.205261 0.000000
O O3 0.985380 0.306249 0.000000
O O4 0.718564 0.897903 0.797719
O O5 0.604797 0.931891 0.691790
O O6 0.815664 0.668973 0.575053
O O7 0.681034 0.734819 0.671774
O O8 0.780598 0.537738 0.672268
#
# Coordination Sequence:
#
# PCOD9562663 Si02
#       5
#     8   8   8  16  16
#     4  10  21  38  62  90 122 159 200 247 300 356
#     4  12  23  38  62  87 118 159 206 248 285 348
#     4  10  21  38  62  90 122 159 200 247 300 356
#     4  11  23  39  62  91 122 158 199 246 300 357
#     4  11  23  39  62  91 122 158 199 246 300 357
#
# _framework density 20.049842000000002
#
# number of rings (size 3 to 8) (size 9 to 14) (size 15 to 20)
#    0.000    1.143    2.857    4.286    0.000    2.000 
#    0.000    0.000    0.000   15.429    0.000    0.000 
#    0.000    0.000    0.000    0.000    0.000    0.000 
#
# Total GULP energy -312037.336047 kJ/mol
# GULP energy per Si atom -5572.095287 kJ/mol
# Density = 2.000421 g / cm^3
# Si number density = 20.049842 Si / 1000 Ang^3
#
#
#
# Elastic Constant Matrix: (Units=GPa)
#
#
# Indices 1 2 3 4 5 6 
#
# 1 84.1308 69.2519 13.5924 0.0000 0.0000 0.0000
# 2 69.2519 84.1308 13.5924 0.0000 0.0000 0.0000
# 3 13.5924 13.5924 131.8187 0.0000 0.0000 0.0000
# 4 0.0000 0.0000 0.0000 23.0306 0.0000 0.0000
# 5 0.0000 0.0000 0.0000 0.0000 23.0306 0.0000
# 6 0.0000 0.0000 0.0000 0.0000 0.0000 14.9764
#
#
#
# Elastic Compliance Matrix: (Units=1/GPa)
#
#
# Indices 1 2 3 4 5 6 
#
# 1 0.036925 -0.030284 -0.000685 0.000000 0.000000 0.000000
# 2 -0.030284 0.036925 -0.000685 0.000000 0.000000 0.000000
# 3 -0.000685 -0.000685 0.007727 0.000000 0.000000 0.000000
# 4 0.000000 0.000000 0.000000 0.043420 0.000000 0.000000
# 5 0.000000 0.000000 0.000000 0.000000 0.043420 0.000000
# 6 0.000000 0.000000 0.000000 0.000000 0.000000 0.066772
#
#
# Mechanical properties :
#
#
# Convention : Reuss Voigt Hill
#
# Bulk Modulus (GPa) = 54.73371 54.77265 54.75318
# Shear Modulus (GPa) = 16.41560 25.78377 21.09969
#
# Velocity S-wave (km/s) = 2.86447 3.58995 3.24753
# Velocity P-wave (km/s) = 6.18856 6.67542 6.43660
#
# Compressibility (1/GPa) = 0.01827028
#
# Stress axis : x y z
#
# Youngs Moduli (GPa) = 27.08173 27.08173 129.40969
#
# Poissons Ratio (x) = 0.82015 0.08862
# Poissons Ratio (y) = 0.82015 0.08862
# Poissons Ratio (z) = 0.01855 0.01855
#
# Static dielectric constant tensor:
#      x y z
#    x 1.714250 0.000000 0.000000 
#    y 0.000000 1.714250 0.000000 
#    z 0.000000 0.000000 1.806920 
# 
# From -- ./inp_files/4889.got.cif
#   From: 2010.05.17/outbox.cif.g08.bks.cpg/sg124_3_cif.got.tgz:4889.got - 2010.05.20 11:49:17.
