data_PCOD9562422
_publ_section_title
;
Structure prediction by ZEFSAII (Michael W. Deem and Ramdas Pophale) SiO2 
 PCOD9562422
Probable space group: P 4/M C C
;
_chemical_formula_sum "Si O2"
_cell_formula_units_Z 96
_cell_length_a 17.173063
_cell_length_b 17.173063
_cell_length_c 19.080081
_cell_angle_alpha 90.000000
_cell_angle_beta 90.000000
_cell_angle_gamma 90.000000
_cell_volume 5626.984779
_symmetry_space_group_name_H-M "P 4/M C C"
_symmetry_group_IT_number 124
_symmetry_cell_setting 'tetragonal'
loop_
_space_group_symop_operation_xyz
x,y,z
-y,x,z
-x,-y,z
y,-x,z
x,-y,1/2-z
-x,y,1/2-z
y,x,1/2-z
-y,-x,1/2-z
-x,-y,-z
y,-x,-z
x,y,-z
-y,x,-z
-x,y,1/2+z
x,-y,1/2+z
-y,-x,1/2+z
y,x,1/2+z
loop_
_atom_site_type_symbol
_atom_site_label
_atom_site_fract_x
_atom_site_fract_y
_atom_site_fract_z
Si Si1 0.484504 0.092590 0.331511
Si Si2 0.865665 0.674654 0.915023
Si Si3 0.760838 0.733649 0.322990
Si Si4 0.076827 0.184957 0.712227
Si Si5 0.156367 0.626313 0.080584
Si Si6 0.235888 0.027273 0.923705
O O1 0.500000 0.117074 0.250000
O O2 0.402188 0.114250 0.368424
O O3 0.549360 0.128522 0.381617
O O4 0.500000 0.000000 0.332581
O O5 0.799126 0.721131 0.871977
O O6 0.941927 0.729113 0.913589
O O7 0.849867 0.660443 0.000000
O O8 0.717445 0.717445 0.250000
O O9 0.847735 0.759030 0.294838
O O10 0.774421 0.661807 0.373786
O O11 0.108725 0.108725 0.750000
O O12 0.000000 0.218806 0.750000
O O13 0.049757 0.173359 0.633577
O O14 0.086642 0.690630 0.081417
O O15 0.176986 0.613414 0.000000
O O16 0.201926 0.035568 0.000000
#
# Coordination Sequence:
#
# PCOD9562422 Si02
#       6
#    16  16  16  16  16  16
#     4  11  22  34  52  81 111 144 178 228 283 341
#     4  11  21  35  55  79 107 144 187 226 279 351
#     4  10  20  34  52  75 103 139 178 229 275 334
#     4  10  20  34  50  70  93 128 175 229 281 333
#     4  10  19  33  50  72 104 139 175 218 272 325
#     4   9  18  31  50  72  98 130 169 220 274 329
#
# _framework density 17.060648
#
# number of rings (size 3 to 8) (size 9 to 14) (size 15 to 20)
#    0.000    1.833    1.667    4.000    0.000    2.833 
#    0.000    0.833    0.000    0.000    0.000    3.500 
#    0.000    0.667    0.000    6.667    0.000    4.000 
#
# Total GULP energy -534483.308255 kJ/mol
# GULP energy per Si atom -5567.534461 kJ/mol
# Density = 1.702182 g / cm^3
# Si number density = 17.060648 Si / 1000 Ang^3
#
#
#
# Elastic Constant Matrix: (Units=GPa)
#
#
# Indices 1 2 3 4 5 6 
#
# 1 39.0582 19.9394 41.4134 0.0000 0.0000 0.0000
# 2 19.9394 39.0582 41.4134 0.0000 0.0000 0.0000
# 3 41.4134 41.4134 169.4423 0.0000 0.0000 0.0000
# 4 0.0000 0.0000 0.0000 26.8471 0.0000 0.0000
# 5 0.0000 0.0000 0.0000 0.0000 26.8471 0.0000
# 6 0.0000 0.0000 0.0000 0.0000 0.0000 15.5125
#
#
#
# Elastic Compliance Matrix: (Units=1/GPa)
#
#
# Indices 1 2 3 4 5 6 
#
# 1 0.039054 -0.013250 -0.006307 0.000000 0.000000 0.000000
# 2 -0.013250 0.039054 -0.006307 0.000000 0.000000 0.000000
# 3 -0.006307 -0.006307 0.008985 0.000000 0.000000 0.000000
# 4 0.000000 0.000000 0.000000 0.037248 0.000000 0.000000
# 5 0.000000 0.000000 0.000000 0.000000 0.037248 0.000000
# 6 0.000000 0.000000 0.000000 0.000000 0.000000 0.064464
#
#
# Mechanical properties :
#
#
# Convention : Reuss Voigt Hill
#
# Bulk Modulus (GPa) = 28.27624 50.34347 39.30986
# Shear Modulus (GPa) = 17.26703 23.49419 20.38061
#
# Velocity S-wave (km/s) = 3.18480 3.71495 3.46004
# Velocity P-wave (km/s) = 5.48943 6.92631 6.24930
#
# Compressibility (1/GPa) = 0.03536538
#
# Stress axis : x y z
#
# Youngs Moduli (GPa) = 25.60542 25.60542 111.30197
#
# Poissons Ratio (x) = 0.33928 0.70195
# Poissons Ratio (y) = 0.33928 0.70195
# Poissons Ratio (z) = 0.16149 0.16149
#
# Static dielectric constant tensor:
#      x y z
#    x 1.605080 0.000000 0.000000 
#    y 0.000000 1.605080 0.000000 
#    z 0.000000 0.000000 1.650490 
# 
# From -- ./inp_files/5271.got.cif
#   From: 2010.05.17/outbox.cif.g08.bks.cpg/sg124_3_cif.got.tgz:5271.got - 2010.05.20 11:49:17.
