data_PCOD9562367
_publ_section_title
;
Structure prediction by ZEFSAII (Michael W. Deem and Ramdas Pophale) SiO2 
 PCOD9562367
Probable space group: P 4/M C C
;
_chemical_formula_sum "Si O2"
_cell_formula_units_Z 80
_cell_length_a 24.090843
_cell_length_b 24.090843
_cell_length_c 10.547551
_cell_angle_alpha 90.000000
_cell_angle_beta 90.000000
_cell_angle_gamma 90.000000
_cell_volume 6121.468636
_symmetry_space_group_name_H-M "P 4/M C C"
_symmetry_group_IT_number 124
_symmetry_cell_setting 'tetragonal'
loop_
_space_group_symop_operation_xyz
x,y,z
-y,x,z
-x,-y,z
y,-x,z
x,-y,1/2-z
-x,y,1/2-z
y,x,1/2-z
-y,-x,1/2-z
-x,-y,-z
y,-x,-z
x,y,-z
-y,x,-z
-x,y,1/2+z
x,-y,1/2+z
-y,-x,1/2+z
y,x,1/2+z
loop_
_atom_site_type_symbol
_atom_site_label
_atom_site_fract_x
_atom_site_fract_y
_atom_site_fract_z
Si Si1 0.326597 0.767300 0.500000
Si Si2 0.767300 0.673403 0.000000
Si Si3 0.391044 0.874638 0.500000
Si Si4 0.500000 0.799385 0.500000
Si Si5 0.500000 0.726091 0.750000
Si Si6 0.566404 0.066594 0.250000
Si Si7 0.608956 0.125362 0.000000
Si Si8 0.287535 0.622492 0.250000
O O1 0.266466 0.733534 0.500000
O O2 0.336600 0.834357 0.500000
O O3 0.358608 0.746376 0.374369
O O4 0.746375 0.641392 0.874368
O O5 0.834357 0.663400 0.000000
O O6 0.444405 0.834694 0.500000
O O7 0.401378 0.910695 0.373544
O O8 0.500000 0.763476 0.625694
O O9 0.555595 0.834694 0.500000
O O10 0.558545 0.696520 0.750001
O O11 0.500000 0.083896 0.250000
O O12 0.598622 0.089305 0.126456
O O13 0.566230 0.000000 0.250000
O O14 0.342662 0.657339 0.250000
#
# Coordination Sequence:
#
# PCOD9562367 Si02
#       8
#     8   8   8   8   8  16   8  16
#     4  10  20  31  44  64  84 102 129 167 212 253
#     4  10  20  31  44  64  84 102 129 167 212 253
#     4  12  19  31  46  61  84 110 135 170 209 246
#     4  12  20  26  45  68  76 105 140 162 196 256
#     4  12  18  30  42  59  81  98 132 160 196 256
#     4  11  22  32  43  62  86 112 143 173 202 241
#     4  12  19  31  46  61  84 110 135 170 209 246
#     4  10  19  29  41  59  81  99 122 162 204 247
#
# _framework density 13.068758000000001
#
# number of rings (size 3 to 8) (size 9 to 14) (size 15 to 20)
#    0.000    1.000    6.000    3.000    0.000    1.600 
#    0.000    0.000    0.000    0.300    0.000    0.000 
#    0.000    6.400    0.000    0.000    0.000    1.000 
#
# Total GULP energy -445555.568474 kJ/mol
# GULP energy per Si atom -5569.444606 kJ/mol
# Density = 1.303901 g / cm^3
# Si number density = 13.068758 Si / 1000 Ang^3
#
#
#
# Elastic Constant Matrix: (Units=GPa)
#
#
# Indices 1 2 3 4 5 6 
#
# 1 64.4245 25.0955 29.8184 0.0000 0.0000 0.0000
# 2 25.0955 64.4228 29.8183 0.0000 0.0000 0.0000
# 3 29.8184 29.8183 126.0681 0.0000 0.0000 0.0000
# 4 0.0000 0.0000 0.0000 15.3946 0.0000 0.0000
# 5 0.0000 0.0000 0.0000 0.0000 15.4031 0.0000
# 6 0.0000 0.0000 0.0000 0.0000 0.0000 14.4431
#
#
#
# Elastic Compliance Matrix: (Units=1/GPa)
#
#
# Indices 1 2 3 4 5 6 
#
# 1 0.019343 -0.006083 -0.003136 0.000000 0.000000 0.000000
# 2 -0.006083 0.019344 -0.003136 0.000000 0.000000 0.000000
# 3 -0.003136 -0.003136 0.009416 0.000000 0.000000 0.000000
# 4 0.000000 0.000000 0.000000 0.064958 0.000000 0.000000
# 5 0.000000 0.000000 0.000000 0.000000 0.064922 0.000000
# 6 0.000000 0.000000 0.000000 0.000000 0.000000 0.069237
#
#
# Mechanical properties :
#
#
# Convention : Reuss Voigt Hill
#
# Bulk Modulus (GPa) = 42.75189 47.15334 44.95262
# Shear Modulus (GPa) = 17.87442 20.39372 19.13407
#
# Velocity S-wave (km/s) = 3.70228 3.95459 3.83052
# Velocity P-wave (km/s) = 7.14562 7.55057 7.35088
#
# Compressibility (1/GPa) = 0.02339078
#
# Stress axis : x y z
#
# Youngs Moduli (GPa) = 51.69731 51.69577 106.20343
#
# Poissons Ratio (x) = 0.31449 0.33309
# Poissons Ratio (y) = 0.31450 0.33310
# Poissons Ratio (z) = 0.16214 0.16214
#
# Static dielectric constant tensor:
#      x y z
#    x 1.437990 0.000000 0.000000 
#    y 0.000000 1.437980 0.000000 
#    z 0.000000 0.000000 1.484000 
# 
# From -- ./inp_files/1303.got.cif
#   From: 2010.05.17/outbox.cif.g08.bks.cpg/sg124_1_cif.got.tgz:1303.got - 2010.05.20 11:49:17.
