data_PCOD9562866
_publ_section_title
;
Structure prediction by ZEFSAII (Michael W. Deem and Ramdas Pophale) SiO2 
 PCOD9562866
Probable space group: P 4/M C C
;
_chemical_formula_sum "Si O2"
_cell_formula_units_Z 96
_cell_length_a 15.000000
_cell_length_b 15.000000
_cell_length_c 21.000000
_cell_angle_alpha 90.000000
_cell_angle_beta 90.000000
_cell_angle_gamma 90.000000
_cell_volume 4725.000000
_symmetry_space_group_name_H-M "P 4/M C C"
_symmetry_group_IT_number 124
_symmetry_cell_setting 'tetragonal'
loop_
_space_group_symop_operation_xyz
x,y,z
-y,x,z
-x,-y,z
y,-x,z
x,-y,1/2-z
-x,y,1/2-z
y,x,1/2-z
-y,-x,1/2-z
-x,-y,-z
y,-x,-z
x,y,-z
-y,x,-z
-x,y,1/2+z
x,-y,1/2+z
-y,-x,1/2+z
y,x,1/2+z
loop_
_atom_site_type_symbol
_atom_site_label
_atom_site_fract_x
_atom_site_fract_y
_atom_site_fract_z
Si Si1 0.394483 0.394483 0.750000
Si Si2 0.800758 0.815205 0.321737
Si Si3 0.852555 0.982899 0.500000
Si Si4 0.532065 0.755672 0.072566
Si Si5 0.693242 0.343038 0.621289
Si Si6 0.053439 0.409302 0.426657
Si Si7 0.002135 0.239067 0.634693
O O1 0.500000 0.379399 0.750000
O O2 0.349118 0.355075 0.688531
O O3 0.783290 0.783290 0.250000
O O4 0.730937 0.770140 0.370918
O O5 0.901013 0.792818 0.343133
O O6 0.788583 0.921448 0.320846
O O7 0.799923 0.979204 0.565342
O O8 0.904776 0.075760 0.500000
O O9 0.613045 0.685967 0.075060
O O10 0.441390 0.727659 0.105997
O O11 0.572425 0.847429 0.098211
O O12 0.506546 0.774316 0.000000
O O13 0.059657 0.373321 0.500000
O O14 0.006218 0.343659 0.378234
O O15 0.000000 0.500000 0.430207
#
# Coordination Sequence:
#
# PCOD9562866 Si02
#       7
#     8  16   8  16  16  16  16
#     4  11  22  40  68  90 120 171 228 272 320 387
#     4  12  27  44  67  95 134 179 226 276 327 394
#     4  11  22  40  65  98 128 162 210 275 335 398
#     4  11  24  41  64 100 136 171 216 275 347 401
#     4  12  23  43  67  94 132 176 223 273 331 401
#     4  10  21  39  63  94 132 169 210 262 327 399
#     4  12  23  43  68  96 133 170 221 273 336 394
#
# _framework density 20.317460000000001
#
# number of rings (size 3 to 8) (size 9 to 14) (size 15 to 20)
#    0.000    0.667    6.667    2.000    0.000    0.667 
#    4.500    1.667    0.000    1.000    0.000    0.000 
#    0.000    0.000    0.000    0.000    0.000    0.000 
#
# Total GULP energy -535807.362239 kJ/mol
# GULP energy per Si atom -5581.326690 kJ/mol
# Density = 2.027122 g / cm^3
# Si number density = 20.317460 Si / 1000 Ang^3
#
#
#
# Elastic Constant Matrix: (Units=GPa)
#
#
# Indices 1 2 3 4 5 6 
#
# 1 75.3956 26.0314 6.7353 0.0000 0.0000 0.0000
# 2 26.0314 75.3956 6.7353 0.0000 0.0000 0.0000
# 3 6.7353 6.7353 49.3181 0.0000 0.0000 0.0000
# 4 0.0000 0.0000 0.0000 39.1828 0.0000 0.0000
# 5 0.0000 0.0000 0.0000 0.0000 39.1828 0.0000
# 6 0.0000 0.0000 0.0000 0.0000 0.0000 -6.6622
#
#
#
# Elastic Compliance Matrix: (Units=1/GPa)
#
#
# Indices 1 2 3 4 5 6 
#
# 1 0.015150 -0.005108 -0.001371 0.000000 0.000000 0.000000
# 2 -0.005108 0.015150 -0.001371 0.000000 0.000000 0.000000
# 3 -0.001371 -0.001371 0.020651 0.000000 0.000000 0.000000
# 4 0.000000 0.000000 0.000000 0.025521 0.000000 0.000000
# 5 0.000000 0.000000 0.000000 0.000000 0.025521 0.000000
# 6 0.000000 0.000000 0.000000 0.000000 0.000000 -0.150100
#
#
# Mechanical properties :
#
#
# Convention : Reuss Voigt Hill
#
# Bulk Modulus (GPa) = 28.36992 31.01258 29.69125
# Shear Modulus (GPa) = -242.06530 25.04782 -108.50874
#
# Velocity S-wave (km/s) = -10.92704 3.51497 -7.31591
# Velocity P-wave (km/s) = 12.05017 5.63653 7.53114
#
# Compressibility (1/GPa) = 0.03524860
#
# Stress axis : x y z
#
# Youngs Moduli (GPa) = 66.00878 66.00878 48.42362
#
# Poissons Ratio (x) = 0.33718 0.06640
# Poissons Ratio (y) = 0.33718 0.06640
# Poissons Ratio (z) = 0.09052 0.09052
#
# Static dielectric constant tensor:
#      x y z
#    x 1.751180 0.000000 0.000000 
#    y 0.000000 1.751180 0.000000 
#    z 0.000000 0.000000 1.758200 
# 
# From -- ./inp_files/5369.got.cif
#   From: 2010.05.17/outbox.ucp.g08.bks.cvg/sg124_3_cif.got.tgz:5369.got - 2010.06.11 11:36:13.
