data_PCOD9562353
_publ_section_title
;
Structure prediction by ZEFSAII (Michael W. Deem and Ramdas Pophale) SiO2 
 PCOD9562353
Probable space group: P 4/M C C
;
_chemical_formula_sum "Si O2"
_cell_formula_units_Z 128
_cell_length_a 20.777250
_cell_length_b 20.777250
_cell_length_c 17.772373
_cell_angle_alpha 90.000000
_cell_angle_beta 90.000000
_cell_angle_gamma 90.000000
_cell_volume 7672.228879
_symmetry_space_group_name_H-M "P 4/M C C"
_symmetry_group_IT_number 124
_symmetry_cell_setting 'tetragonal'
loop_
_space_group_symop_operation_xyz
x,y,z
-y,x,z
-x,-y,z
y,-x,z
x,-y,1/2-z
-x,y,1/2-z
y,x,1/2-z
-y,-x,1/2-z
-x,-y,-z
y,-x,-z
x,y,-z
-y,x,-z
-x,y,1/2+z
x,-y,1/2+z
-y,-x,1/2+z
y,x,1/2+z
loop_
_atom_site_type_symbol
_atom_site_label
_atom_site_fract_x
_atom_site_fract_y
_atom_site_fract_z
Si Si1 0.777470 0.269386 0.331633
Si Si2 0.386075 0.858595 0.198103
Si Si3 0.734320 0.532040 0.178251
Si Si4 0.590562 0.241761 0.589194
Si Si5 0.156724 0.280528 0.409935
Si Si6 0.951769 0.335545 0.815560
Si Si7 0.640548 0.326247 0.089436
Si Si8 0.567525 0.964488 0.589579
O O1 0.745826 0.254175 0.250000
O O2 0.841797 0.311099 0.319618
O O3 0.775341 0.202694 0.377188
O O4 0.733088 0.316090 0.381776
O O5 0.421046 0.790635 0.209011
O O6 0.384017 0.904432 0.270295
O O7 0.421865 0.896950 0.131898
O O8 0.702027 0.500000 0.250000
O O9 0.768752 0.476264 0.130420
O O10 0.684525 0.573025 0.129558
O O11 0.580598 0.237826 0.500000
O O12 0.651414 0.195044 0.605013
O O13 0.613103 0.314596 0.608686
O O14 0.147753 0.275596 0.500000
O O15 0.092144 0.285699 0.361128
O O16 0.000000 0.310825 0.750000
O O17 0.991445 0.376050 0.876441
O O18 0.633448 0.323721 0.000000
O O19 0.572160 0.957192 0.500000
O O20 0.500000 0.000000 0.606643
#
# Coordination Sequence:
#
# PCOD9562353 Si02
#       8
#    16  16  16  16  16  16  16  16
#     4  10  18  32  54  76  99 126 163 217 276 320
#     4  10  22  34  51  73 102 132 170 219 271 311
#     4  11  22  30  50  75  93 119 155 202 260 310
#     4   9  19  33  50  69  92 121 155 198 255 316
#     4  10  19  32  53  75  97 128 169 216 263 316
#     4  10  20  35  49  67  97 135 174 212 254 308
#     4   9  20  35  48  67  97 122 147 194 257 317
#     4  10  23  37  49  67  99 144 185 221 258 308
#
# _framework density 16.683547999999998
#
# number of rings (size 3 to 8) (size 9 to 14) (size 15 to 20)
#    0.000    2.125    1.250    2.625    8.750    4.750 
#    0.000    0.000    0.000    0.375    0.000    2.625 
#    0.000    0.000    0.000    0.000    0.000   60.625 
#
# Total GULP energy -713245.818707 kJ/mol
# GULP energy per Si atom -5572.232959 kJ/mol
# Density = 1.664558 g / cm^3
# Si number density = 16.683548 Si / 1000 Ang^3
#
#
#
# Elastic Constant Matrix: (Units=GPa)
#
#
# Indices 1 2 3 4 5 6 
#
# 1 46.1723 16.8625 29.1204 0.0000 0.0000 0.0000
# 2 16.8625 46.1722 29.1204 0.0000 0.0000 0.0000
# 3 29.1204 29.1204 77.1804 0.0000 0.0000 0.0000
# 4 0.0000 0.0000 0.0000 19.0381 0.0000 0.0000
# 5 0.0000 0.0000 0.0000 0.0000 19.0375 0.0000
# 6 0.0000 0.0000 0.0000 0.0000 0.0000 23.3532
#
#
#
# Elastic Compliance Matrix: (Units=1/GPa)
#
#
# Indices 1 2 3 4 5 6 
#
# 1 0.029236 -0.004882 -0.009189 0.000000 0.000000 0.000000
# 2 -0.004882 0.029236 -0.009189 0.000000 0.000000 0.000000
# 3 -0.009189 -0.009189 0.019891 0.000000 0.000000 0.000000
# 4 0.000000 0.000000 0.000000 0.052526 0.000000 0.000000
# 5 0.000000 0.000000 0.000000 0.000000 0.052528 0.000000
# 6 0.000000 0.000000 0.000000 0.000000 0.000000 0.042821
#
#
# Mechanical properties :
#
#
# Convention : Reuss Voigt Hill
#
# Bulk Modulus (GPa) = 31.40352 35.52573 33.46463
# Shear Modulus (GPa) = 17.64460 18.58053 18.11256
#
# Velocity S-wave (km/s) = 3.25561 3.34084 3.29850
# Velocity P-wave (km/s) = 5.74421 6.01845 5.88293
#
# Compressibility (1/GPa) = 0.03184356
#
# Stress axis : x y z
#
# Youngs Moduli (GPa) = 34.20402 34.20391 50.27468
#
# Poissons Ratio (x) = 0.16698 0.46197
# Poissons Ratio (y) = 0.16698 0.46198
# Poissons Ratio (z) = 0.31430 0.31430
#
# Static dielectric constant tensor:
#      x y z
#    x 1.592840 0.000000 0.000000 
#    y 0.000000 1.592840 0.000000 
#    z 0.000000 0.000000 1.583430 
# 
# From -- ./inp_files/4566.got.cif
#   From: 2010.05.17/outbox.cif.g08.bks.cpg/sg124_3_cif.got.tgz:4566.got - 2010.05.20 11:49:17.
