data_PCOD9562592
_publ_section_title
;
Structure prediction by ZEFSAII (Michael W. Deem and Ramdas Pophale) SiO2 
 PCOD9562592
Probable space group: P 4/M C C
;
_chemical_formula_sum "Si O2"
_cell_formula_units_Z 88
_cell_length_a 12.965221
_cell_length_b 12.965221
_cell_length_c 29.634582
_cell_angle_alpha 90.000000
_cell_angle_beta 90.000000
_cell_angle_gamma 90.000000
_cell_volume 4981.483014
_symmetry_space_group_name_H-M "P 4/M C C"
_symmetry_group_IT_number 124
_symmetry_cell_setting 'tetragonal'
loop_
_space_group_symop_operation_xyz
x,y,z
-y,x,z
-x,-y,z
y,-x,z
x,-y,1/2-z
-x,y,1/2-z
y,x,1/2-z
-y,-x,1/2-z
-x,-y,-z
y,-x,-z
x,y,-z
-y,x,-z
-x,y,1/2+z
x,-y,1/2+z
-y,-x,1/2+z
y,x,1/2+z
loop_
_atom_site_type_symbol
_atom_site_label
_atom_site_fract_x
_atom_site_fract_y
_atom_site_fract_z
Si Si1 0.249851 0.750150 0.750000
Si Si2 0.596449 0.137437 0.810516
Si Si3 0.117798 0.711472 0.000000
Si Si4 0.789412 0.611757 0.910633
Si Si5 0.625673 0.794463 0.090645
Si Si6 0.643008 0.098377 0.313411
Si Si7 0.881142 0.294822 0.500000
O O1 0.347332 0.771908 0.782775
O O2 0.268341 0.843723 0.714863
O O3 0.618341 0.150781 0.863519
O O4 0.473785 0.136027 0.801457
O O5 0.641014 0.022794 0.802079
O O6 0.143566 0.648457 0.045057
O O7 0.194894 0.808150 0.000000
O O8 0.998730 0.738888 0.000000
O O9 0.758137 0.492375 0.911474
O O10 0.697706 0.694129 0.908316
O O11 0.854581 0.640217 0.955057
O O12 0.649190 0.867041 0.134051
#
# Coordination Sequence:
#
# PCOD9562592 Si02
#       7
#     8  16   8  16  16  16   8
#     4  12  20  34  56  80 108 138 188 238 272 328
#     4  10  21  37  58  82 109 144 184 228 277 327
#     4  10  21  36  58  86 114 146 183 226 270 320
#     4  10  20  36  57  85 116 146 180 221 269 326
#     4  10  20  36  57  85 116 146 180 221 269 326
#     4  10  21  37  58  82 109 144 184 228 277 327
#     4  10  21  36  58  86 114 146 183 226 270 320
#
# _framework density 17.665422
#
# number of rings (size 3 to 8) (size 9 to 14) (size 15 to 20)
#    0.000    1.818    1.818    2.727    0.000    4.909 
#    0.000    0.000    0.000   12.000    0.000    0.000 
#    0.000    0.000    0.000    0.000    0.000    0.000 
#
# Total GULP energy -490239.488999 kJ/mol
# GULP energy per Si atom -5570.903284 kJ/mol
# Density = 1.762521 g / cm^3
# Si number density = 17.665422 Si / 1000 Ang^3
#
#
#
# Elastic Constant Matrix: (Units=GPa)
#
#
# Indices 1 2 3 4 5 6 
#
# 1 80.1561 31.2420 32.0826 0.0000 0.0000 0.0000
# 2 31.2420 80.1561 32.0826 0.0000 0.0000 0.0000
# 3 32.0826 32.0826 135.7858 0.0000 0.0000 0.0000
# 4 0.0000 0.0000 0.0000 17.1198 0.0000 0.0000
# 5 0.0000 0.0000 0.0000 0.0000 17.1198 0.0000
# 6 0.0000 0.0000 0.0000 0.0000 0.0000 17.7730
#
#
#
# Elastic Compliance Matrix: (Units=1/GPa)
#
#
# Indices 1 2 3 4 5 6 
#
# 1 0.015417 -0.005027 -0.002455 0.000000 0.000000 0.000000
# 2 -0.005027 0.015417 -0.002455 0.000000 0.000000 0.000000
# 3 -0.002455 -0.002455 0.008525 0.000000 0.000000 0.000000
# 4 0.000000 0.000000 0.000000 0.058412 0.000000 0.000000
# 5 0.000000 0.000000 0.000000 0.000000 0.058412 0.000000
# 6 0.000000 0.000000 0.000000 0.000000 0.000000 0.056265
#
#
# Mechanical properties :
#
#
# Convention : Reuss Voigt Hill
#
# Bulk Modulus (GPa) = 51.31843 54.10136 52.70990
# Shear Modulus (GPa) = 20.93648 23.78189 22.35918
#
# Velocity S-wave (km/s) = 3.44636 3.67309 3.56153
# Velocity P-wave (km/s) = 6.70446 6.97717 6.84217
#
# Compressibility (1/GPa) = 0.01948618
#
# Stress axis : x y z
#
# Youngs Moduli (GPa) = 64.86145 64.86142 117.30622
#
# Poissons Ratio (x) = 0.32603 0.28800
# Poissons Ratio (y) = 0.32603 0.28800
# Poissons Ratio (z) = 0.15924 0.15924
#
# Static dielectric constant tensor:
#      x y z
#    x 1.574660 0.000000 0.000000 
#    y 0.000000 1.574660 0.000000 
#    z 0.000000 0.000000 1.662770 
# 
# From -- ./inp_files/7120.got.cif
#   From: 2010.05.17/outbox.cif.g08.bks.cpg/sg124_4_cif.got.tgz:7120.got - 2010.05.20 11:49:17.
