data_PCOD9562801
_publ_section_title
;
Structure prediction by ZEFSAII (Michael W. Deem and Ramdas Pophale) SiO2 
 PCOD9562801
Probable space group: P 4/M C C
;
_chemical_formula_sum "Si O2"
_cell_formula_units_Z 48
_cell_length_a 8.413046
_cell_length_b 8.413046
_cell_length_c 30.070014
_cell_angle_alpha 90.000000
_cell_angle_beta 90.000000
_cell_angle_gamma 90.000000
_cell_volume 2128.335835
_symmetry_space_group_name_H-M "P 4/M C C"
_symmetry_group_IT_number 124
_symmetry_cell_setting 'tetragonal'
loop_
_space_group_symop_operation_xyz
x,y,z
-y,x,z
-x,-y,z
y,-x,z
x,-y,1/2-z
-x,y,1/2-z
y,x,1/2-z
-y,-x,1/2-z
-x,-y,-z
y,-x,-z
x,y,-z
-y,x,-z
-x,y,1/2+z
x,-y,1/2+z
-y,-x,1/2+z
y,x,1/2+z
loop_
_atom_site_type_symbol
_atom_site_label
_atom_site_fract_x
_atom_site_fract_y
_atom_site_fract_z
Si Si1 0.911727 0.252289 0.948549
Si Si2 0.040186 0.737926 0.801208
Si Si3 0.430886 0.241595 0.129860
O O1 0.854105 0.384380 0.914465
O O2 0.092839 0.194355 0.941617
O O3 0.894585 0.301232 0.000000
O O4 0.124485 0.600410 0.828983
O O5 0.876765 0.829467 0.811348
O O6 0.000000 0.695557 0.750000
O O7 0.606138 0.313832 0.130815
#
# Coordination Sequence:
#
# PCOD9562801 Si02
#       3
#    16  16  16
#     4   9  19  37  62  92 124 161 210 262 304 351
#     4   9  19  39  63  87 111 143 197 257 306 358
#     4  11  24  39  57  88 130 169 203 245 303 370
#
# _framework density 22.552831999999999
#
# number of rings (size 3 to 8) (size 9 to 14) (size 15 to 20)
#    0.000    2.333    0.000    4.000    0.000    9.333 
#    0.000   21.667    0.000    8.000    0.000    0.000 
#    0.000    0.000    0.000    0.000    0.000    0.000 
#
# Total GULP energy -267976.147161 kJ/mol
# GULP energy per Si atom -5582.836399 kJ/mol
# Density = 2.250150 g / cm^3
# Si number density = 22.552832 Si / 1000 Ang^3
#
#
#
# Elastic Constant Matrix: (Units=GPa)
#
#
# Indices 1 2 3 4 5 6 
#
# 1 78.1953 90.6045 66.8784 0.0000 0.0000 0.0000
# 2 90.6045 78.1953 66.8784 0.0000 0.0000 0.0000
# 3 66.8784 66.8784 105.0780 0.0000 0.0000 0.0000
# 4 0.0000 0.0000 0.0000 217.2334 0.0000 0.0000
# 5 0.0000 0.0000 0.0000 0.0000 217.2334 0.0000
# 6 0.0000 0.0000 0.0000 0.0000 0.0000 70.6091
#
#
#
# Elastic Compliance Matrix: (Units=1/GPa)
#
#
# Indices 1 2 3 4 5 6 
#
# 1 -0.034317 0.046269 -0.007607 0.000000 0.000000 0.000000
# 2 0.046269 -0.034317 -0.007607 0.000000 0.000000 0.000000
# 3 -0.007607 -0.007607 0.019200 0.000000 0.000000 0.000000
# 4 0.000000 0.000000 0.000000 0.004603 0.000000 0.000000
# 5 0.000000 0.000000 0.000000 0.000000 0.004603 0.000000
# 6 0.000000 0.000000 0.000000 0.000000 0.000000 0.014162
#
#
# Mechanical properties :
#
#
# Convention : Reuss Voigt Hill
#
# Bulk Modulus (GPa) = 78.89027 78.91014 78.90021
# Shear Modulus (GPa) = -59.56072 103.48900 21.96414
#
# Velocity S-wave (km/s) = -5.14458 6.78137 3.12412
# Velocity P-wave (km/s) = 0.48255 9.81738 6.93354
#
# Compressibility (1/GPa) = 0.01267583
#
# Stress axis : x y z
#
# Youngs Moduli (GPa) = -29.14043 -29.14043 52.08361
#
# Poissons Ratio (x) = 1.34828 0.39620
# Poissons Ratio (y) = 1.34828 0.39620
# Poissons Ratio (z) = -0.22167 -0.22167
#
# Static dielectric constant tensor:
#      x y z
#    x 1.890580 0.000000 0.000000 
#    y 0.000000 1.890580 0.000000 
#    z 0.000000 0.000000 1.835280 
# 
# From -- ./inp_files/6702.got.cif
#   From: 2010.05.17/outbox.cif.g08.bks.cpg/sg124_4_cif.got.tgz:6702.got - 2010.05.20 11:49:17.
