data_PCOD9562053
_publ_section_title
;
Structure prediction by ZEFSAII (Michael W. Deem and Ramdas Pophale) SiO2 
 PCOD9562053
Probable space group: P 4/M M M
;
_chemical_formula_sum "Si O2"
_cell_formula_units_Z 88
_cell_length_a 13.733468
_cell_length_b 13.733468
_cell_length_c 28.881426
_cell_angle_alpha 90.000000
_cell_angle_beta 90.000000
_cell_angle_gamma 90.000000
_cell_volume 5447.272134
_symmetry_space_group_name_H-M "P 4/M M M"
_symmetry_group_IT_number 123
_symmetry_cell_setting 'tetragonal'
loop_
_space_group_symop_operation_xyz
x,y,z
-y,x,z
-x,-y,z
y,-x,z
x,-y,-z
-x,y,-z
y,x,-z
-y,-x,-z
-x,-y,-z
y,-x,-z
x,y,-z
-y,x,-z
-x,y,z
x,-y,z
-y,-x,z
y,x,z
loop_
_atom_site_type_symbol
_atom_site_label
_atom_site_fract_x
_atom_site_fract_y
_atom_site_fract_z
Si Si1 0.227027 0.613532 0.445160
Si Si2 0.890040 0.382042 0.806675
Si Si3 0.774424 0.383633 0.714028
Si Si4 0.224876 0.386282 0.000000
Si Si5 0.885192 0.276735 0.367934
Si Si6 0.777596 0.616060 0.101345
O O1 0.206504 0.620679 0.500000
O O2 0.236103 0.500000 0.433015
O O3 0.326667 0.673334 0.436170
O O4 0.145579 0.665943 0.414463
O O5 0.894300 0.500000 0.806971
O O6 0.821578 0.356727 0.763582
O O7 0.845403 0.353345 0.856068
O O8 0.000000 0.345519 0.800416
O O9 0.765111 0.500000 0.710889
O O10 0.672402 0.327599 0.708871
O O11 0.845286 0.342568 0.674276
O O12 0.176600 0.367169 0.050033
O O13 0.249901 0.500000 0.000000
O O14 0.321296 0.321296 0.000000
O O15 0.823089 0.176912 0.366907
O O16 0.000000 0.261868 0.365009
O O17 0.758693 0.500000 0.105672
O O18 0.679007 0.679007 0.103817
#
# Coordination Sequence:
#
# PCOD9562053 Si02
#       6
#    16  16  16   8  16  16
#     4   9  18  32  50  74 103 133 165 200 239 287
#     4   9  17  29  44  61  83 114 151 187 221 260
#     4  10  20  33  50  73  99 126 156 189 228 278
#     4   8  14  23  35  53  79 111 144 178 217 263
#     4  10  21  36  53  73  97 126 163 206 247 286
#     4   9  16  26  40  59  84 113 145 181 222 270
#
# _framework density 16.154874
#
# number of rings (size 3 to 8) (size 9 to 14) (size 15 to 20)
#    0.000    2.727    0.000    1.636    0.000    3.364 
#    0.000    4.091    0.000    9.273    0.000    2.545 
#    0.000    3.273    0.000    0.000    0.000   20.364 
#
# Total GULP energy -489978.909628 kJ/mol
# GULP energy per Si atom -5567.942155 kJ/mol
# Density = 1.611810 g / cm^3
# Si number density = 16.154874 Si / 1000 Ang^3
#
#
#
# Elastic Constant Matrix: (Units=GPa)
#
#
# Indices 1 2 3 4 5 6 
#
# 1 22.7622 121.3119 47.9428 0.0000 0.0000 0.0000
# 2 121.3119 22.7622 47.9428 0.0000 0.0000 0.0000
# 3 47.9428 47.9428 85.1544 0.0000 0.0000 0.0000
# 4 0.0000 0.0000 0.0000 16.2513 0.0000 0.0000
# 5 0.0000 0.0000 0.0000 0.0000 16.2513 0.0000
# 6 0.0000 0.0000 0.0000 0.0000 0.0000 4.5969
#
#
#
# Elastic Compliance Matrix: (Units=1/GPa)
#
#
# Indices 1 2 3 4 5 6 
#
# 1 0.000476 0.010624 -0.006249 0.000000 0.000000 0.000000
# 2 0.010624 0.000476 -0.006249 0.000000 0.000000 0.000000
# 3 -0.006249 -0.006249 0.018780 0.000000 0.000000 0.000000
# 4 0.000000 0.000000 0.000000 0.061533 0.000000 0.000000
# 5 0.000000 0.000000 0.000000 0.000000 0.061533 0.000000
# 6 0.000000 0.000000 0.000000 0.000000 0.000000 0.217540
#
#
# Mechanical properties :
#
#
# Convention : Reuss Voigt Hill
#
# Bulk Modulus (GPa) = 62.56758 62.78596 62.67677
# Shear Modulus (GPa) = 13.53479 1.65200 7.59339
#
# Velocity S-wave (km/s) = 2.89764 1.01233 2.17039
# Velocity P-wave (km/s) = 7.07171 6.34947 6.72030
#
# Compressibility (1/GPa) = 0.01598272
#
# Stress axis : x y z
#
# Youngs Moduli (GPa) = 2098.87369 2098.87369 53.24708
#
# Poissons Ratio (x) = -22.29762 0.33276
# Poissons Ratio (y) = -22.29762 0.33276
# Poissons Ratio (z) = 13.11679 13.11679
#
# Static dielectric constant tensor:
#      x y z
#    x 1.516310 0.000000 0.000000 
#    y 0.000000 1.516310 0.000000 
#    z 0.000000 0.000000 1.584740 
# 
# From -- ./inp_files/8524.got.cif
#   From: 2010.05.17/outbox.cif.g08.bks.cpg/sg123_5_cif.got.tgz:8524.got - 2010.05.20 11:43:04.
