data_PCOD9562249
_publ_section_title
;
Structure prediction by ZEFSAII (Michael W. Deem and Ramdas Pophale) SiO2 
 PCOD9562249
Probable space group: P 4/M M M
;
_chemical_formula_sum "Si O2"
_cell_formula_units_Z 96
_cell_length_a 25.044971
_cell_length_b 25.044971
_cell_length_c 7.876293
_cell_angle_alpha 90.000000
_cell_angle_beta 90.000000
_cell_angle_gamma 90.000000
_cell_volume 4940.409293
_symmetry_space_group_name_H-M "P 4/M M M"
_symmetry_group_IT_number 123
_symmetry_cell_setting 'tetragonal'
loop_
_space_group_symop_operation_xyz
x,y,z
-y,x,z
-x,-y,z
y,-x,z
x,-y,-z
-x,y,-z
y,x,-z
-y,-x,-z
-x,-y,-z
y,-x,-z
x,y,-z
-y,x,-z
-x,y,z
x,-y,z
-y,-x,z
y,x,z
loop_
_atom_site_type_symbol
_atom_site_label
_atom_site_fract_x
_atom_site_fract_y
_atom_site_fract_z
Si Si1 0.355355 0.560324 0.292752
Si Si2 0.231630 0.147048 0.203456
Si Si3 0.649388 0.853932 0.199443
Si Si4 0.060288 0.560419 0.296626
Si Si5 0.732052 0.352852 0.294622
Si Si6 0.145151 0.060352 0.294542
O O1 0.354914 0.559260 0.500000
O O2 0.351189 0.500000 0.231663
O O3 0.409479 0.590522 0.241433
O O4 0.306558 0.598572 0.242395
O O5 0.198552 0.198552 0.270236
O O6 0.290924 0.138864 0.274202
O O7 0.194982 0.095958 0.238096
O O8 0.235802 0.154007 0.000000
O O9 0.604043 0.894539 0.260327
O O10 0.638227 0.791466 0.229913
O O11 0.652856 0.863673 0.000000
O O12 0.057239 0.557337 0.500000
O O13 0.072954 0.500000 0.234434
O O14 0.000000 0.574470 0.235217
O O15 0.733774 0.351796 0.500000
O O16 0.701907 0.298094 0.239361
O O17 0.145171 0.059414 0.500000
O O18 0.092322 0.092322 0.239391
O O19 0.147227 0.000000 0.232142
#
# Coordination Sequence:
#
# PCOD9562249 Si02
#       6
#    16  16  16  16  16  16
#     4   8  14  25  42  66  96 129 165 205 248 292
#     4   9  19  35  51  69  99 136 168 201 244 292
#     4  11  22  34  53  80 105 131 166 207 254 310
#     4   9  20  40  61  78 100 132 168 206 250 302
#     4   9  18  32  49  71 102 139 176 213 253 299
#     4   9  18  32  50  73 100 130 165 205 247 289
#
# _framework density 19.431588000000001
#
# number of rings (size 3 to 8) (size 9 to 14) (size 15 to 20)
#    0.000    2.833    0.000    2.500    0.000    5.000 
#    0.000    9.167    0.000    0.000    0.000    2.333 
#    0.000    0.000    0.000    3.667    0.000    3.667 
#
# Total GULP energy -535221.346934 kJ/mol
# GULP energy per Si atom -5575.222364 kJ/mol
# Density = 1.938736 g / cm^3
# Si number density = 19.431588 Si / 1000 Ang^3
#
#
#
# Elastic Constant Matrix: (Units=GPa)
#
#
# Indices 1 2 3 4 5 6 
#
# 1 178.4605 102.7014 6.1847 0.0000 0.0000 0.0000
# 2 102.7014 178.4605 6.1847 0.0000 0.0000 0.0000
# 3 6.1847 6.1847 18.9459 0.0000 0.0000 0.0000
# 4 0.0000 0.0000 0.0000 20.8258 0.0000 0.0000
# 5 0.0000 0.0000 0.0000 0.0000 20.8258 0.0000
# 6 0.0000 0.0000 0.0000 0.0000 0.0000 21.4929
#
#
#
# Elastic Compliance Matrix: (Units=1/GPa)
#
#
# Indices 1 2 3 4 5 6 
#
# 1 0.008404 -0.004796 -0.001178 0.000000 0.000000 0.000000
# 2 -0.004796 0.008404 -0.001178 0.000000 0.000000 0.000000
# 3 -0.001178 -0.001178 0.053551 0.000000 0.000000 0.000000
# 4 0.000000 0.000000 0.000000 0.048017 0.000000 0.000000
# 5 0.000000 0.000000 0.000000 0.000000 0.048017 0.000000
# 6 0.000000 0.000000 0.000000 0.000000 0.000000 0.046527
#
#
# Mechanical properties :
#
#
# Convention : Reuss Voigt Hill
#
# Bulk Modulus (GPa) = 17.83923 67.33426 42.58675
# Shear Modulus (GPa) = 20.33268 30.01529 25.17398
#
# Velocity S-wave (km/s) = 3.23828 3.93449 3.60324
# Velocity P-wave (km/s) = 4.81481 7.44093 6.26697
#
# Compressibility (1/GPa) = 0.05605622
#
# Stress axis : x y z
#
# Youngs Moduli (GPa) = 118.98924 118.98924 18.67377
#
# Poissons Ratio (x) = 0.57063 0.02200
# Poissons Ratio (y) = 0.57063 0.02200
# Poissons Ratio (z) = 0.14016 0.14016
#
# Static dielectric constant tensor:
#      x y z
#    x 1.678310 0.000000 0.000000 
#    y 0.000000 1.678310 0.000000 
#    z 0.000000 0.000000 1.705120 
# 
# From -- ./inp_files/1641.got.cif
#   From: 2010.05.17/outbox.cif.g08.bks.cpg/sg123_1_cif.got.tgz:1641.got - 2010.05.20 11:43:04.
