data_PCOD9562104
_publ_section_title
;
Structure prediction by ZEFSAII (Michael W. Deem and Ramdas Pophale) SiO2 
 PCOD9562104
Probable space group: P 4/M M M
;
_chemical_formula_sum "Si O2"
_cell_formula_units_Z 88
_cell_length_a 13.030840
_cell_length_b 13.030840
_cell_length_c 30.450514
_cell_angle_alpha 90.000000
_cell_angle_beta 90.000000
_cell_angle_gamma 90.000000
_cell_volume 5170.582268
_symmetry_space_group_name_H-M "P 4/M M M"
_symmetry_group_IT_number 123
_symmetry_cell_setting 'tetragonal'
loop_
_space_group_symop_operation_xyz
x,y,z
-y,x,z
-x,-y,z
y,-x,z
x,-y,-z
-x,y,-z
y,x,-z
-y,-x,-z
-x,-y,-z
y,-x,-z
x,y,-z
-y,x,-z
-x,y,z
x,-y,z
-y,-x,z
y,x,z
loop_
_atom_site_type_symbol
_atom_site_label
_atom_site_fract_x
_atom_site_fract_y
_atom_site_fract_z
Si Si1 0.710672 0.117594 0.364996
Si Si2 0.289106 0.879402 0.808818
Si Si3 0.619117 0.210171 0.721431
Si Si4 0.624319 0.000000 0.050352
Si Si5 0.209080 0.380060 0.450570
Si Si6 0.378406 0.793207 0.896929
O O1 0.810324 0.189677 0.364270
O O2 0.640011 0.154890 0.324854
O O3 0.655099 0.135598 0.411484
O O4 0.737802 0.000000 0.359061
O O5 0.181073 0.818928 0.809992
O O6 0.339409 0.858491 0.761524
O O7 0.358535 0.827719 0.846636
O O8 0.278858 0.000000 0.816847
O O9 0.500000 0.231190 0.727169
O O10 0.686664 0.313337 0.721913
O O11 0.653062 0.893963 0.074700
O O12 0.500000 0.000000 0.050517
O O13 0.659841 0.000000 0.000000
O O14 0.167564 0.362589 0.500000
O O15 0.232335 0.500000 0.446211
O O16 0.311389 0.311389 0.446423
O O17 0.500000 0.772137 0.903881
O O18 0.303877 0.696124 0.906191
#
# Coordination Sequence:
#
# PCOD9562104 Si02
#       6
#    16  16  16   8  16  16
#     4  10  21  36  52  72  98 127 164 208 252 300
#     4  10  20  34  53  78 107 140 179 221 265 313
#     4  10  21  35  52  76 104 135 170 208 252 304
#     4   9  18  34  56  79 105 141 183 224 264 312
#     4   9  18  32  50  73 100 129 162 201 245 295
#     4  10  20  34  54  81 111 144 182 224 271 323
#
# _framework density 17.019359000000001
#
# number of rings (size 3 to 8) (size 9 to 14) (size 15 to 20)
#    0.000    2.273    0.909    1.636    0.000    4.909 
#    0.000    1.818    0.000   10.091    0.000    5.727 
#    0.000    0.000    0.000    0.000    0.000    0.000 
#
# Total GULP energy -490716.420905 kJ/mol
# GULP energy per Si atom -5576.322965 kJ/mol
# Density = 1.698062 g / cm^3
# Si number density = 17.019359 Si / 1000 Ang^3
#
#
#
# Elastic Constant Matrix: (Units=GPa)
#
#
# Indices 1 2 3 4 5 6 
#
# 1 208.7069 -70.3373 32.5004 0.0000 0.0000 0.0000
# 2 -70.3373 208.7069 32.5004 0.0000 0.0000 0.0000
# 3 32.5004 32.5004 85.3330 0.0000 0.0000 0.0000
# 4 0.0000 0.0000 0.0000 20.9764 0.0000 0.0000
# 5 0.0000 0.0000 0.0000 0.0000 20.9764 0.0000
# 6 0.0000 0.0000 0.0000 0.0000 0.0000 5.8210
#
#
#
# Elastic Compliance Matrix: (Units=1/GPa)
#
#
# Indices 1 2 3 4 5 6 
#
# 1 0.006193 0.002609 -0.003352 0.000000 0.000000 0.000000
# 2 0.002609 0.006193 -0.003352 0.000000 0.000000 0.000000
# 3 -0.003352 -0.003352 0.014272 0.000000 0.000000 0.000000
# 4 0.000000 0.000000 0.000000 0.047673 0.000000 0.000000
# 5 0.000000 0.000000 0.000000 0.000000 0.047673 0.000000
# 6 0.000000 0.000000 0.000000 0.000000 0.000000 0.171793
#
#
# Mechanical properties :
#
#
# Convention : Reuss Voigt Hill
#
# Bulk Modulus (GPa) = 54.15139 54.67486 54.41312
# Shear Modulus (GPa) = 16.22625 43.42697 29.82661
#
# Velocity S-wave (km/s) = 3.09107 5.05684 4.19084
# Velocity P-wave (km/s) = 6.68028 8.14189 7.44703
#
# Compressibility (1/GPa) = 0.01846675
#
# Stress axis : x y z
#
# Youngs Moduli (GPa) = 161.47961 161.47961 70.06552
#
# Poissons Ratio (x) = -0.42131 0.23488
# Poissons Ratio (y) = -0.42131 0.23488
# Poissons Ratio (z) = 0.54133 0.54133
#
# Static dielectric constant tensor:
#      x y z
#    x 1.547700 0.000000 0.000000 
#    y 0.000000 1.547700 0.000000 
#    z 0.000000 0.000000 1.592470 
# 
# From -- ./inp_files/8433.got.cif
#   From: 2010.05.17/outbox.cif.g08.bks.cpg/sg123_5_cif.got.tgz:8433.got - 2010.05.20 11:43:04.
