data_PCOD9562019
_publ_section_title
;
Structure prediction by ZEFSAII (Michael W. Deem and Ramdas Pophale) SiO2 
 PCOD9562019
Probable space group: P 4/M M M
;
_chemical_formula_sum "Si O2"
_cell_formula_units_Z 88
_cell_length_a 18.252271
_cell_length_b 18.252271
_cell_length_c 16.390679
_cell_angle_alpha 90.000000
_cell_angle_beta 90.000000
_cell_angle_gamma 90.000000
_cell_volume 5460.479257
_symmetry_space_group_name_H-M "P 4/M M M"
_symmetry_group_IT_number 123
_symmetry_cell_setting 'tetragonal'
loop_
_space_group_symop_operation_xyz
x,y,z
-y,x,z
-x,-y,z
y,-x,z
x,-y,-z
-x,y,-z
y,x,-z
-y,-x,-z
-x,-y,-z
y,-x,-z
x,y,-z
-y,x,-z
-x,y,z
x,-y,z
-y,-x,z
y,x,z
loop_
_atom_site_type_symbol
_atom_site_label
_atom_site_fract_x
_atom_site_fract_y
_atom_site_fract_z
Si Si1 0.913865 0.203044 0.902755
Si Si2 0.083177 0.412900 0.000000
Si Si3 0.348797 0.149024 0.163879
Si Si4 0.229704 0.411662 0.589130
Si Si5 0.588049 0.703353 0.235768
Si Si6 0.588434 0.917823 0.672354
O O1 0.875209 0.124792 0.889965
O O2 0.868863 0.263971 0.852776
O O3 0.000000 0.204358 0.882315
O O4 0.907292 0.219802 0.000000
O O5 0.123530 0.387773 0.081287
O O6 0.079307 0.500000 0.000000
O O7 0.000000 0.382827 0.000000
O O8 0.372408 0.231790 0.185299
O O9 0.377521 0.101192 0.239991
O O10 0.252592 0.383871 0.500000
O O11 0.229447 0.500000 0.584649
O O12 0.277366 0.395857 0.669115
O O13 0.146515 0.388921 0.610765
O O14 0.500000 0.705071 0.223876
O O15 0.626425 0.626425 0.216229
O O16 0.500000 0.913632 0.680812
O O17 0.607362 0.000000 0.646570
#
# Coordination Sequence:
#
# PCOD9562019 Si02
#       6
#    16   8  16  16  16  16
#     4  10  20  33  49  70  96 127 162 197 233 274
#     4  11  20  28  45  72 100 130 161 197 240 284
#     4  11  19  32  48  69  97 126 161 203 245 290
#     4   8  15  28  45  66  92 121 155 197 244 293
#     4  10  21  36  53  72  95 124 160 204 254 307
#     4   9  16  25  40  64  96 132 164 196 237 288
#
# _framework density 16.115801000000001
#
# number of rings (size 3 to 8) (size 9 to 14) (size 15 to 20)
#    0.000    2.273    0.909    4.909    0.000    2.545 
#    0.000    2.727    0.000    0.000    0.000    2.545 
#    0.000    2.182    0.000    0.000    0.000    3.273 
#
# Total GULP energy -490294.806553 kJ/mol
# GULP energy per Si atom -5571.531893 kJ/mol
# Density = 1.607912 g / cm^3
# Si number density = 16.115801 Si / 1000 Ang^3
#
#
#
# Elastic Constant Matrix: (Units=GPa)
#
#
# Indices 1 2 3 4 5 6 
#
# 1 74.3070 59.2304 22.8447 0.0000 0.0000 0.0000
# 2 59.2304 74.3070 22.8447 0.0000 0.0000 0.0000
# 3 22.8447 22.8447 76.2198 0.0000 0.0000 0.0000
# 4 0.0000 0.0000 0.0000 1.1675 0.0000 0.0000
# 5 0.0000 0.0000 0.0000 0.0000 1.1675 0.0000
# 6 0.0000 0.0000 0.0000 0.0000 0.0000 24.9861
#
#
#
# Elastic Compliance Matrix: (Units=1/GPa)
#
#
# Indices 1 2 3 4 5 6 
#
# 1 0.037336 -0.028992 -0.002501 0.000000 0.000000 0.000000
# 2 -0.028992 0.037336 -0.002501 0.000000 0.000000 0.000000
# 3 -0.002501 -0.002501 0.014619 0.000000 0.000000 0.000000
# 4 0.000000 0.000000 0.000000 0.856496 0.000000 0.000000
# 5 0.000000 0.000000 0.000000 0.000000 0.856496 0.000000
# 6 0.000000 0.000000 0.000000 0.000000 0.000000 0.040022
#
#
# Mechanical properties :
#
#
# Convention : Reuss Voigt Hill
#
# Bulk Modulus (GPa) = 46.93996 48.29704 47.61850
# Shear Modulus (GPa) = 2.60771 13.45852 8.03312
#
# Velocity S-wave (km/s) = 1.27343 2.89297 2.23505
# Velocity P-wave (km/s) = 5.59929 6.41816 6.02266
#
# Compressibility (1/GPa) = 0.02130381
#
# Stress axis : x y z
#
# Youngs Moduli (GPa) = 26.78383 26.78383 68.40356
#
# Poissons Ratio (x) = 0.77651 0.17107
# Poissons Ratio (y) = 0.77651 0.17107
# Poissons Ratio (z) = 0.06698 0.06698
#
# Static dielectric constant tensor:
#      x y z
#    x 1.547430 0.000000 0.000000 
#    y 0.000000 1.547430 0.000000 
#    z 0.000000 0.000000 1.536340 
# 
# From -- ./inp_files/4034.got.cif
#   From: 2010.05.17/outbox.cif.g08.bks.cpg/sg123_3_cif.got.tgz:4034.got - 2010.05.20 11:43:04.
