data_PCOD9562049
_publ_section_title
;
Structure prediction by ZEFSAII (Michael W. Deem and Ramdas Pophale) SiO2 
 PCOD9562049
Probable space group: P 4/M M M
;
_chemical_formula_sum "Si O2"
_cell_formula_units_Z 96
_cell_length_a 24.585747
_cell_length_b 24.585747
_cell_length_c 8.461223
_cell_angle_alpha 90.000000
_cell_angle_beta 90.000000
_cell_angle_gamma 90.000000
_cell_volume 5114.462017
_symmetry_space_group_name_H-M "P 4/M M M"
_symmetry_group_IT_number 123
_symmetry_cell_setting 'tetragonal'
loop_
_space_group_symop_operation_xyz
x,y,z
-y,x,z
-x,-y,z
y,-x,z
x,-y,-z
-x,y,-z
y,x,-z
-y,-x,-z
-x,-y,-z
y,-x,-z
x,y,-z
-y,x,-z
-x,y,z
x,-y,z
-y,-x,z
y,x,z
loop_
_atom_site_type_symbol
_atom_site_label
_atom_site_fract_x
_atom_site_fract_y
_atom_site_fract_z
Si Si1 0.060401 0.580198 0.314876
Si Si2 0.171753 0.560350 0.173515
Si Si3 0.701788 0.060251 0.190875
Si Si4 0.750431 0.363458 0.320928
Si Si5 0.650900 0.563555 0.190528
Si Si6 0.736861 0.819955 0.189963
O O1 0.070261 0.569104 0.500000
O O2 0.108255 0.557958 0.207727
O O3 0.060740 0.644525 0.281019
O O4 0.000000 0.560822 0.274927
O O5 0.194989 0.500000 0.171784
O O6 0.200005 0.594345 0.307941
O O7 0.181587 0.585482 0.000000
O O8 0.729572 0.117180 0.238935
O O9 0.727083 0.000000 0.220766
O O10 0.692339 0.062916 0.000000
O O11 0.735981 0.351396 0.500000
O O12 0.700085 0.396108 0.242879
O O13 0.777917 0.310369 0.243588
O O14 0.655044 0.500000 0.245758
O O15 0.594946 0.594946 0.237019
O O16 0.652524 0.561683 0.000000
O O17 0.793236 0.793236 0.243800
O O18 0.735443 0.820265 0.000000
#
# Coordination Sequence:
#
# PCOD9562049 Si02
#       6
#    16  16  16  16  16  16
#     4  10  20  33  50  73 101 133 171 217 268 315
#     4  11  23  37  53  72  97 134 180 225 267 314
#     4   9  17  31  52  75 102 140 182 220 261 312
#     4  12  24  37  55  80 109 141 175 215 265 320
#     4  10  22  41  64  87 110 137 170 211 262 322
#     4  10  20  34  54  80 110 143 179 220 265 314
#
# _framework density 18.770302999999998
#
# number of rings (size 3 to 8) (size 9 to 14) (size 15 to 20)
#    0.000    1.667    1.667    3.500    0.000    7.833 
#    0.000    2.500    0.000    0.000    0.000    1.167 
#    0.000    0.333    0.000    4.667    0.000    0.000 
#
# Total GULP energy -535170.860035 kJ/mol
# GULP energy per Si atom -5574.696459 kJ/mol
# Density = 1.872758 g / cm^3
# Si number density = 18.770303 Si / 1000 Ang^3
#
#
#
# Elastic Constant Matrix: (Units=GPa)
#
#
# Indices 1 2 3 4 5 6 
#
# 1 105.9804 75.5943 15.2962 0.0000 0.0000 0.0000
# 2 75.5943 105.9804 15.2962 0.0000 0.0000 0.0000
# 3 15.2962 15.2962 29.7316 0.0000 0.0000 0.0000
# 4 0.0000 0.0000 0.0000 210.7817 0.0000 0.0000
# 5 0.0000 0.0000 0.0000 0.0000 210.7817 0.0000
# 6 0.0000 0.0000 0.0000 0.0000 0.0000 -70.6925
#
#
#
# Elastic Compliance Matrix: (Units=1/GPa)
#
#
# Indices 1 2 3 4 5 6 
#
# 1 0.019470 -0.013440 -0.003102 0.000000 0.000000 0.000000
# 2 -0.013440 0.019470 -0.003102 0.000000 0.000000 0.000000
# 3 -0.003102 -0.003102 0.036826 0.000000 0.000000 0.000000
# 4 0.000000 0.000000 0.000000 0.004744 0.000000 0.000000
# 5 0.000000 0.000000 0.000000 0.000000 0.004744 0.000000
# 6 0.000000 0.000000 0.000000 0.000000 0.000000 -0.014146
#
#
# Mechanical properties :
#
#
# Convention : Reuss Voigt Hill
#
# Bulk Modulus (GPa) = 27.41438 50.45177 38.93308
# Shear Modulus (GPa) = 40.79727 79.20789 60.00258
#
# Velocity S-wave (km/s) = 4.66714 6.50309 5.66005
# Velocity P-wave (km/s) = 6.60907 9.12818 7.96880
#
# Compressibility (1/GPa) = 0.03647720
#
# Stress axis : x y z
#
# Youngs Moduli (GPa) = 51.36116 51.36116 27.15444
#
# Poissons Ratio (x) = 0.69029 0.08424
# Poissons Ratio (y) = 0.69029 0.08424
# Poissons Ratio (z) = 0.15934 0.15934
#
# Static dielectric constant tensor:
#      x y z
#    x 1.683820 0.000000 0.000000 
#    y 0.000000 1.683820 0.000000 
#    z 0.000000 0.000000 1.643430 
# 
# From -- ./inp_files/1562.got.cif
#   From: 2010.05.17/outbox.cif.g08.bks.cpg/sg123_1_cif.got.tgz:1562.got - 2010.05.20 11:43:04.
