data_PCOD9562515
_publ_section_title
;
Structure prediction by ZEFSAII (Michael W. Deem and Ramdas Pophale) SiO2 
 PCOD9562515
Probable space group: P 4/M C C
;
_chemical_formula_sum "Si O2"
_cell_formula_units_Z 116
_cell_length_a 17.740724
_cell_length_b 17.740724
_cell_length_c 18.818716
_cell_angle_alpha 90.000000
_cell_angle_beta 90.000000
_cell_angle_gamma 90.000000
_cell_volume 5922.876363
_symmetry_space_group_name_H-M "P 4/M C C"
_symmetry_group_IT_number 124
_symmetry_cell_setting 'tetragonal'
loop_
_space_group_symop_operation_xyz
x,y,z
-y,x,z
-x,-y,z
y,-x,z
x,-y,1/2-z
-x,y,1/2-z
y,x,1/2-z
-y,-x,1/2-z
-x,-y,-z
y,-x,-z
x,y,-z
-y,x,-z
-x,y,1/2+z
x,-y,1/2+z
-y,-x,1/2+z
y,x,1/2+z
loop_
_atom_site_type_symbol
_atom_site_label
_atom_site_fract_x
_atom_site_fract_y
_atom_site_fract_z
Si Si1 0.695707 0.800445 0.224977
Si Si2 0.117561 0.966708 0.586332
Si Si3 0.227211 0.453671 0.915948
Si Si4 0.905691 0.624763 0.172118
Si Si5 0.816289 0.629679 0.579752
Si Si6 0.973126 0.288540 0.917522
Si Si7 0.500000 0.000000 0.250000
Si Si8 0.683104 0.422756 0.287453
O O1 0.778459 0.778459 0.250000
O O2 0.668211 0.878843 0.256595
O O3 0.680858 0.784541 0.142721
O O4 0.638983 0.743997 0.265074
O O5 0.116014 0.964826 0.500000
O O6 0.051006 0.909202 0.608733
O O7 0.204022 0.949542 0.606787
O O8 0.161441 0.404012 0.879444
O O9 0.203252 0.542044 0.907066
O O10 0.303689 0.436437 0.871225
O O11 0.234066 0.439346 0.000000
O O12 0.959846 0.679054 0.128617
O O13 0.948790 0.551745 0.200275
O O14 0.790187 0.648559 0.500000
O O15 0.904516 0.651587 0.583656
O O16 0.996639 0.281695 0.000000
O O17 0.705111 0.500000 0.250000
O O18 0.606539 0.393462 0.250000
#
# Coordination Sequence:
#
# PCOD9562515 Si02
#       8
#    16  16  16  16  16  16   4  16
#     4  10  21  37  55  81 112 151 192 231 283 356
#     4   8  15  30  51  73 105 154 202 241 290 354
#     4  10  20  36  58  84 117 157 196 238 300 369
#     4  11  21  34  55  79 116 153 197 246 303 357
#     4  10  20  35  57  82 111 149 190 237 295 356
#     4  10  20  32  50  84 118 145 192 251 300 351
#     4  12  24  36  58  84 104 158 212 248 292 372
#     4  10  20  37  61  84 113 147 193 237 281 344
#
# _framework density 19.585079
#
# number of rings (size 3 to 8) (size 9 to 14) (size 15 to 20)
#    0.000    2.069    1.379    3.310    1.931    1.241 
#    0.000   11.724    0.000    0.000    0.000    0.966 
#    0.000    8.828    0.000    0.138    0.000    0.000 
#
# Total GULP energy -646157.984288 kJ/mol
# GULP energy per Si atom -5570.327451 kJ/mol
# Density = 1.954050 g / cm^3
# Si number density = 19.585079 Si / 1000 Ang^3
#
#
#
# Elastic Constant Matrix: (Units=GPa)
#
#
# Indices 1 2 3 4 5 6 
#
# 1 54.8238 21.8743 28.2335 0.0000 0.0000 0.0000
# 2 21.8743 54.8222 28.2333 0.0000 0.0000 0.0000
# 3 28.2335 28.2333 128.5564 0.0000 0.0000 0.0000
# 4 0.0000 0.0000 0.0000 -6.6178 0.0000 0.0000
# 5 0.0000 0.0000 0.0000 0.0000 -6.5958 0.0000
# 6 0.0000 0.0000 0.0000 0.0000 0.0000 17.6716
#
#
#
# Elastic Compliance Matrix: (Units=1/GPa)
#
#
# Indices 1 2 3 4 5 6 
#
# 1 0.022951 -0.007399 -0.003416 0.000000 0.000000 0.000000
# 2 -0.007399 0.022952 -0.003416 0.000000 0.000000 0.000000
# 3 -0.003416 -0.003416 0.009279 0.000000 0.000000 0.000000
# 4 0.000000 0.000000 0.000000 -0.151107 0.000000 0.000000
# 5 0.000000 0.000000 0.000000 0.000000 -0.151612 0.000000
# 6 0.000000 0.000000 0.000000 0.000000 0.000000 0.056588
#
#
# Mechanical properties :
#
#
# Convention : Reuss Voigt Hill
#
# Bulk Modulus (GPa) = 37.42219 43.87608 40.64913
# Shear Modulus (GPa) = -32.55606 11.54901 -10.50352
#
# Velocity S-wave (km/s) = -4.08154 2.43098 -2.31833
# Velocity P-wave (km/s) = 1.75014 5.50736 3.69242
#
# Compressibility (1/GPa) = 0.02672211
#
# Stress axis : x y z
#
# Youngs Moduli (GPa) = 43.57060 43.56926 107.77013
#
# Poissons Ratio (x) = 0.32235 0.36811
# Poissons Ratio (y) = 0.32236 0.36812
# Poissons Ratio (z) = 0.14882 0.14882
#
# Static dielectric constant tensor:
#      x y z
#    x 1.778880 0.000000 0.000000 
#    y 0.000000 1.778880 0.000000 
#    z 0.000000 0.000000 1.713490 
# 
# From -- ./inp_files/4423.got.cif
#   From: 2010.05.17/outbox.cif.g08.bks.cpg/sg124_3_cif.got.tgz:4423.got - 2010.05.20 11:49:17.
