data_PCOD9562550
_publ_section_title
;
Structure prediction by ZEFSAII (Michael W. Deem and Ramdas Pophale) SiO2 
 PCOD9562550
Probable space group: P 4/M C C
;
_chemical_formula_sum "Si O2"
_cell_formula_units_Z 116
_cell_length_a 18.548729
_cell_length_b 18.548729
_cell_length_c 17.012810
_cell_angle_alpha 90.000000
_cell_angle_beta 90.000000
_cell_angle_gamma 90.000000
_cell_volume 5853.348257
_symmetry_space_group_name_H-M "P 4/M C C"
_symmetry_group_IT_number 124
_symmetry_cell_setting 'tetragonal'
loop_
_space_group_symop_operation_xyz
x,y,z
-y,x,z
-x,-y,z
y,-x,z
x,-y,1/2-z
-x,y,1/2-z
y,x,1/2-z
-y,-x,1/2-z
-x,-y,-z
y,-x,-z
x,y,-z
-y,x,-z
-x,y,1/2+z
x,-y,1/2+z
-y,-x,1/2+z
y,x,1/2+z
loop_
_atom_site_type_symbol
_atom_site_label
_atom_site_fract_x
_atom_site_fract_y
_atom_site_fract_z
Si Si1 0.654868 0.164803 0.326751
Si Si2 0.054649 0.153252 0.906933
Si Si3 0.299807 0.006004 0.844210
Si Si4 0.503517 0.618070 0.344665
Si Si5 0.222945 0.209241 0.589392
Si Si6 0.488015 0.222752 0.907500
Si Si7 0.000000 0.000000 0.855033
Si Si8 0.631540 0.143651 0.141648
O O1 0.726555 0.207173 0.351314
O O2 0.584550 0.200534 0.363178
O O3 0.644998 0.160147 0.233403
O O4 0.666986 0.083923 0.359013
O O5 0.007274 0.223286 0.885924
O O6 0.137383 0.176672 0.891879
O O7 0.030950 0.083274 0.859852
O O8 0.047064 0.136051 0.000000
O O9 0.352790 0.941225 0.869015
O O10 0.287820 0.000000 0.750000
O O11 0.432251 0.571770 0.365306
O O12 0.500000 0.626839 0.250000
O O13 0.506873 0.695371 0.384137
O O14 0.205853 0.231494 0.500000
O O15 0.305902 0.185219 0.594957
O O16 0.553504 0.170864 0.882620
O O17 0.476735 0.217743 0.000000
#
# Coordination Sequence:
#
# PCOD9562550 Si02
#       8
#    16  16  16  16  16  16   4  16
#     4  11  22  39  63  89 116 154 202 250 299 357
#     4  10  20  34  56  84 119 161 201 244 300 361
#     4   9  21  41  63  84 112 152 203 255 302 356
#     4   9  20  41  67  92 121 159 200 238 287 350
#     4  10  21  38  60  88 119 156 202 250 300 355
#     4  12  26  40  59  92 127 157 196 245 295 354
#     4  12  21  32  53  86 125 164 201 242 297 364
#     4  10  22  42  63  84 117 160 199 245 304 359
#
# _framework density 19.817716999999998
#
# number of rings (size 3 to 8) (size 9 to 14) (size 15 to 20)
#    0.000    1.793    0.000    4.345    1.931    3.862 
#    0.000    5.862    0.000    0.000    0.000    0.000 
#    0.000    0.000    0.000    0.000    0.000    0.000 
#
# Total GULP energy -647471.629561 kJ/mol
# GULP energy per Si atom -5581.651979 kJ/mol
# Density = 1.977261 g / cm^3
# Si number density = 19.817717 Si / 1000 Ang^3
#
#
#
# Elastic Constant Matrix: (Units=GPa)
#
#
# Indices 1 2 3 4 5 6 
#
# 1 77.5632 20.9666 9.6142 0.0000 0.0000 0.0000
# 2 20.9666 77.5632 9.6142 0.0000 0.0000 0.0000
# 3 9.6142 9.6142 31.7010 0.0000 0.0000 0.0000
# 4 0.0000 0.0000 0.0000 366.2209 0.0000 0.0000
# 5 0.0000 0.0000 0.0000 0.0000 366.2209 0.0000
# 6 0.0000 0.0000 0.0000 0.0000 0.0000 20.2744
#
#
#
# Elastic Compliance Matrix: (Units=1/GPa)
#
#
# Indices 1 2 3 4 5 6 
#
# 1 0.014228 -0.003441 -0.003272 0.000000 0.000000 0.000000
# 2 -0.003441 0.014228 -0.003272 0.000000 0.000000 0.000000
# 3 -0.003272 -0.003272 0.033529 0.000000 0.000000 0.000000
# 4 0.000000 0.000000 0.000000 0.002731 0.000000 0.000000
# 5 0.000000 0.000000 0.000000 0.000000 0.002731 0.000000
# 6 0.000000 0.000000 0.000000 0.000000 0.000000 0.049323
#
#
# Mechanical properties :
#
#
# Convention : Reuss Voigt Hill
#
# Bulk Modulus (GPa) = 23.79935 29.69079 26.74507
# Shear Modulus (GPa) = 33.16881 160.31874 96.74378
#
# Velocity S-wave (km/s) = 4.09552 9.00402 6.99448
# Velocity P-wave (km/s) = 5.86512 11.09553 8.87441
#
# Compressibility (1/GPa) = 0.04201795
#
# Stress axis : x y z
#
# Youngs Moduli (GPa) = 70.28247 70.28247 29.82479
#
# Poissons Ratio (x) = 0.24181 0.09758
# Poissons Ratio (y) = 0.24181 0.09758
# Poissons Ratio (z) = 0.22994 0.22994
#
# Static dielectric constant tensor:
#      x y z
#    x 1.669840 0.000000 0.000000 
#    y 0.000000 1.669840 0.000000 
#    z 0.000000 0.000000 1.708000 
# 
# From -- ./inp_files/4420.got.cif
#   From: 2010.05.17/outbox.cif.g08.bks.cpg/sg124_3_cif.got.tgz:4420.got - 2010.05.20 11:49:17.
