data_PCOD9562983
_publ_section_title
;
Structure prediction by ZEFSAII (Michael W. Deem and Ramdas Pophale) SiO2 
 PCOD9562983
Probable space group: P 4/N B M
;
_chemical_formula_sum "Si O2"
_cell_formula_units_Z 128
_cell_length_a 23.761162
_cell_length_b 23.761162
_cell_length_c 12.530999
_cell_angle_alpha 90.000000
_cell_angle_beta 90.000000
_cell_angle_gamma 90.000000
_cell_volume 7074.912058
_symmetry_space_group_name_H-M "P 4/N B M"
_symmetry_group_IT_number 125
_space_group.IT_coordinate_system_code '2'
_symmetry_cell_setting 'tetragonal'
loop_
_space_group_symop_operation_xyz
x,y,z
1/2-y,x,z
1/2-x,1/2-y,z
y,1/2-x,z
x,1/2-y,-z
1/2-x,y,-z
y,x,-z
1/2-y,1/2-x,-z
-x,-y,-z
1/2+y,-x,-z
1/2+x,1/2+y,-z
-y,1/2+x,-z
-x,1/2+y,z
1/2+x,-y,z
-y,-x,z
1/2+y,1/2+x,z
loop_
_atom_site_type_symbol
_atom_site_label
_atom_site_fract_x
_atom_site_fract_y
_atom_site_fract_z
Si Si1 0.816799 0.683003 0.377452
Si Si2 0.520843 0.569413 0.608812
Si Si3 0.305331 0.897802 0.265414
Si Si4 0.941488 0.347963 0.516797
Si Si5 0.606573 0.890692 0.223189
Si Si6 0.009332 0.186820 0.128451
Si Si7 0.916764 0.178104 0.717784
Si Si8 0.484497 0.319321 0.880082
O O1 0.826603 0.749894 0.364586
O O2 0.831854 0.668147 0.500000
O O3 0.852181 0.647531 0.294077
O O4 0.542710 0.542710 0.500000
O O5 0.468898 0.531103 0.649754
O O6 0.498580 0.630722 0.572311
O O7 0.569557 0.572301 0.695059
O O8 0.345002 0.845002 0.237666
O O9 0.313643 0.909896 0.391506
O O10 0.238729 0.891724 0.249838
O O11 0.323501 0.953207 0.198527
O O12 0.904844 0.404844 0.499116
O O13 0.943809 0.319418 0.401538
O O14 0.561043 0.851758 0.164294
O O15 0.643370 0.930223 0.146855
O O16 0.025198 0.252751 0.141593
O O17 0.998381 0.176106 0.003564
O O18 0.868063 0.131938 0.716747
O O19 0.965248 0.163094 0.801469
#
# Coordination Sequence:
#
# PCOD9562983 Si02
#       8
#    16  16  16  16  16  16  16  16
#     4   9  19  35  53  79 117 151 180 224 279 331
#     4  10  20  32  49  77 114 148 180 223 271 321
#     4  10  20  37  60  84 112 148 187 229 280 338
#     4   9  17  33  53  79 113 147 180 220 276 331
#     4  12  20  34  59  83 104 142 197 233 272 332
#     4  10  22  40  57  79 112 148 185 237 285 336
#     4  10  21  37  58  84 115 148 183 229 283 338
#     4  10  23  39  56  80 112 147 187 234 290 331
#
# _framework density 18.092098
#
# number of rings (size 3 to 8) (size 9 to 14) (size 15 to 20)
#    0.000    2.000    1.250    3.000    0.000    2.250 
#    0.000    1.250    0.000    4.500    0.000    8.750 
#    0.000    0.000    0.000    0.000    0.000    0.000 
#
# Total GULP energy -714023.584690 kJ/mol
# GULP energy per Si atom -5578.309255 kJ/mol
# Density = 1.805092 g / cm^3
# Si number density = 18.092098 Si / 1000 Ang^3
#
#
#
# Elastic Constant Matrix: (Units=GPa)
#
#
# Indices 1 2 3 4 5 6 
#
# 1 55.7105 33.5419 37.9371 0.0000 0.0000 0.0000
# 2 33.5419 55.7099 37.9371 0.0000 0.0000 0.0000
# 3 37.9371 37.9371 102.8734 0.0000 0.0000 0.0000
# 4 0.0000 0.0000 0.0000 24.5458 0.0000 0.0000
# 5 0.0000 0.0000 0.0000 0.0000 24.5457 0.0000
# 6 0.0000 0.0000 0.0000 0.0000 0.0000 33.1750
#
#
#
# Elastic Compliance Matrix: (Units=1/GPa)
#
#
# Indices 1 2 3 4 5 6 
#
# 1 0.030715 -0.014394 -0.006019 0.000000 0.000000 0.000000
# 2 -0.014394 0.030715 -0.006019 0.000000 0.000000 0.000000
# 3 -0.006019 -0.006019 0.014160 0.000000 0.000000 0.000000
# 4 0.000000 0.000000 0.000000 0.040740 0.000000 0.000000
# 5 0.000000 0.000000 0.000000 0.000000 0.040740 0.000000
# 6 0.000000 0.000000 0.000000 0.000000 0.000000 0.030143
#
#
# Mechanical properties :
#
#
# Convention : Reuss Voigt Hill
#
# Bulk Modulus (GPa) = 44.00138 48.12512 46.06325
# Shear Modulus (GPa) = 20.18960 23.44516 21.81738
#
# Velocity S-wave (km/s) = 3.34419 3.60374 3.47638
# Velocity P-wave (km/s) = 6.26778 6.63127 6.45208
#
# Compressibility (1/GPa) = 0.02272656
#
# Stress axis : x y z
#
# Youngs Moduli (GPa) = 32.55756 32.55712 70.62267
#
# Poissons Ratio (x) = 0.46864 0.42505
# Poissons Ratio (y) = 0.46864 0.42506
# Poissons Ratio (z) = 0.19595 0.19595
#
# Static dielectric constant tensor:
#      x y z
#    x 1.623760 0.000000 0.000000 
#    y 0.000000 1.623760 0.000000 
#    z 0.000000 0.000000 1.614050 
# 
# From -- ./inp_files/4385.got.cif
#   From: 2010.05.17/outbox.cif.g08.bks.cpg/sg125_3_cif.got.tgz:4385.got - 2010.05.20 11:54:10.
