data_PCOD9562285
_publ_section_title
;
Structure prediction by ZEFSAII (Michael W. Deem and Ramdas Pophale) SiO2 
 PCOD9562285
Probable space group: P 4/M M M
;
_chemical_formula_sum "Si O2"
_cell_formula_units_Z 96
_cell_length_a 18.759819
_cell_length_b 18.759819
_cell_length_c 17.879752
_cell_angle_alpha 90.000000
_cell_angle_beta 90.000000
_cell_angle_gamma 90.000000
_cell_volume 6292.435585
_symmetry_space_group_name_H-M "P 4/M M M"
_symmetry_group_IT_number 123
_symmetry_cell_setting 'tetragonal'
loop_
_space_group_symop_operation_xyz
x,y,z
-y,x,z
-x,-y,z
y,-x,z
x,-y,-z
-x,y,-z
y,x,-z
-y,-x,-z
-x,-y,-z
y,-x,-z
x,y,-z
-y,x,-z
-x,y,z
x,-y,z
-y,-x,z
y,x,z
loop_
_atom_site_type_symbol
_atom_site_label
_atom_site_fract_x
_atom_site_fract_y
_atom_site_fract_z
Si Si1 0.224479 0.341440 0.086664
Si Si2 0.696870 0.084840 0.586728
Si Si3 0.801557 0.081545 0.720027
Si Si4 0.583247 0.847402 0.309020
Si Si5 0.701903 0.583619 0.776494
Si Si6 0.918420 0.663224 0.175216
O O1 0.265801 0.265801 0.096312
O O2 0.265041 0.394893 0.142828
O O3 0.142557 0.338062 0.112626
O O4 0.230527 0.361786 0.000000
O O5 0.709223 0.100881 0.500000
O O6 0.764397 0.097901 0.640313
O O7 0.632050 0.128846 0.622236
O O8 0.680883 0.000000 0.593746
O O9 0.863400 0.136601 0.736105
O O10 0.738399 0.086625 0.780846
O O11 0.826925 0.000000 0.718663
O O12 0.500000 0.854812 0.325033
O O13 0.597651 0.766497 0.281697
O O14 0.605620 0.896858 0.238557
O O15 0.684331 0.500000 0.774332
O O16 0.635078 0.635078 0.762391
O O17 0.000000 0.653173 0.150217
#
# Coordination Sequence:
#
# PCOD9562285 Si02
#       6
#    16  16  16  16  16  16
#     4   9  17  29  45  64  87 115 144 175 213 256
#     4   9  18  30  43  63  90 118 147 178 214 254
#     4   9  17  29  44  61  83 111 144 183 222 259
#     4   9  17  29  45  65  89 115 142 173 209 251
#     4   9  18  32  49  68  89 113 142 177 216 258
#     4   9  17  28  43  63  86 114 146 178 212 251
#
# _framework density 15.256413999999999
#
# number of rings (size 3 to 8) (size 9 to 14) (size 15 to 20)
#    0.000    3.000    0.000    2.000    0.000    7.000 
#    0.000    0.833    0.000    0.000    0.000    9.333 
#    0.000    0.000    0.000   19.167    0.000    0.667 
#
# Total GULP energy -534701.525456 kJ/mol
# GULP energy per Si atom -5569.807557 kJ/mol
# Density = 1.522169 g / cm^3
# Si number density = 15.256414 Si / 1000 Ang^3
#
#
#
# Elastic Constant Matrix: (Units=GPa)
#
#
# Indices 1 2 3 4 5 6 
#
# 1 63.2127 33.9935 -5.0387 0.0000 0.0000 0.0000
# 2 33.9935 63.2127 -5.0387 0.0000 0.0000 0.0000
# 3 -5.0387 -5.0387 21.7821 0.0000 0.0000 0.0000
# 4 0.0000 0.0000 0.0000 12.3834 0.0000 0.0000
# 5 0.0000 0.0000 0.0000 0.0000 12.3834 0.0000
# 6 0.0000 0.0000 0.0000 0.0000 0.0000 -9.0402
#
#
#
# Elastic Compliance Matrix: (Units=1/GPa)
#
#
# Indices 1 2 3 4 5 6 
#
# 1 0.022382 -0.011842 0.002438 0.000000 0.000000 0.000000
# 2 -0.011842 0.022382 0.002438 0.000000 0.000000 0.000000
# 3 0.002438 0.002438 0.047037 0.000000 0.000000 0.000000
# 4 0.000000 0.000000 0.000000 0.080753 0.000000 0.000000
# 5 0.000000 0.000000 0.000000 0.000000 0.080753 0.000000
# 6 0.000000 0.000000 0.000000 0.000000 0.000000 -0.110617
#
#
# Mechanical properties :
#
#
# Convention : Reuss Voigt Hill
#
# Bulk Modulus (GPa) = 12.84187 21.78221 17.31204
# Shear Modulus (GPa) = 27.38533 11.43139 19.40836
#
# Velocity S-wave (km/s) = 4.24135 2.74028 3.57058
# Velocity P-wave (km/s) = 5.69394 4.93159 5.32642
#
# Compressibility (1/GPa) = 0.07787027
#
# Stress axis : x y z
#
# Youngs Moduli (GPa) = 44.67851 44.67851 21.25973
#
# Poissons Ratio (x) = 0.52908 -0.05183
# Poissons Ratio (y) = 0.52908 -0.05183
# Poissons Ratio (z) = -0.10893 -0.10893
#
# Static dielectric constant tensor:
#      x y z
#    x 1.498950 0.000000 0.000000 
#    y 0.000000 1.498950 0.000000 
#    z 0.000000 0.000000 1.493790 
# 
# From -- ./inp_files/5452.got.cif
#   From: 2010.05.17/outbox.cif.g08.bks.cpg/sg123_3_cif.got.tgz:5452.got - 2010.05.20 11:43:04.
