data_PCOD9562600
_publ_section_title
;
Structure prediction by ZEFSAII (Michael W. Deem and Ramdas Pophale) SiO2 
 PCOD9562600
Probable space group: P 4/M C C
;
_chemical_formula_sum "Si O2"
_cell_formula_units_Z 72
_cell_length_a 15.046686
_cell_length_b 15.046686
_cell_length_c 16.416975
_cell_angle_alpha 90.000000
_cell_angle_beta 90.000000
_cell_angle_gamma 90.000000
_cell_volume 3716.848444
_symmetry_space_group_name_H-M "P 4/M C C"
_symmetry_group_IT_number 124
_symmetry_cell_setting 'tetragonal'
loop_
_space_group_symop_operation_xyz
x,y,z
-y,x,z
-x,-y,z
y,-x,z
x,-y,1/2-z
-x,y,1/2-z
y,x,1/2-z
-y,-x,1/2-z
-x,-y,-z
y,-x,-z
x,y,-z
-y,x,-z
-x,y,1/2+z
x,-y,1/2+z
-y,-x,1/2+z
y,x,1/2+z
loop_
_atom_site_type_symbol
_atom_site_label
_atom_site_fract_x
_atom_site_fract_y
_atom_site_fract_z
Si Si1 0.274965 0.999556 0.000000
Si Si2 0.219561 0.596079 0.213708
Si Si3 0.666993 0.729249 0.627527
Si Si4 0.972721 0.602501 0.656195
Si Si5 0.451768 0.356427 0.500000
Si Si6 0.803777 0.808393 0.500000
O O1 0.336000 0.994854 0.081942
O O2 0.224593 0.094714 0.000000
O O3 0.209795 0.914621 0.000000
O O4 0.235549 0.500000 0.250000
O O5 0.206074 0.651721 0.296699
O O6 0.301562 0.636551 0.166087
O O7 0.133941 0.602000 0.157828
O O8 0.579868 0.705231 0.575420
O O9 0.747018 0.767992 0.574736
O O10 0.000000 0.500000 0.643526
O O11 0.000000 0.626383 0.750000
O O12 0.553269 0.390568 0.500000
#
# Coordination Sequence:
#
# PCOD9562600 Si02
#       6
#     8  16  16  16   8   8
#     4  12  25  45  64  96 124 170 216 263 325 384
#     4  11  20  36  62  89 128 162 206 253 318 386
#     4  10  22  38  58  90 124 170 206 260 320 381
#     4  11  22  40  63  97 131 161 198 263 326 386
#     4  10  20  37  56  81 124 170 220 266 304 366
#     4  11  24  42  64  86 124 163 214 268 316 383
#
# _framework density 19.37125
#
# number of rings (size 3 to 8) (size 9 to 14) (size 15 to 20)
#    0.000    1.222    4.444    3.000    0.000    0.222 
#    0.000    0.000    0.000    5.333    0.000    1.556 
#    0.000    0.000    0.000    0.000    0.000    0.000 
#
# Total GULP energy -401607.544798 kJ/mol
# GULP energy per Si atom -5577.882567 kJ/mol
# Density = 1.932716 g / cm^3
# Si number density = 19.371250 Si / 1000 Ang^3
#
#
#
# Elastic Constant Matrix: (Units=GPa)
#
#
# Indices 1 2 3 4 5 6 
#
# 1 76.4102 9.4550 27.0264 0.0000 0.0000 0.0000
# 2 9.4550 76.4102 27.0264 0.0000 0.0000 0.0000
# 3 27.0264 27.0264 99.7289 0.0000 0.0000 0.0000
# 4 0.0000 0.0000 0.0000 16.8410 0.0000 0.0000
# 5 0.0000 0.0000 0.0000 0.0000 16.8410 0.0000
# 6 0.0000 0.0000 0.0000 0.0000 0.0000 23.4902
#
#
#
# Elastic Compliance Matrix: (Units=1/GPa)
#
#
# Indices 1 2 3 4 5 6 
#
# 1 0.014488 -0.000447 -0.003805 0.000000 0.000000 0.000000
# 2 -0.000447 0.014488 -0.003805 0.000000 0.000000 0.000000
# 3 -0.003805 -0.003805 0.012090 0.000000 0.000000 0.000000
# 4 0.000000 0.000000 0.000000 0.059379 0.000000 0.000000
# 5 0.000000 0.000000 0.000000 0.000000 0.059379 0.000000
# 6 0.000000 0.000000 0.000000 0.000000 0.000000 0.042571
#
#
# Mechanical properties :
#
#
# Convention : Reuss Voigt Hill
#
# Bulk Modulus (GPa) = 40.07726 42.17386 41.12556
# Shear Modulus (GPa) = 22.04322 24.03723 23.04023
#
# Velocity S-wave (km/s) = 3.37699 3.52642 3.45251
# Velocity P-wave (km/s) = 5.99494 6.19673 6.09667
#
# Compressibility (1/GPa) = 0.02495181
#
# Stress axis : x y z
#
# Youngs Moduli (GPa) = 69.02039 69.02039 82.71559
#
# Poissons Ratio (x) = 0.03084 0.31475
# Poissons Ratio (y) = 0.03084 0.31475
# Poissons Ratio (z) = 0.26264 0.26264
#
# Static dielectric constant tensor:
#      x y z
#    x 1.688010 0.000000 0.000000 
#    y 0.000000 1.688010 0.000000 
#    z 0.000000 0.000000 1.728270 
# 
# From -- ./inp_files/4099.got.cif
#   From: 2010.05.17/outbox.cif.g08.bks.cpg/sg124_3_cif.got.tgz:4099.got - 2010.05.20 11:49:17.
