data_PCOD9562334
_publ_section_title
;
Structure prediction by ZEFSAII (Michael W. Deem and Ramdas Pophale) SiO2 
 PCOD9562334
Probable space group: P 4/M C C
;
_chemical_formula_sum "Si O2"
_cell_formula_units_Z 112
_cell_length_a 29.036535
_cell_length_b 29.036535
_cell_length_c 7.603946
_cell_angle_alpha 90.000000
_cell_angle_beta 90.000000
_cell_angle_gamma 90.000000
_cell_volume 6411.041725
_symmetry_space_group_name_H-M "P 4/M C C"
_symmetry_group_IT_number 124
_symmetry_cell_setting 'tetragonal'
loop_
_space_group_symop_operation_xyz
x,y,z
-y,x,z
-x,-y,z
y,-x,z
x,-y,1/2-z
-x,y,1/2-z
y,x,1/2-z
-y,-x,1/2-z
-x,-y,-z
y,-x,-z
x,y,-z
-y,x,-z
-x,y,1/2+z
x,-y,1/2+z
-y,-x,1/2+z
y,x,1/2+z
loop_
_atom_site_type_symbol
_atom_site_label
_atom_site_fract_x
_atom_site_fract_y
_atom_site_fract_z
Si Si1 0.200962 0.695720 0.287532
Si Si2 0.602418 0.146354 0.787693
Si Si3 0.447546 0.763747 0.789008
Si Si4 0.216908 0.145321 0.288929
Si Si5 0.051573 0.260887 0.210951
Si Si6 0.366785 0.051321 0.288904
Si Si7 0.358573 0.711550 0.210684
O O1 0.204378 0.699694 0.500000
O O2 0.166011 0.653671 0.253309
O O3 0.180121 0.743317 0.220225
O O4 0.250057 0.677707 0.220398
O O5 0.567270 0.185347 0.721805
O O6 0.602728 0.093973 0.722646
O O7 0.596880 0.145138 0.000000
O O8 0.500000 0.752436 0.750000
O O9 0.408889 0.727457 0.725671
O O10 0.443346 0.765309 0.000000
O O11 0.167670 0.167670 0.250000
O O12 0.221074 0.144277 0.500000
O O13 0.229889 0.094124 0.224893
O O14 0.055188 0.313812 0.277463
O O15 0.000000 0.244064 0.250000
O O16 0.055479 0.263401 0.000000
O O17 0.364394 0.055692 0.500000
O O18 0.383613 0.000000 0.250000
O O19 0.338448 0.661553 0.250000
O O20 0.359245 0.715855 0.000000
#
# Coordination Sequence:
#
# PCOD9562334 Si02
#       7
#    16  16  16  16  16  16  16
#     4   8  13  24  40  58  83 114 144 169 199 246
#     4   8  13  25  44  60  79 112 148 176 212 262
#     4   9  18  31  47  66  87 116 151 184 218 258
#     4  10  18  27  40  59  83 111 139 167 203 248
#     4   9  17  28  42  58  79 108 140 173 210 249
#     4   9  15  25  42  61  80 105 140 181 220 259
#     4   9  17  28  44  65  89 117 147 177 211 251
#
# _framework density 17.469861000000002
#
# number of rings (size 3 to 8) (size 9 to 14) (size 15 to 20)
#    0.000    3.143    1.429    2.143    0.000    1.143 
#    0.000    0.714    0.000    2.143    0.000    3.000 
#    0.000    0.571    0.000    6.286    0.000    4.571 
#
# Total GULP energy -623803.456213 kJ/mol
# GULP energy per Si atom -5569.673716 kJ/mol
# Density = 1.743010 g / cm^3
# Si number density = 17.469861 Si / 1000 Ang^3
#
#
#
# Elastic Constant Matrix: (Units=GPa)
#
#
# Indices 1 2 3 4 5 6 
#
# 1 102.7746 77.8383 4.5240 0.0000 0.0000 0.0000
# 2 77.8383 102.7804 4.5243 0.0000 0.0000 0.0000
# 3 4.5240 4.5243 36.2743 0.0000 0.0000 0.0000
# 4 0.0000 0.0000 0.0000 12.8921 0.0000 0.0000
# 5 0.0000 0.0000 0.0000 0.0000 12.8915 0.0000
# 6 0.0000 0.0000 0.0000 0.0000 0.0000 16.2066
#
#
#
# Elastic Compliance Matrix: (Units=1/GPa)
#
#
# Indices 1 2 3 4 5 6 
#
# 1 0.022835 -0.017263 -0.000695 0.000000 0.000000 0.000000
# 2 -0.017263 0.022834 -0.000695 0.000000 0.000000 0.000000
# 3 -0.000695 -0.000695 0.027741 0.000000 0.000000 0.000000
# 4 0.000000 0.000000 0.000000 0.077567 0.000000 0.000000
# 5 0.000000 0.000000 0.000000 0.000000 0.077571 0.000000
# 6 0.000000 0.000000 0.000000 0.000000 0.000000 0.061703
#
#
# Mechanical properties :
#
#
# Convention : Reuss Voigt Hill
#
# Bulk Modulus (GPa) = 27.69742 46.17805 36.93773
# Shear Modulus (GPa) = 14.72360 18.72756 16.72558
#
# Velocity S-wave (km/s) = 2.90625 3.27768 3.09754
# Velocity P-wave (km/s) = 5.21062 6.38863 5.82946
#
# Compressibility (1/GPa) = 0.03610444
#
# Stress axis : x y z
#
# Youngs Moduli (GPa) = 43.79230 43.79475 36.04765
#
# Poissons Ratio (x) = 0.75603 0.02504
# Poissons Ratio (y) = 0.75599 0.02505
# Poissons Ratio (z) = 0.03043 0.03044
#
# Static dielectric constant tensor:
#      x y z
#    x 1.610010 0.000000 0.000000 
#    y 0.000000 1.610010 0.000000 
#    z 0.000000 0.000000 1.659350 
# 
# From -- ./inp_files/2509.got.cif
#   From: 2010.05.17/outbox.cif.g08.bks.cpg/sg124_2_cif.got.tgz:2509.got - 2010.05.20 11:49:17.
