data_PCOD9562826
_publ_section_title
;
Structure prediction by ZEFSAII (Michael W. Deem and Ramdas Pophale) SiO2 
 PCOD9562826
Probable space group: P 4/M C C
;
_chemical_formula_sum "Si O2"
_cell_formula_units_Z 34
_cell_length_a 8.838027
_cell_length_b 8.838027
_cell_length_c 20.858204
_cell_angle_alpha 90.000000
_cell_angle_beta 90.000000
_cell_angle_gamma 90.000000
_cell_volume 1629.249358
_symmetry_space_group_name_H-M "P 4/M C C"
_symmetry_group_IT_number 124
_symmetry_cell_setting 'tetragonal'
loop_
_space_group_symop_operation_xyz
x,y,z
-y,x,z
-x,-y,z
y,-x,z
x,-y,1/2-z
-x,y,1/2-z
y,x,1/2-z
-y,-x,1/2-z
-x,-y,-z
y,-x,-z
x,y,-z
-y,x,-z
-x,y,1/2+z
x,-y,1/2+z
-y,-x,1/2+z
y,x,1/2+z
loop_
_atom_site_type_symbol
_atom_site_label
_atom_site_fract_x
_atom_site_fract_y
_atom_site_fract_z
Si Si1 0.680292 0.319709 0.250000
Si Si2 0.791415 0.145417 0.124084
Si Si3 0.583916 0.833508 0.500000
Si Si4 0.500000 0.500000 0.000000
O O1 0.704354 0.500000 0.250000
O O2 0.731048 0.224956 0.188127
O O3 0.686532 0.179476 0.063574
O O4 0.963888 0.201358 0.122440
O O5 0.477404 0.686198 0.500000
O O6 0.500000 0.000000 0.500000
#
# Coordination Sequence:
#
# PCOD9562826 Si02
#       4
#     8  16   8   2
#     4  11  28  45  70 106 150 201 266 325 388 472
#     4  11  25  47  73 107 150 200 258 319 392 472
#     4  12  28  47  78 117 154 203 255 330 400 470
#     4  12  28  44  76 106 156 188 260 294 388 472
#
# _framework density 20.868506
#
# number of rings (size 3 to 8) (size 9 to 14) (size 15 to 20)
#    0.000    0.706    0.000    5.647   13.176    5.647 
#    0.000    0.000    0.000    0.000    0.000    0.000 
#    0.000    0.000    0.000    0.000    0.000    0.000 
#
# Total GULP energy -189390.964704 kJ/mol
# GULP energy per Si atom -5570.322491 kJ/mol
# Density = 2.082101 g / cm^3
# Si number density = 20.868506 Si / 1000 Ang^3
#
#
#
# Elastic Constant Matrix: (Units=GPa)
#
#
# Indices 1 2 3 4 5 6 
#
# 1 142.7057 91.3797 86.2004 0.0000 0.0000 0.0000
# 2 91.3797 142.7071 86.2004 0.0000 0.0000 0.0000
# 3 86.2004 86.2004 209.5889 0.0000 0.0000 0.0000
# 4 0.0000 0.0000 0.0000 40.1567 0.0000 0.0000
# 5 0.0000 0.0000 0.0000 0.0000 40.1583 0.0000
# 6 0.0000 0.0000 0.0000 0.0000 0.0000 38.8677
#
#
#
# Elastic Compliance Matrix: (Units=1/GPa)
#
#
# Indices 1 2 3 4 5 6 
#
# 1 0.012806 -0.006677 -0.002520 0.000000 0.000000 0.000000
# 2 -0.006677 0.012806 -0.002520 0.000000 0.000000 0.000000
# 3 -0.002520 -0.002520 0.006844 0.000000 0.000000 0.000000
# 4 0.000000 0.000000 0.000000 0.024902 0.000000 0.000000
# 5 0.000000 0.000000 0.000000 0.000000 0.024901 0.000000
# 6 0.000000 0.000000 0.000000 0.000000 0.000000 0.025728
#
#
# Mechanical properties :
#
#
# Convention : Reuss Voigt Hill
#
# Bulk Modulus (GPa) = 110.87525 113.61808 112.24667
# Shear Modulus (GPa) = 37.19386 39.25128 38.22257
#
# Velocity S-wave (km/s) = 4.22631 4.34162 4.28435
# Velocity P-wave (km/s) = 8.77846 8.92725 8.85317
#
# Compressibility (1/GPa) = 0.00901915
#
# Stress axis : x y z
#
# Youngs Moduli (GPa) = 78.09032 78.09132 146.10361
#
# Poissons Ratio (x) = 0.52145 0.36825
# Poissons Ratio (y) = 0.52144 0.36824
# Poissons Ratio (z) = 0.19682 0.19682
#
# Static dielectric constant tensor:
#      x y z
#    x 1.189580 0.000000 0.000000 
#    y 0.000000 1.190220 0.000000 
#    z 0.000000 0.000000 1.718000 
# 
# From -- ./inp_files/4701.got.cif
#   From: 2010.05.17/outbox.cif.g08.bks.cpg/sg124_3_cif.got.tgz:4701.got - 2010.05.20 11:49:17.
