data_PCOD9562389
_publ_section_title
;
Structure prediction by ZEFSAII (Michael W. Deem and Ramdas Pophale) SiO2 
 PCOD9562389
Probable space group: P 4/M C C
;
_chemical_formula_sum "Si O2"
_cell_formula_units_Z 96
_cell_length_a 23.431538
_cell_length_b 23.431538
_cell_length_c 8.989035
_cell_angle_alpha 90.000000
_cell_angle_beta 90.000000
_cell_angle_gamma 90.000000
_cell_volume 4935.312567
_symmetry_space_group_name_H-M "P 4/M C C"
_symmetry_group_IT_number 124
_symmetry_cell_setting 'tetragonal'
loop_
_space_group_symop_operation_xyz
x,y,z
-y,x,z
-x,-y,z
y,-x,z
x,-y,1/2-z
-x,y,1/2-z
y,x,1/2-z
-y,-x,1/2-z
-x,-y,-z
y,-x,-z
x,y,-z
-y,x,-z
-x,y,1/2+z
x,-y,1/2+z
-y,-x,1/2+z
y,x,1/2+z
loop_
_atom_site_type_symbol
_atom_site_label
_atom_site_fract_x
_atom_site_fract_y
_atom_site_fract_z
Si Si1 0.278063 0.641642 0.831817
Si Si2 0.739194 0.815194 0.166441
Si Si3 0.077842 0.268833 0.831991
Si Si4 0.600528 0.056107 0.170522
Si Si5 0.437496 0.816882 0.180250
Si Si6 0.148412 0.059877 0.821355
O O1 0.334841 0.665160 0.750000
O O2 0.237910 0.697406 0.847744
O O3 0.236734 0.599079 0.741589
O O4 0.289847 0.620689 0.000000
O O5 0.795882 0.795882 0.250000
O O6 0.713193 0.859282 0.280741
O O7 0.749273 0.837610 0.000000
O O8 0.048839 0.330439 0.828840
O O9 0.063523 0.215798 0.725005
O O10 0.074909 0.246630 0.000000
O O11 0.584646 0.119501 0.228596
O O12 0.576438 0.000000 0.250000
O O13 0.581606 0.055117 0.000000
O O14 0.500000 0.811333 0.250000
O O15 0.437256 0.815311 0.000000
O O16 0.110830 0.110830 0.750000
O O17 0.128106 0.000000 0.750000
O O18 0.143444 0.059995 0.000000
#
# Coordination Sequence:
#
# PCOD9562389 Si02
#       6
#    16  16  16  16  16  16
#     4  10  20  35  58  88 121 159 198 246 300 357
#     4  10  19  30  49  78 110 144 180 224 279 341
#     4  11  21  37  58  83 113 146 183 232 290 352
#     4  10  23  39  58  81 113 154 202 255 308 360
#     4  11  23  41  61  87 120 162 209 259 307 363
#     4  12  26  45  65  88 113 144 183 232 290 360
#
# _framework density 19.451656
#
# number of rings (size 3 to 8) (size 9 to 14) (size 15 to 20)
#    0.000    1.333    1.667    4.500    0.000    5.833 
#    0.000    2.500    0.000    0.000    0.000    0.000 
#    0.000    0.333    0.000    3.333    0.000    2.000 
#
# Total GULP energy -534954.682488 kJ/mol
# GULP energy per Si atom -5572.444609 kJ/mol
# Density = 1.940738 g / cm^3
# Si number density = 19.451656 Si / 1000 Ang^3
#
#
#
# Elastic Constant Matrix: (Units=GPa)
#
#
# Indices 1 2 3 4 5 6 
#
# 1 92.1343 27.8859 49.1749 0.0000 0.0000 0.0000
# 2 27.8859 92.1351 49.1755 0.0000 0.0000 0.0000
# 3 49.1749 49.1755 128.2937 0.0000 0.0000 0.0000
# 4 0.0000 0.0000 0.0000 22.5858 0.0000 0.0000
# 5 0.0000 0.0000 0.0000 0.0000 22.5852 0.0000
# 6 0.0000 0.0000 0.0000 0.0000 0.0000 7.7813
#
#
#
# Elastic Compliance Matrix: (Units=1/GPa)
#
#
# Indices 1 2 3 4 5 6 
#
# 1 0.013856 -0.001709 -0.004656 0.000000 0.000000 0.000000
# 2 -0.001709 0.013856 -0.004656 0.000000 0.000000 0.000000
# 3 -0.004656 -0.004656 0.011364 0.000000 0.000000 0.000000
# 4 0.000000 0.000000 0.000000 0.044276 0.000000 0.000000
# 5 0.000000 0.000000 0.000000 0.000000 0.044277 0.000000
# 6 0.000000 0.000000 0.000000 0.000000 0.000000 0.128513
#
#
# Mechanical properties :
#
#
# Convention : Reuss Voigt Hill
#
# Bulk Modulus (GPa) = 58.70519 62.78175 60.74347
# Shear Modulus (GPa) = 17.61428 23.01224 20.31326
#
# Velocity S-wave (km/s) = 3.01249 3.44328 3.23506
# Velocity P-wave (km/s) = 6.50735 6.93931 6.72680
#
# Compressibility (1/GPa) = 0.01703427
#
# Stress axis : x y z
#
# Youngs Moduli (GPa) = 72.17119 72.17151 87.99727
#
# Poissons Ratio (x) = 0.12331 0.40972
# Poissons Ratio (y) = 0.12331 0.40973
# Poissons Ratio (z) = 0.33603 0.33604
#
# Static dielectric constant tensor:
#      x y z
#    x 1.692480 0.000000 0.000000 
#    y 0.000000 1.692480 0.000000 
#    z 0.000000 0.000000 1.643190 
# 
# From -- ./inp_files/1353.got.cif
#   From: 2010.05.17/outbox.cif.g08.bks.cpg/sg124_1_cif.got.tgz:1353.got - 2010.05.20 11:49:17.
