data_PCOD9562982
_publ_section_title
;
Structure prediction by ZEFSAII (Michael W. Deem and Ramdas Pophale) SiO2 
 PCOD9562982
Probable space group: P 4/N B M
;
_chemical_formula_sum "Si O2"
_cell_formula_units_Z 104
_cell_length_a 19.552696
_cell_length_b 19.552696
_cell_length_c 15.837703
_cell_angle_alpha 90.000000
_cell_angle_beta 90.000000
_cell_angle_gamma 90.000000
_cell_volume 6054.879305
_symmetry_space_group_name_H-M "P 4/N B M"
_symmetry_group_IT_number 125
_space_group.IT_coordinate_system_code '2'
_symmetry_cell_setting 'tetragonal'
loop_
_space_group_symop_operation_xyz
x,y,z
1/2-y,x,z
1/2-x,1/2-y,z
y,1/2-x,z
x,1/2-y,-z
1/2-x,y,-z
y,x,-z
1/2-y,1/2-x,-z
-x,-y,-z
1/2+y,-x,-z
1/2+x,1/2+y,-z
-y,1/2+x,-z
-x,1/2+y,z
1/2+x,-y,z
-y,-x,z
1/2+y,1/2+x,z
loop_
_atom_site_type_symbol
_atom_site_label
_atom_site_fract_x
_atom_site_fract_y
_atom_site_fract_z
Si Si1 0.126907 0.986612 0.690081
Si Si2 0.029567 0.417917 0.409761
Si Si3 0.006726 0.389282 0.029328
Si Si4 0.141261 0.750000 0.500000
Si Si5 0.325467 0.559610 0.179228
Si Si6 0.527283 0.219661 0.367809
Si Si7 0.440046 0.826702 0.127925
O O1 0.081992 0.918009 0.668424
O O2 0.200273 0.991383 0.643553
O O3 0.144412 0.980494 0.789642
O O4 0.078693 0.048962 0.661334
O O5 0.057985 0.442016 0.500000
O O6 0.955501 0.455501 0.399506
O O7 0.023636 0.336206 0.407360
O O8 0.950408 0.450408 0.029133
O O9 0.001121 0.356265 0.121574
O O10 0.982558 0.337632 0.956970
O O11 0.077108 0.422892 0.000000
O O12 0.190246 0.809755 0.533540
O O13 0.093992 0.721046 0.573692
O O14 0.377910 0.622091 0.174166
O O15 0.311325 0.540852 0.275535
O O16 0.251715 0.577708 0.141932
O O17 0.372423 0.872423 0.121569
#
# Coordination Sequence:
#
# PCOD9562982 Si02
#       7
#    16  16  16   8  16  16  16
#     4   9  19  34  53  77 108 141 175 217 268 317
#     4  10  20  33  51  74 101 136 177 223 271 316
#     4   9  18  31  49  71  99 134 171 211 255 300
#     4  11  22  34  50  74 108 147 180 216 268 323
#     4  10  20  32  49  76 104 135 174 214 254 309
#     4  11  21  35  54  77 106 138 181 224 264 315
#     4   9  18  32  49  72 105 141 170 204 252 309
#
# _framework density 17.17623
#
# number of rings (size 3 to 8) (size 9 to 14) (size 15 to 20)
#    0.000    2.231    0.000    3.231    2.154    2.154 
#    0.000    0.000    0.000    3.231    0.000    1.077 
#    0.000    4.923    0.000    0.000    0.000    0.000 
#
# Total GULP energy -579736.287161 kJ/mol
# GULP energy per Si atom -5574.387377 kJ/mol
# Density = 1.713714 g / cm^3
# Si number density = 17.176230 Si / 1000 Ang^3
#
#
#
# Elastic Constant Matrix: (Units=GPa)
#
#
# Indices 1 2 3 4 5 6 
#
# 1 56.7469 34.6457 26.3595 0.0000 0.0000 0.0000
# 2 34.6457 56.7468 26.3591 0.0000 0.0000 0.0000
# 3 26.3595 26.3591 69.1894 0.0000 0.0000 0.0000
# 4 0.0000 0.0000 0.0000 22.0973 0.0000 0.0000
# 5 0.0000 0.0000 0.0000 0.0000 22.0976 0.0000
# 6 0.0000 0.0000 0.0000 0.0000 0.0000 19.8713
#
#
#
# Elastic Compliance Matrix: (Units=1/GPa)
#
#
# Indices 1 2 3 4 5 6 
#
# 1 0.029635 -0.015611 -0.005343 0.000000 0.000000 0.000000
# 2 -0.015611 0.029635 -0.005342 0.000000 0.000000 0.000000
# 3 -0.005343 -0.005342 0.018524 0.000000 0.000000 0.000000
# 4 0.000000 0.000000 0.000000 0.045254 0.000000 0.000000
# 5 0.000000 0.000000 0.000000 0.000000 0.045254 0.000000
# 6 0.000000 0.000000 0.000000 0.000000 0.000000 0.050324
#
#
# Mechanical properties :
#
#
# Convention : Reuss Voigt Hill
#
# Bulk Modulus (GPa) = 39.68154 39.71241 39.69698
# Shear Modulus (GPa) = 17.88143 19.16782 18.52462
#
# Velocity S-wave (km/s) = 3.23004 3.34421 3.28762
# Velocity P-wave (km/s) = 6.08799 6.17109 6.12968
#
# Compressibility (1/GPa) = 0.02520064
#
# Stress axis : x y z
#
# Youngs Moduli (GPa) = 33.74370 33.74384 53.98444
#
# Poissons Ratio (x) = 0.52679 0.28843
# Poissons Ratio (y) = 0.52679 0.28841
# Poissons Ratio (z) = 0.18029 0.18027
#
# Static dielectric constant tensor:
#      x y z
#    x 1.578660 0.000000 0.000000 
#    y 0.000000 1.578660 0.000000 
#    z 0.000000 0.000000 1.620960 
# 
# From -- ./inp_files/5495.got.cif
#   From: 2010.05.17/outbox.cif.g08.bks.cpg/sg125_3_cif.got.tgz:5495.got - 2010.05.20 11:54:10.
