data_PCOD9562371
_publ_section_title
;
Structure prediction by ZEFSAII (Michael W. Deem and Ramdas Pophale) SiO2 
 PCOD9562371
Probable space group: P 4/M C C
;
_chemical_formula_sum "Si O2"
_cell_formula_units_Z 96
_cell_length_a 26.561195
_cell_length_b 26.561195
_cell_length_c 8.868054
_cell_angle_alpha 90.000000
_cell_angle_beta 90.000000
_cell_angle_gamma 90.000000
_cell_volume 6256.386201
_symmetry_space_group_name_H-M "P 4/M C C"
_symmetry_group_IT_number 124
_symmetry_cell_setting 'tetragonal'
loop_
_space_group_symop_operation_xyz
x,y,z
-y,x,z
-x,-y,z
y,-x,z
x,-y,1/2-z
-x,y,1/2-z
y,x,1/2-z
-y,-x,1/2-z
-x,-y,-z
y,-x,-z
x,y,-z
-y,x,-z
-x,y,1/2+z
x,-y,1/2+z
-y,-x,1/2+z
y,x,1/2+z
loop_
_atom_site_type_symbol
_atom_site_label
_atom_site_fract_x
_atom_site_fract_y
_atom_site_fract_z
Si Si1 0.137505 0.637034 0.176951
Si Si2 0.281257 0.794147 0.179677
Si Si3 0.444011 0.054213 0.817171
Si Si4 0.887446 0.205409 0.668687
Si Si5 0.697813 0.947742 0.328974
Si Si6 0.947738 0.876186 0.324937
O O1 0.185332 0.664991 0.255852
O O2 0.105979 0.586346 0.222751
O O3 0.093374 0.675751 0.216683
O O4 0.148311 0.633213 0.000000
O O5 0.256062 0.743939 0.250000
O O6 0.239526 0.838612 0.204562
O O7 0.286295 0.788754 0.000000
O O8 0.500000 0.058756 0.750000
O O9 0.424503 0.000000 0.750000
O O10 0.444032 0.050022 0.000000
O O11 0.880576 0.183405 0.500000
O O12 0.933635 0.244167 0.658107
O O13 0.905430 0.165750 0.790158
O O14 0.676413 0.944255 0.500000
O O15 0.690149 0.000000 0.250000
O O16 0.926875 0.926875 0.250000
O O17 0.954904 0.882755 0.500000
O O18 0.000000 0.860813 0.250000
#
# Coordination Sequence:
#
# PCOD9562371 Si02
#       6
#    16  16  16  16  16  16
#     4  10  20  32  46  65  88 116 150 184 221 265
#     4  10  20  33  50  70  93 119 145 175 211 253
#     4  10  20  32  48  68  91 121 155 193 234 278
#     4   9  19  34  50  69  88 107 130 154 187 230
#     4  10  19  29  43  63  87 113 139 168 204 246
#     4  12  25  40  56  70  82  96 115 140 174 217
#
# _framework density 15.344322
#
# number of rings (size 3 to 8) (size 9 to 14) (size 15 to 20)
#    0.000    1.833    0.000    6.500    0.000   10.833 
#    0.000    0.833    0.000    0.000    0.000    0.000 
#    0.000    0.000    0.000    0.000    0.000    0.000 
#
# Total GULP energy -534462.075904 kJ/mol
# GULP energy per Si atom -5567.313291 kJ/mol
# Density = 1.530940 g / cm^3
# Si number density = 15.344322 Si / 1000 Ang^3
#
#
#
# Elastic Constant Matrix: (Units=GPa)
#
#
# Indices 1 2 3 4 5 6 
#
# 1 53.5440 33.2940 26.6685 0.0000 0.0000 0.0000
# 2 33.2940 53.5453 26.6708 0.0000 0.0000 0.0000
# 3 26.6685 26.6708 64.0310 0.0000 0.0000 0.0000
# 4 0.0000 0.0000 0.0000 15.2080 0.0000 0.0000
# 5 0.0000 0.0000 0.0000 0.0000 15.2079 0.0000
# 6 0.0000 0.0000 0.0000 0.0000 0.0000 30.6154
#
#
#
# Elastic Compliance Matrix: (Units=1/GPa)
#
#
# Indices 1 2 3 4 5 6 
#
# 1 0.032428 -0.016953 -0.006444 0.000000 0.000000 0.000000
# 2 -0.016953 0.032428 -0.006446 0.000000 0.000000 0.000000
# 3 -0.006444 -0.006446 0.020987 0.000000 0.000000 0.000000
# 4 0.000000 0.000000 0.000000 0.065755 0.000000 0.000000
# 5 0.000000 0.000000 0.000000 0.000000 0.065755 0.000000
# 6 0.000000 0.000000 0.000000 0.000000 0.000000 0.032663
#
#
# Mechanical properties :
#
#
# Convention : Reuss Voigt Hill
#
# Bulk Modulus (GPa) = 38.23460 38.26523 38.24991
# Shear Modulus (GPa) = 15.70241 17.83870 16.77055
#
# Velocity S-wave (km/s) = 3.20243 3.41333 3.30956
# Velocity P-wave (km/s) = 6.21659 6.36603 6.29175
#
# Compressibility (1/GPa) = 0.02615432
#
# Stress axis : x y z
#
# Youngs Moduli (GPa) = 30.83786 30.83737 47.64957
#
# Poissons Ratio (x) = 0.52280 0.30707
# Poissons Ratio (y) = 0.52281 0.30717
# Poissons Ratio (z) = 0.19873 0.19879
#
# Static dielectric constant tensor:
#      x y z
#    x 1.803920 0.000000 0.000000 
#    y 0.000000 1.804030 0.000000 
#    z 0.000000 0.000000 1.628400 
# 
# From -- ./inp_files/1502.got.cif
#   From: 2010.05.17/outbox.cif.g08.bks.cpg/sg124_1_cif.got.tgz:1502.got - 2010.05.20 11:49:17.
