data_PCOD9562084
_publ_section_title
;
Structure prediction by ZEFSAII (Michael W. Deem and Ramdas Pophale) SiO2 
 PCOD9562084
Probable space group: P 4/M M M
;
_chemical_formula_sum "Si O2"
_cell_formula_units_Z 80
_cell_length_a 12.890202
_cell_length_b 12.890202
_cell_length_c 29.325479
_cell_angle_alpha 90.000000
_cell_angle_beta 90.000000
_cell_angle_gamma 90.000000
_cell_volume 4872.642635
_symmetry_space_group_name_H-M "P 4/M M M"
_symmetry_group_IT_number 123
_symmetry_cell_setting 'tetragonal'
loop_
_space_group_symop_operation_xyz
x,y,z
-y,x,z
-x,-y,z
y,-x,z
x,-y,-z
-x,y,-z
y,x,-z
-y,-x,-z
-x,-y,-z
y,-x,-z
x,y,-z
-y,x,-z
-x,y,z
x,-y,z
-y,-x,z
y,x,z
loop_
_atom_site_type_symbol
_atom_site_label
_atom_site_fract_x
_atom_site_fract_y
_atom_site_fract_z
Si Si1 0.873980 0.500000 0.893143
Si Si2 0.291541 0.878753 0.054539
Si Si3 0.209244 0.620085 0.357926
Si Si4 0.125848 0.500000 0.211522
Si Si5 0.706516 0.121511 0.266704
Si Si6 0.293959 0.878232 0.551176
O O1 0.843794 0.395269 0.919418
O O2 0.838846 0.500000 0.840808
O O3 0.000000 0.500000 0.893214
O O4 0.194806 0.805195 0.065852
O O5 0.271143 0.000000 0.065557
O O6 0.309176 0.872999 0.000000
O O7 0.222276 0.500000 0.347135
O O8 0.316827 0.683174 0.357425
O O9 0.138029 0.673296 0.319380
O O10 0.159327 0.634208 0.407723
O O11 0.155586 0.394254 0.237403
O O12 0.000000 0.500000 0.211779
O O13 0.804170 0.195831 0.257254
O O14 0.727695 0.000000 0.258088
O O15 0.336482 0.859560 0.500000
O O16 0.188979 0.811022 0.555073
O O17 0.273406 0.000000 0.555585
#
# Coordination Sequence:
#
# PCOD9562084 Si02
#       6
#     8  16  16   8  16  16
#     4   9  17  30  49  71  96 131 174 214 249 290
#     4   9  17  29  47  73 104 137 172 210 253 301
#     4  10  20  34  52  72  96 127 163 205 250 297
#     4   9  18  33  52  72  96 130 171 210 248 297
#     4  10  20  34  53  77 103 131 164 203 250 303
#     4   9  18  31  47  70  98 127 160 197 240 294
#
# _framework density 16.418195000000001
#
# number of rings (size 3 to 8) (size 9 to 14) (size 15 to 20)
#    0.000    2.600    1.000    0.900    0.000    4.400 
#    0.000    3.000    0.000    4.200    0.000   11.200 
#    0.000    0.000    0.000    0.000    0.000    0.000 
#
# Total GULP energy -445748.600963 kJ/mol
# GULP energy per Si atom -5571.857512 kJ/mol
# Density = 1.638083 g / cm^3
# Si number density = 16.418195 Si / 1000 Ang^3
#
#
#
# Elastic Constant Matrix: (Units=GPa)
#
#
# Indices 1 2 3 4 5 6 
#
# 1 98.9548 53.3717 42.7221 0.0000 0.0000 0.0000
# 2 53.3717 98.9548 42.7221 0.0000 0.0000 0.0000
# 3 42.7221 42.7221 71.6768 0.0000 0.0000 0.0000
# 4 0.0000 0.0000 0.0000 17.6255 0.0000 0.0000
# 5 0.0000 0.0000 0.0000 0.0000 17.6255 0.0000
# 6 0.0000 0.0000 0.0000 0.0000 0.0000 6.3598
#
#
#
# Elastic Compliance Matrix: (Units=1/GPa)
#
#
# Indices 1 2 3 4 5 6 
#
# 1 0.015900 -0.006038 -0.005878 0.000000 0.000000 0.000000
# 2 -0.006038 0.015900 -0.005878 0.000000 0.000000 0.000000
# 3 -0.005878 -0.005878 0.020959 0.000000 0.000000 0.000000
# 4 0.000000 0.000000 0.000000 0.056736 0.000000 0.000000
# 5 0.000000 0.000000 0.000000 0.000000 0.056736 0.000000
# 6 0.000000 0.000000 0.000000 0.000000 0.000000 0.157237
#
#
# Mechanical properties :
#
#
# Convention : Reuss Voigt Hill
#
# Bulk Modulus (GPa) = 58.24041 60.80201 59.52121
# Shear Modulus (GPa) = 13.70689 17.04019 15.37354
#
# Velocity S-wave (km/s) = 2.89253 3.22512 3.06334
# Velocity P-wave (km/s) = 6.83416 7.14018 6.98885
#
# Compressibility (1/GPa) = 0.01717021
#
# Stress axis : x y z
#
# Youngs Moduli (GPa) = 62.89306 62.89306 47.71274
#
# Poissons Ratio (x) = 0.37974 0.28046
# Poissons Ratio (y) = 0.37974 0.28046
# Poissons Ratio (z) = 0.36970 0.36970
#
# Static dielectric constant tensor:
#      x y z
#    x 1.529360 0.000000 0.000000 
#    y 0.000000 1.529360 0.000000 
#    z 0.000000 0.000000 1.567580 
# 
# From -- ./inp_files/8362.got.cif
#   From: 2010.05.17/outbox.cif.g08.bks.cpg/sg123_5_cif.got.tgz:8362.got - 2010.05.20 11:43:04.
