data_PCOD9562819
_publ_section_title
;
Structure prediction by ZEFSAII (Michael W. Deem and Ramdas Pophale) SiO2 
 PCOD9562819
Probable space group: P 4/M C C
;
_chemical_formula_sum "Si O2"
_cell_formula_units_Z 60
_cell_length_a 11.734781
_cell_length_b 11.734781
_cell_length_c 21.153557
_cell_angle_alpha 90.000000
_cell_angle_beta 90.000000
_cell_angle_gamma 90.000000
_cell_volume 2912.952367
_symmetry_space_group_name_H-M "P 4/M C C"
_symmetry_group_IT_number 124
_symmetry_cell_setting 'tetragonal'
loop_
_space_group_symop_operation_xyz
x,y,z
-y,x,z
-x,-y,z
y,-x,z
x,-y,1/2-z
-x,y,1/2-z
y,x,1/2-z
-y,-x,1/2-z
-x,-y,-z
y,-x,-z
x,y,-z
-y,x,-z
-x,y,1/2+z
x,-y,1/2+z
-y,-x,1/2+z
y,x,1/2+z
loop_
_atom_site_type_symbol
_atom_site_label
_atom_site_fract_x
_atom_site_fract_y
_atom_site_fract_z
Si Si1 0.245249 0.999190 0.676173
Si Si2 0.369890 0.355205 0.000000
Si Si3 0.759500 0.345135 0.869566
Si Si4 0.000000 0.000000 0.369174
Si Si5 0.799812 0.425376 0.313834
O O1 0.288704 0.877141 0.652700
O O2 0.206692 0.000000 0.750000
O O3 0.349427 0.088202 0.675256
O O4 0.135686 0.035895 0.636379
O O5 0.508856 0.346018 0.000000
O O6 0.320269 0.291263 0.938448
O O7 0.780804 0.479282 0.866265
O O8 0.663096 0.303697 0.820356
O O9 0.808684 0.500000 0.250000
#
# Coordination Sequence:
#
# PCOD9562819 Si02
#       5
#    16   8  16   4  16
#     4  12  24  43  67 103 139 177 230 286 353 425
#     4  11  24  48  69  94 139 193 244 283 338 428
#     4  12  25  44  71 100 139 188 232 288 352 421
#     4  12  25  40  72  97 134 189 220 272 357 430
#     4  12  25  42  67 105 146 179 225 291 362 420
#
# _framework density 20.597657999999999
#
# number of rings (size 3 to 8) (size 9 to 14) (size 15 to 20)
#    0.000    0.133    8.000    2.800    0.000    0.533 
#    0.000    5.333    0.000    0.800    0.000    0.000 
#    0.000    0.000    0.000    0.000    0.000    0.000 
#
# Total GULP energy -334126.752247 kJ/mol
# GULP energy per Si atom -5568.779204 kJ/mol
# Density = 2.055078 g / cm^3
# Si number density = 20.597658 Si / 1000 Ang^3
#
#
#
# Elastic Constant Matrix: (Units=GPa)
#
#
# Indices 1 2 3 4 5 6 
#
# 1 290.7349 -115.0457 25.2983 0.0000 0.0000 0.0000
# 2 -115.0457 290.7349 25.2983 0.0000 0.0000 0.0000
# 3 25.2983 25.2983 95.7491 0.0000 0.0000 0.0000
# 4 0.0000 0.0000 0.0000 3.2626 0.0000 0.0000
# 5 0.0000 0.0000 0.0000 0.0000 3.2626 0.0000
# 6 0.0000 0.0000 0.0000 0.0000 0.0000 40.1191
#
#
#
# Elastic Compliance Matrix: (Units=1/GPa)
#
#
# Indices 1 2 3 4 5 6 
#
# 1 0.004313 0.001848 -0.001628 0.000000 0.000000 0.000000
# 2 0.001848 0.004313 -0.001628 0.000000 0.000000 0.000000
# 3 -0.001628 -0.001628 0.011304 0.000000 0.000000 0.000000
# 4 0.000000 0.000000 0.000000 0.306504 0.000000 0.000000
# 5 0.000000 0.000000 0.000000 0.000000 0.306504 0.000000
# 6 0.000000 0.000000 0.000000 0.000000 0.000000 0.024926
#
#
# Mechanical properties :
#
#
# Convention : Reuss Voigt Hill
#
# Bulk Modulus (GPa) = 58.43016 60.92456 59.67736
# Shear Modulus (GPa) = 7.50320 58.77338 33.13829
#
# Velocity S-wave (km/s) = 1.91067 5.34752 4.01538
# Velocity P-wave (km/s) = 5.77031 8.23229 7.10869
#
# Compressibility (1/GPa) = 0.01711445
#
# Stress axis : x y z
#
# Youngs Moduli (GPa) = 231.88345 231.88345 88.46345
#
# Poissons Ratio (x) = -0.42855 0.14399
# Poissons Ratio (y) = -0.42855 0.14399
# Poissons Ratio (z) = 0.37744 0.37744
#
# Static dielectric constant tensor:
#      x y z
#    x 1.758020 0.000000 0.000000 
#    y 0.000000 1.758020 0.000000 
#    z 0.000000 0.000000 1.780220 
# 
# From -- ./inp_files/4989.got.cif
#   From: 2010.05.17/outbox.cif.g08.bks.cpg/sg124_3_cif.got.tgz:4989.got - 2010.05.20 11:49:17.
