data_PCOD9562740
_publ_section_title
;
Structure prediction by ZEFSAII (Michael W. Deem and Ramdas Pophale) SiO2 
 PCOD9562740
Probable space group: P 4/M C C
;
_chemical_formula_sum "Si O2"
_cell_formula_units_Z 88
_cell_length_a 12.207087
_cell_length_b 12.207087
_cell_length_c 29.264760
_cell_angle_alpha 90.000000
_cell_angle_beta 90.000000
_cell_angle_gamma 90.000000
_cell_volume 4360.828892
_symmetry_space_group_name_H-M "P 4/M C C"
_symmetry_group_IT_number 124
_symmetry_cell_setting 'tetragonal'
loop_
_space_group_symop_operation_xyz
x,y,z
-y,x,z
-x,-y,z
y,-x,z
x,-y,1/2-z
-x,y,1/2-z
y,x,1/2-z
-y,-x,1/2-z
-x,-y,-z
y,-x,-z
x,y,-z
-y,x,-z
-x,y,1/2+z
x,-y,1/2+z
-y,-x,1/2+z
y,x,1/2+z
loop_
_atom_site_type_symbol
_atom_site_label
_atom_site_fract_x
_atom_site_fract_y
_atom_site_fract_z
Si Si1 0.000000 0.500000 0.627564
Si Si2 0.287484 0.289545 0.337996
Si Si3 0.489583 0.186769 0.696596
Si Si4 0.681257 0.456070 0.000000
Si Si5 0.832486 0.344858 0.927068
Si Si6 0.831039 0.080788 0.500000
Si Si7 0.866337 0.891972 0.304587
O O1 0.910792 0.452568 0.663014
O O2 0.931666 0.587771 0.597312
O O3 0.222256 0.389503 0.316518
O O4 0.409622 0.285496 0.318478
O O5 0.256626 0.298218 0.391067
O O6 0.232039 0.180913 0.319300
O O7 0.500000 0.158949 0.750000
O O8 0.628450 0.577490 0.000000
O O9 0.761086 0.429038 0.042412
O O10 0.882223 0.245494 0.957161
O O11 0.949985 0.141745 0.500000
O O12 0.881603 0.881603 0.250000
O O13 0.984480 0.851679 0.321503
#
# Coordination Sequence:
#
# PCOD9562740 Si02
#       7
#     8  16  16   8  16   8  16
#     4  10  25  41  64 102 130 180 216 279 327 398
#     4  11  25  40  65  96 130 180 223 280 333 400
#     4  11  24  43  64  94 135 181 231 276 330 391
#     4  10  24  45  74  98 128 167 216 282 338 412
#     4  10  25  43  67 100 131 177 220 275 347 404
#     4  10  24  43  68 100 136 175 214 280 350 434
#     4   9  19  36  58  86 122 169 223 274 325 382
#
# _framework density 20.179648
#
# number of rings (size 3 to 8) (size 9 to 14) (size 15 to 20)
#    0.000    1.818    0.000    2.455   12.727    3.273 
#    0.000    2.727    0.000    0.000    0.000    0.000 
#    0.000    0.000    0.000    0.000    0.000    0.000 
#
# Total GULP energy -490501.482856 kJ/mol
# GULP energy per Si atom -5573.880487 kJ/mol
# Density = 2.013372 g / cm^3
# Si number density = 20.179648 Si / 1000 Ang^3
#
#
#
# Elastic Constant Matrix: (Units=GPa)
#
#
# Indices 1 2 3 4 5 6 
#
# 1 37.2190 96.8337 41.0178 0.0000 0.0000 0.0000
# 2 96.8337 37.2190 41.0178 0.0000 0.0000 0.0000
# 3 41.0178 41.0178 119.0513 0.0000 0.0000 0.0000
# 4 0.0000 0.0000 0.0000 16.1371 0.0000 0.0000
# 5 0.0000 0.0000 0.0000 0.0000 16.1371 0.0000
# 6 0.0000 0.0000 0.0000 0.0000 0.0000 3.5457
#
#
#
# Elastic Compliance Matrix: (Units=1/GPa)
#
#
# Indices 1 2 3 4 5 6 
#
# 1 -0.003661 0.013114 -0.003257 0.000000 0.000000 0.000000
# 2 0.013114 -0.003661 -0.003257 0.000000 0.000000 0.000000
# 3 -0.003257 -0.003257 0.010644 0.000000 0.000000 0.000000
# 4 0.000000 0.000000 0.000000 0.061969 0.000000 0.000000
# 5 0.000000 0.000000 0.000000 0.000000 0.061969 0.000000
# 6 0.000000 0.000000 0.000000 0.000000 0.000000 0.282035
#
#
# Mechanical properties :
#
#
# Convention : Reuss Voigt Hill
#
# Bulk Modulus (GPa) = 60.52469 61.24753 60.88611
# Shear Modulus (GPa) = 12.45012 8.13866 10.29439
#
# Velocity S-wave (km/s) = 2.48657 2.01044 2.26107
# Velocity P-wave (km/s) = 6.18887 5.98383 6.08721
#
# Compressibility (1/GPa) = 0.01652218
#
# Stress axis : x y z
#
# Youngs Moduli (GPa) = -273.16571 -273.16571 93.94984
#
# Poissons Ratio (x) = 3.58219 0.30598
# Poissons Ratio (y) = 3.58219 0.30598
# Poissons Ratio (z) = -0.88966 -0.88966
#
# Static dielectric constant tensor:
#      x y z
#    x 1.754820 0.000000 0.000000 
#    y 0.000000 1.754820 0.000000 
#    z 0.000000 0.000000 1.774660 
# 
# From -- ./inp_files/7121.got.cif
#   From: 2010.05.17/outbox.cif.g08.bks.cpg/sg124_4_cif.got.tgz:7121.got - 2010.05.20 11:49:17.
