data_PCOD9562527
_publ_section_title
;
Structure prediction by ZEFSAII (Michael W. Deem and Ramdas Pophale) SiO2 
 PCOD9562527
Probable space group: P 4/M C C
;
_chemical_formula_sum "Si O2"
_cell_formula_units_Z 52
_cell_length_a 18.835408
_cell_length_b 18.835408
_cell_length_c 9.305473
_cell_angle_alpha 90.000000
_cell_angle_beta 90.000000
_cell_angle_gamma 90.000000
_cell_volume 3301.326800
_symmetry_space_group_name_H-M "P 4/M C C"
_symmetry_group_IT_number 124
_symmetry_cell_setting 'tetragonal'
loop_
_space_group_symop_operation_xyz
x,y,z
-y,x,z
-x,-y,z
y,-x,z
x,-y,1/2-z
-x,y,1/2-z
y,x,1/2-z
-y,-x,1/2-z
-x,-y,-z
y,-x,-z
x,y,-z
-y,x,-z
-x,y,1/2+z
x,-y,1/2+z
-y,-x,1/2+z
y,x,1/2+z
loop_
_atom_site_type_symbol
_atom_site_label
_atom_site_fract_x
_atom_site_fract_y
_atom_site_fract_z
Si Si1 0.359024 0.067985 0.335127
Si Si2 0.207191 0.690742 0.832376
Si Si3 0.671330 0.429516 0.833389
Si Si4 0.500000 0.000000 0.750000
O O1 0.336283 0.071779 0.500000
O O2 0.337686 0.138009 0.249359
O O3 0.444136 0.050809 0.331981
O O4 0.328383 0.000000 0.250000
O O5 0.243076 0.756924 0.750000
O O6 0.265607 0.627969 0.828953
O O7 0.192637 0.706826 0.000000
O O8 0.693258 0.500000 0.750000
O O9 0.605342 0.394659 0.750000
O O10 0.654583 0.443976 0.000000
#
# Coordination Sequence:
#
# PCOD9562527 Si02
#       4
#    16  16  16   4
#     4  10  20  33  51  75 105 137 173 212 255 309
#     4  10  21  36  53  74 101 135 172 211 257 310
#     4  10  21  35  50  68  89 118 157 204 253 304
#     4   8  22  32  50  76 110 140 174 208 266 312
#
# _framework density 15.751244
#
# number of rings (size 3 to 8) (size 9 to 14) (size 15 to 20)
#    0.923    1.231    0.000    3.231    2.154    4.000 
#    0.000    1.538    0.000    0.000    0.000    0.000 
#    0.000    0.615    0.000    6.154    0.000    3.692 
#
# Total GULP energy -289535.101586 kJ/mol
# GULP energy per Si atom -5567.982723 kJ/mol
# Density = 1.571539 g / cm^3
# Si number density = 15.751244 Si / 1000 Ang^3
#
#
#
# Elastic Constant Matrix: (Units=GPa)
#
#
# Indices 1 2 3 4 5 6 
#
# 1 73.3899 18.0773 53.1724 0.0000 0.0000 0.0000
# 2 18.0773 73.3837 53.1699 0.0000 0.0000 0.0000
# 3 53.1724 53.1699 180.6378 0.0000 0.0000 0.0000
# 4 0.0000 0.0000 0.0000 17.2487 0.0000 0.0000
# 5 0.0000 0.0000 0.0000 0.0000 17.2493 0.0000
# 6 0.0000 0.0000 0.0000 0.0000 0.0000 20.4887
#
#
#
# Elastic Compliance Matrix: (Units=1/GPa)
#
#
# Indices 1 2 3 4 5 6 
#
# 1 0.017350 -0.000729 -0.004893 0.000000 0.000000 0.000000
# 2 -0.000729 0.017352 -0.004893 0.000000 0.000000 0.000000
# 3 -0.004893 -0.004893 0.008416 0.000000 0.000000 0.000000
# 4 0.000000 0.000000 0.000000 0.057975 0.000000 0.000000
# 5 0.000000 0.000000 0.000000 0.000000 0.057973 0.000000
# 6 0.000000 0.000000 0.000000 0.000000 0.000000 0.048807
#
#
# Mechanical properties :
#
#
# Convention : Reuss Voigt Hill
#
# Bulk Modulus (GPa) = 45.27097 64.02784 54.64940
# Shear Modulus (GPa) = 21.16256 24.53013 22.84634
#
# Velocity S-wave (km/s) = 3.66942 3.95060 3.81261
# Velocity P-wave (km/s) = 6.83787 7.84521 7.35880
#
# Compressibility (1/GPa) = 0.02208921
#
# Stress axis : x y z
#
# Youngs Moduli (GPa) = 57.63610 57.63148 118.81744
#
# Poissons Ratio (x) = 0.04202 0.58132
# Poissons Ratio (y) = 0.04202 0.58134
# Poissons Ratio (z) = 0.28199 0.28198
#
# Static dielectric constant tensor:
#      x y z
#    x 1.510680 0.000000 0.000000 
#    y 0.000000 1.510690 0.000000 
#    z 0.000000 0.000000 1.535250 
# 
# From -- ./inp_files/562.got.cif
#   From: 2010.05.17/outbox.cif.g08.bks.cpg/sg124_1_cif.got.tgz:562.got - 2010.05.20 11:49:17.
