data_PCOD9562946
_publ_section_title
;
Structure prediction by ZEFSAII (Michael W. Deem and Ramdas Pophale) SiO2 
 PCOD9562946
Probable space group: P 4/N B M
;
_chemical_formula_sum "Si O2"
_cell_formula_units_Z 96
_cell_length_a 20.040502
_cell_length_b 20.040502
_cell_length_c 13.755877
_cell_angle_alpha 90.000000
_cell_angle_beta 90.000000
_cell_angle_gamma 90.000000
_cell_volume 5524.658987
_symmetry_space_group_name_H-M "P 4/N B M"
_symmetry_group_IT_number 125
_space_group.IT_coordinate_system_code '2'
_symmetry_cell_setting 'tetragonal'
loop_
_space_group_symop_operation_xyz
x,y,z
1/2-y,x,z
1/2-x,1/2-y,z
y,1/2-x,z
x,1/2-y,-z
1/2-x,y,-z
y,x,-z
1/2-y,1/2-x,-z
-x,-y,-z
1/2+y,-x,-z
1/2+x,1/2+y,-z
-y,1/2+x,-z
-x,1/2+y,z
1/2+x,-y,z
-y,-x,z
1/2+y,1/2+x,z
loop_
_atom_site_type_symbol
_atom_site_label
_atom_site_fract_x
_atom_site_fract_y
_atom_site_fract_z
Si Si1 0.440291 0.175942 0.890453
Si Si2 0.781782 0.107128 0.607230
Si Si3 0.566625 0.826144 0.886133
Si Si4 0.836756 0.051055 0.273768
Si Si5 0.469162 0.079496 0.594062
Si Si6 0.483765 0.622646 0.285380
O O1 0.409366 0.249904 0.880281
O O2 0.382779 0.122115 0.869357
O O3 0.504405 0.171877 0.820422
O O4 0.459675 0.165706 0.003615
O O5 0.750000 0.106086 0.500000
O O6 0.825417 0.174584 0.618164
O O7 0.724783 0.095495 0.688353
O O8 0.832910 0.046035 0.627334
O O9 0.511798 0.835182 0.803055
O O10 0.900259 0.099742 0.260330
O O11 0.853704 0.998957 0.361125
O O12 0.422315 0.077686 0.500000
O O13 0.534203 0.034203 0.569696
O O14 0.426990 0.040291 0.675148
O O15 0.423034 0.576967 0.250107
#
# Coordination Sequence:
#
# PCOD9562946 Si02
#       6
#    16  16  16  16  16  16
#     4  10  21  36  58  84 111 144 181 230 284 344
#     4  11  23  38  56  80 113 155 197 236 280 333
#     4  10  20  37  58  83 113 142 182 228 283 347
#     4  11  21  34  54  82 112 145 190 238 284 333
#     4   9  17  30  49  76 109 140 175 224 279 332
#     4  10  19  33  55  81 111 146 184 232 286 338
#
# _framework density 17.376639000000001
#
# number of rings (size 3 to 8) (size 9 to 14) (size 15 to 20)
#    0.000    1.833    3.333    1.500    0.000    4.833 
#    0.000    3.333    0.000    0.000    0.000    0.000 
#    0.000    2.667    0.000    0.000    0.000    0.000 
#
# Total GULP energy -534790.896774 kJ/mol
# GULP energy per Si atom -5570.738508 kJ/mol
# Density = 1.733709 g / cm^3
# Si number density = 17.376639 Si / 1000 Ang^3
#
#
#
# Elastic Constant Matrix: (Units=GPa)
#
#
# Indices 1 2 3 4 5 6 
#
# 1 78.9852 41.3899 46.7261 0.0000 0.0000 0.0000
# 2 41.3899 78.9853 46.7263 0.0000 0.0000 0.0000
# 3 46.7261 46.7263 96.7448 0.0000 0.0000 0.0000
# 4 0.0000 0.0000 0.0000 24.1967 0.0000 0.0000
# 5 0.0000 0.0000 0.0000 0.0000 24.1968 0.0000
# 6 0.0000 0.0000 0.0000 0.0000 0.0000 27.5362
#
#
#
# Elastic Compliance Matrix: (Units=1/GPa)
#
#
# Indices 1 2 3 4 5 6 
#
# 1 0.019945 -0.006654 -0.006419 0.000000 0.000000 0.000000
# 2 -0.006654 0.019945 -0.006419 0.000000 0.000000 0.000000
# 3 -0.006419 -0.006419 0.016537 0.000000 0.000000 0.000000
# 4 0.000000 0.000000 0.000000 0.041328 0.000000 0.000000
# 5 0.000000 0.000000 0.000000 0.000000 0.041328 0.000000
# 6 0.000000 0.000000 0.000000 0.000000 0.000000 0.036316
#
#
# Mechanical properties :
#
#
# Convention : Reuss Voigt Hill
#
# Bulk Modulus (GPa) = 57.33302 58.26667 57.79984
# Shear Modulus (GPa) = 22.70680 23.17746 22.94213
#
# Velocity S-wave (km/s) = 3.61881 3.65612 3.63752
# Velocity P-wave (km/s) = 7.10823 7.17129 7.13983
#
# Compressibility (1/GPa) = 0.01744196
#
# Stress axis : x y z
#
# Youngs Moduli (GPa) = 50.13792 50.13780 60.46927
#
# Poissons Ratio (x) = 0.33362 0.38817
# Poissons Ratio (y) = 0.33362 0.38817
# Poissons Ratio (z) = 0.32185 0.32185
#
# Static dielectric constant tensor:
#      x y z
#    x 1.598840 0.000000 0.000000 
#    y 0.000000 1.598840 0.000000 
#    z 0.000000 0.000000 1.608980 
# 
# From -- ./inp_files/4177.got.cif
#   From: 2010.05.17/outbox.cif.g08.bks.cpg/sg125_3_cif.got.tgz:4177.got - 2010.05.20 11:54:10.
