data_PCOD9562188
_publ_section_title
;
Structure prediction by ZEFSAII (Michael W. Deem and Ramdas Pophale) SiO2 
 PCOD9562188
Probable space group: P 4/M M M
;
_chemical_formula_sum "Si O2"
_cell_formula_units_Z 120
_cell_length_a 26.829383
_cell_length_b 26.829383
_cell_length_c 7.897364
_cell_angle_alpha 90.000000
_cell_angle_beta 90.000000
_cell_angle_gamma 90.000000
_cell_volume 5684.647324
_symmetry_space_group_name_H-M "P 4/M M M"
_symmetry_group_IT_number 123
_symmetry_cell_setting 'tetragonal'
loop_
_space_group_symop_operation_xyz
x,y,z
-y,x,z
-x,-y,z
y,-x,z
x,-y,-z
-x,y,-z
y,x,-z
-y,-x,-z
-x,-y,-z
y,-x,-z
x,y,-z
-y,x,-z
-x,y,z
x,-y,z
-y,-x,z
y,x,z
loop_
_atom_site_type_symbol
_atom_site_label
_atom_site_fract_x
_atom_site_fract_y
_atom_site_fract_z
Si Si1 0.054340 0.866177 0.797883
Si Si2 0.108703 0.556848 0.800476
Si Si3 0.944641 0.753993 0.306074
Si Si4 0.815863 0.638038 0.197661
Si Si5 0.560249 0.000000 0.691669
Si Si6 0.445497 0.366501 0.203716
Si Si7 0.252110 0.829287 0.202482
Si Si8 0.554772 0.746489 0.696835
O O1 0.098077 0.901924 0.741546
O O2 0.054141 0.813924 0.704792
O O3 0.000000 0.890158 0.777003
O O4 0.060690 0.856039 0.000000
O O5 0.114676 0.500000 0.730233
O O6 0.142349 0.600915 0.725341
O O7 0.051439 0.573008 0.780744
O O8 0.120368 0.553304 0.000000
O O9 0.944015 0.736852 0.500000
O O10 0.889249 0.744268 0.233244
O O11 0.000000 0.738142 0.233516
O O12 0.809746 0.693890 0.267189
O O13 0.768090 0.602682 0.210756
O O14 0.828862 0.645273 0.000000
O O15 0.500000 0.000000 0.686366
O O16 0.579279 0.000000 0.500000
O O17 0.500000 0.388840 0.236217
O O18 0.402089 0.402089 0.263107
O O19 0.443859 0.312657 0.286601
O O20 0.441202 0.359719 0.000000
O O21 0.204377 0.795624 0.266645
O O22 0.249592 0.823764 0.000000
O O23 0.557088 0.760796 0.500000
O O24 0.500000 0.763169 0.764562
#
# Coordination Sequence:
#
# PCOD9562188 Si02
#       8
#    16  16  16  16   8  16  16  16
#     4   9  17  29  47  72 101 133 168 206 250 302
#     4   9  17  31  52  76 104 139 179 222 267 320
#     4  10  21  37  57  80 105 135 174 218 265 322
#     4  10  21  37  57  82 109 142 186 233 282 334
#     4   9  17  29  47  73 105 141 177 215 266 323
#     4   9  18  33  54  80 110 146 188 234 284 336
#     4  10  22  40  60  83 112 145 183 230 283 338
#     4  10  21  36  55  81 114 151 191 237 286 337
#
# _framework density 21.109489
#
# number of rings (size 3 to 8) (size 9 to 14) (size 15 to 20)
#    0.000    2.467    0.000    1.800    0.000    7.200 
#    1.200    4.000    0.000    0.000    0.000    3.733 
#    0.000    0.000    0.000    0.000    0.000    0.000 
#
# Total GULP energy -668218.942899 kJ/mol
# GULP energy per Si atom -5568.491191 kJ/mol
# Density = 2.106144 g / cm^3
# Si number density = 21.109489 Si / 1000 Ang^3
#
#
#
# Elastic Constant Matrix: (Units=GPa)
#
#
# Indices 1 2 3 4 5 6 
#
# 1 97.6994 55.5036 8.0903 0.0000 0.0000 0.0000
# 2 55.5036 97.6994 8.0903 0.0000 0.0000 0.0000
# 3 8.0903 8.0903 22.6550 0.0000 0.0000 0.0000
# 4 0.0000 0.0000 0.0000 15.6634 0.0000 0.0000
# 5 0.0000 0.0000 0.0000 0.0000 15.6634 0.0000
# 6 0.0000 0.0000 0.0000 0.0000 0.0000 36.7304
#
#
#
# Elastic Compliance Matrix: (Units=1/GPa)
#
#
# Indices 1 2 3 4 5 6 
#
# 1 0.015241 -0.008458 -0.002422 0.000000 0.000000 0.000000
# 2 -0.008458 0.015241 -0.002422 0.000000 0.000000 0.000000
# 3 -0.002422 -0.002422 0.045870 0.000000 0.000000 0.000000
# 4 0.000000 0.000000 0.000000 0.063843 0.000000 0.000000
# 5 0.000000 0.000000 0.000000 0.000000 0.063843 0.000000
# 6 0.000000 0.000000 0.000000 0.000000 0.000000 0.027225
#
#
# Mechanical properties :
#
#
# Convention : Reuss Voigt Hill
#
# Bulk Modulus (GPa) = 20.10156 40.15802 30.12979
# Shear Modulus (GPa) = 18.21817 23.36944 20.79380
#
# Velocity S-wave (km/s) = 2.94093 3.33086 3.14195
# Velocity P-wave (km/s) = 4.59078 5.81875 5.24085
#
# Compressibility (1/GPa) = 0.04974739
#
# Stress axis : x y z
#
# Youngs Moduli (GPa) = 65.61214 65.61214 21.80057
#
# Poissons Ratio (x) = 0.55495 0.05281
# Poissons Ratio (y) = 0.55495 0.05281
# Poissons Ratio (z) = 0.15893 0.15893
#
# Static dielectric constant tensor:
#      x y z
#    x 1.788800 0.000000 0.000000 
#    y 0.000000 1.788800 0.000000 
#    z 0.000000 0.000000 1.797610 
# 
# From -- ./inp_files/2026.got.cif
#   From: 2010.05.17/outbox.cif.g08.bks.cpg/sg123_2_cif.got.tgz:2026.got - 2010.05.20 11:43:04.
