data_PCOD9562160
_publ_section_title
;
Structure prediction by ZEFSAII (Michael W. Deem and Ramdas Pophale) SiO2 
 PCOD9562160
Probable space group: P 4/M M M
;
_chemical_formula_sum "Si O2"
_cell_formula_units_Z 96
_cell_length_a 25.021542
_cell_length_b 25.021542
_cell_length_c 8.089743
_cell_angle_alpha 90.000000
_cell_angle_beta 90.000000
_cell_angle_gamma 90.000000
_cell_volume 5064.806591
_symmetry_space_group_name_H-M "P 4/M M M"
_symmetry_group_IT_number 123
_symmetry_cell_setting 'tetragonal'
loop_
_space_group_symop_operation_xyz
x,y,z
-y,x,z
-x,-y,z
y,-x,z
x,-y,-z
-x,y,-z
y,x,-z
-y,-x,-z
-x,-y,-z
y,-x,-z
x,y,-z
-y,x,-z
-x,y,z
x,-y,z
-y,-x,z
y,x,z
loop_
_atom_site_type_symbol
_atom_site_label
_atom_site_fract_x
_atom_site_fract_y
_atom_site_fract_z
Si Si1 0.438542 0.938681 0.298016
Si Si2 0.853019 0.231269 0.198847
Si Si3 0.353989 0.439089 0.699925
Si Si4 0.939663 0.854875 0.201904
Si Si5 0.647233 0.852117 0.695092
Si Si6 0.647022 0.268094 0.195336
O O1 0.438329 0.937904 0.500000
O O2 0.500000 0.927330 0.247595
O O3 0.396156 0.894535 0.237060
O O4 0.425435 0.000000 0.249164
O O5 0.798487 0.201514 0.256455
O O6 0.902194 0.194204 0.254785
O O7 0.860555 0.292116 0.247542
O O8 0.851738 0.229566 0.000000
O O9 0.349277 0.438335 0.500000
O O10 0.352224 0.500000 0.756171
O O11 0.409028 0.409028 0.742950
O O12 0.306754 0.402872 0.771251
O O13 0.908884 0.908884 0.249901
O O14 0.000000 0.851617 0.261591
O O15 0.940677 0.853856 0.000000
O O16 0.646250 0.859192 0.500000
O O17 0.636083 0.790070 0.732864
O O18 0.699250 0.300751 0.260353
O O19 0.655010 0.261335 0.000000
#
# Coordination Sequence:
#
# PCOD9562160 Si02
#       6
#    16  16  16  16  16  16
#     4   8  16  33  53  71  95 125 153 186 234 290
#     4   9  18  32  47  65  96 135 165 190 232 291
#     4   9  18  33  53  77 105 136 170 209 250 290
#     4   8  14  25  42  65  93 126 164 204 244 286
#     4  11  21  31  51  80  99 118 158 205 244 289
#     4  10  21  36  52  71 100 137 171 204 247 297
#
# _framework density 18.954326999999999
#
# number of rings (size 3 to 8) (size 9 to 14) (size 15 to 20)
#    0.000    2.833    0.000    3.000    0.000    5.333 
#    0.000    3.333    0.000    3.000    0.000    7.000 
#    0.000    0.000    0.000    3.667    0.000    3.667 
#
# Total GULP energy -535200.240013 kJ/mol
# GULP energy per Si atom -5575.002500 kJ/mol
# Density = 1.891119 g / cm^3
# Si number density = 18.954327 Si / 1000 Ang^3
#
#
#
# Elastic Constant Matrix: (Units=GPa)
#
#
# Indices 1 2 3 4 5 6 
#
# 1 162.2386 89.3228 8.0727 0.0000 0.0000 0.0000
# 2 89.3228 162.2386 8.0727 0.0000 0.0000 0.0000
# 3 8.0727 8.0727 10.0672 0.0000 0.0000 0.0000
# 4 0.0000 0.0000 0.0000 5.5035 0.0000 0.0000
# 5 0.0000 0.0000 0.0000 0.0000 5.5035 0.0000
# 6 0.0000 0.0000 0.0000 0.0000 0.0000 24.1455
#
#
#
# Elastic Compliance Matrix: (Units=1/GPa)
#
#
# Indices 1 2 3 4 5 6 
#
# 1 0.008953 -0.004762 -0.003361 0.000000 0.000000 0.000000
# 2 -0.004762 0.008953 -0.003361 0.000000 0.000000 0.000000
# 3 -0.003361 -0.003361 0.104722 0.000000 0.000000 0.000000
# 4 0.000000 0.000000 0.000000 0.181702 0.000000 0.000000
# 5 0.000000 0.000000 0.000000 0.000000 0.181702 0.000000
# 6 0.000000 0.000000 0.000000 0.000000 0.000000 0.041416
#
#
# Mechanical properties :
#
#
# Convention : Reuss Voigt Hill
#
# Bulk Modulus (GPa) = 10.03399 60.60898 35.32149
# Shear Modulus (GPa) = 8.56702 22.30224 15.43463
#
# Velocity S-wave (km/s) = 2.12829 3.43393 2.85670
# Velocity P-wave (km/s) = 3.36820 6.91146 5.43659
#
# Compressibility (1/GPa) = 0.09966129
#
# Stress axis : x y z
#
# Youngs Moduli (GPa) = 111.69875 111.69875 9.54910
#
# Poissons Ratio (x) = 0.53189 0.03209
# Poissons Ratio (y) = 0.53189 0.03209
# Poissons Ratio (z) = 0.37537 0.37537
#
# Static dielectric constant tensor:
#      x y z
#    x 1.656840 0.000000 0.000000 
#    y 0.000000 1.656840 0.000000 
#    z 0.000000 0.000000 1.690780 
# 
# From -- ./inp_files/1651.got.cif
#   From: 2010.05.17/outbox.cif.g08.bks.cpg/sg123_1_cif.got.tgz:1651.got - 2010.05.20 11:43:04.
