data_PCOD9562772
_publ_section_title
;
Structure prediction by ZEFSAII (Michael W. Deem and Ramdas Pophale) SiO2 
 PCOD9562772
Probable space group: P 4/M C C
;
_chemical_formula_sum "Si O2"
_cell_formula_units_Z 88
_cell_length_a 17.188189
_cell_length_b 17.188189
_cell_length_c 14.902584
_cell_angle_alpha 90.000000
_cell_angle_beta 90.000000
_cell_angle_gamma 90.000000
_cell_volume 4402.727633
_symmetry_space_group_name_H-M "P 4/M C C"
_symmetry_group_IT_number 124
_symmetry_cell_setting 'tetragonal'
loop_
_space_group_symop_operation_xyz
x,y,z
-y,x,z
-x,-y,z
y,-x,z
x,-y,1/2-z
-x,y,1/2-z
y,x,1/2-z
-y,-x,1/2-z
-x,-y,-z
y,-x,-z
x,y,-z
-y,x,-z
-x,y,1/2+z
x,-y,1/2+z
-y,-x,1/2+z
y,x,1/2+z
loop_
_atom_site_type_symbol
_atom_site_label
_atom_site_fract_x
_atom_site_fract_y
_atom_site_fract_z
Si Si1 0.402972 0.584845 0.144275
Si Si2 0.526572 0.128448 0.500000
Si Si3 0.787455 0.198330 0.000000
Si Si4 0.220717 0.123547 0.823761
Si Si5 0.000000 0.129929 0.750000
Si Si6 0.630213 0.281264 0.500000
Si Si7 0.923379 0.350702 0.500000
Si Si8 0.379174 0.043497 0.843504
O O1 0.394786 0.492660 0.123932
O O2 0.397178 0.602823 0.250000
O O3 0.337871 0.625200 0.085591
O O4 0.563487 0.214873 0.500000
O O5 0.434018 0.120169 0.500000
O O6 0.557444 0.085191 0.591065
O O7 0.840207 0.189848 0.913983
O O8 0.759626 0.287166 0.000000
O O9 0.716946 0.139180 0.000000
O O10 0.182543 0.182543 0.750000
O O11 0.189286 0.034420 0.821629
O O12 0.313399 0.108936 0.820814
O O13 0.071708 0.071708 0.750000
O O14 0.977945 0.346713 0.588059
O O15 0.401966 0.000000 0.750000
#
# Coordination Sequence:
#
# PCOD9562772 Si02
#       8
#    16   8   8  16   8   8   8  16
#     4   9  20  40  66  96 129 182 237 279 339 414
#     4  11  26  46  61 101 139 172 240 293 326 404
#     4  12  26  42  63 101 133 181 222 265 354 415
#     4  11  22  42  68  98 137 169 217 273 342 413
#     4   9  20  38  64  96 129 158 200 259 322 400
#     4  12  23  40  64  95 144 172 219 294 354 399
#     4  11  27  43  68  95 137 176 237 285 321 409
#     4  11  21  45  72  95 125 184 226 281 339 393
#
# _framework density 19.987608999999999
#
# number of rings (size 3 to 8) (size 9 to 14) (size 15 to 20)
#    0.000    1.364    2.727    3.818    5.091    2.909 
#    3.273    0.000    0.000    4.364    0.000    0.000 
#    0.000    0.000    0.000    0.000    0.000    0.000 
#
# Total GULP energy -490093.159397 kJ/mol
# GULP energy per Si atom -5569.240448 kJ/mol
# Density = 1.994212 g / cm^3
# Si number density = 19.987609 Si / 1000 Ang^3
#
#
#
# Elastic Constant Matrix: (Units=GPa)
#
#
# Indices 1 2 3 4 5 6 
#
# 1 46.8176 75.8741 44.3948 0.0000 0.0000 0.0000
# 2 75.8741 46.8167 44.3938 0.0000 0.0000 0.0000
# 3 44.3948 44.3938 147.3822 0.0000 0.0000 0.0000
# 4 0.0000 0.0000 0.0000 14.8647 0.0000 0.0000
# 5 0.0000 0.0000 0.0000 0.0000 14.8650 0.0000
# 6 0.0000 0.0000 0.0000 0.0000 0.0000 7.5354
#
#
#
# Elastic Compliance Matrix: (Units=1/GPa)
#
#
# Indices 1 2 3 4 5 6 
#
# 1 -0.011996 0.022419 -0.003139 0.000000 0.000000 0.000000
# 2 0.022419 -0.011996 -0.003140 0.000000 0.000000 0.000000
# 3 -0.003139 -0.003140 0.008676 0.000000 0.000000 0.000000
# 4 0.000000 0.000000 0.000000 0.067274 0.000000 0.000000
# 5 0.000000 0.000000 0.000000 0.000000 0.067272 0.000000
# 6 0.000000 0.000000 0.000000 0.000000 0.000000 0.132707
#
#
# Mechanical properties :
#
#
# Convention : Reuss Voigt Hill
#
# Bulk Modulus (GPa) = 58.94986 63.37134 61.16060
# Shear Modulus (GPa) = 22.19152 12.54327 17.36739
#
# Velocity S-wave (km/s) = 3.33568 2.50782 2.95092
# Velocity P-wave (km/s) = 6.66280 6.33717 6.50202
#
# Compressibility (1/GPa) = 0.01696357
#
# Stress axis : x y z
#
# Youngs Moduli (GPa) = -83.35888 -83.35810 115.25517
#
# Poissons Ratio (x) = 1.86879 0.36183
# Poissons Ratio (y) = 1.86881 0.36185
# Poissons Ratio (z) = -0.26169 -0.26171
#
# Static dielectric constant tensor:
#      x y z
#    x 1.665790 0.000000 0.000000 
#    y 0.000000 1.665790 0.000000 
#    z 0.000000 0.000000 1.624800 
# 
# From -- ./inp_files/3293.got.cif
#   From: 2010.05.17/outbox.cif.g08.bks.cpg/sg124_2_cif.got.tgz:3293.got - 2010.05.20 11:49:17.
