data_PCOD9562756
_publ_section_title
;
Structure prediction by ZEFSAII (Michael W. Deem and Ramdas Pophale) SiO2 
 PCOD9562756
Probable space group: P 4/M C C
;
_chemical_formula_sum "Si O2"
_cell_formula_units_Z 96
_cell_length_a 24.410703
_cell_length_b 24.410703
_cell_length_c 9.186793
_cell_angle_alpha 90.000000
_cell_angle_beta 90.000000
_cell_angle_gamma 90.000000
_cell_volume 5474.248454
_symmetry_space_group_name_H-M "P 4/M C C"
_symmetry_group_IT_number 124
_symmetry_cell_setting 'tetragonal'
loop_
_space_group_symop_operation_xyz
x,y,z
-y,x,z
-x,-y,z
y,-x,z
x,-y,1/2-z
-x,y,1/2-z
y,x,1/2-z
-y,-x,1/2-z
-x,-y,-z
y,-x,-z
x,y,-z
-y,x,-z
-x,y,1/2+z
x,-y,1/2+z
-y,-x,1/2+z
y,x,1/2+z
loop_
_atom_site_type_symbol
_atom_site_label
_atom_site_fract_x
_atom_site_fract_y
_atom_site_fract_z
Si Si1 0.209164 0.096907 0.500000
Si Si2 0.000000 0.664036 0.250000
Si Si3 0.199014 0.142303 0.000000
Si Si4 0.203310 0.443535 0.677044
Si Si5 0.250416 0.023746 0.000000
Si Si6 0.272754 0.835135 0.235862
Si Si7 0.618214 0.112630 0.173852
Si Si8 0.344068 0.266694 0.668630
O O1 0.154199 0.134030 0.500000
O O2 0.243394 0.121032 0.366782
O O3 0.212935 0.031454 0.500000
O O4 0.021949 0.707138 0.132128
O O5 0.047911 0.625813 0.312849
O O6 0.214169 0.078366 0.000000
O O7 0.230298 0.170390 0.134009
O O8 0.222967 0.500000 0.750000
O O9 0.201940 0.444642 0.500000
O O10 0.143489 0.431881 0.750094
O O11 0.241095 0.394150 0.739422
O O12 0.330562 0.864146 0.267670
O O13 0.295296 0.778907 0.169277
O O14 0.622342 0.127562 0.000000
O O15 0.319107 0.319107 0.750000
O O16 0.358928 0.276485 0.500000
#
# Coordination Sequence:
#
# PCOD9562756 Si02
#       8
#     8   8   8  16   8  16  16  16
#     4  12  20  38  48  71 108 140 168 226 284 353
#     4  12  20  34  57  78 106 135 178 230 294 344
#     4  12  24  30  52  77 100 138 180 222 280 367
#     4  11  24  41  61  83 118 163 206 242 285 342
#     4  12  22  36  52  75 107 138 182 228 290 362
#     4  11  20  33  50  77 110 138 171 219 290 357
#     4  11  21  36  57  80 111 144 180 235 292 346
#     4  11  22  35  57  88 122 156 196 243 293 349
#
# _framework density 17.536653999999999
#
# number of rings (size 3 to 8) (size 9 to 14) (size 15 to 20)
#    0.000    0.667    5.833    4.500    7.000    0.000 
#    0.000    0.417    0.000    2.250    0.000    0.000 
#    0.000    4.333    0.000    3.333    0.000    2.833 
#
# Total GULP energy -534898.804318 kJ/mol
# GULP energy per Si atom -5571.862545 kJ/mol
# Density = 1.749674 g / cm^3
# Si number density = 17.536654 Si / 1000 Ang^3
#
#
#
# Elastic Constant Matrix: (Units=GPa)
#
#
# Indices 1 2 3 4 5 6 
#
# 1 97.7634 39.4536 37.6354 0.0000 0.0000 0.0000
# 2 39.4536 97.7634 37.6354 0.0000 0.0000 0.0000
# 3 37.6354 37.6354 122.2182 0.0000 0.0000 0.0000
# 4 0.0000 0.0000 0.0000 24.1757 0.0000 0.0000
# 5 0.0000 0.0000 0.0000 0.0000 24.1757 0.0000
# 6 0.0000 0.0000 0.0000 0.0000 0.0000 21.3048
#
#
#
# Elastic Compliance Matrix: (Units=1/GPa)
#
#
# Indices 1 2 3 4 5 6 
#
# 1 0.012959 -0.004190 -0.002700 0.000000 0.000000 0.000000
# 2 -0.004190 0.012959 -0.002700 0.000000 0.000000 0.000000
# 3 -0.002700 -0.002700 0.009845 0.000000 0.000000 0.000000
# 4 0.000000 0.000000 0.000000 0.041364 0.000000 0.000000
# 5 0.000000 0.000000 0.000000 0.000000 0.041364 0.000000
# 6 0.000000 0.000000 0.000000 0.000000 0.000000 0.046938
#
#
# Mechanical properties :
#
#
# Convention : Reuss Voigt Hill
#
# Bulk Modulus (GPa) = 60.30659 60.79930 60.55295
# Shear Modulus (GPa) = 26.29661 27.46595 26.88128
#
# Velocity S-wave (km/s) = 3.87657 3.96182 3.91943
# Velocity P-wave (km/s) = 7.38245 7.46144 7.42205
#
# Compressibility (1/GPa) = 0.01658193
#
# Stress axis : x y z
#
# Youngs Moduli (GPa) = 77.16419 77.16419 101.57320
#
# Poissons Ratio (x) = 0.32335 0.27428
# Poissons Ratio (y) = 0.32335 0.27428
# Poissons Ratio (z) = 0.20837 0.20837
#
# Static dielectric constant tensor:
#      x y z
#    x 1.627770 0.000000 0.000000 
#    y 0.000000 1.627770 0.000000 
#    z 0.000000 0.000000 1.559440 
# 
# From -- ./inp_files/1455.got.cif
#   From: 2010.05.17/outbox.cif.g08.bks.cpg/sg124_1_cif.got.tgz:1455.got - 2010.05.20 11:49:17.
