data_PCOD9562697
_publ_section_title
;
Structure prediction by ZEFSAII (Michael W. Deem and Ramdas Pophale) SiO2 
 PCOD9562697
Probable space group: P 4/M C C
;
_chemical_formula_sum "Si O2"
_cell_formula_units_Z 80
_cell_length_a 15.095434
_cell_length_b 15.095434
_cell_length_c 19.449010
_cell_angle_alpha 90.000000
_cell_angle_beta 90.000000
_cell_angle_gamma 90.000000
_cell_volume 4431.887289
_symmetry_space_group_name_H-M "P 4/M C C"
_symmetry_group_IT_number 124
_symmetry_cell_setting 'tetragonal'
loop_
_space_group_symop_operation_xyz
x,y,z
-y,x,z
-x,-y,z
y,-x,z
x,-y,1/2-z
-x,y,1/2-z
y,x,1/2-z
-y,-x,1/2-z
-x,-y,-z
y,-x,-z
x,y,-z
-y,x,-z
-x,y,1/2+z
x,-y,1/2+z
-y,-x,1/2+z
y,x,1/2+z
loop_
_atom_site_type_symbol
_atom_site_label
_atom_site_fract_x
_atom_site_fract_y
_atom_site_fract_z
Si Si1 0.752710 0.343758 0.314606
Si Si2 0.595221 0.950401 0.313745
Si Si3 0.636565 0.559840 0.076304
Si Si4 0.261097 0.999782 0.419551
Si Si5 0.813938 0.810333 0.081898
O O1 0.700180 0.299821 0.250000
O O2 0.845413 0.395122 0.298579
O O3 0.693755 0.410899 0.359163
O O4 0.775488 0.264813 0.368332
O O5 0.500000 0.000000 0.320059
O O6 0.640844 0.000000 0.250000
O O7 0.650655 0.971476 0.381029
O O8 0.543659 0.612266 0.079104
O O9 0.676799 0.577221 0.000000
O O10 0.279469 0.993576 0.500000
O O11 0.225187 0.904854 0.397513
O O12 0.192324 0.079961 0.409606
O O13 0.795779 0.794181 0.000000
#
# Coordination Sequence:
#
# PCOD9562697 Si02
#       5
#    16  16  16  16  16
#     4  11  22  35  57  83 109 145 188 229 272 331
#     4  10  22  38  53  74 109 145 177 219 274 328
#     4   9  20  39  59  80 109 142 177 225 282 333
#     4   9  18  33  53  76 103 135 175 222 270 325
#     4   9  18  33  52  76 105 138 178 223 272 327
#
# _framework density 18.050999000000001
#
# number of rings (size 3 to 8) (size 9 to 14) (size 15 to 20)
#    0.000    2.400    0.000    2.400    0.000    7.200 
#    0.000    5.000    0.000    0.000    0.000    2.800 
#    0.000    0.000    0.000    0.000    0.000    0.000 
#
# Total GULP energy -445521.864724 kJ/mol
# GULP energy per Si atom -5569.023309 kJ/mol
# Density = 1.800991 g / cm^3
# Si number density = 18.050999 Si / 1000 Ang^3
#
#
#
# Elastic Constant Matrix: (Units=GPa)
#
#
# Indices 1 2 3 4 5 6 
#
# 1 66.1911 32.5620 31.2108 0.0000 0.0000 0.0000
# 2 32.5620 66.1908 31.2106 0.0000 0.0000 0.0000
# 3 31.2108 31.2106 51.9739 0.0000 0.0000 0.0000
# 4 0.0000 0.0000 0.0000 28.6807 0.0000 0.0000
# 5 0.0000 0.0000 0.0000 0.0000 28.6813 0.0000
# 6 0.0000 0.0000 0.0000 0.0000 0.0000 21.9980
#
#
#
# Elastic Compliance Matrix: (Units=1/GPa)
#
#
# Indices 1 2 3 4 5 6 
#
# 1 0.023029 -0.006707 -0.009801 0.000000 0.000000 0.000000
# 2 -0.006707 0.023029 -0.009801 0.000000 0.000000 0.000000
# 3 -0.009801 -0.009801 0.031012 0.000000 0.000000 0.000000
# 4 0.000000 0.000000 0.000000 0.034867 0.000000 0.000000
# 5 0.000000 0.000000 0.000000 0.000000 0.034866 0.000000
# 6 0.000000 0.000000 0.000000 0.000000 0.000000 0.045459
#
#
# Mechanical properties :
#
#
# Convention : Reuss Voigt Hill
#
# Bulk Modulus (GPa) = 40.89960 41.59138 41.24549
# Shear Modulus (GPa) = 19.76043 21.83014 20.79529
#
# Velocity S-wave (km/s) = 3.31221 3.48136 3.39784
# Velocity P-wave (km/s) = 6.11021 6.26505 6.18812
#
# Compressibility (1/GPa) = 0.02445012
#
# Stress axis : x y z
#
# Youngs Moduli (GPa) = 43.42362 43.42355 32.24569
#
# Poissons Ratio (x) = 0.29126 0.31605
# Poissons Ratio (y) = 0.29126 0.31605
# Poissons Ratio (z) = 0.42561 0.42560
#
# Static dielectric constant tensor:
#      x y z
#    x 1.626080 0.000000 0.000000 
#    y 0.000000 1.626080 0.000000 
#    z 0.000000 0.000000 1.629220 
# 
# From -- ./inp_files/5084.got.cif
#   From: 2010.05.17/outbox.cif.g08.bks.cpg/sg124_3_cif.got.tgz:5084.got - 2010.05.20 11:49:17.
