data_PCOD9562448
_publ_section_title
;
Structure prediction by ZEFSAII (Michael W. Deem and Ramdas Pophale) SiO2 
 PCOD9562448
Probable space group: P 4/M C C
;
_chemical_formula_sum "Si O2"
_cell_formula_units_Z 64
_cell_length_a 19.449727
_cell_length_b 19.449727
_cell_length_c 9.728996
_cell_angle_alpha 90.000000
_cell_angle_beta 90.000000
_cell_angle_gamma 90.000000
_cell_volume 3680.400191
_symmetry_space_group_name_H-M "P 4/M C C"
_symmetry_group_IT_number 124
_symmetry_cell_setting 'tetragonal'
loop_
_space_group_symop_operation_xyz
x,y,z
-y,x,z
-x,-y,z
y,-x,z
x,-y,1/2-z
-x,y,1/2-z
y,x,1/2-z
-y,-x,1/2-z
-x,-y,-z
y,-x,-z
x,y,-z
-y,x,-z
-x,y,1/2+z
x,-y,1/2+z
-y,-x,1/2+z
y,x,1/2+z
loop_
_atom_site_type_symbol
_atom_site_label
_atom_site_fract_x
_atom_site_fract_y
_atom_site_fract_z
Si Si1 0.796302 0.293879 0.663899
Si Si2 0.845157 0.500000 0.250000
Si Si3 0.067392 0.372028 0.841428
Si Si4 0.267498 0.402763 0.353148
Si Si5 0.392424 0.457292 0.500000
O O1 0.771520 0.228481 0.750000
O O2 0.791081 0.287818 0.500000
O O3 0.874002 0.316718 0.696898
O O4 0.747526 0.355480 0.722397
O O5 0.893656 0.555282 0.177264
O O6 0.792174 0.540364 0.347330
O O7 0.000000 0.369105 0.750000
O O8 0.048779 0.363008 0.000000
O O9 0.258578 0.363774 0.500000
O O10 0.342126 0.437240 0.372462
O O11 0.462831 0.413881 0.500000
#
# Coordination Sequence:
#
# PCOD9562448 Si02
#       5
#    16   8  16  16   8
#     4  10  21  38  59  86 111 141 189 232 273 330
#     4  10  19  34  54  81 108 142 190 228 280 347
#     4  10  22  36  54  82 118 148 178 222 274 334
#     4   9  20  35  55  80 101 136 178 238 291 340
#     4   9  20  38  58  78 101 134 182 242 309 362
#
# _framework density 17.389415
#
# number of rings (size 3 to 8) (size 9 to 14) (size 15 to 20)
#    0.750    1.625    0.000    1.875    0.000   12.000 
#    0.000    0.000    0.000    3.000    0.000    1.750 
#    0.000    0.500    0.000    5.500    0.000    4.000 
#
# Total GULP energy -356650.041568 kJ/mol
# GULP energy per Si atom -5572.656900 kJ/mol
# Density = 1.734984 g / cm^3
# Si number density = 17.389415 Si / 1000 Ang^3
#
#
#
# Elastic Constant Matrix: (Units=GPa)
#
#
# Indices 1 2 3 4 5 6 
#
# 1 108.0638 57.3190 37.9350 0.0000 0.0000 0.0000
# 2 57.3190 108.0664 37.9359 0.0000 0.0000 0.0000
# 3 37.9350 37.9359 70.3576 0.0000 0.0000 0.0000
# 4 0.0000 0.0000 0.0000 23.9687 0.0000 0.0000
# 5 0.0000 0.0000 0.0000 0.0000 23.9680 0.0000
# 6 0.0000 0.0000 0.0000 0.0000 0.0000 10.4369
#
#
#
# Elastic Compliance Matrix: (Units=1/GPa)
#
#
# Indices 1 2 3 4 5 6 
#
# 1 0.013870 -0.005836 -0.004332 0.000000 0.000000 0.000000
# 2 -0.005836 0.013870 -0.004332 0.000000 0.000000 0.000000
# 3 -0.004332 -0.004332 0.018884 0.000000 0.000000 0.000000
# 4 0.000000 0.000000 0.000000 0.041721 0.000000 0.000000
# 5 0.000000 0.000000 0.000000 0.000000 0.041722 0.000000
# 6 0.000000 0.000000 0.000000 0.000000 0.000000 0.095814
#
#
# Mechanical properties :
#
#
# Convention : Reuss Voigt Hill
#
# Bulk Modulus (GPa) = 56.73732 61.42973 59.08352
# Shear Modulus (GPa) = 19.17513 21.89459 20.53486
#
# Velocity S-wave (km/s) = 3.32428 3.55219 3.44013
# Velocity P-wave (km/s) = 6.88715 7.22681 7.05902
#
# Compressibility (1/GPa) = 0.01762508
#
# Stress axis : x y z
#
# Youngs Moduli (GPa) = 72.09827 72.09962 52.95447
#
# Poissons Ratio (x) = 0.42078 0.22937
# Poissons Ratio (y) = 0.42078 0.22938
# Poissons Ratio (z) = 0.31230 0.31231
#
# Static dielectric constant tensor:
#      x y z
#    x 1.602690 0.000000 0.000000 
#    y 0.000000 1.602690 0.000000 
#    z 0.000000 0.000000 1.693050 
# 
# From -- ./inp_files/906.got.cif
#   From: 2010.05.17/outbox.cif.g08.bks.cpg/sg124_1_cif.got.tgz:906.got - 2010.05.20 11:49:17.
