data_PCOD9562289
_publ_section_title
;
Structure prediction by ZEFSAII (Michael W. Deem and Ramdas Pophale) SiO2 
 PCOD9562289
Probable space group: P 4/M M M
;
_chemical_formula_sum "Si O2"
_cell_formula_units_Z 112
_cell_length_a 21.000000
_cell_length_b 21.000000
_cell_length_c 18.000000
_cell_angle_alpha 90.000000
_cell_angle_beta 90.000000
_cell_angle_gamma 90.000000
_cell_volume 7938.000000
_symmetry_space_group_name_H-M "P 4/M M M"
_symmetry_group_IT_number 123
_symmetry_cell_setting 'tetragonal'
loop_
_space_group_symop_operation_xyz
x,y,z
-y,x,z
-x,-y,z
y,-x,z
x,-y,-z
-x,y,-z
y,x,-z
-y,-x,-z
-x,-y,-z
y,-x,-z
x,y,-z
-y,x,-z
-x,y,z
x,-y,z
-y,-x,z
y,x,z
loop_
_atom_site_type_symbol
_atom_site_label
_atom_site_fract_x
_atom_site_fract_y
_atom_site_fract_z
Si Si1 0.854629 0.303722 0.914727
Si Si2 0.075636 0.571818 0.862014
Si Si3 0.225688 0.124455 0.686929
Si Si4 0.856403 0.425665 0.705007
Si Si5 0.321247 0.776960 0.769423
Si Si6 0.074615 0.182252 0.842702
Si Si7 0.664018 0.924797 0.412613
O O1 0.894552 0.369202 0.906007
O O2 0.797965 0.313405 0.855202
O O3 0.896082 0.242653 0.887628
O O4 0.835320 0.294644 0.000000
O O5 0.096891 0.500000 0.884227
O O6 0.095559 0.580208 0.775528
O O7 0.000000 0.574273 0.868783
O O8 0.166427 0.166427 0.658198
O O9 0.274376 0.174205 0.726031
O O10 0.201025 0.081486 0.755320
O O11 0.267345 0.089446 0.624996
O O12 0.847138 0.500000 0.689261
O O13 0.793471 0.389882 0.735823
O O14 0.885655 0.387772 0.635359
O O15 0.292945 0.707056 0.758549
O O16 0.121279 0.121279 0.855166
O O17 0.000000 0.171973 0.860510
O O18 0.663546 0.908141 0.500000
O O19 0.650533 0.000000 0.405641
#
# Coordination Sequence:
#
# PCOD9562289 Si02
#       7
#    16  16  16  16  16  16  16
#     4  10  19  29  42  61  84 107 133 168 211 259
#     4   9  17  28  42  59  79 109 146 175 200 233
#     4   8  15  29  46  60  75  99 133 171 209 247
#     4   9  17  29  43  58  80 110 141 169 198 237
#     4   8  15  28  45  62  78  99 131 169 202 234
#     4  10  20  32  46  61  76 100 135 176 223 270
#     4  10  19  27  38  60  87 112 137 166 200 240
#
# _framework density 14.109347
#
# number of rings (size 3 to 8) (size 9 to 14) (size 15 to 20)
#    0.000    2.857    0.000    3.429    0.000    4.143 
#    0.000    1.429    0.000    0.000    0.000    1.000 
#    0.000    0.286    0.000   13.286    0.000    0.000 
#
# Total GULP energy -623626.787726 kJ/mol
# GULP energy per Si atom -5568.096319 kJ/mol
# Density = 1.407723 g / cm^3
# Si number density = 14.109347 Si / 1000 Ang^3
#
#
#
# Elastic Constant Matrix: (Units=GPa)
#
#
# Indices 1 2 3 4 5 6 
#
# 1 61.9216 36.6270 29.9276 0.0000 0.0000 0.0000
# 2 36.6270 61.9216 29.9276 0.0000 0.0000 0.0000
# 3 29.9276 29.9276 87.0405 0.0000 0.0000 0.0000
# 4 0.0000 0.0000 0.0000 10.4614 0.0000 0.0000
# 5 0.0000 0.0000 0.0000 0.0000 10.4614 0.0000
# 6 0.0000 0.0000 0.0000 0.0000 0.0000 19.6658
#
#
#
# Elastic Compliance Matrix: (Units=1/GPa)
#
#
# Indices 1 2 3 4 5 6 
#
# 1 0.026180 -0.013354 -0.004410 0.000000 0.000000 0.000000
# 2 -0.013354 0.026180 -0.004410 0.000000 0.000000 0.000000
# 3 -0.004410 -0.004410 0.014521 0.000000 0.000000 0.000000
# 4 0.000000 0.000000 0.000000 0.095589 0.000000 0.000000
# 5 0.000000 0.000000 0.000000 0.000000 0.095589 0.000000
# 6 0.000000 0.000000 0.000000 0.000000 0.000000 0.050850
#
#
# Mechanical properties :
#
#
# Convention : Reuss Voigt Hill
#
# Bulk Modulus (GPa) = 44.37899 44.87203 44.62551
# Shear Modulus (GPa) = 13.85929 15.74449 14.80189
#
# Velocity S-wave (km/s) = 3.13753 3.34412 3.24247
# Velocity P-wave (km/s) = 6.68187 6.83981 6.76130
#
# Compressibility (1/GPa) = 0.02253319
#
# Stress axis : x y z
#
# Youngs Moduli (GPa) = 38.19716 38.19716 68.86344
#
# Poissons Ratio (x) = 0.51009 0.30368
# Poissons Ratio (y) = 0.51009 0.30368
# Poissons Ratio (z) = 0.16845 0.16845
#
# Static dielectric constant tensor:
#      x y z
#    x 1.469360 0.000000 0.000000 
#    y 0.000000 1.469360 0.000000 
#    z 0.000000 0.000000 1.465880 
# 
# From -- ./inp_files/5876.got.cif
#   From: 2010.05.17/outbox.ucp.g08.bks.cvg/sg123_3_cif.got.tgz:5876.got - 2010.06.11 11:35:48.
