data_PCOD9562286
_publ_section_title
;
Structure prediction by ZEFSAII (Michael W. Deem and Ramdas Pophale) SiO2 
 PCOD9562286
Probable space group: P 4/M M M
;
_chemical_formula_sum "Si O2"
_cell_formula_units_Z 104
_cell_length_a 27.000000
_cell_length_b 27.000000
_cell_length_c 9.000000
_cell_angle_alpha 90.000000
_cell_angle_beta 90.000000
_cell_angle_gamma 90.000000
_cell_volume 6561.000000
_symmetry_space_group_name_H-M "P 4/M M M"
_symmetry_group_IT_number 123
_symmetry_cell_setting 'tetragonal'
loop_
_space_group_symop_operation_xyz
x,y,z
-y,x,z
-x,-y,z
y,-x,z
x,-y,-z
-x,y,-z
y,x,-z
-y,-x,-z
-x,-y,-z
y,-x,-z
x,y,-z
-y,x,-z
-x,y,z
x,-y,z
-y,-x,z
y,x,z
loop_
_atom_site_type_symbol
_atom_site_label
_atom_site_fract_x
_atom_site_fract_y
_atom_site_fract_z
Si Si1 0.554350 0.233259 0.678968
Si Si2 0.684857 0.151901 0.322611
Si Si3 0.861895 0.057342 0.675821
Si Si4 0.055448 0.500000 0.180718
Si Si5 0.129673 0.585029 0.178333
Si Si6 0.264325 0.658081 0.319969
Si Si7 0.212337 0.869941 0.824393
O O1 0.557169 0.225922 0.500000
O O2 0.500000 0.252643 0.715105
O O3 0.562801 0.180452 0.756014
O O4 0.600785 0.266691 0.724203
O O5 0.680972 0.148224 0.500000
O O6 0.639456 0.124116 0.245330
O O7 0.678213 0.209914 0.280648
O O8 0.737157 0.133664 0.264923
O O9 0.850046 0.062454 0.500000
O O10 0.912086 0.087915 0.702284
O O11 0.819489 0.083411 0.770857
O O12 0.867465 0.000000 0.710536
O O13 0.085805 0.548541 0.223929
O O14 0.000000 0.500000 0.237633
O O15 0.054120 0.500000 0.000000
O O16 0.132809 0.586889 0.000000
O O17 0.266699 0.659529 0.500000
O O18 0.306927 0.693074 0.259419
O O19 0.178007 0.821994 0.792512
O O20 0.221590 0.871704 0.000000
#
# Coordination Sequence:
#
# PCOD9562286 Si02
#       7
#    16  16  16   8  16  16  16
#     4   9  16  26  42  63  88 116 147 186 230 277
#     4  10  19  31  48  69  93 124 157 194 236 280
#     4   9  18  33  53  76 100 126 156 191 233 281
#     4   9  18  32  49  67  87 113 147 189 236 283
#     4  10  18  30  48  68  88 114 151 192 234 281
#     4   8  14  24  39  61  87 115 147 183 224 270
#     4  10  20  33  50  73 100 129 161 195 232 280
#
# _framework density 15.851241999999999
#
# number of rings (size 3 to 8) (size 9 to 14) (size 15 to 20)
#    0.000    2.692    0.769    2.769    0.000    2.000 
#    0.000    1.538    0.000   10.615    0.000    2.154 
#    0.000    0.308    0.000    4.308    0.000    0.000 
#
# Total GULP energy -579356.566320 kJ/mol
# GULP energy per Si atom -5570.736215 kJ/mol
# Density = 1.581516 g / cm^3
# Si number density = 15.851242 Si / 1000 Ang^3
#
#
#
# Elastic Constant Matrix: (Units=GPa)
#
#
# Indices 1 2 3 4 5 6 
#
# 1 103.8993 51.5856 28.8510 0.0000 0.0000 0.0000
# 2 51.5856 103.8993 28.8510 0.0000 0.0000 0.0000
# 3 28.8510 28.8510 26.1633 0.0000 0.0000 0.0000
# 4 0.0000 0.0000 0.0000 14.9657 0.0000 0.0000
# 5 0.0000 0.0000 0.0000 0.0000 14.9657 0.0000
# 6 0.0000 0.0000 0.0000 0.0000 0.0000 50.2041
#
#
#
# Elastic Compliance Matrix: (Units=1/GPa)
#
#
# Indices 1 2 3 4 5 6 
#
# 1 0.015001 -0.004114 -0.012005 0.000000 0.000000 0.000000
# 2 -0.004114 0.015001 -0.012005 0.000000 0.000000 0.000000
# 3 -0.012005 -0.012005 0.064698 0.000000 0.000000 0.000000
# 4 0.000000 0.000000 0.000000 0.066819 0.000000 0.000000
# 5 0.000000 0.000000 0.000000 0.000000 0.066819 0.000000
# 6 0.000000 0.000000 0.000000 0.000000 0.000000 0.019919
#
#
# Mechanical properties :
#
#
# Convention : Reuss Voigt Hill
#
# Bulk Modulus (GPa) = 26.00700 50.28191 38.14446
# Shear Modulus (GPa) = 15.75676 24.33871 20.04774
#
# Velocity S-wave (km/s) = 3.15626 3.92273 3.56018
# Velocity P-wave (km/s) = 5.45208 7.23236 6.40438
#
# Compressibility (1/GPa) = 0.03845119
#
# Stress axis : x y z
#
# Youngs Moduli (GPa) = 66.66188 66.66188 15.45641
#
# Poissons Ratio (x) = 0.27427 0.18556
# Poissons Ratio (y) = 0.27427 0.18556
# Poissons Ratio (z) = 0.80028 0.80028
#
# Static dielectric constant tensor:
#      x y z
#    x 1.529310 0.000000 0.000000 
#    y 0.000000 1.529310 0.000000 
#    z 0.000000 0.000000 1.526080 
# 
# From -- ./inp_files/1957.got.cif
#   From: 2010.05.17/outbox.ucp.g08.bks.cvg/sg123_1_cif.got.tgz:1957.got - 2010.06.11 11:35:48.
