data_PCOD9562873
_publ_section_title
;
Structure prediction by ZEFSAII (Michael W. Deem and Ramdas Pophale) SiO2 
 PCOD9562873
Probable space group: P 4/M C C
;
_chemical_formula_sum "Si O2"
_cell_formula_units_Z 80
_cell_length_a 18.000000
_cell_length_b 18.000000
_cell_length_c 15.000000
_cell_angle_alpha 90.000000
_cell_angle_beta 90.000000
_cell_angle_gamma 90.000000
_cell_volume 4860.000000
_symmetry_space_group_name_H-M "P 4/M C C"
_symmetry_group_IT_number 124
_symmetry_cell_setting 'tetragonal'
loop_
_space_group_symop_operation_xyz
x,y,z
-y,x,z
-x,-y,z
y,-x,z
x,-y,1/2-z
-x,y,1/2-z
y,x,1/2-z
-y,-x,1/2-z
-x,-y,-z
y,-x,-z
x,y,-z
-y,x,-z
-x,y,1/2+z
x,-y,1/2+z
-y,-x,1/2+z
y,x,1/2+z
loop_
_atom_site_type_symbol
_atom_site_label
_atom_site_fract_x
_atom_site_fract_y
_atom_site_fract_z
Si Si1 0.716266 0.589519 0.746087
Si Si2 0.694071 0.195702 0.607771
Si Si3 0.111548 0.058575 0.606273
Si Si4 0.746124 0.086189 0.229952
Si Si5 0.192382 0.333793 0.102907
O O1 0.703381 0.500000 0.750000
O O2 0.640883 0.640883 0.750000
O O3 0.765468 0.623974 0.662044
O O4 0.763160 0.608557 0.835330
O O5 0.680690 0.175515 0.500000
O O6 0.728921 0.133886 0.678078
O O7 0.756207 0.259952 0.603960
O O8 0.131616 0.069459 0.500000
O O9 0.173789 0.086928 0.676298
O O10 0.030514 0.097326 0.619254
O O11 0.689286 0.118851 0.156600
O O12 0.733034 0.000000 0.250000
O O13 0.180809 0.355760 0.000000
#
# Coordination Sequence:
#
# PCOD9562873 Si02
#       5
#    16  16  16  16  16
#     4   9  18  34  59  91 122 148 174 205 252 317
#     4   9  20  37  54  74 107 148 191 230 272 325
#     4   9  20  35  48  68 102 143 182 226 292 363
#     4  11  22  31  52  76 101 134 188 244 291 330
#     4   9  19  36  54  75 105 144 188 228 268 323
#
# _framework density 16.460905
#
# number of rings (size 3 to 8) (size 9 to 14) (size 15 to 20)
#    0.000    2.600    0.000    3.000    5.600    2.600 
#    0.000    1.000    0.000    9.600    0.000   18.200 
#    0.000    0.000    0.000    0.000    0.000    0.000 
#
# Total GULP energy -445393.772560 kJ/mol
# GULP energy per Si atom -5567.422157 kJ/mol
# Density = 1.642344 g / cm^3
# Si number density = 16.460905 Si / 1000 Ang^3
#
#
#
# Elastic Constant Matrix: (Units=GPa)
#
#
# Indices 1 2 3 4 5 6 
#
# 1 105.3509 39.0850 51.9733 0.0000 0.0000 0.0000
# 2 39.0850 105.3509 51.9733 0.0000 0.0000 0.0000
# 3 51.9733 51.9733 168.2619 0.0000 0.0000 0.0000
# 4 0.0000 0.0000 0.0000 24.1185 0.0000 0.0000
# 5 0.0000 0.0000 0.0000 0.0000 24.1185 0.0000
# 6 0.0000 0.0000 0.0000 0.0000 0.0000 18.6549
#
#
#
# Elastic Compliance Matrix: (Units=1/GPa)
#
#
# Indices 1 2 3 4 5 6 
#
# 1 0.011997 -0.003094 -0.002750 0.000000 0.000000 0.000000
# 2 -0.003094 0.011997 -0.002750 0.000000 0.000000 0.000000
# 3 -0.002750 -0.002750 0.007642 0.000000 0.000000 0.000000
# 4 0.000000 0.000000 0.000000 0.041462 0.000000 0.000000
# 5 0.000000 0.000000 0.000000 0.000000 0.041462 0.000000
# 6 0.000000 0.000000 0.000000 0.000000 0.000000 0.053605
#
#
# Mechanical properties :
#
#
# Convention : Reuss Voigt Hill
#
# Bulk Modulus (GPa) = 69.21612 73.89185 71.55398
# Shear Modulus (GPa) = 26.29263 29.10720 27.69991
#
# Velocity S-wave (km/s) = 4.00093 4.20963 4.10661
# Velocity P-wave (km/s) = 7.96764 8.28340 8.12706
#
# Compressibility (1/GPa) = 0.01444750
#
# Stress axis : x y z
#
# Youngs Moduli (GPa) = 83.35703 83.35703 130.85815
#
# Poissons Ratio (x) = 0.25792 0.35984
# Poissons Ratio (y) = 0.25792 0.35984
# Poissons Ratio (z) = 0.22922 0.22922
#
# Static dielectric constant tensor:
#      x y z
#    x 1.565040 0.000000 0.000000 
#    y 0.000000 1.565040 0.000000 
#    z 0.000000 0.000000 1.599330 
# 
# From -- ./inp_files/3079.got.cif
#   From: 2010.05.17/outbox.ucp.g08.bks.cvg/sg124_2_cif.got.tgz:3079.got - 2010.06.11 11:36:13.
