data_PCOD9562135
_publ_section_title
;
Structure prediction by ZEFSAII (Michael W. Deem and Ramdas Pophale) SiO2 
 PCOD9562135
Probable space group: P 4/M M M
;
_chemical_formula_sum "Si O2"
_cell_formula_units_Z 56
_cell_length_a 20.150207
_cell_length_b 20.150207
_cell_length_c 8.183004
_cell_angle_alpha 90.000000
_cell_angle_beta 90.000000
_cell_angle_gamma 90.000000
_cell_volume 3322.552005
_symmetry_space_group_name_H-M "P 4/M M M"
_symmetry_group_IT_number 123
_symmetry_cell_setting 'tetragonal'
loop_
_space_group_symop_operation_xyz
x,y,z
-y,x,z
-x,-y,z
y,-x,z
x,-y,-z
-x,y,-z
y,x,-z
-y,-x,-z
-x,-y,-z
y,-x,-z
x,y,-z
-y,x,-z
-x,y,z
x,-y,z
-y,-x,z
y,x,z
loop_
_atom_site_type_symbol
_atom_site_label
_atom_site_fract_x
_atom_site_fract_y
_atom_site_fract_z
Si Si1 0.288082 0.818501 0.195169
Si Si2 0.575011 0.144283 0.697523
Si Si3 0.815918 0.923930 0.303000
Si Si4 0.000000 0.580100 0.684090
O O1 0.241672 0.758328 0.254047
O O2 0.363372 0.811216 0.253584
O O3 0.251238 0.885167 0.256316
O O4 0.287198 0.819652 0.000000
O O5 0.572779 0.139326 0.500000
O O6 0.500000 0.161456 0.751289
O O7 0.594022 0.070612 0.763294
O O8 0.819158 0.925792 0.500000
O O9 0.877439 0.877439 0.245426
O O10 0.818175 0.000000 0.243701
O O11 0.000000 0.500000 0.667507
O O12 0.000000 0.609497 0.500000
#
# Coordination Sequence:
#
# PCOD9562135 Si02
#       4
#    16  16  16   8
#     4  10  21  34  46  64  94 128 157 187 225 271
#     4   9  17  30  49  71  93 118 150 189 231 273
#     4   9  18  32  49  67  86 113 152 197 244 288
#     4   7  12  24  41  63  89 113 138 173 220 267
#
# _framework density 16.854514000000002
#
# number of rings (size 3 to 8) (size 9 to 14) (size 15 to 20)
#    0.000    3.000    0.000    2.571    2.000    3.143 
#    0.000    1.429    0.000    2.571    0.000    4.000 
#    0.000    0.571    0.000    6.286    0.000    4.571 
#
# Total GULP energy -311786.684410 kJ/mol
# GULP energy per Si atom -5567.619364 kJ/mol
# Density = 1.681615 g / cm^3
# Si number density = 16.854514 Si / 1000 Ang^3
#
#
#
# Elastic Constant Matrix: (Units=GPa)
#
#
# Indices 1 2 3 4 5 6 
#
# 1 113.8308 50.6849 10.2439 0.0000 0.0000 0.0000
# 2 50.6849 113.8308 10.2439 0.0000 0.0000 0.0000
# 3 10.2439 10.2439 10.6713 0.0000 0.0000 0.0000
# 4 0.0000 0.0000 0.0000 5.6746 0.0000 0.0000
# 5 0.0000 0.0000 0.0000 0.0000 5.6746 0.0000
# 6 0.0000 0.0000 0.0000 0.0000 0.0000 13.2435
#
#
#
# Elastic Compliance Matrix: (Units=1/GPa)
#
#
# Indices 1 2 3 4 5 6 
#
# 1 0.011370 -0.004466 -0.006627 0.000000 0.000000 0.000000
# 2 -0.004466 0.011370 -0.006627 0.000000 0.000000 0.000000
# 3 -0.006627 -0.006627 0.106433 0.000000 0.000000 0.000000
# 4 0.000000 0.000000 0.000000 0.176225 0.000000 0.000000
# 5 0.000000 0.000000 0.000000 0.000000 0.176225 0.000000
# 6 0.000000 0.000000 0.000000 0.000000 0.000000 0.075509
#
#
# Mechanical properties :
#
#
# Convention : Reuss Voigt Hill
#
# Bulk Modulus (GPa) = 10.66876 42.29761 26.48318
# Shear Modulus (GPa) = 8.01515 16.06253 12.03884
#
# Velocity S-wave (km/s) = 2.18308 3.09044 2.67550
# Velocity P-wave (km/s) = 3.56344 6.15505 5.02905
#
# Compressibility (1/GPa) = 0.09373164
#
# Stress axis : x y z
#
# Youngs Moduli (GPa) = 87.95033 87.95033 9.39556
#
# Poissons Ratio (x) = 0.39281 0.06227
# Poissons Ratio (y) = 0.39281 0.06227
# Poissons Ratio (z) = 0.58287 0.58287
#
# Static dielectric constant tensor:
#      x y z
#    x 1.590560 0.000000 0.000000 
#    y 0.000000 1.590560 0.000000 
#    z 0.000000 0.000000 1.600200 
# 
# From -- ./inp_files/586.got.cif
#   From: 2010.05.17/outbox.cif.g08.bks.cpg/sg123_1_cif.got.tgz:586.got - 2010.05.20 11:43:04.
