data_PCOD9562825
_publ_section_title
;
Structure prediction by ZEFSAII (Michael W. Deem and Ramdas Pophale) SiO2 
 PCOD9562825
Probable space group: P 4/M C C
;
_chemical_formula_sum "Si O2"
_cell_formula_units_Z 40
_cell_length_a 14.993316
_cell_length_b 14.993316
_cell_length_c 9.025095
_cell_angle_alpha 90.000000
_cell_angle_beta 90.000000
_cell_angle_gamma 90.000000
_cell_volume 2028.837066
_symmetry_space_group_name_H-M "P 4/M C C"
_symmetry_group_IT_number 124
_symmetry_cell_setting 'tetragonal'
loop_
_space_group_symop_operation_xyz
x,y,z
-y,x,z
-x,-y,z
y,-x,z
x,-y,1/2-z
-x,y,1/2-z
y,x,1/2-z
-y,-x,1/2-z
-x,-y,-z
y,-x,-z
x,y,-z
-y,x,-z
-x,y,1/2+z
x,-y,1/2+z
-y,-x,1/2+z
y,x,1/2+z
loop_
_atom_site_type_symbol
_atom_site_label
_atom_site_fract_x
_atom_site_fract_y
_atom_site_fract_z
Si Si1 0.097415 0.231334 0.679989
Si Si2 0.193773 0.410326 0.665632
Si Si3 0.433307 0.365678 0.000000
O O1 0.146443 0.146443 0.750000
O O2 0.095302 0.225372 0.500000
O O3 0.155352 0.318518 0.726024
O O4 0.000000 0.240182 0.750000
O O5 0.171104 0.500000 0.750000
O O6 0.155166 0.418928 0.500000
O O7 0.300497 0.409159 0.636438
O O8 0.539383 0.385044 0.000000
#
# Coordination Sequence:
#
# PCOD9562825 Si02
#       3
#    16  16   8
#     4  11  25  45  70 100 129 170 216 276 340 405
#     4   9  22  37  62  91 129 178 220 266 325 385
#     4   9  20  36  60  95 135 178 230 269 325 380
#
# _framework density 19.715726
#
# number of rings (size 3 to 8) (size 9 to 14) (size 15 to 20)
#    1.200    1.000    0.000    1.200    5.600    4.400 
#    0.000    8.000    0.000    0.000    0.000    0.000 
#    0.000    0.000    0.000    0.000    0.000    0.000 
#
# Total GULP energy -222926.922679 kJ/mol
# GULP energy per Si atom -5573.173067 kJ/mol
# Density = 1.967085 g / cm^3
# Si number density = 19.715726 Si / 1000 Ang^3
#
#
#
# Elastic Constant Matrix: (Units=GPa)
#
#
# Indices 1 2 3 4 5 6 
#
# 1 147.3095 86.6134 33.0621 0.0000 0.0000 0.0000
# 2 86.6134 147.3095 33.0621 0.0000 0.0000 0.0000
# 3 33.0621 33.0621 55.4554 0.0000 0.0000 0.0000
# 4 0.0000 0.0000 0.0000 31.0199 0.0000 0.0000
# 5 0.0000 0.0000 0.0000 0.0000 31.0199 0.0000
# 6 0.0000 0.0000 0.0000 0.0000 0.0000 18.8252
#
#
#
# Elastic Compliance Matrix: (Units=1/GPa)
#
#
# Indices 1 2 3 4 5 6 
#
# 1 0.010808 -0.005667 -0.003065 0.000000 0.000000 0.000000
# 2 -0.005667 0.010808 -0.003065 0.000000 0.000000 0.000000
# 3 -0.003065 -0.003065 0.021687 0.000000 0.000000 0.000000
# 4 0.000000 0.000000 0.000000 0.032237 0.000000 0.000000
# 5 0.000000 0.000000 0.000000 0.000000 0.032237 0.000000
# 6 0.000000 0.000000 0.000000 0.000000 0.000000 0.053120
#
#
# Mechanical properties :
#
#
# Convention : Reuss Voigt Hill
#
# Bulk Modulus (GPa) = 50.73769 72.83885 61.78827
# Shear Modulus (GPa) = 26.16921 29.32879 27.74900
#
# Velocity S-wave (km/s) = 3.64720 3.86110 3.75568
# Velocity P-wave (km/s) = 6.59747 7.54336 7.08621
#
# Compressibility (1/GPa) = 0.01970922
#
# Stress axis : x y z
#
# Youngs Moduli (GPa) = 92.52020 92.52020 46.10961
#
# Poissons Ratio (x) = 0.52432 0.14134
# Poissons Ratio (y) = 0.52432 0.14134
# Poissons Ratio (z) = 0.28360 0.28360
#
# Static dielectric constant tensor:
#      x y z
#    x 1.679590 0.000000 0.000000 
#    y 0.000000 1.679590 0.000000 
#    z 0.000000 0.000000 1.864960 
# 
# From -- ./inp_files/325.got.cif
#   From: 2010.05.17/outbox.cif.g08.bks.cpg/sg124_1_cif.got.tgz:325.got - 2010.05.20 11:49:17.
