data_PCOD9562045
_publ_section_title
;
Structure prediction by ZEFSAII (Michael W. Deem and Ramdas Pophale) SiO2 
 PCOD9562045
Probable space group: P 4/M M M
;
_chemical_formula_sum "Si O2"
_cell_formula_units_Z 80
_cell_length_a 13.759378
_cell_length_b 13.759378
_cell_length_c 25.890863
_cell_angle_alpha 90.000000
_cell_angle_beta 90.000000
_cell_angle_gamma 90.000000
_cell_volume 4901.670687
_symmetry_space_group_name_H-M "P 4/M M M"
_symmetry_group_IT_number 123
_symmetry_cell_setting 'tetragonal'
loop_
_space_group_symop_operation_xyz
x,y,z
-y,x,z
-x,-y,z
y,-x,z
x,-y,-z
-x,y,-z
y,x,-z
-y,-x,-z
-x,-y,-z
y,-x,-z
x,y,-z
-y,x,-z
-x,y,z
x,-y,z
-y,-x,z
y,x,z
loop_
_atom_site_type_symbol
_atom_site_label
_atom_site_fract_x
_atom_site_fract_y
_atom_site_fract_z
Si Si1 0.384850 0.774858 0.441732
Si Si2 0.386744 0.772275 0.061288
Si Si3 0.276373 0.114736 0.146657
Si Si4 0.109599 0.382262 0.659209
Si Si5 0.383797 0.774049 0.237722
O O1 0.369223 0.813730 0.500000
O O2 0.500000 0.756436 0.436096
O O3 0.323661 0.676340 0.437097
O O4 0.353328 0.846346 0.395978
O O5 0.500000 0.763815 0.075188
O O6 0.327123 0.672878 0.071682
O O7 0.333681 0.854163 0.094829
O O8 0.380141 0.791649 0.000000
O O9 0.176540 0.176540 0.147825
O O10 0.342187 0.154949 0.193635
O O11 0.261946 0.000000 0.149898
O O12 0.105180 0.500000 0.658775
O O13 0.178886 0.357330 0.706939
O O14 0.000000 0.345721 0.666654
O O15 0.500000 0.764931 0.233959
O O16 0.327781 0.672220 0.232004
#
# Coordination Sequence:
#
# PCOD9562045 Si02
#       5
#    16  16  16  16  16
#     4   9  17  28  42  62  89 120 153 189 230 280
#     4   9  18  32  50  74 103 133 165 200 239 287
#     4  10  21  36  53  73  97 126 163 206 248 290
#     4   9  17  29  45  64  87 118 155 192 230 272
#     4  10  20  33  50  73 100 129 160 193 232 282
#
# _framework density 16.320965000000001
#
# number of rings (size 3 to 8) (size 9 to 14) (size 15 to 20)
#    0.000    2.600    0.000    1.800    0.000    4.000 
#    0.000    5.000    0.000    7.200    0.000    2.800 
#    0.000    3.600    0.000    8.800    0.000    0.800 
#
# Total GULP energy -445816.017514 kJ/mol
# GULP energy per Si atom -5572.700219 kJ/mol
# Density = 1.628382 g / cm^3
# Si number density = 16.320965 Si / 1000 Ang^3
#
#
#
# Elastic Constant Matrix: (Units=GPa)
#
#
# Indices 1 2 3 4 5 6 
#
# 1 99.9367 66.0264 48.9470 0.0000 0.0000 0.0000
# 2 66.0264 99.9367 48.9470 0.0000 0.0000 0.0000
# 3 48.9470 48.9470 74.1684 0.0000 0.0000 0.0000
# 4 0.0000 0.0000 0.0000 19.1608 0.0000 0.0000
# 5 0.0000 0.0000 0.0000 0.0000 19.1608 0.0000
# 6 0.0000 0.0000 0.0000 0.0000 0.0000 5.0143
#
#
#
# Elastic Compliance Matrix: (Units=1/GPa)
#
#
# Indices 1 2 3 4 5 6 
#
# 1 0.019678 -0.009812 -0.006511 0.000000 0.000000 0.000000
# 2 -0.009812 0.019678 -0.006511 0.000000 0.000000 0.000000
# 3 -0.006511 -0.006511 0.022077 0.000000 0.000000 0.000000
# 4 0.000000 0.000000 0.000000 0.052190 0.000000 0.000000
# 5 0.000000 0.000000 0.000000 0.000000 0.052190 0.000000
# 6 0.000000 0.000000 0.000000 0.000000 0.000000 0.199431
#
#
# Mechanical properties :
#
#
# Convention : Reuss Voigt Hill
#
# Bulk Modulus (GPa) = 63.43329 66.87583 65.15456
# Shear Modulus (GPa) = 12.01446 16.00860 14.01153
#
# Velocity S-wave (km/s) = 2.71613 3.13527 2.93319
# Velocity P-wave (km/s) = 6.98477 7.36009 7.17488
#
# Compressibility (1/GPa) = 0.01576459
#
# Stress axis : x y z
#
# Youngs Moduli (GPa) = 50.81878 50.81878 45.29683
#
# Poissons Ratio (x) = 0.49862 0.29493
# Poissons Ratio (y) = 0.49862 0.29493
# Poissons Ratio (z) = 0.33088 0.33088
#
# Static dielectric constant tensor:
#      x y z
#    x 1.525080 0.000000 0.000000 
#    y 0.000000 1.525080 0.000000 
#    z 0.000000 0.000000 1.572610 
# 
# From -- ./inp_files/8315.got.cif
#   From: 2010.05.17/outbox.cif.g08.bks.cpg/sg123_5_cif.got.tgz:8315.got - 2010.05.20 11:43:04.
