data_PCOD9562414
_publ_section_title
;
Structure prediction by ZEFSAII (Michael W. Deem and Ramdas Pophale) SiO2 
 PCOD9562414
Probable space group: P 4/M C C
;
_chemical_formula_sum "Si O2"
_cell_formula_units_Z 80
_cell_length_a 15.372890
_cell_length_b 15.372890
_cell_length_c 14.570358
_cell_angle_alpha 90.000000
_cell_angle_beta 90.000000
_cell_angle_gamma 90.000000
_cell_volume 3443.350738
_symmetry_space_group_name_H-M "P 4/M C C"
_symmetry_group_IT_number 124
_symmetry_cell_setting 'tetragonal'
loop_
_space_group_symop_operation_xyz
x,y,z
-y,x,z
-x,-y,z
y,-x,z
x,-y,1/2-z
-x,y,1/2-z
y,x,1/2-z
-y,-x,1/2-z
-x,-y,-z
y,-x,-z
x,y,-z
-y,x,-z
-x,y,1/2+z
x,-y,1/2+z
-y,-x,1/2+z
y,x,1/2+z
loop_
_atom_site_type_symbol
_atom_site_label
_atom_site_fract_x
_atom_site_fract_y
_atom_site_fract_z
Si Si1 0.609907 0.797664 0.105542
Si Si2 0.108270 0.776179 0.888402
Si Si3 0.616696 0.424938 0.112439
Si Si4 0.910973 0.540365 0.148195
Si Si5 0.254264 0.914928 0.888505
O O1 0.678801 0.865962 0.142909
O O2 0.618259 0.703396 0.149131
O O3 0.510908 0.830055 0.104986
O O4 0.636697 0.787668 0.000000
O O5 0.185564 0.840914 0.859262
O O6 0.008182 0.785935 0.860027
O O7 0.105442 0.782245 0.000000
O O8 0.615661 0.525796 0.140166
O O9 0.617884 0.423603 0.000000
O O10 0.909041 0.500000 0.250000
O O11 0.907445 0.644473 0.142336
O O12 0.000000 0.500000 0.106465
O O13 0.259280 0.912267 0.000000
#
# Coordination Sequence:
#
# PCOD9562414 Si02
#       5
#    16  16  16  16  16
#     4  10  19  32  54  82 109 142 189 240 290 350
#     4   9  19  33  55  88 119 147 192 241 295 357
#     4   8  15  27  45  73 107 139 174 221 277 337
#     4  11  23  38  57  78 115 151 194 238 291 348
#     4  10  20  37  61  89 119 155 193 243 299 355
#
# _framework density 23.233184000000001
#
# number of rings (size 3 to 8) (size 9 to 14) (size 15 to 20)
#    0.000    2.400    2.000    1.200    2.800    1.200 
#    0.000    3.000    0.000    0.000    0.000    1.400 
#    0.000    0.000    0.000    0.000    0.000    0.000 
#
# Total GULP energy -446340.804716 kJ/mol
# GULP energy per Si atom -5579.260059 kJ/mol
# Density = 2.318030 g / cm^3
# Si number density = 23.233184 Si / 1000 Ang^3
#
#
#
# Elastic Constant Matrix: (Units=GPa)
#
#
# Indices 1 2 3 4 5 6 
#
# 1 102.1878 70.8311 16.4941 0.0000 0.0000 0.0000
# 2 70.8311 102.1878 16.4941 0.0000 0.0000 0.0000
# 3 16.4941 16.4941 74.0100 0.0000 0.0000 0.0000
# 4 0.0000 0.0000 0.0000 3.4418 0.0000 0.0000
# 5 0.0000 0.0000 0.0000 0.0000 3.4418 0.0000
# 6 0.0000 0.0000 0.0000 0.0000 0.0000 19.2153
#
#
#
# Elastic Compliance Matrix: (Units=1/GPa)
#
#
# Indices 1 2 3 4 5 6 
#
# 1 0.018964 -0.012927 -0.001345 0.000000 0.000000 0.000000
# 2 -0.012927 0.018964 -0.001345 0.000000 0.000000 0.000000
# 3 -0.001345 -0.001345 0.014111 0.000000 0.000000 0.000000
# 4 0.000000 0.000000 0.000000 0.290549 0.000000 0.000000
# 5 0.000000 0.000000 0.000000 0.000000 0.290549 0.000000
# 6 0.000000 0.000000 0.000000 0.000000 0.000000 0.052042
#
#
# Mechanical properties :
#
#
# Convention : Reuss Voigt Hill
#
# Bulk Modulus (GPa) = 48.07067 54.00271 51.03669
# Shear Modulus (GPa) = 6.91230 16.85752 11.88491
#
# Velocity S-wave (km/s) = 1.72674 2.69658 2.26420
# Velocity P-wave (km/s) = 4.97101 5.74366 5.37125
#
# Compressibility (1/GPa) = 0.02080270
#
# Stress axis : x y z
#
# Youngs Moduli (GPa) = 52.73247 52.73247 70.86521
#
# Poissons Ratio (x) = 0.68170 0.09533
# Poissons Ratio (y) = 0.68170 0.09533
# Poissons Ratio (z) = 0.07094 0.07094
#
# Static dielectric constant tensor:
#      x y z
#    x 1.866290 0.000000 0.000000 
#    y 0.000000 1.866290 0.000000 
#    z 0.000000 0.000000 2.004710 
# 
# From -- ./inp_files/5103.got.cif
#   From: 2010.05.17/outbox.cif.g08.bks.cpg/sg124_3_cif.got.tgz:5103.got - 2010.05.20 11:49:17.
