data_PCOD9562021
_publ_section_title
;
Structure prediction by ZEFSAII (Michael W. Deem and Ramdas Pophale) SiO2 
 PCOD9562021
Probable space group: P 4/M M M
;
_chemical_formula_sum "Si O2"
_cell_formula_units_Z 96
_cell_length_a 14.070131
_cell_length_b 14.070131
_cell_length_c 30.909515
_cell_angle_alpha 90.000000
_cell_angle_beta 90.000000
_cell_angle_gamma 90.000000
_cell_volume 6119.112990
_symmetry_space_group_name_H-M "P 4/M M M"
_symmetry_group_IT_number 123
_symmetry_cell_setting 'tetragonal'
loop_
_space_group_symop_operation_xyz
x,y,z
-y,x,z
-x,-y,z
y,-x,z
x,-y,-z
-x,y,-z
y,x,-z
-y,-x,-z
-x,-y,-z
y,-x,-z
x,y,-z
-y,x,-z
-x,y,z
x,-y,z
-y,-x,z
y,x,z
loop_
_atom_site_type_symbol
_atom_site_label
_atom_site_fract_x
_atom_site_fract_y
_atom_site_fract_z
Si Si1 0.614030 0.771852 0.414109
Si Si2 0.614841 0.109037 0.500000
Si Si3 0.892686 0.615655 0.000000
Si Si4 0.230696 0.388505 0.820068
Si Si5 0.111758 0.268391 0.653922
Si Si6 0.387980 0.766996 0.918812
Si Si7 0.733013 0.889645 0.756112
O O1 0.500000 0.757978 0.412882
O O2 0.673819 0.673819 0.413999
O O3 0.640116 0.831590 0.457253
O O4 0.651624 0.835454 0.374221
O O5 0.500000 0.103215 0.500000
O O6 0.650852 0.000000 0.500000
O O7 0.837939 0.643852 0.956481
O O8 0.895170 0.500000 0.000000
O O9 0.000000 0.650652 0.000000
O O10 0.247852 0.500000 0.814029
O O11 0.326412 0.326412 0.814874
O O12 0.196954 0.373436 0.869725
O O13 0.155605 0.347968 0.786008
O O14 0.170663 0.170663 0.646332
O O15 0.119314 0.290119 0.705092
O O16 0.000000 0.260547 0.643092
O O17 0.500000 0.749745 0.924124
O O18 0.329455 0.670546 0.923180
O O19 0.827538 0.827538 0.763898
O O20 0.747481 0.000000 0.765733
#
# Coordination Sequence:
#
# PCOD9562021 Si02
#       7
#    16   8   8  16  16  16  16
#     4  10  20  33  49  70  97 129 165 202 237 276
#     4   9  17  30  49  71  93 119 153 193 236 279
#     4   9  17  28  41  59  85 115 145 177 213 256
#     4   9  18  31  46  66  92 121 154 191 230 274
#     4   9  18  32  50  72  96 122 153 191 237 287
#     4   9  17  29  45  65  89 116 146 182 223 267
#     4   9  18  32  49  70  95 121 152 192 236 282
#
# _framework density 15.688549
#
# number of rings (size 3 to 8) (size 9 to 14) (size 15 to 20)
#    0.000    2.833    0.000    1.000    0.000    3.500 
#    0.000    6.667    0.000    3.000    0.000    4.667 
#    0.000    8.667    0.000    0.000    0.000    0.500 
#
# Total GULP energy -534620.733437 kJ/mol
# GULP energy per Si atom -5568.965973 kJ/mol
# Density = 1.565284 g / cm^3
# Si number density = 15.688549 Si / 1000 Ang^3
#
#
#
# Elastic Constant Matrix: (Units=GPa)
#
#
# Indices 1 2 3 4 5 6 
#
# 1 98.1319 48.7140 59.3593 0.0000 0.0000 0.0000
# 2 48.7140 98.1319 59.3593 0.0000 0.0000 0.0000
# 3 59.3593 59.3593 80.5835 0.0000 0.0000 0.0000
# 4 0.0000 0.0000 0.0000 24.2613 0.0000 0.0000
# 5 0.0000 0.0000 0.0000 0.0000 24.2613 0.0000
# 6 0.0000 0.0000 0.0000 0.0000 0.0000 7.0494
#
#
#
# Elastic Compliance Matrix: (Units=1/GPa)
#
#
# Indices 1 2 3 4 5 6 
#
# 1 0.018536 -0.001700 -0.012402 0.000000 0.000000 0.000000
# 2 -0.001700 0.018536 -0.012402 0.000000 0.000000 0.000000
# 3 -0.012402 -0.012402 0.030680 0.000000 0.000000 0.000000
# 4 0.000000 0.000000 0.000000 0.041218 0.000000 0.000000
# 5 0.000000 0.000000 0.000000 0.000000 0.041218 0.000000
# 6 0.000000 0.000000 0.000000 0.000000 0.000000 0.141856
#
#
# Mechanical properties :
#
#
# Convention : Reuss Voigt Hill
#
# Bulk Modulus (GPa) = 67.81803 67.96807 67.89305
# Shear Modulus (GPa) = 14.28711 18.40871 16.34791
#
# Velocity S-wave (km/s) = 3.02101 3.42919 3.23155
# Velocity P-wave (km/s) = 7.44918 7.68743 7.56924
#
# Compressibility (1/GPa) = 0.01474534
#
# Stress axis : x y z
#
# Youngs Moduli (GPa) = 53.94929 53.94929 32.59403
#
# Poissons Ratio (x) = 0.09169 0.40423
# Poissons Ratio (y) = 0.09169 0.40423
# Poissons Ratio (z) = 0.66907 0.66907
#
# Static dielectric constant tensor:
#      x y z
#    x 1.503960 0.000000 0.000000 
#    y 0.000000 1.503960 0.000000 
#    z 0.000000 0.000000 1.537320 
# 
# From -- ./inp_files/8145.got.cif
#   From: 2010.05.17/outbox.cif.g08.bks.cpg/sg123_5_cif.got.tgz:8145.got - 2010.05.20 11:43:04.
