data_PCOD9562225
_publ_section_title
;
Structure prediction by ZEFSAII (Michael W. Deem and Ramdas Pophale) SiO2 
 PCOD9562225
Probable space group: P 4/M M M
;
_chemical_formula_sum "Si O2"
_cell_formula_units_Z 64
_cell_length_a 21.399293
_cell_length_b 21.399293
_cell_length_c 7.637146
_cell_angle_alpha 90.000000
_cell_angle_beta 90.000000
_cell_angle_gamma 90.000000
_cell_volume 3497.276289
_symmetry_space_group_name_H-M "P 4/M M M"
_symmetry_group_IT_number 123
_symmetry_cell_setting 'tetragonal'
loop_
_space_group_symop_operation_xyz
x,y,z
-y,x,z
-x,-y,z
y,-x,z
x,-y,-z
-x,y,-z
y,x,-z
-y,-x,-z
-x,-y,-z
y,-x,-z
x,y,-z
-y,x,-z
-x,y,z
x,-y,z
-y,-x,z
y,x,z
loop_
_atom_site_type_symbol
_atom_site_label
_atom_site_fract_x
_atom_site_fract_y
_atom_site_fract_z
Si Si1 0.500000 0.928907 0.215281
Si Si2 0.148243 0.747655 0.791562
Si Si3 0.837242 0.394111 0.206128
Si Si4 0.600200 0.500000 0.211679
Si Si5 0.500000 0.255723 0.298015
Si Si6 0.820474 0.925707 0.500000
O O1 0.561298 0.891979 0.276805
O O2 0.500000 0.000000 0.269416
O O3 0.500000 0.926756 0.000000
O O4 0.210598 0.789403 0.772369
O O5 0.161806 0.676781 0.729138
O O6 0.096616 0.780663 0.669887
O O7 0.131953 0.748328 0.000000
O O8 0.775487 0.436802 0.224179
O O9 0.848266 0.387761 0.000000
O O10 0.560458 0.560458 0.268151
O O11 0.670598 0.500000 0.273612
O O12 0.600880 0.500000 0.000000
O O13 0.500000 0.239398 0.500000
O O14 0.884192 0.884192 0.500000
O O15 0.830829 0.000000 0.500000
#
# Coordination Sequence:
#
# PCOD9562225 Si02
#       6
#     8  16  16   8   8   8
#     4   8  14  26  45  69  96 127 166 210 254 302
#     4   9  19  36  58  83 111 146 187 233 283 331
#     4   9  18  33  52  73 103 141 181 225 270 321
#     4   9  19  37  57  73  94 129 176 230 282 334
#     4  11  22  32  49  77 110 145 180 226 281 334
#     4  10  22  39  60  87 119 151 184 226 270 326
#
# _framework density 18.299956000000002
#
# number of rings (size 3 to 8) (size 9 to 14) (size 15 to 20)
#    0.000    2.750    0.000    2.250    1.750    3.125 
#    0.000    5.625    0.000    1.500    0.000    3.500 
#    0.000    0.000    0.000    0.000    0.000    0.000 
#
# Total GULP energy -356619.075835 kJ/mol
# GULP energy per Si atom -5572.173060 kJ/mol
# Density = 1.825830 g / cm^3
# Si number density = 18.299956 Si / 1000 Ang^3
#
#
#
# Elastic Constant Matrix: (Units=GPa)
#
#
# Indices 1 2 3 4 5 6 
#
# 1 167.4152 74.8326 30.6914 0.0000 0.0000 0.0000
# 2 74.8326 167.4152 30.6914 0.0000 0.0000 0.0000
# 3 30.6914 30.6914 58.5002 0.0000 0.0000 0.0000
# 4 0.0000 0.0000 0.0000 7.3636 0.0000 0.0000
# 5 0.0000 0.0000 0.0000 0.0000 7.3636 0.0000
# 6 0.0000 0.0000 0.0000 0.0000 0.0000 -0.3850
#
#
#
# Elastic Compliance Matrix: (Units=1/GPa)
#
#
# Indices 1 2 3 4 5 6 
#
# 1 0.007781 -0.003020 -0.002498 0.000000 0.000000 0.000000
# 2 -0.003020 0.007781 -0.002498 0.000000 0.000000 0.000000
# 3 -0.002498 -0.002498 0.019715 0.000000 0.000000 0.000000
# 4 0.000000 0.000000 0.000000 0.135802 0.000000 0.000000
# 5 0.000000 0.000000 0.000000 0.000000 0.135802 0.000000
# 6 0.000000 0.000000 0.000000 0.000000 0.000000 -2.597685
#
#
# Mechanical properties :
#
#
# Convention : Reuss Voigt Hill
#
# Bulk Modulus (GPa) = 51.95990 73.97349 62.96670
# Shear Modulus (GPa) = -2.20424 20.00948 8.90262
#
# Velocity S-wave (km/s) = -1.09869 3.31027 2.20803
# Velocity P-wave (km/s) = 5.18127 7.42436 6.40182
#
# Compressibility (1/GPa) = 0.01924561
#
# Stress axis : x y z
#
# Youngs Moduli (GPa) = 128.51764 128.51764 50.72331
#
# Poissons Ratio (x) = 0.38814 0.12669
# Poissons Ratio (y) = 0.38814 0.12669
# Poissons Ratio (z) = 0.32100 0.32100
#
# Static dielectric constant tensor:
#      x y z
#    x 1.671120 0.000000 0.000000 
#    y 0.000000 1.671120 0.000000 
#    z 0.000000 0.000000 1.664400 
# 
# From -- ./inp_files/998.got.cif
#   From: 2010.05.17/outbox.cif.g08.bks.cpg/sg123_1_cif.got.tgz:998.got - 2010.05.20 11:43:04.
