data_PCOD9562115
_publ_section_title
;
Structure prediction by ZEFSAII (Michael W. Deem and Ramdas Pophale) SiO2 
 PCOD9562115
Probable space group: P 4/M M M
;
_chemical_formula_sum "Si O2"
_cell_formula_units_Z 72
_cell_length_a 21.249771
_cell_length_b 21.249771
_cell_length_c 9.499876
_cell_angle_alpha 90.000000
_cell_angle_beta 90.000000
_cell_angle_gamma 90.000000
_cell_volume 4289.695299
_symmetry_space_group_name_H-M "P 4/M M M"
_symmetry_group_IT_number 123
_symmetry_cell_setting 'tetragonal'
loop_
_space_group_symop_operation_xyz
x,y,z
-y,x,z
-x,-y,z
y,-x,z
x,-y,-z
-x,y,-z
y,x,-z
-y,-x,-z
-x,-y,-z
y,-x,-z
x,y,-z
-y,x,-z
-x,y,z
x,-y,z
-y,-x,z
y,x,z
loop_
_atom_site_type_symbol
_atom_site_label
_atom_site_fract_x
_atom_site_fract_y
_atom_site_fract_z
Si Si1 0.255183 0.575415 0.338092
Si Si2 0.261164 0.071566 0.831529
Si Si3 0.110691 0.616714 0.661252
Si Si4 0.500000 0.926467 0.846822
Si Si5 0.689205 0.689205 0.829897
Si Si6 0.794949 0.205051 0.168784
O O1 0.279011 0.579254 0.500000
O O2 0.251555 0.500000 0.303144
O O3 0.185982 0.607170 0.339160
O O4 0.292883 0.620836 0.232975
O O5 0.322419 0.084078 0.738380
O O6 0.219626 0.132681 0.794125
O O7 0.237381 0.000000 0.806900
O O8 0.275322 0.075550 0.000000
O O9 0.089166 0.613663 0.500000
O O10 0.088973 0.559614 0.755354
O O11 0.500000 0.000000 0.866983
O O12 0.500000 0.894375 0.000000
O O13 0.742488 0.742488 0.784117
O O14 0.688488 0.688488 0.000000
O O15 0.791222 0.208779 0.000000
#
# Coordination Sequence:
#
# PCOD9562115 Si02
#       6
#    16  16  16   8   8   8
#     4  10  21  38  57  80 112 148 183 222 275 333
#     4  10  20  35  54  76 107 145 184 228 279 334
#     4  11  21  34  52  76 107 141 181 226 270 321
#     4  11  23  35  47  67 101 147 190 221 262 323
#     4  11  21  35  59  86 111 143 185 234 279 324
#     4   9  18  33  53  80 108 141 187 231 275 325
#
# _framework density 16.784409
#
# number of rings (size 3 to 8) (size 9 to 14) (size 15 to 20)
#    0.000    1.667    3.333    2.000    0.000    5.333 
#    0.000    0.556    0.000    0.667    0.000    4.667 
#    0.000    0.000    0.000    2.000    0.000    2.222 
#
# Total GULP energy -400823.842316 kJ/mol
# GULP energy per Si atom -5566.997810 kJ/mol
# Density = 1.674621 g / cm^3
# Si number density = 16.784409 Si / 1000 Ang^3
#
#
#
# Elastic Constant Matrix: (Units=GPa)
#
#
# Indices 1 2 3 4 5 6 
#
# 1 82.4697 49.3978 45.8362 0.0000 0.0000 0.0000
# 2 49.3978 82.4694 45.8362 0.0000 0.0000 0.0000
# 3 45.8362 45.8362 89.0869 0.0000 0.0000 0.0000
# 4 0.0000 0.0000 0.0000 22.6535 0.0000 0.0000
# 5 0.0000 0.0000 0.0000 0.0000 22.6539 0.0000
# 6 0.0000 0.0000 0.0000 0.0000 0.0000 128.9141
#
#
#
# Elastic Compliance Matrix: (Units=1/GPa)
#
#
# Indices 1 2 3 4 5 6 
#
# 1 0.021022 -0.009216 -0.006074 0.000000 0.000000 0.000000
# 2 -0.009216 0.021022 -0.006074 0.000000 0.000000 0.000000
# 3 -0.006074 -0.006074 0.017476 0.000000 0.000000 0.000000
# 4 0.000000 0.000000 0.000000 0.044143 0.000000 0.000000
# 5 0.000000 0.000000 0.000000 0.000000 0.044143 0.000000
# 6 0.000000 0.000000 0.000000 0.000000 0.000000 0.007757
#
#
# Mechanical properties :
#
#
# Convention : Reuss Voigt Hill
#
# Bulk Modulus (GPa) = 59.55766 59.57404 59.56585
# Shear Modulus (GPa) = 24.52329 42.37468 33.44899
#
# Velocity S-wave (km/s) = 3.82655 5.03004 4.46899
# Velocity P-wave (km/s) = 7.42188 8.32501 7.88638
#
# Compressibility (1/GPa) = 0.01679045
#
# Stress axis : x y z
#
# Youngs Moduli (GPa) = 47.56987 47.56963 57.22218
#
# Poissons Ratio (x) = 0.43838 0.34759
# Poissons Ratio (y) = 0.43838 0.34760
# Poissons Ratio (z) = 0.28896 0.28896
#
# Static dielectric constant tensor:
#      x y z
#    x 1.568350 0.000000 0.000000 
#    y 0.000000 1.568350 0.000000 
#    z 0.000000 0.000000 1.604940 
# 
# From -- ./inp_files/1143.got.cif
#   From: 2010.05.17/outbox.cif.g08.bks.cpg/sg123_1_cif.got.tgz:1143.got - 2010.05.20 11:43:04.
