data_PCOD9562141
_publ_section_title
;
Structure prediction by ZEFSAII (Michael W. Deem and Ramdas Pophale) SiO2 
 PCOD9562141
Probable space group: P 4/M M M
;
_chemical_formula_sum "Si O2"
_cell_formula_units_Z 64
_cell_length_a 20.737053
_cell_length_b 20.737053
_cell_length_c 8.134850
_cell_angle_alpha 90.000000
_cell_angle_beta 90.000000
_cell_angle_gamma 90.000000
_cell_volume 3498.191858
_symmetry_space_group_name_H-M "P 4/M M M"
_symmetry_group_IT_number 123
_symmetry_cell_setting 'tetragonal'
loop_
_space_group_symop_operation_xyz
x,y,z
-y,x,z
-x,-y,z
y,-x,z
x,-y,-z
-x,y,-z
y,x,-z
-y,-x,-z
-x,-y,-z
y,-x,-z
x,y,-z
-y,x,-z
-x,y,z
x,-y,z
-y,-x,z
y,x,z
loop_
_atom_site_type_symbol
_atom_site_label
_atom_site_fract_x
_atom_site_fract_y
_atom_site_fract_z
Si Si1 0.426732 0.820455 0.803890
Si Si2 0.573354 0.323269 0.302034
Si Si3 0.324652 0.926817 0.698241
Si Si4 0.177813 0.073763 0.700756
O O1 0.500000 0.833261 0.742726
O O2 0.407371 0.749650 0.741122
O O3 0.376839 0.875213 0.753146
O O4 0.428844 0.817923 0.000000
O O5 0.571749 0.328146 0.500000
O O6 0.500000 0.333475 0.241112
O O7 0.623880 0.376121 0.239667
O O8 0.324109 0.927430 0.500000
O O9 0.251333 0.911198 0.751854
O O10 0.339577 0.000000 0.753775
O O11 0.177097 0.074692 0.500000
O O12 0.125633 0.125633 0.758367
O O13 0.163040 0.000000 0.749913
#
# Coordination Sequence:
#
# PCOD9562141 Si02
#       4
#    16  16  16  16
#     4  10  21  35  50  70  97 127 160 201 245 289
#     4   9  18  33  53  76 101 129 161 197 238 286
#     4   9  18  32  49  70  97 128 162 201 244 290
#     4   8  14  25  42  66  95 124 154 189 229 274
#
# _framework density 18.295165999999998
#
# number of rings (size 3 to 8) (size 9 to 14) (size 15 to 20)
#    0.000    3.000    0.000    2.250    0.000    4.500 
#    0.000    7.500    0.000    0.000    0.000    3.500 
#    0.000    0.000    0.000    5.500    0.000    5.500 
#
# Total GULP energy -356762.850289 kJ/mol
# GULP energy per Si atom -5574.419536 kJ/mol
# Density = 1.825353 g / cm^3
# Si number density = 18.295166 Si / 1000 Ang^3
#
#
#
# Elastic Constant Matrix: (Units=GPa)
#
#
# Indices 1 2 3 4 5 6 
#
# 1 151.7549 137.3653 11.6793 0.0000 0.0000 0.0000
# 2 137.3653 151.7549 11.6793 0.0000 0.0000 0.0000
# 3 11.6793 11.6793 9.8447 0.0000 0.0000 0.0000
# 4 0.0000 0.0000 0.0000 -2.4396 0.0000 0.0000
# 5 0.0000 0.0000 0.0000 0.0000 -2.4396 0.0000
# 6 0.0000 0.0000 0.0000 0.0000 0.0000 43.7935
#
#
#
# Elastic Compliance Matrix: (Units=1/GPa)
#
#
# Indices 1 2 3 4 5 6 
#
# 1 0.036660 -0.032834 -0.004538 0.000000 0.000000 0.000000
# 2 -0.032834 0.036660 -0.004538 0.000000 0.000000 0.000000
# 3 -0.004538 -0.004538 0.112345 0.000000 0.000000 0.000000
# 4 0.000000 0.000000 0.000000 -0.409902 0.000000 0.000000
# 5 0.000000 0.000000 0.000000 0.000000 -0.409902 0.000000
# 6 0.000000 0.000000 0.000000 0.000000 0.000000 0.022834
#
#
# Mechanical properties :
#
#
# Convention : Reuss Voigt Hill
#
# Bulk Modulus (GPa) = 9.81905 70.53358 40.17632
# Shear Modulus (GPa) = -10.13099 17.95823 3.91362
#
# Velocity S-wave (km/s) = -2.35575 3.13642 1.46417
# Velocity P-wave (km/s) = 1.42152 7.19396 4.98660
#
# Compressibility (1/GPa) = 0.10184281
#
# Stress axis : x y z
#
# Youngs Moduli (GPa) = 27.27780 27.27780 8.90114
#
# Poissons Ratio (x) = 0.89565 0.04040
# Poissons Ratio (y) = 0.89565 0.04040
# Poissons Ratio (z) = 0.12379 0.12379
#
# Static dielectric constant tensor:
#      x y z
#    x 1.617570 0.000000 0.000000 
#    y 0.000000 1.617570 0.000000 
#    z 0.000000 0.000000 1.640770 
# 
# From -- ./inp_files/869.got.cif
#   From: 2010.05.17/outbox.cif.g08.bks.cpg/sg123_1_cif.got.tgz:869.got - 2010.05.20 11:43:04.
