data_PCOD9562555
_publ_section_title
;
Structure prediction by ZEFSAII (Michael W. Deem and Ramdas Pophale) SiO2 
 PCOD9562555
Probable space group: P 4/M C C
;
_chemical_formula_sum "Si O2"
_cell_formula_units_Z 96
_cell_length_a 18.027129
_cell_length_b 18.027129
_cell_length_c 16.272522
_cell_angle_alpha 90.000000
_cell_angle_beta 90.000000
_cell_angle_gamma 90.000000
_cell_volume 5288.201565
_symmetry_space_group_name_H-M "P 4/M C C"
_symmetry_group_IT_number 124
_symmetry_cell_setting 'tetragonal'
loop_
_space_group_symop_operation_xyz
x,y,z
-y,x,z
-x,-y,z
y,-x,z
x,-y,1/2-z
-x,y,1/2-z
y,x,1/2-z
-y,-x,1/2-z
-x,-y,-z
y,-x,-z
x,y,-z
-y,x,-z
-x,y,1/2+z
x,-y,1/2+z
-y,-x,1/2+z
y,x,1/2+z
loop_
_atom_site_type_symbol
_atom_site_label
_atom_site_fract_x
_atom_site_fract_y
_atom_site_fract_z
Si Si1 0.799987 0.688396 0.788295
Si Si2 0.990028 0.622401 0.151487
Si Si3 0.438959 0.132547 0.177503
Si Si4 0.969153 0.787495 0.597822
Si Si5 0.570814 0.825402 0.405552
Si Si6 0.868902 0.818939 0.100177
O O1 0.733585 0.733585 0.750000
O O2 0.841617 0.638733 0.718027
O O3 0.775869 0.625484 0.852007
O O4 0.846139 0.749199 0.842273
O O5 0.059303 0.573450 0.123142
O O6 0.009825 0.706690 0.130790
O O7 0.000000 0.614080 0.250000
O O8 0.910669 0.597121 0.117371
O O9 0.500000 0.119571 0.250000
O O10 0.485855 0.187125 0.120389
O O11 0.961578 0.781085 0.500000
O O12 0.891080 0.821377 0.626176
O O13 0.043710 0.834674 0.613418
O O14 0.582752 0.814797 0.500000
O O15 0.859284 0.804626 0.000000
#
# Coordination Sequence:
#
# PCOD9562555 Si02
#       6
#    16  16  16  16  16  16
#     4  11  21  37  58  80 112 155 193 234 291 347
#     4  12  19  32  54  79 111 147 190 237 295 353
#     4  10  21  35  54  82 112 144 186 229 280 349
#     4  10  21  34  51  74 106 151 202 256 307 354
#     4  11  23  37  57  82 117 150 184 234 294 351
#     4  10  20  35  52  75 107 147 204 261 314 355
#
# _framework density 18.15362
#
# number of rings (size 3 to 8) (size 9 to 14) (size 15 to 20)
#    0.000    1.333    5.000    2.500    0.000    2.333 
#    0.000    3.333    0.000    0.000    0.000    2.333 
#    0.000   27.000    0.000   13.500    0.000    0.000 
#
# Total GULP energy -534595.663303 kJ/mol
# GULP energy per Si atom -5568.704826 kJ/mol
# Density = 1.811230 g / cm^3
# Si number density = 18.153620 Si / 1000 Ang^3
#
#
#
# Elastic Constant Matrix: (Units=GPa)
#
#
# Indices 1 2 3 4 5 6 
#
# 1 84.7458 44.4824 22.5793 0.0000 0.0000 0.0000
# 2 44.4824 84.7458 22.5793 0.0000 0.0000 0.0000
# 3 22.5793 22.5793 49.4854 0.0000 0.0000 0.0000
# 4 0.0000 0.0000 0.0000 14.7207 0.0000 0.0000
# 5 0.0000 0.0000 0.0000 0.0000 14.7207 0.0000
# 6 0.0000 0.0000 0.0000 0.0000 0.0000 23.2705
#
#
#
# Elastic Compliance Matrix: (Units=1/GPa)
#
#
# Indices 1 2 3 4 5 6 
#
# 1 0.017021 -0.007815 -0.004201 0.000000 0.000000 0.000000
# 2 -0.007815 0.017021 -0.004201 0.000000 0.000000 0.000000
# 3 -0.004201 -0.004201 0.024041 0.000000 0.000000 0.000000
# 4 0.000000 0.000000 0.000000 0.067931 0.000000 0.000000
# 5 0.000000 0.000000 0.000000 0.000000 0.067931 0.000000
# 6 0.000000 0.000000 0.000000 0.000000 0.000000 0.042973
#
#
# Mechanical properties :
#
#
# Convention : Reuss Voigt Hill
#
# Bulk Modulus (GPa) = 38.98455 44.25102 41.61779
# Shear Modulus (GPa) = 17.99191 19.16478 18.57834
#
# Velocity S-wave (km/s) = 3.15158 3.25268 3.20253
# Velocity P-wave (km/s) = 5.89616 6.20768 6.05393
#
# Compressibility (1/GPa) = 0.02565118
#
# Stress axis : x y z
#
# Youngs Moduli (GPa) = 58.74989 58.74989 41.59503
#
# Poissons Ratio (x) = 0.45914 0.17472
# Poissons Ratio (y) = 0.45914 0.17472
# Poissons Ratio (z) = 0.24679 0.24679
#
# Static dielectric constant tensor:
#      x y z
#    x 1.679050 0.000000 0.000000 
#    y 0.000000 1.679050 0.000000 
#    z 0.000000 0.000000 1.689520 
# 
# From -- ./inp_files/4248.got.cif
#   From: 2010.05.17/outbox.cif.g08.bks.cpg/sg124_3_cif.got.tgz:4248.got - 2010.05.20 11:49:17.
