data_PCOD9562036
_publ_section_title
;
Structure prediction by ZEFSAII (Michael W. Deem and Ramdas Pophale) SiO2 
 PCOD9562036
Probable space group: P 4/M M M
;
_chemical_formula_sum "Si O2"
_cell_formula_units_Z 120
_cell_length_a 28.912666
_cell_length_b 28.912666
_cell_length_c 7.569715
_cell_angle_alpha 90.000000
_cell_angle_beta 90.000000
_cell_angle_gamma 90.000000
_cell_volume 6327.844629
_symmetry_space_group_name_H-M "P 4/M M M"
_symmetry_group_IT_number 123
_symmetry_cell_setting 'tetragonal'
loop_
_space_group_symop_operation_xyz
x,y,z
-y,x,z
-x,-y,z
y,-x,z
x,-y,-z
-x,y,-z
y,x,-z
-y,-x,-z
-x,-y,-z
y,-x,-z
x,y,-z
-y,x,-z
-x,y,z
x,-y,z
-y,-x,z
y,x,z
loop_
_atom_site_type_symbol
_atom_site_label
_atom_site_fract_x
_atom_site_fract_y
_atom_site_fract_z
Si Si1 0.789961 0.053661 0.787628
Si Si2 0.637398 0.191695 0.792148
Si Si3 0.552943 0.628769 0.284296
Si Si4 0.448987 0.129938 0.709517
Si Si5 0.294721 0.115758 0.794966
Si Si6 0.052718 0.618614 0.284947
Si Si7 0.627048 0.298727 0.287472
Si Si8 0.868748 0.946380 0.500000
O O1 0.751171 0.090482 0.725729
O O2 0.835824 0.060237 0.671524
O O3 0.774379 0.000000 0.758261
O O4 0.797271 0.058425 0.000000
O O5 0.588944 0.169769 0.732542
O O6 0.680840 0.161984 0.716739
O O7 0.635828 0.246023 0.760489
O O8 0.639383 0.183571 0.000000
O O9 0.552104 0.628457 0.500000
O O10 0.500000 0.626089 0.223860
O O11 0.585450 0.585450 0.231633
O O12 0.579868 0.675597 0.228949
O O13 0.453568 0.123930 0.500000
O O14 0.500000 0.139254 0.782520
O O15 0.424759 0.083280 0.777014
O O16 0.335490 0.077985 0.781721
O O17 0.284022 0.125343 0.000000
O O18 0.053995 0.620094 0.500000
O O19 0.000000 0.616167 0.228637
O O20 0.626364 0.300658 0.500000
O O21 0.668830 0.331171 0.224500
O O22 0.910577 0.910577 0.500000
O O23 0.884151 0.000000 0.500000
#
# Coordination Sequence:
#
# PCOD9562036 Si02
#       8
#    16  16  16  16  16  16  16   8
#     4   9  18  34  57  83 112 147 183 222 271 325
#     4  10  20  33  50  71  95 125 164 212 259 300
#     4   8  14  25  43  68  95 121 150 187 234 290
#     4   9  18  32  47  64  91 128 166 204 250 301
#     4   9  18  32  49  71 100 133 167 209 262 313
#     4   9  17  27  43  69  96 125 164 210 254 299
#     4   9  18  33  50  68  94 127 160 192 231 287
#     4  10  22  39  60  88 118 150 187 223 263 313
#
# _framework density 18.963802999999999
#
# number of rings (size 3 to 8) (size 9 to 14) (size 15 to 20)
#    0.000    2.933    0.000    1.600    0.933    3.133 
#    0.000    4.000    0.000    2.400    0.000    5.600 
#    0.000    0.000    0.000    2.933    0.000    2.933 
#
# Total GULP energy -668544.234669 kJ/mol
# GULP energy per Si atom -5571.201956 kJ/mol
# Density = 1.892064 g / cm^3
# Si number density = 18.963803 Si / 1000 Ang^3
#
#
#
# Elastic Constant Matrix: (Units=GPa)
#
#
# Indices 1 2 3 4 5 6 
#
# 1 136.3787 76.4796 5.4797 0.0000 0.0000 0.0000
# 2 76.4796 136.3787 5.4797 0.0000 0.0000 0.0000
# 3 5.4797 5.4797 42.9632 0.0000 0.0000 0.0000
# 4 0.0000 0.0000 0.0000 4.5723 0.0000 0.0000
# 5 0.0000 0.0000 0.0000 0.0000 4.5723 0.0000
# 6 0.0000 0.0000 0.0000 0.0000 0.0000 15.2722
#
#
#
# Elastic Compliance Matrix: (Units=1/GPa)
#
#
# Indices 1 2 3 4 5 6 
#
# 1 0.010712 -0.005983 -0.000603 0.000000 0.000000 0.000000
# 2 -0.005983 0.010712 -0.000603 0.000000 0.000000 0.000000
# 3 -0.000603 -0.000603 0.023430 0.000000 0.000000 0.000000
# 4 0.000000 0.000000 0.000000 0.218708 0.000000 0.000000
# 5 0.000000 0.000000 0.000000 0.000000 0.218708 0.000000
# 6 0.000000 0.000000 0.000000 0.000000 0.000000 0.065479
#
#
# Mechanical properties :
#
#
# Convention : Reuss Voigt Hill
#
# Bulk Modulus (GPa) = 32.81379 54.51095 43.66237
# Shear Modulus (GPa) = 8.73691 20.10213 14.41952
#
# Velocity S-wave (km/s) = 2.14876 3.25934 2.76047
# Velocity P-wave (km/s) = 4.84739 6.55527 5.76492
#
# Compressibility (1/GPa) = 0.03047499
#
# Stress axis : x y z
#
# Youngs Moduli (GPa) = 93.35434 93.35434 42.68106
#
# Poissons Ratio (x) = 0.55853 0.02574
# Poissons Ratio (y) = 0.55853 0.02574
# Poissons Ratio (z) = 0.05631 0.05631
#
# Static dielectric constant tensor:
#      x y z
#    x 1.650900 0.000000 0.000000 
#    y 0.000000 1.650900 0.000000 
#    z 0.000000 0.000000 1.735060 
# 
# From -- ./inp_files/2012.got.cif
#   From: 2010.05.17/outbox.cif.g08.bks.cpg/sg123_2_cif.got.tgz:2012.got - 2010.05.20 11:43:04.
