data_PCOD9562647
_publ_section_title
;
Structure prediction by ZEFSAII (Michael W. Deem and Ramdas Pophale) SiO2 
 PCOD9562647
Probable space group: P 4/M C C
;
_chemical_formula_sum "Si O2"
_cell_formula_units_Z 112
_cell_length_a 13.867040
_cell_length_b 13.867040
_cell_length_c 25.430215
_cell_angle_alpha 90.000000
_cell_angle_beta 90.000000
_cell_angle_gamma 90.000000
_cell_volume 4890.098066
_symmetry_space_group_name_H-M "P 4/M C C"
_symmetry_group_IT_number 124
_symmetry_cell_setting 'tetragonal'
loop_
_space_group_symop_operation_xyz
x,y,z
-y,x,z
-x,-y,z
y,-x,z
x,-y,1/2-z
-x,y,1/2-z
y,x,1/2-z
-y,-x,1/2-z
-x,-y,-z
y,-x,-z
x,y,-z
-y,x,-z
-x,y,1/2+z
x,-y,1/2+z
-y,-x,1/2+z
y,x,1/2+z
loop_
_atom_site_type_symbol
_atom_site_label
_atom_site_fract_x
_atom_site_fract_y
_atom_site_fract_z
Si Si1 0.320178 0.717048 0.420223
Si Si2 0.471931 0.794567 0.077936
Si Si3 0.294345 0.771739 0.698684
Si Si4 0.362780 0.990897 0.942345
Si Si5 0.894874 0.888436 0.327420
Si Si6 0.871042 0.166068 0.442638
Si Si7 0.092240 0.556802 0.162489
O O1 0.425132 0.751319 0.438379
O O2 0.282357 0.610908 0.433992
O O3 0.319169 0.721944 0.356564
O O4 0.236554 0.789240 0.439400
O O5 0.435027 0.898438 0.056825
O O6 0.485754 0.825452 0.139422
O O7 0.293289 0.706712 0.750000
O O8 0.188677 0.817782 0.691351
O O9 0.369249 0.859996 0.702033
O O10 0.257302 0.943311 0.937895
O O11 0.386230 0.053830 0.890558
O O12 0.369065 0.038246 0.000000
O O13 0.896035 0.883910 0.390920
O O14 0.003889 0.867919 0.310582
O O15 0.883338 0.120562 0.500000
O O16 0.000000 0.500000 0.182330
#
# Coordination Sequence:
#
# PCOD9562647 Si02
#       7
#    16  16  16  16  16  16  16
#     4   9  19  36  54  78 109 143 185 236 288 350
#     4   9  18  32  52  77 112 147 182 228 285 349
#     4  10  21  39  61  81 110 151 185 232 304 358
#     4   9  17  31  55  84 112 145 188 241 294 339
#     4  10  21  36  53  77 111 147 187 228 266 332
#     4   9  18  33  53  76 105 143 184 229 285 342
#     4   9  18  34  57  86 115 144 191 247 293 351
#
# _framework density 22.903424999999999
#
# number of rings (size 3 to 8) (size 9 to 14) (size 15 to 20)
#    0.000    2.714    0.000    0.857    0.000    5.714 
#    0.000   12.857    0.000    7.714    0.000    8.000 
#    0.000    0.000    0.000    0.000    0.000    0.000 
#
# Total GULP energy -626053.666929 kJ/mol
# GULP energy per Si atom -5589.764883 kJ/mol
# Density = 2.285130 g / cm^3
# Si number density = 22.903425 Si / 1000 Ang^3
#
#
#
# Elastic Constant Matrix: (Units=GPa)
#
#
# Indices 1 2 3 4 5 6 
#
# 1 82.3044 39.6641 17.3488 0.0000 0.0000 0.0000
# 2 39.6641 82.3048 17.3487 0.0000 0.0000 0.0000
# 3 17.3488 17.3487 128.5625 0.0000 0.0000 0.0000
# 4 0.0000 0.0000 0.0000 3.2608 0.0000 0.0000
# 5 0.0000 0.0000 0.0000 0.0000 3.2596 0.0000
# 6 0.0000 0.0000 0.0000 0.0000 0.0000 41.2073
#
#
#
# Elastic Compliance Matrix: (Units=1/GPa)
#
#
# Indices 1 2 3 4 5 6 
#
# 1 0.015989 -0.007463 -0.001151 0.000000 0.000000 0.000000
# 2 -0.007463 0.015989 -0.001151 0.000000 0.000000 0.000000
# 3 -0.001151 -0.001151 0.008089 0.000000 0.000000 0.000000
# 4 0.000000 0.000000 0.000000 0.306673 0.000000 0.000000
# 5 0.000000 0.000000 0.000000 0.000000 0.306789 0.000000
# 6 0.000000 0.000000 0.000000 0.000000 0.000000 0.024268
#
#
# Mechanical properties :
#
#
# Convention : Reuss Voigt Hill
#
# Bulk Modulus (GPa) = 48.68814 49.09947 48.89380
# Shear Modulus (GPa) = 7.10055 24.13287 15.61671
#
# Velocity S-wave (km/s) = 1.76265 3.24956 2.61406
# Velocity P-wave (km/s) = 5.04448 5.96353 5.52315
#
# Compressibility (1/GPa) = 0.02053888
#
# Stress axis : x y z
#
# Youngs Moduli (GPa) = 62.54281 62.54312 123.62713
#
# Poissons Ratio (x) = 0.46675 0.14224
# Poissons Ratio (y) = 0.46675 0.14224
# Poissons Ratio (z) = 0.07196 0.07196
#
# Static dielectric constant tensor:
#      x y z
#    x 1.875570 0.000000 0.000000 
#    y 0.000000 1.875570 0.000000 
#    z 0.000000 0.000000 1.884690 
# 
# From -- ./inp_files/6657.got.cif
#   From: 2010.05.17/outbox.cif.g08.bks.cpg/sg124_4_cif.got.tgz:6657.got - 2010.05.20 11:49:17.
