data_PCOD9562856
_publ_section_title
;
Structure prediction by ZEFSAII (Michael W. Deem and Ramdas Pophale) SiO2 
 PCOD9562856
Probable space group: P 4/M C C
;
_chemical_formula_sum "Si O2"
_cell_formula_units_Z 128
_cell_length_a 21.000000
_cell_length_b 21.000000
_cell_length_c 18.000000
_cell_angle_alpha 90.000000
_cell_angle_beta 90.000000
_cell_angle_gamma 90.000000
_cell_volume 7938.000000
_symmetry_space_group_name_H-M "P 4/M C C"
_symmetry_group_IT_number 124
_symmetry_cell_setting 'tetragonal'
loop_
_space_group_symop_operation_xyz
x,y,z
-y,x,z
-x,-y,z
y,-x,z
x,-y,1/2-z
-x,y,1/2-z
y,x,1/2-z
-y,-x,1/2-z
-x,-y,-z
y,-x,-z
x,y,-z
-y,x,-z
-x,y,1/2+z
x,-y,1/2+z
-y,-x,1/2+z
y,x,1/2+z
loop_
_atom_site_type_symbol
_atom_site_label
_atom_site_fract_x
_atom_site_fract_y
_atom_site_fract_z
Si Si1 0.180525 0.761265 0.415112
Si Si2 0.349836 0.040901 0.182696
Si Si3 0.568221 0.139696 0.780441
Si Si4 0.772045 0.316738 0.718955
Si Si5 0.865949 0.952973 0.182475
Si Si6 0.243850 0.132715 0.170700
Si Si7 0.562254 0.954887 0.586753
Si Si8 0.155568 0.934720 0.088311
O O1 0.184418 0.742847 0.500000
O O2 0.212241 0.709793 0.362379
O O3 0.215991 0.827556 0.397192
O O4 0.108535 0.782435 0.396661
O O5 0.400810 0.085576 0.226339
O O6 0.297762 0.084876 0.146247
O O7 0.320035 0.000000 0.250000
O O8 0.381592 0.996439 0.122223
O O9 0.500000 0.155863 0.750000
O O10 0.612635 0.201375 0.778771
O O11 0.560506 0.107184 0.861118
O O12 0.702779 0.297222 0.750000
O O13 0.818809 0.276261 0.772507
O O14 0.812026 0.905373 0.212110
O O15 0.912597 0.906973 0.135388
O O16 0.887531 0.000000 0.250000
O O17 0.833118 0.995691 0.119686
O O18 0.570461 0.940542 0.500000
O O19 0.500000 0.000000 0.595285
O O20 0.142970 0.931928 0.000000
#
# Coordination Sequence:
#
# PCOD9562856 Si02
#       8
#    16  16  16  16  16  16  16  16
#     4   9  18  32  48  65  89 115 142 184 238 278
#     4   9  17  28  46  65  91 125 160 191 227 274
#     4  10  18  31  50  68  92 130 164 191 233 284
#     4   9  18  33  51  70  92 117 153 195 225 263
#     4  11  20  32  48  62  77  98 135 179 227 278
#     4   9  18  31  47  68  85 111 147 187 228 273
#     4  10  19  29  42  65  98 130 159 197 233 273
#     4  10  21  34  46  60  81 106 130 172 230 288
#
# _framework density 16.124969
#
# number of rings (size 3 to 8) (size 9 to 14) (size 15 to 20)
#    0.000    2.375    1.250    1.875    0.000    5.750 
#    0.000    2.500    0.000    0.000    0.000    0.000 
#    0.000    0.250    0.000    0.000    0.000    0.000 
#
# Total GULP energy -712780.179416 kJ/mol
# GULP energy per Si atom -5568.595152 kJ/mol
# Density = 1.608827 g / cm^3
# Si number density = 16.124969 Si / 1000 Ang^3
#
#
#
# Elastic Constant Matrix: (Units=GPa)
#
#
# Indices 1 2 3 4 5 6 
#
# 1 50.3963 27.7880 19.7491 0.0000 0.0000 0.0000
# 2 27.7880 50.3953 19.7495 0.0000 0.0000 0.0000
# 3 19.7491 19.7495 68.4596 0.0000 0.0000 0.0000
# 4 0.0000 0.0000 0.0000 3.2844 0.0000 0.0000
# 5 0.0000 0.0000 0.0000 0.0000 3.2848 0.0000
# 6 0.0000 0.0000 0.0000 0.0000 0.0000 15.2866
#
#
#
# Elastic Compliance Matrix: (Units=1/GPa)
#
#
# Indices 1 2 3 4 5 6 
#
# 1 0.029602 -0.014630 -0.004319 0.000000 0.000000 0.000000
# 2 -0.014630 0.029603 -0.004320 0.000000 0.000000 0.000000
# 3 -0.004319 -0.004320 0.017099 0.000000 0.000000 0.000000
# 4 0.000000 0.000000 0.000000 0.304467 0.000000 0.000000
# 5 0.000000 0.000000 0.000000 0.000000 0.304437 0.000000
# 6 0.000000 0.000000 0.000000 0.000000 0.000000 0.065417
#
#
# Mechanical properties :
#
#
# Convention : Reuss Voigt Hill
#
# Bulk Modulus (GPa) = 33.59416 33.75825 33.67621
# Shear Modulus (GPa) = 6.19514 11.16880 8.68197
#
# Velocity S-wave (km/s) = 1.96222 2.63466 2.32290
# Velocity P-wave (km/s) = 5.10025 5.49874 5.30324
#
# Compressibility (1/GPa) = 0.02976708
#
# Stress axis : x y z
#
# Youngs Moduli (GPa) = 33.78138 33.78048 58.48218
#
# Poissons Ratio (x) = 0.49421 0.25259
# Poissons Ratio (y) = 0.49422 0.25261
# Poissons Ratio (z) = 0.14590 0.14592
#
# Static dielectric constant tensor:
#      x y z
#    x 1.590080 0.000000 0.000000 
#    y 0.000000 1.590080 0.000000 
#    z 0.000000 0.000000 1.554550 
# 
# From -- ./inp_files/4571.got.cif
#   From: 2010.05.17/outbox.ucp.g08.bks.cvg/sg124_3_cif.got.tgz:4571.got - 2010.06.11 11:36:13.
