data_PCOD9562303
_publ_section_title
;
Structure prediction by ZEFSAII (Michael W. Deem and Ramdas Pophale) SiO2 
 PCOD9562303
Probable space group: P 4/M C C
;
_chemical_formula_sum "Si O2"
_cell_formula_units_Z 48
_cell_length_a 21.206024
_cell_length_b 21.206024
_cell_length_c 8.563719
_cell_angle_alpha 90.000000
_cell_angle_beta 90.000000
_cell_angle_gamma 90.000000
_cell_volume 3851.065503
_symmetry_space_group_name_H-M "P 4/M C C"
_symmetry_group_IT_number 124
_symmetry_cell_setting 'tetragonal'
loop_
_space_group_symop_operation_xyz
x,y,z
-y,x,z
-x,-y,z
y,-x,z
x,-y,1/2-z
-x,y,1/2-z
y,x,1/2-z
-y,-x,1/2-z
-x,-y,-z
y,-x,-z
x,y,-z
-y,x,-z
-x,y,1/2+z
x,-y,1/2+z
-y,-x,1/2+z
y,x,1/2+z
loop_
_atom_site_type_symbol
_atom_site_label
_atom_site_fract_x
_atom_site_fract_y
_atom_site_fract_z
Si Si1 0.670817 0.571513 0.813027
Si Si2 0.065444 0.427805 0.186646
Si Si3 0.196151 0.428004 0.313166
O O1 0.663951 0.500000 0.750000
O O2 0.614680 0.614680 0.750000
O O3 0.737842 0.598096 0.750548
O O4 0.671589 0.570040 0.000000
O O5 0.065585 0.500000 0.250000
O O6 0.130920 0.399071 0.249360
O O7 0.000000 0.399230 0.250000
O O8 0.065265 0.429176 0.000000
O O9 0.196466 0.500000 0.250000
O O10 0.195718 0.428584 0.500000
#
# Coordination Sequence:
#
# PCOD9562303 Si02
#       3
#    16  16  16
#     4  11  21  34  47  60  73  90 114 146 185 227
#     4  10  16  23  34  51  72  94 115 137 162 197
#     4  10  17  27  40  55  72  92 113 138 170 209
#
# _framework density 12.464083
#
# number of rings (size 3 to 8) (size 9 to 14) (size 15 to 20)
#    0.000    1.667    0.000   14.000    0.000    0.333 
#    0.000    1.667    0.000    0.000    0.000    0.000 
#    0.000    0.000    0.000    0.000    0.000    0.000 
#
# Total GULP energy -267458.723959 kJ/mol
# GULP energy per Si atom -5572.056749 kJ/mol
# Density = 1.243571 g / cm^3
# Si number density = 12.464083 Si / 1000 Ang^3
#
#
#
# Elastic Constant Matrix: (Units=GPa)
#
#
# Indices 1 2 3 4 5 6 
#
# 1 71.1825 34.1793 37.8125 0.0000 0.0000 0.0000
# 2 34.1793 71.1825 37.8125 0.0000 0.0000 0.0000
# 3 37.8125 37.8125 161.9132 0.0000 0.0000 0.0000
# 4 0.0000 0.0000 0.0000 17.1778 0.0000 0.0000
# 5 0.0000 0.0000 0.0000 0.0000 17.1778 0.0000
# 6 0.0000 0.0000 0.0000 0.0000 0.0000 -0.2938
#
#
#
# Elastic Compliance Matrix: (Units=1/GPa)
#
#
# Indices 1 2 3 4 5 6 
#
# 1 0.019214 -0.007811 -0.002663 0.000000 0.000000 0.000000
# 2 -0.007811 0.019214 -0.002663 0.000000 0.000000 0.000000
# 3 -0.002663 -0.002663 0.007420 0.000000 0.000000 0.000000
# 4 0.000000 0.000000 0.000000 0.058215 0.000000 0.000000
# 5 0.000000 0.000000 0.000000 0.000000 0.058215 0.000000
# 6 0.000000 0.000000 0.000000 0.000000 0.000000 -3.403805
#
#
# Mechanical properties :
#
#
# Convention : Reuss Voigt Hill
#
# Bulk Modulus (GPa) = 51.09013 58.20963 54.64988
# Shear Modulus (GPa) = -1.55825 19.77732 9.10953
#
# Velocity S-wave (km/s) = -1.11933 3.98772 2.70638
# Velocity P-wave (km/s) = 6.27761 8.24656 7.32851
#
# Compressibility (1/GPa) = 0.01957325
#
# Stress axis : x y z
#
# Youngs Moduli (GPa) = 52.04662 52.04662 134.77278
#
# Poissons Ratio (x) = 0.40654 0.35888
# Poissons Ratio (y) = 0.40654 0.35888
# Poissons Ratio (z) = 0.13859 0.13859
#
# Static dielectric constant tensor:
#      x y z
#    x 1.432030 0.000000 0.000000 
#    y 0.000000 1.432030 0.000000 
#    z 0.000000 0.000000 1.413540 
# 
# From -- ./inp_files/722.got.cif
#   From: 2010.05.17/outbox.cif.g08.bks.cpg/sg124_1_cif.got.tgz:722.got - 2010.05.20 11:49:17.
