data_PCOD9562660
_publ_section_title
;
Structure prediction by ZEFSAII (Michael W. Deem and Ramdas Pophale) SiO2 
 PCOD9562660
Probable space group: P 4/M C C
;
_chemical_formula_sum "Si O2"
_cell_formula_units_Z 64
_cell_length_a 14.507295
_cell_length_b 14.507295
_cell_length_c 14.397284
_cell_angle_alpha 90.000000
_cell_angle_beta 90.000000
_cell_angle_gamma 90.000000
_cell_volume 3030.075545
_symmetry_space_group_name_H-M "P 4/M C C"
_symmetry_group_IT_number 124
_symmetry_cell_setting 'tetragonal'
loop_
_space_group_symop_operation_xyz
x,y,z
-y,x,z
-x,-y,z
y,-x,z
x,-y,1/2-z
-x,y,1/2-z
y,x,1/2-z
-y,-x,1/2-z
-x,-y,-z
y,-x,-z
x,y,-z
-y,x,-z
-x,y,1/2+z
x,-y,1/2+z
-y,-x,1/2+z
y,x,1/2+z
loop_
_atom_site_type_symbol
_atom_site_label
_atom_site_fract_x
_atom_site_fract_y
_atom_site_fract_z
Si Si1 0.618762 0.413392 0.613247
Si Si2 0.740756 0.102374 0.747169
Si Si3 0.913035 0.432606 0.889690
Si Si4 0.385976 0.186942 0.390186
O O1 0.623046 0.520105 0.642252
O O2 0.619430 0.412400 0.500000
O O3 0.710275 0.362025 0.643038
O O4 0.818321 0.181680 0.750000
O O5 0.661824 0.102596 0.666183
O O6 0.678120 0.116002 0.838264
O O7 0.782617 0.000000 0.750000
O O8 0.830687 0.505618 0.873841
O O9 0.000000 0.500000 0.864622
O O10 0.920708 0.413381 0.000000
O O11 0.372203 0.178809 0.500000
#
# Coordination Sequence:
#
# PCOD9562660 Si02
#       4
#    16  16  16  16
#     4   8  15  29  50  82 128 173 206 244 309 395
#     4  12  27  44  66  96 134 177 229 292 351 418
#     4  10  21  42  71  97 126 167 218 282 349 409
#     4  10  21  37  64  97 129 169 218 276 338 406
#
# _framework density 21.121585
#
# number of rings (size 3 to 8) (size 9 to 14) (size 15 to 20)
#    0.000    2.000    2.500    1.500    3.500    1.250 
#    0.000    0.000    0.000    0.000    0.000    3.500 
#    0.000    0.000    0.000    0.000    0.000    0.000 
#
# Total GULP energy -357200.577579 kJ/mol
# GULP energy per Si atom -5581.259025 kJ/mol
# Density = 2.107351 g / cm^3
# Si number density = 21.121585 Si / 1000 Ang^3
#
#
#
# Elastic Constant Matrix: (Units=GPa)
#
#
# Indices 1 2 3 4 5 6 
#
# 1 125.1809 46.2176 45.7308 0.0000 0.0000 0.0000
# 2 46.2176 125.1790 45.7302 0.0000 0.0000 0.0000
# 3 45.7308 45.7302 85.9299 0.0000 0.0000 0.0000
# 4 0.0000 0.0000 0.0000 16.2831 0.0000 0.0000
# 5 0.0000 0.0000 0.0000 0.0000 16.2843 0.0000
# 6 0.0000 0.0000 0.0000 0.0000 0.0000 24.9827
#
#
#
# Elastic Compliance Matrix: (Units=1/GPa)
#
#
# Indices 1 2 3 4 5 6 
#
# 1 0.010406 -0.002258 -0.004336 0.000000 0.000000 0.000000
# 2 -0.002258 0.010406 -0.004336 0.000000 0.000000 0.000000
# 3 -0.004336 -0.004336 0.016253 0.000000 0.000000 0.000000
# 4 0.000000 0.000000 0.000000 0.061413 0.000000 0.000000
# 5 0.000000 0.000000 0.000000 0.000000 0.061409 0.000000
# 6 0.000000 0.000000 0.000000 0.000000 0.000000 0.040028
#
#
# Mechanical properties :
#
#
# Convention : Reuss Voigt Hill
#
# Bulk Modulus (GPa) = 65.77225 67.96077 66.86651
# Shear Modulus (GPa) = 22.04148 24.75077 23.39613
#
# Velocity S-wave (km/s) = 3.23391 3.42690 3.33181
# Velocity P-wave (km/s) = 6.71950 6.92128 6.82113
#
# Compressibility (1/GPa) = 0.01520398
#
# Stress axis : x y z
#
# Youngs Moduli (GPa) = 96.09597 96.09472 61.52727
#
# Poissons Ratio (x) = 0.21698 0.26681
# Poissons Ratio (y) = 0.21698 0.26681
# Poissons Ratio (z) = 0.41672 0.41671
#
# Static dielectric constant tensor:
#      x y z
#    x 1.803270 0.000000 0.000000 
#    y 0.000000 1.803270 0.000000 
#    z 0.000000 0.000000 1.794910 
# 
# From -- ./inp_files/2964.got.cif
#   From: 2010.05.17/outbox.cif.g08.bks.cpg/sg124_2_cif.got.tgz:2964.got - 2010.05.20 11:49:17.
