data_PCOD9562708
_publ_section_title
;
Structure prediction by ZEFSAII (Michael W. Deem and Ramdas Pophale) SiO2 
 PCOD9562708
Probable space group: P 4/M C C
;
_chemical_formula_sum "Si O2"
_cell_formula_units_Z 48
_cell_length_a 8.362263
_cell_length_b 8.362263
_cell_length_c 32.863892
_cell_angle_alpha 90.000000
_cell_angle_beta 90.000000
_cell_angle_gamma 90.000000
_cell_volume 2298.087918
_symmetry_space_group_name_H-M "P 4/M C C"
_symmetry_group_IT_number 124
_symmetry_cell_setting 'tetragonal'
loop_
_space_group_symop_operation_xyz
x,y,z
-y,x,z
-x,-y,z
y,-x,z
x,-y,1/2-z
-x,y,1/2-z
y,x,1/2-z
-y,-x,1/2-z
-x,-y,-z
y,-x,-z
x,y,-z
-y,x,-z
-x,y,1/2+z
x,-y,1/2+z
-y,-x,1/2+z
y,x,1/2+z
loop_
_atom_site_type_symbol
_atom_site_label
_atom_site_fract_x
_atom_site_fract_y
_atom_site_fract_z
Si Si1 0.739248 0.933023 0.638136
Si Si2 0.458489 0.235351 0.296522
Si Si3 0.500000 0.000000 0.930990
Si Si4 0.759896 0.431283 0.000000
O O1 0.626173 0.900412 0.676826
O O2 0.889435 0.813383 0.638116
O O3 0.628535 0.916630 0.598440
O O4 0.623865 0.327776 0.304910
O O5 0.500000 0.187872 0.250000
O O6 0.583545 0.871408 0.960431
O O7 0.688307 0.611157 0.000000
#
# Coordination Sequence:
#
# PCOD9562708 Si02
#       4
#    16  16   8   8
#     4  11  23  39  62  92 125 162 204 253 310 366
#     4   9  19  39  63  88 120 163 209 251 302 362
#     4  11  22  40  63  88 124 160 193 244 306 369
#     4  10  22  40  64  92 118 152 200 247 294 356
#
# _framework density 20.886931000000001
#
# number of rings (size 3 to 8) (size 9 to 14) (size 15 to 20)
#    0.000    1.833    0.000    5.000    0.000    0.000 
#    0.000   27.500    0.000   24.000    0.000    0.000 
#    0.000    0.000    0.000    0.000    0.000    0.000 
#
# Total GULP energy -267532.428214 kJ/mol
# GULP energy per Si atom -5573.592254 kJ/mol
# Density = 2.083939 g / cm^3
# Si number density = 20.886931 Si / 1000 Ang^3
#
#
#
# Elastic Constant Matrix: (Units=GPa)
#
#
# Indices 1 2 3 4 5 6 
#
# 1 66.1100 40.7279 44.7084 0.0000 0.0000 0.0000
# 2 40.7279 66.1100 44.7084 0.0000 0.0000 0.0000
# 3 44.7084 44.7084 123.5544 0.0000 0.0000 0.0000
# 4 0.0000 0.0000 0.0000 22.2898 0.0000 0.0000
# 5 0.0000 0.0000 0.0000 0.0000 22.2898 0.0000
# 6 0.0000 0.0000 0.0000 0.0000 0.0000 57.3766
#
#
#
# Elastic Compliance Matrix: (Units=1/GPa)
#
#
# Indices 1 2 3 4 5 6 
#
# 1 0.026412 -0.012986 -0.004858 0.000000 0.000000 0.000000
# 2 -0.012986 0.026412 -0.004858 0.000000 0.000000 0.000000
# 3 -0.004858 -0.004858 0.011610 0.000000 0.000000 0.000000
# 4 0.000000 0.000000 0.000000 0.044864 0.000000 0.000000
# 5 0.000000 0.000000 0.000000 0.000000 0.044864 0.000000
# 6 0.000000 0.000000 0.000000 0.000000 0.000000 0.017429
#
#
# Mechanical properties :
#
#
# Convention : Reuss Voigt Hill
#
# Bulk Modulus (GPa) = 52.55236 57.34041 54.94638
# Shear Modulus (GPa) = 22.38770 28.76654 25.57712
#
# Velocity S-wave (km/s) = 3.27747 3.71516 3.50316
# Velocity P-wave (km/s) = 6.28788 6.77610 6.53655
#
# Compressibility (1/GPa) = 0.01902864
#
# Stress axis : x y z
#
# Youngs Moduli (GPa) = 37.86165 37.86165 86.13609
#
# Poissons Ratio (x) = 0.49167 0.41847
# Poissons Ratio (y) = 0.49167 0.41847
# Poissons Ratio (z) = 0.18394 0.18394
#
# Static dielectric constant tensor:
#      x y z
#    x 1.853080 0.000000 0.000000 
#    y 0.000000 1.853080 0.000000 
#    z 0.000000 0.000000 1.749910 
# 
# From -- ./inp_files/6773.got.cif
#   From: 2010.05.17/outbox.cif.g08.bks.cpg/sg124_4_cif.got.tgz:6773.got - 2010.05.20 11:49:17.
