data_PCOD9562364
_publ_section_title
;
Structure prediction by ZEFSAII (Michael W. Deem and Ramdas Pophale) SiO2 
 PCOD9562364
Probable space group: P 4/M C C
;
_chemical_formula_sum "Si O2"
_cell_formula_units_Z 96
_cell_length_a 25.805958
_cell_length_b 25.805958
_cell_length_c 8.835839
_cell_angle_alpha 90.000000
_cell_angle_beta 90.000000
_cell_angle_gamma 90.000000
_cell_volume 5884.204612
_symmetry_space_group_name_H-M "P 4/M C C"
_symmetry_group_IT_number 124
_symmetry_cell_setting 'tetragonal'
loop_
_space_group_symop_operation_xyz
x,y,z
-y,x,z
-x,-y,z
y,-x,z
x,-y,1/2-z
-x,y,1/2-z
y,x,1/2-z
-y,-x,1/2-z
-x,-y,-z
y,-x,-z
x,y,-z
-y,x,-z
-x,y,1/2+z
x,-y,1/2+z
-y,-x,1/2+z
y,x,1/2+z
loop_
_atom_site_type_symbol
_atom_site_label
_atom_site_fract_x
_atom_site_fract_y
_atom_site_fract_z
Si Si1 0.252044 0.549304 0.322084
Si Si2 0.331553 0.856318 0.318826
Si Si3 0.142007 0.220936 0.180418
Si Si4 0.863168 0.446490 0.818561
Si Si5 0.336687 0.742352 0.821389
Si Si6 0.056059 0.133595 0.180117
O O1 0.279730 0.500000 0.250000
O O2 0.196419 0.553148 0.238637
O O3 0.278357 0.604773 0.303650
O O4 0.242526 0.458995 0.000000
O O5 0.327794 0.859171 0.500000
O O6 0.277080 0.873282 0.246185
O O7 0.387777 0.881543 0.275508
O O8 0.334314 0.796911 0.263886
O O9 0.193988 0.193988 0.250000
O O10 0.095415 0.180908 0.212916
O O11 0.149315 0.224901 0.000000
O O12 0.886560 0.500000 0.750000
O O13 0.864951 0.450184 0.000000
O O14 0.295864 0.704137 0.750000
O O15 0.327214 0.750739 0.000000
O O16 0.082819 0.082819 0.250000
O O17 0.000000 0.142736 0.250000
O O18 0.052313 0.128214 0.000000
#
# Coordination Sequence:
#
# PCOD9562364 Si02
#       6
#    16  16  16  16  16  16
#     4   9  16  25  37  51  68  94 127 163 205 251
#     4  10  19  29  42  61  87 120 155 189 226 269
#     4  10  20  33  49  69  95 127 160 195 235 279
#     4   9  16  25  38  56  79 110 147 186 226 265
#     4  10  19  28  38  54  77 105 137 172 209 251
#     4  10  21  37  57  80 105 133 165 201 241 283
#
# _framework density 16.314865000000001
#
# number of rings (size 3 to 8) (size 9 to 14) (size 15 to 20)
#    0.000    2.333    0.000    4.500    0.000    6.167 
#    0.000    0.833    0.000    0.000    0.000    0.000 
#    0.000    1.000    0.000   11.000    0.000    8.000 
#
# Total GULP energy -534461.643278 kJ/mol
# GULP energy per Si atom -5567.308784 kJ/mol
# Density = 1.627773 g / cm^3
# Si number density = 16.314865 Si / 1000 Ang^3
#
#
#
# Elastic Constant Matrix: (Units=GPa)
#
#
# Indices 1 2 3 4 5 6 
#
# 1 79.0326 20.0732 31.2044 0.0000 0.0000 0.0000
# 2 20.0732 79.0325 31.2043 0.0000 0.0000 0.0000
# 3 31.2044 31.2043 56.6823 0.0000 0.0000 0.0000
# 4 0.0000 0.0000 0.0000 23.7766 0.0000 0.0000
# 5 0.0000 0.0000 0.0000 0.0000 23.7766 0.0000
# 6 0.0000 0.0000 0.0000 0.0000 0.0000 7.5264
#
#
#
# Elastic Compliance Matrix: (Units=1/GPa)
#
#
# Indices 1 2 3 4 5 6 
#
# 1 0.016203 -0.000758 -0.008502 0.000000 0.000000 0.000000
# 2 -0.000758 0.016203 -0.008502 0.000000 0.000000 0.000000
# 3 -0.008502 -0.008502 0.027003 0.000000 0.000000 0.000000
# 4 0.000000 0.000000 0.000000 0.042058 0.000000 0.000000
# 5 0.000000 0.000000 0.000000 0.000000 0.042058 0.000000
# 6 0.000000 0.000000 0.000000 0.000000 0.000000 0.132866
#
#
# Mechanical properties :
#
#
# Convention : Reuss Voigt Hill
#
# Bulk Modulus (GPa) = 41.87102 42.19013 42.03058
# Shear Modulus (GPa) = 15.63100 19.83362 17.73231
#
# Velocity S-wave (km/s) = 3.09865 3.49044 3.30036
# Velocity P-wave (km/s) = 6.20663 6.49310 6.35148
#
# Compressibility (1/GPa) = 0.02388286
#
# Stress axis : x y z
#
# Youngs Moduli (GPa) = 61.71873 61.71865 37.03240
#
# Poissons Ratio (x) = 0.04680 0.31486
# Poissons Ratio (y) = 0.04680 0.31486
# Poissons Ratio (z) = 0.52475 0.52475
#
# Static dielectric constant tensor:
#      x y z
#    x 1.568490 0.000000 0.000000 
#    y 0.000000 1.568490 0.000000 
#    z 0.000000 0.000000 1.547740 
# 
# From -- ./inp_files/1381.got.cif
#   From: 2010.05.17/outbox.cif.g08.bks.cpg/sg124_1_cif.got.tgz:1381.got - 2010.05.20 11:49:17.
