data_PCOD9562177
_publ_section_title
;
Structure prediction by ZEFSAII (Michael W. Deem and Ramdas Pophale) SiO2 
 PCOD9562177
Probable space group: P 4/M M M
;
_chemical_formula_sum "Si O2"
_cell_formula_units_Z 72
_cell_length_a 21.894361
_cell_length_b 21.894361
_cell_length_c 8.647549
_cell_angle_alpha 90.000000
_cell_angle_beta 90.000000
_cell_angle_gamma 90.000000
_cell_volume 4145.315408
_symmetry_space_group_name_H-M "P 4/M M M"
_symmetry_group_IT_number 123
_symmetry_cell_setting 'tetragonal'
loop_
_space_group_symop_operation_xyz
x,y,z
-y,x,z
-x,-y,z
y,-x,z
x,-y,-z
-x,y,-z
y,x,-z
-y,-x,-z
-x,-y,-z
y,-x,-z
x,y,-z
-y,x,-z
-x,y,z
x,-y,z
-y,-x,z
y,x,z
loop_
_atom_site_type_symbol
_atom_site_label
_atom_site_fract_x
_atom_site_fract_y
_atom_site_fract_z
Si Si1 0.070650 0.500000 0.685536
Si Si2 0.164303 0.596501 0.185204
Si Si3 0.401373 0.500000 0.686427
Si Si4 0.168082 0.732334 0.686620
Si Si5 0.832223 0.930426 0.688559
Si Si6 0.734428 0.500000 0.185878
O O1 0.072741 0.500000 0.500000
O O2 0.107220 0.441094 0.747017
O O3 0.000000 0.500000 0.734782
O O4 0.166845 0.665569 0.242224
O O5 0.225026 0.558716 0.232508
O O6 0.160552 0.594347 0.000000
O O7 0.440766 0.440766 0.735659
O O8 0.400226 0.500000 0.500000
O O9 0.332977 0.500000 0.746882
O O10 0.167372 0.727522 0.500000
O O11 0.227736 0.772265 0.729357
O O12 0.109488 0.773193 0.733242
O O13 0.832660 0.931480 0.500000
O O14 0.891849 0.891849 0.736452
O O15 0.831330 0.000000 0.743226
O O16 0.730222 0.500000 0.000000
#
# Coordination Sequence:
#
# PCOD9562177 Si02
#       6
#     8  16   8  16  16   8
#     4  10  21  37  57  79 102 131 168 208 252 307
#     4  10  21  36  53  75 104 134 166 209 256 301
#     4   9  19  35  53  75 102 129 160 200 243 287
#     4   9  18  32  49  71 101 136 173 212 254 302
#     4   8  14  25  42  66  96 128 163 205 250 295
#     4   9  20  36  51  71  98 127 159 197 243 291
#
# _framework density 17.369004
#
# number of rings (size 3 to 8) (size 9 to 14) (size 15 to 20)
#    0.000    2.889    0.000    3.333    0.000    6.444 
#    0.000    8.333    0.000    0.000    0.000    0.000 
#    0.000    0.000    0.000    4.889    0.000    4.889 
#
# Total GULP energy -401415.850566 kJ/mol
# GULP energy per Si atom -5575.220147 kJ/mol
# Density = 1.732947 g / cm^3
# Si number density = 17.369004 Si / 1000 Ang^3
#
#
#
# Elastic Constant Matrix: (Units=GPa)
#
#
# Indices 1 2 3 4 5 6 
#
# 1 197.8145 109.8709 39.0153 0.0000 0.0000 0.0000
# 2 109.8709 197.8145 39.0153 0.0000 0.0000 0.0000
# 3 39.0153 39.0153 22.3034 0.0000 0.0000 0.0000
# 4 0.0000 0.0000 0.0000 -57.3310 0.0000 0.0000
# 5 0.0000 0.0000 0.0000 0.0000 -57.3310 0.0000
# 6 0.0000 0.0000 0.0000 0.0000 0.0000 6.2695
#
#
#
# Elastic Compliance Matrix: (Units=1/GPa)
#
#
# Indices 1 2 3 4 5 6 
#
# 1 0.008606 -0.002765 -0.010219 0.000000 0.000000 0.000000
# 2 -0.002765 0.008606 -0.010219 0.000000 0.000000 0.000000
# 3 -0.010219 -0.010219 0.080587 0.000000 0.000000 0.000000
# 4 0.000000 0.000000 0.000000 -0.017443 0.000000 0.000000
# 5 0.000000 0.000000 0.000000 0.000000 -0.017443 0.000000
# 6 0.000000 0.000000 0.000000 0.000000 0.000000 0.159502
#
#
# Mechanical properties :
#
#
# Convention : Reuss Voigt Hill
#
# Bulk Modulus (GPa) = 19.45694 88.19283 53.82489
# Shear Modulus (GPa) = 17.48546 -6.34309 5.57118
#
# Velocity S-wave (km/s) = 3.17630 -1.91308 1.79290
# Velocity P-wave (km/s) = 4.96772 6.78280 5.94494
#
# Compressibility (1/GPa) = 0.05139555
#
# Stress axis : x y z
#
# Youngs Moduli (GPa) = 116.19468 116.19468 12.40896
#
# Poissons Ratio (x) = 0.32124 0.12680
# Poissons Ratio (y) = 0.32124 0.12680
# Poissons Ratio (z) = 1.18735 1.18735
#
# Static dielectric constant tensor:
#      x y z
#    x 1.573850 0.000000 0.000000 
#    y 0.000000 1.573850 0.000000 
#    z 0.000000 0.000000 1.588050 
# 
# From -- ./inp_files/1223.got.cif
#   From: 2010.05.17/outbox.cif.g08.bks.cpg/sg123_1_cif.got.tgz:1223.got - 2010.05.20 11:43:04.
