data_PCOD9562175
_publ_section_title
;
Structure prediction by ZEFSAII (Michael W. Deem and Ramdas Pophale) SiO2 
 PCOD9562175
Probable space group: P 4/M M M
;
_chemical_formula_sum "Si O2"
_cell_formula_units_Z 96
_cell_length_a 19.323185
_cell_length_b 19.323185
_cell_length_c 14.826233
_cell_angle_alpha 90.000000
_cell_angle_beta 90.000000
_cell_angle_gamma 90.000000
_cell_volume 5535.900104
_symmetry_space_group_name_H-M "P 4/M M M"
_symmetry_group_IT_number 123
_symmetry_cell_setting 'tetragonal'
loop_
_space_group_symop_operation_xyz
x,y,z
-y,x,z
-x,-y,z
y,-x,z
x,-y,-z
-x,y,-z
y,x,-z
-y,-x,-z
-x,-y,-z
y,-x,-z
x,y,-z
-y,x,-z
-x,y,z
x,-y,z
-y,-x,z
y,x,z
loop_
_atom_site_type_symbol
_atom_site_label
_atom_site_fract_x
_atom_site_fract_y
_atom_site_fract_z
Si Si1 0.193892 0.690788 0.896195
Si Si2 0.420525 0.308904 0.858158
Si Si3 0.150250 0.582860 0.600247
Si Si4 0.805262 0.920006 0.602834
Si Si5 0.081276 0.319815 0.258655
Si Si6 0.308084 0.579575 0.360324
O O1 0.245463 0.754538 0.872521
O O2 0.241885 0.622419 0.888737
O O3 0.130374 0.686192 0.827893
O O4 0.172098 0.699170 0.000000
O O5 0.500000 0.309869 0.888139
O O6 0.376094 0.376094 0.886474
O O7 0.420476 0.307718 0.748867
O O8 0.125634 0.602735 0.500000
O O9 0.147585 0.500000 0.607480
O O10 0.106647 0.616862 0.679399
O O11 0.231434 0.601974 0.609622
O O12 0.779104 0.909045 0.500000
O O13 0.868554 0.868554 0.617093
O O14 0.746409 0.908202 0.676503
O O15 0.827276 0.000000 0.609072
O O16 0.000000 0.325242 0.236604
O O17 0.320009 0.500000 0.389516
O O18 0.367425 0.632576 0.390005
#
# Coordination Sequence:
#
# PCOD9562175 Si02
#       6
#    16  16  16  16  16  16
#     4  10  21  37  57  79 105 140 177 212 259 320
#     4   9  17  31  52  77 106 138 172 213 260 309
#     4  10  21  36  53  74 103 141 182 221 266 323
#     4   9  18  32  51  78 110 140 168 199 241 297
#     4  11  22  36  56  79 104 133 171 223 271 309
#     4   9  17  30  49  74 105 140 179 222 265 310
#
# _framework density 17.341353999999999
#
# number of rings (size 3 to 8) (size 9 to 14) (size 15 to 20)
#    0.000    2.333    1.667    1.000    0.000    3.500 
#    0.000    3.333    0.000    0.000    0.000    7.000 
#    0.000    0.000    0.000   15.500    0.000    0.167 
#
# Total GULP energy -535706.146122 kJ/mol
# GULP energy per Si atom -5580.272355 kJ/mol
# Density = 1.730188 g / cm^3
# Si number density = 17.341354 Si / 1000 Ang^3
#
#
#
# Elastic Constant Matrix: (Units=GPa)
#
#
# Indices 1 2 3 4 5 6 
#
# 1 106.1843 60.7068 55.1445 0.0000 0.0000 0.0000
# 2 60.7068 106.1843 55.1445 0.0000 0.0000 0.0000
# 3 55.1445 55.1445 101.0510 0.0000 0.0000 0.0000
# 4 0.0000 0.0000 0.0000 2.9341 0.0000 0.0000
# 5 0.0000 0.0000 0.0000 0.0000 2.9341 0.0000
# 6 0.0000 0.0000 0.0000 0.0000 0.0000 24.2152
#
#
#
# Elastic Compliance Matrix: (Units=1/GPa)
#
#
# Indices 1 2 3 4 5 6 
#
# 1 0.015680 -0.006309 -0.005114 0.000000 0.000000 0.000000
# 2 -0.006309 0.015680 -0.005114 0.000000 0.000000 0.000000
# 3 -0.005114 -0.005114 0.015478 0.000000 0.000000 0.000000
# 4 0.000000 0.000000 0.000000 0.340822 0.000000 0.000000
# 5 0.000000 0.000000 0.000000 0.000000 0.340822 0.000000
# 6 0.000000 0.000000 0.000000 0.000000 0.000000 0.041296
#
#
# Mechanical properties :
#
#
# Convention : Reuss Voigt Hill
#
# Bulk Modulus (GPa) = 72.65216 72.82345 72.73781
# Shear Modulus (GPa) = 6.19240 15.51159 10.85200
#
# Velocity S-wave (km/s) = 1.89173 2.99404 2.50429
# Velocity P-wave (km/s) = 6.83797 7.35103 7.09913
#
# Compressibility (1/GPa) = 0.01376421
#
# Stress axis : x y z
#
# Youngs Moduli (GPa) = 63.77449 63.77449 64.60914
#
# Poissons Ratio (x) = 0.40233 0.33042
# Poissons Ratio (y) = 0.40233 0.33042
# Poissons Ratio (z) = 0.32615 0.32615
#
# Static dielectric constant tensor:
#      x y z
#    x 1.572060 0.000000 0.000000 
#    y 0.000000 1.572060 0.000000 
#    z 0.000000 0.000000 1.610670 
# 
# From -- ./inp_files/4325.got.cif
#   From: 2010.05.17/outbox.cif.g08.bks.cpg/sg123_3_cif.got.tgz:4325.got - 2010.05.20 11:43:04.
