data_PCOD9562388
_publ_section_title
;
Structure prediction by ZEFSAII (Michael W. Deem and Ramdas Pophale) SiO2 
 PCOD9562388
Probable space group: P 4/M C C
;
_chemical_formula_sum "Si O2"
_cell_formula_units_Z 96
_cell_length_a 23.663481
_cell_length_b 23.663481
_cell_length_c 10.201463
_cell_angle_alpha 90.000000
_cell_angle_beta 90.000000
_cell_angle_gamma 90.000000
_cell_volume 5712.414619
_symmetry_space_group_name_H-M "P 4/M C C"
_symmetry_group_IT_number 124
_symmetry_cell_setting 'tetragonal'
loop_
_space_group_symop_operation_xyz
x,y,z
-y,x,z
-x,-y,z
y,-x,z
x,-y,1/2-z
-x,y,1/2-z
y,x,1/2-z
-y,-x,1/2-z
-x,-y,-z
y,-x,-z
x,y,-z
-y,x,-z
-x,y,1/2+z
x,-y,1/2+z
-y,-x,1/2+z
y,x,1/2+z
loop_
_atom_site_type_symbol
_atom_site_label
_atom_site_fract_x
_atom_site_fract_y
_atom_site_fract_z
Si Si1 0.055664 0.867562 0.340666
Si Si2 0.432400 0.730484 0.500000
Si Si3 0.051361 0.732851 0.348351
Si Si4 0.574857 0.132318 0.500000
Si Si5 0.134319 0.445875 0.000000
Si Si6 0.362810 0.865553 0.234801
Si Si7 0.362016 0.270217 0.745196
Si Si8 0.438960 0.271297 0.500000
O O1 0.103748 0.896253 0.250000
O O2 0.052851 0.884154 0.500000
O O3 0.063197 0.799878 0.341490
O O4 0.000000 0.879931 0.250000
O O5 0.431924 0.799260 0.500000
O O6 0.397587 0.714172 0.627051
O O7 0.496460 0.708548 0.500000
O O8 0.037387 0.719626 0.500000
O O9 0.103699 0.694826 0.303011
O O10 0.000000 0.720715 0.250000
O O11 0.509884 0.112143 0.500000
O O12 0.610756 0.116700 0.373016
O O13 0.118793 0.409917 0.127168
O O14 0.202928 0.445746 0.000000
O O15 0.354416 0.797645 0.237326
O O16 0.303316 0.303316 0.750000
O O17 0.401689 0.287072 0.624440
#
# Coordination Sequence:
#
# PCOD9562388 Si02
#       8
#    16   8  16   8   8  16  16   8
#     4  10  21  39  62  89 117 146 183 226 272 319
#     4   9  17  31  45  70 102 135 180 206 255 319
#     4  10  22  39  59  79 107 147 190 224 256 313
#     4   9  18  29  50  79  99 133 176 228 267 322
#     4   9  16  31  52  73 101 133 180 220 271 324
#     4  10  19  33  52  76 104 141 178 215 276 326
#     4  10  19  30  48  75 110 135 164 215 269 319
#     4   9  17  29  49  68  98 143 172 212 253 313
#
# _framework density 16.805503000000002
#
# number of rings (size 3 to 8) (size 9 to 14) (size 15 to 20)
#    0.000    2.333    0.833    2.000    1.167    5.500 
#    0.000    0.833    0.000    3.000    0.000    0.000 
#    0.000   23.333    0.000    0.000    0.000    0.000 
#
# Total GULP energy -534534.443178 kJ/mol
# GULP energy per Si atom -5568.067116 kJ/mol
# Density = 1.676725 g / cm^3
# Si number density = 16.805503 Si / 1000 Ang^3
#
#
#
# Elastic Constant Matrix: (Units=GPa)
#
#
# Indices 1 2 3 4 5 6 
#
# 1 54.4778 42.6631 51.2430 0.0000 0.0000 0.0000
# 2 42.6631 54.4866 51.2449 0.0000 0.0000 0.0000
# 3 51.2430 51.2449 185.4869 0.0000 0.0000 0.0000
# 4 0.0000 0.0000 0.0000 5.6139 0.0000 0.0000
# 5 0.0000 0.0000 0.0000 0.0000 5.6138 0.0000
# 6 0.0000 0.0000 0.0000 0.0000 0.0000 -13.5876
#
#
#
# Elastic Compliance Matrix: (Units=1/GPa)
#
#
# Indices 1 2 3 4 5 6 
#
# 1 0.049573 -0.035040 -0.004015 0.000000 0.000000 0.000000
# 2 -0.035040 0.049564 -0.004013 0.000000 0.000000 0.000000
# 3 -0.004015 -0.004013 0.007609 0.000000 0.000000 0.000000
# 4 0.000000 0.000000 0.000000 0.178128 0.000000 0.000000
# 5 0.000000 0.000000 0.000000 0.000000 0.178132 0.000000
# 6 0.000000 0.000000 0.000000 0.000000 0.000000 -0.073597
#
#
# Mechanical properties :
#
#
# Convention : Reuss Voigt Hill
#
# Bulk Modulus (GPa) = 48.51841 64.97260 56.74551
# Shear Modulus (GPa) = 10.36453 9.48139 9.92296
#
# Velocity S-wave (km/s) = 2.48611 2.37783 2.43257
# Velocity P-wave (km/s) = 6.09706 6.80325 6.45981
#
# Compressibility (1/GPa) = 0.02061073
#
# Stress axis : x y z
#
# Youngs Moduli (GPa) = 20.17210 20.17595 131.42472
#
# Poissons Ratio (x) = 0.70697 0.52761
# Poissons Ratio (y) = 0.70684 0.52738
# Poissons Ratio (z) = 0.08098 0.08096
#
# Static dielectric constant tensor:
#      x y z
#    x 1.553380 0.000000 0.000000 
#    y 0.000000 1.553380 0.000000 
#    z 0.000000 0.000000 1.576490 
# 
# From -- ./inp_files/1461.got.cif
#   From: 2010.05.17/outbox.cif.g08.bks.cpg/sg124_1_cif.got.tgz:1461.got - 2010.05.20 11:49:17.
