data_PCOD9562774
_publ_section_title
;
Structure prediction by ZEFSAII (Michael W. Deem and Ramdas Pophale) SiO2 
 PCOD9562774
Probable space group: P 4/M C C
;
_chemical_formula_sum "Si O2"
_cell_formula_units_Z 48
_cell_length_a 17.433911
_cell_length_b 17.433911
_cell_length_c 9.049806
_cell_angle_alpha 90.000000
_cell_angle_beta 90.000000
_cell_angle_gamma 90.000000
_cell_volume 2750.609373
_symmetry_space_group_name_H-M "P 4/M C C"
_symmetry_group_IT_number 124
_symmetry_cell_setting 'tetragonal'
loop_
_space_group_symop_operation_xyz
x,y,z
-y,x,z
-x,-y,z
y,-x,z
x,-y,1/2-z
-x,y,1/2-z
y,x,1/2-z
-y,-x,1/2-z
-x,-y,-z
y,-x,-z
x,y,-z
-y,x,-z
-x,y,1/2+z
x,-y,1/2+z
-y,-x,1/2+z
y,x,1/2+z
loop_
_atom_site_type_symbol
_atom_site_label
_atom_site_fract_x
_atom_site_fract_y
_atom_site_fract_z
Si Si1 0.915024 0.417785 0.320621
Si Si2 0.781945 0.000000 0.750000
Si Si3 0.118818 0.956174 0.000000
Si Si4 0.278095 0.159406 0.170332
O O1 0.894598 0.500000 0.250000
O O2 0.921297 0.419504 0.500000
O O3 0.852455 0.354983 0.268558
O O4 0.000000 0.400963 0.250000
O O5 0.743702 0.068338 0.659998
O O6 0.831800 0.947342 0.642692
O O7 0.043948 0.907026 0.000000
O O8 0.216086 0.216086 0.250000
O O9 0.289496 0.185214 0.000000
#
# Coordination Sequence:
#
# PCOD9562774 Si02
#       4
#    16   8   8  16
#     4  11  22  39  61  85 113 146 189 238 291 346
#     4  12  24  35  49  68 100 136 184 230 286 327
#     4  11  22  36  48  62  85 128 180 238 283 334
#     4  12  25  39  58  81 110 147 191 238 292 343
#
# _framework density 17.450678
#
# number of rings (size 3 to 8) (size 9 to 14) (size 15 to 20)
#    0.000    0.500    3.333    8.000    4.667    1.333 
#    0.000    0.000    0.000    0.000    0.000    0.000 
#    0.000    0.667    0.000    6.667    0.000    4.000 
#
# Total GULP energy -267234.545615 kJ/mol
# GULP energy per Si atom -5567.386367 kJ/mol
# Density = 1.741096 g / cm^3
# Si number density = 17.450678 Si / 1000 Ang^3
#
#
#
# Elastic Constant Matrix: (Units=GPa)
#
#
# Indices 1 2 3 4 5 6 
#
# 1 76.1642 61.8727 45.1406 0.0000 0.0000 0.0000
# 2 61.8727 76.1642 45.1406 0.0000 0.0000 0.0000
# 3 45.1406 45.1406 176.3102 0.0000 0.0000 0.0000
# 4 0.0000 0.0000 0.0000 24.4904 0.0000 0.0000
# 5 0.0000 0.0000 0.0000 0.0000 24.4904 0.0000
# 6 0.0000 0.0000 0.0000 0.0000 0.0000 25.9407
#
#
#
# Elastic Compliance Matrix: (Units=1/GPa)
#
#
# Indices 1 2 3 4 5 6 
#
# 1 0.039337 -0.030635 -0.002228 0.000000 0.000000 0.000000
# 2 -0.030635 0.039337 -0.002228 0.000000 0.000000 0.000000
# 3 -0.002228 -0.002228 0.006813 0.000000 0.000000 0.000000
# 4 0.000000 0.000000 0.000000 0.040832 0.000000 0.000000
# 5 0.000000 0.000000 0.000000 0.000000 0.040832 0.000000
# 6 0.000000 0.000000 0.000000 0.000000 0.000000 0.038549
#
#
# Mechanical properties :
#
#
# Convention : Reuss Voigt Hill
#
# Bulk Modulus (GPa) = 65.34116 70.32736 67.83426
# Shear Modulus (GPa) = 17.79469 26.74996 22.27233
#
# Velocity S-wave (km/s) = 3.19676 3.91946 3.57641
# Velocity P-wave (km/s) = 7.15194 7.80199 7.48403
#
# Compressibility (1/GPa) = 0.01530429
#
# Stress axis : x y z
#
# Youngs Moduli (GPa) = 25.42162 25.42162 146.78654
#
# Poissons Ratio (x) = 0.77879 0.32702
# Poissons Ratio (y) = 0.77879 0.32702
# Poissons Ratio (z) = 0.05664 0.05664
#
# Static dielectric constant tensor:
#      x y z
#    x 1.630580 0.000000 0.000000 
#    y 0.000000 1.630580 0.000000 
#    z 0.000000 0.000000 1.657990 
# 
# From -- ./inp_files/506.got.cif
#   From: 2010.05.17/outbox.cif.g08.bks.cpg/sg124_1_cif.got.tgz:506.got - 2010.05.20 11:49:17.
