data_PCOD9562057
_publ_section_title
;
Structure prediction by ZEFSAII (Michael W. Deem and Ramdas Pophale) SiO2 
 PCOD9562057
Probable space group: P 4/M M M
;
_chemical_formula_sum "Si O2"
_cell_formula_units_Z 64
_cell_length_a 20.460029
_cell_length_b 20.460029
_cell_length_c 8.403333
_cell_angle_alpha 90.000000
_cell_angle_beta 90.000000
_cell_angle_gamma 90.000000
_cell_volume 3517.742645
_symmetry_space_group_name_H-M "P 4/M M M"
_symmetry_group_IT_number 123
_symmetry_cell_setting 'tetragonal'
loop_
_space_group_symop_operation_xyz
x,y,z
-y,x,z
-x,-y,z
y,-x,z
x,-y,-z
-x,y,-z
y,x,-z
-y,-x,-z
-x,-y,-z
y,-x,-z
x,y,-z
-y,x,-z
-x,y,z
x,-y,z
-y,-x,z
y,x,z
loop_
_atom_site_type_symbol
_atom_site_label
_atom_site_fract_x
_atom_site_fract_y
_atom_site_fract_z
Si Si1 0.072741 0.741872 0.314725
Si Si2 0.699743 0.699743 0.311841
Si Si3 0.198179 0.198179 0.815541
Si Si4 0.403804 0.072848 0.812059
Si Si5 0.219785 0.572263 0.308159
O O1 0.090073 0.729940 0.500000
O O2 0.124962 0.786341 0.231307
O O3 0.072797 0.673107 0.224505
O O4 0.000000 0.769292 0.309842
O O5 0.689165 0.689165 0.500000
O O6 0.754592 0.754592 0.284239
O O7 0.632257 0.733914 0.249282
O O8 0.210890 0.210890 0.000000
O O9 0.425022 0.143150 0.742808
O O10 0.426617 0.000000 0.752693
O O11 0.417074 0.074227 0.000000
O O12 0.219568 0.576558 0.500000
O O13 0.244577 0.500000 0.261400
#
# Coordination Sequence:
#
# PCOD9562057 Si02
#       5
#    16   8   8  16  16
#     4  10  20  34  53  77 107 144 184 224 268 319
#     4  10  20  36  56  77 105 139 180 225 267 323
#     4  12  22  32  54  83 110 141 179 225 274 321
#     4  10  20  33  50  76 111 146 179 219 267 318
#     4  10  21  36  55  78 105 142 184 226 273 325
#
# _framework density 18.193484999999999
#
# number of rings (size 3 to 8) (size 9 to 14) (size 15 to 20)
#    0.000    1.750    2.500    2.625    0.000    4.000 
#    0.000    2.500    0.000    0.750    0.000    5.250 
#    0.000    0.000    0.000    3.375    0.000    3.750 
#
# Total GULP energy -356557.904705 kJ/mol
# GULP energy per Si atom -5571.217261 kJ/mol
# Density = 1.815208 g / cm^3
# Si number density = 18.193485 Si / 1000 Ang^3
#
#
#
# Elastic Constant Matrix: (Units=GPa)
#
#
# Indices 1 2 3 4 5 6 
#
# 1 126.7853 46.1694 13.7360 0.0000 0.0000 0.0000
# 2 46.1694 126.7853 13.7360 0.0000 0.0000 0.0000
# 3 13.7360 13.7360 12.6344 0.0000 0.0000 0.0000
# 4 0.0000 0.0000 0.0000 -25.0269 0.0000 0.0000
# 5 0.0000 0.0000 0.0000 0.0000 -25.0269 0.0000
# 6 0.0000 0.0000 0.0000 0.0000 0.0000 28.8650
#
#
#
# Elastic Compliance Matrix: (Units=1/GPa)
#
#
# Indices 1 2 3 4 5 6 
#
# 1 0.009697 -0.002708 -0.007598 0.000000 0.000000 0.000000
# 2 -0.002708 0.009697 -0.007598 0.000000 0.000000 0.000000
# 3 -0.007598 -0.007598 0.095671 0.000000 0.000000 0.000000
# 4 0.000000 0.000000 0.000000 -0.039957 0.000000 0.000000
# 5 0.000000 0.000000 0.000000 0.000000 -0.039957 0.000000
# 6 0.000000 0.000000 0.000000 0.000000 0.000000 0.034644
#
#
# Mechanical properties :
#
#
# Convention : Reuss Voigt Hill
#
# Bulk Modulus (GPa) = 12.61742 45.94310 29.28026
# Shear Modulus (GPa) = 37.87288 8.59981 23.23634
#
# Velocity S-wave (km/s) = 4.56748 2.17649 3.57764
# Velocity P-wave (km/s) = 5.89628 5.62348 5.76149
#
# Compressibility (1/GPa) = 0.07925548
#
# Stress axis : x y z
#
# Youngs Moduli (GPa) = 103.12867 103.12867 10.45254
#
# Poissons Ratio (x) = 0.27926 0.07942
# Poissons Ratio (y) = 0.27926 0.07942
# Poissons Ratio (z) = 0.78359 0.78359
#
# Static dielectric constant tensor:
#      x y z
#    x 1.609010 0.000000 0.000000 
#    y 0.000000 1.609010 0.000000 
#    z 0.000000 0.000000 1.641240 
# 
# From -- ./inp_files/918.got.cif
#   From: 2010.05.17/outbox.cif.g08.bks.cpg/sg123_1_cif.got.tgz:918.got - 2010.05.20 11:43:04.
