data_PCOD9562733
_publ_section_title
;
Structure prediction by ZEFSAII (Michael W. Deem and Ramdas Pophale) SiO2 
 PCOD9562733
Probable space group: P 4/M C C
;
_chemical_formula_sum "Si O2"
_cell_formula_units_Z 42
_cell_length_a 13.918541
_cell_length_b 13.918541
_cell_length_c 9.724017
_cell_angle_alpha 90.000000
_cell_angle_beta 90.000000
_cell_angle_gamma 90.000000
_cell_volume 1883.792813
_symmetry_space_group_name_H-M "P 4/M C C"
_symmetry_group_IT_number 124
_symmetry_cell_setting 'tetragonal'
loop_
_space_group_symop_operation_xyz
x,y,z
-y,x,z
-x,-y,z
y,-x,z
x,-y,1/2-z
-x,y,1/2-z
y,x,1/2-z
-y,-x,1/2-z
-x,-y,-z
y,-x,-z
x,y,-z
-y,x,-z
-x,y,1/2+z
x,-y,1/2+z
-y,-x,1/2+z
y,x,1/2+z
loop_
_atom_site_type_symbol
_atom_site_label
_atom_site_fract_x
_atom_site_fract_y
_atom_site_fract_z
Si Si1 0.317390 0.613632 0.500000
Si Si2 0.500000 0.500000 0.500000
Si Si3 0.828118 0.762822 0.500000
Si Si4 0.910239 0.426919 0.000000
Si Si5 0.113953 0.886048 0.250000
Si Si6 0.783028 0.500000 0.750000
O O1 0.431525 0.595843 0.500000
O O2 0.292010 0.726253 0.500000
O O3 0.276855 0.568797 0.644867
O O4 0.917542 0.687978 0.500000
O O5 0.836958 0.833718 0.374898
O O6 0.850629 0.446779 0.139750
O O7 0.000000 0.500000 0.000000
O O8 0.000000 0.870383 0.250000
#
# Coordination Sequence:
#
# PCOD9562733 Si02
#       6
#     8   2   8   8   8   8
#     4  11  25  45  68 100 132 180 232 279 345 405
#     4  12  28  46  72  98 144 190 236 294 340 422
#     4  12  25  45  73 102 140 182 232 294 355 426
#     4  11  24  41  65 101 142 182 223 278 350 424
#     4  11  26  48  74 105 140 184 240 299 366 440
#     4  10  23  43  66  94 136 174 226 283 327 408
#
# _framework density 22.295445999999998
#
# number of rings (size 3 to 8) (size 9 to 14) (size 15 to 20)
#    0.000    0.952    0.000    6.286    0.000   16.000 
#    0.000    0.000    0.000    0.000    0.000    0.000 
#    0.000    0.000    0.000    0.000    0.000    0.000 
#
# Total GULP energy -234140.786453 kJ/mol
# GULP energy per Si atom -5574.780630 kJ/mol
# Density = 2.224470 g / cm^3
# Si number density = 22.295446 Si / 1000 Ang^3
#
#
#
# Elastic Constant Matrix: (Units=GPa)
#
#
# Indices 1 2 3 4 5 6 
#
# 1 127.6269 80.3531 60.1994 0.0000 0.0000 0.0000
# 2 80.3531 127.6292 60.1998 0.0000 0.0000 0.0000
# 3 60.1994 60.1998 208.7002 0.0000 0.0000 0.0000
# 4 0.0000 0.0000 0.0000 -88.0707 0.0000 0.0000
# 5 0.0000 0.0000 0.0000 0.0000 -88.0733 0.0000
# 6 0.0000 0.0000 0.0000 0.0000 0.0000 22.7425
#
#
#
# Elastic Compliance Matrix: (Units=1/GPa)
#
#
# Indices 1 2 3 4 5 6 
#
# 1 0.013463 -0.007690 -0.001665 0.000000 0.000000 0.000000
# 2 -0.007690 0.013462 -0.001665 0.000000 0.000000 0.000000
# 3 -0.001665 -0.001665 0.005752 0.000000 0.000000 0.000000
# 4 0.000000 0.000000 0.000000 -0.011355 0.000000 0.000000
# 5 0.000000 0.000000 0.000000 0.000000 -0.011354 0.000000
# 6 0.000000 0.000000 0.000000 0.000000 0.000000 0.043971
#
#
# Mechanical properties :
#
#
# Convention : Reuss Voigt Hill
#
# Bulk Modulus (GPa) = 94.01796 96.16232 95.09014
# Shear Modulus (GPa) = 62.87348 -13.13338 24.87005
#
# Velocity S-wave (km/s) = 5.31614 -2.42969 3.34350
# Velocity P-wave (km/s) = 8.94106 5.94587 7.59262
#
# Compressibility (1/GPa) = 0.01063627
#
# Stress axis : x y z
#
# Youngs Moduli (GPa) = 74.28025 74.28169 173.85094
#
# Poissons Ratio (x) = 0.57126 0.28945
# Poissons Ratio (y) = 0.57125 0.28944
# Poissons Ratio (z) = 0.12367 0.12367
#
# Static dielectric constant tensor:
#      x y z
#    x 1.836190 0.000000 0.000000 
#    y 0.000000 1.836180 0.000000 
#    z 0.000000 0.000000 1.766150 
# 
# From -- ./inp_files/394.got.cif
#   From: 2010.05.17/outbox.cif.g08.bks.cpg/sg124_1_cif.got.tgz:394.got - 2010.05.20 11:49:17.
