data_PCOD9562476
_publ_section_title
;
Structure prediction by ZEFSAII (Michael W. Deem and Ramdas Pophale) SiO2 
 PCOD9562476
Probable space group: P 4/M C C
;
_chemical_formula_sum "Si O2"
_cell_formula_units_Z 96
_cell_length_a 15.420404
_cell_length_b 15.420404
_cell_length_c 21.584340
_cell_angle_alpha 90.000000
_cell_angle_beta 90.000000
_cell_angle_gamma 90.000000
_cell_volume 5132.515592
_symmetry_space_group_name_H-M "P 4/M C C"
_symmetry_group_IT_number 124
_symmetry_cell_setting 'tetragonal'
loop_
_space_group_symop_operation_xyz
x,y,z
-y,x,z
-x,-y,z
y,-x,z
x,-y,1/2-z
-x,y,1/2-z
y,x,1/2-z
-y,-x,1/2-z
-x,-y,-z
y,-x,-z
x,y,-z
-y,x,-z
-x,y,1/2+z
x,-y,1/2+z
-y,-x,1/2+z
y,x,1/2+z
loop_
_atom_site_type_symbol
_atom_site_label
_atom_site_fract_x
_atom_site_fract_y
_atom_site_fract_z
Si Si1 0.866592 0.971994 0.176774
Si Si2 0.431295 0.620343 0.856950
Si Si3 0.321057 0.082664 0.205683
Si Si4 0.518065 0.904034 0.885857
Si Si5 0.524984 0.221092 0.500000
Si Si6 0.795578 0.412339 0.708349
Si Si7 0.609017 0.356194 0.000000
O O1 0.770741 0.933413 0.172479
O O2 0.935386 0.900996 0.151917
O O3 0.872182 0.000000 0.250000
O O4 0.385194 0.531787 0.837130
O O5 0.392267 0.706151 0.826841
O O6 0.428247 0.618654 0.932089
O O7 0.398081 0.088254 0.157135
O O8 0.335046 0.166322 0.249780
O O9 0.334835 0.000000 0.250000
O O10 0.535511 0.835648 0.939270
O O11 0.440696 0.866658 0.843031
O O12 0.500000 0.000000 0.910522
O O13 0.425683 0.257301 0.500000
O O14 0.597065 0.297653 0.500000
O O15 0.785001 0.500000 0.750000
#
# Coordination Sequence:
#
# PCOD9562476 Si02
#       7
#    16  16  16  16   8  16   8
#     4   8  15  31  54  84 115 145 187 234 276 335
#     4  11  21  37  59  82 110 155 202 246 303 354
#     4  10  19  35  62  83 117 161 193 227 297 367
#     4  11  21  39  60  83 114 157 195 240 292 363
#     4  12  25  39  62  88 110 149 209 256 307 335
#     4  10  21  35  55  81 116 153 197 239 287 359
#     4  12  20  39  62  80 108 144 195 256 298 347
#
# _framework density 18.704277999999999
#
# number of rings (size 3 to 8) (size 9 to 14) (size 15 to 20)
#    0.000    1.667    5.000    0.750    0.000    1.500 
#    0.000   22.500    0.000    0.000    0.000    0.000 
#    0.000    1.333    0.000    0.000    0.000    7.000 
#
# Total GULP energy -534434.206610 kJ/mol
# GULP energy per Si atom -5567.022986 kJ/mol
# Density = 1.866171 g / cm^3
# Si number density = 18.704278 Si / 1000 Ang^3
#
#
#
# Elastic Constant Matrix: (Units=GPa)
#
#
# Indices 1 2 3 4 5 6 
#
# 1 113.2385 57.3873 33.0962 0.0000 0.0000 0.0000
# 2 57.3873 113.2385 33.0962 0.0000 0.0000 0.0000
# 3 33.0962 33.0962 46.4383 0.0000 0.0000 0.0000
# 4 0.0000 0.0000 0.0000 36.8369 0.0000 0.0000
# 5 0.0000 0.0000 0.0000 0.0000 36.8369 0.0000
# 6 0.0000 0.0000 0.0000 0.0000 0.0000 14.3322
#
#
#
# Elastic Compliance Matrix: (Units=1/GPa)
#
#
# Indices 1 2 3 4 5 6 
#
# 1 0.013003 -0.004902 -0.005773 0.000000 0.000000 0.000000
# 2 -0.004902 0.013003 -0.005773 0.000000 0.000000 0.000000
# 3 -0.005773 -0.005773 0.029763 0.000000 0.000000 0.000000
# 4 0.000000 0.000000 0.000000 0.027147 0.000000 0.000000
# 5 0.000000 0.000000 0.000000 0.000000 0.027147 0.000000
# 6 0.000000 0.000000 0.000000 0.000000 0.000000 0.069773
#
#
# Mechanical properties :
#
#
# Convention : Reuss Voigt Hill
#
# Bulk Modulus (GPa) = 43.72298 57.78608 50.75453
# Shear Modulus (GPa) = 22.69068 27.55690 25.12379
#
# Velocity S-wave (km/s) = 3.48678 3.84252 3.66896
# Velocity P-wave (km/s) = 6.29578 7.11676 6.71882
#
# Compressibility (1/GPa) = 0.02287127
#
# Stress axis : x y z
#
# Youngs Moduli (GPa) = 76.90804 76.90804 33.59897
#
# Poissons Ratio (x) = 0.37702 0.19397
# Poissons Ratio (y) = 0.37702 0.19397
# Poissons Ratio (z) = 0.44400 0.44400
#
# Static dielectric constant tensor:
#      x y z
#    x 1.676860 0.000000 0.000000 
#    y 0.000000 1.676860 0.000000 
#    z 0.000000 0.000000 1.669320 
# 
# From -- ./inp_files/5360.got.cif
#   From: 2010.05.17/outbox.cif.g08.bks.cpg/sg124_3_cif.got.tgz:5360.got - 2010.05.20 11:49:17.
