data_PCOD9562912
_publ_section_title
;
Structure prediction by ZEFSAII (Michael W. Deem and Ramdas Pophale) SiO2 
 PCOD9562912
Probable space group: P 4/N B M
;
_chemical_formula_sum "Si O2"
_cell_formula_units_Z 112
_cell_length_a 14.309047
_cell_length_b 14.309047
_cell_length_c 31.659146
_cell_angle_alpha 90.000000
_cell_angle_beta 90.000000
_cell_angle_gamma 90.000000
_cell_volume 6482.172977
_symmetry_space_group_name_H-M "P 4/N B M"
_symmetry_group_IT_number 125
_space_group.IT_coordinate_system_code '2'
_symmetry_cell_setting 'tetragonal'
loop_
_space_group_symop_operation_xyz
x,y,z
1/2-y,x,z
1/2-x,1/2-y,z
y,1/2-x,z
x,1/2-y,-z
1/2-x,y,-z
y,x,-z
1/2-y,1/2-x,-z
-x,-y,-z
1/2+y,-x,-z
1/2+x,1/2+y,-z
-y,1/2+x,-z
-x,1/2+y,z
1/2+x,-y,z
-y,-x,z
1/2+y,1/2+x,z
loop_
_atom_site_type_symbol
_atom_site_label
_atom_site_fract_x
_atom_site_fract_y
_atom_site_fract_z
Si Si1 0.136256 0.138659 0.045489
Si Si2 0.357564 0.364962 0.863443
Si Si3 0.754417 0.099157 0.248232
Si Si4 0.454140 0.110651 0.223175
Si Si5 0.470683 0.375502 0.304894
Si Si6 0.005455 0.351511 0.521284
Si Si7 0.107994 0.185282 0.394421
O O1 0.248652 0.123729 0.045492
O O2 0.099029 0.105257 0.091037
O O3 0.101642 0.101642 0.000000
O O4 0.246176 0.376410 0.863070
O O5 0.398014 0.401817 0.819830
O O6 0.838267 0.161734 0.228411
O O7 0.673143 0.173143 0.259912
O O8 0.800822 0.045457 0.287226
O O9 0.703550 0.018131 0.221783
O O10 0.524864 0.024864 0.226207
O O11 0.394407 0.102233 0.266367
O O12 0.529018 0.470983 0.313130
O O13 0.425356 0.337896 0.347297
O O14 0.999380 0.250000 0.500000
O O15 0.911481 0.411481 0.515792
O O16 0.088977 0.411024 0.500000
O O17 0.032938 0.342792 0.570422
O O18 0.205466 0.130795 0.400476
#
# Coordination Sequence:
#
# PCOD9562912 Si02
#       7
#    16  16  16  16  16  16  16
#     4   7  10  18  33  54  79 106 141 186 232 283
#     4   9  16  25  40  62  86 114 150 192 241 296
#     4   9  18  33  50  66  90 131 175 210 250 302
#     4  10  19  30  45  65  94 129 163 205 251 300
#     4  10  20  34  51  74 103 133 170 214 261 310
#     4  11  23  42  67  92 119 152 188 230 276 323
#     4  11  22  36  58  85 112 144 182 220 262 321
#
# _framework density 17.278157
#
# number of rings (size 3 to 8) (size 9 to 14) (size 15 to 20)
#    0.000    2.429    1.429    3.429    0.000    0.286 
#    0.000    2.857    0.000    2.143    0.000    0.000 
#    0.000    1.143    0.000    0.000    0.000   83.143 
#
# Total GULP energy -623486.722995 kJ/mol
# GULP energy per Si atom -5566.845741 kJ/mol
# Density = 1.723883 g / cm^3
# Si number density = 17.278157 Si / 1000 Ang^3
#
#
#
# Elastic Constant Matrix: (Units=GPa)
#
#
# Indices 1 2 3 4 5 6 
#
# 1 51.4778 38.2647 33.3276 0.0000 0.0000 0.0000
# 2 38.2647 51.4780 33.3279 0.0000 0.0000 0.0000
# 3 33.3276 33.3279 137.9302 0.0000 0.0000 0.0000
# 4 0.0000 0.0000 0.0000 14.3118 0.0000 0.0000
# 5 0.0000 0.0000 0.0000 0.0000 14.3117 0.0000
# 6 0.0000 0.0000 0.0000 0.0000 0.0000 6.9817
#
#
#
# Elastic Compliance Matrix: (Units=1/GPa)
#
#
# Indices 1 2 3 4 5 6 
#
# 1 0.044631 -0.031051 -0.003281 0.000000 0.000000 0.000000
# 2 -0.031051 0.044631 -0.003281 0.000000 0.000000 0.000000
# 3 -0.003281 -0.003281 0.008836 0.000000 0.000000 0.000000
# 4 0.000000 0.000000 0.000000 0.069873 0.000000 0.000000
# 5 0.000000 0.000000 0.000000 0.000000 0.069873 0.000000
# 6 0.000000 0.000000 0.000000 0.000000 0.000000 0.143232
#
#
# Mechanical properties :
#
#
# Convention : Reuss Voigt Hill
#
# Bulk Modulus (GPa) = 43.72400 50.08070 46.90235
# Shear Modulus (GPa) = 10.77756 16.18540 13.48148
#
# Velocity S-wave (km/s) = 2.50024 3.06397 2.79635
# Velocity P-wave (km/s) = 5.80481 6.44710 6.13437
#
# Compressibility (1/GPa) = 0.02287073
#
# Stress axis : x y z
#
# Youngs Moduli (GPa) = 22.40583 22.40585 113.17636
#
# Poissons Ratio (x) = 0.69573 0.37136
# Poissons Ratio (y) = 0.69572 0.37138
# Poissons Ratio (z) = 0.07352 0.07352
#
# Static dielectric constant tensor:
#      x y z
#    x 1.598840 0.000000 0.000000 
#    y 0.000000 1.598840 0.000000 
#    z 0.000000 0.000000 1.615250 
# 
# From -- ./inp_files/6412.got.cif
#   From: 2010.05.17/outbox.cif.g08.bks.cpg/sg125_4_cif.got.tgz:6412.got - 2010.05.20 11:54:10.
