data_PCOD9562736
_publ_section_title
;
Structure prediction by ZEFSAII (Michael W. Deem and Ramdas Pophale) SiO2 
 PCOD9562736
Probable space group: P 4/M C C
;
_chemical_formula_sum "Si O2"
_cell_formula_units_Z 56
_cell_length_a 17.011149
_cell_length_b 17.011149
_cell_length_c 9.744085
_cell_angle_alpha 90.000000
_cell_angle_beta 90.000000
_cell_angle_gamma 90.000000
_cell_volume 2819.735428
_symmetry_space_group_name_H-M "P 4/M C C"
_symmetry_group_IT_number 124
_symmetry_cell_setting 'tetragonal'
loop_
_space_group_symop_operation_xyz
x,y,z
-y,x,z
-x,-y,z
y,-x,z
x,-y,1/2-z
-x,y,1/2-z
y,x,1/2-z
-y,-x,1/2-z
-x,-y,-z
y,-x,-z
x,y,-z
-y,x,-z
-x,y,1/2+z
x,-y,1/2+z
-y,-x,1/2+z
y,x,1/2+z
loop_
_atom_site_type_symbol
_atom_site_label
_atom_site_fract_x
_atom_site_fract_y
_atom_site_fract_z
Si Si1 0.092422 0.382469 0.500000
Si Si2 0.549442 0.157295 0.000000
Si Si3 0.731664 0.102175 0.000000
Si Si4 0.726230 0.246922 0.500000
Si Si5 0.662640 0.337360 0.750000
Si Si6 0.500000 0.732788 0.250000
Si Si7 0.000000 0.303010 0.250000
O O1 0.097070 0.476480 0.500000
O O2 0.177541 0.338303 0.500000
O O3 0.051050 0.353974 0.358837
O O4 0.532524 0.211434 0.131255
O O5 0.636880 0.121807 0.000000
O O6 0.779417 0.183471 0.000000
O O7 0.744334 0.054643 0.858059
O O8 0.713801 0.304391 0.626622
O O9 0.573351 0.320824 0.709777
#
# Coordination Sequence:
#
# PCOD9562736 Si02
#       7
#     8   8   8   8   8   8   8
#     4  11  22  39  60  86 119 156 196 236 292 349
#     4  12  22  37  60  83 118 158 196 252 288 349
#     4  11  22  39  60  86 119 156 196 236 292 349
#     4  12  22  40  64  87 108 161 202 238 290 358
#     4  12  22  37  58  82 114 154 206 265 300 334
#     4  12  22  37  54  85 114 150 210 264 300 335
#     4  10  24  39  56  88 124 149 190 246 284 351
#
# _framework density 19.860019999999999
#
# number of rings (size 3 to 8) (size 9 to 14) (size 15 to 20)
#    0.000    0.571    5.714    3.429    0.000    3.714 
#    0.000    0.000    0.000    3.429    0.000    0.000 
#    0.000   40.000    0.000    0.000    0.000    0.000 
#
# Total GULP energy -312646.637048 kJ/mol
# GULP energy per Si atom -5582.975662 kJ/mol
# Density = 1.981482 g / cm^3
# Si number density = 19.860020 Si / 1000 Ang^3
#
#
#
# Elastic Constant Matrix: (Units=GPa)
#
#
# Indices 1 2 3 4 5 6 
#
# 1 69.7680 0.8022 12.0379 0.0000 0.0000 0.0000
# 2 0.8022 69.7688 12.0381 0.0000 0.0000 0.0000
# 3 12.0379 12.0381 135.2800 0.0000 0.0000 0.0000
# 4 0.0000 0.0000 0.0000 39.6260 0.0000 0.0000
# 5 0.0000 0.0000 0.0000 0.0000 39.6255 0.0000
# 6 0.0000 0.0000 0.0000 0.0000 0.0000 12.0384
#
#
#
# Elastic Compliance Matrix: (Units=1/GPa)
#
#
# Indices 1 2 3 4 5 6 
#
# 1 0.014557 0.000057 -0.001300 0.000000 0.000000 0.000000
# 2 0.000057 0.014557 -0.001300 0.000000 0.000000 0.000000
# 3 -0.001300 -0.001300 0.007624 0.000000 0.000000 0.000000
# 4 0.000000 0.000000 0.000000 0.025236 0.000000 0.000000
# 5 0.000000 0.000000 0.000000 0.000000 0.025236 0.000000
# 6 0.000000 0.000000 0.000000 0.000000 0.000000 0.083068
#
#
# Mechanical properties :
#
#
# Convention : Reuss Voigt Hill
#
# Bulk Modulus (GPa) = 31.59604 36.06368 33.82986
# Shear Modulus (GPa) = 26.89406 34.92056 30.90731
#
# Velocity S-wave (km/s) = 3.68391 4.19780 3.94922
# Velocity P-wave (km/s) = 5.83428 6.45707 6.15356
#
# Compressibility (1/GPa) = 0.03164954
#
# Stress axis : x y z
#
# Youngs Moduli (GPa) = 68.69574 68.69653 131.17308
#
# Poissons Ratio (x) = -0.00392 0.17058
# Poissons Ratio (y) = -0.00392 0.17058
# Poissons Ratio (z) = 0.08933 0.08933
#
# Static dielectric constant tensor:
#      x y z
#    x 1.739450 0.000000 0.000000 
#    y 0.000000 1.739450 0.000000 
#    z 0.000000 0.000000 1.697320 
# 
# From -- ./inp_files/716.got.cif
#   From: 2010.05.17/outbox.cif.g08.bks.cpg/sg124_1_cif.got.tgz:716.got - 2010.05.20 11:49:17.
