data_PCOD9562116
_publ_section_title
;
Structure prediction by ZEFSAII (Michael W. Deem and Ramdas Pophale) SiO2 
 PCOD9562116
Probable space group: P 4/M M M
;
_chemical_formula_sum "Si O2"
_cell_formula_units_Z 60
_cell_length_a 13.765353
_cell_length_b 13.765353
_cell_length_c 19.677231
_cell_angle_alpha 90.000000
_cell_angle_beta 90.000000
_cell_angle_gamma 90.000000
_cell_volume 3728.538999
_symmetry_space_group_name_H-M "P 4/M M M"
_symmetry_group_IT_number 123
_symmetry_cell_setting 'tetragonal'
loop_
_space_group_symop_operation_xyz
x,y,z
-y,x,z
-x,-y,z
y,-x,z
x,-y,-z
-x,y,-z
y,x,-z
-y,-x,-z
-x,-y,-z
y,-x,-z
x,y,-z
-y,x,-z
-x,y,z
x,-y,z
-y,-x,z
y,x,z
loop_
_atom_site_type_symbol
_atom_site_label
_atom_site_fract_x
_atom_site_fract_y
_atom_site_fract_z
Si Si1 0.252948 0.747053 0.576931
Si Si2 0.775064 0.387704 0.193712
Si Si3 0.613799 0.613799 0.500000
Si Si4 0.886099 0.273787 0.920853
Si Si5 0.611902 0.884095 0.337246
O O1 0.223717 0.776284 0.500000
O O2 0.335285 0.664716 0.564022
O O3 0.307052 0.832845 0.616433
O O4 0.747810 0.500000 0.185473
O O5 0.682102 0.317899 0.199635
O O6 0.838172 0.350478 0.130063
O O7 0.839014 0.378787 0.262032
O O8 0.500000 0.632077 0.500000
O O9 0.826181 0.173820 0.911726
O O10 0.000000 0.261648 0.906908
O O11 0.874926 0.302692 0.000000
O O12 0.500000 0.864264 0.360621
O O13 0.624165 0.000000 0.335623
#
# Coordination Sequence:
#
# PCOD9562116 Si02
#       5
#     8  16   4  16  16
#     4  10  21  34  52  77 107 137 171 213 261 315
#     4  10  20  35  54  77 106 138 173 214 258 310
#     4   9  18  32  50  74 108 141 166 204 258 313
#     4   9  18  32  51  77 108 141 177 218 262 306
#     4  10  20  35  56  80 106 138 175 216 263 312
#
# _framework density 16.092095
#
# number of rings (size 3 to 8) (size 9 to 14) (size 15 to 20)
#    0.400    1.933    1.333    1.600    0.000    3.200 
#    0.000    4.000    0.000    0.400    0.000    4.667 
#    0.000    0.000    0.000    0.000    0.000    0.000 
#
# Total GULP energy -334322.398040 kJ/mol
# GULP energy per Si atom -5572.039967 kJ/mol
# Density = 1.605547 g / cm^3
# Si number density = 16.092095 Si / 1000 Ang^3
#
#
#
# Elastic Constant Matrix: (Units=GPa)
#
#
# Indices 1 2 3 4 5 6 
#
# 1 100.8956 79.8283 58.7090 0.0000 0.0000 0.0000
# 2 79.8283 100.8956 58.7090 0.0000 0.0000 0.0000
# 3 58.7090 58.7090 83.0643 0.0000 0.0000 0.0000
# 4 0.0000 0.0000 0.0000 22.0227 0.0000 0.0000
# 5 0.0000 0.0000 0.0000 0.0000 22.0225 0.0000
# 6 0.0000 0.0000 0.0000 0.0000 0.0000 19.8156
#
#
#
# Elastic Compliance Matrix: (Units=1/GPa)
#
#
# Indices 1 2 3 4 5 6 
#
# 1 0.028849 -0.018618 -0.007232 0.000000 0.000000 0.000000
# 2 -0.018618 0.028849 -0.007232 0.000000 0.000000 0.000000
# 3 -0.007232 -0.007232 0.022262 0.000000 0.000000 0.000000
# 4 0.000000 0.000000 0.000000 0.045408 0.000000 0.000000
# 5 0.000000 0.000000 0.000000 0.000000 0.045408 0.000000
# 6 0.000000 0.000000 0.000000 0.000000 0.000000 0.050465
#
#
# Mechanical properties :
#
#
# Convention : Reuss Voigt Hill
#
# Bulk Modulus (GPa) = 72.47332 75.48310 73.97821
# Shear Modulus (GPa) = 17.12314 18.61280 17.86797
#
# Velocity S-wave (km/s) = 3.26555 3.40463 3.33582
# Velocity P-wave (km/s) = 7.70408 7.90343 7.80439
#
# Compressibility (1/GPa) = 0.01379818
#
# Stress axis : x y z
#
# Youngs Moduli (GPa) = 34.66282 34.66280 44.92051
#
# Poissons Ratio (x) = 0.64534 0.32485
# Poissons Ratio (y) = 0.64534 0.32486
# Poissons Ratio (z) = 0.25067 0.25067
#
# Static dielectric constant tensor:
#      x y z
#    x 1.515230 0.000000 0.000000 
#    y 0.000000 1.515230 0.000000 
#    z 0.000000 0.000000 1.543000 
# 
# From -- ./inp_files/7013.got.cif
#   From: 2010.05.17/outbox.cif.g08.bks.cpg/sg123_4_cif.got.tgz:7013.got - 2010.05.20 11:43:04.
