data_PCOD9562640
_publ_section_title
;
Structure prediction by ZEFSAII (Michael W. Deem and Ramdas Pophale) SiO2 
 PCOD9562640
Probable space group: P 4/M C C
;
_chemical_formula_sum "Si O2"
_cell_formula_units_Z 64
_cell_length_a 19.154818
_cell_length_b 19.154818
_cell_length_c 9.490293
_cell_angle_alpha 90.000000
_cell_angle_beta 90.000000
_cell_angle_gamma 90.000000
_cell_volume 3482.055433
_symmetry_space_group_name_H-M "P 4/M C C"
_symmetry_group_IT_number 124
_symmetry_cell_setting 'tetragonal'
loop_
_space_group_symop_operation_xyz
x,y,z
-y,x,z
-x,-y,z
y,-x,z
x,-y,1/2-z
-x,y,1/2-z
y,x,1/2-z
-y,-x,1/2-z
-x,-y,-z
y,-x,-z
x,y,-z
-y,x,-z
-x,y,1/2+z
x,-y,1/2+z
-y,-x,1/2+z
y,x,1/2+z
loop_
_atom_site_type_symbol
_atom_site_label
_atom_site_fract_x
_atom_site_fract_y
_atom_site_fract_z
Si Si1 0.101090 0.384620 0.000000
Si Si2 0.246883 0.172465 0.500000
Si Si3 0.919464 0.777884 0.727582
Si Si4 0.405592 0.000000 0.250000
Si Si5 0.545614 0.100632 0.500000
Si Si6 0.054232 0.895311 0.000000
Si Si7 0.308088 0.841025 0.500000
O O1 0.123993 0.465342 0.000000
O O2 0.052695 0.371385 0.136575
O O3 0.163351 0.329853 0.000000
O O4 0.219130 0.128917 0.634651
O O5 0.223561 0.253253 0.500000
O O6 0.926139 0.848223 0.634000
O O7 0.885376 0.718072 0.632483
O O8 0.000000 0.760302 0.750000
O O9 0.443960 0.052184 0.138566
O O10 0.607912 0.158070 0.500000
O O11 0.970897 0.909616 0.000000
#
# Coordination Sequence:
#
# PCOD9562640 Si02
#       7
#     8   8  16   8   8   8   8
#     4  11  22  37  58  81 115 143 179 221 276 335
#     4  12  26  40  57  86 113 141 183 235 284 337
#     4  11  26  40  59  75 106 141 186 228 290 337
#     4  10  21  34  56  84 110 140 179 222 269 332
#     4  11  21  38  57  82 112 146 179 221 272 337
#     4  10  25  46  62  72  96 139 193 252 294 331
#     4  11  26  39  58  81 112 142 185 228 275 339
#
# _framework density 18.379950000000001
#
# number of rings (size 3 to 8) (size 9 to 14) (size 15 to 20)
#    0.000    1.125    0.000    6.750   21.000    0.000 
#    0.000    1.250    0.000    1.500    0.000    0.000 
#    0.000    0.500    0.000    0.000    0.000   18.000 
#
# Total GULP energy -357664.270054 kJ/mol
# GULP energy per Si atom -5588.504220 kJ/mol
# Density = 1.833812 g / cm^3
# Si number density = 18.379950 Si / 1000 Ang^3
#
#
#
# Elastic Constant Matrix: (Units=GPa)
#
#
# Indices 1 2 3 4 5 6 
#
# 1 143.6379 59.3399 33.3066 0.0000 0.0000 0.0000
# 2 59.3399 143.6379 33.3066 0.0000 0.0000 0.0000
# 3 33.3066 33.3066 148.5323 0.0000 0.0000 0.0000
# 4 0.0000 0.0000 0.0000 4.4541 0.0000 0.0000
# 5 0.0000 0.0000 0.0000 0.0000 4.4541 0.0000
# 6 0.0000 0.0000 0.0000 0.0000 0.0000 25.3647
#
#
#
# Elastic Compliance Matrix: (Units=1/GPa)
#
#
# Indices 1 2 3 4 5 6 
#
# 1 0.008590 -0.003272 -0.001192 0.000000 0.000000 0.000000
# 2 -0.003272 0.008590 -0.001192 0.000000 0.000000 0.000000
# 3 -0.001192 -0.001192 0.007267 0.000000 0.000000 0.000000
# 4 0.000000 0.000000 0.000000 0.224513 0.000000 0.000000
# 5 0.000000 0.000000 0.000000 0.000000 0.224513 0.000000
# 6 0.000000 0.000000 0.000000 0.000000 0.000000 0.039425
#
#
# Mechanical properties :
#
#
# Convention : Reuss Voigt Hill
#
# Bulk Modulus (GPa) = 76.14198 76.41269 76.27733
# Shear Modulus (GPa) = 9.45910 27.51156 18.48533
#
# Velocity S-wave (km/s) = 2.27103 3.87308 3.17477
# Velocity P-wave (km/s) = 6.95653 7.85272 7.41817
#
# Compressibility (1/GPa) = 0.01313336
#
# Stress axis : x y z
#
# Youngs Moduli (GPa) = 116.40978 116.40978 137.60180
#
# Poissons Ratio (x) = 0.38093 0.16409
# Poissons Ratio (y) = 0.38093 0.16409
# Poissons Ratio (z) = 0.13882 0.13882
#
# Static dielectric constant tensor:
#      x y z
#    x 1.715820 0.000000 0.000000 
#    y 0.000000 1.715820 0.000000 
#    z 0.000000 0.000000 1.638110 
# 
# From -- ./inp_files/976.got.cif
#   From: 2010.05.17/outbox.cif.g08.bks.cpg/sg124_1_cif.got.tgz:976.got - 2010.05.20 11:49:17.
