data_PCOD9562310
_publ_section_title
;
Structure prediction by ZEFSAII (Michael W. Deem and Ramdas Pophale) SiO2 
 PCOD9562310
Probable space group: P 4/M C C
;
_chemical_formula_sum "Si O2"
_cell_formula_units_Z 96
_cell_length_a 26.016613
_cell_length_b 26.016613
_cell_length_c 8.695459
_cell_angle_alpha 90.000000
_cell_angle_beta 90.000000
_cell_angle_gamma 90.000000
_cell_volume 5885.644482
_symmetry_space_group_name_H-M "P 4/M C C"
_symmetry_group_IT_number 124
_symmetry_cell_setting 'tetragonal'
loop_
_space_group_symop_operation_xyz
x,y,z
-y,x,z
-x,-y,z
y,-x,z
x,-y,1/2-z
-x,y,1/2-z
y,x,1/2-z
-y,-x,1/2-z
-x,-y,-z
y,-x,-z
x,y,-z
-y,x,-z
-x,y,1/2+z
x,-y,1/2+z
-y,-x,1/2+z
y,x,1/2+z
loop_
_atom_site_type_symbol
_atom_site_label
_atom_site_fract_x
_atom_site_fract_y
_atom_site_fract_z
Si Si1 0.253861 0.665953 0.184812
Si Si2 0.056748 0.862454 0.684090
Si Si3 0.659171 0.134498 0.684923
Si Si4 0.447816 0.747492 0.684270
Si Si5 0.943957 0.750259 0.684611
Si Si6 0.447834 0.136334 0.683052
O O1 0.289657 0.710344 0.250000
O O2 0.193810 0.669546 0.233121
O O3 0.273625 0.608483 0.227440
O O4 0.254415 0.669105 0.000000
O O5 0.097228 0.902773 0.750000
O O6 0.055693 0.863916 0.500000
O O7 0.069954 0.805065 0.741654
O O8 0.000000 0.873796 0.750000
O O9 0.651554 0.135099 0.500000
O O10 0.706971 0.097984 0.720532
O O11 0.606691 0.114503 0.761902
O O12 0.500000 0.722915 0.750000
O O13 0.451306 0.749391 0.500000
O O14 0.446839 0.805750 0.748268
O O15 0.947258 0.756061 0.500000
O O16 0.000000 0.735999 0.750000
O O17 0.500000 0.111785 0.750000
O O18 0.450853 0.138291 0.500000
#
# Coordination Sequence:
#
# PCOD9562310 Si02
#       6
#    16  16  16  16  16  16
#     4   9  18  30  43  64  95 126 155 190 232 277
#     4  11  22  38  58  81 107 133 164 200 242 290
#     4   9  19  34  49  68  96 128 162 199 240 285
#     4   9  16  27  42  61  87 120 158 196 234 278
#     4  10  20  36  56  76 100 130 164 204 244 284
#     4  10  17  26  44  68  93 121 156 197 241 287
#
# _framework density 16.310872
#
# number of rings (size 3 to 8) (size 9 to 14) (size 15 to 20)
#    0.000    2.333    0.000    7.000    0.000    5.500 
#    0.000    2.500    0.000    0.500    0.000    3.500 
#    0.000    0.333    0.000    3.667    0.000    2.833 
#
# Total GULP energy -535025.685025 kJ/mol
# GULP energy per Si atom -5573.184219 kJ/mol
# Density = 1.627375 g / cm^3
# Si number density = 16.310872 Si / 1000 Ang^3
#
#
#
# Elastic Constant Matrix: (Units=GPa)
#
#
# Indices 1 2 3 4 5 6 
#
# 1 102.4075 88.8384 52.0523 0.0000 0.0000 0.0000
# 2 88.8384 102.4042 52.0522 0.0000 0.0000 0.0000
# 3 52.0523 52.0522 84.5653 0.0000 0.0000 0.0000
# 4 0.0000 0.0000 0.0000 26.4666 0.0000 0.0000
# 5 0.0000 0.0000 0.0000 0.0000 26.4671 0.0000
# 6 0.0000 0.0000 0.0000 0.0000 0.0000 -3.9300
#
#
#
# Elastic Compliance Matrix: (Units=1/GPa)
#
#
# Indices 1 2 3 4 5 6 
#
# 1 0.040784 -0.032921 -0.004840 0.000000 0.000000 0.000000
# 2 -0.032921 0.040786 -0.004841 0.000000 0.000000 0.000000
# 3 -0.004840 -0.004841 0.017784 0.000000 0.000000 0.000000
# 4 0.000000 0.000000 0.000000 0.037783 0.000000 0.000000
# 5 0.000000 0.000000 0.000000 0.000000 0.037783 0.000000
# 6 0.000000 0.000000 0.000000 0.000000 0.000000 -0.254454
#
#
# Mechanical properties :
#
#
# Convention : Reuss Voigt Hill
#
# Bulk Modulus (GPa) = 70.67129 75.02920 72.85025
# Shear Modulus (GPa) = 481.41035 16.22968 248.82002
#
# Velocity S-wave (km/s) = 17.19848 3.15782 12.36445
# Velocity P-wave (km/s) = 20.92380 7.70682 15.76706
#
# Compressibility (1/GPa) = 0.01415002
#
# Stress axis : x y z
#
# Youngs Moduli (GPa) = 24.51943 24.51833 56.23048
#
# Poissons Ratio (x) = 0.80717 0.27215
# Poissons Ratio (y) = 0.80721 0.27221
# Poissons Ratio (z) = 0.11867 0.11869
#
# Static dielectric constant tensor:
#      x y z
#    x 1.557900 0.000000 0.000000 
#    y 0.000000 1.557900 0.000000 
#    z 0.000000 0.000000 1.547670 
# 
# From -- ./inp_files/1389.got.cif
#   From: 2010.05.17/outbox.cif.g08.bks.cpg/sg124_1_cif.got.tgz:1389.got - 2010.05.20 11:49:17.
