data_PCOD9562596
_publ_section_title
;
Structure prediction by ZEFSAII (Michael W. Deem and Ramdas Pophale) SiO2 
 PCOD9562596
Probable space group: P 4/M C C
;
_chemical_formula_sum "Si O2"
_cell_formula_units_Z 96
_cell_length_a 15.583006
_cell_length_b 15.583006
_cell_length_c 22.445191
_cell_angle_alpha 90.000000
_cell_angle_beta 90.000000
_cell_angle_gamma 90.000000
_cell_volume 5450.367436
_symmetry_space_group_name_H-M "P 4/M C C"
_symmetry_group_IT_number 124
_symmetry_cell_setting 'tetragonal'
loop_
_space_group_symop_operation_xyz
x,y,z
-y,x,z
-x,-y,z
y,-x,z
x,-y,1/2-z
-x,y,1/2-z
y,x,1/2-z
-y,-x,1/2-z
-x,-y,-z
y,-x,-z
x,y,-z
-y,x,-z
-x,y,1/2+z
x,-y,1/2+z
-y,-x,1/2+z
y,x,1/2+z
loop_
_atom_site_type_symbol
_atom_site_label
_atom_site_fract_x
_atom_site_fract_y
_atom_site_fract_z
Si Si1 0.738604 0.265563 0.129405
Si Si2 0.904853 0.348632 0.814905
Si Si3 0.596315 0.602181 0.678037
Si Si4 0.494041 0.094168 0.399543
Si Si5 0.487653 0.764259 0.500000
Si Si6 0.680625 0.695444 0.500000
Si Si7 0.325632 0.903536 0.176367
O O1 0.827054 0.306694 0.150160
O O2 0.660933 0.326444 0.153559
O O3 0.723800 0.265179 0.058888
O O4 0.738142 0.171387 0.158210
O O5 0.912860 0.442046 0.843717
O O6 0.887793 0.354000 0.744564
O O7 0.996053 0.301427 0.825075
O O8 0.496588 0.618296 0.660257
O O9 0.602187 0.602187 0.750000
O O10 0.516448 0.171885 0.443188
O O11 0.401389 0.108159 0.371316
O O12 0.500000 0.000000 0.429392
O O13 0.579258 0.716395 0.500000
O O14 0.406340 0.701179 0.500000
#
# Coordination Sequence:
#
# PCOD9562596 Si02
#       7
#    16  16  16  16   8   8  16
#     4  12  23  40  57  84 115 159 196 242 293 353
#     4  10  21  37  60  90 119 148 189 245 307 364
#     4   9  20  36  54  78 107 145 194 239 284 344
#     4  10  20  36  60  86 117 149 188 243 302 359
#     4  12  23  45  54  80 114 164 210 249 281 340
#     4  12  28  39  58  78 114 157 214 246 280 338
#     4  10  21  37  60  90 119 148 189 245 307 364
#
# _framework density 17.613491
#
# number of rings (size 3 to 8) (size 9 to 14) (size 15 to 20)
#    0.000    1.500    3.333    2.750    4.667    2.167 
#    0.000    0.833    0.000    0.500    0.000    2.333 
#    0.000    1.333    0.000    0.000    0.000    0.000 
#
# Total GULP energy -535734.342991 kJ/mol
# GULP energy per Si atom -5580.566073 kJ/mol
# Density = 1.757340 g / cm^3
# Si number density = 17.613491 Si / 1000 Ang^3
#
#
#
# Elastic Constant Matrix: (Units=GPa)
#
#
# Indices 1 2 3 4 5 6 
#
# 1 67.4036 23.9393 20.3711 0.0000 0.0000 0.0000
# 2 23.9393 67.4036 20.3711 0.0000 0.0000 0.0000
# 3 20.3711 20.3711 89.3366 0.0000 0.0000 0.0000
# 4 0.0000 0.0000 0.0000 22.3182 0.0000 0.0000
# 5 0.0000 0.0000 0.0000 0.0000 22.3182 0.0000
# 6 0.0000 0.0000 0.0000 0.0000 0.0000 21.4987
#
#
#
# Elastic Compliance Matrix: (Units=1/GPa)
#
#
# Indices 1 2 3 4 5 6 
#
# 1 0.017597 -0.005410 -0.002779 0.000000 0.000000 0.000000
# 2 -0.005410 0.017597 -0.002779 0.000000 0.000000 0.000000
# 3 -0.002779 -0.002779 0.012461 0.000000 0.000000 0.000000
# 4 0.000000 0.000000 0.000000 0.044806 0.000000 0.000000
# 5 0.000000 0.000000 0.000000 0.000000 0.044806 0.000000
# 6 0.000000 0.000000 0.000000 0.000000 0.000000 0.046515
#
#
# Mechanical properties :
#
#
# Convention : Reuss Voigt Hill
#
# Bulk Modulus (GPa) = 38.88100 39.27853 39.07976
# Shear Modulus (GPa) = 23.33260 23.85784 23.59522
#
# Velocity S-wave (km/s) = 3.64359 3.68437 3.66404
# Velocity P-wave (km/s) = 6.31059 6.35989 6.33528
#
# Compressibility (1/GPa) = 0.02571951
#
# Stress axis : x y z
#
# Youngs Moduli (GPa) = 56.82678 56.82678 80.25035
#
# Poissons Ratio (x) = 0.30744 0.22302
# Poissons Ratio (y) = 0.30744 0.22302
# Poissons Ratio (z) = 0.15792 0.15792
#
# Static dielectric constant tensor:
#      x y z
#    x 1.614960 0.000000 0.000000 
#    y 0.000000 1.614960 0.000000 
#    z 0.000000 0.000000 1.606040 
# 
# From -- ./inp_files/5379.got.cif
#   From: 2010.05.17/outbox.cif.g08.bks.cpg/sg124_3_cif.got.tgz:5379.got - 2010.05.20 11:49:17.
