data_PCOD9562354
_publ_section_title
;
Structure prediction by ZEFSAII (Michael W. Deem and Ramdas Pophale) SiO2 
 PCOD9562354
Probable space group: P 4/M C C
;
_chemical_formula_sum "Si O2"
_cell_formula_units_Z 72
_cell_length_a 18.755577
_cell_length_b 18.755577
_cell_length_c 9.971193
_cell_angle_alpha 90.000000
_cell_angle_beta 90.000000
_cell_angle_gamma 90.000000
_cell_volume 3507.583200
_symmetry_space_group_name_H-M "P 4/M C C"
_symmetry_group_IT_number 124
_symmetry_cell_setting 'tetragonal'
loop_
_space_group_symop_operation_xyz
x,y,z
-y,x,z
-x,-y,z
y,-x,z
x,-y,1/2-z
-x,y,1/2-z
y,x,1/2-z
-y,-x,1/2-z
-x,-y,-z
y,-x,-z
x,y,-z
-y,x,-z
-x,y,1/2+z
x,-y,1/2+z
-y,-x,1/2+z
y,x,1/2+z
loop_
_atom_site_type_symbol
_atom_site_label
_atom_site_fract_x
_atom_site_fract_y
_atom_site_fract_z
Si Si1 0.776842 0.056425 0.857379
Si Si2 0.185669 0.627630 0.148352
Si Si3 0.432518 0.340302 0.156533
Si Si4 0.605143 0.938380 0.348076
Si Si5 0.213036 0.786965 0.250000
O O1 0.690690 0.049760 0.859525
O O2 0.789933 0.140041 0.834174
O O3 0.803705 0.000000 0.750000
O O4 0.806169 0.034692 0.000000
O O5 0.256122 0.580074 0.146948
O O6 0.134952 0.600189 0.266033
O O7 0.207467 0.710620 0.174785
O O8 0.150904 0.624615 0.000000
O O9 0.500000 0.358276 0.250000
O O10 0.369151 0.369151 0.250000
O O11 0.435033 0.366629 0.000000
O O12 0.576275 0.936748 0.500000
O O13 0.577796 0.000000 0.250000
#
# Coordination Sequence:
#
# PCOD9562354 Si02
#       5
#    16  16  16  16   8
#     4   9  18  29  44  69 103 141 180 228 279 333
#     4  10  20  34  56  85 117 150 191 240 290 341
#     4  11  24  43  66  93 123 157 194 238 287 344
#     4   9  17  29  48  76 113 153 193 235 285 340
#     4  10  18  32  54  81 107 142 190 232 284 332
#
# _framework density 20.526955000000001
#
# number of rings (size 3 to 8) (size 9 to 14) (size 15 to 20)
#    0.000    2.222    1.111    2.000    0.000    9.111 
#    0.000    1.111    0.000    1.000    0.000    6.222 
#    0.000    0.000    0.000    0.000    0.000    0.000 
#
# Total GULP energy -401181.396281 kJ/mol
# GULP energy per Si atom -5571.963837 kJ/mol
# Density = 2.048024 g / cm^3
# Si number density = 20.526955 Si / 1000 Ang^3
#
#
#
# Elastic Constant Matrix: (Units=GPa)
#
#
# Indices 1 2 3 4 5 6 
#
# 1 39.8167 -13.9674 24.6669 0.0000 0.0000 0.0000
# 2 -13.9674 39.8168 24.6675 0.0000 0.0000 0.0000
# 3 24.6669 24.6675 195.6144 0.0000 0.0000 0.0000
# 4 0.0000 0.0000 0.0000 22.4671 0.0000 0.0000
# 5 0.0000 0.0000 0.0000 0.0000 22.4614 0.0000
# 6 0.0000 0.0000 0.0000 0.0000 0.0000 -36.0419
#
#
#
# Elastic Compliance Matrix: (Units=1/GPa)
#
#
# Indices 1 2 3 4 5 6 
#
# 1 0.034770 0.016177 -0.006424 0.000000 0.000000 0.000000
# 2 0.016177 0.034770 -0.006425 0.000000 0.000000 0.000000
# 3 -0.006424 -0.006425 0.006732 0.000000 0.000000 0.000000
# 4 0.000000 0.000000 0.000000 0.044510 0.000000 0.000000
# 5 0.000000 0.000000 0.000000 0.000000 0.044521 0.000000
# 6 0.000000 0.000000 0.000000 0.000000 0.000000 -0.027745
#
#
# Mechanical properties :
#
#
# Convention : Reuss Voigt Hill
#
# Bulk Modulus (GPa) = 12.05859 38.44244 25.25051
# Shear Modulus (GPa) = 31.53703 17.76936 24.65320
#
# Velocity S-wave (km/s) = 3.92391 2.94540 3.46933
# Velocity P-wave (km/s) = 5.13972 5.50778 5.32693
#
# Compressibility (1/GPa) = 0.08292845
#
# Stress axis : x y z
#
# Youngs Moduli (GPa) = 28.76053 28.76046 148.53624
#
# Poissons Ratio (x) = -0.46526 0.95426
# Poissons Ratio (y) = -0.46526 0.95427
# Poissons Ratio (z) = 0.18477 0.18477
#
# Static dielectric constant tensor:
#      x y z
#    x 1.730900 0.000000 0.000000 
#    y 0.000000 1.730900 0.000000 
#    z 0.000000 0.000000 1.773640 
# 
# From -- ./inp_files/1025.got.cif
#   From: 2010.05.17/outbox.cif.g08.bks.cpg/sg124_1_cif.got.tgz:1025.got - 2010.05.20 11:49:17.
