data_PCOD9562409
_publ_section_title
;
Structure prediction by ZEFSAII (Michael W. Deem and Ramdas Pophale) SiO2 
 PCOD9562409
Probable space group: P 4/M C C
;
_chemical_formula_sum "Si O2"
_cell_formula_units_Z 120
_cell_length_a 20.081542
_cell_length_b 20.081542
_cell_length_c 15.295405
_cell_angle_alpha 90.000000
_cell_angle_beta 90.000000
_cell_angle_gamma 90.000000
_cell_volume 6168.152417
_symmetry_space_group_name_H-M "P 4/M C C"
_symmetry_group_IT_number 124
_symmetry_cell_setting 'tetragonal'
loop_
_space_group_symop_operation_xyz
x,y,z
-y,x,z
-x,-y,z
y,-x,z
x,-y,1/2-z
-x,y,1/2-z
y,x,1/2-z
-y,-x,1/2-z
-x,-y,-z
y,-x,-z
x,y,-z
-y,x,-z
-x,y,1/2+z
x,-y,1/2+z
-y,-x,1/2+z
y,x,1/2+z
loop_
_atom_site_type_symbol
_atom_site_label
_atom_site_fract_x
_atom_site_fract_y
_atom_site_fract_z
Si Si1 0.089893 0.060654 0.893109
Si Si2 0.296647 0.751243 0.899637
Si Si3 0.853802 0.637942 0.363413
Si Si4 0.299435 0.603067 0.897675
Si Si5 0.410722 0.178036 0.323538
Si Si6 0.845262 0.790352 0.396662
Si Si7 0.294032 0.500000 0.750000
Si Si8 0.490192 0.927787 0.399838
O O1 0.152428 0.105335 0.861910
O O2 0.017482 0.090119 0.866833
O O3 0.091168 0.060054 0.000000
O O4 0.317555 0.678106 0.865049
O O5 0.356609 0.802261 0.894476
O O6 0.230120 0.783670 0.859311
O O7 0.279861 0.736174 0.000000
O O8 0.781686 0.610261 0.396333
O O9 0.848387 0.629434 0.259645
O O10 0.868539 0.713691 0.388218
O O11 0.907832 0.586569 0.397258
O O12 0.323882 0.546172 0.829113
O O13 0.319344 0.591492 0.000000
O O14 0.448340 0.245571 0.298448
O O15 0.466553 0.126559 0.350699
O O16 0.839192 0.805936 0.500000
O O17 0.513586 0.928868 0.500000
O O18 0.500000 0.000000 0.360442
#
# Coordination Sequence:
#
# PCOD9562409 Si02
#       8
#    16  16  16  16  16  16   8  16
#     4   8  14  27  49  75 103 135 176 233 291 337
#     4   9  19  33  53  78 110 148 184 237 292 328
#     4  10  19  32  51  74 100 146 184 217 283 337
#     4   9  17  32  51  75 109 144 184 230 276 336
#     4  11  20  35  51  78 106 143 185 232 275 332
#     4   9  17  31  50  75 108 144 185 231 282 340
#     4  10  20  30  53  82 100 147 186 218 284 338
#     4  11  22  36  54  75 104 146 191 231 278 338
#
# _framework density 19.454771999999998
#
# number of rings (size 3 to 8) (size 9 to 14) (size 15 to 20)
#    0.000    2.400    2.667    2.800    0.000    6.400 
#    2.400    0.000    0.000    0.000    0.000    0.000 
#    0.000    8.533    0.000   11.867    0.000    0.000 
#
# Total GULP energy -668136.694802 kJ/mol
# GULP energy per Si atom -5567.805790 kJ/mol
# Density = 1.941049 g / cm^3
# Si number density = 19.454772 Si / 1000 Ang^3
#
#
#
# Elastic Constant Matrix: (Units=GPa)
#
#
# Indices 1 2 3 4 5 6 
#
# 1 84.9574 51.8931 11.7508 0.0000 0.0000 0.0000
# 2 51.8931 84.9574 11.7508 0.0000 0.0000 0.0000
# 3 11.7508 11.7508 57.6930 0.0000 0.0000 0.0000
# 4 0.0000 0.0000 0.0000 -9.0288 0.0000 0.0000
# 5 0.0000 0.0000 0.0000 0.0000 -9.0288 0.0000
# 6 0.0000 0.0000 0.0000 0.0000 0.0000 18.0199
#
#
#
# Elastic Compliance Matrix: (Units=1/GPa)
#
#
# Indices 1 2 3 4 5 6 
#
# 1 0.018908 -0.011336 -0.001542 0.000000 0.000000 0.000000
# 2 -0.011336 0.018908 -0.001542 0.000000 0.000000 0.000000
# 3 -0.001542 -0.001542 0.017961 0.000000 0.000000 0.000000
# 4 0.000000 0.000000 0.000000 -0.110756 0.000000 0.000000
# 5 0.000000 0.000000 0.000000 0.000000 -0.110756 0.000000
# 6 0.000000 0.000000 0.000000 0.000000 0.000000 0.055494
#
#
# Mechanical properties :
#
#
# Convention : Reuss Voigt Hill
#
# Bulk Modulus (GPa) = 37.12432 42.04411 39.58422
# Shear Modulus (GPa) = -69.04100 10.13999 -29.45051
#
# Velocity S-wave (km/s) = -5.96364 2.28548 -3.89497
# Velocity P-wave (km/s) = 5.31942 5.35001 0.40402
#
# Compressibility (1/GPa) = 0.02693652
#
# Stress axis : x y z
#
# Youngs Moduli (GPa) = 52.88740 52.88740 55.67498
#
# Poissons Ratio (x) = 0.59953 0.08587
# Poissons Ratio (y) = 0.59953 0.08587
# Poissons Ratio (z) = 0.08157 0.08157
#
# Static dielectric constant tensor:
#      x y z
#    x 1.548560 0.000000 0.000000 
#    y 0.000000 1.548560 0.000000 
#    z 0.000000 0.000000 1.760490 
# 
# From -- ./inp_files/3497.got.cif
#   From: 2010.05.17/outbox.cif.g08.bks.cpg/sg124_2_cif.got.tgz:3497.got - 2010.05.20 11:49:17.
