data_PCOD9562485
_publ_section_title
;
Structure prediction by ZEFSAII (Michael W. Deem and Ramdas Pophale) SiO2 
 PCOD9562485
Probable space group: P 4/M C C
;
_chemical_formula_sum "Si O2"
_cell_formula_units_Z 80
_cell_length_a 17.134237
_cell_length_b 17.134237
_cell_length_c 14.381910
_cell_angle_alpha 90.000000
_cell_angle_beta 90.000000
_cell_angle_gamma 90.000000
_cell_volume 4222.271017
_symmetry_space_group_name_H-M "P 4/M C C"
_symmetry_group_IT_number 124
_symmetry_cell_setting 'tetragonal'
loop_
_space_group_symop_operation_xyz
x,y,z
-y,x,z
-x,-y,z
y,-x,z
x,-y,1/2-z
-x,y,1/2-z
y,x,1/2-z
-y,-x,1/2-z
-x,-y,-z
y,-x,-z
x,y,-z
-y,x,-z
-x,y,1/2+z
x,-y,1/2+z
-y,-x,1/2+z
y,x,1/2+z
loop_
_atom_site_type_symbol
_atom_site_label
_atom_site_fract_x
_atom_site_fract_y
_atom_site_fract_z
Si Si1 0.147401 0.398833 0.500000
Si Si2 0.478585 0.860048 0.152979
Si Si3 0.912920 0.213539 0.212160
Si Si4 0.392811 0.961196 0.000000
Si Si5 0.676928 0.211745 0.197249
Si Si6 0.883950 0.774347 0.500000
Si Si7 0.734987 0.156301 0.000000
O O1 0.170168 0.448814 0.408750
O O2 0.165834 0.307343 0.500000
O O3 0.052862 0.397415 0.500000
O O4 0.500000 0.898434 0.250000
O O5 0.415666 0.794386 0.183086
O O6 0.434544 0.921905 0.087945
O O7 0.858558 0.141443 0.250000
O O8 0.864067 0.289143 0.247892
O O9 0.000000 0.209721 0.250000
O O10 0.921716 0.220994 0.100994
O O11 0.306239 0.927038 0.000000
O O12 0.714537 0.285463 0.250000
O O13 0.710202 0.201573 0.093059
O O14 0.826681 0.848447 0.500000
#
# Coordination Sequence:
#
# PCOD9562485 Si02
#       7
#     8  16  16   8  16   8   8
#     4  11  24  36  51  88 117 158 197 239 315 373
#     4  10  20  35  52  79 120 149 186 244 289 356
#     4  11  25  40  60  87 110 148 210 257 314 372
#     4   9  22  36  51  78 115 156 198 228 293 374
#     4  10  20  37  58  83 111 160 207 240 295 367
#     4  12  23  39  64  84 115 156 202 258 300 374
#     4  10  19  37  58  75 110 152 201 256 284 350
#
# _framework density 18.947150000000001
#
# number of rings (size 3 to 8) (size 9 to 14) (size 15 to 20)
#    0.000    1.600    4.000    3.000    5.600    2.600 
#    3.600    0.000    0.000    1.200    0.000    0.000 
#    0.000    0.400    0.000    5.200    0.800    0.000 
#
# Total GULP energy -446165.841593 kJ/mol
# GULP energy per Si atom -5577.073020 kJ/mol
# Density = 1.890403 g / cm^3
# Si number density = 18.947150 Si / 1000 Ang^3
#
#
#
# Elastic Constant Matrix: (Units=GPa)
#
#
# Indices 1 2 3 4 5 6 
#
# 1 76.6230 35.7289 36.8828 0.0000 0.0000 0.0000
# 2 35.7289 76.6216 36.8830 0.0000 0.0000 0.0000
# 3 36.8828 36.8830 192.4650 0.0000 0.0000 0.0000
# 4 0.0000 0.0000 0.0000 24.6173 0.0000 0.0000
# 5 0.0000 0.0000 0.0000 0.0000 24.6176 0.0000
# 6 0.0000 0.0000 0.0000 0.0000 0.0000 21.6742
#
#
#
# Elastic Compliance Matrix: (Units=1/GPa)
#
#
# Indices 1 2 3 4 5 6 
#
# 1 0.017318 -0.007136 -0.001951 0.000000 0.000000 0.000000
# 2 -0.007136 0.017318 -0.001951 0.000000 0.000000 0.000000
# 3 -0.001951 -0.001951 0.005944 0.000000 0.000000 0.000000
# 4 0.000000 0.000000 0.000000 0.040622 0.000000 0.000000
# 5 0.000000 0.000000 0.000000 0.000000 0.040621 0.000000
# 6 0.000000 0.000000 0.000000 0.000000 0.000000 0.046138
#
#
# Mechanical properties :
#
#
# Convention : Reuss Voigt Hill
#
# Bulk Modulus (GPa) = 54.04718 62.74434 58.39576
# Shear Modulus (GPa) = 25.48365 29.92949 27.70657
#
# Velocity S-wave (km/s) = 3.67138 3.97877 3.82816
# Velocity P-wave (km/s) = 6.82343 7.36850 7.10120
#
# Compressibility (1/GPa) = 0.01850235
#
# Stress axis : x y z
#
# Youngs Moduli (GPa) = 57.74475 57.74356 168.24902
#
# Poissons Ratio (x) = 0.41206 0.32827
# Poissons Ratio (y) = 0.41207 0.32829
# Poissons Ratio (z) = 0.11267 0.11267
#
# Static dielectric constant tensor:
#      x y z
#    x 1.697290 0.000000 0.000000 
#    y 0.000000 1.697290 0.000000 
#    z 0.000000 0.000000 1.797740 
# 
# From -- ./inp_files/3172.got.cif
#   From: 2010.05.17/outbox.cif.g08.bks.cpg/sg124_2_cif.got.tgz:3172.got - 2010.05.20 11:49:17.
