data_PCOD9562908
_publ_section_title
;
Structure prediction by ZEFSAII (Michael W. Deem and Ramdas Pophale) SiO2 
 PCOD9562908
Probable space group: P 4/N B M
;
_chemical_formula_sum "Si O2"
_cell_formula_units_Z 88
_cell_length_a 18.108147
_cell_length_b 18.108147
_cell_length_c 13.908771
_cell_angle_alpha 90.000000
_cell_angle_beta 90.000000
_cell_angle_gamma 90.000000
_cell_volume 4560.755385
_symmetry_space_group_name_H-M "P 4/N B M"
_symmetry_group_IT_number 125
_space_group.IT_coordinate_system_code '2'
_symmetry_cell_setting 'tetragonal'
loop_
_space_group_symop_operation_xyz
x,y,z
1/2-y,x,z
1/2-x,1/2-y,z
y,1/2-x,z
x,1/2-y,-z
1/2-x,y,-z
y,x,-z
1/2-y,1/2-x,-z
-x,-y,-z
1/2+y,-x,-z
1/2+x,1/2+y,-z
-y,1/2+x,-z
-x,1/2+y,z
1/2+x,-y,z
-y,-x,z
1/2+y,1/2+x,z
loop_
_atom_site_type_symbol
_atom_site_label
_atom_site_fract_x
_atom_site_fract_y
_atom_site_fract_z
Si Si1 0.621240 0.498463 0.030515
Si Si2 0.513012 0.887350 0.442717
Si Si3 0.632100 0.255028 0.286283
Si Si4 0.750000 0.424011 0.500000
Si Si5 0.462657 0.090296 0.769911
Si Si6 0.473183 0.654871 0.174337
O O1 0.580221 0.419780 0.040423
O O2 0.641566 0.525255 0.136900
O O3 0.557559 0.557559 0.000000
O O4 0.672464 0.491595 0.937070
O O5 0.582833 0.917168 0.500000
O O6 0.474861 0.821658 0.498886
O O7 0.531174 0.869964 0.332173
O O8 0.453379 0.953379 0.439266
O O9 0.664315 0.335686 0.259457
O O10 0.695987 0.195987 0.263440
O O11 0.620727 0.253541 0.401049
O O12 0.560652 0.223009 0.232888
O O13 0.527239 0.027239 0.773958
O O14 0.386463 0.043815 0.779464
O O15 0.409302 0.590699 0.173178
#
# Coordination Sequence:
#
# PCOD9562908 Si02
#       6
#    16  16  16   8  16  16
#     4   7  10  18  36  63  91 118 148 187 241 297
#     4  10  20  33  50  73  99 127 163 210 262 311
#     4  10  19  29  42  63  92 129 170 205 241 293
#     4  12  22  33  48  67  94 126 164 210 258 306
#     4   8  13  23  41  66  94 120 151 198 255 305
#     4   8  13  23  41  66  95 123 155 200 248 293
#
# _framework density 19.295048999999999
#
# number of rings (size 3 to 8) (size 9 to 14) (size 15 to 20)
#    0.000    3.091    0.000    4.909    0.000    3.636 
#    0.000    0.000    0.000    1.364    0.000    6.364 
#    0.000   21.818    0.000    0.000    0.000   13.636 
#
# Total GULP energy -490366.747271 kJ/mol
# GULP energy per Si atom -5572.349401 kJ/mol
# Density = 1.925113 g / cm^3
# Si number density = 19.295049 Si / 1000 Ang^3
#
#
#
# Elastic Constant Matrix: (Units=GPa)
#
#
# Indices 1 2 3 4 5 6 
#
# 1 31.8690 23.4156 24.0858 0.0000 0.0000 0.0000
# 2 23.4156 31.8717 24.0876 0.0000 0.0000 0.0000
# 3 24.0858 24.0876 101.2437 0.0000 0.0000 0.0000
# 4 0.0000 0.0000 0.0000 22.5860 0.0000 0.0000
# 5 0.0000 0.0000 0.0000 0.0000 22.5849 0.0000
# 6 0.0000 0.0000 0.0000 0.0000 0.0000 32.0746
#
#
#
# Elastic Compliance Matrix: (Units=1/GPa)
#
#
# Indices 1 2 3 4 5 6 
#
# 1 0.070550 -0.047729 -0.005428 0.000000 0.000000 0.000000
# 2 -0.047729 0.070545 -0.005429 0.000000 0.000000 0.000000
# 3 -0.005428 -0.005429 0.012460 0.000000 0.000000 0.000000
# 4 0.000000 0.000000 0.000000 0.044275 0.000000 0.000000
# 5 0.000000 0.000000 0.000000 0.000000 0.044277 0.000000
# 6 0.000000 0.000000 0.000000 0.000000 0.000000 0.031177
#
#
# Mechanical properties :
#
#
# Convention : Reuss Voigt Hill
#
# Bulk Modulus (GPa) = 27.48626 34.24026 30.86326
# Shear Modulus (GPa) = 12.41975 21.67547 17.04761
#
# Velocity S-wave (km/s) = 2.53983 3.35531 2.97564
# Velocity P-wave (km/s) = 4.78300 5.72668 5.27599
#
# Compressibility (1/GPa) = 0.03638182
#
# Stress axis : x y z
#
# Youngs Moduli (GPa) = 14.17438 14.17542 80.25574
#
# Poissons Ratio (x) = 0.67658 0.43564
# Poissons Ratio (y) = 0.67653 0.43571
# Poissons Ratio (z) = 0.07694 0.07696
#
# Static dielectric constant tensor:
#      x y z
#    x 1.585190 0.000000 0.000000 
#    y 0.000000 1.585160 0.000000 
#    z 0.000000 0.000000 1.723690 
# 
# From -- ./inp_files/4856.got.cif
#   From: 2010.05.17/outbox.cif.g08.bks.cpg/sg125_3_cif.got.tgz:4856.got - 2010.05.20 11:54:10.
