data_PCOD9562201
_publ_section_title
;
Structure prediction by ZEFSAII (Michael W. Deem and Ramdas Pophale) SiO2 
 PCOD9562201
Probable space group: P 4/M M M
;
_chemical_formula_sum "Si O2"
_cell_formula_units_Z 72
_cell_length_a 21.401136
_cell_length_b 21.401136
_cell_length_c 7.718943
_cell_angle_alpha 90.000000
_cell_angle_beta 90.000000
_cell_angle_gamma 90.000000
_cell_volume 3535.342447
_symmetry_space_group_name_H-M "P 4/M M M"
_symmetry_group_IT_number 123
_symmetry_cell_setting 'tetragonal'
loop_
_space_group_symop_operation_xyz
x,y,z
-y,x,z
-x,-y,z
y,-x,z
x,-y,-z
-x,y,-z
y,x,-z
-y,-x,-z
-x,-y,-z
y,-x,-z
x,y,-z
-y,x,-z
-x,y,z
x,-y,z
-y,-x,z
y,x,z
loop_
_atom_site_type_symbol
_atom_site_label
_atom_site_fract_x
_atom_site_fract_y
_atom_site_fract_z
Si Si1 0.816180 0.410232 0.698080
Si Si2 0.729850 0.831494 0.209222
Si Si3 0.069961 0.169750 0.788266
Si Si4 0.328557 0.569646 0.793962
Si Si5 0.073669 0.500000 0.711618
O O1 0.811059 0.430280 0.500000
O O2 0.827558 0.337198 0.710788
O O3 0.746653 0.421962 0.772928
O O4 0.879687 0.443271 0.767063
O O5 0.771993 0.771993 0.255331
O O6 0.768776 0.892190 0.262420
O O7 0.723896 0.831811 0.000000
O O8 0.110371 0.110371 0.733152
O O9 0.000000 0.168517 0.725033
O O10 0.069292 0.169108 0.000000
O O11 0.344674 0.500000 0.724432
O O12 0.373150 0.626851 0.727837
O O13 0.338629 0.568045 0.000000
O O14 0.069417 0.500000 0.500000
O O15 0.000000 0.500000 0.770293
#
# Coordination Sequence:
#
# PCOD9562201 Si02
#       5
#    16  16  16  16   8
#     4  11  21  35  56  79 103 135 177 221 265 313
#     4   9  18  32  49  71 102 137 169 207 259 311
#     4   8  14  25  42  66  97 132 169 211 260 312
#     4  10  21  37  58  83 112 146 180 217 263 315
#     4   9  20  38  55  73 102 137 170 210 265 319
#
# _framework density 20.365777999999999
#
# number of rings (size 3 to 8) (size 9 to 14) (size 15 to 20)
#    0.000    2.556    1.111    2.667    0.000    4.889 
#    0.000    2.222    0.000    4.667    0.000    1.556 
#    0.000    0.000    0.000    4.889    0.000    4.889 
#
# Total GULP energy -401118.998228 kJ/mol
# GULP energy per Si atom -5571.097198 kJ/mol
# Density = 2.031942 g / cm^3
# Si number density = 20.365778 Si / 1000 Ang^3
#
#
#
# Elastic Constant Matrix: (Units=GPa)
#
#
# Indices 1 2 3 4 5 6 
#
# 1 188.2218 89.2907 15.7682 0.0000 0.0000 0.0000
# 2 89.2907 188.2218 15.7682 0.0000 0.0000 0.0000
# 3 15.7682 15.7682 26.7096 0.0000 0.0000 0.0000
# 4 0.0000 0.0000 0.0000 -13.3273 0.0000 0.0000
# 5 0.0000 0.0000 0.0000 0.0000 -13.3273 0.0000
# 6 0.0000 0.0000 0.0000 0.0000 0.0000 -52.0337
#
#
#
# Elastic Compliance Matrix: (Units=1/GPa)
#
#
# Indices 1 2 3 4 5 6 
#
# 1 0.006985 -0.003123 -0.002280 0.000000 0.000000 0.000000
# 2 -0.003123 0.006985 -0.002280 0.000000 0.000000 0.000000
# 3 -0.002280 -0.002280 0.040132 0.000000 0.000000 0.000000
# 4 0.000000 0.000000 0.000000 -0.075034 0.000000 0.000000
# 5 0.000000 0.000000 0.000000 0.000000 -0.075034 0.000000
# 6 0.000000 0.000000 0.000000 0.000000 0.000000 -0.019218
#
#
# Mechanical properties :
#
#
# Convention : Reuss Voigt Hill
#
# Bulk Modulus (GPa) = 25.81573 71.64523 48.73048
# Shear Modulus (GPa) = -57.53449 3.08407 -27.22521
#
# Velocity S-wave (km/s) = -5.32089 1.23192 -3.66021
# Velocity P-wave (km/s) = 5.00456 6.10566 2.47320
#
# Compressibility (1/GPa) = 0.03873607
#
# Stress axis : x y z
#
# Youngs Moduli (GPa) = 143.15759 143.15759 24.91771
#
# Poissons Ratio (x) = 0.44704 0.05682
# Poissons Ratio (y) = 0.44704 0.05682
# Poissons Ratio (z) = 0.32644 0.32644
#
# Static dielectric constant tensor:
#      x y z
#    x 1.718770 0.000000 0.000000 
#    y 0.000000 1.718770 0.000000 
#    z 0.000000 0.000000 1.772600 
# 
# From -- ./inp_files/1062.got.cif
#   From: 2010.05.17/outbox.cif.g08.bks.cpg/sg123_1_cif.got.tgz:1062.got - 2010.05.20 11:43:04.
