data_PCOD9562933
_publ_section_title
;
Structure prediction by ZEFSAII (Michael W. Deem and Ramdas Pophale) SiO2 
 PCOD9562933
Probable space group: P 4/N B M
;
_chemical_formula_sum "Si O2"
_cell_formula_units_Z 96
_cell_length_a 14.448580
_cell_length_b 14.448580
_cell_length_c 22.731436
_cell_angle_alpha 90.000000
_cell_angle_beta 90.000000
_cell_angle_gamma 90.000000
_cell_volume 4745.447859
_symmetry_space_group_name_H-M "P 4/N B M"
_symmetry_group_IT_number 125
_space_group.IT_coordinate_system_code '2'
_symmetry_cell_setting 'tetragonal'
loop_
_space_group_symop_operation_xyz
x,y,z
1/2-y,x,z
1/2-x,1/2-y,z
y,1/2-x,z
x,1/2-y,-z
1/2-x,y,-z
y,x,-z
1/2-y,1/2-x,-z
-x,-y,-z
1/2+y,-x,-z
1/2+x,1/2+y,-z
-y,1/2+x,-z
-x,1/2+y,z
1/2+x,-y,z
-y,-x,z
1/2+y,1/2+x,z
loop_
_atom_site_type_symbol
_atom_site_label
_atom_site_fract_x
_atom_site_fract_y
_atom_site_fract_z
Si Si1 0.419171 0.731951 0.149795
Si Si2 0.250859 0.598447 0.429068
Si Si3 0.906084 0.733402 0.361021
Si Si4 0.660339 0.486055 0.039665
Si Si5 0.506000 0.156536 0.753117
Si Si6 0.073763 0.417584 0.134794
O O1 0.330667 0.669334 0.140893
O O2 0.432012 0.802587 0.097152
O O3 0.421613 0.777349 0.213649
O O4 0.510162 0.669354 0.144440
O O5 0.250000 0.594070 0.500000
O O6 0.344848 0.655153 0.411972
O O7 0.164998 0.664998 0.410958
O O8 0.239105 0.495564 0.403590
O O9 0.848317 0.829205 0.367902
O O10 0.953081 0.709754 0.298147
O O11 0.578690 0.421310 0.012465
O O12 0.622319 0.578838 0.071107
O O13 0.750000 0.498042 0.000000
O O14 0.563469 0.063469 0.735036
O O15 0.435359 0.132663 0.806489
O O16 0.005347 0.505347 0.132139
#
# Coordination Sequence:
#
# PCOD9562933 Si02
#       6
#    16  16  16  16  16  16
#     4  10  19  32  52  74  98 131 173 224 279 336
#     4   9  20  41  67  93 122 159 205 255 305 356
#     4  11  24  39  58  89 127 166 206 247 297 358
#     4  10  20  32  47  69  98 129 162 209 269 333
#     4  10  20  35  55  79 110 146 187 236 288 345
#     4   8  17  33  50  71  98 133 177 220 272 337
#
# _framework density 20.229914999999998
#
# number of rings (size 3 to 8) (size 9 to 14) (size 15 to 20)
#    0.000    2.333    0.000    4.000    0.000    5.500 
#    0.000    5.000    0.000    4.500    0.000    4.667 
#    0.000    0.000    0.000    0.000    0.000    0.000 
#
# Total GULP energy -535086.315130 kJ/mol
# GULP energy per Si atom -5573.815783 kJ/mol
# Density = 2.018387 g / cm^3
# Si number density = 20.229915 Si / 1000 Ang^3
#
#
#
# Elastic Constant Matrix: (Units=GPa)
#
#
# Indices 1 2 3 4 5 6 
#
# 1 106.5187 65.6310 42.0307 0.0000 0.0000 0.0000
# 2 65.6310 106.5187 42.0307 0.0000 0.0000 0.0000
# 3 42.0307 42.0307 72.6328 0.0000 0.0000 0.0000
# 4 0.0000 0.0000 0.0000 34.6958 0.0000 0.0000
# 5 0.0000 0.0000 0.0000 0.0000 34.6958 0.0000
# 6 0.0000 0.0000 0.0000 0.0000 0.0000 35.7644
#
#
#
# Elastic Compliance Matrix: (Units=1/GPa)
#
#
# Indices 1 2 3 4 5 6 
#
# 1 0.016277 -0.008180 -0.004685 0.000000 0.000000 0.000000
# 2 -0.008180 0.016277 -0.004685 0.000000 0.000000 0.000000
# 3 -0.004685 -0.004685 0.019191 0.000000 0.000000 0.000000
# 4 0.000000 0.000000 0.000000 0.028822 0.000000 0.000000
# 5 0.000000 0.000000 0.000000 0.000000 0.028822 0.000000
# 6 0.000000 0.000000 0.000000 0.000000 0.000000 0.027961
#
#
# Mechanical properties :
#
#
# Convention : Reuss Voigt Hill
#
# Bulk Modulus (GPa) = 60.08711 65.00613 62.54662
# Shear Modulus (GPa) = 28.09007 30.09637 29.09322
#
# Velocity S-wave (km/s) = 3.73036 3.86128 3.79638
# Velocity P-wave (km/s) = 6.95131 7.21683 7.08531
#
# Compressibility (1/GPa) = 0.01664250
#
# Stress axis : x y z
#
# Youngs Moduli (GPa) = 61.43630 61.43630 52.10899
#
# Poissons Ratio (x) = 0.50256 0.24415
# Poissons Ratio (y) = 0.50256 0.24415
# Poissons Ratio (z) = 0.28785 0.28785
#
# Static dielectric constant tensor:
#      x y z
#    x 1.720430 0.000000 0.000000 
#    y 0.000000 1.720430 0.000000 
#    z 0.000000 0.000000 1.727330 
# 
# From -- ./inp_files/5944.got.cif
#   From: 2010.05.17/outbox.cif.g08.bks.cpg/sg125_3_cif.got.tgz:5944.got - 2010.05.20 11:54:10.
