data_PCOD9562087
_publ_section_title
;
Structure prediction by ZEFSAII (Michael W. Deem and Ramdas Pophale) SiO2 
 PCOD9562087
Probable space group: P 4/M M M
;
_chemical_formula_sum "Si O2"
_cell_formula_units_Z 64
_cell_length_a 12.859255
_cell_length_b 12.859255
_cell_length_c 22.957481
_cell_angle_alpha 90.000000
_cell_angle_beta 90.000000
_cell_angle_gamma 90.000000
_cell_volume 3796.259140
_symmetry_space_group_name_H-M "P 4/M M M"
_symmetry_group_IT_number 123
_symmetry_cell_setting 'tetragonal'
loop_
_space_group_symop_operation_xyz
x,y,z
-y,x,z
-x,-y,z
y,-x,z
x,-y,-z
-x,y,-z
y,x,-z
-y,-x,-z
-x,-y,-z
y,-x,-z
x,y,-z
-y,x,-z
-x,y,z
x,-y,z
-y,-x,z
y,x,z
loop_
_atom_site_type_symbol
_atom_site_label
_atom_site_fract_x
_atom_site_fract_y
_atom_site_fract_z
Si Si1 0.206137 0.621630 0.637832
Si Si2 0.205569 0.378210 0.000000
Si Si3 0.373801 0.000000 0.433201
Si Si4 0.796844 0.377469 0.127175
Si Si5 0.708303 0.879604 0.755002
O O1 0.227445 0.500000 0.626637
O O2 0.304117 0.695884 0.625951
O O3 0.105622 0.656042 0.600162
O O4 0.172787 0.637657 0.705139
O O5 0.153934 0.357419 0.937128
O O6 0.231377 0.500000 0.000000
O O7 0.308962 0.308962 0.000000
O O8 0.500000 0.000000 0.433026
O O9 0.338231 0.000000 0.500000
O O10 0.774727 0.500000 0.131561
O O11 0.692369 0.307632 0.130566
O O12 0.865540 0.342638 0.181607
O O13 0.815837 0.815837 0.754817
O O14 0.722293 0.000000 0.741538
#
# Coordination Sequence:
#
# PCOD9562087 Si02
#       5
#    16   8   8  16  16
#     4  10  20  34  54  81 111 142 176 214 259 311
#     4   8  14  25  39  59  90 124 160 200 241 290
#     4   9  18  34  56  79 105 140 180 217 249 291
#     4   9  17  28  44  67  95 128 163 200 244 295
#     4  10  20  34  52  73  96 126 165 210 259 307
#
# _framework density 16.858702000000001
#
# number of rings (size 3 to 8) (size 9 to 14) (size 15 to 20)
#    0.000    2.625    1.250    0.750    0.000    2.875 
#    0.000    3.125    0.000    7.125    0.000    4.375 
#    0.000    5.000    0.000    0.000    0.000    0.000 
#
# Total GULP energy -356314.720047 kJ/mol
# GULP energy per Si atom -5567.417501 kJ/mol
# Density = 1.682033 g / cm^3
# Si number density = 16.858702 Si / 1000 Ang^3
#
#
#
# Elastic Constant Matrix: (Units=GPa)
#
#
# Indices 1 2 3 4 5 6 
#
# 1 121.5647 4.8944 29.7283 0.0000 0.0000 0.0000
# 2 4.8944 121.5647 29.7283 0.0000 0.0000 0.0000
# 3 29.7283 29.7283 104.3103 0.0000 0.0000 0.0000
# 4 0.0000 0.0000 0.0000 20.7551 0.0000 0.0000
# 5 0.0000 0.0000 0.0000 0.0000 20.7551 0.0000
# 6 0.0000 0.0000 0.0000 0.0000 0.0000 5.4924
#
#
#
# Elastic Compliance Matrix: (Units=1/GPa)
#
#
# Indices 1 2 3 4 5 6 
#
# 1 0.008851 0.000280 -0.002602 0.000000 0.000000 0.000000
# 2 0.000280 0.008851 -0.002602 0.000000 0.000000 0.000000
# 3 -0.002602 -0.002602 0.011070 0.000000 0.000000 0.000000
# 4 0.000000 0.000000 0.000000 0.048181 0.000000 0.000000
# 5 0.000000 0.000000 0.000000 0.000000 0.048181 0.000000
# 6 0.000000 0.000000 0.000000 0.000000 0.000000 0.182071
#
#
# Mechanical properties :
#
#
# Convention : Reuss Voigt Hill
#
# Bulk Modulus (GPa) = 52.84554 52.90460 52.87507
# Shear Modulus (GPa) = 15.46250 28.27308 21.86779
#
# Velocity S-wave (km/s) = 3.03179 4.09964 3.60546
# Velocity P-wave (km/s) = 6.60832 7.33885 6.98314
#
# Compressibility (1/GPa) = 0.01892307
#
# Stress axis : x y z
#
# Youngs Moduli (GPa) = 112.97893 112.97893 90.33312
#
# Poissons Ratio (x) = -0.03164 0.23508
# Poissons Ratio (y) = -0.03164 0.23508
# Poissons Ratio (z) = 0.29402 0.29402
#
# Static dielectric constant tensor:
#      x y z
#    x 1.540460 0.000000 0.000000 
#    y 0.000000 1.540460 0.000000 
#    z 0.000000 0.000000 1.615850 
# 
# From -- ./inp_files/7057.got.cif
#   From: 2010.05.17/outbox.cif.g08.bks.cpg/sg123_4_cif.got.tgz:7057.got - 2010.05.20 11:43:04.
