data_PCOD9562742
_publ_section_title
;
Structure prediction by ZEFSAII (Michael W. Deem and Ramdas Pophale) SiO2 
 PCOD9562742
Probable space group: P 4/M C C
;
_chemical_formula_sum "Si O2"
_cell_formula_units_Z 40
_cell_length_a 13.400957
_cell_length_b 13.400957
_cell_length_c 10.414768
_cell_angle_alpha 90.000000
_cell_angle_beta 90.000000
_cell_angle_gamma 90.000000
_cell_volume 1870.342865
_symmetry_space_group_name_H-M "P 4/M C C"
_symmetry_group_IT_number 124
_symmetry_cell_setting 'tetragonal'
loop_
_space_group_symop_operation_xyz
x,y,z
-y,x,z
-x,-y,z
y,-x,z
x,-y,1/2-z
-x,y,1/2-z
y,x,1/2-z
-y,-x,1/2-z
-x,-y,-z
y,-x,-z
x,y,-z
-y,x,-z
-x,y,1/2+z
x,-y,1/2+z
-y,-x,1/2+z
y,x,1/2+z
loop_
_atom_site_type_symbol
_atom_site_label
_atom_site_fract_x
_atom_site_fract_y
_atom_site_fract_z
Si Si1 0.179160 0.415626 0.144299
Si Si2 0.039496 0.838214 0.000000
Si Si3 0.403458 0.361311 0.500000
Si Si4 0.000000 0.282319 0.750000
O O1 0.187020 0.500000 0.250000
O O2 0.090260 0.344556 0.187776
O O3 0.152934 0.454217 0.000000
O O4 0.290193 0.371593 0.118265
O O5 0.116272 0.928587 0.000000
O O6 0.047699 0.778832 0.132460
O O7 0.525355 0.366909 0.500000
#
# Coordination Sequence:
#
# PCOD9562742 Si02
#       4
#    16   8   8   8
#     4  10  24  44  68 104 139 185 232 286 350 428
#     4  11  25  47  70 101 138 183 235 292 358 426
#     4   9  21  47  72 101 142 188 236 296 353 412
#     4  12  23  47  70 100 144 184 230 299 357 422
#
# _framework density 21.386451999999998
#
# number of rings (size 3 to 8) (size 9 to 14) (size 15 to 20)
#    1.200    0.400    2.000    1.800    2.800    4.800 
#   21.600    2.000    0.000    0.000    0.000    0.000 
#    0.000    0.000    0.000    0.000    0.000    0.000 
#
# Total GULP energy -223044.919239 kJ/mol
# GULP energy per Si atom -5576.122981 kJ/mol
# Density = 2.133778 g / cm^3
# Si number density = 21.386452 Si / 1000 Ang^3
#
#
#
# Elastic Constant Matrix: (Units=GPa)
#
#
# Indices 1 2 3 4 5 6 
#
# 1 64.8214 32.1512 34.0734 0.0000 0.0000 0.0000
# 2 32.1512 64.8214 34.0734 0.0000 0.0000 0.0000
# 3 34.0734 34.0734 188.3108 0.0000 0.0000 0.0000
# 4 0.0000 0.0000 0.0000 37.3168 0.0000 0.0000
# 5 0.0000 0.0000 0.0000 0.0000 37.3168 0.0000
# 6 0.0000 0.0000 0.0000 0.0000 0.0000 56.8307
#
#
#
# Elastic Compliance Matrix: (Units=1/GPa)
#
#
# Indices 1 2 3 4 5 6 
#
# 1 0.021212 -0.009397 -0.002138 0.000000 0.000000 0.000000
# 2 -0.009397 0.021212 -0.002138 0.000000 0.000000 0.000000
# 3 -0.002138 -0.002138 0.006084 0.000000 0.000000 0.000000
# 4 0.000000 0.000000 0.000000 0.026798 0.000000 0.000000
# 5 0.000000 0.000000 0.000000 0.000000 0.026798 0.000000
# 6 0.000000 0.000000 0.000000 0.000000 0.000000 0.017596
#
#
# Mechanical properties :
#
#
# Convention : Reuss Voigt Hill
#
# Bulk Modulus (GPa) = 47.25461 57.61665 52.43563
# Shear Modulus (GPa) = 32.44687 40.80325 36.62506
#
# Velocity S-wave (km/s) = 3.89931 4.37269 4.14277
# Velocity P-wave (km/s) = 6.51279 7.24521 6.88874
#
# Compressibility (1/GPa) = 0.02116196
#
# Stress axis : x y z
#
# Youngs Moduli (GPa) = 47.14379 47.14379 164.36599
#
# Poissons Ratio (x) = 0.44302 0.35137
# Poissons Ratio (y) = 0.44302 0.35137
# Poissons Ratio (z) = 0.10078 0.10078
#
# Static dielectric constant tensor:
#      x y z
#    x 1.800040 0.000000 0.000000 
#    y 0.000000 1.800040 0.000000 
#    z 0.000000 0.000000 1.553210 
# 
# From -- ./inp_files/355.got.cif
#   From: 2010.05.17/outbox.cif.g08.bks.cpg/sg124_1_cif.got.tgz:355.got - 2010.05.20 11:49:17.
