data_PCOD9562990
_publ_section_title
;
Structure prediction by ZEFSAII (Michael W. Deem and Ramdas Pophale) SiO2 
 PCOD9562990
Probable space group: P 4/N B M
;
_chemical_formula_sum "Si O2"
_cell_formula_units_Z 96
_cell_length_a 24.173118
_cell_length_b 24.173118
_cell_length_c 8.840967
_cell_angle_alpha 90.000000
_cell_angle_beta 90.000000
_cell_angle_gamma 90.000000
_cell_volume 5166.127420
_symmetry_space_group_name_H-M "P 4/N B M"
_symmetry_group_IT_number 125
_space_group.IT_coordinate_system_code '2'
_symmetry_cell_setting 'tetragonal'
loop_
_space_group_symop_operation_xyz
x,y,z
1/2-y,x,z
1/2-x,1/2-y,z
y,1/2-x,z
x,1/2-y,-z
1/2-x,y,-z
y,x,-z
1/2-y,1/2-x,-z
-x,-y,-z
1/2+y,-x,-z
1/2+x,1/2+y,-z
-y,1/2+x,-z
-x,1/2+y,z
1/2+x,-y,z
-y,-x,z
1/2+y,1/2+x,z
loop_
_atom_site_type_symbol
_atom_site_label
_atom_site_fract_x
_atom_site_fract_y
_atom_site_fract_z
Si Si1 0.138980 0.183794 0.346220
Si Si2 0.010221 0.335796 0.650080
Si Si3 0.875633 0.782897 0.152120
Si Si4 0.474474 0.618860 0.328871
Si Si5 0.508349 0.270297 0.835041
Si Si6 0.037555 0.056562 0.170341
O O1 0.167912 0.167912 0.500000
O O2 0.074113 0.178584 0.380948
O O3 0.148620 0.245009 0.285725
O O4 0.156991 0.145635 0.202246
O O5 0.014710 0.385355 0.770843
O O6 0.983037 0.358551 0.497958
O O7 0.983548 0.280471 0.718811
O O8 0.941947 0.780853 0.155497
O O9 0.858398 0.750000 0.000000
O O10 0.423714 0.576287 0.319649
O O11 0.466957 0.672084 0.221933
O O12 0.528965 0.584194 0.277469
O O13 0.526719 0.250000 0.000000
O O14 0.060031 0.060031 0.000000
O O15 0.986991 0.013010 0.169904
#
# Coordination Sequence:
#
# PCOD9562990 Si02
#       6
#    16  16  16  16  16  16
#     4  11  21  33  50  70  96 133 179 229 279 326
#     4  11  21  34  56  79 108 145 186 233 285 345
#     4  10  21  35  51  72  99 137 184 232 280 326
#     4  11  22  37  57  84 120 155 191 237 291 352
#     4  10  21  37  57  81 111 148 188 231 281 343
#     4  10  20  33  51  78 113 151 189 231 280 335
#
# _framework density 18.582584000000001
#
# number of rings (size 3 to 8) (size 9 to 14) (size 15 to 20)
#    0.000    1.500    0.000    6.500    0.000    7.000 
#    0.000    2.500    0.000    0.000    0.000    0.000 
#    0.000   18.333    0.000    0.000    0.000    0.000 
#
# Total GULP energy -536279.482984 kJ/mol
# GULP energy per Si atom -5586.244614 kJ/mol
# Density = 1.854029 g / cm^3
# Si number density = 18.582584 Si / 1000 Ang^3
#
#
#
# Elastic Constant Matrix: (Units=GPa)
#
#
# Indices 1 2 3 4 5 6 
#
# 1 61.7769 16.7471 16.6328 0.0000 0.0000 0.0000
# 2 16.7471 61.7769 16.6328 0.0000 0.0000 0.0000
# 3 16.6328 16.6328 67.2632 0.0000 0.0000 0.0000
# 4 0.0000 0.0000 0.0000 27.2179 0.0000 0.0000
# 5 0.0000 0.0000 0.0000 0.0000 27.2179 0.0000
# 6 0.0000 0.0000 0.0000 0.0000 0.0000 19.1972
#
#
#
# Elastic Compliance Matrix: (Units=1/GPa)
#
#
# Indices 1 2 3 4 5 6 
#
# 1 0.018216 -0.003991 -0.003518 0.000000 0.000000 0.000000
# 2 -0.003991 0.018216 -0.003518 0.000000 0.000000 0.000000
# 3 -0.003518 -0.003518 0.016607 0.000000 0.000000 0.000000
# 4 0.000000 0.000000 0.000000 0.036741 0.000000 0.000000
# 5 0.000000 0.000000 0.000000 0.000000 0.036741 0.000000
# 6 0.000000 0.000000 0.000000 0.000000 0.000000 0.052091
#
#
# Mechanical properties :
#
#
# Convention : Reuss Voigt Hill
#
# Bulk Modulus (GPa) = 32.27205 32.31582 32.29394
# Shear Modulus (GPa) = 23.69749 24.11355 23.90552
#
# Velocity S-wave (km/s) = 3.57494 3.60619 3.59060
# Velocity P-wave (km/s) = 5.86897 5.89641 5.88270
#
# Compressibility (1/GPa) = 0.03098656
#
# Stress axis : x y z
#
# Youngs Moduli (GPa) = 54.89585 54.89585 60.21699
#
# Poissons Ratio (x) = 0.21910 0.21182
# Poissons Ratio (y) = 0.21910 0.21182
# Poissons Ratio (z) = 0.19310 0.19310
#
# Static dielectric constant tensor:
#      x y z
#    x 1.651490 0.000000 0.000000 
#    y 0.000000 1.651490 0.000000 
#    z 0.000000 0.000000 1.682990 
# 
# From -- ./inp_files/2863.got.cif
#   From: 2010.05.17/outbox.cif.g08.bks.cpg/sg125_2_cif.got.tgz:2863.got - 2010.05.20 11:54:10.
