data_PCOD9562766
_publ_section_title
;
Structure prediction by ZEFSAII (Michael W. Deem and Ramdas Pophale) SiO2 
 PCOD9562766
Probable space group: P 4/M C C
;
_chemical_formula_sum "Si O2"
_cell_formula_units_Z 88
_cell_length_a 17.560768
_cell_length_b 17.560768
_cell_length_c 14.219547
_cell_angle_alpha 90.000000
_cell_angle_beta 90.000000
_cell_angle_gamma 90.000000
_cell_volume 4385.032048
_symmetry_space_group_name_H-M "P 4/M C C"
_symmetry_group_IT_number 124
_symmetry_cell_setting 'tetragonal'
loop_
_space_group_symop_operation_xyz
x,y,z
-y,x,z
-x,-y,z
y,-x,z
x,-y,1/2-z
-x,y,1/2-z
y,x,1/2-z
-y,-x,1/2-z
-x,-y,-z
y,-x,-z
x,y,-z
-y,x,-z
-x,y,1/2+z
x,-y,1/2+z
-y,-x,1/2+z
y,x,1/2+z
loop_
_atom_site_type_symbol
_atom_site_label
_atom_site_fract_x
_atom_site_fract_y
_atom_site_fract_z
Si Si1 0.645287 0.079011 0.790256
Si Si2 0.042842 0.608233 0.500000
Si Si3 0.776487 0.425683 0.187342
Si Si4 0.440224 0.388196 0.114037
Si Si5 0.555799 0.877161 0.000000
Si Si6 0.118937 0.950708 0.000000
Si Si7 0.073100 0.819325 0.703077
O O1 0.640909 0.073262 0.902515
O O2 0.618899 0.159911 0.749157
O O3 0.732965 0.073792 0.766102
O O4 0.606892 0.000000 0.750000
O O5 0.078061 0.523628 0.500000
O O6 0.950153 0.612713 0.500000
O O7 0.765714 0.500000 0.250000
O O8 0.689007 0.404747 0.158586
O O9 0.823276 0.438171 0.090572
O O10 0.530762 0.399697 0.138042
O O11 0.436637 0.381019 0.000000
O O12 0.166098 0.931390 0.092859
O O13 0.039769 0.904000 0.000000
O O14 0.145833 0.854167 0.750000
O O15 0.000000 0.858879 0.750000
#
# Coordination Sequence:
#
# PCOD9562766 Si02
#       7
#    16   8  16  16   8   8  16
#     4  11  24  40  63  96 131 178 223 270 337 402
#     4  11  21  40  64  88 135 171 224 283 323 380
#     4  12  23  40  65  99 135 167 223 271 327 401
#     4   9  20  42  72 102 133 174 223 279 344 409
#     4  11  22  36  64  95 128 168 219 281 323 374
#     4  11  21  36  68 100 121 165 229 280 328 384
#     4  11  23  42  63  91 134 170 217 277 330 392
#
# _framework density 20.068266999999999
#
# number of rings (size 3 to 8) (size 9 to 14) (size 15 to 20)
#    0.000    1.182    6.364    1.091    0.000    1.273 
#    3.273    1.818    0.000    0.000    0.000    0.000 
#    0.000    0.000    0.000    0.000    0.000    0.000 
#
# Total GULP energy -490349.975072 kJ/mol
# GULP energy per Si atom -5572.158808 kJ/mol
# Density = 2.002259 g / cm^3
# Si number density = 20.068267 Si / 1000 Ang^3
#
#
#
# Elastic Constant Matrix: (Units=GPa)
#
#
# Indices 1 2 3 4 5 6 
#
# 1 80.7726 28.4187 11.8556 0.0000 0.0000 0.0000
# 2 28.4187 80.7726 11.8556 0.0000 0.0000 0.0000
# 3 11.8556 11.8556 92.2133 0.0000 0.0000 0.0000
# 4 0.0000 0.0000 0.0000 32.2516 0.0000 0.0000
# 5 0.0000 0.0000 0.0000 0.0000 32.2516 0.0000
# 6 0.0000 0.0000 0.0000 0.0000 0.0000 102.9705
#
#
#
# Elastic Compliance Matrix: (Units=1/GPa)
#
#
# Indices 1 2 3 4 5 6 
#
# 1 0.014261 -0.004840 -0.001211 0.000000 0.000000 0.000000
# 2 -0.004840 0.014261 -0.001211 0.000000 0.000000 0.000000
# 3 -0.001211 -0.001211 0.011156 0.000000 0.000000 0.000000
# 4 0.000000 0.000000 0.000000 0.031006 0.000000 0.000000
# 5 0.000000 0.000000 0.000000 0.000000 0.031006 0.000000
# 6 0.000000 0.000000 0.000000 0.000000 0.000000 0.009712
#
#
# Mechanical properties :
#
#
# Convention : Reuss Voigt Hill
#
# Bulk Modulus (GPa) = 39.75612 39.77980 39.76796
# Shear Modulus (GPa) = 37.22708 46.93665 42.08187
#
# Velocity S-wave (km/s) = 4.31167 4.84141 4.58420
# Velocity P-wave (km/s) = 6.68137 7.14966 6.91948
#
# Compressibility (1/GPa) = 0.02515336
#
# Stress axis : x y z
#
# Youngs Moduli (GPa) = 70.12126 70.12126 89.63882
#
# Poissons Ratio (x) = 0.33937 0.10858
# Poissons Ratio (y) = 0.33937 0.10858
# Poissons Ratio (z) = 0.08494 0.08494
#
# Static dielectric constant tensor:
#      x y z
#    x 1.743780 0.000000 0.000000 
#    y 0.000000 1.743780 0.000000 
#    z 0.000000 0.000000 1.697120 
# 
# From -- ./inp_files/3272.got.cif
#   From: 2010.05.17/outbox.cif.g08.bks.cpg/sg124_2_cif.got.tgz:3272.got - 2010.05.20 11:49:17.
