data_PCOD9562000
_publ_section_title
;
Structure prediction by ZEFSAII (Michael W. Deem and Ramdas Pophale) SiO2 
 PCOD9562000
Probable space group: P 4/M M M
;
_chemical_formula_sum "Si O2"
_cell_formula_units_Z 120
_cell_length_a 21.256907
_cell_length_b 21.256907
_cell_length_c 15.441431
_cell_angle_alpha 90.000000
_cell_angle_beta 90.000000
_cell_angle_gamma 90.000000
_cell_volume 6977.304716
_symmetry_space_group_name_H-M "P 4/M M M"
_symmetry_group_IT_number 123
_symmetry_cell_setting 'tetragonal'
loop_
_space_group_symop_operation_xyz
x,y,z
-y,x,z
-x,-y,z
y,-x,z
x,-y,-z
-x,y,-z
y,x,-z
-y,-x,-z
-x,-y,-z
y,-x,-z
x,y,-z
-y,x,-z
-x,y,z
x,-y,z
-y,-x,z
y,x,z
loop_
_atom_site_type_symbol
_atom_site_label
_atom_site_fract_x
_atom_site_fract_y
_atom_site_fract_z
Si Si1 0.075124 0.181850 0.000000
Si Si2 0.350128 0.243943 0.904390
Si Si3 0.752277 0.856058 0.841708
Si Si4 0.075998 0.428661 0.904984
Si Si5 0.675007 0.428794 0.216057
Si Si6 0.426074 0.144315 0.399309
Si Si7 0.288881 0.610366 0.402625
Si Si8 0.344222 0.074808 0.260064
O O1 0.096835 0.221746 0.084447
O O2 0.118211 0.118211 0.000000
O O3 0.000000 0.171306 0.000000
O O4 0.303619 0.303619 0.908284
O O5 0.302898 0.187528 0.881730
O O6 0.399631 0.263118 0.830506
O O7 0.378686 0.235955 0.000000
O O8 0.808958 0.808958 0.818469
O O9 0.721907 0.891958 0.760608
O O10 0.099638 0.500000 0.895570
O O11 0.091781 0.386519 0.823883
O O12 0.000000 0.431752 0.905646
O O13 0.094543 0.404284 0.000000
O O14 0.665687 0.500000 0.188029
O O15 0.615801 0.384200 0.195053
O O16 0.683677 0.425439 0.319903
O O17 0.425027 0.125251 0.500000
O O18 0.500000 0.146032 0.372264
O O19 0.396531 0.214186 0.394261
O O20 0.383359 0.099783 0.341093
O O21 0.304914 0.586792 0.500000
O O22 0.319812 0.680189 0.396648
O O23 0.336789 0.000000 0.263937
#
# Coordination Sequence:
#
# PCOD9562000 Si02
#       8
#     8  16  16  16  16  16  16  16
#     4  10  20  35  56  82 113 147 178 208 246 298
#     4   9  17  32  52  72  96 127 167 213 259 302
#     4  10  20  35  54  76 104 136 171 214 262 307
#     4   8  15  28  44  63  90 125 163 202 243 288
#     4  10  20  32  49  73 100 133 171 213 264 320
#     4  10  21  36  54  76 103 137 177 219 264 319
#     4   9  18  34  55  76  97 123 161 211 262 308
#     4  11  22  33  50  75 102 135 174 213 256 308
#
# _framework density 17.198618
#
# number of rings (size 3 to 8) (size 9 to 14) (size 15 to 20)
#    0.000    2.400    0.667    2.400    0.933    3.933 
#    0.000    1.333    0.000    0.000    0.000    3.733 
#    0.000    0.000    0.000    0.000    0.000    0.000 
#
# Total GULP energy -668748.990480 kJ/mol
# GULP energy per Si atom -5572.908254 kJ/mol
# Density = 1.715947 g / cm^3
# Si number density = 17.198618 Si / 1000 Ang^3
#
#
#
# Elastic Constant Matrix: (Units=GPa)
#
#
# Indices 1 2 3 4 5 6 
#
# 1 85.0917 56.7286 44.6644 0.0000 0.0000 0.0000
# 2 56.7286 85.0917 44.6644 0.0000 0.0000 0.0000
# 3 44.6644 44.6644 65.8001 0.0000 0.0000 0.0000
# 4 0.0000 0.0000 0.0000 15.7614 0.0000 0.0000
# 5 0.0000 0.0000 0.0000 0.0000 15.7614 0.0000
# 6 0.0000 0.0000 0.0000 0.0000 0.0000 14.5213
#
#
#
# Elastic Compliance Matrix: (Units=1/GPa)
#
#
# Indices 1 2 3 4 5 6 
#
# 1 0.023787 -0.011470 -0.008361 0.000000 0.000000 0.000000
# 2 -0.011470 0.023787 -0.008361 0.000000 0.000000 0.000000
# 3 -0.008361 -0.008361 0.026548 0.000000 0.000000 0.000000
# 4 0.000000 0.000000 0.000000 0.063446 0.000000 0.000000
# 5 0.000000 0.000000 0.000000 0.000000 0.063446 0.000000
# 6 0.000000 0.000000 0.000000 0.000000 0.000000 0.068864
#
#
# Mechanical properties :
#
#
# Convention : Reuss Voigt Hill
#
# Bulk Modulus (GPa) = 56.37197 58.67758 57.52477
# Shear Modulus (GPa) = 15.05226 15.20391 15.12808
#
# Velocity S-wave (km/s) = 2.96159 2.97647 2.96904
# Velocity P-wave (km/s) = 6.67405 6.78264 6.72856
#
# Compressibility (1/GPa) = 0.01773931
#
# Stress axis : x y z
#
# Youngs Moduli (GPa) = 42.03927 42.03927 37.66724
#
# Poissons Ratio (x) = 0.48218 0.31494
# Poissons Ratio (y) = 0.48218 0.31494
# Poissons Ratio (z) = 0.35149 0.35149
#
# Static dielectric constant tensor:
#      x y z
#    x 1.591720 0.000000 0.000000 
#    y 0.000000 1.591720 0.000000 
#    z 0.000000 0.000000 1.598980 
# 
# From -- ./inp_files/4561.got.cif
#   From: 2010.05.17/outbox.cif.g08.bks.cpg/sg123_3_cif.got.tgz:4561.got - 2010.05.20 11:43:04.
