data_PCOD9562165
_publ_section_title
;
Structure prediction by ZEFSAII (Michael W. Deem and Ramdas Pophale) SiO2 
 PCOD9562165
Probable space group: P 4/M M M
;
_chemical_formula_sum "Si O2"
_cell_formula_units_Z 96
_cell_length_a 24.996015
_cell_length_b 24.996015
_cell_length_c 7.889719
_cell_angle_alpha 90.000000
_cell_angle_beta 90.000000
_cell_angle_gamma 90.000000
_cell_volume 4929.502474
_symmetry_space_group_name_H-M "P 4/M M M"
_symmetry_group_IT_number 123
_symmetry_cell_setting 'tetragonal'
loop_
_space_group_symop_operation_xyz
x,y,z
-y,x,z
-x,-y,z
y,-x,z
x,-y,-z
-x,y,-z
y,x,-z
-y,-x,-z
-x,-y,-z
y,-x,-z
x,y,-z
-y,x,-z
-x,y,z
x,-y,z
-y,-x,z
y,x,z
loop_
_atom_site_type_symbol
_atom_site_label
_atom_site_fract_x
_atom_site_fract_y
_atom_site_fract_z
Si Si1 0.060146 0.853867 0.205275
Si Si2 0.939829 0.268942 0.700173
Si Si3 0.732878 0.648037 0.297601
Si Si4 0.645145 0.855536 0.197234
Si Si5 0.561963 0.059348 0.207118
Si Si6 0.561296 0.351445 0.707064
O O1 0.104652 0.895349 0.264730
O O2 0.068717 0.793974 0.270547
O O3 0.000000 0.870501 0.254380
O O4 0.061982 0.851991 0.000000
O O5 0.939350 0.279812 0.500000
O O6 0.892374 0.302628 0.781631
O O7 0.000000 0.281812 0.766333
O O8 0.727081 0.647676 0.500000
O O9 0.699610 0.699610 0.232820
O O10 0.795673 0.649939 0.263997
O O11 0.700839 0.595167 0.237225
O O12 0.598029 0.892471 0.272921
O O13 0.633468 0.849220 0.000000
O O14 0.500000 0.065387 0.253875
O O15 0.580383 0.000000 0.261852
O O16 0.564353 0.059376 0.000000
O O17 0.559904 0.351119 0.500000
O O18 0.500000 0.352389 0.766076
O O19 0.596918 0.403083 0.755996
#
# Coordination Sequence:
#
# PCOD9562165 Si02
#       6
#    16  16  16  16  16  16
#     4   9  18  33  53  77 104 132 163 201 245 294
#     4  10  21  36  53  73  99 131 165 203 249 299
#     4   9  19  35  50  66  96 136 170 201 245 300
#     4  11  21  32  52  78  99 125 166 211 250 290
#     4   8  15  29  48  71 100 129 154 186 234 290
#     4   8  14  26  46  72 101 133 168 207 252 299
#
# _framework density 19.474582999999999
#
# number of rings (size 3 to 8) (size 9 to 14) (size 15 to 20)
#    0.000    2.833    0.000    3.000    0.000    4.000 
#    0.000    1.667    0.000    1.500    0.000    8.167 
#    0.000    0.000    0.000    3.667    0.000    3.667 
#
# Total GULP energy -535288.177424 kJ/mol
# GULP energy per Si atom -5575.918515 kJ/mol
# Density = 1.943026 g / cm^3
# Si number density = 19.474583 Si / 1000 Ang^3
#
#
#
# Elastic Constant Matrix: (Units=GPa)
#
#
# Indices 1 2 3 4 5 6 
#
# 1 159.8458 102.0571 3.3024 0.0000 0.0000 0.0000
# 2 102.0571 159.8458 3.3024 0.0000 0.0000 0.0000
# 3 3.3024 3.3024 17.1168 0.0000 0.0000 0.0000
# 4 0.0000 0.0000 0.0000 3.4487 0.0000 0.0000
# 5 0.0000 0.0000 0.0000 0.0000 3.4487 0.0000
# 6 0.0000 0.0000 0.0000 0.0000 0.0000 44.9199
#
#
#
# Elastic Compliance Matrix: (Units=1/GPa)
#
#
# Indices 1 2 3 4 5 6 
#
# 1 0.010571 -0.006734 -0.000740 0.000000 0.000000 0.000000
# 2 -0.006734 0.010571 -0.000740 0.000000 0.000000 0.000000
# 3 -0.000740 -0.000740 0.058708 0.000000 0.000000 0.000000
# 4 0.000000 0.000000 0.000000 0.289962 0.000000 0.000000
# 5 0.000000 0.000000 0.000000 0.000000 0.289962 0.000000
# 6 0.000000 0.000000 0.000000 0.000000 0.000000 0.022262
#
#
# Mechanical properties :
#
#
# Convention : Reuss Voigt Hill
#
# Bulk Modulus (GPa) = 15.76780 61.57025 38.66902
# Shear Modulus (GPa) = 6.94826 25.57324 16.26075
#
# Velocity S-wave (km/s) = 1.89093 3.62769 2.89272
# Velocity P-wave (km/s) = 3.58910 7.01649 5.57283
#
# Compressibility (1/GPa) = 0.06342040
#
# Stress axis : x y z
#
# Youngs Moduli (GPa) = 94.60164 94.60164 17.03355
#
# Poissons Ratio (x) = 0.63703 0.01261
# Poissons Ratio (y) = 0.63703 0.01261
# Poissons Ratio (z) = 0.07003 0.07003
#
# Static dielectric constant tensor:
#      x y z
#    x 1.678540 0.000000 0.000000 
#    y 0.000000 1.678540 0.000000 
#    z 0.000000 0.000000 1.719440 
# 
# From -- ./inp_files/1584.got.cif
#   From: 2010.05.17/outbox.cif.g08.bks.cpg/sg123_1_cif.got.tgz:1584.got - 2010.05.20 11:43:04.
