data_PCOD9562276
_publ_section_title
;
Structure prediction by ZEFSAII (Michael W. Deem and Ramdas Pophale) SiO2 
 PCOD9562276
Probable space group: P 4/M M M
;
_chemical_formula_sum "Si O2"
_cell_formula_units_Z 104
_cell_length_a 27.156668
_cell_length_b 27.156668
_cell_length_c 7.532292
_cell_angle_alpha 90.000000
_cell_angle_beta 90.000000
_cell_angle_gamma 90.000000
_cell_volume 5554.949480
_symmetry_space_group_name_H-M "P 4/M M M"
_symmetry_group_IT_number 123
_symmetry_cell_setting 'tetragonal'
loop_
_space_group_symop_operation_xyz
x,y,z
-y,x,z
-x,-y,z
y,-x,z
x,-y,-z
-x,y,-z
y,x,-z
-y,-x,-z
-x,-y,-z
y,-x,-z
x,y,-z
-y,x,-z
-x,y,z
x,-y,z
-y,-x,z
y,x,z
loop_
_atom_site_type_symbol
_atom_site_label
_atom_site_fract_x
_atom_site_fract_y
_atom_site_fract_z
Si Si1 0.944846 0.248468 0.709010
Si Si2 0.055437 0.500000 0.783083
Si Si3 0.307636 0.852488 0.703748
Si Si4 0.239151 0.446258 0.787165
Si Si5 0.582958 0.870384 0.784458
Si Si6 0.945114 0.866263 0.785062
Si Si7 0.665288 0.256036 0.287450
O O1 0.946213 0.261535 0.500000
O O2 0.895770 0.274197 0.785212
O O3 0.938643 0.189849 0.725302
O O4 0.000000 0.260530 0.781462
O O5 0.085788 0.547799 0.728481
O O6 0.000000 0.500000 0.720573
O O7 0.055256 0.500000 0.000000
O O8 0.290608 0.845473 0.500000
O O9 0.362813 0.873471 0.707894
O O10 0.314971 0.797237 0.781693
O O11 0.257683 0.500000 0.722120
O O12 0.182132 0.440071 0.731350
O O13 0.262703 0.393203 0.743682
O O14 0.239854 0.448590 0.000000
O O15 0.586395 0.870246 0.000000
O O16 0.902921 0.902921 0.721506
O O17 0.000000 0.882417 0.730812
O O18 0.943882 0.865938 0.000000
O O19 0.670260 0.253607 0.500000
O O20 0.699561 0.300440 0.221788
#
# Coordination Sequence:
#
# PCOD9562276 Si02
#       7
#    16   8  16  16  16  16  16
#     4   9  18  32  48  65  87 117 153 190 227 271
#     4   9  16  26  41  61  85 113 147 189 234 275
#     4   9  18  31  46  64  87 119 154 188 232 276
#     4   9  16  28  47  67  88 118 153 187 226 270
#     4   9  16  28  44  62  85 113 149 190 228 269
#     4   9  18  32  49  69  91 112 136 171 216 267
#     4   9  18  31  45  65  94 123 153 191 231 273
#
# _framework density 18.722044
#
# number of rings (size 3 to 8) (size 9 to 14) (size 15 to 20)
#    0.000    3.000    0.769    0.000    0.000    2.923 
#    0.000    2.692    0.000    0.462    0.000    2.154 
#    0.000    0.308    0.000    3.385    0.000    2.462 
#
# Total GULP energy -579249.049422 kJ/mol
# GULP energy per Si atom -5569.702398 kJ/mol
# Density = 1.867943 g / cm^3
# Si number density = 18.722044 Si / 1000 Ang^3
#
#
#
# Elastic Constant Matrix: (Units=GPa)
#
#
# Indices 1 2 3 4 5 6 
#
# 1 119.2709 90.7944 2.7410 0.0000 0.0000 0.0000
# 2 90.7944 119.2709 2.7410 0.0000 0.0000 0.0000
# 3 2.7410 2.7410 46.0776 0.0000 0.0000 0.0000
# 4 0.0000 0.0000 0.0000 10.0479 0.0000 0.0000
# 5 0.0000 0.0000 0.0000 0.0000 10.0479 0.0000
# 6 0.0000 0.0000 0.0000 0.0000 0.0000 21.5084
#
#
#
# Elastic Compliance Matrix: (Units=1/GPa)
#
#
# Indices 1 2 3 4 5 6 
#
# 1 0.019942 -0.015174 -0.000284 0.000000 0.000000 0.000000
# 2 -0.015174 0.019942 -0.000284 0.000000 0.000000 0.000000
# 3 -0.000284 -0.000284 0.021736 0.000000 0.000000 0.000000
# 4 0.000000 0.000000 0.000000 0.099524 0.000000 0.000000
# 5 0.000000 0.000000 0.000000 0.000000 0.099524 0.000000
# 6 0.000000 0.000000 0.000000 0.000000 0.000000 0.046493
#
#
# Mechanical properties :
#
#
# Convention : Reuss Voigt Hill
#
# Bulk Modulus (GPa) = 33.18137 53.01917 43.10027
# Shear Modulus (GPa) = 14.33935 20.87702 17.60818
#
# Velocity S-wave (km/s) = 2.77051 3.34294 3.07009
# Velocity P-wave (km/s) = 5.29111 6.57882 5.96979
#
# Compressibility (1/GPa) = 0.03013739
#
# Stress axis : x y z
#
# Youngs Moduli (GPa) = 50.14481 50.14481 46.00610
#
# Poissons Ratio (x) = 0.76092 0.01305
# Poissons Ratio (y) = 0.76092 0.01305
# Poissons Ratio (z) = 0.01422 0.01422
#
# Static dielectric constant tensor:
#      x y z
#    x 1.649950 0.000000 0.000000 
#    y 0.000000 1.649950 0.000000 
#    z 0.000000 0.000000 1.718400 
# 
# From -- ./inp_files/1963.got.cif
#   From: 2010.05.17/outbox.cif.g08.bks.cpg/sg123_1_cif.got.tgz:1963.got - 2010.05.20 11:43:04.
