data_PCOD9562652
_publ_section_title
;
Structure prediction by ZEFSAII (Michael W. Deem and Ramdas Pophale) SiO2 
 PCOD9562652
Probable space group: P 4/M C C
;
_chemical_formula_sum "Si O2"
_cell_formula_units_Z 40
_cell_length_a 14.773621
_cell_length_b 14.773621
_cell_length_c 9.628752
_cell_angle_alpha 90.000000
_cell_angle_beta 90.000000
_cell_angle_gamma 90.000000
_cell_volume 2101.570232
_symmetry_space_group_name_H-M "P 4/M C C"
_symmetry_group_IT_number 124
_symmetry_cell_setting 'tetragonal'
loop_
_space_group_symop_operation_xyz
x,y,z
-y,x,z
-x,-y,z
y,-x,z
x,-y,1/2-z
-x,y,1/2-z
y,x,1/2-z
-y,-x,1/2-z
-x,-y,-z
y,-x,-z
x,y,-z
-y,x,-z
-x,y,1/2+z
x,-y,1/2+z
-y,-x,1/2+z
y,x,1/2+z
loop_
_atom_site_type_symbol
_atom_site_label
_atom_site_fract_x
_atom_site_fract_y
_atom_site_fract_z
Si Si1 0.878118 0.500000 0.750000
Si Si2 0.378590 0.936891 0.500000
Si Si3 0.390448 0.609553 0.250000
Si Si4 0.731593 0.315949 0.000000
Si Si5 0.373025 0.146473 0.500000
O O1 0.929966 0.563589 0.641139
O O2 0.831100 0.433309 0.637400
O O3 0.329294 0.839516 0.500000
O O4 0.345522 0.040619 0.500000
O O5 0.378391 0.500000 0.250000
O O6 0.323780 0.640758 0.127051
O O7 0.712644 0.209724 0.000000
#
# Coordination Sequence:
#
# PCOD9562652 Si02
#       5
#     8   8   8   8   8
#     4  10  21  36  60  82 111 148 183 246 300 334
#     4  11  22  38  57  86 116 145 193 242 296 342
#     4  11  26  44  56  80 122 163 204 234 268 343
#     4  12  26  35  64  87 110 164 194 242 288 342
#     4  11  22  38  57  86 116 145 193 242 296 342
#
# _framework density 19.033387000000001
#
# number of rings (size 3 to 8) (size 9 to 14) (size 15 to 20)
#    0.000    1.000    0.000    8.400   16.800    1.600 
#    0.000    0.000    0.000    0.600    0.000    0.000 
#    0.000    9.600    0.000    0.000    0.000   10.800 
#
# Total GULP energy -222740.672615 kJ/mol
# GULP energy per Si atom -5568.516815 kJ/mol
# Density = 1.899007 g / cm^3
# Si number density = 19.033387 Si / 1000 Ang^3
#
#
#
# Elastic Constant Matrix: (Units=GPa)
#
#
# Indices 1 2 3 4 5 6 
#
# 1 151.6999 95.6201 40.5494 0.0000 0.0000 0.0000
# 2 95.6201 151.6983 40.5497 0.0000 0.0000 0.0000
# 3 40.5494 40.5497 155.5925 0.0000 0.0000 0.0000
# 4 0.0000 0.0000 0.0000 7.2340 0.0000 0.0000
# 5 0.0000 0.0000 0.0000 0.0000 7.2233 0.0000
# 6 0.0000 0.0000 0.0000 0.0000 0.0000 39.8005
#
#
#
# Elastic Compliance Matrix: (Units=1/GPa)
#
#
# Indices 1 2 3 4 5 6 
#
# 1 0.011127 -0.006705 -0.001152 0.000000 0.000000 0.000000
# 2 -0.006705 0.011127 -0.001152 0.000000 0.000000 0.000000
# 3 -0.001152 -0.001152 0.007028 0.000000 0.000000 0.000000
# 4 0.000000 0.000000 0.000000 0.138236 0.000000 0.000000
# 5 0.000000 0.000000 0.000000 0.000000 0.138442 0.000000
# 6 0.000000 0.000000 0.000000 0.000000 0.000000 0.025125
#
#
# Mechanical properties :
#
#
# Convention : Reuss Voigt Hill
#
# Bulk Modulus (GPa) = 88.80128 90.26990 89.53559
# Shear Modulus (GPa) = 14.17004 29.66966 21.91985
#
# Velocity S-wave (km/s) = 2.73148 3.95248 3.39728
# Velocity P-wave (km/s) = 7.53026 8.26798 7.90773
#
# Compressibility (1/GPa) = 0.01126110
#
# Stress axis : x y z
#
# Youngs Moduli (GPa) = 89.87542 89.87432 142.29580
#
# Poissons Ratio (x) = 0.60264 0.16395
# Poissons Ratio (y) = 0.60265 0.16396
# Poissons Ratio (z) = 0.10355 0.10356
#
# Static dielectric constant tensor:
#      x y z
#    x 1.714020 0.000000 0.000000 
#    y 0.000000 1.714030 0.000000 
#    z 0.000000 0.000000 1.871300 
# 
# From -- ./inp_files/388.got.cif
#   From: 2010.05.17/outbox.cif.g08.bks.cpg/sg124_1_cif.got.tgz:388.got - 2010.05.20 11:49:17.
