data_PCOD9562566
_publ_section_title
;
Structure prediction by ZEFSAII (Michael W. Deem and Ramdas Pophale) SiO2 
 PCOD9562566
Probable space group: P 4/M C C
;
_chemical_formula_sum "Si O2"
_cell_formula_units_Z 96
_cell_length_a 24.136273
_cell_length_b 24.136273
_cell_length_c 8.607434
_cell_angle_alpha 90.000000
_cell_angle_beta 90.000000
_cell_angle_gamma 90.000000
_cell_volume 5014.343948
_symmetry_space_group_name_H-M "P 4/M C C"
_symmetry_group_IT_number 124
_symmetry_cell_setting 'tetragonal'
loop_
_space_group_symop_operation_xyz
x,y,z
-y,x,z
-x,-y,z
y,-x,z
x,-y,1/2-z
-x,y,1/2-z
y,x,1/2-z
-y,-x,1/2-z
-x,-y,-z
y,-x,-z
x,y,-z
-y,x,-z
-x,y,1/2+z
x,-y,1/2+z
-y,-x,1/2+z
y,x,1/2+z
loop_
_atom_site_type_symbol
_atom_site_label
_atom_site_fract_x
_atom_site_fract_y
_atom_site_fract_z
Si Si1 0.290078 0.059168 0.322564
Si Si2 0.649326 0.563421 0.811999
Si Si3 0.247579 0.357221 0.820499
Si Si4 0.822304 0.257954 0.816892
Si Si5 0.941459 0.576071 0.179122
Si Si6 0.443473 0.172464 0.818971
O O1 0.271211 0.060963 0.500000
O O2 0.271767 0.116107 0.241760
O O3 0.357029 0.059707 0.321116
O O4 0.272877 0.000000 0.250000
O O5 0.655396 0.500000 0.750000
O O6 0.593494 0.593494 0.750000
O O7 0.699660 0.605928 0.764484
O O8 0.649277 0.561427 0.000000
O O9 0.223301 0.304292 0.732304
O O10 0.196261 0.398106 0.796729
O O11 0.257421 0.342784 0.000000
O O12 0.799343 0.200658 0.750000
O O13 0.823285 0.256445 0.000000
O O14 0.893001 0.557090 0.293357
O O15 0.000000 0.559704 0.250000
O O16 0.933447 0.557703 0.000000
O O17 0.500000 0.195971 0.750000
O O18 0.434681 0.186499 0.000000
#
# Coordination Sequence:
#
# PCOD9562566 Si02
#       6
#    16  16  16  16  16  16
#     4  10  20  36  59  85 119 158 201 247 297 354
#     4  11  25  44  68  93 120 149 186 231 287 353
#     4  11  23  41  62  88 119 153 192 238 292 354
#     4  12  24  38  60  90 125 163 204 249 297 349
#     4  10  20  35  55  77 107 143 189 241 292 347
#     4  12  24  37  55  78 108 147 193 242 293 347
#
# _framework density 19.145076
#
# number of rings (size 3 to 8) (size 9 to 14) (size 15 to 20)
#    0.000    1.000    1.667    6.000    0.000    7.167 
#    0.000    2.500    0.000    0.000    0.000    0.000 
#    0.000    0.333    0.000    3.333    0.000    2.000 
#
# Total GULP energy -536089.261708 kJ/mol
# GULP energy per Si atom -5584.263143 kJ/mol
# Density = 1.910150 g / cm^3
# Si number density = 19.145076 Si / 1000 Ang^3
#
#
#
# Elastic Constant Matrix: (Units=GPa)
#
#
# Indices 1 2 3 4 5 6 
#
# 1 94.4770 61.1830 41.6219 0.0000 0.0000 0.0000
# 2 61.1830 94.4856 41.6216 0.0000 0.0000 0.0000
# 3 41.6219 41.6216 126.4927 0.0000 0.0000 0.0000
# 4 0.0000 0.0000 0.0000 95.9092 0.0000 0.0000
# 5 0.0000 0.0000 0.0000 0.0000 95.7921 0.0000
# 6 0.0000 0.0000 0.0000 0.0000 0.0000 -11.0180
#
#
#
# Elastic Compliance Matrix: (Units=1/GPa)
#
#
# Indices 1 2 3 4 5 6 
#
# 1 0.018915 -0.011118 -0.002566 0.000000 0.000000 0.000000
# 2 -0.011118 0.018913 -0.002565 0.000000 0.000000 0.000000
# 3 -0.002566 -0.002565 0.009594 0.000000 0.000000 0.000000
# 4 0.000000 0.000000 0.000000 0.010427 0.000000 0.000000
# 5 0.000000 0.000000 0.000000 0.000000 0.010439 0.000000
# 6 0.000000 0.000000 0.000000 0.000000 0.000000 -0.090760
#
#
# Mechanical properties :
#
#
# Convention : Reuss Voigt Hill
#
# Bulk Modulus (GPa) = 67.00313 67.14537 67.07425
# Shear Modulus (GPa) = 333.38113 47.53858 190.45985
#
# Velocity S-wave (km/s) = 13.21031 4.98845 9.98491
# Velocity P-wave (km/s) = 16.36327 8.26604 12.96310
#
# Compressibility (1/GPa) = 0.01492468
#
# Stress axis : x y z
#
# Youngs Moduli (GPa) = 52.86884 52.87460 104.23498
#
# Poissons Ratio (x) = 0.58785 0.26742
# Poissons Ratio (y) = 0.58779 0.26734
# Poissons Ratio (z) = 0.13564 0.13561
#
# Static dielectric constant tensor:
#      x y z
#    x 1.746970 0.000000 0.000000 
#    y 0.000000 1.746950 0.000000 
#    z 0.000000 0.000000 1.658680 
# 
# From -- ./inp_files/1318.got.cif
#   From: 2010.05.17/outbox.cif.g08.bks.cpg/sg124_1_cif.got.tgz:1318.got - 2010.05.20 11:49:17.
