data_PCOD9562227
_publ_section_title
;
Structure prediction by ZEFSAII (Michael W. Deem and Ramdas Pophale) SiO2 
 PCOD9562227
Probable space group: P 4/M M M
;
_chemical_formula_sum "Si O2"
_cell_formula_units_Z 120
_cell_length_a 28.867934
_cell_length_b 28.867934
_cell_length_c 7.670101
_cell_angle_alpha 90.000000
_cell_angle_beta 90.000000
_cell_angle_gamma 90.000000
_cell_volume 6391.937064
_symmetry_space_group_name_H-M "P 4/M M M"
_symmetry_group_IT_number 123
_symmetry_cell_setting 'tetragonal'
loop_
_space_group_symop_operation_xyz
x,y,z
-y,x,z
-x,-y,z
y,-x,z
x,-y,-z
-x,y,-z
y,x,-z
-y,-x,-z
-x,-y,-z
y,-x,-z
x,y,-z
-y,x,-z
-x,y,z
x,-y,z
-y,-x,z
y,x,z
loop_
_atom_site_type_symbol
_atom_site_label
_atom_site_fract_x
_atom_site_fract_y
_atom_site_fract_z
Si Si1 0.873248 0.201557 0.289342
Si Si2 0.632938 0.444845 0.000000
Si Si3 0.390165 0.313081 0.707943
Si Si4 0.132350 0.308255 0.201739
Si Si5 0.552952 0.127236 0.714288
Si Si6 0.127763 0.052682 0.287013
Si Si7 0.624300 0.948141 0.293803
Si Si8 0.207534 0.379859 0.705199
O O1 0.873444 0.202181 0.500000
O O2 0.829862 0.170139 0.233223
O O3 0.869359 0.253666 0.227765
O O4 0.919258 0.173735 0.233571
O O5 0.662110 0.428018 0.169755
O O6 0.625834 0.500000 0.000000
O O7 0.585430 0.414571 0.000000
O O8 0.402036 0.313955 0.500000
O O9 0.343430 0.343430 0.727649
O O10 0.381576 0.260186 0.769033
O O11 0.085884 0.331866 0.275254
O O12 0.178616 0.332318 0.275833
O O13 0.132731 0.319673 0.000000
O O14 0.554128 0.127349 0.500000
O O15 0.500000 0.127204 0.768482
O O16 0.581181 0.082030 0.774654
O O17 0.580753 0.172739 0.775014
O O18 0.127553 0.052050 0.500000
O O19 0.083756 0.083756 0.233794
O O20 0.126258 0.000000 0.226252
O O21 0.616572 0.952844 0.500000
O O22 0.629707 0.000000 0.221240
O O23 0.211670 0.388499 0.500000
#
# Coordination Sequence:
#
# PCOD9562227 Si02
#       8
#    16   8  16  16  16  16  16  16
#     4   9  18  33  50  68  95 130 167 203 240 293
#     4  10  22  39  60  88 122 158 197 241 283 331
#     4   9  19  36  58  84 116 154 194 237 283 333
#     4  11  22  33  49  73 102 132 167 215 266 318
#     4   8  14  26  46  73 100 123 156 207 258 304
#     4   8  14  25  43  68  95 122 153 193 244 302
#     4   9  18  33  51  69  93 129 171 212 256 309
#     4   9  18  33  53  76 105 139 176 216 264 322
#
# _framework density 18.773651999999998
#
# number of rings (size 3 to 8) (size 9 to 14) (size 15 to 20)
#    0.000    2.933    0.000    2.800    0.933    2.867 
#    0.000    6.000    0.000    3.600    0.000    5.600 
#    0.000    0.000    0.000    2.933    0.000    2.933 
#
# Total GULP energy -668767.173025 kJ/mol
# GULP energy per Si atom -5573.059775 kJ/mol
# Density = 1.873092 g / cm^3
# Si number density = 18.773652 Si / 1000 Ang^3
#
#
#
# Elastic Constant Matrix: (Units=GPa)
#
#
# Indices 1 2 3 4 5 6 
#
# 1 172.5408 79.6190 16.7514 0.0000 0.0000 0.0000
# 2 79.6190 172.5416 16.7514 0.0000 0.0000 0.0000
# 3 16.7514 16.7514 41.2563 0.0000 0.0000 0.0000
# 4 0.0000 0.0000 0.0000 -6.7735 0.0000 0.0000
# 5 0.0000 0.0000 0.0000 0.0000 -6.7732 0.0000
# 6 0.0000 0.0000 0.0000 0.0000 0.0000 10.3827
#
#
#
# Elastic Compliance Matrix: (Units=1/GPa)
#
#
# Indices 1 2 3 4 5 6 
#
# 1 0.007477 -0.003285 -0.001702 0.000000 0.000000 0.000000
# 2 -0.003285 0.007477 -0.001702 0.000000 0.000000 0.000000
# 3 -0.001702 -0.001702 0.025621 0.000000 0.000000 0.000000
# 4 0.000000 0.000000 0.000000 -0.147635 0.000000 0.000000
# 5 0.000000 0.000000 0.000000 0.000000 -0.147640 0.000000
# 6 0.000000 0.000000 0.000000 0.000000 0.000000 0.096314
#
#
# Mechanical properties :
#
#
# Convention : Reuss Voigt Hill
#
# Bulk Modulus (GPa) = 36.76946 68.06469 52.41708
# Shear Modulus (GPa) = -36.78025 17.58165 -9.59930
#
# Velocity S-wave (km/s) = -4.43102 3.06356 -2.26369
# Velocity P-wave (km/s) = 2.55938 6.98913 4.59878
#
# Compressibility (1/GPa) = 0.02719648
#
# Stress axis : x y z
#
# Youngs Moduli (GPa) = 133.74707 133.74766 39.03068
#
# Poissons Ratio (x) = 0.43935 0.06643
# Poissons Ratio (y) = 0.43935 0.06643
# Poissons Ratio (z) = 0.22764 0.22764
#
# Static dielectric constant tensor:
#      x y z
#    x 1.626620 0.000000 0.000000 
#    y 0.000000 1.626620 0.000000 
#    z 0.000000 0.000000 1.691020 
# 
# From -- ./inp_files/2000.got.cif
#   From: 2010.05.17/outbox.cif.g08.bks.cpg/sg123_1_cif.got.tgz:2000.got - 2010.05.20 11:43:04.
