data_PCOD9562190
_publ_section_title
;
Structure prediction by ZEFSAII (Michael W. Deem and Ramdas Pophale) SiO2 
 PCOD9562190
Probable space group: P 4/M M M
;
_chemical_formula_sum "Si O2"
_cell_formula_units_Z 58
_cell_length_a 12.430748
_cell_length_b 12.430748
_cell_length_c 21.423234
_cell_angle_alpha 90.000000
_cell_angle_beta 90.000000
_cell_angle_gamma 90.000000
_cell_volume 3310.393010
_symmetry_space_group_name_H-M "P 4/M M M"
_symmetry_group_IT_number 123
_symmetry_cell_setting 'tetragonal'
loop_
_space_group_symop_operation_xyz
x,y,z
-y,x,z
-x,-y,z
y,-x,z
x,-y,-z
-x,y,-z
y,x,-z
-y,-x,-z
-x,-y,-z
y,-x,-z
x,y,-z
-y,x,-z
-x,y,z
x,-y,z
-y,-x,z
y,x,z
loop_
_atom_site_type_symbol
_atom_site_label
_atom_site_fract_x
_atom_site_fract_y
_atom_site_fract_z
Si Si1 0.500000 0.761345 0.704386
Si Si2 0.196764 0.628216 0.500000
Si Si3 0.125116 0.300901 0.364772
Si Si4 0.500000 0.500000 0.693962
Si Si5 0.875870 0.302582 0.928349
Si Si6 0.500000 0.873756 0.164610
O O1 0.604677 0.815180 0.672881
O O2 0.500000 0.633769 0.694686
O O3 0.500000 0.795474 0.776693
O O4 0.207021 0.500000 0.500000
O O5 0.312708 0.687293 0.500000
O O6 0.137046 0.666975 0.562336
O O7 0.190746 0.190746 0.354967
O O8 0.000000 0.293897 0.347829
O O9 0.795248 0.204753 0.918394
O O10 0.856482 0.396601 0.879070
O O11 0.000000 0.268136 0.922447
O O12 0.861664 0.341869 0.000000
O O13 0.500000 0.000000 0.184782
#
# Coordination Sequence:
#
# PCOD9562190 Si02
#       6
#     8   8  16   2  16   8
#     4  12  24  42  61  86 116 154 194 244 296 352
#     4  10  21  36  56  88 118 156 197 242 295 349
#     4  11  23  40  62  88 119 154 196 241 293 352
#     4  12  28  44  60  85 125 148 188 248 298 348
#     4   9  18  33  54  81 112 145 184 230 277 330
#     4  10  21  36  57  81 109 150 192 228 276 338
#
# _framework density 17.520579999999999
#
# number of rings (size 3 to 8) (size 9 to 14) (size 15 to 20)
#    0.000    1.655    2.759    2.069    1.931    2.897 
#    0.000    1.379    0.000    2.483    0.000    6.759 
#    0.000    0.000    0.000    0.000    0.000    0.000 
#
# Total GULP energy -323318.862964 kJ/mol
# GULP energy per Si atom -5574.463155 kJ/mol
# Density = 1.748070 g / cm^3
# Si number density = 17.520580 Si / 1000 Ang^3
#
#
#
# Elastic Constant Matrix: (Units=GPa)
#
#
# Indices 1 2 3 4 5 6 
#
# 1 153.8635 81.4542 50.0746 0.0000 0.0000 0.0000
# 2 81.4542 153.8641 50.0750 0.0000 0.0000 0.0000
# 3 50.0746 50.0750 78.6127 0.0000 0.0000 0.0000
# 4 0.0000 0.0000 0.0000 6.8975 0.0000 0.0000
# 5 0.0000 0.0000 0.0000 0.0000 6.8973 0.0000
# 6 0.0000 0.0000 0.0000 0.0000 0.0000 20.4901
#
#
#
# Elastic Compliance Matrix: (Units=1/GPa)
#
#
# Indices 1 2 3 4 5 6 
#
# 1 0.009820 -0.003990 -0.003714 0.000000 0.000000 0.000000
# 2 -0.003990 0.009820 -0.003714 0.000000 0.000000 0.000000
# 3 -0.003714 -0.003714 0.017452 0.000000 0.000000 0.000000
# 4 0.000000 0.000000 0.000000 0.144979 0.000000 0.000000
# 5 0.000000 0.000000 0.000000 0.000000 0.144985 0.000000
# 6 0.000000 0.000000 0.000000 0.000000 0.000000 0.048804
#
#
# Mechanical properties :
#
#
# Convention : Reuss Voigt Hill
#
# Bulk Modulus (GPa) = 70.14002 83.28309 76.71156
# Shear Modulus (GPa) = 12.39319 20.50609 16.44964
#
# Velocity S-wave (km/s) = 2.66249 3.42482 3.06743
# Velocity P-wave (km/s) = 7.04071 7.95467 7.51161
#
# Compressibility (1/GPa) = 0.01425720
#
# Stress axis : x y z
#
# Youngs Moduli (GPa) = 101.83094 101.83101 57.30125
#
# Poissons Ratio (x) = 0.40632 0.21279
# Poissons Ratio (y) = 0.40632 0.21280
# Poissons Ratio (z) = 0.37816 0.37817
#
# Static dielectric constant tensor:
#      x y z
#    x 1.572860 0.000000 0.000000 
#    y 0.000000 1.572860 0.000000 
#    z 0.000000 0.000000 1.606710 
# 
# From -- ./inp_files/6201.got.cif
#   From: 2010.05.17/outbox.cif.g08.bks.cpg/sg123_4_cif.got.tgz:6201.got - 2010.05.20 11:43:04.
