data_PCOD9562108
_publ_section_title
;
Structure prediction by ZEFSAII (Michael W. Deem and Ramdas Pophale) SiO2 
 PCOD9562108
Probable space group: P 4/M M M
;
_chemical_formula_sum "Si O2"
_cell_formula_units_Z 120
_cell_length_a 18.281879
_cell_length_b 18.281879
_cell_length_c 19.811036
_cell_angle_alpha 90.000000
_cell_angle_beta 90.000000
_cell_angle_gamma 90.000000
_cell_volume 6621.385106
_symmetry_space_group_name_H-M "P 4/M M M"
_symmetry_group_IT_number 123
_symmetry_cell_setting 'tetragonal'
loop_
_space_group_symop_operation_xyz
x,y,z
-y,x,z
-x,-y,z
y,-x,z
x,-y,-z
-x,y,-z
y,x,-z
-y,-x,-z
-x,-y,-z
y,-x,-z
x,y,-z
-y,x,-z
-x,y,z
x,-y,z
-y,-x,z
y,x,z
loop_
_atom_site_type_symbol
_atom_site_label
_atom_site_fract_x
_atom_site_fract_y
_atom_site_fract_z
Si Si1 0.205354 0.084946 0.205604
Si Si2 0.916262 0.296994 0.922052
Si Si3 0.707661 0.413441 0.215536
Si Si4 0.154905 0.346886 0.578306
Si Si5 0.789370 0.414504 0.922516
Si Si6 0.421391 0.305607 0.580196
Si Si7 0.418456 0.000000 0.581333
Si Si8 0.695706 0.186892 0.719811
O O1 0.136661 0.136661 0.222235
O O2 0.229593 0.095132 0.128058
O O3 0.277557 0.112710 0.245559
O O4 0.190589 0.000000 0.218800
O O5 0.857366 0.360607 0.909683
O O6 0.000000 0.323145 0.911393
O O7 0.909127 0.275026 0.000000
O O8 0.697580 0.500000 0.227119
O O9 0.636070 0.363931 0.229459
O O10 0.731105 0.402799 0.137035
O O11 0.776282 0.381160 0.259181
O O12 0.155387 0.320530 0.500000
O O13 0.219291 0.406872 0.583195
O O14 0.075384 0.377799 0.596430
O O15 0.176595 0.295147 0.639784
O O16 0.811631 0.500000 0.918666
O O17 0.763618 0.401505 0.000000
O O18 0.424623 0.320444 0.500000
O O19 0.500000 0.325300 0.610084
O O20 0.353901 0.353901 0.607283
O O21 0.500000 0.000000 0.610289
O O22 0.424371 0.000000 0.500000
O O23 0.752949 0.247051 0.745664
#
# Coordination Sequence:
#
# PCOD9562108 Si02
#       8
#    16  16  16  16  16  16   8  16
#     4  10  21  37  57  81 111 145 180 220 265 317
#     4   9  17  30  51  80 114 150 186 222 261 313
#     4  10  21  37  55  78 109 144 186 232 279 329
#     4  10  20  34  54  77 104 137 172 215 266 323
#     4   9  17  30  50  76 107 145 188 232 276 322
#     4   9  17  29  46  69  97 129 166 208 253 304
#     4   9  18  32  50  74 102 132 166 206 254 313
#     4  10  21  37  57  79 106 139 175 222 272 320
#
# _framework density 18.123097000000001
#
# number of rings (size 3 to 8) (size 9 to 14) (size 15 to 20)
#    0.000    2.467    1.333    0.800    0.933    4.667 
#    0.000    3.333    0.000    0.000    0.000    5.600 
#    0.000    0.000    0.000    2.933    0.000    0.000 
#
# Total GULP energy -668036.486459 kJ/mol
# GULP energy per Si atom -5566.970720 kJ/mol
# Density = 1.808185 g / cm^3
# Si number density = 18.123097 Si / 1000 Ang^3
#
#
#
# Elastic Constant Matrix: (Units=GPa)
#
#
# Indices 1 2 3 4 5 6 
#
# 1 90.5346 60.3826 24.2769 0.0000 0.0000 0.0000
# 2 60.3826 90.5346 24.2769 0.0000 0.0000 0.0000
# 3 24.2769 24.2769 81.3195 0.0000 0.0000 0.0000
# 4 0.0000 0.0000 0.0000 12.3887 0.0000 0.0000
# 5 0.0000 0.0000 0.0000 0.0000 12.3887 0.0000
# 6 0.0000 0.0000 0.0000 0.0000 0.0000 -78.1422
#
#
#
# Elastic Compliance Matrix: (Units=1/GPa)
#
#
# Indices 1 2 3 4 5 6 
#
# 1 0.020248 -0.012918 -0.002188 0.000000 0.000000 0.000000
# 2 -0.012918 0.020248 -0.002188 0.000000 0.000000 0.000000
# 3 -0.002188 -0.002188 0.013604 0.000000 0.000000 0.000000
# 4 0.000000 0.000000 0.000000 0.080719 0.000000 0.000000
# 5 0.000000 0.000000 0.000000 0.000000 0.080719 0.000000
# 6 0.000000 0.000000 0.000000 0.000000 0.000000 -0.012797
#
#
# Mechanical properties :
#
#
# Convention : Reuss Voigt Hill
#
# Bulk Modulus (GPa) = 51.25363 53.36239 52.30801
# Shear Modulus (GPa) = 20.50598 -0.44281 10.03158
#
# Velocity S-wave (km/s) = 3.36740 -0.49484 2.35526
# Velocity P-wave (km/s) = 6.59253 5.40202 6.02674
#
# Compressibility (1/GPa) = 0.01951081
#
# Stress axis : x y z
#
# Youngs Moduli (GPa) = 49.38822 49.38822 73.50897
#
# Poissons Ratio (x) = 0.63797 0.16086
# Poissons Ratio (y) = 0.63797 0.16086
# Poissons Ratio (z) = 0.10808 0.10808
#
# Static dielectric constant tensor:
#      x y z
#    x 1.569110 0.000000 0.000000 
#    y 0.000000 1.569110 0.000000 
#    z 0.000000 0.000000 1.671330 
# 
# From -- ./inp_files/6840.got.cif
#   From: 2010.05.17/outbox.cif.g08.bks.cpg/sg123_4_cif.got.tgz:6840.got - 2010.05.20 11:43:04.
