data_PCOD9562359
_publ_section_title
;
Structure prediction by ZEFSAII (Michael W. Deem and Ramdas Pophale) SiO2 
 PCOD9562359
Probable space group: P 4/M C C
;
_chemical_formula_sum "Si O2"
_cell_formula_units_Z 96
_cell_length_a 15.608606
_cell_length_b 15.608606
_cell_length_c 20.497660
_cell_angle_alpha 90.000000
_cell_angle_beta 90.000000
_cell_angle_gamma 90.000000
_cell_volume 4993.815825
_symmetry_space_group_name_H-M "P 4/M C C"
_symmetry_group_IT_number 124
_symmetry_cell_setting 'tetragonal'
loop_
_space_group_symop_operation_xyz
x,y,z
-y,x,z
-x,-y,z
y,-x,z
x,-y,1/2-z
-x,y,1/2-z
y,x,1/2-z
-y,-x,1/2-z
-x,-y,-z
y,-x,-z
x,y,-z
-y,x,-z
-x,y,1/2+z
x,-y,1/2+z
-y,-x,1/2+z
y,x,1/2+z
loop_
_atom_site_type_symbol
_atom_site_label
_atom_site_fract_x
_atom_site_fract_y
_atom_site_fract_z
Si Si1 0.791660 0.086063 0.712759
Si Si2 0.472961 0.640943 0.929621
Si Si3 0.049537 0.136127 0.572265
Si Si4 0.218787 0.353032 0.314030
Si Si5 0.250448 0.615140 0.671728
Si Si6 0.495211 0.901575 0.170840
O O1 0.873431 0.126570 0.750000
O O2 0.810534 0.070116 0.636605
O O3 0.715564 0.153282 0.716286
O O4 0.767940 0.000000 0.750000
O O5 0.404140 0.564478 0.927743
O O6 0.455635 0.698261 0.868081
O O7 0.463932 0.685863 0.000000
O O8 0.063967 0.175123 0.500000
O O9 0.950910 0.105437 0.575453
O O10 0.293584 0.294823 0.346543
O O11 0.259911 0.395267 0.249445
O O12 0.158832 0.423549 0.349204
O O13 0.151229 0.592115 0.655604
O O14 0.500000 0.905611 0.250000
O O15 0.500000 0.000000 0.147169
#
# Coordination Sequence:
#
# PCOD9562359 Si02
#       6
#    16  16  16  16  16  16
#     4  12  22  33  55  81 115 146 190 250 299 361
#     4   9  18  33  56  85 114 149 193 238 295 367
#     4   9  18  33  51  74 107 145 187 236 300 371
#     4  10  22  34  52  84 112 145 190 240 294 352
#     4  10  18  34  54  78 113 140 186 244 288 338
#     4   9  19  33  54  77 109 154 189 219 289 368
#
# _framework density 19.223776000000001
#
# number of rings (size 3 to 8) (size 9 to 14) (size 15 to 20)
#    0.000    2.167    3.333    2.000    4.667    1.500 
#    0.000    0.833    0.000    6.500    0.000    0.000 
#    0.000    0.000    0.000    0.000    0.000    0.000 
#
# Total GULP energy -534471.499518 kJ/mol
# GULP energy per Si atom -5567.411453 kJ/mol
# Density = 1.918002 g / cm^3
# Si number density = 19.223776 Si / 1000 Ang^3
#
#
#
# Elastic Constant Matrix: (Units=GPa)
#
#
# Indices 1 2 3 4 5 6 
#
# 1 83.8340 44.6102 18.9888 0.0000 0.0000 0.0000
# 2 44.6102 83.8357 18.9890 0.0000 0.0000 0.0000
# 3 18.9888 18.9890 101.4004 0.0000 0.0000 0.0000
# 4 0.0000 0.0000 0.0000 10.5605 0.0000 0.0000
# 5 0.0000 0.0000 0.0000 0.0000 10.5605 0.0000
# 6 0.0000 0.0000 0.0000 0.0000 0.0000 28.5535
#
#
#
# Elastic Compliance Matrix: (Units=1/GPa)
#
#
# Indices 1 2 3 4 5 6 
#
# 1 0.016868 -0.008626 -0.001543 0.000000 0.000000 0.000000
# 2 -0.008626 0.016868 -0.001543 0.000000 0.000000 0.000000
# 3 -0.001543 -0.001543 0.010440 0.000000 0.000000 0.000000
# 4 0.000000 0.000000 0.000000 0.094692 0.000000 0.000000
# 5 0.000000 0.000000 0.000000 0.000000 0.094693 0.000000
# 6 0.000000 0.000000 0.000000 0.000000 0.000000 0.035022
#
#
# Mechanical properties :
#
#
# Convention : Reuss Voigt Hill
#
# Bulk Modulus (GPa) = 48.19305 48.24954 48.22130
# Shear Modulus (GPa) = 16.72655 22.36703 19.54679
#
# Velocity S-wave (km/s) = 2.95294 3.41472 3.19219
# Velocity P-wave (km/s) = 6.06221 6.37969 6.22298
#
# Compressibility (1/GPa) = 0.02074988
#
# Stress axis : x y z
#
# Youngs Moduli (GPa) = 59.28337 59.28454 95.78590
#
# Poissons Ratio (x) = 0.51140 0.14784
# Poissons Ratio (y) = 0.51139 0.14784
# Poissons Ratio (z) = 0.09150 0.09150
#
# Static dielectric constant tensor:
#      x y z
#    x 1.708770 0.000000 0.000000 
#    y 0.000000 1.708770 0.000000 
#    z 0.000000 0.000000 1.660690 
# 
# From -- ./inp_files/5333.got.cif
#   From: 2010.05.17/outbox.cif.g08.bks.cpg/sg124_3_cif.got.tgz:5333.got - 2010.05.20 11:49:17.
