data_PCOD9562325
_publ_section_title
;
Structure prediction by ZEFSAII (Michael W. Deem and Ramdas Pophale) SiO2 
 PCOD9562325
Probable space group: P 4/M C C
;
_chemical_formula_sum "Si O2"
_cell_formula_units_Z 88
_cell_length_a 17.851353
_cell_length_b 17.851353
_cell_length_c 15.080480
_cell_angle_alpha 90.000000
_cell_angle_beta 90.000000
_cell_angle_gamma 90.000000
_cell_volume 4805.708685
_symmetry_space_group_name_H-M "P 4/M C C"
_symmetry_group_IT_number 124
_symmetry_cell_setting 'tetragonal'
loop_
_space_group_symop_operation_xyz
x,y,z
-y,x,z
-x,-y,z
y,-x,z
x,-y,1/2-z
-x,y,1/2-z
y,x,1/2-z
-y,-x,1/2-z
-x,-y,-z
y,-x,-z
x,y,-z
-y,x,-z
-x,y,1/2+z
x,-y,1/2+z
-y,-x,1/2+z
y,x,1/2+z
loop_
_atom_site_type_symbol
_atom_site_label
_atom_site_fract_x
_atom_site_fract_y
_atom_site_fract_z
Si Si1 0.193434 0.664393 0.000000
Si Si2 0.705837 0.078971 0.850158
Si Si3 0.530244 0.923221 0.651476
Si Si4 0.257378 0.091139 0.854827
Si Si5 0.202598 0.688207 0.500000
Si Si6 0.903046 0.068309 0.393327
Si Si7 0.806645 0.490757 0.500000
O O1 0.140904 0.686908 0.085071
O O2 0.262544 0.722544 0.000000
O O3 0.222873 0.577881 0.000000
O O4 0.617779 0.065878 0.842867
O O5 0.730475 0.096330 0.750143
O O6 0.736736 0.997589 0.880718
O O7 0.710663 0.148725 0.917241
O O8 0.500000 0.912847 0.750000
O O9 0.509787 0.855983 0.588390
O O10 0.500000 0.000000 0.612102
O O11 0.171005 0.112735 0.870372
O O12 0.222368 0.597774 0.500000
O O13 0.906799 0.066595 0.500000
O O14 0.982135 0.100206 0.360942
#
# Coordination Sequence:
#
# PCOD9562325 Si02
#       7
#     8  16  16  16   8  16   8
#     4  12  23  37  62  88 109 143 189 228 278 345
#     4  10  22  37  51  81 113 147 181 226 282 324
#     4  10  17  31  55  76 109 140 176 217 269 329
#     4  11  21  34  57  84 114 144 193 232 274 332
#     4  10  25  41  58  79 119 150 176 234 287 332
#     4   9  19  35  53  74 105 152 198 244 290 318
#     4  10  21  38  56  81 109 144 180 217 278 345
#
# _framework density 18.311554000000001
#
# number of rings (size 3 to 8) (size 9 to 14) (size 15 to 20)
#    0.000    1.818    0.909    5.727    2.545    2.182 
#    3.273    0.000    0.000    4.636    0.000    0.000 
#    0.000    0.000    0.000    7.455    0.000    0.000 
#
# Total GULP energy -490760.665205 kJ/mol
# GULP energy per Si atom -5576.825741 kJ/mol
# Density = 1.826988 g / cm^3
# Si number density = 18.311554 Si / 1000 Ang^3
#
#
#
# Elastic Constant Matrix: (Units=GPa)
#
#
# Indices 1 2 3 4 5 6 
#
# 1 109.5836 34.6854 23.3892 0.0000 0.0000 0.0000
# 2 34.6854 109.5836 23.3892 0.0000 0.0000 0.0000
# 3 23.3892 23.3892 69.6366 0.0000 0.0000 0.0000
# 4 0.0000 0.0000 0.0000 20.7461 0.0000 0.0000
# 5 0.0000 0.0000 0.0000 0.0000 20.7461 0.0000
# 6 0.0000 0.0000 0.0000 0.0000 0.0000 25.0012
#
#
#
# Elastic Compliance Matrix: (Units=1/GPa)
#
#
# Indices 1 2 3 4 5 6 
#
# 1 0.010565 -0.002786 -0.002613 0.000000 0.000000 0.000000
# 2 -0.002786 0.010565 -0.002613 0.000000 0.000000 0.000000
# 3 -0.002613 -0.002613 0.016115 0.000000 0.000000 0.000000
# 4 0.000000 0.000000 0.000000 0.048202 0.000000 0.000000
# 5 0.000000 0.000000 0.000000 0.000000 0.048202 0.000000
# 6 0.000000 0.000000 0.000000 0.000000 0.000000 0.039998
#
#
# Mechanical properties :
#
#
# Convention : Reuss Voigt Hill
#
# Bulk Modulus (GPa) = 47.12096 50.19238 48.65667
# Shear Modulus (GPa) = 25.41365 27.12134 26.26749
#
# Velocity S-wave (km/s) = 3.72942 3.85269 3.79156
# Velocity P-wave (km/s) = 6.65835 6.87464 6.76736
#
# Compressibility (1/GPa) = 0.02122198
#
# Stress axis : x y z
#
# Youngs Moduli (GPa) = 94.65178 94.65178 62.05274
#
# Poissons Ratio (x) = 0.26374 0.16212
# Poissons Ratio (y) = 0.26374 0.16212
# Poissons Ratio (z) = 0.24729 0.24729
#
# Static dielectric constant tensor:
#      x y z
#    x 1.650280 0.000000 0.000000 
#    y 0.000000 1.650280 0.000000 
#    z 0.000000 0.000000 1.653630 
# 
# From -- ./inp_files/3273.got.cif
#   From: 2010.05.17/outbox.cif.g08.bks.cpg/sg124_2_cif.got.tgz:3273.got - 2010.05.20 11:49:17.
