data_PCOD9562163
_publ_section_title
;
Structure prediction by ZEFSAII (Michael W. Deem and Ramdas Pophale) SiO2 
 PCOD9562163
Probable space group: P 4/M M M
;
_chemical_formula_sum "Si O2"
_cell_formula_units_Z 88
_cell_length_a 13.457974
_cell_length_b 13.457974
_cell_length_c 28.952041
_cell_angle_alpha 90.000000
_cell_angle_beta 90.000000
_cell_angle_gamma 90.000000
_cell_volume 5243.708668
_symmetry_space_group_name_H-M "P 4/M M M"
_symmetry_group_IT_number 123
_symmetry_cell_setting 'tetragonal'
loop_
_space_group_symop_operation_xyz
x,y,z
-y,x,z
-x,-y,z
y,-x,z
x,-y,-z
-x,y,-z
y,x,-z
-y,-x,-z
-x,-y,-z
y,-x,-z
x,y,-z
-y,x,-z
-x,y,z
x,-y,z
-y,-x,z
y,x,z
loop_
_atom_site_type_symbol
_atom_site_label
_atom_site_fract_x
_atom_site_fract_y
_atom_site_fract_z
Si Si1 0.784762 0.617966 0.398340
Si Si2 0.116365 0.718753 0.137055
Si Si3 0.384442 0.220132 0.500000
Si Si4 0.116811 0.717844 0.311628
Si Si5 0.382723 0.218274 0.224035
Si Si6 0.219734 0.616540 0.946311
O O1 0.767255 0.500000 0.392562
O O2 0.683188 0.683188 0.395264
O O3 0.828873 0.634728 0.450110
O O4 0.855272 0.659381 0.358420
O O5 0.179634 0.820367 0.138231
O O6 0.158664 0.651282 0.178536
O O7 0.142002 0.663736 0.089122
O O8 0.000000 0.735240 0.142307
O O9 0.500000 0.246750 0.500000
O O10 0.318143 0.318143 0.500000
O O11 0.180628 0.819373 0.311412
O O12 0.156486 0.653374 0.268566
O O13 0.000000 0.734935 0.308033
O O14 0.500000 0.233529 0.224710
O O15 0.321017 0.321017 0.224341
O O16 0.233397 0.500000 0.937214
O O17 0.321638 0.678363 0.939699
O O18 0.190107 0.628529 0.000000
#
# Coordination Sequence:
#
# PCOD9562163 Si02
#       6
#    16  16   8  16  16  16
#     4   9  17  29  46  70  99 130 163 197 236 285
#     4  10  21  36  53  74 100 130 167 210 252 294
#     4   8  14  25  41  63  94 128 160 196 235 278
#     4  10  21  36  53  73  96 124 161 204 248 292
#     4  10  21  36  54  78 106 134 164 196 233 282
#     4   9  18  32  50  74 103 133 166 204 246 295
#
# _framework density 16.782015999999999
#
# number of rings (size 3 to 8) (size 9 to 14) (size 15 to 20)
#    0.000    2.545    0.000    1.636    0.000    5.000 
#    0.000    4.091    0.000   11.455    0.000    2.545 
#    0.000    3.636    0.000    0.000    0.000    0.000 
#
# Total GULP energy -490482.547424 kJ/mol
# GULP energy per Si atom -5573.665312 kJ/mol
# Density = 1.674382 g / cm^3
# Si number density = 16.782016 Si / 1000 Ang^3
#
#
#
# Elastic Constant Matrix: (Units=GPa)
#
#
# Indices 1 2 3 4 5 6 
#
# 1 25.2572 156.4952 61.8144 0.0000 0.0000 0.0000
# 2 156.4952 25.2572 61.8144 0.0000 0.0000 0.0000
# 3 61.8144 61.8144 110.3870 0.0000 0.0000 0.0000
# 4 0.0000 0.0000 0.0000 13.1134 0.0000 0.0000
# 5 0.0000 0.0000 0.0000 0.0000 13.1134 0.0000
# 6 0.0000 0.0000 0.0000 0.0000 0.0000 -0.5203
#
#
#
# Elastic Compliance Matrix: (Units=1/GPa)
#
#
# Indices 1 2 3 4 5 6 
#
# 1 0.000634 0.008253 -0.004977 0.000000 0.000000 0.000000
# 2 0.008253 0.000634 -0.004977 0.000000 0.000000 0.000000
# 3 -0.004977 -0.004977 0.014633 0.000000 0.000000 0.000000
# 4 0.000000 0.000000 0.000000 0.076258 0.000000 0.000000
# 5 0.000000 0.000000 0.000000 0.000000 0.076258 0.000000
# 6 0.000000 0.000000 0.000000 0.000000 0.000000 -1.921994
#
#
# Mechanical properties :
#
#
# Convention : Reuss Voigt Hill
#
# Bulk Modulus (GPa) = 79.99717 80.12773 80.06245
# Shear Modulus (GPa) = -2.86367 -2.80687 -2.83527
#
# Velocity S-wave (km/s) = -1.30771 -1.29467 -1.30121
# Velocity P-wave (km/s) = 6.74476 6.75388 6.74932
#
# Compressibility (1/GPa) = 0.01250044
#
# Stress axis : x y z
#
# Youngs Moduli (GPa) = 1578.10325 1578.10325 68.34052
#
# Poissons Ratio (x) = -13.02475 0.34010
# Poissons Ratio (y) = -13.02475 0.34010
# Poissons Ratio (z) = 7.85357 7.85357
#
# Static dielectric constant tensor:
#      x y z
#    x 1.532460 0.000000 0.000000 
#    y 0.000000 1.532460 0.000000 
#    z 0.000000 0.000000 1.599870 
# 
# From -- ./inp_files/8465.got.cif
#   From: 2010.05.17/outbox.cif.g08.bks.cpg/sg123_5_cif.got.tgz:8465.got - 2010.05.20 11:43:04.
