data_PCOD9562580
_publ_section_title
;
Structure prediction by ZEFSAII (Michael W. Deem and Ramdas Pophale) SiO2 
 PCOD9562580
Probable space group: P 4/M C C
;
_chemical_formula_sum "Si O2"
_cell_formula_units_Z 64
_cell_length_a 20.507702
_cell_length_b 20.507702
_cell_length_c 8.603873
_cell_angle_alpha 90.000000
_cell_angle_beta 90.000000
_cell_angle_gamma 90.000000
_cell_volume 3618.495087
_symmetry_space_group_name_H-M "P 4/M C C"
_symmetry_group_IT_number 124
_symmetry_cell_setting 'tetragonal'
loop_
_space_group_symop_operation_xyz
x,y,z
-y,x,z
-x,-y,z
y,-x,z
x,-y,1/2-z
-x,y,1/2-z
y,x,1/2-z
-y,-x,1/2-z
-x,-y,-z
y,-x,-z
x,y,-z
-y,x,-z
-x,y,1/2+z
x,-y,1/2+z
-y,-x,1/2+z
y,x,1/2+z
loop_
_atom_site_type_symbol
_atom_site_label
_atom_site_fract_x
_atom_site_fract_y
_atom_site_fract_z
Si Si1 0.174698 0.071711 0.313482
Si Si2 0.571848 0.819504 0.312527
Si Si3 0.071240 0.324692 0.187173
Si Si4 0.324628 0.572189 0.813952
O O1 0.125845 0.125845 0.250000
O O2 0.172060 0.070801 0.500000
O O3 0.249847 0.084912 0.264824
O O4 0.157431 0.000000 0.250000
O O5 0.500000 0.836814 0.250000
O O6 0.569915 0.816017 0.500000
O O7 0.625067 0.872915 0.263758
O O8 0.588021 0.748109 0.246256
O O9 0.000000 0.342831 0.250000
O O10 0.068807 0.325669 0.000000
O O11 0.340222 0.500000 0.750000
O O12 0.375892 0.624109 0.750000
O O13 0.325138 0.571168 0.000000
#
# Coordination Sequence:
#
# PCOD9562580 Si02
#       4
#    16  16  16  16
#     4  10  20  36  55  78 105 137 173 216 262 312
#     4  10  20  36  55  80 110 143 181 223 267 317
#     4   9  20  36  55  78 108 141 179 221 267 318
#     4  11  22  38  58  82 110 143 180 222 268 319
#
# _framework density 17.686909
#
# number of rings (size 3 to 8) (size 9 to 14) (size 15 to 20)
#    0.000    2.000    0.000    5.250    0.000    5.000 
#    0.000    7.500    0.000    0.000    0.000    0.000 
#    0.000    0.000    0.000    0.000    0.000    0.000 
#
# Total GULP energy -357387.200330 kJ/mol
# GULP energy per Si atom -5584.175005 kJ/mol
# Density = 1.764665 g / cm^3
# Si number density = 17.686909 Si / 1000 Ang^3
#
#
#
# Elastic Constant Matrix: (Units=GPa)
#
#
# Indices 1 2 3 4 5 6 
#
# 1 150.5622 142.4279 54.2344 0.0000 0.0000 0.0000
# 2 142.4279 150.5591 54.2339 0.0000 0.0000 0.0000
# 3 54.2344 54.2339 90.3809 0.0000 0.0000 0.0000
# 4 0.0000 0.0000 0.0000 30.3468 0.0000 0.0000
# 5 0.0000 0.0000 0.0000 0.0000 30.3463 0.0000
# 6 0.0000 0.0000 0.0000 0.0000 0.0000 46.0460
#
#
#
# Elastic Compliance Matrix: (Units=1/GPa)
#
#
# Indices 1 2 3 4 5 6 
#
# 1 0.063673 -0.059286 -0.002633 0.000000 0.000000 0.000000
# 2 -0.059286 0.063674 -0.002633 0.000000 0.000000 0.000000
# 3 -0.002633 -0.002633 0.014224 0.000000 0.000000 0.000000
# 4 0.000000 0.000000 0.000000 0.032952 0.000000 0.000000
# 5 0.000000 0.000000 0.000000 0.000000 0.032953 0.000000
# 6 0.000000 0.000000 0.000000 0.000000 0.000000 0.021717
#
#
# Mechanical properties :
#
#
# Convention : Reuss Voigt Hill
#
# Bulk Modulus (GPa) = 80.20555 99.25497 89.73026
# Shear Modulus (GPa) = 13.79490 30.72156 22.25823
#
# Velocity S-wave (km/s) = 2.79579 4.17221 3.55132
# Velocity P-wave (km/s) = 7.47447 8.91344 8.22548
#
# Compressibility (1/GPa) = 0.01246797
#
# Stress axis : x y z
#
# Youngs Moduli (GPa) = 15.70531 15.70497 70.30267
#
# Poissons Ratio (x) = 0.93108 0.18510
# Poissons Ratio (y) = 0.93110 0.18511
# Poissons Ratio (z) = 0.04135 0.04135
#
# Static dielectric constant tensor:
#      x y z
#    x 1.581290 0.000000 0.000000 
#    y 0.000000 1.581290 0.000000 
#    z 0.000000 0.000000 1.597330 
# 
# From -- ./inp_files/875.got.cif
#   From: 2010.05.17/outbox.cif.g08.bks.cpg/sg124_1_cif.got.tgz:875.got - 2010.05.20 11:49:17.
