data_PCOD9562029
_publ_section_title
;
Structure prediction by ZEFSAII (Michael W. Deem and Ramdas Pophale) SiO2 
 PCOD9562029
Probable space group: P 4/M M M
;
_chemical_formula_sum "Si O2"
_cell_formula_units_Z 120
_cell_length_a 28.439499
_cell_length_b 28.439499
_cell_length_c 8.551524
_cell_angle_alpha 90.000000
_cell_angle_beta 90.000000
_cell_angle_gamma 90.000000
_cell_volume 6916.516253
_symmetry_space_group_name_H-M "P 4/M M M"
_symmetry_group_IT_number 123
_symmetry_cell_setting 'tetragonal'
loop_
_space_group_symop_operation_xyz
x,y,z
-y,x,z
-x,-y,z
y,-x,z
x,-y,-z
-x,y,-z
y,x,-z
-y,-x,-z
-x,-y,-z
y,-x,-z
x,y,-z
-y,x,-z
-x,y,z
x,-y,z
-y,-x,z
y,x,z
loop_
_atom_site_type_symbol
_atom_site_label
_atom_site_fract_x
_atom_site_fract_y
_atom_site_fract_z
Si Si1 0.287274 0.361027 0.813601
Si Si2 0.787674 0.712463 0.316790
Si Si3 0.054093 0.129576 0.688562
Si Si4 0.554802 0.769339 0.311643
Si Si5 0.945187 0.500000 0.187202
Si Si6 0.876282 0.419971 0.314009
Si Si7 0.945185 0.770357 0.811962
Si Si8 0.884469 0.317170 0.183831
O O1 0.338982 0.338982 0.779269
O O2 0.250734 0.326849 0.725833
O O3 0.271172 0.412577 0.760808
O O4 0.280325 0.356971 0.000000
O O5 0.800102 0.708162 0.500000
O O6 0.762274 0.762274 0.290840
O O7 0.832506 0.702978 0.211926
O O8 0.053369 0.128660 0.500000
O O9 0.087977 0.087977 0.743754
O O10 0.072242 0.180512 0.742040
O O11 0.000000 0.124105 0.743488
O O12 0.560260 0.767897 0.500000
O O13 0.500000 0.763188 0.273873
O O14 0.569836 0.822323 0.259934
O O15 0.914692 0.455204 0.242848
O O16 0.000000 0.500000 0.242477
O O17 0.946425 0.500000 0.000000
O O18 0.876365 0.426993 0.500000
O O19 0.888229 0.366537 0.271281
O O20 0.918926 0.723679 0.757856
O O21 0.000000 0.766796 0.771368
O O22 0.940779 0.772709 0.000000
O O23 0.892837 0.325333 0.000000
#
# Coordination Sequence:
#
# PCOD9562029 Si02
#       8
#    16  16  16  16   8  16  16  16
#     4  10  20  33  51  78 111 145 182 223 267 318
#     4  10  20  33  49  71 102 139 175 212 259 315
#     4   9  18  33  54  80 108 136 167 206 254 312
#     4  10  20  35  55  80 111 146 185 227 273 327
#     4  11  25  43  61  81 107 141 181 229 286 343
#     4  11  22  38  58  81 109 139 177 229 282 335
#     4   9  20  38  55  71  96 131 168 209 258 310
#     4  11  22  35  54  78 103 134 176 224 271 323
#
# _framework density 17.349775999999999
#
# number of rings (size 3 to 8) (size 9 to 14) (size 15 to 20)
#    0.000    1.933    2.000    1.800    0.000    5.467 
#    0.000    4.667    0.000    0.000    0.000    1.867 
#    0.000    0.267    0.000    2.933    0.000    2.133 
#
# Total GULP energy -669463.191008 kJ/mol
# GULP energy per Si atom -5578.859925 kJ/mol
# Density = 1.731029 g / cm^3
# Si number density = 17.349776 Si / 1000 Ang^3
#
#
#
# Elastic Constant Matrix: (Units=GPa)
#
#
# Indices 1 2 3 4 5 6 
#
# 1 102.8405 68.7616 17.8583 0.0000 0.0000 0.0000
# 2 68.7616 102.8405 17.8583 0.0000 0.0000 0.0000
# 3 17.8583 17.8583 21.6065 0.0000 0.0000 0.0000
# 4 0.0000 0.0000 0.0000 26.6794 0.0000 0.0000
# 5 0.0000 0.0000 0.0000 0.0000 26.6794 0.0000
# 6 0.0000 0.0000 0.0000 0.0000 0.0000 26.1908
#
#
#
# Elastic Compliance Matrix: (Units=1/GPa)
#
#
# Indices 1 2 3 4 5 6 
#
# 1 0.018191 -0.011153 -0.005817 0.000000 0.000000 0.000000
# 2 -0.011153 0.018191 -0.005817 0.000000 0.000000 0.000000
# 3 -0.005817 -0.005817 0.055899 0.000000 0.000000 0.000000
# 4 0.000000 0.000000 0.000000 0.037482 0.000000 0.000000
# 5 0.000000 0.000000 0.000000 0.000000 0.037482 0.000000
# 6 0.000000 0.000000 0.000000 0.000000 0.000000 0.038181
#
#
# Mechanical properties :
#
#
# Convention : Reuss Voigt Hill
#
# Bulk Modulus (GPa) = 21.41055 48.47154 34.94105
# Shear Modulus (GPa) = 18.75687 24.09722 21.42705
#
# Velocity S-wave (km/s) = 3.29158 3.73085 3.51808
# Velocity P-wave (km/s) = 5.17816 6.82330 6.05685
#
# Compressibility (1/GPa) = 0.04670594
#
# Stress axis : x y z
#
# Youngs Moduli (GPa) = 54.97247 54.97247 17.88956
#
# Poissons Ratio (x) = 0.61309 0.10407
# Poissons Ratio (y) = 0.61309 0.10407
# Poissons Ratio (z) = 0.31979 0.31979
#
# Static dielectric constant tensor:
#      x y z
#    x 1.589600 0.000000 0.000000 
#    y 0.000000 1.589600 0.000000 
#    z 0.000000 0.000000 1.592150 
# 
# From -- ./inp_files/2082.got.cif
#   From: 2010.05.17/outbox.cif.g08.bks.cpg/sg123_2_cif.got.tgz:2082.got - 2010.05.20 11:43:04.
