data_PCOD9562372
_publ_section_title
;
Structure prediction by ZEFSAII (Michael W. Deem and Ramdas Pophale) SiO2 
 PCOD9562372
Probable space group: P 4/M C C
;
_chemical_formula_sum "Si O2"
_cell_formula_units_Z 96
_cell_length_a 26.707743
_cell_length_b 26.707743
_cell_length_c 8.661775
_cell_angle_alpha 90.000000
_cell_angle_beta 90.000000
_cell_angle_gamma 90.000000
_cell_volume 6178.474737
_symmetry_space_group_name_H-M "P 4/M C C"
_symmetry_group_IT_number 124
_symmetry_cell_setting 'tetragonal'
loop_
_space_group_symop_operation_xyz
x,y,z
-y,x,z
-x,-y,z
y,-x,z
x,-y,1/2-z
-x,y,1/2-z
y,x,1/2-z
-y,-x,1/2-z
-x,-y,-z
y,-x,-z
x,y,-z
-y,x,-z
-x,y,1/2+z
x,-y,1/2+z
-y,-x,1/2+z
y,x,1/2+z
loop_
_atom_site_type_symbol
_atom_site_label
_atom_site_fract_x
_atom_site_fract_y
_atom_site_fract_z
Si Si1 0.883052 0.208306 0.825730
Si Si2 0.946808 0.302900 0.174893
Si Si3 0.052843 0.124541 0.179700
Si Si4 0.721119 0.203821 0.186592
Si Si5 0.368516 0.134434 0.679317
Si Si6 0.054457 0.443842 0.315423
O O1 0.929102 0.246466 0.839323
O O2 0.905069 0.165502 0.719424
O O3 0.837263 0.240366 0.756802
O O4 0.870220 0.191181 0.000000
O O5 0.908340 0.327428 0.293414
O O6 0.000000 0.307139 0.250000
O O7 0.943844 0.324921 0.000000
O O8 0.072920 0.072920 0.250000
O O9 0.000000 0.139662 0.250000
O O10 0.047318 0.119425 0.000000
O O11 0.743222 0.256779 0.250000
O O12 0.664341 0.183982 0.229281
O O13 0.723533 0.203488 0.000000
O O14 0.381877 0.140889 0.500000
O O15 0.414161 0.105337 0.765436
O O16 0.058398 0.500000 0.250000
O O17 0.050777 0.444806 0.500000
O O18 0.000000 0.424021 0.250000
#
# Coordination Sequence:
#
# PCOD9562372 Si02
#       6
#    16  16  16  16  16  16
#     4  10  20  34  51  70  90 111 134 160 194 238
#     4  10  19  29  43  63  87 113 139 169 205 247
#     4  12  25  41  57  71  84  98 118 144 179 223
#     4  10  20  33  50  70  94 121 148 180 216 258
#     4  10  20  33  47  65  89 118 151 185 223 266
#     4  11  21  34  51  70  94 123 156 194 234 279
#
# _framework density 15.537815999999999
#
# number of rings (size 3 to 8) (size 9 to 14) (size 15 to 20)
#    0.000    1.500    0.000    7.000    0.000    5.500 
#    0.000    0.833    0.000    0.000    0.000    0.000 
#    0.000    0.000    0.000    0.000    0.000    0.000 
#
# Total GULP energy -534663.180485 kJ/mol
# GULP energy per Si atom -5569.408130 kJ/mol
# Density = 1.550245 g / cm^3
# Si number density = 15.537816 Si / 1000 Ang^3
#
#
#
# Elastic Constant Matrix: (Units=GPa)
#
#
# Indices 1 2 3 4 5 6 
#
# 1 52.3214 33.5156 21.8607 0.0000 0.0000 0.0000
# 2 33.5156 52.3194 21.8610 0.0000 0.0000 0.0000
# 3 21.8607 21.8610 103.1963 0.0000 0.0000 0.0000
# 4 0.0000 0.0000 0.0000 42.7639 0.0000 0.0000
# 5 0.0000 0.0000 0.0000 0.0000 42.7671 0.0000
# 6 0.0000 0.0000 0.0000 0.0000 0.0000 19.5323
#
#
#
# Elastic Compliance Matrix: (Units=1/GPa)
#
#
# Indices 1 2 3 4 5 6 
#
# 1 0.033118 -0.020059 -0.002766 0.000000 0.000000 0.000000
# 2 -0.020059 0.033119 -0.002767 0.000000 0.000000 0.000000
# 3 -0.002766 -0.002767 0.010862 0.000000 0.000000 0.000000
# 4 0.000000 0.000000 0.000000 0.023384 0.000000 0.000000
# 5 0.000000 0.000000 0.000000 0.000000 0.023382 0.000000
# 6 0.000000 0.000000 0.000000 0.000000 0.000000 0.051197
#
#
# Mechanical properties :
#
#
# Convention : Reuss Voigt Hill
#
# Bulk Modulus (GPa) = 38.58758 40.25686 39.42222
# Shear Modulus (GPa) = 21.28693 29.71931 25.50312
#
# Velocity S-wave (km/s) = 3.70538 4.37820 4.05576
# Velocity P-wave (km/s) = 6.57229 7.17798 6.88180
#
# Compressibility (1/GPa) = 0.02591507
#
# Stress axis : x y z
#
# Youngs Moduli (GPa) = 30.19526 30.19391 92.06114
#
# Poissons Ratio (x) = 0.60567 0.25466
# Poissons Ratio (y) = 0.60569 0.25470
# Poissons Ratio (z) = 0.08353 0.08354
#
# Static dielectric constant tensor:
#      x y z
#    x 1.558380 0.000000 0.000000 
#    y 0.000000 1.558390 0.000000 
#    z 0.000000 0.000000 1.489820 
# 
# From -- ./inp_files/1491.got.cif
#   From: 2010.05.17/outbox.cif.g08.bks.cpg/sg124_1_cif.got.tgz:1491.got - 2010.05.20 11:49:17.
