data_PCOD9562913
_publ_section_title
;
Structure prediction by ZEFSAII (Michael W. Deem and Ramdas Pophale) SiO2 
 PCOD9562913
Probable space group: P 4/N B M
;
_chemical_formula_sum "Si O2"
_cell_formula_units_Z 96
_cell_length_a 35.213576
_cell_length_b 35.213576
_cell_length_c 5.114231
_cell_angle_alpha 90.000000
_cell_angle_beta 90.000000
_cell_angle_gamma 90.000000
_cell_volume 6341.625649
_symmetry_space_group_name_H-M "P 4/N B M"
_symmetry_group_IT_number 125
_space_group.IT_coordinate_system_code '2'
_symmetry_cell_setting 'tetragonal'
loop_
_space_group_symop_operation_xyz
x,y,z
1/2-y,x,z
1/2-x,1/2-y,z
y,1/2-x,z
x,1/2-y,-z
1/2-x,y,-z
y,x,-z
1/2-y,1/2-x,-z
-x,-y,-z
1/2+y,-x,-z
1/2+x,1/2+y,-z
-y,1/2+x,-z
-x,1/2+y,z
1/2+x,-y,z
-y,-x,z
1/2+y,1/2+x,z
loop_
_atom_site_type_symbol
_atom_site_label
_atom_site_fract_x
_atom_site_fract_y
_atom_site_fract_z
Si Si1 0.291311 0.557799 0.417848
Si Si2 0.952147 0.047853 0.443420
Si Si3 0.333937 0.559392 0.924332
Si Si4 0.070655 0.036406 0.747650
Si Si5 0.293522 0.465431 0.438095
Si Si6 0.084550 0.915451 0.051316
Si Si7 0.157505 0.031856 0.928169
O O1 0.250000 0.571055 0.500000
O O2 0.322699 0.570294 0.630493
O O3 0.291391 0.511586 0.428049
O O4 0.300235 0.568523 0.122708
O O5 0.938894 0.061107 0.730779
O O6 0.995615 0.059088 0.377987
O O7 0.928424 0.071577 0.234661
O O8 0.340083 0.514013 0.928679
O O9 0.371157 0.576446 0.054978
O O10 0.064435 0.064435 0.500000
O O11 0.113035 0.039450 0.870391
O O12 0.044281 0.044281 0.000000
O O13 0.250000 0.452902 0.500000
O O14 0.318844 0.453786 0.682351
O O15 0.318568 0.454807 0.182469
#
# Coordination Sequence:
#
# PCOD9562913 Si02
#       7
#    16   8  16  16  16   8  16
#     4   9  17  29  45  65  85 108 136 168 212 275
#     4  12  24  37  50  60  82 120 164 214 248 283
#     4  10  19  30  46  63  86 111 141 180 221 274
#     4  12  24  37  49  64  85 118 165 211 252 284
#     4   9  17  29  47  69  87 105 132 172 228 292
#     4  12  22  33  50  66  88 114 156 189 244 274
#     4  10  19  31  48  63  87 112 141 185 238 278
#
# _framework density 15.138075000000001
#
# number of rings (size 3 to 8) (size 9 to 14) (size 15 to 20)
#    0.000    1.667    1.667    4.500    4.667    4.000 
#    0.000    0.000    0.000    0.000    0.000    0.000 
#    0.000    0.000    0.000    0.000    0.000   29.167 
#
# Total GULP energy -534461.594914 kJ/mol
# GULP energy per Si atom -5567.308280 kJ/mol
# Density = 1.510362 g / cm^3
# Si number density = 15.138075 Si / 1000 Ang^3
#
#
#
# Elastic Constant Matrix: (Units=GPa)
#
#
# Indices 1 2 3 4 5 6 
#
# 1 65.3497 -0.5359 16.7807 0.0000 0.0000 0.0000
# 2 -0.5359 65.3497 16.7807 0.0000 0.0000 0.0000
# 3 16.7807 16.7807 92.7568 0.0000 0.0000 0.0000
# 4 0.0000 0.0000 0.0000 21.6083 0.0000 0.0000
# 5 0.0000 0.0000 0.0000 0.0000 21.6083 0.0000
# 6 0.0000 0.0000 0.0000 0.0000 0.0000 2.7139
#
#
#
# Elastic Compliance Matrix: (Units=1/GPa)
#
#
# Indices 1 2 3 4 5 6 
#
# 1 0.016101 0.000923 -0.003080 0.000000 0.000000 0.000000
# 2 0.000923 0.016101 -0.003080 0.000000 0.000000 0.000000
# 3 -0.003080 -0.003080 0.011895 0.000000 0.000000 0.000000
# 4 0.000000 0.000000 0.000000 0.046278 0.000000 0.000000
# 5 0.000000 0.000000 0.000000 0.000000 0.046278 0.000000
# 6 0.000000 0.000000 0.000000 0.000000 0.000000 0.368472
#
#
# Mechanical properties :
#
#
# Convention : Reuss Voigt Hill
#
# Bulk Modulus (GPa) = 29.74127 32.16747 30.95437
# Shear Modulus (GPa) = 9.49116 21.88150 15.68633
#
# Velocity S-wave (km/s) = 2.50666 3.80605 3.22252
# Velocity P-wave (km/s) = 5.29784 6.37261 5.85992
#
# Compressibility (1/GPa) = 0.03362331
#
# Stress axis : x y z
#
# Youngs Moduli (GPa) = 62.10920 62.10920 84.06754
#
# Poissons Ratio (x) = -0.05732 0.25891
# Poissons Ratio (y) = -0.05732 0.25891
# Poissons Ratio (z) = 0.19128 0.19128
#
# Static dielectric constant tensor:
#      x y z
#    x 1.333000 0.000000 0.000000 
#    y 0.000000 1.333000 0.000000 
#    z 0.000000 0.000000 1.540230 
# 
# From -- ./inp_files/1319.got.cif
#   From: 2010.05.17/outbox.cif.g08.bks.cpg/sg125_1_cif.got.tgz:1319.got - 2010.05.20 11:54:10.
