data_PCOD9562890
_publ_section_title
;
Structure prediction by ZEFSAII (Michael W. Deem and Ramdas Pophale) SiO2 
 PCOD9562890
Probable space group: P 4/N B M
;
_chemical_formula_sum "Si O2"
_cell_formula_units_Z 128
_cell_length_a 23.367650
_cell_length_b 23.367650
_cell_length_c 12.974843
_cell_angle_alpha 90.000000
_cell_angle_beta 90.000000
_cell_angle_gamma 90.000000
_cell_volume 7084.874959
_symmetry_space_group_name_H-M "P 4/N B M"
_symmetry_group_IT_number 125
_space_group.IT_coordinate_system_code '2'
_symmetry_cell_setting 'tetragonal'
loop_
_space_group_symop_operation_xyz
x,y,z
1/2-y,x,z
1/2-x,1/2-y,z
y,1/2-x,z
x,1/2-y,-z
1/2-x,y,-z
y,x,-z
1/2-y,1/2-x,-z
-x,-y,-z
1/2+y,-x,-z
1/2+x,1/2+y,-z
-y,1/2+x,-z
-x,1/2+y,z
1/2+x,-y,z
-y,-x,z
1/2+y,1/2+x,z
loop_
_atom_site_type_symbol
_atom_site_label
_atom_site_fract_x
_atom_site_fract_y
_atom_site_fract_z
Si Si1 0.454603 0.856259 0.119052
Si Si2 0.885200 0.207335 0.290155
Si Si3 0.389182 0.425590 0.613995
Si Si4 0.529611 0.128236 0.105944
Si Si5 0.426534 0.830789 0.686626
Si Si6 0.047441 0.858478 0.537565
Si Si7 0.309117 0.179637 0.375393
Si Si8 0.446142 0.043231 0.187328
O O1 0.406916 0.906916 0.119714
O O2 0.428507 0.810828 0.198072
O O3 0.512903 0.886981 0.155978
O O4 0.463411 0.838181 0.000752
O O5 0.824872 0.175129 0.271306
O O6 0.887230 0.274885 0.302771
O O7 0.910966 0.181013 0.395024
O O8 0.410621 0.410621 0.500000
O O9 0.361403 0.487811 0.597610
O O10 0.347177 0.375108 0.651016
O O11 0.438588 0.431967 0.698345
O O12 0.580968 0.080968 0.106575
O O13 0.535658 0.163918 0.210677
O O14 0.471348 0.091524 0.112403
O O15 0.385635 0.885635 0.683661
O O16 0.459057 0.833439 0.577368
O O17 0.079308 0.920693 0.534490
O O18 0.328300 0.243193 0.341240
O O19 0.314181 0.185820 0.500000
O O20 0.493593 0.993593 0.189711
#
# Coordination Sequence:
#
# PCOD9562890 Si02
#       8
#    16  16  16  16  16  16  16  16
#     4   9  17  32  53  73  96 134 175 210 260 322
#     4  10  20  36  55  74  99 139 182 222 269 322
#     4  11  20  30  48  80 104 136 175 209 250 312
#     4   9  18  32  51  74 101 132 170 213 263 320
#     4  10  21  36  52  74 103 138 178 226 276 316
#     4  10  20  36  51  71 108 144 170 208 267 322
#     4   8  16  34  51  64  93 133 170 211 248 286
#     4  10  18  31  48  73 107 139 172 205 249 318
#
# _framework density 18.066656999999999
#
# number of rings (size 3 to 8) (size 9 to 14) (size 15 to 20)
#    0.000    2.375    1.250    2.250    0.000    4.250 
#   11.250    0.000    0.000    2.250    0.000    3.500 
#    0.000    0.000    0.000    5.500    0.000    3.750 
#
# Total GULP energy -712999.647069 kJ/mol
# GULP energy per Si atom -5570.309743 kJ/mol
# Density = 1.802554 g / cm^3
# Si number density = 18.066657 Si / 1000 Ang^3
#
#
#
# Elastic Constant Matrix: (Units=GPa)
#
#
# Indices 1 2 3 4 5 6 
#
# 1 21.5349 2.4921 0.5637 0.0000 0.0000 0.0000
# 2 2.4921 21.5352 0.5637 0.0000 0.0000 0.0000
# 3 0.5637 0.5637 95.6507 0.0000 0.0000 0.0000
# 4 0.0000 0.0000 0.0000 9.6945 0.0000 0.0000
# 5 0.0000 0.0000 0.0000 0.0000 9.6945 0.0000
# 6 0.0000 0.0000 0.0000 0.0000 0.0000 11.4479
#
#
#
# Elastic Compliance Matrix: (Units=1/GPa)
#
#
# Indices 1 2 3 4 5 6 
#
# 1 0.047072 -0.005441 -0.000245 0.000000 0.000000 0.000000
# 2 -0.005441 0.047072 -0.000245 0.000000 0.000000 0.000000
# 3 -0.000245 -0.000245 0.010458 0.000000 0.000000 0.000000
# 4 0.000000 0.000000 0.000000 0.103151 0.000000 0.000000
# 5 0.000000 0.000000 0.000000 0.000000 0.103151 0.000000
# 6 0.000000 0.000000 0.000000 0.000000 0.000000 0.087352
#
#
# Mechanical properties :
#
#
# Convention : Reuss Voigt Hill
#
# Bulk Modulus (GPa) = 10.78299 16.21774 13.50037
# Shear Modulus (GPa) = 11.33705 15.17414 13.25559
#
# Velocity S-wave (km/s) = 2.50774 2.90124 2.71164
# Velocity P-wave (km/s) = 3.79030 4.49656 4.15845
#
# Compressibility (1/GPa) = 0.09273864
#
# Stress axis : x y z
#
# Youngs Moduli (GPa) = 21.24390 21.24418 95.62421
#
# Poissons Ratio (x) = 0.11559 0.02346
# Poissons Ratio (y) = 0.11558 0.02346
# Poissons Ratio (z) = 0.00521 0.00521
#
# Static dielectric constant tensor:
#      x y z
#    x 1.626360 0.000000 0.000000 
#    y 0.000000 1.626360 0.000000 
#    z 0.000000 0.000000 1.650920 
# 
# From -- ./inp_files/4375.got.cif
#   From: 2010.05.17/outbox.cif.g08.bks.cpg/sg125_3_cif.got.tgz:4375.got - 2010.05.20 11:54:10.
