data_PCOD9562070
_publ_section_title
;
Structure prediction by ZEFSAII (Michael W. Deem and Ramdas Pophale) SiO2 
 PCOD9562070
Probable space group: P 4/M M M
;
_chemical_formula_sum "Si O2"
_cell_formula_units_Z 120
_cell_length_a 28.731025
_cell_length_b 28.731025
_cell_length_c 7.764147
_cell_angle_alpha 90.000000
_cell_angle_beta 90.000000
_cell_angle_gamma 90.000000
_cell_volume 6409.084381
_symmetry_space_group_name_H-M "P 4/M M M"
_symmetry_group_IT_number 123
_symmetry_cell_setting 'tetragonal'
loop_
_space_group_symop_operation_xyz
x,y,z
-y,x,z
-x,-y,z
y,-x,z
x,-y,-z
-x,y,-z
y,x,-z
-y,-x,-z
-x,-y,-z
y,-x,-z
x,y,-z
-y,x,-z
-x,y,z
x,-y,z
-y,-x,z
y,x,z
loop_
_atom_site_type_symbol
_atom_site_label
_atom_site_fract_x
_atom_site_fract_y
_atom_site_fract_z
Si Si1 0.813515 0.109094 0.794500
Si Si2 0.635501 0.192659 0.701974
Si Si3 0.552503 0.627422 0.292765
Si Si4 0.447488 0.128730 0.705886
Si Si5 0.292833 0.119505 0.797571
Si Si6 0.053003 0.624978 0.208670
Si Si7 0.626114 0.299033 0.205355
Si Si8 0.867048 0.944732 0.500000
O O1 0.843391 0.156610 0.776426
O O2 0.760076 0.116250 0.735456
O O3 0.838378 0.072067 0.669324
O O4 0.814855 0.096836 0.000000
O O5 0.637323 0.182306 0.500000
O O6 0.589452 0.166853 0.774441
O O7 0.681833 0.169158 0.777161
O O8 0.631492 0.247308 0.727221
O O9 0.550885 0.623382 0.500000
O O10 0.500000 0.624629 0.226876
O O11 0.586245 0.586245 0.227265
O O12 0.577837 0.675819 0.251296
O O13 0.450620 0.135334 0.500000
O O14 0.500000 0.131329 0.775216
O O15 0.421736 0.079958 0.738948
O O16 0.330364 0.082398 0.726184
O O17 0.289441 0.109866 0.000000
O O18 0.000000 0.626138 0.268004
O O19 0.053261 0.626481 0.000000
O O20 0.666705 0.333296 0.272257
O O21 0.629634 0.297269 0.000000
O O22 0.914923 0.914923 0.500000
O O23 0.873843 0.000000 0.500000
#
# Coordination Sequence:
#
# PCOD9562070 Si02
#       8
#    16  16  16  16  16  16  16   8
#     4   9  19  36  58  84 116 153 191 233 279 330
#     4  10  20  33  52  76 102 133 173 219 264 313
#     4   9  18  33  53  76 102 131 164 206 257 314
#     4   9  19  35  51  68  94 128 165 207 256 306
#     4   9  18  33  53  76 107 142 175 216 269 324
#     4   9  18  32  49  71  99 130 166 209 256 307
#     4  10  21  36  52  72 101 134 169 208 250 303
#     4  10  22  39  60  88 120 154 195 239 281 331
#
# _framework density 18.723423
#
# number of rings (size 3 to 8) (size 9 to 14) (size 15 to 20)
#    0.000    2.667    0.000    0.800    0.933    4.467 
#    0.000    6.000    0.000    0.000    0.000    3.733 
#    0.000    0.000    0.000    0.000    0.000    0.000 
#
# Total GULP energy -669007.804739 kJ/mol
# GULP energy per Si atom -5575.065039 kJ/mol
# Density = 1.868081 g / cm^3
# Si number density = 18.723423 Si / 1000 Ang^3
#
#
#
# Elastic Constant Matrix: (Units=GPa)
#
#
# Indices 1 2 3 4 5 6 
#
# 1 146.5887 59.3117 13.2797 0.0000 0.0000 0.0000
# 2 59.3117 146.5887 13.2797 0.0000 0.0000 0.0000
# 3 13.2797 13.2797 40.2311 0.0000 0.0000 0.0000
# 4 0.0000 0.0000 0.0000 18.5661 0.0000 0.0000
# 5 0.0000 0.0000 0.0000 0.0000 18.5661 0.0000
# 6 0.0000 0.0000 0.0000 0.0000 0.0000 6.7289
#
#
#
# Elastic Compliance Matrix: (Units=1/GPa)
#
#
# Indices 1 2 3 4 5 6 
#
# 1 0.008265 -0.003193 -0.001674 0.000000 0.000000 0.000000
# 2 -0.003193 0.008265 -0.001674 0.000000 0.000000 0.000000
# 3 -0.001674 -0.001674 0.025962 0.000000 0.000000 0.000000
# 4 0.000000 0.000000 0.000000 0.053862 0.000000 0.000000
# 5 0.000000 0.000000 0.000000 0.000000 0.053862 0.000000
# 6 0.000000 0.000000 0.000000 0.000000 0.000000 0.148612
#
#
# Mechanical properties :
#
#
# Convention : Reuss Voigt Hill
#
# Bulk Modulus (GPa) = 34.00262 56.12785 45.06523
# Shear Modulus (GPa) = 15.54179 25.27472 20.40825
#
# Velocity S-wave (km/s) = 2.88422 3.67808 3.30507
# Velocity P-wave (km/s) = 5.41217 6.93398 6.21979
#
# Compressibility (1/GPa) = 0.02940950
#
# Stress axis : x y z
#
# Youngs Moduli (GPa) = 120.98867 120.98867 38.51815
#
# Poissons Ratio (x) = 0.38626 0.06450
# Poissons Ratio (y) = 0.38626 0.06450
# Poissons Ratio (z) = 0.20259 0.20259
#
# Static dielectric constant tensor:
#      x y z
#    x 1.641490 0.000000 0.000000 
#    y 0.000000 1.641490 0.000000 
#    z 0.000000 0.000000 1.689180 
# 
# From -- ./inp_files/2014.got.cif
#   From: 2010.05.17/outbox.cif.g08.bks.cpg/sg123_2_cif.got.tgz:2014.got - 2010.05.20 11:43:04.
