data_PCOD9562273
_publ_section_title
;
Structure prediction by ZEFSAII (Michael W. Deem and Ramdas Pophale) SiO2 
 PCOD9562273
Probable space group: P 4/M M M
;
_chemical_formula_sum "Si O2"
_cell_formula_units_Z 112
_cell_length_a 18.719991
_cell_length_b 18.719991
_cell_length_c 22.592888
_cell_angle_alpha 90.000000
_cell_angle_beta 90.000000
_cell_angle_gamma 90.000000
_cell_volume 7917.407909
_symmetry_space_group_name_H-M "P 4/M M M"
_symmetry_group_IT_number 123
_symmetry_cell_setting 'tetragonal'
loop_
_space_group_symop_operation_xyz
x,y,z
-y,x,z
-x,-y,z
y,-x,z
x,-y,-z
-x,y,-z
y,x,-z
-y,-x,-z
-x,-y,-z
y,-x,-z
x,y,-z
-y,x,-z
-x,y,z
x,-y,z
-y,-x,z
y,x,z
loop_
_atom_site_type_symbol
_atom_site_label
_atom_site_fract_x
_atom_site_fract_y
_atom_site_fract_z
Si Si1 0.301464 0.580624 0.713533
Si Si2 0.083414 0.798443 0.321179
Si Si3 0.801362 0.584253 0.175621
Si Si4 0.348908 0.916240 0.255072
Si Si5 0.581343 0.160934 0.635058
Si Si6 0.416425 0.701899 0.930406
Si Si7 0.727160 0.156081 0.568441
O O1 0.330030 0.500000 0.714392
O O2 0.361691 0.638310 0.703446
O O3 0.261295 0.593834 0.775762
O O4 0.239488 0.584657 0.664397
O O5 0.135549 0.864452 0.308909
O O6 0.097348 0.732241 0.276691
O O7 0.103774 0.767434 0.385993
O O8 0.000000 0.816868 0.318556
O O9 0.820482 0.500000 0.176511
O O10 0.867760 0.629240 0.199630
O O11 0.767756 0.602370 0.112299
O O12 0.398103 0.891652 0.310587
O O13 0.357750 0.000000 0.244048
O O14 0.500000 0.147697 0.614975
O O15 0.644294 0.156713 0.587208
O O16 0.500000 0.684300 0.919022
O O17 0.364925 0.635076 0.917830
O O18 0.409554 0.719305 0.000000
O O19 0.735340 0.135767 0.500000
O O20 0.767193 0.232808 0.576428
#
# Coordination Sequence:
#
# PCOD9562273 Si02
#       7
#    16  16  16  16  16  16  16
#     4   9  16  25  37  54  77 103 132 166 202 241
#     4   9  18  31  46  65  86 106 129 157 190 230
#     4   9  17  27  40  59  81 107 138 171 206 240
#     4   9  17  29  45  64  84 105 131 162 195 236
#     4   9  17  27  40  59  80 102 129 164 203 239
#     4   9  17  28  41  58  82 112 146 182 214 243
#     4   9  17  29  44  59  77 104 134 163 197 236
#
# _framework density 14.146044
#
# number of rings (size 3 to 8) (size 9 to 14) (size 15 to 20)
#    0.000    3.000    0.000    2.143    0.000    6.143 
#    0.000    0.714    0.000    3.000    0.000    8.000 
#    0.000    0.000    0.000   13.286    0.000    0.571 
#
# Total GULP energy -623655.479088 kJ/mol
# GULP energy per Si atom -5568.352492 kJ/mol
# Density = 1.411385 g / cm^3
# Si number density = 14.146044 Si / 1000 Ang^3
#
#
#
# Elastic Constant Matrix: (Units=GPa)
#
#
# Indices 1 2 3 4 5 6 
#
# 1 91.2185 62.2018 37.0103 0.0000 0.0000 0.0000
# 2 62.2018 91.2185 37.0103 0.0000 0.0000 0.0000
# 3 37.0103 37.0103 61.5737 0.0000 0.0000 0.0000
# 4 0.0000 0.0000 0.0000 14.0466 0.0000 0.0000
# 5 0.0000 0.0000 0.0000 0.0000 14.0466 0.0000
# 6 0.0000 0.0000 0.0000 0.0000 0.0000 14.3035
#
#
#
# Elastic Compliance Matrix: (Units=1/GPa)
#
#
# Indices 1 2 3 4 5 6 
#
# 1 0.021822 -0.012641 -0.005518 0.000000 0.000000 0.000000
# 2 -0.012641 0.021822 -0.005518 0.000000 0.000000 0.000000
# 3 -0.005518 -0.005518 0.022874 0.000000 0.000000 0.000000
# 4 0.000000 0.000000 0.000000 0.071192 0.000000 0.000000
# 5 0.000000 0.000000 0.000000 0.000000 0.071192 0.000000
# 6 0.000000 0.000000 0.000000 0.000000 0.000000 0.069913
#
#
# Mechanical properties :
#
#
# Convention : Reuss Voigt Hill
#
# Bulk Modulus (GPa) = 52.18480 57.38393 54.78437
# Shear Modulus (GPa) = 15.03504 15.66521 15.35013
#
# Velocity S-wave (km/s) = 3.26367 3.33136 3.29769
# Velocity P-wave (km/s) = 7.15347 7.44652 7.30147
#
# Compressibility (1/GPa) = 0.01916267
#
# Stress axis : x y z
#
# Youngs Moduli (GPa) = 45.82604 45.82604 43.71743
#
# Poissons Ratio (x) = 0.57930 0.24123
# Poissons Ratio (y) = 0.57930 0.24123
# Poissons Ratio (z) = 0.25287 0.25287
#
# Static dielectric constant tensor:
#      x y z
#    x 1.460100 0.000000 0.000000 
#    y 0.000000 1.460100 0.000000 
#    z 0.000000 0.000000 1.460100 
# 
# From -- ./inp_files/6687.got.cif
#   From: 2010.05.17/outbox.cif.g08.bks.cpg/sg123_4_cif.got.tgz:6687.got - 2010.05.20 11:43:04.
