data_PCOD9562470
_publ_section_title
;
Structure prediction by ZEFSAII (Michael W. Deem and Ramdas Pophale) SiO2 
 PCOD9562470
Probable space group: P 4/M C C
;
_chemical_formula_sum "Si O2"
_cell_formula_units_Z 96
_cell_length_a 23.641295
_cell_length_b 23.641295
_cell_length_c 9.296412
_cell_angle_alpha 90.000000
_cell_angle_beta 90.000000
_cell_angle_gamma 90.000000
_cell_volume 5195.865340
_symmetry_space_group_name_H-M "P 4/M C C"
_symmetry_group_IT_number 124
_symmetry_cell_setting 'tetragonal'
loop_
_space_group_symop_operation_xyz
x,y,z
-y,x,z
-x,-y,z
y,-x,z
x,-y,1/2-z
-x,y,1/2-z
y,x,1/2-z
-y,-x,1/2-z
-x,-y,-z
y,-x,-z
x,y,-z
-y,x,-z
-x,y,1/2+z
x,-y,1/2+z
-y,-x,1/2+z
y,x,1/2+z
loop_
_atom_site_type_symbol
_atom_site_label
_atom_site_fract_x
_atom_site_fract_y
_atom_site_fract_z
Si Si1 0.252560 0.826699 0.667637
Si Si2 0.243661 0.634106 0.838273
Si Si3 0.551262 0.823074 0.667866
Si Si4 0.439818 0.642857 0.670870
Si Si5 0.715053 0.942321 0.667236
Si Si6 0.945810 0.421371 0.336452
O O1 0.199493 0.800508 0.750000
O O2 0.241512 0.838951 0.500000
O O3 0.301098 0.777264 0.667923
O O4 0.270270 0.884663 0.747835
O O5 0.209763 0.606999 0.707699
O O6 0.306324 0.607406 0.821875
O O7 0.225250 0.614852 0.000000
O O8 0.500000 0.794427 0.750000
O O9 0.541085 0.824453 0.500000
O O10 0.559062 0.886357 0.726488
O O11 0.500000 0.655659 0.750000
O O12 0.410380 0.589621 0.750000
O O13 0.449739 0.633155 0.500000
O O14 0.734461 0.941156 0.500000
O O15 0.646703 0.944403 0.662435
O O16 0.733436 0.000000 0.750000
O O17 0.949568 0.441342 0.500000
O O18 0.000000 0.439277 0.250000
#
# Coordination Sequence:
#
# PCOD9562470 Si02
#       6
#    16  16  16  16  16  16
#     4  11  22  36  57  87 120 155 194 238 284 337
#     4  10  22  39  59  84 113 147 185 225 278 336
#     4  11  22  35  51  74 103 140 185 233 283 333
#     4  11  24  43  65  90 115 143 178 222 276 340
#     4  10  19  35  56  81 112 151 195 238 288 341
#     4   9  19  33  50  71  98 136 181 230 281 330
#
# _framework density 18.476229
#
# number of rings (size 3 to 8) (size 9 to 14) (size 15 to 20)
#    0.000    1.667    1.667    3.000    0.000    5.833 
#    0.000    2.500    0.000    0.000    0.000    0.000 
#    0.000    0.333    0.000    3.333    0.000    2.000 
#
# Total GULP energy -534974.253100 kJ/mol
# GULP energy per Si atom -5572.648470 kJ/mol
# Density = 1.843418 g / cm^3
# Si number density = 18.476229 Si / 1000 Ang^3
#
#
#
# Elastic Constant Matrix: (Units=GPa)
#
#
# Indices 1 2 3 4 5 6 
#
# 1 65.7765 38.5941 52.1746 0.0000 0.0000 0.0000
# 2 38.5941 65.7765 52.1739 0.0000 0.0000 0.0000
# 3 52.1746 52.1739 124.9912 0.0000 0.0000 0.0000
# 4 0.0000 0.0000 0.0000 25.6853 0.0000 0.0000
# 5 0.0000 0.0000 0.0000 0.0000 25.6885 0.0000
# 6 0.0000 0.0000 0.0000 0.0000 0.0000 47.3916
#
#
#
# Elastic Compliance Matrix: (Units=1/GPa)
#
#
# Indices 1 2 3 4 5 6 
#
# 1 0.026616 -0.010172 -0.006864 0.000000 0.000000 0.000000
# 2 -0.010172 0.026616 -0.006864 0.000000 0.000000 0.000000
# 3 -0.006864 -0.006864 0.013731 0.000000 0.000000 0.000000
# 4 0.000000 0.000000 0.000000 0.038933 0.000000 0.000000
# 5 0.000000 0.000000 0.000000 0.000000 0.038928 0.000000
# 6 0.000000 0.000000 0.000000 0.000000 0.000000 0.021101
#
#
# Mechanical properties :
#
#
# Convention : Reuss Voigt Hill
#
# Bulk Modulus (GPa) = 52.18531 60.26994 56.22763
# Shear Modulus (GPa) = 22.71557 27.32650 25.02104
#
# Velocity S-wave (km/s) = 3.51015 3.84996 3.68398
# Velocity P-wave (km/s) = 6.68836 7.24251 6.97094
#
# Compressibility (1/GPa) = 0.01916248
#
# Stress axis : x y z
#
# Youngs Moduli (GPa) = 37.57089 37.57134 72.82795
#
# Poissons Ratio (x) = 0.38219 0.49991
# Poissons Ratio (y) = 0.38218 0.49988
# Poissons Ratio (z) = 0.25789 0.25788
#
# Static dielectric constant tensor:
#      x y z
#    x 1.652510 0.000000 0.000000 
#    y 0.000000 1.652510 0.000000 
#    z 0.000000 0.000000 1.641330 
# 
# From -- ./inp_files/1366.got.cif
#   From: 2010.05.17/outbox.cif.g08.bks.cpg/sg124_1_cif.got.tgz:1366.got - 2010.05.20 11:49:17.
