data_PCOD9562921
_publ_section_title
;
Structure prediction by ZEFSAII (Michael W. Deem and Ramdas Pophale) SiO2 
 PCOD9562921
Probable space group: P 4/N B M
;
_chemical_formula_sum "Si O2"
_cell_formula_units_Z 112
_cell_length_a 14.755836
_cell_length_b 14.755836
_cell_length_c 28.808986
_cell_angle_alpha 90.000000
_cell_angle_beta 90.000000
_cell_angle_gamma 90.000000
_cell_volume 6272.715810
_symmetry_space_group_name_H-M "P 4/N B M"
_symmetry_group_IT_number 125
_space_group.IT_coordinate_system_code '2'
_symmetry_cell_setting 'tetragonal'
loop_
_space_group_symop_operation_xyz
x,y,z
1/2-y,x,z
1/2-x,1/2-y,z
y,1/2-x,z
x,1/2-y,-z
1/2-x,y,-z
y,x,-z
1/2-y,1/2-x,-z
-x,-y,-z
1/2+y,-x,-z
1/2+x,1/2+y,-z
-y,1/2+x,-z
-x,1/2+y,z
1/2+x,-y,z
-y,-x,z
1/2+y,1/2+x,z
loop_
_atom_site_type_symbol
_atom_site_label
_atom_site_fract_x
_atom_site_fract_y
_atom_site_fract_z
Si Si1 0.420098 0.728873 0.617908
Si Si2 0.837792 0.481706 0.468579
Si Si3 0.105949 0.303365 0.113615
Si Si4 0.297253 0.105345 0.780920
Si Si5 0.427872 0.080970 0.604557
Si Si6 0.505118 0.851702 0.977967
Si Si7 0.650867 0.003549 0.308718
O O1 0.331417 0.668584 0.614202
O O2 0.429220 0.799561 0.576566
O O3 0.506988 0.664839 0.610621
O O4 0.429879 0.776854 0.667358
O O5 0.750000 0.494886 0.500000
O O6 0.917293 0.417293 0.489889
O O7 0.877874 0.572468 0.444843
O O8 0.138106 0.198636 0.107959
O O9 0.071517 0.312037 0.166498
O O10 0.034700 0.333900 0.075202
O O11 0.359838 0.194372 0.776631
O O12 0.317998 0.038460 0.739201
O O13 0.492807 0.992807 0.604198
O O14 0.365930 0.070076 0.650169
O O15 0.414623 0.914623 0.982177
O O16 0.497327 0.750000 0.000000
O O17 0.587573 0.912428 0.000000
O O18 0.558392 0.058392 0.301341
#
# Coordination Sequence:
#
# PCOD9562921 Si02
#       7
#    16  16  16  16  16  16  16
#     4  10  19  32  51  70  92 125 166 208 246 301
#     4  10  20  32  47  69  96 123 152 195 251 306
#     4   9  17  32  55  81 109 142 186 243 291 326
#     4   9  18  32  52  78 106 138 179 224 271 318
#     4   8  17  32  47  67  92 122 162 201 241 291
#     4  11  22  35  57  87 117 155 200 243 295 353
#     4  10  19  31  49  73 102 132 165 208 262 317
#
# _framework density 17.855104999999998
#
# number of rings (size 3 to 8) (size 9 to 14) (size 15 to 20)
#    0.000    2.429    1.429    3.429    0.000    3.286 
#    0.000    2.143    0.000    5.571    0.000    6.000 
#    0.000    0.000    0.000    0.000    0.000    0.000 
#
# Total GULP energy -624267.625056 kJ/mol
# GULP energy per Si atom -5573.818081 kJ/mol
# Density = 1.781447 g / cm^3
# Si number density = 17.855105 Si / 1000 Ang^3
#
#
#
# Elastic Constant Matrix: (Units=GPa)
#
#
# Indices 1 2 3 4 5 6 
#
# 1 70.8429 27.2116 38.5597 0.0000 0.0000 0.0000
# 2 27.2116 70.8430 38.5600 0.0000 0.0000 0.0000
# 3 38.5597 38.5600 126.5990 0.0000 0.0000 0.0000
# 4 0.0000 0.0000 0.0000 20.3286 0.0000 0.0000
# 5 0.0000 0.0000 0.0000 0.0000 20.3285 0.0000
# 6 0.0000 0.0000 0.0000 0.0000 0.0000 19.4362
#
#
#
# Elastic Compliance Matrix: (Units=1/GPa)
#
#
# Indices 1 2 3 4 5 6 
#
# 1 0.018165 -0.004754 -0.004085 0.000000 0.000000 0.000000
# 2 -0.004754 0.018165 -0.004085 0.000000 0.000000 0.000000
# 3 -0.004085 -0.004085 0.010387 0.000000 0.000000 0.000000
# 4 0.000000 0.000000 0.000000 0.049192 0.000000 0.000000
# 5 0.000000 0.000000 0.000000 0.000000 0.049192 0.000000
# 6 0.000000 0.000000 0.000000 0.000000 0.000000 0.051450
#
#
# Mechanical properties :
#
#
# Convention : Reuss Voigt Hill
#
# Bulk Modulus (GPa) = 47.91498 52.99417 50.45458
# Shear Modulus (GPa) = 21.80017 22.94890 22.37453
#
# Velocity S-wave (km/s) = 3.49800 3.58898 3.54378
# Velocity P-wave (km/s) = 6.57331 6.84974 6.71295
#
# Compressibility (1/GPa) = 0.02087030
#
# Stress axis : x y z
#
# Youngs Moduli (GPa) = 55.05034 55.05030 96.27174
#
# Poissons Ratio (x) = 0.26172 0.39325
# Poissons Ratio (y) = 0.26172 0.39325
# Poissons Ratio (z) = 0.22487 0.22487
#
# Static dielectric constant tensor:
#      x y z
#    x 1.638950 0.000000 0.000000 
#    y 0.000000 1.638950 0.000000 
#    z 0.000000 0.000000 1.618490 
# 
# From -- ./inp_files/6423.got.cif
#   From: 2010.05.17/outbox.cif.g08.bks.cpg/sg125_4_cif.got.tgz:6423.got - 2010.05.20 11:54:10.
