data_PCOD9562271
_publ_section_title
;
Structure prediction by ZEFSAII (Michael W. Deem and Ramdas Pophale) SiO2 
 PCOD9562271
Probable space group: P 4/M M M
;
_chemical_formula_sum "Si O2"
_cell_formula_units_Z 80
_cell_length_a 17.058391
_cell_length_b 17.058391
_cell_length_c 19.376623
_cell_angle_alpha 90.000000
_cell_angle_beta 90.000000
_cell_angle_gamma 90.000000
_cell_volume 5638.378405
_symmetry_space_group_name_H-M "P 4/M M M"
_symmetry_group_IT_number 123
_symmetry_cell_setting 'tetragonal'
loop_
_space_group_symop_operation_xyz
x,y,z
-y,x,z
-x,-y,z
y,-x,z
x,-y,-z
-x,y,-z
y,x,-z
-y,-x,-z
-x,-y,-z
y,-x,-z
x,y,-z
-y,x,-z
-x,y,z
x,-y,z
-y,-x,z
y,x,z
loop_
_atom_site_type_symbol
_atom_site_label
_atom_site_fract_x
_atom_site_fract_y
_atom_site_fract_z
Si Si1 0.722893 0.591727 0.187751
Si Si2 0.222895 0.908273 0.812248
Si Si3 0.817313 0.682687 0.078558
Si Si4 0.092915 0.592916 0.419631
Si Si5 0.685704 0.814295 0.695840
O O1 0.707096 0.500000 0.191881
O O2 0.644693 0.644693 0.181701
O O3 0.778372 0.613059 0.122602
O O4 0.769350 0.624012 0.254656
O O5 0.144695 0.855306 0.818298
O O6 0.278373 0.886941 0.877398
O O7 0.269352 0.875990 0.745344
O O8 0.207096 0.000000 0.808119
O O9 0.750000 0.750000 0.077504
O O10 0.837339 0.662660 0.000000
O O11 0.110217 0.610218 0.500000
O O12 0.106674 0.500000 0.408784
O O13 0.143460 0.643459 0.367052
O O14 0.000000 0.606676 0.408783
O O15 0.750000 0.750000 0.673593
#
# Coordination Sequence:
#
# PCOD9562271 Si02
#       5
#    16  16  16  16  16
#     4   9  17  28  43  63  84 108 138 170 206 245
#     4   9  17  28  43  63  84 108 138 170 206 245
#     4   8  15  28  43  58  78 106 138 167 197 239
#     4   9  17  28  43  64  87 109 134 169 214 253
#     4   9  17  29  44  61  83 112 144 171 196 240
#
# _framework density 14.188476
#
# number of rings (size 3 to 8) (size 9 to 14) (size 15 to 20)
#    0.000    3.200    0.000    4.200    0.000    1.600 
#    0.000    0.000    0.000    5.400    0.000   11.200 
#    0.000    0.000    0.000   37.200    0.000    0.000 
#
# Total GULP energy -445369.288485 kJ/mol
# GULP energy per Si atom -5567.116106 kJ/mol
# Density = 1.415618 g / cm^3
# Si number density = 14.188476 Si / 1000 Ang^3
#
#
#
# Elastic Constant Matrix: (Units=GPa)
#
#
# Indices 1 2 3 4 5 6 
#
# 1 97.0587 64.5085 64.9190 0.0000 0.0000 0.0000
# 2 64.5085 97.0587 64.9190 0.0000 0.0000 0.0000
# 3 64.9190 64.9190 123.1398 0.0000 0.0000 0.0000
# 4 0.0000 0.0000 0.0000 13.0748 0.0000 0.0000
# 5 0.0000 0.0000 0.0000 0.0000 13.0748 0.0000
# 6 0.0000 0.0000 0.0000 0.0000 0.0000 16.8084
#
#
#
# Elastic Compliance Matrix: (Units=1/GPa)
#
#
# Indices 1 2 3 4 5 6 
#
# 1 0.020730 -0.009991 -0.005662 0.000000 0.000000 0.000000
# 2 -0.009991 0.020730 -0.005662 0.000000 0.000000 0.000000
# 3 -0.005662 -0.005662 0.014091 0.000000 0.000000 0.000000
# 4 0.000000 0.000000 0.000000 0.076483 0.000000 0.000000
# 5 0.000000 0.000000 0.000000 0.000000 0.076483 0.000000
# 6 0.000000 0.000000 0.000000 0.000000 0.000000 0.059494
#
#
# Mechanical properties :
#
#
# Convention : Reuss Voigt Hill
#
# Bulk Modulus (GPa) = 77.38637 78.43892 77.91265
# Shear Modulus (GPa) = 15.87562 16.78564 16.33063
#
# Velocity S-wave (km/s) = 3.34864 3.44328 3.39629
# Velocity P-wave (km/s) = 8.34334 8.43871 8.39116
#
# Compressibility (1/GPa) = 0.01292217
#
# Stress axis : x y z
#
# Youngs Moduli (GPa) = 48.23818 48.23818 70.96975
#
# Poissons Ratio (x) = 0.48196 0.40181
# Poissons Ratio (y) = 0.48196 0.40181
# Poissons Ratio (z) = 0.27311 0.27311
#
# Static dielectric constant tensor:
#      x y z
#    x 1.449670 0.000000 0.000000 
#    y 0.000000 1.449670 0.000000 
#    z 0.000000 0.000000 1.464560 
# 
# From -- ./inp_files/6266.got.cif
#   From: 2010.05.17/outbox.cif.g08.bks.cpg/sg123_4_cif.got.tgz:6266.got - 2010.05.20 11:43:04.
