data_PCOD9562272
_publ_section_title
;
Structure prediction by ZEFSAII (Michael W. Deem and Ramdas Pophale) SiO2 
 PCOD9562272
Probable space group: P 4/M M M
;
_chemical_formula_sum "Si O2"
_cell_formula_units_Z 104
_cell_length_a 25.908066
_cell_length_b 25.908066
_cell_length_c 7.664873
_cell_angle_alpha 90.000000
_cell_angle_beta 90.000000
_cell_angle_gamma 90.000000
_cell_volume 5144.876484
_symmetry_space_group_name_H-M "P 4/M M M"
_symmetry_group_IT_number 123
_symmetry_cell_setting 'tetragonal'
loop_
_space_group_symop_operation_xyz
x,y,z
-y,x,z
-x,-y,z
y,-x,z
x,-y,-z
-x,y,-z
y,x,-z
-y,-x,-z
-x,-y,-z
y,-x,-z
x,y,-z
-y,x,-z
-x,y,z
x,-y,z
-y,-x,z
y,x,z
loop_
_atom_site_type_symbol
_atom_site_label
_atom_site_fract_x
_atom_site_fract_y
_atom_site_fract_z
Si Si1 0.753781 0.671044 0.207841
Si Si2 0.242063 0.442987 0.798935
Si Si3 0.942101 0.279804 0.702333
Si Si4 0.940837 0.500000 0.706702
Si Si5 0.608906 0.940433 0.794290
Si Si6 0.837933 0.242736 0.711777
Si Si7 0.443276 0.639271 0.710247
O O1 0.702455 0.702455 0.274637
O O2 0.768545 0.614086 0.279178
O O3 0.801350 0.709835 0.234443
O O4 0.745732 0.664331 0.000000
O O5 0.227093 0.500000 0.723747
O O6 0.304480 0.442131 0.793866
O O7 0.223714 0.443011 0.000000
O O8 0.947110 0.265534 0.500000
O O9 0.921694 0.338845 0.709115
O O10 0.895835 0.247292 0.781300
O O11 0.000000 0.278276 0.779508
O O12 0.944851 0.500000 0.500000
O O13 0.915050 0.446309 0.760047
O O14 0.000000 0.500000 0.783503
O O15 0.603825 0.000000 0.730389
O O16 0.617444 0.940765 0.000000
O O17 0.839628 0.243557 0.500000
O O18 0.808557 0.191444 0.768004
O O19 0.438668 0.646201 0.500000
O O20 0.500000 0.616311 0.743640
O O21 0.397789 0.602212 0.769909
#
# Coordination Sequence:
#
# PCOD9562272 Si02
#       7
#    16  16  16   8  16  16  16
#     4   9  17  29  46  67  89 115 148 185 228 278
#     4   9  17  29  45  63  83 108 139 177 220 266
#     4   9  17  30  48  69  94 124 156 189 230 280
#     4   9  15  23  37  57  83 117 157 199 241 283
#     4   9  16  25  39  61  88 118 155 198 238 276
#     4   9  18  32  50  72  96 121 152 191 231 271
#     4   9  17  27  38  54  76 102 133 169 211 261
#
# _framework density 20.214285
#
# number of rings (size 3 to 8) (size 9 to 14) (size 15 to 20)
#    0.000    3.000    0.000    1.154    0.000    5.077 
#    0.000    2.308    1.692    0.000    0.000    2.154 
#    0.000    0.308    0.000    4.308    0.000    0.000 
#
# Total GULP energy -579197.853859 kJ/mol
# GULP energy per Si atom -5569.210133 kJ/mol
# Density = 2.016828 g / cm^3
# Si number density = 20.214285 Si / 1000 Ang^3
#
#
#
# Elastic Constant Matrix: (Units=GPa)
#
#
# Indices 1 2 3 4 5 6 
#
# 1 96.5385 48.7089 1.7708 0.0000 0.0000 0.0000
# 2 48.7089 96.5385 1.7708 0.0000 0.0000 0.0000
# 3 1.7708 1.7708 42.6914 0.0000 0.0000 0.0000
# 4 0.0000 0.0000 0.0000 -8.6337 0.0000 0.0000
# 5 0.0000 0.0000 0.0000 0.0000 -8.6337 0.0000
# 6 0.0000 0.0000 0.0000 0.0000 0.0000 10.1406
#
#
#
# Elastic Compliance Matrix: (Units=1/GPa)
#
#
# Indices 1 2 3 4 5 6 
#
# 1 0.013900 -0.007008 -0.000286 0.000000 0.000000 0.000000
# 2 -0.007008 0.013900 -0.000286 0.000000 0.000000 0.000000
# 3 -0.000286 -0.000286 0.023448 0.000000 0.000000 0.000000
# 4 0.000000 0.000000 0.000000 -0.115825 0.000000 0.000000
# 5 0.000000 0.000000 0.000000 0.000000 -0.115825 0.000000
# 6 0.000000 0.000000 0.000000 0.000000 0.000000 0.098613
#
#
# Mechanical properties :
#
#
# Convention : Reuss Voigt Hill
#
# Bulk Modulus (GPa) = 27.71026 37.80771 32.75898
# Shear Modulus (GPa) = -91.57349 10.80916 -40.38217
#
# Velocity S-wave (km/s) = -6.73793 2.31493 -4.47442
# Velocity P-wave (km/s) = 6.84068 5.08815 3.23309
#
# Compressibility (1/GPa) = 0.03608772
#
# Stress axis : x y z
#
# Youngs Moduli (GPa) = 71.94412 71.94412 42.64824
#
# Poissons Ratio (x) = 0.50418 0.01219
# Poissons Ratio (y) = 0.50418 0.01219
# Poissons Ratio (z) = 0.02057 0.02057
#
# Static dielectric constant tensor:
#      x y z
#    x 1.759150 0.000000 0.000000 
#    y 0.000000 1.759150 0.000000 
#    z 0.000000 0.000000 1.744900 
# 
# From -- ./inp_files/1964.got.cif
#   From: 2010.05.17/outbox.cif.g08.bks.cpg/sg123_1_cif.got.tgz:1964.got - 2010.05.20 11:43:04.
