data_PCOD9562449
_publ_section_title
;
Structure prediction by ZEFSAII (Michael W. Deem and Ramdas Pophale) SiO2 
 PCOD9562449
Probable space group: P 4/M C C
;
_chemical_formula_sum "Si O2"
_cell_formula_units_Z 96
_cell_length_a 24.444826
_cell_length_b 24.444826
_cell_length_c 9.433685
_cell_angle_alpha 90.000000
_cell_angle_beta 90.000000
_cell_angle_gamma 90.000000
_cell_volume 5637.093926
_symmetry_space_group_name_H-M "P 4/M C C"
_symmetry_group_IT_number 124
_symmetry_cell_setting 'tetragonal'
loop_
_space_group_symop_operation_xyz
x,y,z
-y,x,z
-x,-y,z
y,-x,z
x,-y,1/2-z
-x,y,1/2-z
y,x,1/2-z
-y,-x,1/2-z
-x,-y,-z
y,-x,-z
x,y,-z
-y,x,-z
-x,y,1/2+z
x,-y,1/2+z
-y,-x,1/2+z
y,x,1/2+z
loop_
_atom_site_type_symbol
_atom_site_label
_atom_site_fract_x
_atom_site_fract_y
_atom_site_fract_z
Si Si1 0.215372 0.098332 0.500000
Si Si2 0.000000 0.668230 0.250000
Si Si3 0.196751 0.142057 0.000000
Si Si4 0.210649 0.443376 0.671256
Si Si5 0.247247 0.021821 0.000000
Si Si6 0.272997 0.838238 0.249009
Si Si7 0.618716 0.102342 0.338897
Si Si8 0.342097 0.264944 0.666489
O O1 0.159446 0.133458 0.500000
O O2 0.210724 0.033131 0.500000
O O3 0.250238 0.118847 0.365277
O O4 0.017248 0.710472 0.128831
O O5 0.947715 0.628879 0.232655
O O6 0.225815 0.169020 0.135380
O O7 0.212619 0.077804 0.000000
O O8 0.222622 0.500000 0.750000
O O9 0.219646 0.444474 0.500000
O O10 0.146710 0.427504 0.694157
O O11 0.244758 0.395493 0.748582
O O12 0.324721 0.863721 0.331408
O O13 0.297599 0.784316 0.177333
O O14 0.610474 0.082051 0.500000
O O15 0.315465 0.315465 0.750000
O O16 0.352531 0.275468 0.500000
#
# Coordination Sequence:
#
# PCOD9562449 Si02
#       8
#     8   8   8  16   8  16  16  16
#     4  12  22  32  50  77  96 132 174 212 270 349
#     4  12  18  34  53  76 100 129 168 224 278 330
#     4  12  22  36  48  69 108 134 162 218 280 345
#     4  10  22  40  58  78 113 156 196 233 276 329
#     4  12  22  34  52  71 103 132 172 216 280 344
#     4  11  20  33  50  76 107 135 165 213 280 348
#     4  10  19  34  55  76 104 137 171 223 280 327
#     4  11  22  34  55  86 117 149 189 232 281 337
#
# _framework density 17.030052999999999
#
# number of rings (size 3 to 8) (size 9 to 14) (size 15 to 20)
#    0.000    1.000    5.833    2.500    2.333    0.000 
#    1.500    0.417    0.000    2.250    0.000    0.000 
#    0.000    4.333    0.000    3.333    0.000    2.833 
#
# Total GULP energy -535495.026498 kJ/mol
# GULP energy per Si atom -5578.073193 kJ/mol
# Density = 1.699129 g / cm^3
# Si number density = 17.030053 Si / 1000 Ang^3
#
#
#
# Elastic Constant Matrix: (Units=GPa)
#
#
# Indices 1 2 3 4 5 6 
#
# 1 101.1082 47.1015 40.8193 0.0000 0.0000 0.0000
# 2 47.1015 101.1082 40.8193 0.0000 0.0000 0.0000
# 3 40.8193 40.8193 114.7550 0.0000 0.0000 0.0000
# 4 0.0000 0.0000 0.0000 20.3278 0.0000 0.0000
# 5 0.0000 0.0000 0.0000 0.0000 20.3278 0.0000
# 6 0.0000 0.0000 0.0000 0.0000 0.0000 19.8010
#
#
#
# Elastic Compliance Matrix: (Units=1/GPa)
#
#
# Indices 1 2 3 4 5 6 
#
# 1 0.013454 -0.005062 -0.002985 0.000000 0.000000 0.000000
# 2 -0.005062 0.013454 -0.002985 0.000000 0.000000 0.000000
# 3 -0.002985 -0.002985 0.010838 0.000000 0.000000 0.000000
# 4 0.000000 0.000000 0.000000 0.049194 0.000000 0.000000
# 5 0.000000 0.000000 0.000000 0.000000 0.049194 0.000000
# 6 0.000000 0.000000 0.000000 0.000000 0.000000 0.050502
#
#
# Mechanical properties :
#
#
# Convention : Reuss Voigt Hill
#
# Bulk Modulus (GPa) = 63.77176 63.82796 63.79986
# Shear Modulus (GPa) = 23.37253 24.64009 24.00631
#
# Velocity S-wave (km/s) = 3.70865 3.80789 3.75860
# Velocity P-wave (km/s) = 7.47440 7.54283 7.50869
#
# Compressibility (1/GPa) = 0.01568092
#
# Stress axis : x y z
#
# Youngs Moduli (GPa) = 74.32853 74.32853 92.27041
#
# Poissons Ratio (x) = 0.37628 0.27542
# Poissons Ratio (y) = 0.37628 0.27542
# Poissons Ratio (z) = 0.22186 0.22186
#
# Static dielectric constant tensor:
#      x y z
#    x 1.591040 0.000000 0.000000 
#    y 0.000000 1.591040 0.000000 
#    z 0.000000 0.000000 1.677690 
# 
# From -- ./inp_files/1454.got.cif
#   From: 2010.05.17/outbox.cif.g08.bks.cpg/sg124_1_cif.got.tgz:1454.got - 2010.05.20 11:49:17.
