data_PCOD9562416
_publ_section_title
;
Structure prediction by ZEFSAII (Michael W. Deem and Ramdas Pophale) SiO2 
 PCOD9562416
Probable space group: P 4/M C C
;
_chemical_formula_sum "Si O2"
_cell_formula_units_Z 72
_cell_length_a 14.425707
_cell_length_b 14.425707
_cell_length_c 17.855043
_cell_angle_alpha 90.000000
_cell_angle_beta 90.000000
_cell_angle_gamma 90.000000
_cell_volume 3715.652704
_symmetry_space_group_name_H-M "P 4/M C C"
_symmetry_group_IT_number 124
_symmetry_cell_setting 'tetragonal'
loop_
_space_group_symop_operation_xyz
x,y,z
-y,x,z
-x,-y,z
y,-x,z
x,-y,1/2-z
-x,y,1/2-z
y,x,1/2-z
-y,-x,1/2-z
-x,-y,-z
y,-x,-z
x,y,-z
-y,x,-z
-x,y,1/2+z
x,-y,1/2+z
-y,-x,1/2+z
y,x,1/2+z
loop_
_atom_site_type_symbol
_atom_site_label
_atom_site_fract_x
_atom_site_fract_y
_atom_site_fract_z
Si Si1 0.896234 0.541004 0.913835
Si Si2 0.110522 0.889479 0.250000
Si Si3 0.235372 0.580054 0.193899
Si Si4 0.400042 0.620108 0.582991
Si Si5 0.901122 0.698460 0.795265
O O1 0.828761 0.473292 0.867160
O O2 0.902115 0.638393 0.870430
O O3 0.000000 0.500000 0.912451
O O4 0.865571 0.549366 0.000000
O O5 0.194724 0.871222 0.191696
O O6 0.000000 0.880215 0.250000
O O7 0.271562 0.500000 0.250000
O O8 0.316385 0.633279 0.150205
O O9 0.171280 0.648310 0.240698
O O10 0.375275 0.512258 0.588244
O O11 0.372372 0.652747 0.500000
O O12 0.000000 0.692318 0.750000
#
# Coordination Sequence:
#
# PCOD9562416 Si02
#       5
#    16   8  16  16  16
#     4  10  19  32  54  84 116 151 185 227 294 356
#     4   9  20  38  62  86 110 151 198 238 288 343
#     4  10  20  30  52  79 113 144 183 233 287 336
#     4   9  19  36  53  71 106 150 185 225 275 331
#     4  10  19  35  56  82 116 145 184 242 290 340
#
# _framework density 19.377485
#
# number of rings (size 3 to 8) (size 9 to 14) (size 15 to 20)
#    0.000    2.333    2.222    1.333    0.000    4.444 
#    0.000    1.111    0.000    6.667    0.000    6.222 
#    0.000    0.000    0.000    0.000    0.000    0.000 
#
# Total GULP energy -401063.330601 kJ/mol
# GULP energy per Si atom -5570.324036 kJ/mol
# Density = 1.933338 g / cm^3
# Si number density = 19.377485 Si / 1000 Ang^3
#
#
#
# Elastic Constant Matrix: (Units=GPa)
#
#
# Indices 1 2 3 4 5 6 
#
# 1 92.1946 -6.8095 28.1389 0.0000 0.0000 0.0000
# 2 -6.8095 92.1957 28.1391 0.0000 0.0000 0.0000
# 3 28.1389 28.1391 116.0201 0.0000 0.0000 0.0000
# 4 0.0000 0.0000 0.0000 19.8146 0.0000 0.0000
# 5 0.0000 0.0000 0.0000 0.0000 19.8140 0.0000
# 6 0.0000 0.0000 0.0000 0.0000 0.0000 -66.0734
#
#
#
# Elastic Compliance Matrix: (Units=1/GPa)
#
#
# Indices 1 2 3 4 5 6 
#
# 1 0.012020 0.001920 -0.003381 0.000000 0.000000 0.000000
# 2 0.001920 0.012020 -0.003381 0.000000 0.000000 0.000000
# 3 -0.003381 -0.003381 0.010259 0.000000 0.000000 0.000000
# 4 0.000000 0.000000 0.000000 0.050468 0.000000 0.000000
# 5 0.000000 0.000000 0.000000 0.000000 0.050469 0.000000
# 6 0.000000 0.000000 0.000000 0.000000 0.000000 -0.015135
#
#
# Mechanical properties :
#
#
# Convention : Reuss Voigt Hill
#
# Bulk Modulus (GPa) = 40.62505 44.37194 42.49850
# Shear Modulus (GPa) = 36.23404 11.44049 23.83727
#
# Velocity S-wave (km/s) = 4.32893 2.43245 3.51116
# Velocity P-wave (km/s) = 6.78209 5.55315 6.19816
#
# Compressibility (1/GPa) = 0.02461535
#
# Stress axis : x y z
#
# Youngs Moduli (GPa) = 83.19252 83.19352 97.47362
#
# Poissons Ratio (x) = -0.15971 0.32955
# Poissons Ratio (y) = -0.15971 0.32955
# Poissons Ratio (z) = 0.28127 0.28127
#
# Static dielectric constant tensor:
#      x y z
#    x 1.695060 0.000000 0.000000 
#    y 0.000000 1.695060 0.000000 
#    z 0.000000 0.000000 1.680830 
# 
# From -- ./inp_files/4079.got.cif
#   From: 2010.05.17/outbox.cif.g08.bks.cpg/sg124_3_cif.got.tgz:4079.got - 2010.05.20 11:49:17.
