data_PCOD9562927
_publ_section_title
;
Structure prediction by ZEFSAII (Michael W. Deem and Ramdas Pophale) SiO2 
 PCOD9562927
Probable space group: P 4/N B M
;
_chemical_formula_sum "Si O2"
_cell_formula_units_Z 96
_cell_length_a 14.348385
_cell_length_b 14.348385
_cell_length_c 25.870505
_cell_angle_alpha 90.000000
_cell_angle_beta 90.000000
_cell_angle_gamma 90.000000
_cell_volume 5326.120022
_symmetry_space_group_name_H-M "P 4/N B M"
_symmetry_group_IT_number 125
_space_group.IT_coordinate_system_code '2'
_symmetry_cell_setting 'tetragonal'
loop_
_space_group_symop_operation_xyz
x,y,z
1/2-y,x,z
1/2-x,1/2-y,z
y,1/2-x,z
x,1/2-y,-z
1/2-x,y,-z
y,x,-z
1/2-y,1/2-x,-z
-x,-y,-z
1/2+y,-x,-z
1/2+x,1/2+y,-z
-y,1/2+x,-z
-x,1/2+y,z
1/2+x,-y,z
-y,-x,z
1/2+y,1/2+x,z
loop_
_atom_site_type_symbol
_atom_site_label
_atom_site_fract_x
_atom_site_fract_y
_atom_site_fract_z
Si Si1 0.148412 0.005403 0.974132
Si Si2 0.891537 0.814859 0.871190
Si Si3 0.745724 0.099628 0.693420
Si Si4 0.862743 0.859235 0.555768
Si Si5 0.388922 0.455037 0.338072
Si Si6 0.970596 0.875982 0.761841
O O1 0.157184 0.033234 0.914048
O O2 0.250000 0.999307 0.000000
O O3 0.088816 0.088816 0.000000
O O4 0.088351 0.911650 0.980768
O O5 0.794166 0.868963 0.878625
O O6 0.924753 0.838416 0.813562
O O7 0.826902 0.173099 0.708126
O O8 0.662536 0.162536 0.669118
O O9 0.796421 0.019110 0.660850
O O10 0.698690 0.045418 0.740679
O O11 0.751638 0.876073 0.556288
O O12 0.896987 0.896987 0.500000
O O13 0.899818 0.899767 0.609003
O O14 0.474790 0.525211 0.334589
O O15 0.398150 0.394903 0.285436
O O16 0.028773 0.971228 0.771964
#
# Coordination Sequence:
#
# PCOD9562927 Si02
#       6
#    16  16  16  16  16  16
#     4  11  23  42  67  92 120 158 200 244 293 347
#     4  11  22  36  58  86 116 151 193 239 288 350
#     4   9  18  33  51  72 104 148 187 220 273 341
#     4   9  18  32  49  69  96 132 173 218 272 333
#     4  10  19  31  51  77 105 138 178 229 280 332
#     4  10  20  34  52  79 112 143 184 234 284 339
#
# _framework density 18.024379
#
# number of rings (size 3 to 8) (size 9 to 14) (size 15 to 20)
#    0.000    2.000    1.667    3.000    0.000    0.667 
#    0.000    3.333    0.000    3.000    0.000    0.000 
#    0.000    5.333    0.000    0.000    0.000    0.000 
#
# Total GULP energy -535067.284728 kJ/mol
# GULP energy per Si atom -5573.617549 kJ/mol
# Density = 1.798335 g / cm^3
# Si number density = 18.024379 Si / 1000 Ang^3
#
#
#
# Elastic Constant Matrix: (Units=GPa)
#
#
# Indices 1 2 3 4 5 6 
#
# 1 73.6655 44.3317 40.8009 0.0000 0.0000 0.0000
# 2 44.3317 73.6655 40.8009 0.0000 0.0000 0.0000
# 3 40.8009 40.8009 130.4759 0.0000 0.0000 0.0000
# 4 0.0000 0.0000 0.0000 25.6352 0.0000 0.0000
# 5 0.0000 0.0000 0.0000 0.0000 25.6352 0.0000
# 6 0.0000 0.0000 0.0000 0.0000 0.0000 -70.9645
#
#
#
# Elastic Compliance Matrix: (Units=1/GPa)
#
#
# Indices 1 2 3 4 5 6 
#
# 1 0.022452 -0.011639 -0.003381 0.000000 0.000000 0.000000
# 2 -0.011639 0.022452 -0.003381 0.000000 0.000000 0.000000
# 3 -0.003381 -0.003381 0.009779 0.000000 0.000000 0.000000
# 4 0.000000 0.000000 0.000000 0.039009 0.000000 0.000000
# 5 0.000000 0.000000 0.000000 0.000000 0.039009 0.000000
# 6 0.000000 0.000000 0.000000 0.000000 0.000000 -0.014092
#
#
# Mechanical properties :
#
#
# Convention : Reuss Voigt Hill
#
# Bulk Modulus (GPa) = 55.92873 58.85267 57.39070
# Shear Modulus (GPa) = 30.98447 6.18608 18.58527
#
# Velocity S-wave (km/s) = 4.15062 1.85459 3.21459
# Velocity P-wave (km/s) = 7.35303 6.10808 6.75928
#
# Compressibility (1/GPa) = 0.01787990
#
# Stress axis : x y z
#
# Youngs Moduli (GPa) = 44.53998 44.53998 102.25969
#
# Poissons Ratio (x) = 0.51838 0.34578
# Poissons Ratio (y) = 0.51838 0.34578
# Poissons Ratio (z) = 0.15061 0.15061
#
# Static dielectric constant tensor:
#      x y z
#    x 1.635090 0.000000 0.000000 
#    y 0.000000 1.635090 0.000000 
#    z 0.000000 0.000000 1.612750 
# 
# From -- ./inp_files/5902.got.cif
#   From: 2010.05.17/outbox.cif.g08.bks.cpg/sg125_3_cif.got.tgz:5902.got - 2010.05.20 11:54:10.
