data_PCOD9562146
_publ_section_title
;
Structure prediction by ZEFSAII (Michael W. Deem and Ramdas Pophale) SiO2 
 PCOD9562146
Probable space group: P 4/M M M
;
_chemical_formula_sum "Si O2"
_cell_formula_units_Z 120
_cell_length_a 21.888881
_cell_length_b 21.888881
_cell_length_c 14.539800
_cell_angle_alpha 90.000000
_cell_angle_beta 90.000000
_cell_angle_gamma 90.000000
_cell_volume 6966.354216
_symmetry_space_group_name_H-M "P 4/M M M"
_symmetry_group_IT_number 123
_symmetry_cell_setting 'tetragonal'
loop_
_space_group_symop_operation_xyz
x,y,z
-y,x,z
-x,-y,z
y,-x,z
x,-y,-z
-x,y,-z
y,x,-z
-y,-x,-z
-x,-y,-z
y,-x,-z
x,y,-z
-y,x,-z
-x,y,z
x,-y,z
-y,-x,z
y,x,z
loop_
_atom_site_type_symbol
_atom_site_label
_atom_site_fract_x
_atom_site_fract_y
_atom_site_fract_z
Si Si1 0.927792 0.826394 0.235220
Si Si2 0.240314 0.339578 0.212583
Si Si3 0.851386 0.748264 0.102889
Si Si4 0.073270 0.262960 0.394736
Si Si5 0.500000 0.071294 0.389839
Si Si6 0.381621 0.874033 0.293979
Si Si7 0.669006 0.429619 0.889690
Si Si8 0.572264 0.926656 0.104018
O O1 0.886199 0.886199 0.220623
O O2 0.906888 0.773034 0.164415
O O3 0.913553 0.797281 0.335037
O O4 0.000000 0.838263 0.227310
O O5 0.289488 0.289488 0.246567
O O6 0.191574 0.302112 0.150561
O O7 0.198718 0.372912 0.287476
O O8 0.277327 0.389468 0.154507
O O9 0.806557 0.806557 0.096587
O O10 0.870014 0.730574 0.000000
O O11 0.094847 0.259837 0.500000
O O12 0.099836 0.321227 0.341756
O O13 0.000000 0.269858 0.395804
O O14 0.500000 0.072803 0.500000
O O15 0.559908 0.103538 0.350233
O O16 0.500000 0.000000 0.360065
O O17 0.392025 0.898779 0.189882
O O18 0.669273 0.500000 0.859704
O O19 0.605921 0.394080 0.868361
O O20 0.676330 0.428423 0.000000
O O21 0.500000 0.912704 0.116024
O O22 0.578729 0.000000 0.106899
O O23 0.589039 0.906413 0.000000
#
# Coordination Sequence:
#
# PCOD9562146 Si02
#       8
#    16  16  16  16   8  16  16  16
#     4  10  21  38  58  82 109 137 176 228 288 352
#     4  10  21  35  51  76 113 148 185 228 273 322
#     4   9  17  33  56  78 106 145 184 223 269 324
#     4  10  21  37  56  78 105 137 176 225 277 331
#     4  11  24  40  59  85 117 151 187 232 280 328
#     4  12  21  34  58  81 108 148 194 227 270 325
#     4   9  18  32  51  76 109 149 190 231 272 316
#     4   9  18  32  48  71 109 150 185 225 270 317
#
# _framework density 17.225653000000001
#
# number of rings (size 3 to 8) (size 9 to 14) (size 15 to 20)
#    0.000    2.067    2.000    2.400    0.933    4.533 
#    0.000    2.000    0.000    1.200    0.000    3.733 
#    0.000    0.000    0.000    0.000    0.000    5.867 
#
# Total GULP energy -669242.177085 kJ/mol
# GULP energy per Si atom -5577.018142 kJ/mol
# Density = 1.718645 g / cm^3
# Si number density = 17.225653 Si / 1000 Ang^3
#
#
#
# Elastic Constant Matrix: (Units=GPa)
#
#
# Indices 1 2 3 4 5 6 
#
# 1 95.2499 71.2761 34.5585 0.0000 0.0000 0.0000
# 2 71.2761 95.2499 34.5585 0.0000 0.0000 0.0000
# 3 34.5585 34.5585 63.4734 0.0000 0.0000 0.0000
# 4 0.0000 0.0000 0.0000 18.5787 0.0000 0.0000
# 5 0.0000 0.0000 0.0000 0.0000 18.5787 0.0000
# 6 0.0000 0.0000 0.0000 0.0000 0.0000 21.3113
#
#
#
# Elastic Compliance Matrix: (Units=1/GPa)
#
#
# Indices 1 2 3 4 5 6 
#
# 1 0.024735 -0.016977 -0.004224 0.000000 0.000000 0.000000
# 2 -0.016977 0.024735 -0.004224 0.000000 0.000000 0.000000
# 3 -0.004224 -0.004224 0.020354 0.000000 0.000000 0.000000
# 4 0.000000 0.000000 0.000000 0.053825 0.000000 0.000000
# 5 0.000000 0.000000 0.000000 0.000000 0.053825 0.000000
# 6 0.000000 0.000000 0.000000 0.000000 0.000000 0.046924
#
#
# Mechanical properties :
#
#
# Convention : Reuss Voigt Hill
#
# Bulk Modulus (GPa) = 52.70197 59.41773 56.05985
# Shear Modulus (GPa) = 17.75735 19.26573 18.51154
#
# Velocity S-wave (km/s) = 3.21419 3.34793 3.28174
# Velocity P-wave (km/s) = 6.66605 7.03658 6.85382
#
# Compressibility (1/GPa) = 0.01897462
#
# Stress axis : x y z
#
# Youngs Moduli (GPa) = 40.42819 40.42819 49.12977
#
# Poissons Ratio (x) = 0.68635 0.20753
# Poissons Ratio (y) = 0.68635 0.20753
# Poissons Ratio (z) = 0.17077 0.17077
#
# Static dielectric constant tensor:
#      x y z
#    x 1.586190 0.000000 0.000000 
#    y 0.000000 1.586190 0.000000 
#    z 0.000000 0.000000 1.602890 
# 
# From -- ./inp_files/4613.got.cif
#   From: 2010.05.17/outbox.cif.g08.bks.cpg/sg123_3_cif.got.tgz:4613.got - 2010.05.20 11:43:04.
