data_PCOD9562390
_publ_section_title
;
Structure prediction by ZEFSAII (Michael W. Deem and Ramdas Pophale) SiO2 
 PCOD9562390
Probable space group: P 4/M C C
;
_chemical_formula_sum "Si O2"
_cell_formula_units_Z 96
_cell_length_a 25.424122
_cell_length_b 25.424122
_cell_length_c 9.028050
_cell_angle_alpha 90.000000
_cell_angle_beta 90.000000
_cell_angle_gamma 90.000000
_cell_volume 5835.604942
_symmetry_space_group_name_H-M "P 4/M C C"
_symmetry_group_IT_number 124
_symmetry_cell_setting 'tetragonal'
loop_
_space_group_symop_operation_xyz
x,y,z
-y,x,z
-x,-y,z
y,-x,z
x,-y,1/2-z
-x,y,1/2-z
y,x,1/2-z
-y,-x,1/2-z
-x,-y,-z
y,-x,-z
x,y,-z
-y,x,-z
-x,y,1/2+z
x,-y,1/2+z
-y,-x,1/2+z
y,x,1/2+z
loop_
_atom_site_type_symbol
_atom_site_label
_atom_site_fract_x
_atom_site_fract_y
_atom_site_fract_z
Si Si1 0.252257 0.553669 0.170464
Si Si2 0.333880 0.254997 0.679585
Si Si3 0.748442 0.826924 0.818678
Si Si4 0.749022 0.053126 0.668953
Si Si5 0.551326 0.621616 0.165486
Si Si6 0.052117 0.124359 0.332208
O O1 0.233020 0.500000 0.250000
O O2 0.244291 0.606888 0.264397
O O3 0.315561 0.548826 0.161779
O O4 0.233017 0.558280 0.000000
O O5 0.308090 0.308090 0.750000
O O6 0.297008 0.209358 0.748546
O O7 0.257079 0.330962 0.000000
O O8 0.801985 0.801985 0.750000
O O9 0.738033 0.887696 0.775464
O O10 0.750106 0.823390 0.000000
O O11 0.730355 0.050526 0.500000
O O12 0.812615 0.051164 0.668560
O O13 0.730617 0.000000 0.750000
O O14 0.500000 0.601881 0.250000
O O15 0.602312 0.602312 0.250000
O O16 0.552562 0.601069 0.000000
O O17 0.102621 0.102621 0.250000
O O18 0.052493 0.105872 0.500000
O O19 0.000000 0.105188 0.250000
#
# Coordination Sequence:
#
# PCOD9562390 Si02
#       6
#    16  16  16  16  16  16
#     4  10  20  34  51  71  95 124 156 194 236 285
#     4  11  21  33  50  73 100 132 166 203 245 291
#     4  10  19  32  49  72  99 129 163 201 244 291
#     4   9  19  32  48  68  92 121 154 191 234 283
#     4  10  20  32  46  62  82 109 145 186 230 273
#     4  10  19  31  44  60  80 107 143 185 230 275
#
# _framework density 16.450735999999999
#
# number of rings (size 3 to 8) (size 9 to 14) (size 15 to 20)
#    0.000    2.000    0.000    5.500    0.000    5.667 
#    0.000    1.667    0.000    0.000    0.000    0.000 
#    0.000    0.667    0.000    7.000    0.000    3.833 
#
# Total GULP energy -534996.137741 kJ/mol
# GULP energy per Si atom -5572.876435 kJ/mol
# Density = 1.641329 g / cm^3
# Si number density = 16.450736 Si / 1000 Ang^3
#
#
#
# Elastic Constant Matrix: (Units=GPa)
#
#
# Indices 1 2 3 4 5 6 
#
# 1 83.2394 16.3994 36.9259 0.0000 0.0000 0.0000
# 2 16.3994 83.2394 36.9259 0.0000 0.0000 0.0000
# 3 36.9259 36.9259 124.4323 0.0000 0.0000 0.0000
# 4 0.0000 0.0000 0.0000 16.5892 0.0000 0.0000
# 5 0.0000 0.0000 0.0000 0.0000 16.5892 0.0000
# 6 0.0000 0.0000 0.0000 0.0000 0.0000 16.8306
#
#
#
# Elastic Compliance Matrix: (Units=1/GPa)
#
#
# Indices 1 2 3 4 5 6 
#
# 1 0.013914 -0.001047 -0.003818 0.000000 0.000000 0.000000
# 2 -0.001047 0.013914 -0.003818 0.000000 0.000000 0.000000
# 3 -0.003818 -0.003818 0.010303 0.000000 0.000000 0.000000
# 4 0.000000 0.000000 0.000000 0.060280 0.000000 0.000000
# 5 0.000000 0.000000 0.000000 0.000000 0.060280 0.000000
# 6 0.000000 0.000000 0.000000 0.000000 0.000000 0.059416
#
#
# Mechanical properties :
#
#
# Convention : Reuss Voigt Hill
#
# Bulk Modulus (GPa) = 48.16360 52.37928 50.27144
# Shear Modulus (GPa) = 20.62756 23.37913 22.00334
#
# Velocity S-wave (km/s) = 3.54489 3.77392 3.66119
# Velocity P-wave (km/s) = 6.78940 7.13436 6.96402
#
# Compressibility (1/GPa) = 0.02076257
#
# Stress axis : x y z
#
# Youngs Moduli (GPa) = 71.87181 71.87181 97.06307
#
# Poissons Ratio (x) = 0.07528 0.37060
# Poissons Ratio (y) = 0.07528 0.37060
# Poissons Ratio (z) = 0.27441 0.27441
#
# Static dielectric constant tensor:
#      x y z
#    x 1.564330 0.000000 0.000000 
#    y 0.000000 1.564330 0.000000 
#    z 0.000000 0.000000 1.575150 
# 
# From -- ./inp_files/1558.got.cif
#   From: 2010.05.17/outbox.cif.g08.bks.cpg/sg124_1_cif.got.tgz:1558.got - 2010.05.20 11:49:17.
