data_PCOD9562002
_publ_section_title
;
Structure prediction by ZEFSAII (Michael W. Deem and Ramdas Pophale) SiO2 
 PCOD9562002
Probable space group: P 4/M M M
;
_chemical_formula_sum "Si O2"
_cell_formula_units_Z 104
_cell_length_a 18.122441
_cell_length_b 18.122441
_cell_length_c 18.422888
_cell_angle_alpha 90.000000
_cell_angle_beta 90.000000
_cell_angle_gamma 90.000000
_cell_volume 6050.497710
_symmetry_space_group_name_H-M "P 4/M M M"
_symmetry_group_IT_number 123
_symmetry_cell_setting 'tetragonal'
loop_
_space_group_symop_operation_xyz
x,y,z
-y,x,z
-x,-y,z
y,-x,z
x,-y,-z
-x,y,-z
y,x,-z
-y,-x,-z
-x,-y,-z
y,-x,-z
x,y,-z
-y,x,-z
-x,y,z
x,-y,z
-y,-x,z
y,x,z
loop_
_atom_site_type_symbol
_atom_site_label
_atom_site_fract_x
_atom_site_fract_y
_atom_site_fract_z
Si Si1 0.160739 0.414462 0.307694
Si Si2 0.500000 0.087692 0.917185
Si Si3 0.355967 0.161179 0.150018
Si Si4 0.000000 0.421684 0.637040
Si Si5 0.582775 0.304495 0.086937
Si Si6 0.734650 0.000000 0.418867
Si Si7 0.838818 0.716543 0.412825
Si Si8 0.087271 0.789607 0.086795
O O1 0.187114 0.500000 0.309631
O O2 0.178675 0.371668 0.234009
O O3 0.180212 0.361007 0.374778
O O4 0.071899 0.417907 0.313443
O O5 0.573680 0.114255 0.877512
O O6 0.500000 0.000000 0.920116
O O7 0.500000 0.117522 0.000000
O O8 0.363786 0.238133 0.108187
O O9 0.280259 0.119866 0.130756
O O10 0.000000 0.354500 0.582066
O O11 0.000000 0.500000 0.598003
O O12 0.500000 0.291543 0.115390
O O13 0.619244 0.380757 0.112253
O O14 0.578557 0.306834 0.000000
O O15 0.748250 0.918817 0.385949
O O16 0.766161 0.000000 0.500000
O O17 0.845606 0.706811 0.500000
O O18 0.775779 0.775779 0.398155
O O19 0.138459 0.861542 0.100658
O O20 0.000000 0.800657 0.102572
O O21 0.093074 0.773198 0.000000
#
# Coordination Sequence:
#
# PCOD9562002 Si02
#       8
#    16   8  16   8  16   8  16  16
#     4  10  20  32  49  75 105 139 172 210 261 315
#     4  11  22  32  48  74 106 146 180 214 266 329
#     4  12  21  33  52  76 108 139 175 220 272 335
#     4   8  16  27  42  64  95 129 162 195 244 301
#     4  10  20  34  51  70  95 129 169 214 263 315
#     4   8  14  27  46  69  96 128 167 209 253 304
#     4   9  18  33  53  76 104 139 178 220 265 319
#     4  10  22  39  58  80 106 140 185 235 285 335
#
# _framework density 17.188668
#
# number of rings (size 3 to 8) (size 9 to 14) (size 15 to 20)
#    0.000    2.077    1.538    2.308    2.154    4.462 
#    0.000    4.615    0.000    0.231    0.000    1.615 
#    0.000    0.308    0.000    1.692    0.000    0.154 
#
# Total GULP energy -579147.117863 kJ/mol
# GULP energy per Si atom -5568.722287 kJ/mol
# Density = 1.714955 g / cm^3
# Si number density = 17.188668 Si / 1000 Ang^3
#
#
#
# Elastic Constant Matrix: (Units=GPa)
#
#
# Indices 1 2 3 4 5 6 
#
# 1 88.9935 62.9575 21.6282 0.0000 0.0000 0.0000
# 2 62.9575 88.9935 21.6282 0.0000 0.0000 0.0000
# 3 21.6282 21.6282 37.8891 0.0000 0.0000 0.0000
# 4 0.0000 0.0000 0.0000 -7.8554 0.0000 0.0000
# 5 0.0000 0.0000 0.0000 0.0000 -7.8554 0.0000
# 6 0.0000 0.0000 0.0000 0.0000 0.0000 22.3793
#
#
#
# Elastic Compliance Matrix: (Units=1/GPa)
#
#
# Indices 1 2 3 4 5 6 
#
# 1 0.023133 -0.015275 -0.004486 0.000000 0.000000 0.000000
# 2 -0.015275 0.023133 -0.004486 0.000000 0.000000 0.000000
# 3 -0.004486 -0.004486 0.031514 0.000000 0.000000 0.000000
# 4 0.000000 0.000000 0.000000 -0.127301 0.000000 0.000000
# 5 0.000000 0.000000 0.000000 0.000000 -0.127301 0.000000
# 6 0.000000 0.000000 0.000000 0.000000 0.000000 0.044684
#
#
# Mechanical properties :
#
#
# Convention : Reuss Voigt Hill
#
# Bulk Modulus (GPa) = 34.14427 47.58933 40.86680
# Shear Modulus (GPa) = -67.67472 8.64451 -29.51511
#
# Velocity S-wave (km/s) = -6.28150 2.24502 -4.14832
# Velocity P-wave (km/s) = 5.71857 5.87084 0.93933
#
# Compressibility (1/GPa) = 0.02928749
#
# Stress axis : x y z
#
# Youngs Moduli (GPa) = 43.22793 43.22793 31.73214
#
# Poissons Ratio (x) = 0.66032 0.14234
# Poissons Ratio (y) = 0.66032 0.14234
# Poissons Ratio (z) = 0.19390 0.19390
#
# Static dielectric constant tensor:
#      x y z
#    x 1.603970 0.000000 0.000000 
#    y 0.000000 1.603970 0.000000 
#    z 0.000000 0.000000 1.622750 
# 
# From -- ./inp_files/5655.got.cif
#   From: 2010.05.17/outbox.cif.g08.bks.cpg/sg123_3_cif.got.tgz:5655.got - 2010.05.20 11:43:04.
