data_PCOD9562563
_publ_section_title
;
Structure prediction by ZEFSAII (Michael W. Deem and Ramdas Pophale) SiO2 
 PCOD9562563
Probable space group: P 4/M C C
;
_chemical_formula_sum "Si O2"
_cell_formula_units_Z 96
_cell_length_a 24.670256
_cell_length_b 24.670256
_cell_length_c 8.692376
_cell_angle_alpha 90.000000
_cell_angle_beta 90.000000
_cell_angle_gamma 90.000000
_cell_volume 5290.367190
_symmetry_space_group_name_H-M "P 4/M C C"
_symmetry_group_IT_number 124
_symmetry_cell_setting 'tetragonal'
loop_
_space_group_symop_operation_xyz
x,y,z
-y,x,z
-x,-y,z
y,-x,z
x,-y,1/2-z
-x,y,1/2-z
y,x,1/2-z
-y,-x,1/2-z
-x,-y,-z
y,-x,-z
x,y,-z
-y,x,-z
-x,y,1/2+z
x,-y,1/2+z
-y,-x,1/2+z
y,x,1/2+z
loop_
_atom_site_type_symbol
_atom_site_label
_atom_site_fract_x
_atom_site_fract_y
_atom_site_fract_z
Si Si1 0.557219 0.939740 0.315258
Si Si2 0.850406 0.766292 0.683895
Si Si3 0.852168 0.354329 0.314972
Si Si4 0.557852 0.642246 0.184039
Si Si5 0.145291 0.060588 0.184891
Si Si6 0.237174 0.557614 0.685150
O O1 0.500000 0.918372 0.250000
O O2 0.553548 0.940913 0.500000
O O3 0.608394 0.903317 0.270664
O O4 0.563613 0.000000 0.250000
O O5 0.799011 0.799011 0.750000
O O6 0.847101 0.766566 0.500000
O O7 0.852457 0.704946 0.742584
O O8 0.903515 0.801755 0.728472
O O9 0.852548 0.348337 0.500000
O O10 0.800609 0.391671 0.274042
O O11 0.500000 0.623298 0.250000
O O12 0.604603 0.604603 0.250000
O O13 0.565267 0.703344 0.244782
O O14 0.557021 0.641678 0.000000
O O15 0.093935 0.093935 0.250000
O O16 0.147781 0.000000 0.250000
O O17 0.141986 0.058892 0.000000
O O18 0.216353 0.500000 0.750000
O O19 0.240144 0.553699 0.500000
#
# Coordination Sequence:
#
# PCOD9562563 Si02
#       6
#    16  16  16  16  16  16
#     4  10  20  35  54  79 111 147 183 227 276 325
#     4  10  22  39  59  81 110 146 184 226 275 323
#     4  10  22  37  56  81 110 144 186 229 273 327
#     4  11  22  38  58  82 110 142 178 220 269 325
#     4  10  21  38  60  87 116 149 185 226 272 322
#     4  10  20  36  56  80 108 141 179 225 277 327
#
# _framework density 18.146187999999999
#
# number of rings (size 3 to 8) (size 9 to 14) (size 15 to 20)
#    0.000    1.833    0.000    5.500    0.000    6.333 
#    0.000    5.000    0.000    0.000    0.000    0.000 
#    0.000    0.000    0.000    0.000    0.000    0.000 
#
# Total GULP energy -536209.048642 kJ/mol
# GULP energy per Si atom -5585.510923 kJ/mol
# Density = 1.810489 g / cm^3
# Si number density = 18.146188 Si / 1000 Ang^3
#
#
#
# Elastic Constant Matrix: (Units=GPa)
#
#
# Indices 1 2 3 4 5 6 
#
# 1 163.2458 99.1179 58.5008 0.0000 0.0000 0.0000
# 2 99.1179 163.2458 58.5008 0.0000 0.0000 0.0000
# 3 58.5008 58.5008 87.0495 0.0000 0.0000 0.0000
# 4 0.0000 0.0000 0.0000 29.0389 0.0000 0.0000
# 5 0.0000 0.0000 0.0000 0.0000 29.0389 0.0000
# 6 0.0000 0.0000 0.0000 0.0000 0.0000 13.5856
#
#
#
# Elastic Compliance Matrix: (Units=1/GPa)
#
#
# Indices 1 2 3 4 5 6 
#
# 1 0.010518 -0.005076 -0.003658 0.000000 0.000000 0.000000
# 2 -0.005076 0.010518 -0.003658 0.000000 0.000000 0.000000
# 3 -0.003658 -0.003658 0.016404 0.000000 0.000000 0.000000
# 4 0.000000 0.000000 0.000000 0.034437 0.000000 0.000000
# 5 0.000000 0.000000 0.000000 0.000000 0.034437 0.000000
# 6 0.000000 0.000000 0.000000 0.000000 0.000000 0.073607
#
#
# Mechanical properties :
#
#
# Convention : Reuss Voigt Hill
#
# Bulk Modulus (GPa) = 78.99824 93.97557 86.48690
# Shear Modulus (GPa) = 23.93236 27.49415 25.71325
#
# Velocity S-wave (km/s) = 3.63556 3.89671 3.76840
# Velocity P-wave (km/s) = 7.82636 8.49390 8.16695
#
# Compressibility (1/GPa) = 0.01265851
#
# Stress axis : x y z
#
# Youngs Moduli (GPa) = 95.07297 95.07297 60.96102
#
# Poissons Ratio (x) = 0.48255 0.22298
# Poissons Ratio (y) = 0.48255 0.22298
# Poissons Ratio (z) = 0.34775 0.34775
#
# Static dielectric constant tensor:
#      x y z
#    x 1.608580 0.000000 0.000000 
#    y 0.000000 1.608580 0.000000 
#    z 0.000000 0.000000 1.607880 
# 
# From -- ./inp_files/1392.got.cif
#   From: 2010.05.17/outbox.cif.g08.bks.cpg/sg124_1_cif.got.tgz:1392.got - 2010.05.20 11:49:17.
