data_PCOD9562173
_publ_section_title
;
Structure prediction by ZEFSAII (Michael W. Deem and Ramdas Pophale) SiO2 
 PCOD9562173
Probable space group: P 4/M M M
;
_chemical_formula_sum "Si O2"
_cell_formula_units_Z 96
_cell_length_a 25.012604
_cell_length_b 25.012604
_cell_length_c 7.908210
_cell_angle_alpha 90.000000
_cell_angle_beta 90.000000
_cell_angle_gamma 90.000000
_cell_volume 4947.616260
_symmetry_space_group_name_H-M "P 4/M M M"
_symmetry_group_IT_number 123
_symmetry_cell_setting 'tetragonal'
loop_
_space_group_symop_operation_xyz
x,y,z
-y,x,z
-x,-y,z
y,-x,z
x,-y,-z
-x,y,-z
y,x,-z
-y,-x,-z
-x,-y,-z
y,-x,-z
x,y,-z
-y,x,-z
-x,y,z
x,-y,z
-y,-x,z
y,x,z
loop_
_atom_site_type_symbol
_atom_site_label
_atom_site_fract_x
_atom_site_fract_y
_atom_site_fract_z
Si Si1 0.732637 0.647639 0.199869
Si Si2 0.560777 0.645681 0.295218
Si Si3 0.439445 0.060244 0.202519
Si Si4 0.351701 0.146877 0.302521
Si Si5 0.232069 0.147125 0.293081
Si Si6 0.060316 0.855041 0.706402
O O1 0.699748 0.699748 0.266205
O O2 0.693813 0.597506 0.230577
O O3 0.790302 0.636909 0.278342
O O4 0.740071 0.654903 0.000000
O O5 0.560714 0.648265 0.500000
O O6 0.500000 0.648226 0.235726
O O7 0.591222 0.591222 0.246284
O O8 0.500000 0.072190 0.264856
O O9 0.396817 0.106385 0.239352
O O10 0.424655 0.000000 0.263514
O O11 0.442466 0.057187 0.000000
O O12 0.347609 0.135526 0.500000
O O13 0.292002 0.140216 0.228207
O O14 0.233368 0.148518 0.500000
O O15 0.201393 0.201393 0.239862
O O16 0.194405 0.097772 0.243413
O O17 0.059221 0.854753 0.500000
O O18 0.091235 0.908766 0.757823
O O19 0.000000 0.851589 0.767628
#
# Coordination Sequence:
#
# PCOD9562173 Si02
#       6
#    16  16  16  16  16  16
#     4  10  21  36  53  74 103 139 176 213 254 302
#     4   9  18  33  53  77 105 136 170 210 255 300
#     4   9  20  40  60  75  98 133 167 202 250 307
#     4  11  21  32  53  81 103 127 164 210 256 305
#     4   8  15  27  41  61  93 129 159 192 241 294
#     4   8  13  21  33  51  80 119 159 196 232 271
#
# _framework density 19.403282999999998
#
# number of rings (size 3 to 8) (size 9 to 14) (size 15 to 20)
#    0.000    2.833    0.000    3.000    0.000    4.333 
#    0.000    4.167    0.000    0.000    0.000    2.333 
#    0.000    0.000    0.000    0.000    0.000    0.500 
#
# Total GULP energy -535235.455182 kJ/mol
# GULP energy per Si atom -5575.369325 kJ/mol
# Density = 1.935912 g / cm^3
# Si number density = 19.403283 Si / 1000 Ang^3
#
#
#
# Elastic Constant Matrix: (Units=GPa)
#
#
# Indices 1 2 3 4 5 6 
#
# 1 191.6978 66.6374 6.4207 0.0000 0.0000 0.0000
# 2 66.6374 191.6978 6.4207 0.0000 0.0000 0.0000
# 3 6.4207 6.4207 18.4335 0.0000 0.0000 0.0000
# 4 0.0000 0.0000 0.0000 7.3041 0.0000 0.0000
# 5 0.0000 0.0000 0.0000 0.0000 7.3041 0.0000
# 6 0.0000 0.0000 0.0000 0.0000 0.0000 22.5091
#
#
#
# Elastic Compliance Matrix: (Units=1/GPa)
#
#
# Indices 1 2 3 4 5 6 
#
# 1 0.005968 -0.002028 -0.001372 0.000000 0.000000 0.000000
# 2 -0.002028 0.005968 -0.001372 0.000000 0.000000 0.000000
# 3 -0.001372 -0.001372 0.055205 0.000000 0.000000 0.000000
# 4 0.000000 0.000000 0.000000 0.136909 0.000000 0.000000
# 5 0.000000 0.000000 0.000000 0.000000 0.136909 0.000000
# 6 0.000000 0.000000 0.000000 0.000000 0.000000 0.044426
#
#
# Mechanical properties :
#
#
# Convention : Reuss Voigt Hill
#
# Bulk Modulus (GPa) = 17.36263 62.30964 39.83613
# Shear Modulus (GPa) = 12.07354 28.91348 20.49351
#
# Velocity S-wave (km/s) = 2.49718 3.86441 3.25343
# Velocity P-wave (km/s) = 4.15720 7.21763 5.88967
#
# Compressibility (1/GPa) = 0.05759497
#
# Stress axis : x y z
#
# Youngs Moduli (GPa) = 167.57045 167.57045 18.11430
#
# Poissons Ratio (x) = 0.33992 0.02485
# Poissons Ratio (y) = 0.33992 0.02485
# Poissons Ratio (z) = 0.22992 0.22992
#
# Static dielectric constant tensor:
#      x y z
#    x 1.673670 0.000000 0.000000 
#    y 0.000000 1.673670 0.000000 
#    z 0.000000 0.000000 1.710850 
# 
# From -- ./inp_files/1654.got.cif
#   From: 2010.05.17/outbox.cif.g08.bks.cpg/sg123_1_cif.got.tgz:1654.got - 2010.05.20 11:43:04.
