data_PCOD9562278
_publ_section_title
;
Structure prediction by ZEFSAII (Michael W. Deem and Ramdas Pophale) SiO2 
 PCOD9562278
Probable space group: P 4/M M M
;
_chemical_formula_sum "Si O2"
_cell_formula_units_Z 64
_cell_length_a 20.505109
_cell_length_b 20.505109
_cell_length_c 7.444342
_cell_angle_alpha 90.000000
_cell_angle_beta 90.000000
_cell_angle_gamma 90.000000
_cell_volume 3130.044279
_symmetry_space_group_name_H-M "P 4/M M M"
_symmetry_group_IT_number 123
_symmetry_cell_setting 'tetragonal'
loop_
_space_group_symop_operation_xyz
x,y,z
-y,x,z
-x,-y,z
y,-x,z
x,-y,-z
-x,y,-z
y,x,-z
-y,-x,-z
-x,-y,-z
y,-x,-z
x,y,-z
-y,x,-z
-x,y,z
x,-y,z
-y,-x,z
y,x,z
loop_
_atom_site_type_symbol
_atom_site_label
_atom_site_fract_x
_atom_site_fract_y
_atom_site_fract_z
Si Si1 0.429131 0.326052 0.716813
Si Si2 0.175420 0.428322 0.205490
Si Si3 0.285195 0.818637 0.212307
Si Si4 0.823272 0.073839 0.716965
O O1 0.424294 0.319537 0.500000
O O2 0.500000 0.355699 0.756355
O O3 0.370832 0.370832 0.780628
O O4 0.427958 0.254021 0.794614
O O5 0.156638 0.500000 0.283642
O O6 0.162771 0.356620 0.287596
O O7 0.150780 0.428225 0.000000
O O8 0.245110 0.754891 0.283784
O O9 0.236507 0.879399 0.231718
O O10 0.294982 0.806350 0.000000
O O11 0.824426 0.072000 0.500000
O O12 0.888665 0.111336 0.776609
O O13 0.817862 0.000000 0.782471
#
# Coordination Sequence:
#
# PCOD9562278 Si02
#       4
#    16  16  16  16
#     4   9  17  27  38  54  77 106 141 181 226 276
#     4   9  17  29  45  64  86 113 147 189 234 275
#     4   9  17  29  46  68  93 121 153 189 229 272
#     4   9  18  32  50  73  99 125 152 181 215 258
#
# _framework density 20.446995999999999
#
# number of rings (size 3 to 8) (size 9 to 14) (size 15 to 20)
#    0.000    3.000    0.000    0.750    0.000    3.500 
#    0.000    5.000    0.000    0.750    0.000   12.250 
#    0.000    0.000    0.000    0.000    0.000    0.000 
#
# Total GULP energy -356421.741337 kJ/mol
# GULP energy per Si atom -5569.089708 kJ/mol
# Density = 2.040046 g / cm^3
# Si number density = 20.446996 Si / 1000 Ang^3
#
#
#
# Elastic Constant Matrix: (Units=GPa)
#
#
# Indices 1 2 3 4 5 6 
#
# 1 122.1221 41.9897 0.6218 0.0000 0.0000 0.0000
# 2 41.9897 122.1221 0.6218 0.0000 0.0000 0.0000
# 3 0.6218 0.6218 63.7942 0.0000 0.0000 0.0000
# 4 0.0000 0.0000 0.0000 10.0380 0.0000 0.0000
# 5 0.0000 0.0000 0.0000 0.0000 10.0380 0.0000
# 6 0.0000 0.0000 0.0000 0.0000 0.0000 14.2365
#
#
#
# Elastic Compliance Matrix: (Units=1/GPa)
#
#
# Indices 1 2 3 4 5 6 
#
# 1 0.009287 -0.003193 -0.000059 0.000000 0.000000 0.000000
# 2 -0.003193 0.009287 -0.000059 0.000000 0.000000 0.000000
# 3 -0.000059 -0.000059 0.015677 0.000000 0.000000 0.000000
# 4 0.000000 0.000000 0.000000 0.099622 0.000000 0.000000
# 5 0.000000 0.000000 0.000000 0.000000 0.099622 0.000000
# 6 0.000000 0.000000 0.000000 0.000000 0.000000 0.070242
#
#
# Mechanical properties :
#
#
# Convention : Reuss Voigt Hill
#
# Bulk Modulus (GPa) = 36.19689 43.83390 40.01540
# Shear Modulus (GPa) = 15.64616 24.51616 20.08116
#
# Velocity S-wave (km/s) = 2.76924 3.46643 3.13726
# Velocity P-wave (km/s) = 5.28830 6.12420 5.72154
#
# Compressibility (1/GPa) = 0.02762668
#
# Stress axis : x y z
#
# Youngs Moduli (GPa) = 107.68207 107.68207 63.78946
#
# Poissons Ratio (x) = 0.34380 0.00379
# Poissons Ratio (y) = 0.34380 0.00379
# Poissons Ratio (z) = 0.00640 0.00640
#
# Static dielectric constant tensor:
#      x y z
#    x 1.736870 0.000000 0.000000 
#    y 0.000000 1.736870 0.000000 
#    z 0.000000 0.000000 1.786680 
# 
# From -- ./inp_files/861.got.cif
#   From: 2010.05.17/outbox.cif.g08.bks.cpg/sg123_1_cif.got.tgz:861.got - 2010.05.20 11:43:04.
