data_PCOD9562553
_publ_section_title
;
Structure prediction by ZEFSAII (Michael W. Deem and Ramdas Pophale) SiO2 
 PCOD9562553
Probable space group: P 4/M C C
;
_chemical_formula_sum "Si O2"
_cell_formula_units_Z 104
_cell_length_a 17.486906
_cell_length_b 17.486906
_cell_length_c 18.264421
_cell_angle_alpha 90.000000
_cell_angle_beta 90.000000
_cell_angle_gamma 90.000000
_cell_volume 5585.111661
_symmetry_space_group_name_H-M "P 4/M C C"
_symmetry_group_IT_number 124
_symmetry_cell_setting 'tetragonal'
loop_
_space_group_symop_operation_xyz
x,y,z
-y,x,z
-x,-y,z
y,-x,z
x,-y,1/2-z
-x,y,1/2-z
y,x,1/2-z
-y,-x,1/2-z
-x,-y,-z
y,-x,-z
x,y,-z
-y,x,-z
-x,y,1/2+z
x,-y,1/2+z
-y,-x,1/2+z
y,x,1/2+z
loop_
_atom_site_type_symbol
_atom_site_label
_atom_site_fract_x
_atom_site_fract_y
_atom_site_fract_z
Si Si1 0.269849 0.925103 0.915040
Si Si2 0.500000 0.000000 0.136492
Si Si3 0.647440 0.787563 0.827914
Si Si4 0.225497 0.663598 0.654581
Si Si5 0.988867 0.874973 0.163978
Si Si6 0.171938 0.492823 0.085090
Si Si7 0.041494 0.341227 0.677357
O O1 0.288151 0.850214 0.867181
O O2 0.195049 0.968061 0.886272
O O3 0.329808 0.990890 0.894716
O O4 0.268370 0.905488 0.000000
O O5 0.520001 0.079661 0.094162
O O6 0.432048 0.036196 0.184333
O O7 0.641213 0.775452 0.740418
O O8 0.701427 0.719191 0.857618
O O9 0.565811 0.797910 0.868042
O O10 0.685894 0.872146 0.833346
O O11 0.215140 0.584621 0.610296
O O12 0.066156 0.920390 0.149246
O O13 0.000000 0.856535 0.250000
O O14 0.186489 0.508023 0.000000
O O15 0.000000 0.309597 0.750000
#
# Coordination Sequence:
#
# PCOD9562553 Si02
#       7
#    16   8  16  16  16  16  16
#     4  12  25  36  54  84 121 159 194 250 318 371
#     4  10  20  34  60  88 120 158 200 242 302 368
#     4  10  24  40  65  93 119 168 215 258 305 383
#     4  11  23  42  63  90 128 163 209 262 316 373
#     4   9  21  41  63  79 101 147 208 263 306 360
#     4  11  22  39  63  92 131 165 204 260 321 386
#     4  11  20  37  59  87 119 157 207 250 294 359
#
# _framework density 18.620936
#
# number of rings (size 3 to 8) (size 9 to 14) (size 15 to 20)
#    0.000    1.385    3.077    2.308    2.154    8.000 
#    0.000    0.769    0.000    0.462    0.000    3.231 
#    0.000    0.000    0.000    0.000    0.000    0.000 
#
# Total GULP energy -579092.791542 kJ/mol
# GULP energy per Si atom -5568.199919 kJ/mol
# Density = 1.857855 g / cm^3
# Si number density = 18.620936 Si / 1000 Ang^3
#
#
#
# Elastic Constant Matrix: (Units=GPa)
#
#
# Indices 1 2 3 4 5 6 
#
# 1 109.6823 52.0245 39.5685 0.0000 0.0000 0.0000
# 2 52.0245 109.6823 39.5685 0.0000 0.0000 0.0000
# 3 39.5685 39.5685 89.2430 0.0000 0.0000 0.0000
# 4 0.0000 0.0000 0.0000 10.1833 0.0000 0.0000
# 5 0.0000 0.0000 0.0000 0.0000 10.1833 0.0000
# 6 0.0000 0.0000 0.0000 0.0000 0.0000 33.9389
#
#
#
# Elastic Compliance Matrix: (Units=1/GPa)
#
#
# Indices 1 2 3 4 5 6 
#
# 1 0.012621 -0.004723 -0.003502 0.000000 0.000000 0.000000
# 2 -0.004723 0.012621 -0.003502 0.000000 0.000000 0.000000
# 3 -0.003502 -0.003502 0.014310 0.000000 0.000000 0.000000
# 4 0.000000 0.000000 0.000000 0.098200 0.000000 0.000000
# 5 0.000000 0.000000 0.000000 0.000000 0.098200 0.000000
# 6 0.000000 0.000000 0.000000 0.000000 0.000000 0.029465
#
#
# Mechanical properties :
#
#
# Convention : Reuss Voigt Hill
#
# Bulk Modulus (GPa) = 62.11489 63.43672 62.77580
# Shear Modulus (GPa) = 16.99313 22.69083 19.84198
#
# Velocity S-wave (km/s) = 3.02417 3.49458 3.26785
# Velocity P-wave (km/s) = 6.75456 7.10100 6.92995
#
# Compressibility (1/GPa) = 0.01609920
#
# Stress axis : x y z
#
# Youngs Moduli (GPa) = 79.23485 79.23485 69.87880
#
# Poissons Ratio (x) = 0.37423 0.24469
# Poissons Ratio (y) = 0.37423 0.24469
# Poissons Ratio (z) = 0.27745 0.27745
#
# Static dielectric constant tensor:
#      x y z
#    x 1.703060 0.000000 0.000000 
#    y 0.000000 1.703060 0.000000 
#    z 0.000000 0.000000 1.709330 
# 
# From -- ./inp_files/4350.got.cif
#   From: 2010.05.17/outbox.cif.g08.bks.cpg/sg124_3_cif.got.tgz:4350.got - 2010.05.20 11:49:17.
