data_PCOD9562872
_publ_section_title
;
Structure prediction by ZEFSAII (Michael W. Deem and Ramdas Pophale) SiO2 
 PCOD9562872
Probable space group: P 4/M C C
;
_chemical_formula_sum "Si O2"
_cell_formula_units_Z 72
_cell_length_a 12.000000
_cell_length_b 12.000000
_cell_length_c 27.000000
_cell_angle_alpha 90.000000
_cell_angle_beta 90.000000
_cell_angle_gamma 90.000000
_cell_volume 3888.000000
_symmetry_space_group_name_H-M "P 4/M C C"
_symmetry_group_IT_number 124
_symmetry_cell_setting 'tetragonal'
loop_
_space_group_symop_operation_xyz
x,y,z
-y,x,z
-x,-y,z
y,-x,z
x,-y,1/2-z
-x,y,1/2-z
y,x,1/2-z
-y,-x,1/2-z
-x,-y,-z
y,-x,-z
x,y,-z
-y,x,-z
-x,y,1/2+z
x,-y,1/2+z
-y,-x,1/2+z
y,x,1/2+z
loop_
_atom_site_type_symbol
_atom_site_label
_atom_site_fract_x
_atom_site_fract_y
_atom_site_fract_z
Si Si1 0.592447 0.338231 0.332786
Si Si2 0.000000 0.677129 0.750000
Si Si3 0.500000 0.000000 0.335560
Si Si4 0.185829 0.488412 0.416486
Si Si5 0.900485 0.324362 0.000000
Si Si6 0.243493 0.756508 0.750000
Si Si7 0.829673 0.322768 0.500000
O O1 0.645223 0.460577 0.323917
O O2 0.580092 0.286337 0.388677
O O3 0.667594 0.267807 0.294473
O O4 0.021846 0.601205 0.798259
O O5 0.886217 0.740702 0.762696
O O6 0.478777 0.105132 0.371108
O O7 0.123365 0.401045 0.452084
O O8 0.203315 0.597347 0.452283
O O9 0.798855 0.232133 0.000000
O O10 0.034860 0.301054 0.000000
#
# Coordination Sequence:
#
# PCOD9562872 Si02
#       7
#    16   8   8  16   8   8   8
#     4  11  23  38  61  94 129 162 204 273 339 388
#     4  11  26  39  64  94 128 173 227 270 320 390
#     4  11  20  41  64  92 120 169 224 269 324 400
#     4  11  20  42  65  91 126 168 222 265 330 406
#     4  11  23  38  62  96 123 169 216 270 328 393
#     4  12  24  42  60  92 128 174 220 268 316 388
#     4  11  23  40  66  98 131 169 222 276 330 414
#
# _framework density 18.518519000000001
#
# number of rings (size 3 to 8) (size 9 to 14) (size 15 to 20)
#    0.000    0.889    4.444    4.000    3.111    1.333 
#    0.000    0.000    0.000    5.333    0.000    0.000 
#    0.000    0.000    0.000    0.000    0.000    0.000 
#
# Total GULP energy -400943.982660 kJ/mol
# GULP energy per Si atom -5568.666426 kJ/mol
# Density = 1.847637 g / cm^3
# Si number density = 18.518519 Si / 1000 Ang^3
#
#
#
# Elastic Constant Matrix: (Units=GPa)
#
#
# Indices 1 2 3 4 5 6 
#
# 1 111.1814 53.5235 37.9112 0.0000 0.0000 0.0000
# 2 53.5235 111.1812 37.9111 0.0000 0.0000 0.0000
# 3 37.9112 37.9111 111.1550 0.0000 0.0000 0.0000
# 4 0.0000 0.0000 0.0000 31.6269 0.0000 0.0000
# 5 0.0000 0.0000 0.0000 0.0000 31.6269 0.0000
# 6 0.0000 0.0000 0.0000 0.0000 0.0000 22.3589
#
#
#
# Elastic Compliance Matrix: (Units=1/GPa)
#
#
# Indices 1 2 3 4 5 6 
#
# 1 0.012273 -0.005071 -0.002456 0.000000 0.000000 0.000000
# 2 -0.005071 0.012273 -0.002456 0.000000 0.000000 0.000000
# 3 -0.002456 -0.002456 0.010672 0.000000 0.000000 0.000000
# 4 0.000000 0.000000 0.000000 0.031619 0.000000 0.000000
# 5 0.000000 0.000000 0.000000 0.000000 0.031619 0.000000
# 6 0.000000 0.000000 0.000000 0.000000 0.000000 0.044725
#
#
# Mechanical properties :
#
#
# Convention : Reuss Voigt Hill
#
# Bulk Modulus (GPa) = 65.57013 65.80103 65.68558
# Shear Modulus (GPa) = 29.72103 30.73401 30.22752
#
# Velocity S-wave (km/s) = 4.01051 4.07828 4.04454
# Velocity P-wave (km/s) = 7.54522 7.60172 7.57352
#
# Compressibility (1/GPa) = 0.01525085
#
# Stress axis : x y z
#
# Youngs Moduli (GPa) = 81.47964 81.47958 93.70252
#
# Poissons Ratio (x) = 0.41316 0.23018
# Poissons Ratio (y) = 0.41316 0.23018
# Poissons Ratio (z) = 0.20015 0.20015
#
# Static dielectric constant tensor:
#      x y z
#    x 1.673510 0.000000 0.000000 
#    y 0.000000 1.673500 0.000000 
#    z 0.000000 0.000000 1.661970 
# 
# From -- ./inp_files/6534.got.cif
#   From: 2010.05.17/outbox.ucp.g08.bks.cvg/sg124_4_cif.got.tgz:6534.got - 2010.06.11 11:36:13.
