data_PCOD9562025
_publ_section_title
;
Structure prediction by ZEFSAII (Michael W. Deem and Ramdas Pophale) SiO2 
 PCOD9562025
Probable space group: P 4/M M M
;
_chemical_formula_sum "Si O2"
_cell_formula_units_Z 88
_cell_length_a 13.514393
_cell_length_b 13.514393
_cell_length_c 28.893469
_cell_angle_alpha 90.000000
_cell_angle_beta 90.000000
_cell_angle_gamma 90.000000
_cell_volume 5277.069031
_symmetry_space_group_name_H-M "P 4/M M M"
_symmetry_group_IT_number 123
_symmetry_cell_setting 'tetragonal'
loop_
_space_group_symop_operation_xyz
x,y,z
-y,x,z
-x,-y,z
y,-x,z
x,-y,-z
-x,y,-z
y,x,-z
-y,-x,-z
-x,-y,-z
y,-x,-z
x,y,-z
-y,x,-z
-x,y,z
x,-y,z
-y,-x,z
y,x,z
loop_
_atom_site_type_symbol
_atom_site_label
_atom_site_fract_x
_atom_site_fract_y
_atom_site_fract_z
Si Si1 0.218023 0.617760 0.000000
Si Si2 0.616656 0.221337 0.635605
Si Si3 0.381596 0.779208 0.825460
Si Si4 0.282023 0.882537 0.088165
Si Si5 0.887373 0.380082 0.270038
Si Si6 0.884134 0.719759 0.447031
O O1 0.157371 0.654162 0.044878
O O2 0.231488 0.500000 0.000000
O O3 0.321322 0.678679 0.000000
O O4 0.500000 0.238421 0.638144
O O5 0.677733 0.322268 0.631976
O O6 0.649765 0.164893 0.682306
O O7 0.643967 0.155508 0.591119
O O8 0.500000 0.769516 0.828653
O O9 0.324675 0.675326 0.830827
O O10 0.340333 0.850658 0.865517
O O11 0.354709 0.825767 0.775668
O O12 0.179389 0.820612 0.087537
O O13 0.267958 0.000000 0.085755
O O14 0.891589 0.500000 0.270939
O O15 0.000000 0.343195 0.267404
O O16 0.869298 0.684425 0.500000
O O17 0.818929 0.818929 0.441624
O O18 0.000000 0.738739 0.440535
#
# Coordination Sequence:
#
# PCOD9562025 Si02
#       6
#     8  16  16  16  16  16
#     4  10  21  36  54  78 106 136 171 208 248 298
#     4  10  20  33  49  70  97 129 166 206 246 291
#     4  10  20  33  50  74 103 135 172 210 248 294
#     4  10  21  36  54  77 103 132 169 211 255 304
#     4   9  17  30  49  71  94 123 160 201 245 290
#     4   9  18  32  50  73  99 126 158 197 242 293
#
# _framework density 16.675923000000001
#
# number of rings (size 3 to 8) (size 9 to 14) (size 15 to 20)
#    0.000    2.364    0.000    2.455    0.000    4.818 
#    0.000    1.818    0.000    8.182    0.000    2.545 
#    0.000   13.091    0.000    0.000    0.000    0.000 
#
# Total GULP energy -490756.411597 kJ/mol
# GULP energy per Si atom -5576.777405 kJ/mol
# Density = 1.663797 g / cm^3
# Si number density = 16.675923 Si / 1000 Ang^3
#
#
#
# Elastic Constant Matrix: (Units=GPa)
#
#
# Indices 1 2 3 4 5 6 
#
# 1 109.0321 59.8297 52.1435 0.0000 0.0000 0.0000
# 2 59.8297 109.0313 52.1437 0.0000 0.0000 0.0000
# 3 52.1435 52.1437 127.0391 0.0000 0.0000 0.0000
# 4 0.0000 0.0000 0.0000 22.7131 0.0000 0.0000
# 5 0.0000 0.0000 0.0000 0.0000 22.7130 0.0000
# 6 0.0000 0.0000 0.0000 0.0000 0.0000 5.4115
#
#
#
# Elastic Compliance Matrix: (Units=1/GPa)
#
#
# Indices 1 2 3 4 5 6 
#
# 1 0.014129 -0.006196 -0.003256 0.000000 0.000000 0.000000
# 2 -0.006196 0.014129 -0.003256 0.000000 0.000000 0.000000
# 3 -0.003256 -0.003256 0.010545 0.000000 0.000000 0.000000
# 4 0.000000 0.000000 0.000000 0.044027 0.000000 0.000000
# 5 0.000000 0.000000 0.000000 0.000000 0.044028 0.000000
# 6 0.000000 0.000000 0.000000 0.000000 0.000000 0.184791
#
#
# Mechanical properties :
#
#
# Convention : Reuss Voigt Hill
#
# Bulk Modulus (GPa) = 74.70469 74.81513 74.75991
# Shear Modulus (GPa) = 14.64017 22.23324 18.43670
#
# Velocity S-wave (km/s) = 2.96619 3.65534 3.32865
# Velocity P-wave (km/s) = 7.52504 7.92319 7.72668
#
# Compressibility (1/GPa) = 0.01338604
#
# Stress axis : x y z
#
# Youngs Moduli (GPa) = 70.77851 70.77773 94.83567
#
# Poissons Ratio (x) = 0.43852 0.30879
# Poissons Ratio (y) = 0.43852 0.30880
# Poissons Ratio (z) = 0.23046 0.23046
#
# Static dielectric constant tensor:
#      x y z
#    x 1.538640 0.000000 0.000000 
#    y 0.000000 1.538640 0.000000 
#    z 0.000000 0.000000 1.569660 
# 
# From -- ./inp_files/8457.got.cif
#   From: 2010.05.17/outbox.cif.g08.bks.cpg/sg123_5_cif.got.tgz:8457.got - 2010.05.20 11:43:04.
