data_PCOD9562172
_publ_section_title
;
Structure prediction by ZEFSAII (Michael W. Deem and Ramdas Pophale) SiO2 
 PCOD9562172
Probable space group: P 4/M M M
;
_chemical_formula_sum "Si O2"
_cell_formula_units_Z 96
_cell_length_a 24.857657
_cell_length_b 24.857657
_cell_length_c 8.355919
_cell_angle_alpha 90.000000
_cell_angle_beta 90.000000
_cell_angle_gamma 90.000000
_cell_volume 5163.148350
_symmetry_space_group_name_H-M "P 4/M M M"
_symmetry_group_IT_number 123
_symmetry_cell_setting 'tetragonal'
loop_
_space_group_symop_operation_xyz
x,y,z
-y,x,z
-x,-y,z
y,-x,z
x,-y,-z
-x,y,-z
y,x,-z
-y,-x,-z
-x,-y,-z
y,-x,-z
x,y,-z
-y,x,-z
-x,y,z
x,-y,z
-y,-x,z
y,x,z
loop_
_atom_site_type_symbol
_atom_site_label
_atom_site_fract_x
_atom_site_fract_y
_atom_site_fract_z
Si Si1 0.147862 0.060715 0.307647
Si Si2 0.059805 0.437763 0.304911
Si Si3 0.266856 0.646228 0.809079
Si Si4 0.854638 0.647933 0.310208
Si Si5 0.561662 0.351066 0.306870
Si Si6 0.060779 0.731790 0.189591
O O1 0.155672 0.065092 0.500000
O O2 0.104829 0.104829 0.257260
O O3 0.205194 0.067752 0.224540
O O4 0.128695 0.000000 0.274797
O O5 0.059795 0.435528 0.500000
O O6 0.066046 0.500000 0.259719
O O7 0.108774 0.401451 0.247336
O O8 0.000000 0.419511 0.252643
O O9 0.302418 0.697583 0.752760
O O10 0.204814 0.650338 0.760981
O O11 0.297310 0.593607 0.742495
O O12 0.270151 0.644335 0.000000
O O13 0.848455 0.641954 0.500000
O O14 0.891989 0.699127 0.273706
O O15 0.560462 0.352969 0.500000
O O16 0.500000 0.352793 0.249462
O O17 0.598566 0.401435 0.251386
O O18 0.000000 0.717277 0.246689
O O19 0.063224 0.721845 0.000000
#
# Coordination Sequence:
#
# PCOD9562172 Si02
#       6
#    16  16  16  16  16  16
#     4   9  18  33  53  77 104 133 167 209 258 313
#     4   8  15  29  49  75 106 134 160 196 244 297
#     4  10  22  39  55  73 103 142 181 221 266 316
#     4  11  21  33  55  82 104 132 174 220 265 315
#     4   9  18  34  57  84 113 144 178 218 264 313
#     4  10  21  36  53  74 103 138 174 215 263 313
#
# _framework density 18.593308
#
# number of rings (size 3 to 8) (size 9 to 14) (size 15 to 20)
#    0.000    2.500    0.000    2.500    0.000    5.000 
#    0.000    3.333    0.000    1.500    0.000   10.500 
#    0.000    0.000    0.000    0.000    0.000    0.000 
#
# Total GULP energy -535515.628480 kJ/mol
# GULP energy per Si atom -5578.287797 kJ/mol
# Density = 1.855099 g / cm^3
# Si number density = 18.593308 Si / 1000 Ang^3
#
#
#
# Elastic Constant Matrix: (Units=GPa)
#
#
# Indices 1 2 3 4 5 6 
#
# 1 133.8397 75.6185 11.6141 0.0000 0.0000 0.0000
# 2 75.6185 133.8397 11.6141 0.0000 0.0000 0.0000
# 3 11.6141 11.6141 13.9599 0.0000 0.0000 0.0000
# 4 0.0000 0.0000 0.0000 11.0573 0.0000 0.0000
# 5 0.0000 0.0000 0.0000 0.0000 11.0573 0.0000
# 6 0.0000 0.0000 0.0000 0.0000 0.0000 33.5102
#
#
#
# Elastic Compliance Matrix: (Units=1/GPa)
#
#
# Indices 1 2 3 4 5 6 
#
# 1 0.011218 -0.005958 -0.004376 0.000000 0.000000 0.000000
# 2 -0.005958 0.011218 -0.004376 0.000000 0.000000 0.000000
# 3 -0.004376 -0.004376 0.078915 0.000000 0.000000 0.000000
# 4 0.000000 0.000000 0.000000 0.090438 0.000000 0.000000
# 5 0.000000 0.000000 0.000000 0.000000 0.090438 0.000000
# 6 0.000000 0.000000 0.000000 0.000000 0.000000 0.029842
#
#
# Mechanical properties :
#
#
# Convention : Reuss Voigt Hill
#
# Bulk Modulus (GPa) = 13.90225 53.25920 33.58073
# Shear Modulus (GPa) = 13.68125 23.31112 18.49618
#
# Velocity S-wave (km/s) = 2.71554 3.54466 3.15743
# Velocity P-wave (km/s) = 4.16238 6.74235 5.60289
#
# Compressibility (1/GPa) = 0.07193081
#
# Stress axis : x y z
#
# Youngs Moduli (GPa) = 89.14504 89.14504 12.67192
#
# Poissons Ratio (x) = 0.53114 0.05545
# Poissons Ratio (y) = 0.53114 0.05545
# Poissons Ratio (z) = 0.39007 0.39007
#
# Static dielectric constant tensor:
#      x y z
#    x 1.632130 0.000000 0.000000 
#    y 0.000000 1.632130 0.000000 
#    z 0.000000 0.000000 1.649430 
# 
# From -- ./inp_files/1557.got.cif
#   From: 2010.05.17/outbox.cif.g08.bks.cpg/sg123_1_cif.got.tgz:1557.got - 2010.05.20 11:43:04.
