data_PCOD9562327
_publ_section_title
;
Structure prediction by ZEFSAII (Michael W. Deem and Ramdas Pophale) SiO2 
 PCOD9562327
Probable space group: P 4/M C C
;
_chemical_formula_sum "Si O2"
_cell_formula_units_Z 72
_cell_length_a 10.914438
_cell_length_b 10.914438
_cell_length_c 25.668069
_cell_angle_alpha 90.000000
_cell_angle_beta 90.000000
_cell_angle_gamma 90.000000
_cell_volume 3057.707612
_symmetry_space_group_name_H-M "P 4/M C C"
_symmetry_group_IT_number 124
_symmetry_cell_setting 'tetragonal'
loop_
_space_group_symop_operation_xyz
x,y,z
-y,x,z
-x,-y,z
y,-x,z
x,-y,1/2-z
-x,y,1/2-z
y,x,1/2-z
-y,-x,1/2-z
-x,-y,-z
y,-x,-z
x,y,-z
-y,x,-z
-x,y,1/2+z
x,-y,1/2+z
-y,-x,1/2+z
y,x,1/2+z
loop_
_atom_site_type_symbol
_atom_site_label
_atom_site_fract_x
_atom_site_fract_y
_atom_site_fract_z
Si Si1 0.357182 0.957306 0.694078
Si Si2 0.320175 0.592640 0.834983
Si Si3 0.322937 0.932404 0.088659
Si Si4 0.161572 0.879856 0.000000
Si Si5 0.424784 0.804635 0.560647
O O1 0.358596 0.809352 0.687827
O O2 0.291445 0.032606 0.647746
O O3 0.500000 0.000000 0.689494
O O4 0.311723 0.000000 0.750000
O O5 0.340226 0.448091 0.821061
O O6 0.298766 0.606957 0.897298
O O7 0.229570 0.855280 0.053785
O O8 0.351316 0.067176 0.065257
O O9 0.445178 0.854493 0.081563
O O10 0.158222 0.025112 0.000000
O O11 0.426368 0.767370 0.500000
#
# Coordination Sequence:
#
# PCOD9562327 Si02
#       5
#    16  16  16   8  16
#     4  10  20  40  67  89 120 163 216 263 298 371
#     4  10  22  39  61  96 137 168 201 256 325 382
#     4  10  17  36  59  85 117 160 212 269 311 371
#     4  11  24  37  56  88 126 163 208 267 328 380
#     4  10  17  32  58  88 122 166 210 250 301 380
#
# _framework density 23.547051
#
# number of rings (size 3 to 8) (size 9 to 14) (size 15 to 20)
#    0.000    1.889    6.667    0.667    0.000    4.444 
#    0.000    5.556    0.000    5.333    0.000    1.556 
#    0.000    1.778    0.000    0.000    0.000    0.000 
#
# Total GULP energy -402017.822977 kJ/mol
# GULP energy per Si atom -5583.580875 kJ/mol
# Density = 2.349346 g / cm^3
# Si number density = 23.547051 Si / 1000 Ang^3
#
#
#
# Elastic Constant Matrix: (Units=GPa)
#
#
# Indices 1 2 3 4 5 6 
#
# 1 146.1000 -56.4691 23.6468 0.0000 0.0000 0.0000
# 2 -56.4691 146.1000 23.6468 0.0000 0.0000 0.0000
# 3 23.6468 23.6468 172.6077 0.0000 0.0000 0.0000
# 4 0.0000 0.0000 0.0000 3.3889 0.0000 0.0000
# 5 0.0000 0.0000 0.0000 0.0000 3.3889 0.0000
# 6 0.0000 0.0000 0.0000 0.0000 0.0000 47.6400
#
#
#
# Elastic Compliance Matrix: (Units=1/GPa)
#
#
# Indices 1 2 3 4 5 6 
#
# 1 0.008481 0.003545 -0.001648 0.000000 0.000000 0.000000
# 2 0.003545 0.008481 -0.001648 0.000000 0.000000 0.000000
# 3 -0.001648 -0.001648 0.006245 0.000000 0.000000 0.000000
# 4 0.000000 0.000000 0.000000 0.295083 0.000000 0.000000
# 5 0.000000 0.000000 0.000000 0.000000 0.295083 0.000000
# 6 0.000000 0.000000 0.000000 0.000000 0.000000 0.020991
#
#
# Mechanical properties :
#
#
# Convention : Reuss Voigt Hill
#
# Bulk Modulus (GPa) = 42.18151 49.60629 45.89390
# Shear Modulus (GPa) = 7.79098 42.48243 25.13671
#
# Velocity S-wave (km/s) = 1.82095 4.25214 3.27082
# Velocity P-wave (km/s) = 4.73009 6.72460 5.81352
#
# Compressibility (1/GPa) = 0.02370707
#
# Stress axis : x y z
#
# Youngs Moduli (GPa) = 117.90521 117.90521 160.13057
#
# Poissons Ratio (x) = -0.41795 0.26382
# Poissons Ratio (y) = -0.41795 0.26382
# Poissons Ratio (z) = 0.19426 0.19426
#
# Static dielectric constant tensor:
#      x y z
#    x 1.904280 0.000000 0.000000 
#    y 0.000000 1.904280 0.000000 
#    z 0.000000 0.000000 2.005900 
# 
# From -- ./inp_files/6476.got.cif
#   From: 2010.05.17/outbox.cif.g08.bks.cpg/sg124_4_cif.got.tgz:6476.got - 2010.05.20 11:49:17.
