data_PCOD9562263
_publ_section_title
;
Structure prediction by ZEFSAII (Michael W. Deem and Ramdas Pophale) SiO2 
 PCOD9562263
Probable space group: P 4/M M M
;
_chemical_formula_sum "Si O2"
_cell_formula_units_Z 80
_cell_length_a 23.465946
_cell_length_b 23.465946
_cell_length_c 7.386302
_cell_angle_alpha 90.000000
_cell_angle_beta 90.000000
_cell_angle_gamma 90.000000
_cell_volume 4067.271788
_symmetry_space_group_name_H-M "P 4/M M M"
_symmetry_group_IT_number 123
_symmetry_cell_setting 'tetragonal'
loop_
_space_group_symop_operation_xyz
x,y,z
-y,x,z
-x,-y,z
y,-x,z
x,-y,-z
-x,y,-z
y,x,-z
-y,-x,-z
-x,-y,-z
y,-x,-z
x,y,-z
-y,x,-z
-x,y,z
x,-y,z
-y,-x,z
y,x,z
loop_
_atom_site_type_symbol
_atom_site_label
_atom_site_fract_x
_atom_site_fract_y
_atom_site_fract_z
Si Si1 0.000000 0.092080 0.779385
Si Si2 0.777497 0.000000 0.778591
Si Si3 0.685856 0.909997 0.784331
Si Si4 0.775550 0.314864 0.717355
Si Si5 0.561047 0.780851 0.719004
Si Si6 0.916102 0.561575 0.211958
O O1 0.000000 0.157243 0.717306
O O2 0.944643 0.055358 0.724498
O O3 0.000000 0.092701 0.000000
O O4 0.739893 0.054245 0.720040
O O5 0.779716 0.000000 0.000000
O O6 0.692791 0.842535 0.755702
O O7 0.624002 0.930753 0.712107
O O8 0.682684 0.918961 0.000000
O O9 0.770711 0.315224 0.500000
O O10 0.735369 0.264632 0.787133
O O11 0.757427 0.378129 0.781826
O O12 0.561281 0.779352 0.500000
O O13 0.500000 0.756342 0.779631
O O14 0.561291 0.847274 0.774498
O O15 0.934747 0.500000 0.288336
O O16 0.931910 0.561186 0.000000
#
# Coordination Sequence:
#
# PCOD9562263 Si02
#       6
#     8   8  16  16  16  16
#     4   8  14  25  40  56  73  94 120 150 188 233
#     4   9  17  28  41  59  82 102 124 160 199 232
#     4   9  17  28  41  58  80 105 133 163 195 233
#     4   9  17  28  41  59  84 109 132 163 202 240
#     4   8  13  22  37  55  74 100 134 166 194 226
#     4   8  13  22  36  53  74 101 131 160 189 221
#
# _framework density 19.669205000000002
#
# number of rings (size 3 to 8) (size 9 to 14) (size 15 to 20)
#    0.000    3.500    0.000    0.300    0.000    1.200 
#    0.000    3.000    0.000    3.000    0.000    0.000 
#    0.000   16.400    0.000   10.000    0.000    3.600 
#
# Total GULP energy -445506.955451 kJ/mol
# GULP energy per Si atom -5568.836943 kJ/mol
# Density = 1.962444 g / cm^3
# Si number density = 19.669205 Si / 1000 Ang^3
#
#
#
# Elastic Constant Matrix: (Units=GPa)
#
#
# Indices 1 2 3 4 5 6 
#
# 1 168.5903 98.2867 4.3509 0.0000 0.0000 0.0000
# 2 98.2867 168.5903 4.3509 0.0000 0.0000 0.0000
# 3 4.3509 4.3509 71.6719 0.0000 0.0000 0.0000
# 4 0.0000 0.0000 0.0000 -11.5142 0.0000 0.0000
# 5 0.0000 0.0000 0.0000 0.0000 -11.5142 0.0000
# 6 0.0000 0.0000 0.0000 0.0000 0.0000 -52.8673
#
#
#
# Elastic Compliance Matrix: (Units=1/GPa)
#
#
# Indices 1 2 3 4 5 6 
#
# 1 0.008989 -0.005235 -0.000228 0.000000 0.000000 0.000000
# 2 -0.005235 0.008989 -0.000228 0.000000 0.000000 0.000000
# 3 -0.000228 -0.000228 0.013980 0.000000 0.000000 0.000000
# 4 0.000000 0.000000 0.000000 -0.086850 0.000000 0.000000
# 5 0.000000 0.000000 0.000000 0.000000 -0.086850 0.000000
# 6 0.000000 0.000000 0.000000 0.000000 0.000000 -0.018915
#
#
# Mechanical properties :
#
#
# Convention : Reuss Voigt Hill
#
# Bulk Modulus (GPa) = 48.59696 69.20327 58.90012
# Shear Modulus (GPa) = -35.10854 4.94514 -15.08170
#
# Velocity S-wave (km/s) = -4.22945 1.58733 -2.77206
# Velocity P-wave (km/s) = 0.95382 6.21445 4.44574
#
# Compressibility (1/GPa) = 0.02057742
#
# Stress axis : x y z
#
# Youngs Moduli (GPa) = 111.24392 111.24392 71.53003
#
# Poissons Ratio (x) = 0.58234 0.01630
# Poissons Ratio (y) = 0.58234 0.01630
# Poissons Ratio (z) = 0.02535 0.02535
#
# Static dielectric constant tensor:
#      x y z
#    x 1.719210 0.000000 0.000000 
#    y 0.000000 1.719210 0.000000 
#    z 0.000000 0.000000 1.744000 
# 
# From -- ./inp_files/1478.got.cif
#   From: 2010.05.17/outbox.cif.g08.bks.cpg/sg123_1_cif.got.tgz:1478.got - 2010.05.20 11:43:04.
