data_PCOD9562787
_publ_section_title
;
Structure prediction by ZEFSAII (Michael W. Deem and Ramdas Pophale) SiO2 
 PCOD9562787
Probable space group: P 4/M C C
;
_chemical_formula_sum "Si O2"
_cell_formula_units_Z 64
_cell_length_a 13.990127
_cell_length_b 13.990127
_cell_length_c 16.697365
_cell_angle_alpha 90.000000
_cell_angle_beta 90.000000
_cell_angle_gamma 90.000000
_cell_volume 3268.069281
_symmetry_space_group_name_H-M "P 4/M C C"
_symmetry_group_IT_number 124
_symmetry_cell_setting 'tetragonal'
loop_
_space_group_symop_operation_xyz
x,y,z
-y,x,z
-x,-y,z
y,-x,z
x,-y,1/2-z
-x,y,1/2-z
y,x,1/2-z
-y,-x,1/2-z
-x,-y,-z
y,-x,-z
x,y,-z
-y,x,-z
-x,y,1/2+z
x,-y,1/2+z
-y,-x,1/2+z
y,x,1/2+z
loop_
_atom_site_type_symbol
_atom_site_label
_atom_site_fract_x
_atom_site_fract_y
_atom_site_fract_z
Si Si1 0.609605 0.961038 0.833647
Si Si2 0.608279 0.768307 0.746486
Si Si3 0.118929 0.893866 0.843492
Si Si4 0.867598 0.685043 0.911517
O O1 0.615543 0.848094 0.817763
O O2 0.500000 0.000000 0.837182
O O3 0.652737 0.000000 0.750000
O O4 0.664053 0.018415 0.902165
O O5 0.500000 0.732373 0.750000
O O6 0.685987 0.685987 0.750000
O O7 0.626696 0.820238 0.661091
O O8 0.132906 0.867095 0.750000
O O9 0.203104 0.848385 0.894754
O O10 0.007986 0.871796 0.857159
O O11 0.836024 0.657312 0.000000
#
# Coordination Sequence:
#
# PCOD9562787 Si02
#       4
#    16  16  16  16
#     4   9  17  38  61  83 119 155 194 247 311 376
#     4  11  23  43  67  90 121 166 218 262 317 397
#     4   9  20  36  54  79 121 177 215 240 297 381
#     4  11  23  36  59  95 125 155 206 268 321 368
#
# _framework density 19.583428999999999
#
# number of rings (size 3 to 8) (size 9 to 14) (size 15 to 20)
#    0.000    2.000    5.000    1.500   14.000    1.750 
#    0.000    2.500    0.000    0.000    0.000    1.750 
#    0.000    0.000    0.000    0.000    0.000    0.000 
#
# Total GULP energy -356665.369132 kJ/mol
# GULP energy per Si atom -5572.896393 kJ/mol
# Density = 1.953886 g / cm^3
# Si number density = 19.583429 Si / 1000 Ang^3
#
#
#
# Elastic Constant Matrix: (Units=GPa)
#
#
# Indices 1 2 3 4 5 6 
#
# 1 112.2078 42.7417 28.8446 0.0000 0.0000 0.0000
# 2 42.7417 112.2078 28.8445 0.0000 0.0000 0.0000
# 3 28.8446 28.8445 82.9398 0.0000 0.0000 0.0000
# 4 0.0000 0.0000 0.0000 2.9162 0.0000 0.0000
# 5 0.0000 0.0000 0.0000 0.0000 2.9163 0.0000
# 6 0.0000 0.0000 0.0000 0.0000 0.0000 27.6320
#
#
#
# Elastic Compliance Matrix: (Units=1/GPa)
#
#
# Indices 1 2 3 4 5 6 
#
# 1 0.010905 -0.003491 -0.002578 0.000000 0.000000 0.000000
# 2 -0.003491 0.010905 -0.002578 0.000000 0.000000 0.000000
# 3 -0.002578 -0.002578 0.013850 0.000000 0.000000 0.000000
# 4 0.000000 0.000000 0.000000 0.342911 0.000000 0.000000
# 5 0.000000 0.000000 0.000000 0.000000 0.342898 0.000000
# 6 0.000000 0.000000 0.000000 0.000000 0.000000 0.036190
#
#
# Mechanical properties :
#
#
# Convention : Reuss Voigt Hill
#
# Bulk Modulus (GPa) = 54.45323 56.46856 55.46090
# Shear Modulus (GPa) = 6.40143 20.48789 13.44466
#
# Velocity S-wave (km/s) = 1.80994 3.23799 2.62302
# Velocity P-wave (km/s) = 5.67750 6.54804 6.12825
#
# Compressibility (1/GPa) = 0.01836438
#
# Stress axis : x y z
#
# Youngs Moduli (GPa) = 91.70463 91.70470 72.20073
#
# Poissons Ratio (x) = 0.32014 0.18615
# Poissons Ratio (y) = 0.32013 0.18615
# Poissons Ratio (z) = 0.23644 0.23644
#
# Static dielectric constant tensor:
#      x y z
#    x 1.744520 0.000000 0.000000 
#    y 0.000000 1.744520 0.000000 
#    z 0.000000 0.000000 1.674150 
# 
# From -- ./inp_files/3004.got.cif
#   From: 2010.05.17/outbox.cif.g08.bks.cpg/sg124_2_cif.got.tgz:3004.got - 2010.05.20 11:49:17.
