data_PCOD9562092
_publ_section_title
;
Structure prediction by ZEFSAII (Michael W. Deem and Ramdas Pophale) SiO2 
 PCOD9562092
Probable space group: P 4/M M M
;
_chemical_formula_sum "Si O2"
_cell_formula_units_Z 120
_cell_length_a 28.388454
_cell_length_b 28.388454
_cell_length_c 7.735175
_cell_angle_alpha 90.000000
_cell_angle_beta 90.000000
_cell_angle_gamma 90.000000
_cell_volume 6233.810952
_symmetry_space_group_name_H-M "P 4/M M M"
_symmetry_group_IT_number 123
_symmetry_cell_setting 'tetragonal'
loop_
_space_group_symop_operation_xyz
x,y,z
-y,x,z
-x,-y,z
y,-x,z
x,-y,-z
-x,y,-z
y,x,-z
-y,-x,-z
-x,-y,-z
y,-x,-z
x,y,-z
-y,x,-z
-x,y,z
x,-y,z
-y,-x,z
y,x,z
loop_
_atom_site_type_symbol
_atom_site_label
_atom_site_fract_x
_atom_site_fract_y
_atom_site_fract_z
Si Si1 0.832830 0.554314 0.795636
Si Si2 0.797954 0.871865 0.300636
Si Si3 0.085854 0.380024 0.798539
Si Si4 0.000000 0.554632 0.291326
Si Si5 0.371986 0.553601 0.792952
Si Si6 0.276572 0.946018 0.703280
Si Si7 0.052888 0.874494 0.207994
Si Si8 0.729792 0.553933 0.293894
O O1 0.836639 0.500000 0.726122
O O2 0.868732 0.592929 0.722770
O O3 0.779452 0.572103 0.772980
O O4 0.842811 0.550808 0.000000
O O5 0.786083 0.860180 0.500000
O O6 0.824931 0.824931 0.227044
O O7 0.754110 0.901951 0.223186
O O8 0.838110 0.911812 0.294136
O O9 0.044990 0.418459 0.780567
O O10 0.067872 0.331407 0.717480
O O11 0.094383 0.369173 0.000000
O O12 0.000000 0.500000 0.243444
O O13 0.000000 0.558150 0.500000
O O14 0.374243 0.500000 0.723823
O O15 0.413102 0.586899 0.724665
O O16 0.320353 0.574859 0.757052
O O17 0.376948 0.550800 0.000000
O O18 0.264224 0.948544 0.500000
O O19 0.269257 0.000000 0.773188
O O20 0.073708 0.926293 0.238741
O O21 0.000000 0.868399 0.267756
O O22 0.054666 0.866433 0.000000
O O23 0.732337 0.553069 0.500000
O O24 0.727741 0.500000 0.226598
#
# Coordination Sequence:
#
# PCOD9562092 Si02
#       8
#    16  16  16   8  16  16  16  16
#     4   9  18  33  52  73  98 128 164 208 255 300
#     4   9  18  33  53  74  94 122 162 206 252 300
#     4  11  22  35  53  78 106 138 177 215 252 302
#     4  11  23  37  53  75 109 149 181 211 250 301
#     4   9  17  29  46  69  99 136 175 216 265 321
#     4  10  20  34  52  74 104 138 171 213 264 317
#     4   9  17  28  42  63  91 121 153 190 232 281
#     4   9  17  29  47  71  96 124 163 210 255 300
#
# _framework density 19.249860999999999
#
# number of rings (size 3 to 8) (size 9 to 14) (size 15 to 20)
#    0.000    2.467    0.667    1.800    0.000    5.600 
#    0.000    2.667    0.000    0.800    0.000    7.467 
#    0.000    0.000    0.000    0.000    0.000    0.000 
#
# Total GULP energy -668287.267709 kJ/mol
# GULP energy per Si atom -5569.060564 kJ/mol
# Density = 1.920605 g / cm^3
# Si number density = 19.249861 Si / 1000 Ang^3
#
#
#
# Elastic Constant Matrix: (Units=GPa)
#
#
# Indices 1 2 3 4 5 6 
#
# 1 109.1121 51.1521 -3.5076 0.0000 0.0000 0.0000
# 2 51.1521 109.1121 -3.5076 0.0000 0.0000 0.0000
# 3 -3.5076 -3.5076 31.2034 0.0000 0.0000 0.0000
# 4 0.0000 0.0000 0.0000 -32.1825 0.0000 0.0000
# 5 0.0000 0.0000 0.0000 0.0000 -32.1825 0.0000
# 6 0.0000 0.0000 0.0000 0.0000 0.0000 71.9595
#
#
#
# Elastic Compliance Matrix: (Units=1/GPa)
#
#
# Indices 1 2 3 4 5 6 
#
# 1 0.011762 -0.005491 0.000705 0.000000 0.000000 0.000000
# 2 -0.005491 0.011762 0.000705 0.000000 0.000000 0.000000
# 3 0.000705 0.000705 0.032206 0.000000 0.000000 0.000000
# 4 0.000000 0.000000 0.000000 -0.031073 0.000000 0.000000
# 5 0.000000 0.000000 0.000000 0.000000 -0.031073 0.000000
# 6 0.000000 0.000000 0.000000 0.000000 0.000000 0.013897
#
#
# Mechanical properties :
#
#
# Convention : Reuss Voigt Hill
#
# Bulk Modulus (GPa) = 21.02303 37.52236 29.27270
# Shear Modulus (GPa) = 158.73036 15.20495 86.96766
#
# Velocity S-wave (km/s) = 9.09049 2.81352 6.72877
# Velocity P-wave (km/s) = 11.00579 5.48535 8.69530
#
# Compressibility (1/GPa) = 0.04756687
#
# Stress axis : x y z
#
# Youngs Moduli (GPa) = 85.02024 85.02024 31.04989
#
# Poissons Ratio (x) = 0.46688 -0.02189
# Poissons Ratio (y) = 0.46688 -0.02189
# Poissons Ratio (z) = -0.05993 -0.05993
#
# Static dielectric constant tensor:
#      x y z
#    x 1.692560 0.000000 0.000000 
#    y 0.000000 1.692560 0.000000 
#    z 0.000000 0.000000 1.723920 
# 
# From -- ./inp_files/2051.got.cif
#   From: 2010.05.17/outbox.cif.g08.bks.cpg/sg123_2_cif.got.tgz:2051.got - 2010.05.20 11:43:04.
