data_PCOD9562707
_publ_section_title
;
Structure prediction by ZEFSAII (Michael W. Deem and Ramdas Pophale) SiO2 
 PCOD9562707
Probable space group: P 4/M C C
;
_chemical_formula_sum "Si O2"
_cell_formula_units_Z 48
_cell_length_a 8.666331
_cell_length_b 8.666331
_cell_length_c 33.239035
_cell_angle_alpha 90.000000
_cell_angle_beta 90.000000
_cell_angle_gamma 90.000000
_cell_volume 2496.427463
_symmetry_space_group_name_H-M "P 4/M C C"
_symmetry_group_IT_number 124
_symmetry_cell_setting 'tetragonal'
loop_
_space_group_symop_operation_xyz
x,y,z
-y,x,z
-x,-y,z
y,-x,z
x,-y,1/2-z
-x,y,1/2-z
y,x,1/2-z
-y,-x,1/2-z
-x,-y,-z
y,-x,-z
x,y,-z
-y,x,-z
-x,y,1/2+z
x,-y,1/2+z
-y,-x,1/2+z
y,x,1/2+z
loop_
_atom_site_type_symbol
_atom_site_label
_atom_site_fract_x
_atom_site_fract_y
_atom_site_fract_z
Si Si1 0.447047 0.754810 0.389220
Si Si2 0.500000 0.000000 0.820308
Si Si3 0.246120 0.919459 0.452700
Si Si4 0.256361 0.000000 0.750000
O O1 0.325495 0.613901 0.390896
O O2 0.386557 0.863775 0.425233
O O3 0.454954 0.858020 0.349175
O O4 0.641382 0.019469 0.789783
O O5 0.283708 0.906852 0.500000
O O6 0.094304 0.812465 0.445053
O O7 0.148267 0.851734 0.750000
#
# Coordination Sequence:
#
# PCOD9562707 Si02
#       4
#    16   8  16   8
#     4  11  23  37  56  85 119 155 195 239 292 354
#     4  11  22  40  61  84 118 152 183 230 292 351
#     4   9  19  37  60  85 115 155 203 252 300 347
#     4  10  22  40  64  90 112 142 188 236 282 342
#
# _framework density 19.227477
#
# number of rings (size 3 to 8) (size 9 to 14) (size 15 to 20)
#    0.000    1.833    0.000    5.000    0.000    1.333 
#    0.000    9.167    0.000    8.000    0.000    0.000 
#    0.000    0.000    0.000    0.000    0.000    0.000 
#
# Total GULP energy -267850.899771 kJ/mol
# GULP energy per Si atom -5580.227079 kJ/mol
# Density = 1.918371 g / cm^3
# Si number density = 19.227477 Si / 1000 Ang^3
#
#
#
# Elastic Constant Matrix: (Units=GPa)
#
#
# Indices 1 2 3 4 5 6 
#
# 1 124.8606 87.9345 96.0252 0.0000 0.0000 0.0000
# 2 87.9345 124.8611 96.0251 0.0000 0.0000 0.0000
# 3 96.0252 96.0251 149.4407 0.0000 0.0000 0.0000
# 4 0.0000 0.0000 0.0000 -86.5598 0.0000 0.0000
# 5 0.0000 0.0000 0.0000 0.0000 -86.5763 0.0000
# 6 0.0000 0.0000 0.0000 0.0000 0.0000 43.5278
#
#
#
# Elastic Compliance Matrix: (Units=1/GPa)
#
#
# Indices 1 2 3 4 5 6 
#
# 1 0.019134 -0.007947 -0.007188 0.000000 0.000000 0.000000
# 2 -0.007947 0.019134 -0.007188 0.000000 0.000000 0.000000
# 3 -0.007188 -0.007188 0.015929 0.000000 0.000000 0.000000
# 4 0.000000 0.000000 0.000000 -0.011553 0.000000 0.000000
# 5 0.000000 0.000000 0.000000 0.000000 -0.011551 0.000000
# 6 0.000000 0.000000 0.000000 0.000000 0.000000 0.022974
#
#
# Mechanical properties :
#
#
# Convention : Reuss Voigt Hill
#
# Bulk Modulus (GPa) = 104.71103 106.57024 105.64063
# Shear Modulus (GPa) = 49.06848 -17.97650 15.54599
#
# Velocity S-wave (km/s) = 5.05721 -3.06099 2.84655
# Velocity P-wave (km/s) = 9.41689 6.56151 8.11576
#
# Compressibility (1/GPa) = 0.00955009
#
# Stress axis : x y z
#
# Youngs Moduli (GPa) = 52.26297 52.26352 62.77676
#
# Poissons Ratio (x) = 0.41534 0.45126
# Poissons Ratio (y) = 0.41534 0.45125
# Poissons Ratio (z) = 0.37568 0.37568
#
# Static dielectric constant tensor:
#      x y z
#    x 1.676660 0.000000 0.000000 
#    y 0.000000 1.676660 0.000000 
#    z 0.000000 0.000000 1.640890 
# 
# From -- ./inp_files/6761.got.cif
#   From: 2010.05.17/outbox.cif.g08.bks.cpg/sg124_4_cif.got.tgz:6761.got - 2010.05.20 11:49:17.
