data_PCOD9562633
_publ_section_title
;
Structure prediction by ZEFSAII (Michael W. Deem and Ramdas Pophale) SiO2 
 PCOD9562633
Probable space group: P 4/M C C
;
_chemical_formula_sum "Si O2"
_cell_formula_units_Z 88
_cell_length_a 11.455241
_cell_length_b 11.455241
_cell_length_c 35.782931
_cell_angle_alpha 90.000000
_cell_angle_beta 90.000000
_cell_angle_gamma 90.000000
_cell_volume 4695.527322
_symmetry_space_group_name_H-M "P 4/M C C"
_symmetry_group_IT_number 124
_symmetry_cell_setting 'tetragonal'
loop_
_space_group_symop_operation_xyz
x,y,z
-y,x,z
-x,-y,z
y,-x,z
x,-y,1/2-z
-x,y,1/2-z
y,x,1/2-z
-y,-x,1/2-z
-x,-y,-z
y,-x,-z
x,y,-z
-y,x,-z
-x,y,1/2+z
x,-y,1/2+z
-y,-x,1/2+z
y,x,1/2+z
loop_
_atom_site_type_symbol
_atom_site_label
_atom_site_fract_x
_atom_site_fract_y
_atom_site_fract_z
Si Si1 0.804172 0.991468 0.500000
Si Si2 0.374206 0.061966 0.939559
Si Si3 0.676535 0.566549 0.442610
Si Si4 0.003084 0.803628 0.708311
Si Si5 0.675923 0.566282 0.351738
Si Si6 0.936704 0.375774 0.147707
O O1 0.720591 0.995795 0.535863
O O2 0.883418 0.107936 0.500000
O O3 0.389711 0.195685 0.953400
O O4 0.339226 0.062390 0.895871
O O5 0.500000 0.000000 0.942606
O O6 0.566405 0.646109 0.454235
O O7 0.677229 0.565539 0.397166
O O8 0.000441 0.712855 0.674964
O O9 0.113292 0.889626 0.705564
O O10 0.000000 0.750186 0.750000
O O11 0.566446 0.646085 0.340139
O O12 0.802275 0.609355 0.339755
O O13 0.000000 0.500000 0.149224
#
# Coordination Sequence:
#
# PCOD9562633 Si02
#       6
#     8  16  16  16  16  16
#     4  11  27  46  60  77 110 160 200 233 289 350
#     4  10  22  39  60  85 115 149 188 239 294 343
#     4   8  15  30  54  83 111 141 180 230 284 337
#     4   9  20  39  59  81 116 158 196 240 289 331
#     4   8  15  29  49  77 117 151 175 221 284 339
#     4  10  21  33  58  93 115 142 193 240 285 348
#
# _framework density 18.741239
#
# number of rings (size 3 to 8) (size 9 to 14) (size 15 to 20)
#    0.000    2.818    0.000    1.909    5.091    1.818 
#    0.000    1.818    0.000    1.091    0.000    0.000 
#    0.000    0.000    0.000    0.000    0.000    0.000 
#
# Total GULP energy -490999.835810 kJ/mol
# GULP energy per Si atom -5579.543589 kJ/mol
# Density = 1.869858 g / cm^3
# Si number density = 18.741239 Si / 1000 Ang^3
#
#
#
# Elastic Constant Matrix: (Units=GPa)
#
#
# Indices 1 2 3 4 5 6 
#
# 1 50.8366 0.6814 37.6655 0.0000 0.0000 0.0000
# 2 0.6814 50.8366 37.6655 0.0000 0.0000 0.0000
# 3 37.6655 37.6655 92.1409 0.0000 0.0000 0.0000
# 4 0.0000 0.0000 0.0000 3.5038 0.0000 0.0000
# 5 0.0000 0.0000 0.0000 0.0000 3.5038 0.0000
# 6 0.0000 0.0000 0.0000 0.0000 0.0000 12.9468
#
#
#
# Elastic Compliance Matrix: (Units=1/GPa)
#
#
# Indices 1 2 3 4 5 6 
#
# 1 0.034096 0.014158 -0.019725 0.000000 0.000000 0.000000
# 2 0.014158 0.034096 -0.019725 0.000000 0.000000 0.000000
# 3 -0.019725 -0.019725 0.026979 0.000000 0.000000 0.000000
# 4 0.000000 0.000000 0.000000 0.285406 0.000000 0.000000
# 5 0.000000 0.000000 0.000000 0.000000 0.285406 0.000000
# 6 0.000000 0.000000 0.000000 0.000000 0.000000 0.077239
#
#
# Mechanical properties :
#
#
# Convention : Reuss Voigt Hill
#
# Bulk Modulus (GPa) = 22.42874 38.42655 30.42764
# Shear Modulus (GPa) = 6.18299 11.84430 9.01365
#
# Velocity S-wave (km/s) = 1.81832 2.51667 2.19544
# Velocity P-wave (km/s) = 4.04993 5.38452 4.76419
#
# Compressibility (1/GPa) = 0.04458565
#
# Stress axis : x y z
#
# Youngs Moduli (GPa) = 29.32928 29.32928 37.06535
#
# Poissons Ratio (x) = -0.41523 0.73111
# Poissons Ratio (y) = -0.41523 0.73111
# Poissons Ratio (z) = 0.57852 0.57852
#
# Static dielectric constant tensor:
#      x y z
#    x 1.641420 0.000000 0.000000 
#    y 0.000000 1.641420 0.000000 
#    z 0.000000 0.000000 1.653570 
# 
# From -- ./inp_files/7105.got.cif
#   From: 2010.05.17/outbox.cif.g08.bks.cpg/sg124_4_cif.got.tgz:7105.got - 2010.05.20 11:49:17.
