data_PCOD9562567
_publ_section_title
;
Structure prediction by ZEFSAII (Michael W. Deem and Ramdas Pophale) SiO2 
 PCOD9562567
Probable space group: P 4/M C C
;
_chemical_formula_sum "Si O2"
_cell_formula_units_Z 64
_cell_length_a 20.154233
_cell_length_b 20.154233
_cell_length_c 8.630996
_cell_angle_alpha 90.000000
_cell_angle_beta 90.000000
_cell_angle_gamma 90.000000
_cell_volume 3505.851089
_symmetry_space_group_name_H-M "P 4/M C C"
_symmetry_group_IT_number 124
_symmetry_cell_setting 'tetragonal'
loop_
_space_group_symop_operation_xyz
x,y,z
-y,x,z
-x,-y,z
y,-x,z
x,-y,1/2-z
-x,y,1/2-z
y,x,1/2-z
-y,-x,1/2-z
-x,-y,-z
y,-x,-z
x,y,-z
-y,x,-z
-x,y,1/2+z
x,-y,1/2+z
-y,-x,1/2+z
y,x,1/2+z
loop_
_atom_site_type_symbol
_atom_site_label
_atom_site_fract_x
_atom_site_fract_y
_atom_site_fract_z
Si Si1 0.317034 0.930121 0.184951
Si Si2 0.067010 0.168224 0.685258
Si Si3 0.426891 0.673650 0.315379
Si Si4 0.785183 0.681985 0.314156
O O1 0.240922 0.931247 0.241378
O O2 0.337452 0.857472 0.247609
O O3 0.346753 0.000000 0.250000
O O4 0.321525 0.931612 0.000000
O O5 0.128543 0.128543 0.750000
O O6 0.066543 0.172044 0.500000
O O7 0.000000 0.135368 0.750000
O O8 0.500000 0.683542 0.250000
O O9 0.392420 0.607581 0.250000
O O10 0.429591 0.669484 0.500000
O O11 0.377285 0.734122 0.274909
O O12 0.749371 0.749371 0.250000
O O13 0.790536 0.689065 0.500000
#
# Coordination Sequence:
#
# PCOD9562567 Si02
#       4
#    16  16  16  16
#     4  11  21  34  52  75 102 134 172 220 272 324
#     4  11  21  34  48  65  89 120 159 205 258 317
#     4  10  21  37  59  86 119 153 189 226 267 316
#     4  10  20  35  55  81 110 144 183 227 274 326
#
# _framework density 18.255198
#
# number of rings (size 3 to 8) (size 9 to 14) (size 15 to 20)
#    0.000    1.500    0.000    8.250    0.000    3.500 
#    0.000    2.500    0.000    0.750    0.000    5.250 
#    0.000    0.000    0.000    0.000    0.000    0.000 
#
# Total GULP energy -357069.311201 kJ/mol
# GULP energy per Si atom -5579.207988 kJ/mol
# Density = 1.821365 g / cm^3
# Si number density = 18.255198 Si / 1000 Ang^3
#
#
#
# Elastic Constant Matrix: (Units=GPa)
#
#
# Indices 1 2 3 4 5 6 
#
# 1 104.6527 31.1047 40.3817 0.0000 0.0000 0.0000
# 2 31.1047 104.6563 40.3824 0.0000 0.0000 0.0000
# 3 40.3817 40.3824 101.4780 0.0000 0.0000 0.0000
# 4 0.0000 0.0000 0.0000 32.0379 0.0000 0.0000
# 5 0.0000 0.0000 0.0000 0.0000 32.0384 0.0000
# 6 0.0000 0.0000 0.0000 0.0000 0.0000 15.7256
#
#
#
# Elastic Compliance Matrix: (Units=1/GPa)
#
#
# Indices 1 2 3 4 5 6 
#
# 1 0.011624 -0.001973 -0.003840 0.000000 0.000000 0.000000
# 2 -0.001973 0.011623 -0.003840 0.000000 0.000000 0.000000
# 3 -0.003840 -0.003840 0.012911 0.000000 0.000000 0.000000
# 4 0.000000 0.000000 0.000000 0.031213 0.000000 0.000000
# 5 0.000000 0.000000 0.000000 0.000000 0.031213 0.000000
# 6 0.000000 0.000000 0.000000 0.000000 0.000000 0.063591
#
#
# Mechanical properties :
#
#
# Convention : Reuss Voigt Hill
#
# Bulk Modulus (GPa) = 59.34495 59.39163 59.36829
# Shear Modulus (GPa) = 26.72399 29.22159 27.97279
#
# Velocity S-wave (km/s) = 3.83026 4.00525 3.91873
# Velocity P-wave (km/s) = 7.22082 7.34807 7.28472
#
# Compressibility (1/GPa) = 0.01685063
#
# Stress axis : x y z
#
# Youngs Moduli (GPa) = 86.03162 86.03462 77.45441
#
# Poissons Ratio (x) = 0.16973 0.29746
# Poissons Ratio (y) = 0.16972 0.29745
# Poissons Ratio (z) = 0.33040 0.33040
#
# Static dielectric constant tensor:
#      x y z
#    x 0.039470 0.000000 0.000000 
#    y 0.000000 0.038870 0.000000 
#    z 0.000000 0.000000 1.607090 
# 
# From -- ./inp_files/852.got.cif
#   From: 2010.05.17/outbox.cif.g08.bks.cpg/sg124_1_cif.got.tgz:852.got - 2010.05.20 11:49:17.
