data_PCOD9562895
_publ_section_title
;
Structure prediction by ZEFSAII (Michael W. Deem and Ramdas Pophale) SiO2 
 PCOD9562895
Probable space group: P 4/N B M
;
_chemical_formula_sum "Si O2"
_cell_formula_units_Z 58
_cell_length_a 16.517379
_cell_length_b 16.517379
_cell_length_c 10.684131
_cell_angle_alpha 90.000000
_cell_angle_beta 90.000000
_cell_angle_gamma 90.000000
_cell_volume 2914.885316
_symmetry_space_group_name_H-M "P 4/N B M"
_symmetry_group_IT_number 125
_space_group.IT_coordinate_system_code '2'
_symmetry_cell_setting 'tetragonal'
loop_
_space_group_symop_operation_xyz
x,y,z
1/2-y,x,z
1/2-x,1/2-y,z
y,1/2-x,z
x,1/2-y,-z
1/2-x,y,-z
y,x,-z
1/2-y,1/2-x,-z
-x,-y,-z
1/2+y,-x,-z
1/2+x,1/2+y,-z
-y,1/2+x,-z
-x,1/2+y,z
1/2+x,-y,z
-y,-x,z
1/2+y,1/2+x,z
loop_
_atom_site_type_symbol
_atom_site_label
_atom_site_fract_x
_atom_site_fract_y
_atom_site_fract_z
Si Si1 0.682573 0.182573 0.271944
Si Si2 0.750000 0.250000 0.500000
Si Si3 0.145858 0.338686 0.359076
Si Si4 0.942380 0.925005 0.853412
Si Si5 0.291926 0.573042 0.874320
O O1 0.750000 0.250000 0.233429
O O2 0.691839 0.191839 0.419814
O O3 0.601383 0.219970 0.216946
O O4 0.140920 0.241493 0.347293
O O5 0.128778 0.371223 0.500000
O O6 0.090345 0.374880 0.250047
O O7 0.006810 0.853630 0.825264
O O8 0.917593 0.917593 0.000000
O O9 0.989697 0.010304 0.842212
O O10 0.349749 0.650252 0.907074
O O11 0.250000 0.543506 0.000000
#
# Coordination Sequence:
#
# PCOD9562895 Si02
#       5
#     8   2  16  16  16
#     4   8  16  29  52  75 110 153 191 245 277 332
#     4   8  16  28  50  76 112 140 204 258 264 328
#     4   9  20  41  67  89 112 152 206 257 299 349
#     4  10  23  38  57  88 128 156 192 248 304 364
#     4  10  18  31  54  80 113 154 194 233 297 352
#
# _framework density 19.897867000000002
#
# number of rings (size 3 to 8) (size 9 to 14) (size 15 to 20)
#    0.414    2.207    1.379    0.828    3.862    0.552 
#    0.000    4.138    0.000    0.000    0.000    0.000 
#    0.000    0.000    0.000    0.000    0.000    0.000 
#
# Total GULP energy -322937.800555 kJ/mol
# GULP energy per Si atom -5567.893113 kJ/mol
# Density = 1.985258 g / cm^3
# Si number density = 19.897867 Si / 1000 Ang^3
#
#
#
# Elastic Constant Matrix: (Units=GPa)
#
#
# Indices 1 2 3 4 5 6 
#
# 1 40.3159 23.4849 37.7699 0.0000 0.0000 0.0000
# 2 23.4849 40.3160 37.7700 0.0000 0.0000 0.0000
# 3 37.7699 37.7700 140.1234 0.0000 0.0000 0.0000
# 4 0.0000 0.0000 0.0000 22.1646 0.0000 0.0000
# 5 0.0000 0.0000 0.0000 0.0000 22.1649 0.0000
# 6 0.0000 0.0000 0.0000 0.0000 0.0000 20.4976
#
#
#
# Elastic Compliance Matrix: (Units=1/GPa)
#
#
# Indices 1 2 3 4 5 6 
#
# 1 0.041217 -0.018197 -0.006205 0.000000 0.000000 0.000000
# 2 -0.018197 0.041217 -0.006205 0.000000 0.000000 0.000000
# 3 -0.006205 -0.006205 0.010482 0.000000 0.000000 0.000000
# 4 0.000000 0.000000 0.000000 0.045117 0.000000 0.000000
# 5 0.000000 0.000000 0.000000 0.000000 0.045116 0.000000
# 6 0.000000 0.000000 0.000000 0.000000 0.000000 0.048786
#
#
# Mechanical properties :
#
#
# Convention : Reuss Voigt Hill
#
# Bulk Modulus (GPa) = 31.54338 46.53388 39.03863
# Shear Modulus (GPa) = 16.46266 21.08078 18.77172
#
# Velocity S-wave (km/s) = 2.87950 3.25845 3.07482
# Velocity P-wave (km/s) = 5.19061 6.13138 5.68050
#
# Compressibility (1/GPa) = 0.03170237
#
# Stress axis : x y z
#
# Youngs Moduli (GPa) = 24.26163 24.26161 95.40398
#
# Poissons Ratio (x) = 0.44148 0.59199
# Poissons Ratio (y) = 0.44148 0.59200
# Poissons Ratio (z) = 0.15055 0.15055
#
# Static dielectric constant tensor:
#      x y z
#    x 1.743550 0.000000 0.000000 
#    y 0.000000 1.743550 0.000000 
#    z 0.000000 0.000000 1.754660 
# 
# From -- ./inp_files/2139.got.cif
#   From: 2010.05.17/outbox.cif.g08.bks.cpg/sg125_2_cif.got.tgz:2139.got - 2010.05.20 11:54:10.
