data_PCOD9562726
_publ_section_title
;
Structure prediction by ZEFSAII (Michael W. Deem and Ramdas Pophale) SiO2 
 PCOD9562726
Probable space group: P 4/M C C
;
_chemical_formula_sum "Si O2"
_cell_formula_units_Z 88
_cell_length_a 12.097183
_cell_length_b 12.097183
_cell_length_c 32.970767
_cell_angle_alpha 90.000000
_cell_angle_beta 90.000000
_cell_angle_gamma 90.000000
_cell_volume 4825.002595
_symmetry_space_group_name_H-M "P 4/M C C"
_symmetry_group_IT_number 124
_symmetry_cell_setting 'tetragonal'
loop_
_space_group_symop_operation_xyz
x,y,z
-y,x,z
-x,-y,z
y,-x,z
x,-y,1/2-z
-x,y,1/2-z
y,x,1/2-z
-y,-x,1/2-z
-x,-y,-z
y,-x,-z
x,y,-z
-y,x,-z
-x,y,1/2+z
x,-y,1/2+z
-y,-x,1/2+z
y,x,1/2+z
loop_
_atom_site_type_symbol
_atom_site_label
_atom_site_fract_x
_atom_site_fract_y
_atom_site_fract_z
Si Si1 0.743581 0.140374 0.624090
Si Si2 0.492090 0.123425 0.639137
Si Si3 0.283395 0.915326 0.084804
Si Si4 0.514916 0.315012 0.796894
Si Si5 0.973668 0.187234 0.500000
Si Si6 0.872270 0.137239 0.794392
O O1 0.612971 0.153951 0.622969
O O2 0.806041 0.212385 0.591221
O O3 0.793459 0.171453 0.667889
O O4 0.765341 0.011922 0.613784
O O5 0.404258 0.111199 0.602669
O O6 0.465612 0.213620 0.673015
O O7 0.500000 0.000000 0.657684
O O8 0.263471 0.958647 0.039634
O O9 0.614024 0.402659 0.803541
O O10 0.500000 0.279186 0.750000
O O11 0.089987 0.120202 0.500000
O O12 0.828593 0.171408 0.750000
O O13 0.005775 0.149601 0.796334
#
# Coordination Sequence:
#
# PCOD9562726 Si02
#       6
#    16  16  16  16   8  16
#     4  11  20  36  58  82 118 159 194 243 303 351
#     4  10  23  38  52  82 121 164 191 228 304 373
#     4  11  22  38  60  87 119 151 198 248 299 369
#     4   9  18  37  63  84 105 147 213 268 290 321
#     4  11  22  38  65  99 119 146 199 254 309 363
#     4   9  17  30  50  80 113 149 197 243 288 344
#
# _framework density 18.238332
#
# number of rings (size 3 to 8) (size 9 to 14) (size 15 to 20)
#    0.000    1.909    3.636    2.182    0.000    0.727 
#    6.545    5.000    0.000    0.000    0.000    0.000 
#    0.000    4.364    0.000    0.000    0.000    0.000 
#
# Total GULP energy -490743.053019 kJ/mol
# GULP energy per Si atom -5576.625602 kJ/mol
# Density = 1.819682 g / cm^3
# Si number density = 18.238332 Si / 1000 Ang^3
#
#
#
# Elastic Constant Matrix: (Units=GPa)
#
#
# Indices 1 2 3 4 5 6 
#
# 1 68.4146 39.1176 41.3916 0.0000 0.0000 0.0000
# 2 39.1176 68.4145 41.3916 0.0000 0.0000 0.0000
# 3 41.3916 41.3916 130.2958 0.0000 0.0000 0.0000
# 4 0.0000 0.0000 0.0000 14.7163 0.0000 0.0000
# 5 0.0000 0.0000 0.0000 0.0000 14.7163 0.0000
# 6 0.0000 0.0000 0.0000 0.0000 0.0000 13.8714
#
#
#
# Elastic Compliance Matrix: (Units=1/GPa)
#
#
# Indices 1 2 3 4 5 6 
#
# 1 0.023222 -0.010912 -0.003911 0.000000 0.000000 0.000000
# 2 -0.010912 0.023222 -0.003911 0.000000 0.000000 0.000000
# 3 -0.003911 -0.003911 0.010159 0.000000 0.000000 0.000000
# 4 0.000000 0.000000 0.000000 0.067952 0.000000 0.000000
# 5 0.000000 0.000000 0.000000 0.000000 0.067952 0.000000
# 6 0.000000 0.000000 0.000000 0.000000 0.000000 0.072091
#
#
# Mechanical properties :
#
#
# Convention : Reuss Voigt Hill
#
# Bulk Modulus (GPa) = 52.25413 56.76960 54.51187
# Shear Modulus (GPa) = 16.21050 18.34240 17.27645
#
# Velocity S-wave (km/s) = 2.98453 3.17473 3.08110
# Velocity P-wave (km/s) = 6.37099 6.68077 6.52772
#
# Compressibility (1/GPa) = 0.01913724
#
# Stress axis : x y z
#
# Youngs Moduli (GPa) = 43.06321 43.06314 98.43067
#
# Poissons Ratio (x) = 0.46989 0.38492
# Poissons Ratio (y) = 0.46989 0.38492
# Poissons Ratio (z) = 0.16840 0.16840
#
# Static dielectric constant tensor:
#      x y z
#    x 1.649370 0.000000 0.000000 
#    y 0.000000 1.649370 0.000000 
#    z 0.000000 0.000000 1.632110 
# 
# From -- ./inp_files/7073.got.cif
#   From: 2010.05.17/outbox.cif.g08.bks.cpg/sg124_4_cif.got.tgz:7073.got - 2010.05.20 11:49:17.
