data_PCOD9562489
_publ_section_title
;
Structure prediction by ZEFSAII (Michael W. Deem and Ramdas Pophale) SiO2 
 PCOD9562489
Probable space group: P 4/M C C
;
_chemical_formula_sum "Si O2"
_cell_formula_units_Z 96
_cell_length_a 15.586194
_cell_length_b 15.586194
_cell_length_c 20.378241
_cell_angle_alpha 90.000000
_cell_angle_beta 90.000000
_cell_angle_gamma 90.000000
_cell_volume 4950.474744
_symmetry_space_group_name_H-M "P 4/M C C"
_symmetry_group_IT_number 124
_symmetry_cell_setting 'tetragonal'
loop_
_space_group_symop_operation_xyz
x,y,z
-y,x,z
-x,-y,z
y,-x,z
x,-y,1/2-z
-x,y,1/2-z
y,x,1/2-z
-y,-x,1/2-z
-x,-y,-z
y,-x,-z
x,y,-z
-y,x,-z
-x,y,1/2+z
x,-y,1/2+z
-y,-x,1/2+z
y,x,1/2+z
loop_
_atom_site_type_symbol
_atom_site_label
_atom_site_fract_x
_atom_site_fract_y
_atom_site_fract_z
Si Si1 0.558307 0.720751 0.870168
Si Si2 0.000000 0.276085 0.250000
Si Si3 0.685971 0.875596 0.138769
Si Si4 0.296433 0.618697 0.313776
Si Si5 0.502424 0.354932 0.500000
Si Si6 0.773061 0.883096 0.500000
Si Si7 0.250853 0.072968 0.000000
Si Si8 0.252516 0.152742 0.650647
O O1 0.608726 0.808781 0.862645
O O2 0.633349 0.650006 0.866676
O O3 0.482775 0.709785 0.818031
O O4 0.510420 0.706715 0.938100
O O5 0.942599 0.325512 0.197117
O O6 0.928208 0.233377 0.300547
O O7 0.695590 0.917321 0.066949
O O8 0.775536 0.823571 0.152433
O O9 0.339157 0.660844 0.250000
O O10 0.205104 0.664264 0.324440
O O11 0.583426 0.420305 0.500000
O O12 0.851406 0.817766 0.500000
O O13 0.732211 0.869065 0.573078
O O14 0.796747 0.982595 0.500000
#
# Coordination Sequence:
#
# PCOD9562489 Si02
#       8
#    16   8  16  16   8   8   8  16
#     4  11  22  40  62  90 125 163 205 261 318 376
#     4  12  20  38  65  85 124 162 204 270 300 379
#     4  10  22  38  64  91 122 167 216 257 319 384
#     4  11  23  40  61  90 125 161 208 258 313 385
#     4  11  21  37  62  96 128 158 210 262 316 375
#     4  10  20  38  65  89 124 165 209 266 321 383
#     4  10  19  39  61  91 123 166 216 260 322 391
#     4  10  22  39  62  90 122 163 212 254 315 379
#
# _framework density 19.39208
#
# number of rings (size 3 to 8) (size 9 to 14) (size 15 to 20)
#    0.000    1.417    3.333    3.500    0.000    3.167 
#    0.000    2.500    0.000    5.000    0.000    0.000 
#    0.000    0.000    0.000    0.000    0.000    0.000 
#
# Total GULP energy -534615.416124 kJ/mol
# GULP energy per Si atom -5568.910585 kJ/mol
# Density = 1.934794 g / cm^3
# Si number density = 19.392080 Si / 1000 Ang^3
#
#
#
# Elastic Constant Matrix: (Units=GPa)
#
#
# Indices 1 2 3 4 5 6 
#
# 1 73.8991 35.1603 48.2237 0.0000 0.0000 0.0000
# 2 35.1603 73.8999 48.2264 0.0000 0.0000 0.0000
# 3 48.2237 48.2264 167.3878 0.0000 0.0000 0.0000
# 4 0.0000 0.0000 0.0000 19.7028 0.0000 0.0000
# 5 0.0000 0.0000 0.0000 0.0000 19.7029 0.0000
# 6 0.0000 0.0000 0.0000 0.0000 0.0000 10.8540
#
#
#
# Elastic Compliance Matrix: (Units=1/GPa)
#
#
# Indices 1 2 3 4 5 6 
#
# 1 0.019059 -0.006755 -0.003545 0.000000 0.000000 0.000000
# 2 -0.006755 0.019059 -0.003545 0.000000 0.000000 0.000000
# 3 -0.003545 -0.003545 0.008017 0.000000 0.000000 0.000000
# 4 0.000000 0.000000 0.000000 0.050754 0.000000 0.000000
# 5 0.000000 0.000000 0.000000 0.000000 0.050754 0.000000
# 6 0.000000 0.000000 0.000000 0.000000 0.000000 0.092132
#
#
# Mechanical properties :
#
#
# Convention : Reuss Voigt Hill
#
# Bulk Modulus (GPa) = 54.21308 64.26751 59.24029
# Shear Modulus (GPa) = 18.27400 22.29036 20.28218
#
# Velocity S-wave (km/s) = 3.07309 3.39404 3.23755
# Velocity P-wave (km/s) = 6.37251 6.96939 6.67762
#
# Compressibility (1/GPa) = 0.01844573
#
# Stress axis : x y z
#
# Youngs Moduli (GPa) = 52.46899 52.46836 124.73861
#
# Poissons Ratio (x) = 0.35441 0.44216
# Poissons Ratio (y) = 0.35441 0.44222
# Poissons Ratio (z) = 0.18599 0.18601
#
# Static dielectric constant tensor:
#      x y z
#    x 1.666030 0.000000 0.000000 
#    y 0.000000 1.666030 0.000000 
#    z 0.000000 0.000000 1.844290 
# 
# From -- ./inp_files/5415.got.cif
#   From: 2010.05.17/outbox.cif.g08.bks.cpg/sg124_3_cif.got.tgz:5415.got - 2010.05.20 11:49:17.
