data_PCOD9562722
_publ_section_title
;
Structure prediction by ZEFSAII (Michael W. Deem and Ramdas Pophale) SiO2 
 PCOD9562722
Probable space group: P 4/M C C
;
_chemical_formula_sum "Si O2"
_cell_formula_units_Z 64
_cell_length_a 14.250127
_cell_length_b 14.250127
_cell_length_c 14.998676
_cell_angle_alpha 90.000000
_cell_angle_beta 90.000000
_cell_angle_gamma 90.000000
_cell_volume 3045.722933
_symmetry_space_group_name_H-M "P 4/M C C"
_symmetry_group_IT_number 124
_symmetry_cell_setting 'tetragonal'
loop_
_space_group_symop_operation_xyz
x,y,z
-y,x,z
-x,-y,z
y,-x,z
x,-y,1/2-z
-x,y,1/2-z
y,x,1/2-z
-y,-x,1/2-z
-x,-y,-z
y,-x,-z
x,y,-z
-y,x,-z
-x,y,1/2+z
x,-y,1/2+z
-y,-x,1/2+z
y,x,1/2+z
loop_
_atom_site_type_symbol
_atom_site_label
_atom_site_fract_x
_atom_site_fract_y
_atom_site_fract_z
Si Si1 0.685817 0.883442 0.899001
Si Si2 0.886711 0.099228 0.642544
Si Si3 0.395887 0.763034 0.754537
Si Si4 0.932667 0.409121 0.605793
O O1 0.793551 0.850920 0.890745
O O2 0.622690 0.825185 0.832755
O O3 0.674477 0.993384 0.875109
O O4 0.653224 0.873316 0.000000
O O5 0.890345 0.109656 0.750000
O O6 0.990774 0.125122 0.613677
O O7 0.500000 0.721054 0.750000
O O8 0.315745 0.684256 0.750000
O O9 0.396375 0.839545 0.835243
O O10 0.910775 0.411169 0.500000
O O11 0.000000 0.500000 0.625399
#
# Coordination Sequence:
#
# PCOD9562722 Si02
#       4
#    16  16  16  16
#     4  11  24  39  64 100 133 175 230 288 350 419
#     4   9  20  37  56  84 132 187 227 264 328 413
#     4  12  27  45  70  99 137 184 235 299 364 431
#     4  10  22  44  73 102 134 171 221 289 362 429
#
# _framework density 21.013074
#
# number of rings (size 3 to 8) (size 9 to 14) (size 15 to 20)
#    0.000    1.500    2.500    2.250   10.500    2.250 
#    0.000    1.250    0.000    0.000    0.000    3.500 
#    0.000    0.000    0.000    0.000    0.000    0.000 
#
# Total GULP energy -357341.185602 kJ/mol
# GULP energy per Si atom -5583.456025 kJ/mol
# Density = 2.096525 g / cm^3
# Si number density = 21.013074 Si / 1000 Ang^3
#
#
#
# Elastic Constant Matrix: (Units=GPa)
#
#
# Indices 1 2 3 4 5 6 
#
# 1 130.1325 46.5617 46.5273 0.0000 0.0000 0.0000
# 2 46.5617 130.1293 46.5268 0.0000 0.0000 0.0000
# 3 46.5273 46.5268 91.2959 0.0000 0.0000 0.0000
# 4 0.0000 0.0000 0.0000 141.8584 0.0000 0.0000
# 5 0.0000 0.0000 0.0000 0.0000 141.4246 0.0000
# 6 0.0000 0.0000 0.0000 0.0000 0.0000 35.5234
#
#
#
# Elastic Compliance Matrix: (Units=1/GPa)
#
#
# Indices 1 2 3 4 5 6 
#
# 1 0.009851 -0.002115 -0.003942 0.000000 0.000000 0.000000
# 2 -0.002115 0.009851 -0.003942 0.000000 0.000000 0.000000
# 3 -0.003942 -0.003942 0.014972 0.000000 0.000000 0.000000
# 4 0.000000 0.000000 0.000000 0.007049 0.000000 0.000000
# 5 0.000000 0.000000 0.000000 0.000000 0.007071 0.000000
# 6 0.000000 0.000000 0.000000 0.000000 0.000000 0.028150
#
#
# Mechanical properties :
#
#
# Convention : Reuss Voigt Hill
#
# Bulk Modulus (GPa) = 68.14893 70.08768 69.11831
# Shear Modulus (GPa) = 49.09884 77.89073 63.49479
#
# Velocity S-wave (km/s) = 4.83907 6.09493 5.50294
# Velocity P-wave (km/s) = 7.98274 9.10811 8.56393
#
# Compressibility (1/GPa) = 0.01467374
#
# Stress axis : x y z
#
# Youngs Moduli (GPa) = 101.51428 101.51171 66.79270
#
# Poissons Ratio (x) = 0.21472 0.26332
# Poissons Ratio (y) = 0.21472 0.26332
# Poissons Ratio (z) = 0.40020 0.40020
#
# Static dielectric constant tensor:
#      x y z
#    x 1.807650 0.000000 0.000000 
#    y 0.000000 1.807660 0.000000 
#    z 0.000000 0.000000 1.752650 
# 
# From -- ./inp_files/2954.got.cif
#   From: 2010.05.17/outbox.cif.g08.bks.cpg/sg124_2_cif.got.tgz:2954.got - 2010.05.20 11:49:17.
