data_PCOD9562653
_publ_section_title
;
Structure prediction by ZEFSAII (Michael W. Deem and Ramdas Pophale) SiO2 
 PCOD9562653
Probable space group: P 4/M C C
;
_chemical_formula_sum "Si O2"
_cell_formula_units_Z 76
_cell_length_a 10.326263
_cell_length_b 10.326263
_cell_length_c 31.620555
_cell_angle_alpha 90.000000
_cell_angle_beta 90.000000
_cell_angle_gamma 90.000000
_cell_volume 3371.753773
_symmetry_space_group_name_H-M "P 4/M C C"
_symmetry_group_IT_number 124
_symmetry_cell_setting 'tetragonal'
loop_
_space_group_symop_operation_xyz
x,y,z
-y,x,z
-x,-y,z
y,-x,z
x,-y,1/2-z
-x,y,1/2-z
y,x,1/2-z
-y,-x,1/2-z
-x,-y,-z
y,-x,-z
x,y,-z
-y,x,-z
-x,y,1/2+z
x,-y,1/2+z
-y,-x,1/2+z
y,x,1/2+z
loop_
_atom_site_type_symbol
_atom_site_label
_atom_site_fract_x
_atom_site_fract_y
_atom_site_fract_z
Si Si1 0.851965 0.357222 0.766025
Si Si2 0.125428 0.728633 0.143860
Si Si3 0.794083 0.072303 0.000000
Si Si4 0.000000 0.000000 0.330637
Si Si5 0.718164 0.511915 0.546634
Si Si6 0.336251 0.874146 0.909440
O O1 0.816462 0.500000 0.750000
O O2 0.753718 0.246283 0.750000
O O3 0.845774 0.362511 0.816811
O O4 0.000000 0.330358 0.750000
O O5 0.079538 0.862838 0.165763
O O6 0.245837 0.770103 0.114655
O O7 0.004848 0.679832 0.116510
O O8 0.719457 0.100598 0.043363
O O9 0.923768 0.159179 0.000000
O O10 0.616953 0.628238 0.548688
O O11 0.779692 0.522273 0.500000
O O12 0.820959 0.480811 0.582684
#
# Coordination Sequence:
#
# PCOD9562653 Si02
#       6
#    16  16   8   4  16  16
#     4  11  25  49  77 105 141 182 236 298 376 442
#     4  10  21  36  62  97 129 169 216 280 336 419
#     4  11  20  30  54  91 144 184 206 263 334 391
#     4   8  16  32  61  97 128 160 226 260 328 397
#     4   9  19  37  57  78 114 172 231 269 309 382
#     4  11  19  35  59  94 134 168 217 268 330 405
#
# _framework density 22.540198
#
# number of rings (size 3 to 8) (size 9 to 14) (size 15 to 20)
#    0.000    1.789    3.158    3.158    0.000    0.421 
#   11.368    0.000    0.000    3.789    0.000    0.000 
#    0.000    0.000    0.000    0.000    0.000    0.000 
#
# Total GULP energy -423872.136036 kJ/mol
# GULP energy per Si atom -5577.264948 kJ/mol
# Density = 2.248890 g / cm^3
# Si number density = 22.540198 Si / 1000 Ang^3
#
#
#
# Elastic Constant Matrix: (Units=GPa)
#
#
# Indices 1 2 3 4 5 6 
#
# 1 88.8011 34.1528 38.8437 0.0000 0.0000 0.0000
# 2 34.1528 88.8033 38.8441 0.0000 0.0000 0.0000
# 3 38.8437 38.8441 161.6412 0.0000 0.0000 0.0000
# 4 0.0000 0.0000 0.0000 17.8106 0.0000 0.0000
# 5 0.0000 0.0000 0.0000 0.0000 17.8106 0.0000
# 6 0.0000 0.0000 0.0000 0.0000 0.0000 51.0526
#
#
#
# Elastic Compliance Matrix: (Units=1/GPa)
#
#
# Indices 1 2 3 4 5 6 
#
# 1 0.013944 -0.004355 -0.002304 0.000000 0.000000 0.000000
# 2 -0.004355 0.013944 -0.002304 0.000000 0.000000 0.000000
# 3 -0.002304 -0.002304 0.007294 0.000000 0.000000 0.000000
# 4 0.000000 0.000000 0.000000 0.056146 0.000000 0.000000
# 5 0.000000 0.000000 0.000000 0.000000 0.056146 0.000000
# 6 0.000000 0.000000 0.000000 0.000000 0.000000 0.019588
#
#
# Mechanical properties :
#
#
# Convention : Reuss Voigt Hill
#
# Bulk Modulus (GPa) = 57.95498 62.54741 60.25119
# Shear Modulus (GPa) = 26.21365 32.49508 29.35436
#
# Velocity S-wave (km/s) = 3.41394 3.80103 3.61267
# Velocity P-wave (km/s) = 6.42710 6.86099 6.64759
#
# Compressibility (1/GPa) = 0.01725477
#
# Stress axis : x y z
#
# Youngs Moduli (GPa) = 71.71587 71.71764 137.09806
#
# Poissons Ratio (x) = 0.31231 0.31592
# Poissons Ratio (y) = 0.31230 0.31592
# Poissons Ratio (z) = 0.16526 0.16526
#
# Static dielectric constant tensor:
#      x y z
#    x 1.853760 0.000000 0.000000 
#    y 0.000000 1.853750 0.000000 
#    z 0.000000 0.000000 1.844400 
# 
# From -- ./inp_files/7030.got.cif
#   From: 2010.05.17/outbox.cif.g08.bks.cpg/sg124_4_cif.got.tgz:7030.got - 2010.05.20 11:49:17.
