data_PCOD9562384
_publ_section_title
;
Structure prediction by ZEFSAII (Michael W. Deem and Ramdas Pophale) SiO2 
 PCOD9562384
Probable space group: P 4/M C C
;
_chemical_formula_sum "Si O2"
_cell_formula_units_Z 80
_cell_length_a 14.633451
_cell_length_b 14.633451
_cell_length_c 14.278918
_cell_angle_alpha 90.000000
_cell_angle_beta 90.000000
_cell_angle_gamma 90.000000
_cell_volume 3057.657346
_symmetry_space_group_name_H-M "P 4/M C C"
_symmetry_group_IT_number 124
_symmetry_cell_setting 'tetragonal'
loop_
_space_group_symop_operation_xyz
x,y,z
-y,x,z
-x,-y,z
y,-x,z
x,-y,1/2-z
-x,y,1/2-z
y,x,1/2-z
-y,-x,1/2-z
-x,-y,-z
y,-x,-z
x,y,-z
-y,x,-z
-x,y,1/2+z
x,-y,1/2+z
-y,-x,1/2+z
y,x,1/2+z
loop_
_atom_site_type_symbol
_atom_site_label
_atom_site_fract_x
_atom_site_fract_y
_atom_site_fract_z
Si Si1 0.795956 0.688080 0.896495
Si Si2 0.596538 0.389273 0.862436
Si Si3 0.145478 0.021766 0.886342
Si Si4 0.493495 0.892755 0.886911
Si Si5 0.862976 0.302843 0.885541
O O1 0.693426 0.649783 0.904536
O O2 0.850645 0.602729 0.853020
O O3 0.767978 0.784838 0.853654
O O4 0.836895 0.706224 0.000000
O O5 0.623814 0.491053 0.889179
O O6 0.609737 0.390264 0.750000
O O7 0.249504 0.044076 0.858499
O O8 0.073115 0.100008 0.857216
O O9 0.145034 0.021934 0.000000
O O10 0.591656 0.851920 0.856161
O O11 0.500000 0.000000 0.866087
O O12 0.490005 0.881951 0.000000
O O13 0.859992 0.305230 0.000000
#
# Coordination Sequence:
#
# PCOD9562384 Si02
#       5
#    16  16  16  16  16
#     4  10  19  30  46  70  99 131 166 203 245 299
#     4   9  18  32  49  69  93 123 162 205 249 296
#     4   8  14  23  36  55  82 117 154 193 238 285
#     4   9  18  29  41  62  97 134 165 203 255 308
#     4   9  17  26  40  61  88 123 161 196 239 294
#
# _framework density 26.163820999999999
#
# number of rings (size 3 to 8) (size 9 to 14) (size 15 to 20)
#    0.000    3.000    0.000    2.400    2.800    2.400 
#    0.000    1.000    0.000    0.000    0.000   11.200 
#    0.000    0.000    0.000    2.200    0.000    2.000 
#
# Total GULP energy -446778.402174 kJ/mol
# GULP energy per Si atom -5584.730027 kJ/mol
# Density = 2.610427 g / cm^3
# Si number density = 26.163821 Si / 1000 Ang^3
#
#
#
# Elastic Constant Matrix: (Units=GPa)
#
#
# Indices 1 2 3 4 5 6 
#
# 1 -2.8058 164.4647 -1.7812 0.0000 0.0000 0.0000
# 2 164.4647 -2.8064 -1.7791 0.0000 0.0000 0.0000
# 3 -1.7812 -1.7791 115.3892 0.0000 0.0000 0.0000
# 4 0.0000 0.0000 0.0000 64.5550 0.0000 0.0000
# 5 0.0000 0.0000 0.0000 0.0000 64.4794 0.0000
# 6 0.0000 0.0000 0.0000 0.0000 0.0000 -2.6658
#
#
#
# Elastic Compliance Matrix: (Units=1/GPa)
#
#
# Indices 1 2 3 4 5 6 
#
# 1 0.000105 0.006083 0.000095 0.000000 0.000000 0.000000
# 2 0.006083 0.000105 0.000096 0.000000 0.000000 0.000000
# 3 0.000095 0.000096 0.008669 0.000000 0.000000 0.000000
# 4 0.000000 0.000000 0.000000 0.015491 0.000000 0.000000
# 5 0.000000 0.000000 0.000000 0.000000 0.015509 0.000000
# 6 0.000000 0.000000 0.000000 0.000000 0.000000 -0.375118
#
#
# Mechanical properties :
#
#
# Convention : Reuss Voigt Hill
#
# Bulk Modulus (GPa) = 46.66989 47.95395 47.31192
# Shear Modulus (GPa) = -14.67801 21.86524 3.59361
#
# Velocity S-wave (km/s) = -2.37112 2.89399 1.17324
# Velocity P-wave (km/s) = 3.22180 5.43462 4.46738
#
# Compressibility (1/GPa) = 0.02142709
#
# Stress axis : x y z
#
# Youngs Moduli (GPa) = 9538.71997 9540.68001 115.35003
#
# Poissons Ratio (x) = -58.03744 -0.01101
# Poissons Ratio (y) = -58.02552 -0.01102
# Poissons Ratio (z) = -0.91010 -0.91133
#
# Static dielectric constant tensor:
#      x y z
#    x 2.027570 0.000000 0.000000 
#    y 0.000000 2.027570 0.000000 
#    z 0.000000 0.000000 2.020900 
# 
# From -- ./inp_files/5059.got.cif
#   From: 2010.05.17/outbox.cif.g08.bks.cpg/sg124_3_cif.got.tgz:5059.got - 2010.05.20 11:49:17.
