data_PCOD9562095
_publ_section_title
;
Structure prediction by ZEFSAII (Michael W. Deem and Ramdas Pophale) SiO2 
 PCOD9562095
Probable space group: P 4/M M M
;
_chemical_formula_sum "Si O2"
_cell_formula_units_Z 104
_cell_length_a 18.180366
_cell_length_b 18.180366
_cell_length_c 17.382272
_cell_angle_alpha 90.000000
_cell_angle_beta 90.000000
_cell_angle_gamma 90.000000
_cell_volume 5745.287758
_symmetry_space_group_name_H-M "P 4/M M M"
_symmetry_group_IT_number 123
_symmetry_cell_setting 'tetragonal'
loop_
_space_group_symop_operation_xyz
x,y,z
-y,x,z
-x,-y,z
y,-x,z
x,-y,-z
-x,y,-z
y,x,-z
-y,-x,-z
-x,-y,-z
y,-x,-z
x,y,-z
-y,x,-z
-x,y,z
x,-y,z
-y,-x,z
y,x,z
loop_
_atom_site_type_symbol
_atom_site_label
_atom_site_fract_x
_atom_site_fract_y
_atom_site_fract_z
Si Si1 0.295403 0.415926 0.367034
Si Si2 0.500000 0.917859 0.906915
Si Si3 0.696016 0.177863 0.586283
Si Si4 0.915793 0.204732 0.312300
Si Si5 0.794230 0.085704 0.873241
Si Si6 0.584027 0.697507 0.818228
Si Si7 0.645305 0.828289 0.910226
O O1 0.304717 0.500000 0.391864
O O2 0.363357 0.363357 0.390769
O O3 0.220136 0.379398 0.396339
O O4 0.292607 0.414479 0.273887
O O5 0.575195 0.877435 0.886041
O O6 0.500000 0.000000 0.875902
O O7 0.500000 0.921057 0.000000
O O8 0.695847 0.147104 0.500000
O O9 0.757321 0.242680 0.589317
O O10 0.723311 0.119130 0.648367
O O11 0.864462 0.135539 0.334308
O O12 0.913463 0.210177 0.219834
O O13 0.000000 0.194341 0.335885
O O14 0.865358 0.134643 0.895609
O O15 0.720764 0.126786 0.901603
O O16 0.797767 0.000000 0.897729
O O17 0.500000 0.706567 0.845048
O O18 0.617393 0.617393 0.834840
O O19 0.637018 0.756781 0.857806
O O20 0.637014 0.808109 0.000000
#
# Coordination Sequence:
#
# PCOD9562095 Si02
#       7
#    16   8  16  16  16  16  16
#     4   9  18  32  51  75 102 134 171 212 256 303
#     4   9  18  32  50  72  99 127 156 204 265 314
#     4   9  17  30  49  73 102 136 171 204 244 299
#     4   9  18  33  53  77 105 136 171 211 254 301
#     4  10  21  36  55  79 107 140 176 216 263 315
#     4  10  20  34  52  75 104 137 173 214 261 312
#     4  11  21  35  54  77 103 133 174 220 266 316
#
# _framework density 18.101790999999999
#
# number of rings (size 3 to 8) (size 9 to 14) (size 15 to 20)
#    0.000    2.385    0.769    1.846    0.000    5.846 
#    0.000    3.077    0.000    0.462    0.000    7.538 
#    0.000    0.000    0.000    0.000    0.000    0.000 
#
# Total GULP energy -579915.907532 kJ/mol
# GULP energy per Si atom -5576.114495 kJ/mol
# Density = 1.806059 g / cm^3
# Si number density = 18.101791 Si / 1000 Ang^3
#
#
#
# Elastic Constant Matrix: (Units=GPa)
#
#
# Indices 1 2 3 4 5 6 
#
# 1 84.2020 30.2347 12.9462 0.0000 0.0000 0.0000
# 2 30.2347 84.2020 12.9462 0.0000 0.0000 0.0000
# 3 12.9462 12.9462 22.1994 0.0000 0.0000 0.0000
# 4 0.0000 0.0000 0.0000 10.0830 0.0000 0.0000
# 5 0.0000 0.0000 0.0000 0.0000 10.0830 0.0000
# 6 0.0000 0.0000 0.0000 0.0000 0.0000 22.1681
#
#
#
# Elastic Compliance Matrix: (Units=1/GPa)
#
#
# Indices 1 2 3 4 5 6 
#
# 1 0.014298 -0.004231 -0.005871 0.000000 0.000000 0.000000
# 2 -0.004231 0.014298 -0.005871 0.000000 0.000000 0.000000
# 3 -0.005871 -0.005871 0.051894 0.000000 0.000000 0.000000
# 4 0.000000 0.000000 0.000000 0.099177 0.000000 0.000000
# 5 0.000000 0.000000 0.000000 0.000000 0.099177 0.000000
# 6 0.000000 0.000000 0.000000 0.000000 0.000000 0.045110
#
#
# Mechanical properties :
#
#
# Convention : Reuss Voigt Hill
#
# Bulk Modulus (GPa) = 20.59976 33.65084 27.12530
# Shear Modulus (GPa) = 13.43794 17.43191 15.43492
#
# Velocity S-wave (km/s) = 2.72757 3.10658 2.92323
# Velocity P-wave (km/s) = 4.61781 5.61230 5.13917
#
# Compressibility (1/GPa) = 0.04854424
#
# Stress axis : x y z
#
# Youngs Moduli (GPa) = 69.93866 69.93866 19.27022
#
# Poissons Ratio (x) = 0.29594 0.11313
# Poissons Ratio (y) = 0.29594 0.11313
# Poissons Ratio (z) = 0.41059 0.41059
#
# Static dielectric constant tensor:
#      x y z
#    x 1.622130 0.000000 0.000000 
#    y 0.000000 1.622130 0.000000 
#    z 0.000000 0.000000 1.616750 
# 
# From -- ./inp_files/5628.got.cif
#   From: 2010.05.17/outbox.cif.g08.bks.cpg/sg123_3_cif.got.tgz:5628.got - 2010.05.20 11:43:04.
