data_PCOD9562741
_publ_section_title
;
Structure prediction by ZEFSAII (Michael W. Deem and Ramdas Pophale) SiO2 
 PCOD9562741
Probable space group: P 4/M C C
;
_chemical_formula_sum "Si O2"
_cell_formula_units_Z 48
_cell_length_a 13.085835
_cell_length_b 13.085835
_cell_length_c 14.000171
_cell_angle_alpha 90.000000
_cell_angle_beta 90.000000
_cell_angle_gamma 90.000000
_cell_volume 2397.376369
_symmetry_space_group_name_H-M "P 4/M C C"
_symmetry_group_IT_number 124
_symmetry_cell_setting 'tetragonal'
loop_
_space_group_symop_operation_xyz
x,y,z
-y,x,z
-x,-y,z
y,-x,z
x,-y,1/2-z
-x,y,1/2-z
y,x,1/2-z
-y,-x,1/2-z
-x,-y,-z
y,-x,-z
x,y,-z
-y,x,-z
-x,y,1/2+z
x,-y,1/2+z
-y,-x,1/2+z
y,x,1/2+z
loop_
_atom_site_type_symbol
_atom_site_label
_atom_site_fract_x
_atom_site_fract_y
_atom_site_fract_z
Si Si1 0.468920 0.118858 0.891945
Si Si2 0.180449 0.662891 0.720455
Si Si3 0.845159 0.067313 0.114358
O O1 0.376793 0.131096 0.818514
O O2 0.565233 0.181062 0.849608
O O3 0.500000 0.000000 0.891234
O O4 0.443738 0.148623 0.000000
O O5 0.288221 0.711779 0.750000
O O6 0.114506 0.750484 0.669565
O O7 0.949254 0.129464 0.136186
O O8 0.827684 0.073911 0.000000
#
# Coordination Sequence:
#
# PCOD9562741 Si02
#       3
#    16  16  16
#     4  10  24  44  62  88 129 171 216 268 321 378
#     4  11  23  37  66  94 123 164 219 266 315 374
#     4   9  20  36  56  90 135 176 210 249 302 368
#
# _framework density 20.021889000000002
#
# number of rings (size 3 to 8) (size 9 to 14) (size 15 to 20)
#    0.000    2.000    0.000    4.000    9.333    2.667 
#    0.000    1.667    0.000    8.000    0.000   11.667 
#    0.000    0.000    0.000    0.000    0.000    0.000 
#
# Total GULP energy -268650.395005 kJ/mol
# GULP energy per Si atom -5596.883229 kJ/mol
# Density = 1.997632 g / cm^3
# Si number density = 20.021889 Si / 1000 Ang^3
#
#
#
# Elastic Constant Matrix: (Units=GPa)
#
#
# Indices 1 2 3 4 5 6 
#
# 1 80.0805 17.8940 27.0952 0.0000 0.0000 0.0000
# 2 17.8940 80.0856 27.0973 0.0000 0.0000 0.0000
# 3 27.0952 27.0973 115.9928 0.0000 0.0000 0.0000
# 4 0.0000 0.0000 0.0000 8.3584 0.0000 0.0000
# 5 0.0000 0.0000 0.0000 0.0000 8.3526 0.0000
# 6 0.0000 0.0000 0.0000 0.0000 0.0000 35.1798
#
#
#
# Elastic Compliance Matrix: (Units=1/GPa)
#
#
# Indices 1 2 3 4 5 6 
#
# 1 0.013901 -0.002180 -0.002738 0.000000 0.000000 0.000000
# 2 -0.002180 0.013900 -0.002738 0.000000 0.000000 0.000000
# 3 -0.002738 -0.002738 0.009900 0.000000 0.000000 0.000000
# 4 0.000000 0.000000 0.000000 0.119641 0.000000 0.000000
# 5 0.000000 0.000000 0.000000 0.000000 0.119724 0.000000
# 6 0.000000 0.000000 0.000000 0.000000 0.000000 0.028425
#
#
# Mechanical properties :
#
#
# Convention : Reuss Voigt Hill
#
# Bulk Modulus (GPa) = 44.66251 46.70352 45.68302
# Shear Modulus (GPa) = 15.23157 23.98297 19.60727
#
# Velocity S-wave (km/s) = 2.76115 3.46473 3.13276
# Velocity P-wave (km/s) = 5.70268 6.27556 5.99597
#
# Compressibility (1/GPa) = 0.02239014
#
# Stress axis : x y z
#
# Youngs Moduli (GPa) = 71.93802 71.94210 101.00550
#
# Poissons Ratio (x) = 0.15680 0.27655
# Poissons Ratio (y) = 0.15679 0.27656
# Poissons Ratio (z) = 0.19697 0.19698
#
# Static dielectric constant tensor:
#      x y z
#    x 1.717390 0.000000 0.000000 
#    y 0.000000 1.717390 0.000000 
#    z 0.000000 0.000000 1.737630 
# 
# From -- ./inp_files/2765.got.cif
#   From: 2010.05.17/outbox.cif.g08.bks.cpg/sg124_2_cif.got.tgz:2765.got - 2010.05.20 11:49:17.
