data_PCOD9562554
_publ_section_title
;
Structure prediction by ZEFSAII (Michael W. Deem and Ramdas Pophale) SiO2 
 PCOD9562554
Probable space group: P 4/M C C
;
_chemical_formula_sum "Si O2"
_cell_formula_units_Z 80
_cell_length_a 10.184698
_cell_length_b 10.184698
_cell_length_c 30.878989
_cell_angle_alpha 90.000000
_cell_angle_beta 90.000000
_cell_angle_gamma 90.000000
_cell_volume 3203.018036
_symmetry_space_group_name_H-M "P 4/M C C"
_symmetry_group_IT_number 124
_symmetry_cell_setting 'tetragonal'
loop_
_space_group_symop_operation_xyz
x,y,z
-y,x,z
-x,-y,z
y,-x,z
x,-y,1/2-z
-x,y,1/2-z
y,x,1/2-z
-y,-x,1/2-z
-x,-y,-z
y,-x,-z
x,y,-z
-y,x,-z
-x,y,1/2+z
x,-y,1/2+z
-y,-x,1/2+z
y,x,1/2+z
loop_
_atom_site_type_symbol
_atom_site_label
_atom_site_fract_x
_atom_site_fract_y
_atom_site_fract_z
Si Si1 0.190667 0.685937 0.575266
Si Si2 0.638196 0.109545 0.777155
Si Si3 0.281068 0.469630 0.000000
Si Si4 0.640491 0.333818 0.834590
Si Si5 0.869346 0.175750 0.000000
Si Si6 0.221422 0.019925 0.643562
O O1 0.199810 0.561222 0.543449
O O2 0.284313 0.671710 0.617070
O O3 0.228570 0.805453 0.543797
O O4 0.050775 0.719034 0.596654
O O5 0.500000 0.125354 0.750000
O O6 0.691196 0.248969 0.793874
O O7 0.655014 0.035991 0.824031
O O8 0.717395 0.000000 0.750000
O O9 0.397235 0.360865 0.000000
O O10 0.679387 0.483652 0.830289
O O11 0.023994 0.177217 0.000000
O O12 0.111850 0.136897 0.648926
#
# Coordination Sequence:
#
# PCOD9562554 Si02
#       6
#    16  16   8  16   8  16
#     4  10  20  34  60  91 122 159 212 272 316 361
#     4  10  24  41  62  93 128 161 202 265 334 386
#     4  10  20  36  60  90 126 170 218 267 322 391
#     4  10  22  41  65  91 123 170 220 262 317 397
#     4  10  20  36  60  90 126 170 218 267 322 391
#     4  10  22  41  65  91 123 170 220 262 317 397
#
# _framework density 24.976443
#
# number of rings (size 3 to 8) (size 9 to 14) (size 15 to 20)
#    0.000    2.000    0.000    2.400    0.000   12.800 
#    0.000    2.000    0.000   48.000    0.000    0.000 
#    0.000    0.000    0.000    0.000    0.000    0.000 
#
# Total GULP energy -445637.369101 kJ/mol
# GULP energy per Si atom -5570.467114 kJ/mol
# Density = 2.491960 g / cm^3
# Si number density = 24.976443 Si / 1000 Ang^3
#
#
#
# Elastic Constant Matrix: (Units=GPa)
#
#
# Indices 1 2 3 4 5 6 
#
# 1 76.8991 56.3254 54.5913 0.0000 0.0000 0.0000
# 2 56.3254 76.8991 54.5913 0.0000 0.0000 0.0000
# 3 54.5913 54.5913 194.1007 0.0000 0.0000 0.0000
# 4 0.0000 0.0000 0.0000 58.1295 0.0000 0.0000
# 5 0.0000 0.0000 0.0000 0.0000 58.1295 0.0000
# 6 0.0000 0.0000 0.0000 0.0000 0.0000 24.1931
#
#
#
# Elastic Compliance Matrix: (Units=1/GPa)
#
#
# Indices 1 2 3 4 5 6 
#
# 1 0.029180 -0.019426 -0.002743 0.000000 0.000000 0.000000
# 2 -0.019426 0.029180 -0.002743 0.000000 0.000000 0.000000
# 3 -0.002743 -0.002743 0.006695 0.000000 0.000000 0.000000
# 4 0.000000 0.000000 0.000000 0.017203 0.000000 0.000000
# 5 0.000000 0.000000 0.000000 0.000000 0.017203 0.000000
# 6 0.000000 0.000000 0.000000 0.000000 0.000000 0.041334
#
#
# Mechanical properties :
#
#
# Convention : Reuss Voigt Hill
#
# Bulk Modulus (GPa) = 65.65862 75.43500 70.54681
# Shear Modulus (GPa) = 25.54965 40.24980 32.89972
#
# Velocity S-wave (km/s) = 3.20183 4.01872 3.63330
# Velocity P-wave (km/s) = 6.32568 7.19732 6.77553
#
# Compressibility (1/GPa) = 0.01523029
#
# Stress axis : x y z
#
# Youngs Moduli (GPa) = 34.26991 34.26991 149.36102
#
# Poissons Ratio (x) = 0.66571 0.40977
# Poissons Ratio (y) = 0.66571 0.40977
# Poissons Ratio (z) = 0.09402 0.09402
#
# Static dielectric constant tensor:
#      x y z
#    x 2.065740 0.000000 0.000000 
#    y 0.000000 2.065740 0.000000 
#    z 0.000000 0.000000 1.964790 
# 
# From -- ./inp_files/7013.got.cif
#   From: 2010.05.17/outbox.cif.g08.bks.cpg/sg124_4_cif.got.tgz:7013.got - 2010.05.20 11:49:17.
