data_PCOD9562847
_publ_section_title
;
Structure prediction by ZEFSAII (Michael W. Deem and Ramdas Pophale) SiO2 
 PCOD9562847
Probable space group: P 4/M C C
;
_chemical_formula_sum "Si O2"
_cell_formula_units_Z 72
_cell_length_a 10.750260
_cell_length_b 10.750260
_cell_length_c 32.624507
_cell_angle_alpha 90.000000
_cell_angle_beta 90.000000
_cell_angle_gamma 90.000000
_cell_volume 3770.351963
_symmetry_space_group_name_H-M "P 4/M C C"
_symmetry_group_IT_number 124
_symmetry_cell_setting 'tetragonal'
loop_
_space_group_symop_operation_xyz
x,y,z
-y,x,z
-x,-y,z
y,-x,z
x,-y,1/2-z
-x,y,1/2-z
y,x,1/2-z
-y,-x,1/2-z
-x,-y,-z
y,-x,-z
x,y,-z
-y,x,-z
-x,y,1/2+z
x,-y,1/2+z
-y,-x,1/2+z
y,x,1/2+z
loop_
_atom_site_type_symbol
_atom_site_label
_atom_site_fract_x
_atom_site_fract_y
_atom_site_fract_z
Si Si1 0.851584 0.851584 0.750000
Si Si2 0.501989 0.709503 0.294697
Si Si3 0.824184 0.881739 0.840131
Si Si4 0.709592 0.491006 0.045415
Si Si5 0.555857 0.137537 0.626159
O O1 0.795019 0.825386 0.794501
O O2 0.000000 0.832392 0.750000
O O3 0.383750 0.618113 0.296217
O O4 0.500000 0.774557 0.250000
O O5 0.501194 0.796210 0.333886
O O6 0.705967 0.850719 0.868235
O O7 0.967103 0.835524 0.844805
O O8 0.624236 0.613715 0.047796
O O9 0.798678 0.483475 0.083943
O O10 0.768989 0.488378 0.000000
O O11 0.500000 0.000000 0.626260
#
# Coordination Sequence:
#
# PCOD9562847 Si02
#       5
#     8  16  16  16  16
#     4   7  12  30  54  70  90 145 206 242 265 298
#     4   9  20  40  60  79 115 163 203 247 303 352
#     4   9  20  38  56  77 113 161 207 243 281 339
#     4   9  20  42  70  92 112 146 192 242 300 364
#     4  12  25  34  57  93 124 150 192 244 303 350
#
# _framework density 19.096361999999999
#
# number of rings (size 3 to 8) (size 9 to 14) (size 15 to 20)
#    0.000    2.556    0.000    4.000    6.222    4.444 
#    8.000    0.000    0.000    0.000    0.000    1.556 
#    0.000    0.000    0.000    0.000    0.000    0.000 
#
# Total GULP energy -401185.866017 kJ/mol
# GULP energy per Si atom -5572.025917 kJ/mol
# Density = 1.905290 g / cm^3
# Si number density = 19.096362 Si / 1000 Ang^3
#
#
#
# Elastic Constant Matrix: (Units=GPa)
#
#
# Indices 1 2 3 4 5 6 
#
# 1 67.6177 19.3553 58.3468 0.0000 0.0000 0.0000
# 2 19.3553 67.6177 58.3468 0.0000 0.0000 0.0000
# 3 58.3468 58.3468 188.4230 0.0000 0.0000 0.0000
# 4 0.0000 0.0000 0.0000 9.4640 0.0000 0.0000
# 5 0.0000 0.0000 0.0000 0.0000 9.4640 0.0000
# 6 0.0000 0.0000 0.0000 0.0000 0.0000 16.4253
#
#
#
# Elastic Compliance Matrix: (Units=1/GPa)
#
#
# Indices 1 2 3 4 5 6 
#
# 1 0.020195 -0.000525 -0.006091 0.000000 0.000000 0.000000
# 2 -0.000525 0.020195 -0.006091 0.000000 0.000000 0.000000
# 3 -0.006091 -0.006091 0.009080 0.000000 0.000000 0.000000
# 4 0.000000 0.000000 0.000000 0.105663 0.000000 0.000000
# 5 0.000000 0.000000 0.000000 0.000000 0.105663 0.000000
# 6 0.000000 0.000000 0.000000 0.000000 0.000000 0.060882
#
#
# Mechanical properties :
#
#
# Convention : Reuss Voigt Hill
#
# Bulk Modulus (GPa) = 41.56986 66.19513 53.88249
# Shear Modulus (GPa) = 14.08010 19.57798 16.82904
#
# Velocity S-wave (km/s) = 2.71831 3.20538 2.97184
# Velocity P-wave (km/s) = 5.62743 6.95976 6.32875
#
# Compressibility (1/GPa) = 0.02405589
#
# Stress axis : x y z
#
# Youngs Moduli (GPa) = 49.51667 49.51667 110.13792
#
# Poissons Ratio (x) = 0.02599 0.67086
# Poissons Ratio (y) = 0.02599 0.67086
# Poissons Ratio (z) = 0.30161 0.30161
#
# Static dielectric constant tensor:
#      x y z
#    x 1.677190 0.000000 0.000000 
#    y 0.000000 1.677190 0.000000 
#    z 0.000000 0.000000 1.674410 
# 
# From -- ./inp_files/6858.got.cif
#   From: 2010.05.17/outbox.cif.g08.bks.cpg/sg124_4_cif.got.tgz:6858.got - 2010.05.20 11:49:17.
