data_PCOD9562818
_publ_section_title
;
Structure prediction by ZEFSAII (Michael W. Deem and Ramdas Pophale) SiO2 
 PCOD9562818
Probable space group: P 4/M C C
;
_chemical_formula_sum "Si O2"
_cell_formula_units_Z 32
_cell_length_a 8.084247
_cell_length_b 8.084247
_cell_length_c 19.937688
_cell_angle_alpha 90.000000
_cell_angle_beta 90.000000
_cell_angle_gamma 90.000000
_cell_volume 1303.028587
_symmetry_space_group_name_H-M "P 4/M C C"
_symmetry_group_IT_number 124
_symmetry_cell_setting 'tetragonal'
loop_
_space_group_symop_operation_xyz
x,y,z
-y,x,z
-x,-y,z
y,-x,z
x,-y,1/2-z
-x,y,1/2-z
y,x,1/2-z
-y,-x,1/2-z
-x,-y,-z
y,-x,-z
x,y,-z
-y,x,-z
-x,y,1/2+z
x,-y,1/2+z
-y,-x,1/2+z
y,x,1/2+z
loop_
_atom_site_type_symbol
_atom_site_label
_atom_site_fract_x
_atom_site_fract_y
_atom_site_fract_z
Si Si1 0.413721 0.233105 0.862342
Si Si2 0.740418 0.111434 0.500000
Si Si3 0.000000 0.722600 0.250000
O O1 0.601490 0.299456 0.853550
O O2 0.375239 0.086281 0.811156
O O3 0.365340 0.163627 0.935310
O O4 0.917043 0.209598 0.500000
O O5 0.850205 0.850205 0.250000
#
# Coordination Sequence:
#
# PCOD9562818 Si02
#       3
#    16   8   8
#     4  11  26  48  76 113 156 205 262 325 395 469
#     4  11  24  45  76 114 154 199 258 327 396 466
#     4  11  26  45  70 106 150 202 258 316 384 462
#
# _framework density 24.558174999999999
#
# number of rings (size 3 to 8) (size 9 to 14) (size 15 to 20)
#    0.000    1.000    0.000    4.500    0.000   22.000 
#    0.000    2.500    0.000    0.000    0.000    0.000 
#    0.000    0.000    0.000    0.000    0.000    0.000 
#
# Total GULP energy -178359.277947 kJ/mol
# GULP energy per Si atom -5573.727436 kJ/mol
# Density = 2.450228 g / cm^3
# Si number density = 24.558175 Si / 1000 Ang^3
#
#
#
# Elastic Constant Matrix: (Units=GPa)
#
#
# Indices 1 2 3 4 5 6 
#
# 1 149.3870 174.5579 131.0982 0.0000 0.0000 0.0000
# 2 174.5579 149.3870 131.0982 0.0000 0.0000 0.0000
# 3 131.0982 131.0982 251.1329 0.0000 0.0000 0.0000
# 4 0.0000 0.0000 0.0000 54.3269 0.0000 0.0000
# 5 0.0000 0.0000 0.0000 0.0000 54.3269 0.0000
# 6 0.0000 0.0000 0.0000 0.0000 0.0000 61.9461
#
#
#
# Elastic Compliance Matrix: (Units=1/GPa)
#
#
# Indices 1 2 3 4 5 6 
#
# 1 -0.017191 0.022537 -0.002791 0.000000 0.000000 0.000000
# 2 0.022537 -0.017191 -0.002791 0.000000 0.000000 0.000000
# 3 -0.002791 -0.002791 0.006895 0.000000 0.000000 0.000000
# 4 0.000000 0.000000 0.000000 0.018407 0.000000 0.000000
# 5 0.000000 0.000000 0.000000 0.000000 0.018407 0.000000
# 6 0.000000 0.000000 0.000000 0.000000 0.000000 0.016143
#
#
# Mechanical properties :
#
#
# Convention : Reuss Voigt Hill
#
# Bulk Modulus (GPa) = 155.65593 158.15728 156.90661
# Shear Modulus (GPa) = -793.60551 41.66349 -375.97101
#
# Velocity S-wave (km/s) = -17.99597 4.12335 -12.38654
# Velocity P-wave (km/s) = 19.19079 9.33864 11.85487
#
# Compressibility (1/GPa) = 0.00642443
#
# Stress axis : x y z
#
# Youngs Moduli (GPa) = -58.16873 -58.16873 145.02391
#
# Poissons Ratio (x) = 1.31094 0.40469
# Poissons Ratio (y) = 1.31094 0.40469
# Poissons Ratio (z) = -0.16232 -0.16232
#
# Static dielectric constant tensor:
#      x y z
#    x 1.780110 0.000000 0.000000 
#    y 0.000000 1.780110 0.000000 
#    z 0.000000 0.000000 1.936550 
# 
# From -- ./inp_files/4677.got.cif
#   From: 2010.05.17/outbox.cif.g08.bks.cpg/sg124_3_cif.got.tgz:4677.got - 2010.05.20 11:49:17.
