data_PCOD9562543
_publ_section_title
;
Structure prediction by ZEFSAII (Michael W. Deem and Ramdas Pophale) SiO2 
 PCOD9562543
Probable space group: P 4/M C C
;
_chemical_formula_sum "Si O2"
_cell_formula_units_Z 80
_cell_length_a 18.187999
_cell_length_b 18.187999
_cell_length_c 14.931233
_cell_angle_alpha 90.000000
_cell_angle_beta 90.000000
_cell_angle_gamma 90.000000
_cell_volume 4939.301263
_symmetry_space_group_name_H-M "P 4/M C C"
_symmetry_group_IT_number 124
_symmetry_cell_setting 'tetragonal'
loop_
_space_group_symop_operation_xyz
x,y,z
-y,x,z
-x,-y,z
y,-x,z
x,-y,1/2-z
-x,y,1/2-z
y,x,1/2-z
-y,-x,1/2-z
-x,-y,-z
y,-x,-z
x,y,-z
-y,x,-z
-x,y,1/2+z
x,-y,1/2+z
-y,-x,1/2+z
y,x,1/2+z
loop_
_atom_site_type_symbol
_atom_site_label
_atom_site_fract_x
_atom_site_fract_y
_atom_site_fract_z
Si Si1 0.735097 0.384577 0.230657
Si Si2 0.855968 0.613007 0.597659
Si Si3 0.463653 0.382116 0.893441
Si Si4 0.988021 0.584165 0.143341
Si Si5 0.437682 0.174254 0.398709
O O1 0.682377 0.317624 0.250000
O O2 0.805178 0.356606 0.174822
O O3 0.685040 0.438328 0.168449
O O4 0.582173 0.231760 0.178208
O O5 0.828964 0.634685 0.500000
O O6 0.844260 0.524565 0.607816
O O7 0.942639 0.628100 0.605380
O O8 0.546686 0.411189 0.876283
O O9 0.458556 0.364392 0.000000
O O10 0.904383 0.602255 0.118421
O O11 0.000000 0.500000 0.111689
O O12 0.000000 0.584459 0.250000
O O13 0.422939 0.200265 0.500000
#
# Coordination Sequence:
#
# PCOD9562543 Si02
#       5
#    16  16  16  16  16
#     4  12  25  34  50  70  98 128 165 206 257 307
#     4  10  20  34  53  75  96 120 154 200 252 306
#     4   9  21  41  59  70  82 112 168 233 282 313
#     4   9  15  30  55  77  97 117 148 191 246 303
#     4  10  21  35  52  74  99 126 156 198 252 307
#
# _framework density 16.196622000000001
#
# number of rings (size 3 to 8) (size 9 to 14) (size 15 to 20)
#    0.000    2.000    2.000    2.400    5.600    4.000 
#    0.000    1.000    0.000    0.000    0.000    1.400 
#    0.000    0.000    0.000    0.000    0.000    8.000 
#
# Total GULP energy -446548.941138 kJ/mol
# GULP energy per Si atom -5581.861764 kJ/mol
# Density = 1.615976 g / cm^3
# Si number density = 16.196622 Si / 1000 Ang^3
#
#
#
# Elastic Constant Matrix: (Units=GPa)
#
#
# Indices 1 2 3 4 5 6 
#
# 1 72.5495 24.0937 41.2252 0.0000 0.0000 0.0000
# 2 24.0937 72.5495 41.2247 0.0000 0.0000 0.0000
# 3 41.2252 41.2247 103.2870 0.0000 0.0000 0.0000
# 4 0.0000 0.0000 0.0000 13.3078 0.0000 0.0000
# 5 0.0000 0.0000 0.0000 0.0000 13.3024 0.0000
# 6 0.0000 0.0000 0.0000 0.0000 0.0000 8.8065
#
#
#
# Elastic Compliance Matrix: (Units=1/GPa)
#
#
# Indices 1 2 3 4 5 6 
#
# 1 0.018164 -0.002474 -0.006262 0.000000 0.000000 0.000000
# 2 -0.002474 0.018164 -0.006262 0.000000 0.000000 0.000000
# 3 -0.006262 -0.006262 0.014681 0.000000 0.000000 0.000000
# 4 0.000000 0.000000 0.000000 0.075144 0.000000 0.000000
# 5 0.000000 0.000000 0.000000 0.000000 0.075175 0.000000
# 6 0.000000 0.000000 0.000000 0.000000 0.000000 0.113552
#
#
# Mechanical properties :
#
#
# Convention : Reuss Voigt Hill
#
# Bulk Modulus (GPa) = 47.59340 51.27481 49.43411
# Shear Modulus (GPa) = 14.20943 16.53950 15.37446
#
# Velocity S-wave (km/s) = 2.96515 3.19904 3.08431
# Velocity P-wave (km/s) = 6.41649 6.73584 6.57811
#
# Compressibility (1/GPa) = 0.02101131
#
# Stress axis : x y z
#
# Youngs Moduli (GPa) = 55.05473 55.05522 68.11655
#
# Poissons Ratio (x) = 0.13619 0.42657
# Poissons Ratio (y) = 0.13619 0.42656
# Poissons Ratio (z) = 0.34478 0.34477
#
# Static dielectric constant tensor:
#      x y z
#    x 1.559630 0.000000 0.000000 
#    y 0.000000 1.559630 0.000000 
#    z 0.000000 0.000000 1.607550 
# 
# From -- ./inp_files/3091.got.cif
#   From: 2010.05.17/outbox.cif.g08.bks.cpg/sg124_2_cif.got.tgz:3091.got - 2010.05.20 11:49:17.
