data_PCOD9562189
_publ_section_title
;
Structure prediction by ZEFSAII (Michael W. Deem and Ramdas Pophale) SiO2 
 PCOD9562189
Probable space group: P 4/M M M
;
_chemical_formula_sum "Si O2"
_cell_formula_units_Z 72
_cell_length_a 21.022820
_cell_length_b 21.022820
_cell_length_c 7.610306
_cell_angle_alpha 90.000000
_cell_angle_beta 90.000000
_cell_angle_gamma 90.000000
_cell_volume 3363.442931
_symmetry_space_group_name_H-M "P 4/M M M"
_symmetry_group_IT_number 123
_symmetry_cell_setting 'tetragonal'
loop_
_space_group_symop_operation_xyz
x,y,z
-y,x,z
-x,-y,z
y,-x,z
x,-y,-z
-x,y,-z
y,x,-z
-y,-x,-z
-x,-y,-z
y,-x,-z
x,y,-z
-y,x,-z
-x,y,z
x,-y,z
-y,-x,z
y,x,z
loop_
_atom_site_type_symbol
_atom_site_label
_atom_site_fract_x
_atom_site_fract_y
_atom_site_fract_z
Si Si1 0.748493 0.643546 0.796381
Si Si2 0.000000 0.572731 0.788868
Si Si3 0.000000 0.101463 0.787736
Si Si4 0.254522 0.500000 0.787982
Si Si5 0.670618 0.110957 0.707364
Si Si6 0.400905 0.500000 0.212490
Si Si7 0.000000 0.245191 0.703697
O O1 0.693010 0.693010 0.727853
O O2 0.761959 0.571604 0.722010
O O3 0.819299 0.672310 0.790193
O O4 0.729775 0.632511 0.000000
O O5 0.935242 0.609062 0.732054
O O6 0.000000 0.500000 0.727080
O O7 0.000000 0.573191 0.000000
O O8 0.000000 0.170850 0.713827
O O9 0.061211 0.061211 0.733418
O O10 0.000000 0.104596 0.000000
O O11 0.328770 0.500000 0.746145
O O12 0.240136 0.500000 0.000000
O O13 0.678343 0.122553 0.500000
O O14 0.725465 0.064362 0.779688
O O15 0.438539 0.438539 0.275770
O O16 0.404547 0.500000 0.000000
O O17 0.000000 0.266524 0.500000
#
# Coordination Sequence:
#
# PCOD9562189 Si02
#       7
#    16   8   8   8  16   8   8
#     4  10  21  36  55  81 114 153 199 252 307 360
#     4  10  21  37  61  89 116 145 182 232 288 345
#     4   9  19  35  55  83 116 145 176 218 269 325
#     4   9  17  30  48  70 102 140 183 236 294 350
#     4  10  22  39  57  81 115 152 192 237 286 346
#     4   8  12  19  36  63  92 123 161 208 269 338
#     4   9  20  38  57  79 108 145 187 229 273 323
#
# _framework density 21.406637
#
# number of rings (size 3 to 8) (size 9 to 14) (size 15 to 20)
#    0.000    2.556    0.000    3.000    1.556    8.000 
#    0.000    5.000    0.000    0.000    0.000    0.000 
#    0.000    0.000    0.000    6.444    0.000    6.667 
#
# Total GULP energy -400825.505660 kJ/mol
# GULP energy per Si atom -5567.020912 kJ/mol
# Density = 2.135791 g / cm^3
# Si number density = 21.406637 Si / 1000 Ang^3
#
#
#
# Elastic Constant Matrix: (Units=GPa)
#
#
# Indices 1 2 3 4 5 6 
#
# 1 126.7248 54.9869 -4.9848 0.0000 0.0000 0.0000
# 2 54.9869 126.7248 -4.9848 0.0000 0.0000 0.0000
# 3 -4.9848 -4.9848 47.8765 0.0000 0.0000 0.0000
# 4 0.0000 0.0000 0.0000 -0.7487 0.0000 0.0000
# 5 0.0000 0.0000 0.0000 0.0000 -0.7487 0.0000
# 6 0.0000 0.0000 0.0000 0.0000 0.0000 121.5917
#
#
#
# Elastic Compliance Matrix: (Units=1/GPa)
#
#
# Indices 1 2 3 4 5 6 
#
# 1 0.009737 -0.004202 0.000576 0.000000 0.000000 0.000000
# 2 -0.004202 0.009737 0.000576 0.000000 0.000000 0.000000
# 3 0.000576 0.000576 0.021007 0.000000 0.000000 0.000000
# 4 0.000000 0.000000 0.000000 -1.335616 0.000000 0.000000
# 5 0.000000 0.000000 0.000000 0.000000 -1.335616 0.000000
# 6 0.000000 0.000000 0.000000 0.000000 0.000000 0.008224
#
#
# Mechanical properties :
#
#
# Convention : Reuss Voigt Hill
#
# Bulk Modulus (GPa) = 29.08512 43.48452 36.28482
# Shear Modulus (GPa) = -1.91941 41.10611 19.59335
#
# Velocity S-wave (km/s) = -0.94794 4.38682 3.02866
# Velocity P-wave (km/s) = 3.52397 6.78355 5.40532
#
# Compressibility (1/GPa) = 0.03438185
#
# Stress axis : x y z
#
# Youngs Moduli (GPa) = 102.69849 102.69849 47.60305
#
# Poissons Ratio (x) = 0.43158 -0.02743
# Poissons Ratio (y) = 0.43158 -0.02743
# Poissons Ratio (z) = -0.05918 -0.05918
#
# Static dielectric constant tensor:
#      x y z
#    x 1.793420 0.000000 0.000000 
#    y 0.000000 1.793420 0.000000 
#    z 0.000000 0.000000 1.861980 
# 
# From -- ./inp_files/1241.got.cif
#   From: 2010.05.17/outbox.cif.g08.bks.cpg/sg123_1_cif.got.tgz:1241.got - 2010.05.20 11:43:04.
