data_PCOD9562969
_publ_section_title
;
Structure prediction by ZEFSAII (Michael W. Deem and Ramdas Pophale) SiO2 
 PCOD9562969
Probable space group: P 4/N B M
;
_chemical_formula_sum "Si O2"
_cell_formula_units_Z 128
_cell_length_a 24.119065
_cell_length_b 24.119065
_cell_length_c 11.152086
_cell_angle_alpha 90.000000
_cell_angle_beta 90.000000
_cell_angle_gamma 90.000000
_cell_volume 6487.495143
_symmetry_space_group_name_H-M "P 4/N B M"
_symmetry_group_IT_number 125
_space_group.IT_coordinate_system_code '2'
_symmetry_cell_setting 'tetragonal'
loop_
_space_group_symop_operation_xyz
x,y,z
1/2-y,x,z
1/2-x,1/2-y,z
y,1/2-x,z
x,1/2-y,-z
1/2-x,y,-z
y,x,-z
1/2-y,1/2-x,-z
-x,-y,-z
1/2+y,-x,-z
1/2+x,1/2+y,-z
-y,1/2+x,-z
-x,1/2+y,z
1/2+x,-y,z
-y,-x,z
1/2+y,1/2+x,z
loop_
_atom_site_type_symbol
_atom_site_label
_atom_site_fract_x
_atom_site_fract_y
_atom_site_fract_z
Si Si1 0.287916 0.166666 0.845393
Si Si2 0.623844 0.696536 0.423631
Si Si3 0.056853 0.797100 0.741234
Si Si4 0.591876 0.315291 0.515948
Si Si5 0.134551 0.780270 0.121647
Si Si6 0.355910 0.435737 0.072885
Si Si7 0.552749 0.360724 0.022187
Si Si8 0.690513 0.991405 0.304441
O O1 0.320677 0.223660 0.869767
O O2 0.298363 0.153242 0.705156
O O3 0.311475 0.113033 0.912351
O O4 0.639879 0.750000 0.500000
O O5 0.644169 0.644169 0.500000
O O6 0.558443 0.696724 0.398471
O O7 0.060299 0.823510 0.610715
O O8 0.109806 0.759924 0.779803
O O9 0.061008 0.843895 0.841041
O O10 0.006449 0.751981 0.748918
O O11 0.607027 0.250000 0.500000
O O12 0.643591 0.356410 0.526921
O O13 0.547875 0.324290 0.624217
O O14 0.182957 0.817044 0.173648
O O15 0.153961 0.750000 0.000000
O O16 0.086984 0.820707 0.067616
O O17 0.352499 0.466492 0.205347
O O18 0.406686 0.406686 0.000000
O O19 0.345619 0.489302 0.994756
O O20 0.577954 0.422047 0.001016
#
# Coordination Sequence:
#
# PCOD9562969 Si02
#       8
#    16  16  16  16  16  16  16  16
#     4  10  22  39  59  92 133 171 207 258 334 405
#     4  11  20  35  61  91 124 166 215 267 318 390
#     4  10  19  37  65  92 121 165 215 258 311 390
#     4  10  22  41  64  93 128 169 213 263 328 395
#     4   9  18  33  55  88 125 166 206 255 320 384
#     4  11  25  42  63  93 124 165 217 265 327 394
#     4  10  21  39  63  89 123 165 214 272 322 373
#     4  10  23  41  60  92 126 169 211 268 327 389
#
# _framework density 19.730264999999999
#
# number of rings (size 3 to 8) (size 9 to 14) (size 15 to 20)
#    0.000    1.875    2.500    1.500    0.000    7.125 
#    4.500    0.625    0.000    0.375    0.000    0.000 
#    0.000    0.000    0.000    0.000    0.000    0.000 
#
# Total GULP energy -712840.142819 kJ/mol
# GULP energy per Si atom -5569.063616 kJ/mol
# Density = 1.968536 g / cm^3
# Si number density = 19.730265 Si / 1000 Ang^3
#
#
#
# Elastic Constant Matrix: (Units=GPa)
#
#
# Indices 1 2 3 4 5 6 
#
# 1 68.6347 72.9963 31.8155 0.0000 0.0000 0.0000
# 2 72.9963 68.6347 31.8155 0.0000 0.0000 0.0000
# 3 31.8155 31.8155 97.7706 0.0000 0.0000 0.0000
# 4 0.0000 0.0000 0.0000 -259.3647 0.0000 0.0000
# 5 0.0000 0.0000 0.0000 0.0000 -259.3647 0.0000
# 6 0.0000 0.0000 0.0000 0.0000 0.0000 11.5787
#
#
#
# Elastic Compliance Matrix: (Units=1/GPa)
#
#
# Indices 1 2 3 4 5 6 
#
# 1 -0.110501 0.118770 -0.002691 0.000000 0.000000 0.000000
# 2 0.118770 -0.110501 -0.002691 0.000000 0.000000 0.000000
# 3 -0.002691 -0.002691 0.011979 0.000000 0.000000 0.000000
# 4 0.000000 0.000000 0.000000 -0.003856 0.000000 0.000000
# 5 0.000000 0.000000 0.000000 0.000000 -0.003856 0.000000
# 6 0.000000 0.000000 0.000000 0.000000 0.000000 0.086366
#
#
# Mechanical properties :
#
#
# Convention : Reuss Voigt Hill
#
# Bulk Modulus (GPa) = 56.32360 56.47719 56.40040
# Shear Modulus (GPa) = -14.23582 -94.86931 -54.55257
#
# Velocity S-wave (km/s) = -2.68903 -6.94172 -5.26395
# Velocity P-wave (km/s) = 4.35518 5.96349 2.88059
#
# Compressibility (1/GPa) = 0.01775455
#
# Stress axis : x y z
#
# Youngs Moduli (GPa) = -9.04970 -9.04970 83.47673
#
# Poissons Ratio (x) = 1.07484 0.22464
# Poissons Ratio (y) = 1.07484 0.22464
# Poissons Ratio (z) = -0.02435 -0.02435
#
# Static dielectric constant tensor:
#      x y z
#    x 1.718340 0.000000 0.000000 
#    y 0.000000 1.718340 0.000000 
#    z 0.000000 0.000000 1.759270 
# 
# From -- ./inp_files/4389.got.cif
#   From: 2010.05.17/outbox.cif.g08.bks.cpg/sg125_3_cif.got.tgz:4389.got - 2010.05.20 11:54:10.
