data_PCOD9562277
_publ_section_title
;
Structure prediction by ZEFSAII (Michael W. Deem and Ramdas Pophale) SiO2 
 PCOD9562277
Probable space group: P 4/M M M
;
_chemical_formula_sum "Si O2"
_cell_formula_units_Z 112
_cell_length_a 18.721766
_cell_length_b 18.721766
_cell_length_c 22.616939
_cell_angle_alpha 90.000000
_cell_angle_beta 90.000000
_cell_angle_gamma 90.000000
_cell_volume 7927.339397
_symmetry_space_group_name_H-M "P 4/M M M"
_symmetry_group_IT_number 123
_symmetry_cell_setting 'tetragonal'
loop_
_space_group_symop_operation_xyz
x,y,z
-y,x,z
-x,-y,z
y,-x,z
x,-y,-z
-x,y,-z
y,x,-z
-y,-x,-z
-x,-y,-z
y,-x,-z
x,y,-z
-y,x,-z
-x,y,z
x,-y,z
-y,-x,z
y,x,z
loop_
_atom_site_type_symbol
_atom_site_label
_atom_site_fract_x
_atom_site_fract_y
_atom_site_fract_z
Si Si1 0.151868 0.417004 0.148503
Si Si2 0.082191 0.338641 0.256789
Si Si3 0.085278 0.700397 0.931773
Si Si4 0.341932 0.224832 0.326296
Si Si5 0.416410 0.700777 0.569672
Si Si6 0.701587 0.584119 0.214134
Si Si7 0.918154 0.198437 0.824249
O O1 0.142198 0.500000 0.135022
O O2 0.105299 0.395290 0.206243
O O3 0.127116 0.366424 0.095590
O O4 0.234127 0.404308 0.167405
O O5 0.142377 0.339354 0.307292
O O6 0.087162 0.262869 0.222695
O O7 0.000000 0.349744 0.275147
O O8 0.099242 0.766410 0.887901
O O9 0.000000 0.685936 0.927175
O O10 0.102577 0.713828 0.000000
O O11 0.265178 0.265178 0.325379
O O12 0.379193 0.240901 0.388654
O O13 0.389168 0.265385 0.276433
O O14 0.409792 0.717546 0.500000
O O15 0.500000 0.693261 0.583691
O O16 0.372461 0.627540 0.580396
O O17 0.685319 0.500000 0.216516
O O18 0.633517 0.633517 0.201218
O O19 0.863584 0.136417 0.810137
O O20 0.000000 0.173623 0.825403
#
# Coordination Sequence:
#
# PCOD9562277 Si02
#       7
#    16  16  16  16  16  16  16
#     4   9  17  28  41  59  82 103 127 163 202 240
#     4   9  17  28  43  62  82 106 135 166 201 241
#     4   9  18  30  42  58  80 106 134 162 195 235
#     4   9  16  27  43  61  82 108 137 168 203 241
#     4   9  17  28  42  61  85 113 144 176 208 241
#     4   9  17  28  42  60  81 104 130 162 200 241
#     4   9  17  29  44  62  84 107 132 163 197 235
#
# _framework density 14.128321
#
# number of rings (size 3 to 8) (size 9 to 14) (size 15 to 20)
#    0.000    3.000    0.000    2.143    0.000    6.143 
#    0.000    1.429    0.000    3.000    0.000    3.000 
#    0.000    0.000    0.000    3.143    0.000    0.000 
#
# Total GULP energy -623721.480750 kJ/mol
# GULP energy per Si atom -5568.941792 kJ/mol
# Density = 1.409616 g / cm^3
# Si number density = 14.128321 Si / 1000 Ang^3
#
#
#
# Elastic Constant Matrix: (Units=GPa)
#
#
# Indices 1 2 3 4 5 6 
#
# 1 75.8032 38.9513 20.3503 0.0000 0.0000 0.0000
# 2 38.9513 75.8032 20.3503 0.0000 0.0000 0.0000
# 3 20.3503 20.3503 46.6031 0.0000 0.0000 0.0000
# 4 0.0000 0.0000 0.0000 15.5875 0.0000 0.0000
# 5 0.0000 0.0000 0.0000 0.0000 15.5875 0.0000
# 6 0.0000 0.0000 0.0000 0.0000 0.0000 -6.8087
#
#
#
# Elastic Compliance Matrix: (Units=1/GPa)
#
#
# Indices 1 2 3 4 5 6 
#
# 1 0.018723 -0.008412 -0.004503 0.000000 0.000000 0.000000
# 2 -0.008412 0.018723 -0.004503 0.000000 0.000000 0.000000
# 3 -0.004503 -0.004503 0.025390 0.000000 0.000000 0.000000
# 4 0.000000 0.000000 0.000000 0.064154 0.000000 0.000000
# 5 0.000000 0.000000 0.000000 0.000000 0.064154 0.000000
# 6 0.000000 0.000000 0.000000 0.000000 0.000000 -0.146872
#
#
# Mechanical properties :
#
#
# Convention : Reuss Voigt Hill
#
# Bulk Modulus (GPa) = 35.71162 39.72368 37.71765
# Shear Modulus (GPa) = 56.53438 12.77712 34.65575
#
# Velocity S-wave (km/s) = 6.33260 3.01052 4.95808
# Velocity P-wave (km/s) = 8.87697 6.34521 7.71564
#
# Compressibility (1/GPa) = 0.02800209
#
# Stress axis : x y z
#
# Youngs Moduli (GPa) = 53.40898 53.40898 39.38532
#
# Poissons Ratio (x) = 0.44929 0.17734
# Poissons Ratio (y) = 0.44929 0.17734
# Poissons Ratio (z) = 0.24048 0.24048
#
# Static dielectric constant tensor:
#      x y z
#    x 1.459230 0.000000 0.000000 
#    y 0.000000 1.459230 0.000000 
#    z 0.000000 0.000000 1.457360 
# 
# From -- ./inp_files/6688.got.cif
#   From: 2010.05.17/outbox.cif.g08.bks.cpg/sg123_4_cif.got.tgz:6688.got - 2010.05.20 11:43:04.
