data_PCOD9562806
_publ_section_title
;
Structure prediction by ZEFSAII (Michael W. Deem and Ramdas Pophale) SiO2 
 PCOD9562806
Probable space group: P 4/M C C
;
_chemical_formula_sum "Si O2"
_cell_formula_units_Z 48
_cell_length_a 8.515823
_cell_length_b 8.515823
_cell_length_c 33.943744
_cell_angle_alpha 90.000000
_cell_angle_beta 90.000000
_cell_angle_gamma 90.000000
_cell_volume 2461.574564
_symmetry_space_group_name_H-M "P 4/M C C"
_symmetry_group_IT_number 124
_symmetry_cell_setting 'tetragonal'
loop_
_space_group_symop_operation_xyz
x,y,z
-y,x,z
-x,-y,z
y,-x,z
x,-y,1/2-z
-x,y,1/2-z
y,x,1/2-z
-y,-x,1/2-z
-x,-y,-z
y,-x,-z
x,y,-z
-y,x,-z
-x,y,1/2+z
x,-y,1/2+z
-y,-x,1/2+z
y,x,1/2+z
loop_
_atom_site_type_symbol
_atom_site_label
_atom_site_fract_x
_atom_site_fract_y
_atom_site_fract_z
Si Si1 0.024786 0.261157 0.206557
Si Si2 0.000000 0.500000 0.361185
Si Si3 0.912223 0.746642 0.500000
Si Si4 0.424593 0.244064 0.072441
O O1 0.055709 0.369703 0.169482
O O2 0.163042 0.135233 0.204226
O O3 0.000000 0.334327 0.250000
O O4 0.863417 0.571828 0.388596
O O5 0.866067 0.640340 0.462513
O O6 0.092751 0.806629 0.500000
O O7 0.601970 0.312827 0.070233
#
# Coordination Sequence:
#
# PCOD9562806 Si02
#       4
#    16   8   8  16
#     4   9  19  36  57  82 113 150 192 238 289 340
#     4  12  21  35  58  86 116 150 194 239 283 342
#     4  11  24  43  66  89 112 146 196 247 292 347
#     4  11  24  40  59  85 119 156 191 235 295 355
#
# _framework density 19.499713
#
# number of rings (size 3 to 8) (size 9 to 14) (size 15 to 20)
#    0.000    1.500    0.000    6.500    0.000    3.333 
#    0.000    3.333    0.000    0.000    0.000   14.000 
#    0.000    0.000    0.000    0.000    0.000    0.000 
#
# Total GULP energy -267501.746437 kJ/mol
# GULP energy per Si atom -5572.953051 kJ/mol
# Density = 1.945533 g / cm^3
# Si number density = 19.499713 Si / 1000 Ang^3
#
#
#
# Elastic Constant Matrix: (Units=GPa)
#
#
# Indices 1 2 3 4 5 6 
#
# 1 98.5851 33.8158 60.6553 0.0000 0.0000 0.0000
# 2 33.8158 98.5851 60.6553 0.0000 0.0000 0.0000
# 3 60.6553 60.6553 176.3719 0.0000 0.0000 0.0000
# 4 0.0000 0.0000 0.0000 34.9928 0.0000 0.0000
# 5 0.0000 0.0000 0.0000 0.0000 34.9928 0.0000
# 6 0.0000 0.0000 0.0000 0.0000 0.0000 22.3197
#
#
#
# Elastic Compliance Matrix: (Units=1/GPa)
#
#
# Indices 1 2 3 4 5 6 
#
# 1 0.013234 -0.002206 -0.003792 0.000000 0.000000 0.000000
# 2 -0.002206 0.013234 -0.003792 0.000000 0.000000 0.000000
# 3 -0.003792 -0.003792 0.008278 0.000000 0.000000 0.000000
# 4 0.000000 0.000000 0.000000 0.028577 0.000000 0.000000
# 5 0.000000 0.000000 0.000000 0.000000 0.028577 0.000000
# 6 0.000000 0.000000 0.000000 0.000000 0.000000 0.044804
#
#
# Mechanical properties :
#
#
# Convention : Reuss Voigt Hill
#
# Bulk Modulus (GPa) = 65.94684 75.97719 70.96201
# Shear Modulus (GPa) = 30.99051 33.02211 32.00631
#
# Velocity S-wave (km/s) = 3.99090 4.11964 4.05578
# Velocity P-wave (km/s) = 7.42490 7.85343 7.64217
#
# Compressibility (1/GPa) = 0.01516373
#
# Stress axis : x y z
#
# Youngs Moduli (GPa) = 75.56571 75.56571 120.79727
#
# Poissons Ratio (x) = 0.16669 0.45812
# Poissons Ratio (y) = 0.16669 0.45812
# Poissons Ratio (z) = 0.28658 0.28658
#
# Static dielectric constant tensor:
#      x y z
#    x 1.707020 0.000000 0.000000 
#    y 0.000000 1.707020 0.000000 
#    z 0.000000 0.000000 1.729470 
# 
# From -- ./inp_files/6759.got.cif
#   From: 2010.05.17/outbox.cif.g08.bks.cpg/sg124_4_cif.got.tgz:6759.got - 2010.05.20 11:49:17.
