data_PCOD9562612
_publ_section_title
;
Structure prediction by ZEFSAII (Michael W. Deem and Ramdas Pophale) SiO2 
 PCOD9562612
Probable space group: P 4/M C C
;
_chemical_formula_sum "Si O2"
_cell_formula_units_Z 64
_cell_length_a 13.425196
_cell_length_b 13.425196
_cell_length_c 18.816275
_cell_angle_alpha 90.000000
_cell_angle_beta 90.000000
_cell_angle_gamma 90.000000
_cell_volume 3391.368027
_symmetry_space_group_name_H-M "P 4/M C C"
_symmetry_group_IT_number 124
_symmetry_cell_setting 'tetragonal'
loop_
_space_group_symop_operation_xyz
x,y,z
-y,x,z
-x,-y,z
y,-x,z
x,-y,1/2-z
-x,y,1/2-z
y,x,1/2-z
-y,-x,1/2-z
-x,-y,-z
y,-x,-z
x,y,-z
-y,x,-z
-x,y,1/2+z
x,-y,1/2+z
-y,-x,1/2+z
y,x,1/2+z
loop_
_atom_site_type_symbol
_atom_site_label
_atom_site_fract_x
_atom_site_fract_y
_atom_site_fract_z
Si Si1 0.612775 0.621944 0.416435
Si Si2 0.704114 0.805756 0.342600
Si Si3 0.729347 0.098226 0.705894
Si Si4 0.992099 0.619066 0.080124
O O1 0.494372 0.635883 0.404564
O O2 0.632655 0.642608 0.500000
O O3 0.673051 0.696695 0.367154
O O4 0.823445 0.807197 0.328028
O O5 0.666697 0.840193 0.264857
O O6 0.660638 0.882878 0.399497
O O7 0.764770 0.000000 0.750000
O O8 0.664148 0.061521 0.640592
O O9 0.000000 0.500000 0.083273
O O10 0.018585 0.649992 0.000000
#
# Coordination Sequence:
#
# PCOD9562612 Si02
#       4
#    16  16  16  16
#     4   9  19  35  55  85 128 170 209 255 310 382
#     4  10  20  37  61  89 117 164 212 250 318 384
#     4   9  21  40  58  84 119 160 208 259 313 368
#     4  10  22  38  59  91 125 159 206 262 322 385
#
# _framework density 18.871441999999998
#
# number of rings (size 3 to 8) (size 9 to 14) (size 15 to 20)
#    0.000    2.500    0.000    1.500    3.500    6.500 
#    4.500    0.000    0.000   78.750    0.000   15.750 
#    0.000    0.000    0.000    0.000    0.000    0.000 
#
# Total GULP energy -356429.182431 kJ/mol
# GULP energy per Si atom -5569.205975 kJ/mol
# Density = 1.882849 g / cm^3
# Si number density = 18.871442 Si / 1000 Ang^3
#
#
#
# Elastic Constant Matrix: (Units=GPa)
#
#
# Indices 1 2 3 4 5 6 
#
# 1 71.0209 46.0531 49.4942 0.0000 0.0000 0.0000
# 2 46.0531 71.0209 49.4942 0.0000 0.0000 0.0000
# 3 49.4942 49.4942 116.0784 0.0000 0.0000 0.0000
# 4 0.0000 0.0000 0.0000 57.2226 0.0000 0.0000
# 5 0.0000 0.0000 0.0000 0.0000 57.2226 0.0000
# 6 0.0000 0.0000 0.0000 0.0000 0.0000 26.3025
#
#
#
# Elastic Compliance Matrix: (Units=1/GPa)
#
#
# Indices 1 2 3 4 5 6 
#
# 1 0.026704 -0.013347 -0.005695 0.000000 0.000000 0.000000
# 2 -0.013347 0.026704 -0.005695 0.000000 0.000000 0.000000
# 3 -0.005695 -0.005695 0.013472 0.000000 0.000000 0.000000
# 4 0.000000 0.000000 0.000000 0.017476 0.000000 0.000000
# 5 0.000000 0.000000 0.000000 0.000000 0.017476 0.000000
# 6 0.000000 0.000000 0.000000 0.000000 0.000000 0.038019
#
#
# Mechanical properties :
#
#
# Convention : Reuss Voigt Hill
#
# Bulk Modulus (GPa) = 57.45577 60.91148 59.18362
# Shear Modulus (GPa) = 25.62423 35.68813 30.65618
#
# Velocity S-wave (km/s) = 3.68887 4.35342 4.03485
# Velocity P-wave (km/s) = 6.97536 7.59057 7.28946
#
# Compressibility (1/GPa) = 0.01740469
#
# Stress axis : x y z
#
# Youngs Moduli (GPa) = 37.44714 37.44714 74.23008
#
# Poissons Ratio (x) = 0.49982 0.42276
# Poissons Ratio (y) = 0.49982 0.42276
# Poissons Ratio (z) = 0.21327 0.21327
#
# Static dielectric constant tensor:
#      x y z
#    x 1.679410 0.000000 0.000000 
#    y 0.000000 1.679410 0.000000 
#    z 0.000000 0.000000 1.665850 
# 
# From -- ./inp_files/4956.got.cif
#   From: 2010.05.17/outbox.cif.g08.bks.cpg/sg124_3_cif.got.tgz:4956.got - 2010.05.20 11:49:17.
