data_PCOD9562068
_publ_section_title
;
Structure prediction by ZEFSAII (Michael W. Deem and Ramdas Pophale) SiO2 
 PCOD9562068
Probable space group: P 4/M M M
;
_chemical_formula_sum "Si O2"
_cell_formula_units_Z 96
_cell_length_a 25.398153
_cell_length_b 25.398153
_cell_length_c 7.656827
_cell_angle_alpha 90.000000
_cell_angle_beta 90.000000
_cell_angle_gamma 90.000000
_cell_volume 4939.160112
_symmetry_space_group_name_H-M "P 4/M M M"
_symmetry_group_IT_number 123
_symmetry_cell_setting 'tetragonal'
loop_
_space_group_symop_operation_xyz
x,y,z
-y,x,z
-x,-y,z
y,-x,z
x,-y,-z
-x,y,-z
y,x,-z
-y,-x,-z
-x,-y,-z
y,-x,-z
x,y,-z
-y,x,-z
-x,y,z
x,-y,z
-y,-x,z
y,x,z
loop_
_atom_site_type_symbol
_atom_site_label
_atom_site_fract_x
_atom_site_fract_y
_atom_site_fract_z
Si Si1 0.559957 0.645233 0.291364
Si Si2 0.356134 0.729930 0.789287
Si Si3 0.500000 0.063691 0.301588
Si Si4 0.158889 0.314581 0.206821
Si Si5 0.614145 0.939931 0.287966
Si Si6 0.940355 0.850616 0.500000
Si Si7 0.795064 0.116006 0.199178
O O1 0.557000 0.638137 0.500000
O O2 0.500000 0.643883 0.223394
O O3 0.598855 0.598855 0.222878
O O4 0.590019 0.700544 0.261751
O O5 0.308710 0.691291 0.731827
O O6 0.343965 0.788967 0.724105
O O7 0.356042 0.730758 0.000000
O O8 0.500000 0.084910 0.500000
O O9 0.443917 0.076274 0.220350
O O10 0.500000 0.000000 0.313465
O O11 0.105244 0.346231 0.235176
O O12 0.146586 0.255952 0.271348
O O13 0.168270 0.308687 0.000000
O O14 0.611465 0.941422 0.500000
O O15 0.626425 0.000000 0.231546
O O16 0.898796 0.898796 0.500000
O O17 0.928424 0.814673 0.330943
O O18 0.000000 0.869462 0.500000
O O19 0.841686 0.158315 0.190702
O O20 0.784618 0.097398 0.000000
#
# Coordination Sequence:
#
# PCOD9562068 Si02
#       7
#    16  16   8  16  16   8  16
#     4   9  18  33  52  76 106 138 175 220 270 323
#     4   9  18  34  54  73  98 135 174 214 263 317
#     4   7  12  28  49  63  81 119 165 201 240 289
#     4  10  20  33  51  77 104 134 174 216 266 324
#     4   9  18  32  50  70  95 129 168 210 253 303
#     4  10  22  39  60  88 118 151 193 233 278 336
#     4   9  19  37  58  80 112 150 185 227 277 331
#
# _framework density 19.436502999999998
#
# number of rings (size 3 to 8) (size 9 to 14) (size 15 to 20)
#    0.000    2.917    0.000    1.500    1.167    4.583 
#    1.500    2.917    0.000    1.500    0.000    4.667 
#    0.000    0.000    0.000    0.000    0.000    0.000 
#
# Total GULP energy -534795.387435 kJ/mol
# GULP energy per Si atom -5570.785286 kJ/mol
# Density = 1.939226 g / cm^3
# Si number density = 19.436503 Si / 1000 Ang^3
#
#
#
# Elastic Constant Matrix: (Units=GPa)
#
#
# Indices 1 2 3 4 5 6 
#
# 1 79.2154 62.3059 17.0048 0.0000 0.0000 0.0000
# 2 62.3059 79.2154 17.0048 0.0000 0.0000 0.0000
# 3 17.0048 17.0048 47.9041 0.0000 0.0000 0.0000
# 4 0.0000 0.0000 0.0000 20.5527 0.0000 0.0000
# 5 0.0000 0.0000 0.0000 0.0000 20.5527 0.0000
# 6 0.0000 0.0000 0.0000 0.0000 0.0000 8.4626
#
#
#
# Elastic Compliance Matrix: (Units=1/GPa)
#
#
# Indices 1 2 3 4 5 6 
#
# 1 0.033432 -0.025707 -0.002742 0.000000 0.000000 0.000000
# 2 -0.025707 0.033432 -0.002742 0.000000 0.000000 0.000000
# 3 -0.002742 -0.002742 0.022822 0.000000 0.000000 0.000000
# 4 0.000000 0.000000 0.000000 0.048655 0.000000 0.000000
# 5 0.000000 0.000000 0.000000 0.000000 0.048655 0.000000
# 6 0.000000 0.000000 0.000000 0.000000 0.000000 0.118167
#
#
# Mechanical properties :
#
#
# Convention : Reuss Voigt Hill
#
# Bulk Modulus (GPa) = 36.62581 44.32956 40.47768
# Shear Modulus (GPa) = 13.27505 17.24823 15.26164
#
# Velocity S-wave (km/s) = 2.61625 2.98218 2.80519
# Velocity P-wave (km/s) = 5.29255 5.89192 5.60026
#
# Compressibility (1/GPa) = 0.02730315
#
# Stress axis : x y z
#
# Youngs Moduli (GPa) = 29.91166 29.91166 43.81758
#
# Poissons Ratio (x) = 0.76893 0.12016
# Poissons Ratio (y) = 0.76893 0.12016
# Poissons Ratio (z) = 0.08202 0.08202
#
# Static dielectric constant tensor:
#      x y z
#    x 1.680630 0.000000 0.000000 
#    y 0.000000 1.680630 0.000000 
#    z 0.000000 0.000000 1.739800 
# 
# From -- ./inp_files/1677.got.cif
#   From: 2010.05.17/outbox.cif.g08.bks.cpg/sg123_1_cif.got.tgz:1677.got - 2010.05.20 11:43:04.
