data_PCOD9562516
_publ_section_title
;
Structure prediction by ZEFSAII (Michael W. Deem and Ramdas Pophale) SiO2 
 PCOD9562516
Probable space group: P 4/M C C
;
_chemical_formula_sum "Si O2"
_cell_formula_units_Z 116
_cell_length_a 17.381378
_cell_length_b 17.381378
_cell_length_c 18.369300
_cell_angle_alpha 90.000000
_cell_angle_beta 90.000000
_cell_angle_gamma 90.000000
_cell_volume 5549.591494
_symmetry_space_group_name_H-M "P 4/M C C"
_symmetry_group_IT_number 124
_symmetry_cell_setting 'tetragonal'
loop_
_space_group_symop_operation_xyz
x,y,z
-y,x,z
-x,-y,z
y,-x,z
x,-y,1/2-z
-x,y,1/2-z
y,x,1/2-z
-y,-x,1/2-z
-x,-y,-z
y,-x,-z
x,y,-z
-y,x,-z
-x,y,1/2+z
x,-y,1/2+z
-y,-x,1/2+z
y,x,1/2+z
loop_
_atom_site_type_symbol
_atom_site_label
_atom_site_fract_x
_atom_site_fract_y
_atom_site_fract_z
Si Si1 0.000000 0.000000 0.631959
Si Si2 0.202065 0.700531 0.290692
Si Si3 0.028397 0.300827 0.831793
Si Si4 0.227723 0.439490 0.685383
Si Si5 0.926045 0.846868 0.914829
Si Si6 0.753401 0.781008 0.919614
Si Si7 0.465719 0.375882 0.914166
Si Si8 0.387570 0.899602 0.585470
O O1 0.941274 0.074126 0.626390
O O2 0.216729 0.783272 0.250000
O O3 0.117520 0.680447 0.318141
O O4 0.226369 0.639456 0.231217
O O5 0.250743 0.711254 0.363559
O O6 0.027130 0.223911 0.880580
O O7 0.000000 0.286114 0.750000
O O8 0.977896 0.364932 0.872875
O O9 0.226015 0.500000 0.750000
O O10 0.303017 0.448073 0.635803
O O11 0.152636 0.444956 0.633208
O O12 0.836934 0.820903 0.911726
O O13 0.947121 0.859003 0.000000
O O14 0.689202 0.846150 0.911622
O O15 0.746841 0.748772 0.000000
O O16 0.551860 0.408809 0.900810
O O17 0.459851 0.355774 0.000000
O O18 0.407418 0.910580 0.500000
#
# Coordination Sequence:
#
# PCOD9562516 Si02
#       8
#     4  16  16  16  16  16  16  16
#     4  12  21  32  49  78 125 168 201 262 341 408
#     4  11  22  41  63  92 131 168 222 280 337 406
#     4  11  21  39  62  86 115 168 222 280 338 392
#     4  12  26  40  67 103 139 178 222 281 343 411
#     4  10  20  32  51  80 114 157 210 265 327 398
#     4   9  19  36  60  86 116 164 222 273 324 393
#     4   9  21  43  69 102 146 190 226 267 331 415
#     4  11  22  41  66  93 126 172 226 279 336 401
#
# _framework density 20.902439000000001
#
# number of rings (size 3 to 8) (size 9 to 14) (size 15 to 20)
#    0.000    1.517    2.759    2.690    1.931    2.759 
#    0.000    3.793    0.000    0.828    0.000    0.000 
#    0.000    0.000    0.000    0.000    0.000    0.000 
#
# Total GULP energy -646427.455034 kJ/mol
# GULP energy per Si atom -5572.650474 kJ/mol
# Density = 2.085486 g / cm^3
# Si number density = 20.902439 Si / 1000 Ang^3
#
#
#
# Elastic Constant Matrix: (Units=GPa)
#
#
# Indices 1 2 3 4 5 6 
#
# 1 72.4529 29.3667 49.7252 0.0000 0.0000 0.0000
# 2 29.3667 72.4525 49.7257 0.0000 0.0000 0.0000
# 3 49.7252 49.7257 118.9705 0.0000 0.0000 0.0000
# 4 0.0000 0.0000 0.0000 3.5682 0.0000 0.0000
# 5 0.0000 0.0000 0.0000 0.0000 3.5679 0.0000
# 6 0.0000 0.0000 0.0000 0.0000 0.0000 25.1836
#
#
#
# Elastic Compliance Matrix: (Units=1/GPa)
#
#
# Indices 1 2 3 4 5 6 
#
# 1 0.019903 -0.003306 -0.006937 0.000000 0.000000 0.000000
# 2 -0.003306 0.019903 -0.006937 0.000000 0.000000 0.000000
# 3 -0.006937 -0.006937 0.014204 0.000000 0.000000 0.000000
# 4 0.000000 0.000000 0.000000 0.280252 0.000000 0.000000
# 5 0.000000 0.000000 0.000000 0.000000 0.280276 0.000000
# 6 0.000000 0.000000 0.000000 0.000000 0.000000 0.039708
#
#
# Mechanical properties :
#
#
# Convention : Reuss Voigt Hill
#
# Bulk Modulus (GPa) = 50.88981 57.94569 54.41775
# Shear Modulus (GPa) = 7.19262 15.46783 11.33023
#
# Velocity S-wave (km/s) = 1.85702 2.72325 2.33073
# Velocity P-wave (km/s) = 5.38491 6.13761 5.77354
#
# Compressibility (1/GPa) = 0.01965030
#
# Stress axis : x y z
#
# Youngs Moduli (GPa) = 50.24371 50.24304 70.40176
#
# Poissons Ratio (x) = 0.16612 0.48836
# Poissons Ratio (y) = 0.16612 0.48838
# Poissons Ratio (z) = 0.34853 0.34854
#
# Static dielectric constant tensor:
#      x y z
#    x 1.786990 0.000000 0.000000 
#    y 0.000000 1.786990 0.000000 
#    z 0.000000 0.000000 1.809310 
# 
# From -- ./inp_files/4448.got.cif
#   From: 2010.05.17/outbox.cif.g08.bks.cpg/sg124_3_cif.got.tgz:4448.got - 2010.05.20 11:49:17.
