data_PCOD9562777
_publ_section_title
;
Structure prediction by ZEFSAII (Michael W. Deem and Ramdas Pophale) SiO2 
 PCOD9562777
Probable space group: P 4/M C C
;
_chemical_formula_sum "Si O2"
_cell_formula_units_Z 58
_cell_length_a 14.651986
_cell_length_b 14.651986
_cell_length_c 13.461296
_cell_angle_alpha 90.000000
_cell_angle_beta 90.000000
_cell_angle_gamma 90.000000
_cell_volume 2889.880364
_symmetry_space_group_name_H-M "P 4/M C C"
_symmetry_group_IT_number 124
_symmetry_cell_setting 'tetragonal'
loop_
_space_group_symop_operation_xyz
x,y,z
-y,x,z
-x,-y,z
y,-x,z
x,-y,1/2-z
-x,y,1/2-z
y,x,1/2-z
-y,-x,1/2-z
-x,-y,-z
y,-x,-z
x,y,-z
-y,x,-z
-x,y,1/2+z
x,-y,1/2+z
-y,-x,1/2+z
y,x,1/2+z
loop_
_atom_site_type_symbol
_atom_site_label
_atom_site_fract_x
_atom_site_fract_y
_atom_site_fract_z
Si Si1 0.747234 0.394026 0.783319
Si Si2 0.988490 0.604933 0.000000
Si Si3 0.802724 0.659299 0.500000
Si Si4 0.839161 0.128448 0.000000
Si Si5 0.711370 0.086518 0.178557
Si Si6 0.000000 0.000000 0.000000
O O1 0.756596 0.500000 0.750000
O O2 0.651921 0.348080 0.750000
O O3 0.826311 0.327781 0.737064
O O4 0.759966 0.383990 0.901480
O O5 0.088721 0.646140 0.000000
O O6 0.000000 0.500000 0.000000
O O7 0.936673 0.634760 0.097863
O O8 0.799134 0.768462 0.500000
O O9 0.799119 0.096931 0.107299
O O10 0.945339 0.099893 0.000000
O O11 0.724209 0.000000 0.250000
#
# Coordination Sequence:
#
# PCOD9562777 Si02
#       6
#    16   8   8   8  16   2
#     4  12  27  46  74 104 142 187 241 306 379 442
#     4  11  22  36  63  96 132 172 229 288 343 414
#     4  12  23  46  73  99 141 191 239 295 369 434
#     4  11  25  46  67 100 148 192 237 288 343 437
#     4  11  23  41  69 101 139 184 234 291 351 415
#     4  12  28  44  70 108 144 202 248 272 354 432
#
# _framework density 20.070035000000001
#
# number of rings (size 3 to 8) (size 9 to 14) (size 15 to 20)
#    0.000    0.552    5.517    3.310    0.000    2.483 
#    0.000    0.690    0.000    1.655    0.000    0.000 
#    0.000    0.000    0.000    0.000    0.000    0.000 
#
# Total GULP energy -323245.270950 kJ/mol
# GULP energy per Si atom -5573.194327 kJ/mol
# Density = 2.002435 g / cm^3
# Si number density = 20.070035 Si / 1000 Ang^3
#
#
#
# Elastic Constant Matrix: (Units=GPa)
#
#
# Indices 1 2 3 4 5 6 
#
# 1 96.1173 10.2351 47.9106 0.0000 0.0000 0.0000
# 2 10.2351 96.1141 47.9096 0.0000 0.0000 0.0000
# 3 47.9106 47.9096 176.8146 0.0000 0.0000 0.0000
# 4 0.0000 0.0000 0.0000 33.5206 0.0000 0.0000
# 5 0.0000 0.0000 0.0000 0.0000 33.5172 0.0000
# 6 0.0000 0.0000 0.0000 0.0000 0.0000 17.1241
#
#
#
# Elastic Compliance Matrix: (Units=1/GPa)
#
#
# Indices 1 2 3 4 5 6 
#
# 1 0.012042 0.000398 -0.003371 0.000000 0.000000 0.000000
# 2 0.000398 0.012042 -0.003371 0.000000 0.000000 0.000000
# 3 -0.003371 -0.003371 0.007482 0.000000 0.000000 0.000000
# 4 0.000000 0.000000 0.000000 0.029832 0.000000 0.000000
# 5 0.000000 0.000000 0.000000 0.000000 0.029835 0.000000
# 6 0.000000 0.000000 0.000000 0.000000 0.000000 0.058397
#
#
# Mechanical properties :
#
#
# Convention : Reuss Voigt Hill
#
# Bulk Modulus (GPa) = 52.96876 64.57294 58.77085
# Shear Modulus (GPa) = 29.65396 34.36508 32.00952
#
# Velocity S-wave (km/s) = 3.84803 4.14243 3.99794
# Velocity P-wave (km/s) = 6.79650 7.42451 7.11743
#
# Compressibility (1/GPa) = 0.01887905
#
# Stress axis : x y z
#
# Youngs Moduli (GPa) = 83.04446 83.04180 133.64851
#
# Poissons Ratio (x) = -0.03304 0.45049
# Poissons Ratio (y) = -0.03304 0.45049
# Poissons Ratio (z) = 0.27992 0.27991
#
# Static dielectric constant tensor:
#      x y z
#    x 1.717100 0.000000 0.000000 
#    y 0.000000 1.717100 0.000000 
#    z 0.000000 0.000000 1.688940 
# 
# From -- ./inp_files/3028.got.cif
#   From: 2010.05.17/outbox.cif.g08.bks.cpg/sg124_2_cif.got.tgz:3028.got - 2010.05.20 11:49:17.
