data_PCOD9562851
_publ_section_title
;
Structure prediction by ZEFSAII (Michael W. Deem and Ramdas Pophale) SiO2 
 PCOD9562851
Probable space group: P 4/M C C
;
_chemical_formula_sum "Si O2"
_cell_formula_units_Z 64
_cell_length_a 13.117823
_cell_length_b 13.117823
_cell_length_c 14.096985
_cell_angle_alpha 90.000000
_cell_angle_beta 90.000000
_cell_angle_gamma 90.000000
_cell_volume 2425.770839
_symmetry_space_group_name_H-M "P 4/M C C"
_symmetry_group_IT_number 124
_symmetry_cell_setting 'tetragonal'
loop_
_space_group_symop_operation_xyz
x,y,z
-y,x,z
-x,-y,z
y,-x,z
x,-y,1/2-z
-x,y,1/2-z
y,x,1/2-z
-y,-x,1/2-z
-x,-y,-z
y,-x,-z
x,y,-z
-y,x,-z
-x,y,1/2+z
x,-y,1/2+z
-y,-x,1/2+z
y,x,1/2+z
loop_
_atom_site_type_symbol
_atom_site_label
_atom_site_fract_x
_atom_site_fract_y
_atom_site_fract_z
Si Si1 0.139233 0.580528 0.883991
Si Si2 0.078043 0.355055 0.886900
Si Si3 0.420225 0.356727 0.115799
Si Si4 0.868430 0.907294 0.639598
O O1 0.127797 0.461553 0.855510
O O2 0.248272 0.620755 0.851465
O O3 0.039302 0.640481 0.850802
O O4 0.139504 0.584196 0.000000
O O5 0.131121 0.246487 0.872489
O O6 0.072644 0.366334 0.000000
O O7 0.539021 0.366498 0.144210
O O8 0.417133 0.357161 0.000000
O O9 0.892954 0.892954 0.750000
O O10 0.975617 0.863783 0.602083
#
# Coordination Sequence:
#
# PCOD9562851 Si02
#       4
#    16  16  16  16
#     4   8  15  27  42  67 104 137 165 204 254 307
#     4   9  17  29  47  72 101 132 167 213 266 313
#     4   8  13  21  34  55  88 131 168 190 220 280
#     4   9  19  35  51  67  93 133 174 218 269 317
#
# _framework density 26.383365000000001
#
# number of rings (size 3 to 8) (size 9 to 14) (size 15 to 20)
#    0.000    3.500    0.000    3.000    0.000    3.000 
#    0.000    6.250    0.000   12.000    0.000    0.000 
#    0.000    0.000    0.000    0.000    0.000    0.000 
#
# Total GULP energy -357289.301326 kJ/mol
# GULP energy per Si atom -5582.645333 kJ/mol
# Density = 2.632332 g / cm^3
# Si number density = 26.383365 Si / 1000 Ang^3
#
#
#
# Elastic Constant Matrix: (Units=GPa)
#
#
# Indices 1 2 3 4 5 6 
#
# 1 144.3151 15.4275 13.1482 0.0000 0.0000 0.0000
# 2 15.4275 144.3151 13.1482 0.0000 0.0000 0.0000
# 3 13.1482 13.1482 97.1148 0.0000 0.0000 0.0000
# 4 0.0000 0.0000 0.0000 14.9545 0.0000 0.0000
# 5 0.0000 0.0000 0.0000 0.0000 14.9545 0.0000
# 6 0.0000 0.0000 0.0000 0.0000 0.0000 -14.3758
#
#
#
# Elastic Compliance Matrix: (Units=1/GPa)
#
#
# Indices 1 2 3 4 5 6 
#
# 1 0.007081 -0.000678 -0.000867 0.000000 0.000000 0.000000
# 2 -0.000678 0.007081 -0.000867 0.000000 0.000000 0.000000
# 3 -0.000867 -0.000867 0.010532 0.000000 0.000000 0.000000
# 4 0.000000 0.000000 0.000000 0.066870 0.000000 0.000000
# 5 0.000000 0.000000 0.000000 0.000000 0.066870 0.000000
# 6 0.000000 0.000000 0.000000 0.000000 0.000000 -0.069562
#
#
# Mechanical properties :
#
#
# Convention : Reuss Voigt Hill
#
# Bulk Modulus (GPa) = 50.32736 52.13256 51.22996
# Shear Modulus (GPa) = 49.84167 26.04137 37.94152
#
# Velocity S-wave (km/s) = 4.35113 3.14512 3.79632
# Velocity P-wave (km/s) = 6.66033 5.74383 6.21898
#
# Compressibility (1/GPa) = 0.01986991
#
# Stress axis : x y z
#
# Youngs Moduli (GPa) = 141.22825 141.22825 94.95038
#
# Poissons Ratio (x) = 0.09575 0.08231
# Poissons Ratio (y) = 0.09575 0.08231
# Poissons Ratio (z) = 0.12243 0.12243
#
# Static dielectric constant tensor:
#      x y z
#    x 2.039510 0.000000 0.000000 
#    y 0.000000 2.039510 0.000000 
#    z 0.000000 0.000000 2.086940 
# 
# From -- ./inp_files/3942.got.cif
#   From: 2010.05.17/outbox.cif.g08.bks.cpg/sg124_2_cif.got.tgz:3942.got - 2010.05.20 11:49:17.
