data_PCOD9562744
_publ_section_title
;
Structure prediction by ZEFSAII (Michael W. Deem and Ramdas Pophale) SiO2 
 PCOD9562744
Probable space group: P 4/M C C
;
_chemical_formula_sum "Si O2"
_cell_formula_units_Z 88
_cell_length_a 14.810129
_cell_length_b 14.810129
_cell_length_c 26.439845
_cell_angle_alpha 90.000000
_cell_angle_beta 90.000000
_cell_angle_gamma 90.000000
_cell_volume 5799.313513
_symmetry_space_group_name_H-M "P 4/M C C"
_symmetry_group_IT_number 124
_symmetry_cell_setting 'tetragonal'
loop_
_space_group_symop_operation_xyz
x,y,z
-y,x,z
-x,-y,z
y,-x,z
x,-y,1/2-z
-x,y,1/2-z
y,x,1/2-z
-y,-x,1/2-z
-x,-y,-z
y,-x,-z
x,y,-z
-y,x,-z
-x,y,1/2+z
x,-y,1/2+z
-y,-x,1/2+z
y,x,1/2+z
loop_
_atom_site_type_symbol
_atom_site_label
_atom_site_fract_x
_atom_site_fract_y
_atom_site_fract_z
Si Si1 0.348560 0.492516 0.000000
Si Si2 0.499157 0.348108 0.807885
Si Si3 0.508709 0.779049 0.902921
Si Si4 0.084312 0.880891 0.938569
Si Si5 0.313631 0.120803 0.061063
Si Si6 0.408281 0.940675 0.056904
O O1 0.417102 0.408829 0.000000
O O2 0.288214 0.491849 0.050224
O O3 0.586096 0.412878 0.814204
O O4 0.500000 0.314423 0.750000
O O5 0.497009 0.272584 0.850380
O O6 0.608112 0.822024 0.912308
O O7 0.433925 0.857900 0.907725
O O8 0.136611 0.789994 0.923441
O O9 0.978619 0.878437 0.922982
O O10 0.084772 0.880128 0.000000
O O11 0.333963 0.014567 0.070737
O O12 0.323687 0.133887 0.000000
O O13 0.500000 0.000000 0.053930
O O14 0.388881 0.906589 0.000000
#
# Coordination Sequence:
#
# PCOD9562744 Si02
#       6
#     8  16  16  16  16  16
#     4  11  22  32  39  60 100 129 144 181 241 285
#     4   9  19  36  53  65  83 120 165 200 236 278
#     4  11  17  30  46  67  91 118 158 192 227 279
#     4   8  14  26  40  56  85 127 164 190 218 254
#     4   9  16  28  43  65  96 127 157 188 221 275
#     4   8  14  26  42  59  91 129 149 173 219 276
#
# _framework density 15.174208999999999
#
# number of rings (size 3 to 8) (size 9 to 14) (size 15 to 20)
#    0.000    2.818    1.818    3.273    0.000    1.455 
#    6.545    0.000    0.000    4.909    0.000    0.000 
#    0.000    0.000    0.000    0.000    0.000    0.000 
#
# Total GULP energy -489967.825904 kJ/mol
# GULP energy per Si atom -5567.816203 kJ/mol
# Density = 1.513967 g / cm^3
# Si number density = 15.174209 Si / 1000 Ang^3
#
#
#
# Elastic Constant Matrix: (Units=GPa)
#
#
# Indices 1 2 3 4 5 6 
#
# 1 51.1967 0.0850 35.1009 0.0000 0.0000 0.0000
# 2 0.0850 51.1967 35.1009 0.0000 0.0000 0.0000
# 3 35.1009 35.1009 88.0617 0.0000 0.0000 0.0000
# 4 0.0000 0.0000 0.0000 20.4500 0.0000 0.0000
# 5 0.0000 0.0000 0.0000 0.0000 20.4500 0.0000
# 6 0.0000 0.0000 0.0000 0.0000 0.0000 5.0584
#
#
#
# Elastic Compliance Matrix: (Units=1/GPa)
#
#
# Indices 1 2 3 4 5 6 
#
# 1 0.031242 0.011677 -0.017107 0.000000 0.000000 0.000000
# 2 0.011677 0.031242 -0.017107 0.000000 0.000000 0.000000
# 3 -0.017107 -0.017107 0.024993 0.000000 0.000000 0.000000
# 4 0.000000 0.000000 0.000000 0.048900 0.000000 0.000000
# 5 0.000000 0.000000 0.000000 0.000000 0.048900 0.000000
# 6 0.000000 0.000000 0.000000 0.000000 0.000000 0.197689
#
#
# Mechanical properties :
#
#
# Convention : Reuss Voigt Hill
#
# Bulk Modulus (GPa) = 23.58360 36.78099 30.18230
# Shear Modulus (GPa) = 11.30773 17.20292 14.25533
#
# Velocity S-wave (km/s) = 2.73279 3.37069 3.06836
# Velocity P-wave (km/s) = 5.05303 6.28017 5.69972
#
# Compressibility (1/GPa) = 0.04240235
#
# Stress axis : x y z
#
# Youngs Moduli (GPa) = 32.00815 32.00815 40.01049
#
# Poissons Ratio (x) = -0.37376 0.68447
# Poissons Ratio (y) = -0.37376 0.68447
# Poissons Ratio (z) = 0.54757 0.54757
#
# Static dielectric constant tensor:
#      x y z
#    x 1.535390 0.000000 0.000000 
#    y 0.000000 1.535390 0.000000 
#    z 0.000000 0.000000 1.460280 
# 
# From -- ./inp_files/5986.got.cif
#   From: 2010.05.17/outbox.cif.g08.bks.cpg/sg124_3_cif.got.tgz:5986.got - 2010.05.20 11:49:17.
