data_PCOD9562897
_publ_section_title
;
Structure prediction by ZEFSAII (Michael W. Deem and Ramdas Pophale) SiO2 
 PCOD9562897
Probable space group: P 4/N B M
;
_chemical_formula_sum "Si O2"
_cell_formula_units_Z 88
_cell_length_a 30.549918
_cell_length_b 30.549918
_cell_length_c 5.684444
_cell_angle_alpha 90.000000
_cell_angle_beta 90.000000
_cell_angle_gamma 90.000000
_cell_volume 5305.277316
_symmetry_space_group_name_H-M "P 4/N B M"
_symmetry_group_IT_number 125
_space_group.IT_coordinate_system_code '2'
_symmetry_cell_setting 'tetragonal'
loop_
_space_group_symop_operation_xyz
x,y,z
1/2-y,x,z
1/2-x,1/2-y,z
y,1/2-x,z
x,1/2-y,-z
1/2-x,y,-z
y,x,-z
1/2-y,1/2-x,-z
-x,-y,-z
1/2+y,-x,-z
1/2+x,1/2+y,-z
-y,1/2+x,-z
-x,1/2+y,z
1/2+x,-y,z
-y,-x,z
1/2+y,1/2+x,z
loop_
_atom_site_type_symbol
_atom_site_label
_atom_site_fract_x
_atom_site_fract_y
_atom_site_fract_z
Si Si1 0.448323 0.728265 0.250622
Si Si2 0.064975 0.634473 0.928767
Si Si3 0.572425 0.494792 0.613126
Si Si4 0.860137 0.981836 0.228783
Si Si5 0.060747 0.060747 0.000000
Si Si6 0.547656 0.739443 0.748243
O O1 0.434341 0.750000 0.500000
O O2 0.432612 0.678417 0.225168
O O3 0.501615 0.732893 0.251497
O O4 0.434616 0.750000 0.000000
O O5 0.110640 0.610640 0.988517
O O6 0.036537 0.599667 0.785038
O O7 0.032459 0.644315 0.145896
O O8 0.537395 0.462606 0.490903
O O9 0.609519 0.516893 0.456764
O O10 0.548932 0.530665 0.776465
O O11 0.889083 0.951727 0.053512
O O12 0.811682 0.964223 0.256723
O O13 0.570323 0.750000 0.500000
O O14 0.569179 0.750000 0.000000
#
# Coordination Sequence:
#
# PCOD9562897 Si02
#       6
#    16  16  16  16   8  16
#     4  10  18  32  50  71  95 127 157 207 261 311
#     4  10  20  32  48  73  99 128 167 215 266 312
#     4  10  20  33  47  64  94 136 179 217 251 294
#     4  11  20  34  49  70  98 134 176 216 266 303
#     4  10  23  32  46  66  98 136 176 225 250 304
#     4  10  19  32  54  73  94 125 167 218 259 310
#
# _framework density 16.587257000000001
#
# number of rings (size 3 to 8) (size 9 to 14) (size 15 to 20)
#    0.000    1.818    3.636    3.545    2.545    2.909 
#    0.000    0.000    0.000    0.000    0.000    0.000 
#    0.000    2.182    0.000    0.000    0.000    0.455 
#
# Total GULP energy -490002.498341 kJ/mol
# GULP energy per Si atom -5568.210208 kJ/mol
# Density = 1.654950 g / cm^3
# Si number density = 16.587257 Si / 1000 Ang^3
#
#
#
# Elastic Constant Matrix: (Units=GPa)
#
#
# Indices 1 2 3 4 5 6 
#
# 1 40.5003 34.4839 15.5926 0.0000 0.0000 0.0000
# 2 34.4839 40.5003 15.5926 0.0000 0.0000 0.0000
# 3 15.5926 15.5926 104.8895 0.0000 0.0000 0.0000
# 4 0.0000 0.0000 0.0000 18.1654 0.0000 0.0000
# 5 0.0000 0.0000 0.0000 0.0000 18.1654 0.0000
# 6 0.0000 0.0000 0.0000 0.0000 0.0000 7.2447
#
#
#
# Elastic Compliance Matrix: (Units=1/GPa)
#
#
# Indices 1 2 3 4 5 6 
#
# 1 0.090213 -0.075998 -0.002113 0.000000 0.000000 0.000000
# 2 -0.075998 0.090213 -0.002113 0.000000 0.000000 0.000000
# 3 -0.002113 -0.002113 0.010162 0.000000 0.000000 0.000000
# 4 0.000000 0.000000 0.000000 0.055050 0.000000 0.000000
# 5 0.000000 0.000000 0.000000 0.000000 0.055050 0.000000
# 6 0.000000 0.000000 0.000000 0.000000 0.000000 0.138032
#
#
# Mechanical properties :
#
#
# Convention : Reuss Voigt Hill
#
# Bulk Modulus (GPa) = 33.17913 35.24760 34.21337
# Shear Modulus (GPa) = 8.20728 16.72985 12.46856
#
# Velocity S-wave (km/s) = 2.22681 3.17929 2.74468
# Velocity P-wave (km/s) = 5.16312 5.89687 5.54215
#
# Compressibility (1/GPa) = 0.03013943
#
# Stress axis : x y z
#
# Youngs Moduli (GPa) = 11.08485 11.08485 98.40466
#
# Poissons Ratio (x) = 0.84243 0.20795
# Poissons Ratio (y) = 0.84243 0.20795
# Poissons Ratio (z) = 0.02342 0.02342
#
# Static dielectric constant tensor:
#      x y z
#    x 1.564020 0.000000 0.000000 
#    y 0.000000 1.564020 0.000000 
#    z 0.000000 0.000000 1.677980 
# 
# From -- ./inp_files/1281.got.cif
#   From: 2010.05.17/outbox.cif.g08.bks.cpg/sg125_1_cif.got.tgz:1281.got - 2010.05.20 11:54:10.
