data_PCOD9562219
_publ_section_title
;
Structure prediction by ZEFSAII (Michael W. Deem and Ramdas Pophale) SiO2 
 PCOD9562219
Probable space group: P 4/M M M
;
_chemical_formula_sum "Si O2"
_cell_formula_units_Z 92
_cell_length_a 25.241750
_cell_length_b 25.241750
_cell_length_c 7.626589
_cell_angle_alpha 90.000000
_cell_angle_beta 90.000000
_cell_angle_gamma 90.000000
_cell_volume 4859.250241
_symmetry_space_group_name_H-M "P 4/M M M"
_symmetry_group_IT_number 123
_symmetry_cell_setting 'tetragonal'
loop_
_space_group_symop_operation_xyz
x,y,z
-y,x,z
-x,-y,z
y,-x,z
x,-y,-z
-x,y,-z
y,x,-z
-y,-x,-z
-x,-y,-z
y,-x,-z
x,y,-z
-y,x,-z
-x,y,z
x,-y,z
-y,-x,z
y,x,z
loop_
_atom_site_type_symbol
_atom_site_label
_atom_site_fract_x
_atom_site_fract_y
_atom_site_fract_z
Si Si1 0.881057 0.669409 0.789406
Si Si2 0.061730 0.938271 0.000000
Si Si3 0.775741 0.059587 0.709748
Si Si4 0.674573 0.240181 0.209454
Si Si5 0.123131 0.876870 0.288349
Si Si6 0.442492 0.768583 0.709693
Si Si7 0.556705 0.108179 0.202970
O O1 0.919113 0.718024 0.753536
O O2 0.820696 0.679345 0.723333
O O3 0.904705 0.613971 0.718993
O O4 0.876645 0.663261 0.000000
O O5 0.085424 0.914577 0.177492
O O6 0.000000 0.927651 0.000000
O O7 0.780095 0.056490 0.500000
O O8 0.818483 0.103716 0.765037
O O9 0.785733 0.000000 0.779015
O O10 0.718453 0.281548 0.278150
O O11 0.613528 0.257419 0.241705
O O12 0.681623 0.237673 0.000000
O O13 0.117957 0.882044 0.500000
O O14 0.442212 0.775045 0.500000
O O15 0.500000 0.744248 0.758435
O O16 0.442057 0.827458 0.791817
O O17 0.500000 0.092067 0.282664
O O18 0.555905 0.090785 0.000000
#
# Coordination Sequence:
#
# PCOD9562219 Si02
#       7
#    16   4  16  16   8  16  16
#     4   9  18  30  49  76 101 130 166 208 254 298
#     4  11  24  40  64  96 116 136 174 214 266 330
#     4  10  22  39  57  77 102 134 170 208 254 308
#     4   9  18  31  45  65  97 131 162 197 242 294
#     4  10  23  43  63  84 114 146 178 220 266 318
#     4   9  16  25  39  62  90 122 162 203 241 284
#     4   8  14  27  46  67  94 129 168 206 246 293
#
# _framework density 18.932960999999999
#
# number of rings (size 3 to 8) (size 9 to 14) (size 15 to 20)
#    0.000    2.826    0.000    2.087    2.435    5.565 
#    0.000    0.435    0.000    0.522    0.000    3.652 
#    0.000    0.348    0.000    3.826    0.000    2.957 
#
# Total GULP energy -512202.910608 kJ/mol
# GULP energy per Si atom -5567.422941 kJ/mol
# Density = 1.888987 g / cm^3
# Si number density = 18.932961 Si / 1000 Ang^3
#
#
#
# Elastic Constant Matrix: (Units=GPa)
#
#
# Indices 1 2 3 4 5 6 
#
# 1 110.5700 46.4669 0.6257 0.0000 0.0000 0.0000
# 2 46.4669 110.5702 0.6259 0.0000 0.0000 0.0000
# 3 0.6257 0.6259 38.7417 0.0000 0.0000 0.0000
# 4 0.0000 0.0000 0.0000 13.4429 0.0000 0.0000
# 5 0.0000 0.0000 0.0000 0.0000 13.4440 0.0000
# 6 0.0000 0.0000 0.0000 0.0000 0.0000 12.3030
#
#
#
# Elastic Compliance Matrix: (Units=1/GPa)
#
#
# Indices 1 2 3 4 5 6 
#
# 1 0.010984 -0.004616 -0.000103 0.000000 0.000000 0.000000
# 2 -0.004616 0.010984 -0.000103 0.000000 0.000000 0.000000
# 3 -0.000103 -0.000103 0.025815 0.000000 0.000000 0.000000
# 4 0.000000 0.000000 0.000000 0.074389 0.000000 0.000000
# 5 0.000000 0.000000 0.000000 0.000000 0.074383 0.000000
# 6 0.000000 0.000000 0.000000 0.000000 0.000000 0.081281
#
#
# Mechanical properties :
#
#
# Convention : Reuss Voigt Hill
#
# Bulk Modulus (GPa) = 26.21829 39.47988 32.84908
# Shear Modulus (GPa) = 16.65595 21.98219 19.31907
#
# Velocity S-wave (km/s) = 2.96925 3.41112 3.19783
# Velocity P-wave (km/s) = 5.06293 6.03424 5.56980
#
# Compressibility (1/GPa) = 0.03814131
#
# Stress axis : x y z
#
# Youngs Moduli (GPa) = 91.03894 91.03912 38.73670
#
# Poissons Ratio (x) = 0.42020 0.00398
# Poissons Ratio (y) = 0.42020 0.00399
# Poissons Ratio (z) = 0.00936 0.00937
#
# Static dielectric constant tensor:
#      x y z
#    x 1.683680 0.000000 0.000000 
#    y 0.000000 1.683680 0.000000 
#    z 0.000000 0.000000 1.861590 
# 
# From -- ./inp_files/1691.got.cif
#   From: 2010.05.17/outbox.cif.g08.bks.cpg/sg123_1_cif.got.tgz:1691.got - 2010.05.20 11:43:04.
