data_PCOD9562859
_publ_section_title
;
Structure prediction by ZEFSAII (Michael W. Deem and Ramdas Pophale) SiO2 
 PCOD9562859
Probable space group: P 4/M C C
;
_chemical_formula_sum "Si O2"
_cell_formula_units_Z 88
_cell_length_a 15.000000
_cell_length_b 15.000000
_cell_length_c 21.000000
_cell_angle_alpha 90.000000
_cell_angle_beta 90.000000
_cell_angle_gamma 90.000000
_cell_volume 4725.000000
_symmetry_space_group_name_H-M "P 4/M C C"
_symmetry_group_IT_number 124
_symmetry_cell_setting 'tetragonal'
loop_
_space_group_symop_operation_xyz
x,y,z
-y,x,z
-x,-y,z
y,-x,z
x,-y,1/2-z
-x,y,1/2-z
y,x,1/2-z
-y,-x,1/2-z
-x,-y,-z
y,-x,-z
x,y,-z
-y,x,-z
-x,y,1/2+z
x,-y,1/2+z
-y,-x,1/2+z
y,x,1/2+z
loop_
_atom_site_type_symbol
_atom_site_label
_atom_site_fract_x
_atom_site_fract_y
_atom_site_fract_z
Si Si1 0.234650 0.380838 0.500000
Si Si2 0.764987 0.400440 0.500000
Si Si3 0.076070 0.130228 0.000000
Si Si4 0.076370 0.131936 0.854643
Si Si5 0.893072 0.405947 0.377633
Si Si6 0.620433 0.895888 0.122753
Si Si7 0.292738 0.895058 0.241786
O O1 0.257107 0.489943 0.500000
O O2 0.324681 0.316122 0.500000
O O3 0.170053 0.362214 0.437915
O O4 0.828100 0.387094 0.437551
O O5 0.096703 0.165211 0.927821
O O6 0.969135 0.117696 0.000000
O O7 0.108993 0.199160 0.799179
O O8 0.968271 0.117987 0.848392
O O9 0.892073 0.513063 0.366684
O O10 0.860667 0.361491 0.311712
O O11 0.995798 0.369786 0.389933
O O12 0.679286 0.865929 0.185380
O O13 0.307966 0.000000 0.250000
#
# Coordination Sequence:
#
# PCOD9562859 Si02
#       7
#     8   8   8  16  16  16  16
#     4  10  21  40  64  91 122 154 199 245 313 373
#     4  10  21  39  63  93 120 159 193 245 306 373
#     4   7  12  27  51  68  86 138 206 244 269 316
#     4   9  18  34  52  72 110 164 209 244 288 346
#     4   9  18  36  61  87 117 151 197 239 300 360
#     4   9  18  37  62  86 115 155 193 246 301 359
#     4  10  20  34  52  83 113 147 198 246 301 347
#
# _framework density 18.624338999999999
#
# number of rings (size 3 to 8) (size 9 to 14) (size 15 to 20)
#    0.000    2.818    0.000    2.182    0.000    6.000 
#   13.091    1.818    0.000    0.000    0.000    0.000 
#    0.000    8.727    0.000    0.000    0.000    0.000 
#
# Total GULP energy -490105.808982 kJ/mol
# GULP energy per Si atom -5569.384193 kJ/mol
# Density = 1.858195 g / cm^3
# Si number density = 18.624339 Si / 1000 Ang^3
#
#
#
# Elastic Constant Matrix: (Units=GPa)
#
#
# Indices 1 2 3 4 5 6 
#
# 1 86.7187 34.6531 60.2655 0.0000 0.0000 0.0000
# 2 34.6531 86.7187 60.2655 0.0000 0.0000 0.0000
# 3 60.2655 60.2655 200.7826 0.0000 0.0000 0.0000
# 4 0.0000 0.0000 0.0000 32.4753 0.0000 0.0000
# 5 0.0000 0.0000 0.0000 0.0000 32.4753 0.0000
# 6 0.0000 0.0000 0.0000 0.0000 0.0000 30.7716
#
#
#
# Elastic Compliance Matrix: (Units=1/GPa)
#
#
# Indices 1 2 3 4 5 6 
#
# 1 0.015472 -0.003734 -0.003523 0.000000 0.000000 0.000000
# 2 -0.003734 0.015472 -0.003523 0.000000 0.000000 0.000000
# 3 -0.003523 -0.003523 0.007095 0.000000 0.000000 0.000000
# 4 0.000000 0.000000 0.000000 0.030793 0.000000 0.000000
# 5 0.000000 0.000000 0.000000 0.000000 0.030793 0.000000
# 6 0.000000 0.000000 0.000000 0.000000 0.000000 0.032498
#
#
# Mechanical properties :
#
#
# Convention : Reuss Voigt Hill
#
# Bulk Modulus (GPa) = 60.68461 76.06535 68.37498
# Shear Modulus (GPa) = 31.41160 33.74684 32.57922
#
# Velocity S-wave (km/s) = 4.11126 4.26135 4.18698
# Velocity P-wave (km/s) = 7.42906 8.07110 7.75673
#
# Compressibility (1/GPa) = 0.01647864
#
# Stress axis : x y z
#
# Youngs Moduli (GPa) = 64.63194 64.63194 140.93459
#
# Poissons Ratio (x) = 0.24136 0.49654
# Poissons Ratio (y) = 0.24136 0.49654
# Poissons Ratio (z) = 0.22771 0.22771
#
# Static dielectric constant tensor:
#      x y z
#    x 1.687140 0.000000 0.000000 
#    y 0.000000 1.687140 0.000000 
#    z 0.000000 0.000000 1.696740 
# 
# From -- ./inp_files/5230.got.cif
#   From: 2010.05.17/outbox.ucp.g08.bks.cvg/sg124_3_cif.got.tgz:5230.got - 2010.06.11 11:36:13.
