data_PCOD9562706
_publ_section_title
;
Structure prediction by ZEFSAII (Michael W. Deem and Ramdas Pophale) SiO2 
 PCOD9562706
Probable space group: P 4/M C C
;
_chemical_formula_sum "Si O2"
_cell_formula_units_Z 84
_cell_length_a 15.575310
_cell_length_b 15.575310
_cell_length_c 20.455758
_cell_angle_alpha 90.000000
_cell_angle_beta 90.000000
_cell_angle_gamma 90.000000
_cell_volume 4962.368093
_symmetry_space_group_name_H-M "P 4/M C C"
_symmetry_group_IT_number 124
_symmetry_cell_setting 'tetragonal'
loop_
_space_group_symop_operation_xyz
x,y,z
-y,x,z
-x,-y,z
y,-x,z
x,-y,1/2-z
-x,y,1/2-z
y,x,1/2-z
-y,-x,1/2-z
-x,-y,-z
y,-x,-z
x,y,-z
-y,x,-z
-x,y,1/2+z
x,-y,1/2+z
-y,-x,1/2+z
y,x,1/2+z
loop_
_atom_site_type_symbol
_atom_site_label
_atom_site_fract_x
_atom_site_fract_y
_atom_site_fract_z
Si Si1 0.806996 0.335949 0.119142
Si Si2 0.500000 0.500000 0.620018
Si Si3 0.695482 0.500000 0.423211
Si Si4 0.246100 0.898867 0.500000
Si Si5 0.246100 0.898867 0.000000
Si Si6 0.100474 0.602899 0.750000
Si Si7 0.193004 0.335949 0.119142
O O1 0.752520 0.416758 0.092647
O O2 0.855498 0.361648 0.184834
O O3 0.739790 0.260209 0.132678
O O4 0.870932 0.301494 0.063239
O O5 0.393577 0.500000 0.615957
O O6 0.671481 0.500000 0.500000
O O7 0.752520 0.416758 0.407353
O O8 0.160535 0.839465 0.500000
O O9 0.228117 1.000000 0.500000
O O10 0.301494 0.870932 0.936761
O O11 0.109467 0.500000 0.750000
O O12 0.144502 0.638352 0.684834
O O13 0.000000 0.624357 0.750000
#
# Coordination Sequence:
#
# PCOD9562706 Si02
#       7
#    16   4  16   8   8  16  16
#     4  11  22  38  59  82 119 150 193 240 285 342
#     4  12  25  32  60  85 130 169 200 241 270 333
#     4  12  21  35  54  89 118 158 201 238 279 325
#     4  10  22  40  63  89 113 145 183 237 298 354
#     4  10  22  40  63  89 113 145 183 237 298 354
#     4  11  23  38  56  80 110 152 195 239 290 341
#     4  11  22  38  59  82 119 150 193 240 285 342
#
# _framework density 16.927402000000001
#
# number of rings (size 3 to 8) (size 9 to 14) (size 15 to 20)
#    0.000    0.952    5.714    2.571    0.000    0.190 
#    0.000    0.952    0.000    1.143    0.000    0.000 
#    0.000   13.714    0.000    0.000    0.000    0.000 
#
# Total GULP energy -468285.496703 kJ/mol
# GULP energy per Si atom -5574.827342 kJ/mol
# Density = 1.688887 g / cm^3
# Si number density = 16.927402 Si / 1000 Ang^3
#
#
#
# Elastic Constant Matrix: (Units=GPa)
#
#
# Indices 1 2 3 4 5 6 
#
# 1 111.2065 46.6008 38.3837 0.0000 0.0000 0.0000
# 2 46.6008 111.2065 38.3837 0.0000 0.0000 0.0000
# 3 38.3837 38.3837 83.6551 0.0000 0.0000 0.0000
# 4 0.0000 0.0000 0.0000 16.6757 0.0000 0.0000
# 5 0.0000 0.0000 0.0000 0.0000 16.6757 0.0000
# 6 0.0000 0.0000 0.0000 0.0000 0.0000 8.8539
#
#
#
# Elastic Compliance Matrix: (Units=1/GPa)
#
#
# Indices 1 2 3 4 5 6 
#
# 1 0.011818 -0.003660 -0.003743 0.000000 0.000000 0.000000
# 2 -0.003660 0.011818 -0.003743 0.000000 0.000000 0.000000
# 3 -0.003743 -0.003743 0.015389 0.000000 0.000000 0.000000
# 4 0.000000 0.000000 0.000000 0.059967 0.000000 0.000000
# 5 0.000000 0.000000 0.000000 0.000000 0.059967 0.000000
# 6 0.000000 0.000000 0.000000 0.000000 0.000000 0.112944
#
#
# Mechanical properties :
#
#
# Convention : Reuss Voigt Hill
#
# Bulk Modulus (GPa) = 59.76576 61.42273 60.59425
# Shear Modulus (GPa) = 16.67923 20.62107 18.65015
#
# Velocity S-wave (km/s) = 3.14242 3.49407 3.32290
# Velocity P-wave (km/s) = 6.96779 7.25553 7.11312
#
# Compressibility (1/GPa) = 0.01673199
#
# Stress axis : x y z
#
# Youngs Moduli (GPa) = 84.61603 84.61603 64.98281
#
# Poissons Ratio (x) = 0.30973 0.24323
# Poissons Ratio (y) = 0.30973 0.24323
# Poissons Ratio (z) = 0.31672 0.31672
#
# Static dielectric constant tensor:
#      x y z
#    x 1.548690 0.000000 0.000000 
#    y 0.000000 1.548690 0.000000 
#    z 0.000000 0.000000 1.558900 
# 
# From -- ./inp_files/5234.got.cif
#   From: 2010.05.17/outbox.cif.g08.bks.cpg/sg124_3_cif.got.tgz:5234.got - 2010.05.20 11:49:17.
