data_PCOD9562711
_publ_section_title
;
Structure prediction by ZEFSAII (Michael W. Deem and Ramdas Pophale) SiO2 
 PCOD9562711
Probable space group: P 4/M C C
;
_chemical_formula_sum "Si O2"
_cell_formula_units_Z 96
_cell_length_a 15.695372
_cell_length_b 15.695372
_cell_length_c 21.085047
_cell_angle_alpha 90.000000
_cell_angle_beta 90.000000
_cell_angle_gamma 90.000000
_cell_volume 5194.189624
_symmetry_space_group_name_H-M "P 4/M C C"
_symmetry_group_IT_number 124
_symmetry_cell_setting 'tetragonal'
loop_
_space_group_symop_operation_xyz
x,y,z
-y,x,z
-x,-y,z
y,-x,z
x,-y,1/2-z
-x,y,1/2-z
y,x,1/2-z
-y,-x,1/2-z
-x,-y,-z
y,-x,-z
x,y,-z
-y,x,-z
-x,y,1/2+z
x,-y,1/2+z
-y,-x,1/2+z
y,x,1/2+z
loop_
_atom_site_type_symbol
_atom_site_label
_atom_site_fract_x
_atom_site_fract_y
_atom_site_fract_z
Si Si1 0.505215 0.796560 0.853854
Si Si2 0.316571 0.697674 0.500000
Si Si3 0.918068 0.882220 0.000000
Si Si4 0.792437 0.802285 0.600806
Si Si5 0.249242 0.511530 0.500000
Si Si6 0.093841 0.327577 0.669463
Si Si7 0.343717 0.098500 0.317978
Si Si8 0.354036 0.500000 0.750000
O O1 0.484543 0.792613 0.929354
O O2 0.595841 0.842182 0.846844
O O3 0.435158 0.857621 0.822685
O O4 0.502608 0.708184 0.812566
O O5 0.267769 0.742225 0.558650
O O6 0.305229 0.596534 0.500000
O O7 0.416687 0.713417 0.500000
O O8 0.877482 0.832202 0.941109
O O9 0.020078 0.885519 0.000000
O O10 0.869151 0.755099 0.635850
O O11 0.724024 0.842686 0.647238
O O12 0.093936 0.318003 0.744900
O O13 0.995932 0.346482 0.652227
O O14 0.416953 0.416953 0.750000
#
# Coordination Sequence:
#
# PCOD9562711 Si02
#       8
#    16   8   8  16   8  16  16   8
#     4  12  24  43  69  91 135 173 220 271 330 390
#     4  11  24  42  64  86 126 165 222 248 328 383
#     4  10  22  41  64  89 124 170 214 266 336 406
#     4  11  22  40  64  93 125 168 211 272 320 399
#     4  12  26  43  61 100 124 170 212 270 319 385
#     4  11  23  40  65  97 129 169 219 270 329 392
#     4  11  23  40  65  97 129 169 219 270 329 392
#     4  11  28  46  67 100 132 174 229 276 324 389
#
# _framework density 18.482191
#
# number of rings (size 3 to 8) (size 9 to 14) (size 15 to 20)
#    0.000    0.833    5.000    2.000    4.667    1.500 
#    0.000    3.333    0.000    0.000    0.000    7.000 
#    0.000    0.000    0.000    0.000    0.000    0.000 
#
# Total GULP energy -535623.165994 kJ/mol
# GULP energy per Si atom -5579.407979 kJ/mol
# Density = 1.844012 g / cm^3
# Si number density = 18.482191 Si / 1000 Ang^3
#
#
#
# Elastic Constant Matrix: (Units=GPa)
#
#
# Indices 1 2 3 4 5 6 
#
# 1 75.3267 2.6328 2.5353 0.0000 0.0000 0.0000
# 2 2.6328 75.3267 2.5353 0.0000 0.0000 0.0000
# 3 2.5353 2.5353 68.3589 0.0000 0.0000 0.0000
# 4 0.0000 0.0000 0.0000 16.4064 0.0000 0.0000
# 5 0.0000 0.0000 0.0000 0.0000 16.4064 0.0000
# 6 0.0000 0.0000 0.0000 0.0000 0.0000 25.8681
#
#
#
# Elastic Compliance Matrix: (Units=1/GPa)
#
#
# Indices 1 2 3 4 5 6 
#
# 1 0.013307 -0.000449 -0.000477 0.000000 0.000000 0.000000
# 2 -0.000449 0.013307 -0.000477 0.000000 0.000000 0.000000
# 3 -0.000477 -0.000477 0.014664 0.000000 0.000000 0.000000
# 4 0.000000 0.000000 0.000000 0.060952 0.000000 0.000000
# 5 0.000000 0.000000 0.000000 0.000000 0.060952 0.000000
# 6 0.000000 0.000000 0.000000 0.000000 0.000000 0.038658
#
#
# Mechanical properties :
#
#
# Convention : Reuss Voigt Hill
#
# Bulk Modulus (GPa) = 25.99233 26.04657 26.01945
# Shear Modulus (GPa) = 22.99169 25.82344 24.40756
#
# Velocity S-wave (km/s) = 3.53085 3.74198 3.63795
# Velocity P-wave (km/s) = 5.54225 5.72654 5.63515
#
# Compressibility (1/GPa) = 0.03847288
#
# Stress axis : x y z
#
# Youngs Moduli (GPa) = 75.14704 75.14704 68.19396
#
# Poissons Ratio (x) = 0.03375 0.03252
# Poissons Ratio (y) = 0.03375 0.03252
# Poissons Ratio (z) = 0.03584 0.03584
#
# Static dielectric constant tensor:
#      x y z
#    x 1.614060 0.000000 0.000000 
#    y 0.000000 1.614060 0.000000 
#    z 0.000000 0.000000 1.684950 
# 
# From -- ./inp_files/5412.got.cif
#   From: 2010.05.17/outbox.cif.g08.bks.cpg/sg124_3_cif.got.tgz:5412.got - 2010.05.20 11:49:17.
