data_PCOD9562450
_publ_section_title
;
Structure prediction by ZEFSAII (Michael W. Deem and Ramdas Pophale) SiO2 
 PCOD9562450
Probable space group: P 4/M C C
;
_chemical_formula_sum "Si O2"
_cell_formula_units_Z 96
_cell_length_a 24.485422
_cell_length_b 24.485422
_cell_length_c 8.600993
_cell_angle_alpha 90.000000
_cell_angle_beta 90.000000
_cell_angle_gamma 90.000000
_cell_volume 5156.603998
_symmetry_space_group_name_H-M "P 4/M C C"
_symmetry_group_IT_number 124
_symmetry_cell_setting 'tetragonal'
loop_
_space_group_symop_operation_xyz
x,y,z
-y,x,z
-x,-y,z
y,-x,z
x,-y,1/2-z
-x,y,1/2-z
y,x,1/2-z
-y,-x,1/2-z
-x,-y,-z
y,-x,-z
x,y,-z
-y,x,-z
-x,y,1/2+z
x,-y,1/2+z
-y,-x,1/2+z
y,x,1/2+z
loop_
_atom_site_type_symbol
_atom_site_label
_atom_site_fract_x
_atom_site_fract_y
_atom_site_fract_z
Si Si1 0.549621 0.161899 0.175105
Si Si2 0.410772 0.054006 0.818166
Si Si3 0.820402 0.740366 0.188953
Si Si4 0.942341 0.710690 0.815153
Si Si5 0.562770 0.647760 0.689028
Si Si6 0.747660 0.358995 0.677360
O O1 0.500000 0.194699 0.250000
O O2 0.558791 0.109604 0.281219
O O3 0.600819 0.200923 0.171132
O O4 0.538356 0.144059 0.000000
O O5 0.353026 0.058661 0.730392
O O6 0.438220 0.000000 0.750000
O O7 0.401517 0.047356 0.000000
O O8 0.796999 0.796999 0.250000
O O9 0.883232 0.732278 0.239634
O O10 0.777120 0.694235 0.249701
O O11 0.819851 0.736963 0.000000
O O12 0.000000 0.733157 0.750000
O O13 0.944171 0.716066 0.000000
O O14 0.500000 0.653074 0.750000
O O15 0.592635 0.592635 0.750000
O O16 0.561005 0.648693 0.500000
O O17 0.604440 0.697335 0.740996
O O18 0.730996 0.344288 0.500000
#
# Coordination Sequence:
#
# PCOD9562450 Si02
#       6
#    16  16  16  16  16  16
#     4  11  21  36  53  74 104 138 180 228 275 324
#     4  11  21  34  52  74  99 136 182 228 278 327
#     4  10  20  35  55  83 116 151 185 229 274 319
#     4  10  19  34  55  78 111 149 188 231 278 323
#     4  11  23  41  64  88 113 142 176 218 272 334
#     4   9  19  37  58  80 113 147 176 218 271 323
#
# _framework density 18.616904000000002
#
# number of rings (size 3 to 8) (size 9 to 14) (size 15 to 20)
#    0.000    1.667    1.667    5.000    0.000    1.833 
#    0.000    5.833    0.000    0.000    0.000    0.000 
#    0.000    0.333    0.000    3.667    0.000    2.667 
#
# Total GULP energy -535025.260718 kJ/mol
# GULP energy per Si atom -5573.179799 kJ/mol
# Density = 1.857453 g / cm^3
# Si number density = 18.616904 Si / 1000 Ang^3
#
#
#
# Elastic Constant Matrix: (Units=GPa)
#
#
# Indices 1 2 3 4 5 6 
#
# 1 103.2239 64.9851 19.3053 0.0000 0.0000 0.0000
# 2 64.9851 103.2239 19.3053 0.0000 0.0000 0.0000
# 3 19.3053 19.3053 30.7497 0.0000 0.0000 0.0000
# 4 0.0000 0.0000 0.0000 19.7169 0.0000 0.0000
# 5 0.0000 0.0000 0.0000 0.0000 19.7169 0.0000
# 6 0.0000 0.0000 0.0000 0.0000 0.0000 13.2218
#
#
#
# Elastic Compliance Matrix: (Units=1/GPa)
#
#
# Indices 1 2 3 4 5 6 
#
# 1 0.016549 -0.009603 -0.004361 0.000000 0.000000 0.000000
# 2 -0.009603 0.016549 -0.004361 0.000000 0.000000 0.000000
# 3 -0.004361 -0.004361 0.037996 0.000000 0.000000 0.000000
# 4 0.000000 0.000000 0.000000 0.050718 0.000000 0.000000
# 5 0.000000 0.000000 0.000000 0.000000 0.050718 0.000000
# 6 0.000000 0.000000 0.000000 0.000000 0.000000 0.075633
#
#
# Mechanical properties :
#
#
# Convention : Reuss Voigt Hill
#
# Bulk Modulus (GPa) = 29.03185 49.37654 39.20420
# Shear Modulus (GPa) = 16.87520 19.43790 18.15655
#
# Velocity S-wave (km/s) = 3.01399 3.23476 3.12632
# Velocity P-wave (km/s) = 5.26691 6.36644 5.84260
#
# Compressibility (1/GPa) = 0.03444493
#
# Stress axis : x y z
#
# Youngs Moduli (GPa) = 60.42767 60.42767 26.31837
#
# Poissons Ratio (x) = 0.58027 0.11477
# Poissons Ratio (y) = 0.58027 0.11477
# Poissons Ratio (z) = 0.26351 0.26351
#
# Static dielectric constant tensor:
#      x y z
#    x 1.668570 0.000000 0.000000 
#    y 0.000000 1.668570 0.000000 
#    z 0.000000 0.000000 1.662350 
# 
# From -- ./inp_files/1360.got.cif
#   From: 2010.05.17/outbox.cif.g08.bks.cpg/sg124_1_cif.got.tgz:1360.got - 2010.05.20 11:49:17.
