data_PCOD9562048
_publ_section_title
;
Structure prediction by ZEFSAII (Michael W. Deem and Ramdas Pophale) SiO2 
 PCOD9562048
Probable space group: P 4/M M M
;
_chemical_formula_sum "Si O2"
_cell_formula_units_Z 88
_cell_length_a 13.711219
_cell_length_b 13.711219
_cell_length_c 28.125168
_cell_angle_alpha 90.000000
_cell_angle_beta 90.000000
_cell_angle_gamma 90.000000
_cell_volume 5287.462015
_symmetry_space_group_name_H-M "P 4/M M M"
_symmetry_group_IT_number 123
_symmetry_cell_setting 'tetragonal'
loop_
_space_group_symop_operation_xyz
x,y,z
-y,x,z
-x,-y,z
y,-x,z
x,-y,-z
-x,y,-z
y,x,-z
-y,-x,-z
-x,-y,-z
y,-x,-z
x,y,-z
-y,x,-z
-x,y,z
x,-y,z
-y,-x,z
y,x,z
loop_
_atom_site_type_symbol
_atom_site_label
_atom_site_fract_x
_atom_site_fract_y
_atom_site_fract_z
Si Si1 0.226194 0.613808 0.056091
Si Si2 0.615585 0.222444 0.500000
Si Si3 0.114056 0.385982 0.317550
Si Si4 0.774534 0.384360 0.219890
Si Si5 0.276488 0.114622 0.136054
Si Si6 0.275174 0.884153 0.415496
O O1 0.236855 0.500000 0.067748
O O2 0.325782 0.674219 0.064784
O O3 0.145516 0.664281 0.088862
O O4 0.203478 0.622239 0.000000
O O5 0.500000 0.236301 0.500000
O O6 0.676553 0.323448 0.500000
O O7 0.651646 0.161497 0.454219
O O8 0.127563 0.500000 0.330657
O O9 0.180180 0.365242 0.271956
O O10 0.133733 0.319432 0.363129
O O11 0.000000 0.373790 0.304374
O O12 0.764479 0.500000 0.213633
O O13 0.673291 0.326710 0.215042
O O14 0.846640 0.339986 0.180418
O O15 0.176653 0.176653 0.136192
O O16 0.260694 0.000000 0.138576
O O17 0.173947 0.826054 0.420622
O O18 0.265245 0.000000 0.422439
#
# Coordination Sequence:
#
# PCOD9562048 Si02
#       6
#    16   8  16  16  16  16
#     4   9  18  32  50  74 103 133 165 200 238 282
#     4  10  21  36  54  76 100 126 159 200 246 296
#     4   9  17  30  50  74  97 125 164 207 248 289
#     4  10  20  33  50  73 101 132 165 201 241 287
#     4  10  21  36  53  73  97 125 160 203 248 294
#     4  10  20  33  50  73 101 133 168 205 244 286
#
# _framework density 16.643145000000001
#
# number of rings (size 3 to 8) (size 9 to 14) (size 15 to 20)
#    0.000    2.364    0.000    2.455    0.000    4.818 
#    0.000    1.818    0.000    4.909    0.000    7.636 
#    0.000    0.000    0.000    0.000    0.000    0.000 
#
# Total GULP energy -490948.656309 kJ/mol
# GULP energy per Si atom -5578.962004 kJ/mol
# Density = 1.660526 g / cm^3
# Si number density = 16.643145 Si / 1000 Ang^3
#
#
#
# Elastic Constant Matrix: (Units=GPa)
#
#
# Indices 1 2 3 4 5 6 
#
# 1 146.1471 70.4450 63.0643 0.0000 0.0000 0.0000
# 2 70.4450 146.1468 63.0644 0.0000 0.0000 0.0000
# 3 63.0643 63.0644 75.6210 0.0000 0.0000 0.0000
# 4 0.0000 0.0000 0.0000 21.4852 0.0000 0.0000
# 5 0.0000 0.0000 0.0000 0.0000 21.4854 0.0000
# 6 0.0000 0.0000 0.0000 0.0000 0.0000 10.3906
#
#
#
# Elastic Compliance Matrix: (Units=1/GPa)
#
#
# Indices 1 2 3 4 5 6 
#
# 1 0.011093 -0.002117 -0.007486 0.000000 0.000000 0.000000
# 2 -0.002117 0.011093 -0.007486 0.000000 0.000000 0.000000
# 3 -0.007486 -0.007486 0.025709 0.000000 0.000000 0.000000
# 4 0.000000 0.000000 0.000000 0.046544 0.000000 0.000000
# 5 0.000000 0.000000 0.000000 0.000000 0.046543 0.000000
# 6 0.000000 0.000000 0.000000 0.000000 0.000000 0.096241
#
#
# Mechanical properties :
#
#
# Convention : Reuss Voigt Hill
#
# Bulk Modulus (GPa) = 72.89259 84.56247 78.72753
# Shear Modulus (GPa) = 18.11779 22.09499 20.10639
#
# Velocity S-wave (km/s) = 3.30298 3.64754 3.47953
# Velocity P-wave (km/s) = 7.64452 8.28607 7.97175
#
# Compressibility (1/GPa) = 0.01371881
#
# Stress axis : x y z
#
# Youngs Moduli (GPa) = 90.14773 90.14743 38.89652
#
# Poissons Ratio (x) = 0.19082 0.29117
# Poissons Ratio (y) = 0.19082 0.29117
# Poissons Ratio (z) = 0.67482 0.67482
#
# Static dielectric constant tensor:
#      x y z
#    x 1.534740 0.000000 0.000000 
#    y 0.000000 1.534740 0.000000 
#    z 0.000000 0.000000 1.561770 
# 
# From -- ./inp_files/8510.got.cif
#   From: 2010.05.17/outbox.cif.g08.bks.cpg/sg123_5_cif.got.tgz:8510.got - 2010.05.20 11:43:04.
