data_PCOD9562915
_publ_section_title
;
Structure prediction by ZEFSAII (Michael W. Deem and Ramdas Pophale) SiO2 
 PCOD9562915
Probable space group: P 4/N B M
;
_chemical_formula_sum "Si O2"
_cell_formula_units_Z 112
_cell_length_a 30.601698
_cell_length_b 30.601698
_cell_length_c 9.382437
_cell_angle_alpha 90.000000
_cell_angle_beta 90.000000
_cell_angle_gamma 90.000000
_cell_volume 8786.313737
_symmetry_space_group_name_H-M "P 4/N B M"
_symmetry_group_IT_number 125
_space_group.IT_coordinate_system_code '2'
_symmetry_cell_setting 'tetragonal'
loop_
_space_group_symop_operation_xyz
x,y,z
1/2-y,x,z
1/2-x,1/2-y,z
y,1/2-x,z
x,1/2-y,-z
1/2-x,y,-z
y,x,-z
1/2-y,1/2-x,-z
-x,-y,-z
1/2+y,-x,-z
1/2+x,1/2+y,-z
-y,1/2+x,-z
-x,1/2+y,z
1/2+x,-y,z
-y,-x,z
1/2+y,1/2+x,z
loop_
_atom_site_type_symbol
_atom_site_label
_atom_site_fract_x
_atom_site_fract_y
_atom_site_fract_z
Si Si1 0.984566 0.409735 0.336523
Si Si2 0.250000 0.678467 0.500000
Si Si3 0.469354 0.455284 0.162366
Si Si4 0.250000 0.816854 0.000000
Si Si5 0.091226 0.664633 0.174503
Si Si6 0.349930 0.923226 0.841762
Si Si7 0.764185 0.118064 0.766008
Si Si8 0.603933 0.471113 0.340667
O O1 0.948627 0.448627 0.343804
O O2 0.964068 0.374607 0.228136
O O3 0.988674 0.392380 0.497936
O O4 0.027051 0.431913 0.267989
O O5 0.210212 0.710212 0.457302
O O6 0.264192 0.646951 0.374073
O O7 0.507246 0.492755 0.159755
O O8 0.492217 0.412852 0.230185
O O9 0.452449 0.452449 0.000000
O O10 0.274466 0.847821 0.892046
O O11 0.285061 0.785061 0.073713
O O12 0.135353 0.635353 0.192788
O O13 0.100550 0.715495 0.203005
O O14 0.054882 0.645647 0.281682
O O15 0.075212 0.656267 0.012396
O O16 0.381133 0.881133 0.812236
O O17 0.302751 0.916683 0.770727
O O18 0.565489 0.434512 0.342704
#
# Coordination Sequence:
#
# PCOD9562915 Si02
#       8
#    16   8  16   8  16  16  16  16
#     4   9  17  27  41  59  79  99 118 142 176 222
#     4  11  24  36  44  56  72  90 118 162 214 260
#     4   9  15  25  41  61  81  99 117 139 169 210
#     4  11  20  32  48  60  68  86 122 166 210 252
#     4  10  19  31  44  58  74  95 124 157 195 238
#     4  10  19  31  44  58  74  95 124 157 195 238
#     4  12  22  33  46  58  74  96 124 162 206 249
#     4   9  17  27  41  59  79  99 118 142 176 222
#
# _framework density 12.747097
#
# number of rings (size 3 to 8) (size 9 to 14) (size 15 to 20)
#    0.000    2.000    1.429    3.857    2.000    6.286 
#    0.000    0.000    0.000    0.000    0.000    0.000 
#    0.000    0.000    0.000    0.000    0.000    0.000 
#
# Total GULP energy -624275.200881 kJ/mol
# GULP energy per Si atom -5573.885722 kJ/mol
# Density = 1.271808 g / cm^3
# Si number density = 12.747097 Si / 1000 Ang^3
#
#
#
# Elastic Constant Matrix: (Units=GPa)
#
#
# Indices 1 2 3 4 5 6 
#
# 1 33.9030 24.5139 4.2368 0.0000 0.0000 0.0000
# 2 24.5139 33.9030 4.2368 0.0000 0.0000 0.0000
# 3 4.2368 4.2368 37.7454 0.0000 0.0000 0.0000
# 4 0.0000 0.0000 0.0000 15.9799 0.0000 0.0000
# 5 0.0000 0.0000 0.0000 0.0000 15.9799 0.0000
# 6 0.0000 0.0000 0.0000 0.0000 0.0000 23.3976
#
#
#
# Elastic Compliance Matrix: (Units=1/GPa)
#
#
# Indices 1 2 3 4 5 6 
#
# 1 0.061954 -0.044552 -0.001953 0.000000 0.000000 0.000000
# 2 -0.044552 0.061954 -0.001953 0.000000 0.000000 0.000000
# 3 -0.001953 -0.001953 0.026932 0.000000 0.000000 0.000000
# 4 0.000000 0.000000 0.000000 0.062579 0.000000 0.000000
# 5 0.000000 0.000000 0.000000 0.000000 0.062579 0.000000
# 6 0.000000 0.000000 0.000000 0.000000 0.000000 0.042739
#
#
# Mechanical properties :
#
#
# Convention : Reuss Voigt Hill
#
# Bulk Modulus (GPa) = 18.54530 19.05849 18.80190
# Shear Modulus (GPa) = 11.53060 15.90907 13.71984
#
# Velocity S-wave (km/s) = 3.01086 3.53661 3.28428
# Velocity P-wave (km/s) = 5.16404 5.62677 5.40036
#
# Compressibility (1/GPa) = 0.05392201
#
# Stress axis : x y z
#
# Youngs Moduli (GPa) = 16.14098 16.14098 37.13085
#
# Poissons Ratio (x) = 0.71912 0.07253
# Poissons Ratio (y) = 0.71912 0.07253
# Poissons Ratio (z) = 0.03153 0.03153
#
# Static dielectric constant tensor:
#      x y z
#    x 1.396450 0.000000 0.000000 
#    y 0.000000 1.396450 0.000000 
#    z 0.000000 0.000000 1.399740 
# 
# From -- ./inp_files/3156.got.cif
#   From: 2010.05.17/outbox.cif.g08.bks.cpg/sg125_2_cif.got.tgz:3156.got - 2010.05.20 11:54:10.
