data_PCOD9562260
_publ_section_title
;
Structure prediction by ZEFSAII (Michael W. Deem and Ramdas Pophale) SiO2 
 PCOD9562260
Probable space group: P 4/M M M
;
_chemical_formula_sum "Si O2"
_cell_formula_units_Z 104
_cell_length_a 27.218143
_cell_length_b 27.218143
_cell_length_c 7.426457
_cell_angle_alpha 90.000000
_cell_angle_beta 90.000000
_cell_angle_gamma 90.000000
_cell_volume 5501.722150
_symmetry_space_group_name_H-M "P 4/M M M"
_symmetry_group_IT_number 123
_symmetry_cell_setting 'tetragonal'
loop_
_space_group_symop_operation_xyz
x,y,z
-y,x,z
-x,-y,z
y,-x,z
x,-y,-z
-x,y,-z
y,x,-z
-y,-x,-z
-x,-y,-z
y,-x,-z
x,y,-z
-y,x,-z
-x,y,z
x,-y,z
-y,-x,z
y,x,z
loop_
_atom_site_type_symbol
_atom_site_label
_atom_site_fract_x
_atom_site_fract_y
_atom_site_fract_z
Si Si1 0.944756 0.246766 0.719881
Si Si2 0.055370 0.500000 0.780144
Si Si3 0.308382 0.852492 0.705892
Si Si4 0.239404 0.446426 0.784363
Si Si5 0.581916 0.869818 0.781526
Si Si6 0.945496 0.867115 0.719223
Si Si7 0.665445 0.255994 0.284890
O O1 0.944756 0.249761 0.500000
O O2 0.896431 0.275609 0.785093
O O3 0.939632 0.189666 0.770911
O O4 0.000000 0.263401 0.776119
O O5 0.086002 0.547462 0.724501
O O6 0.000000 0.500000 0.717189
O O7 0.055078 0.500000 0.000000
O O8 0.290985 0.845541 0.500000
O O9 0.363621 0.872875 0.707749
O O10 0.315326 0.797332 0.785232
O O11 0.258310 0.500000 0.718990
O O12 0.182611 0.440652 0.726039
O O13 0.262686 0.393113 0.743501
O O14 0.239679 0.448958 0.000000
O O15 0.584500 0.869401 0.000000
O O16 0.944516 0.867592 0.500000
O O17 0.902832 0.902832 0.783248
O O18 0.000000 0.883622 0.774038
O O19 0.670932 0.253500 0.500000
O O20 0.699648 0.300352 0.218153
#
# Coordination Sequence:
#
# PCOD9562260 Si02
#       7
#    16   8  16  16  16  16  16
#     4   8  14  24  36  50  70  98 135 176 213 253
#     4   9  16  26  41  59  79 105 137 175 218 259
#     4   9  17  28  42  59  79 109 144 176 214 255
#     4   9  16  28  47  66  84 112 148 180 212 254
#     4   9  16  28  43  59  80 105 137 176 214 253
#     4   8  13  20  30  46  68  94 125 161 202 249
#     4   9  18  30  42  62  92 118 143 180 221 259
#
# _framework density 18.903172999999999
#
# number of rings (size 3 to 8) (size 9 to 14) (size 15 to 20)
#    0.000    3.308    0.769    0.923    0.000    2.000 
#    0.000    4.231    0.000    0.462    0.000    0.000 
#    0.000    0.308    0.000    3.846    0.000    3.231 
#
# Total GULP energy -579167.703754 kJ/mol
# GULP energy per Si atom -5568.920228 kJ/mol
# Density = 1.886015 g / cm^3
# Si number density = 18.903173 Si / 1000 Ang^3
#
#
#
# Elastic Constant Matrix: (Units=GPa)
#
#
# Indices 1 2 3 4 5 6 
#
# 1 126.8882 97.0115 3.9261 0.0000 0.0000 0.0000
# 2 97.0115 126.8882 3.9261 0.0000 0.0000 0.0000
# 3 3.9261 3.9261 58.6408 0.0000 0.0000 0.0000
# 4 0.0000 0.0000 0.0000 -0.5740 0.0000 0.0000
# 5 0.0000 0.0000 0.0000 0.0000 -0.5740 0.0000
# 6 0.0000 0.0000 0.0000 0.0000 0.0000 23.2577
#
#
#
# Elastic Compliance Matrix: (Units=1/GPa)
#
#
# Indices 1 2 3 4 5 6 
#
# 1 0.018974 -0.014497 -0.000300 0.000000 0.000000 0.000000
# 2 -0.014497 0.018974 -0.000300 0.000000 0.000000 0.000000
# 3 -0.000300 -0.000300 0.017093 0.000000 0.000000 0.000000
# 4 0.000000 0.000000 0.000000 -1.742051 0.000000 0.000000
# 5 0.000000 0.000000 0.000000 0.000000 -1.742051 0.000000
# 6 0.000000 0.000000 0.000000 0.000000 0.000000 0.042996
#
#
# Mechanical properties :
#
#
# Convention : Reuss Voigt Hill
#
# Bulk Modulus (GPa) = 40.24504 58.01609 49.13056
# Shear Modulus (GPa) = -1.49361 18.25883 8.38261
#
# Velocity S-wave (km/s) = -0.88986 3.11129 2.10811
# Velocity P-wave (km/s) = 4.50339 6.60792 5.65443
#
# Compressibility (1/GPa) = 0.02484778
#
# Stress axis : x y z
#
# Youngs Moduli (GPa) = 52.70411 52.70411 58.50310
#
# Poissons Ratio (x) = 0.76405 0.01754
# Poissons Ratio (y) = 0.76405 0.01754
# Poissons Ratio (z) = 0.01580 0.01580
#
# Static dielectric constant tensor:
#      x y z
#    x 1.654270 0.000000 0.000000 
#    y 0.000000 1.654270 0.000000 
#    z 0.000000 0.000000 1.752670 
# 
# From -- ./inp_files/1962.got.cif
#   From: 2010.05.17/outbox.cif.g08.bks.cpg/sg123_1_cif.got.tgz:1962.got - 2010.05.20 11:43:04.
