data_PCOD9562254
_publ_section_title
;
Structure prediction by ZEFSAII (Michael W. Deem and Ramdas Pophale) SiO2 
 PCOD9562254
Probable space group: P 4/M M M
;
_chemical_formula_sum "Si O2"
_cell_formula_units_Z 44
_cell_length_a 17.445479
_cell_length_b 17.445479
_cell_length_c 7.772421
_cell_angle_alpha 90.000000
_cell_angle_beta 90.000000
_cell_angle_gamma 90.000000
_cell_volume 2365.495429
_symmetry_space_group_name_H-M "P 4/M M M"
_symmetry_group_IT_number 123
_symmetry_cell_setting 'tetragonal'
loop_
_space_group_symop_operation_xyz
x,y,z
-y,x,z
-x,-y,z
y,-x,z
x,-y,-z
-x,y,-z
y,x,-z
-y,-x,-z
-x,-y,-z
y,-x,-z
x,y,-z
-y,x,-z
-x,y,z
x,-y,z
-y,-x,z
y,x,z
loop_
_atom_site_type_symbol
_atom_site_label
_atom_site_fract_x
_atom_site_fract_y
_atom_site_fract_z
Si Si1 0.412694 0.289918 0.289952
Si Si2 0.289175 0.835870 0.708370
Si Si3 0.244674 0.000000 0.810076
Si Si4 0.872760 0.000000 0.500000
O O1 0.413780 0.290171 0.500000
O O2 0.500000 0.287810 0.229809
O O3 0.365351 0.365351 0.236582
O O4 0.361178 0.216805 0.240147
O O5 0.288820 0.841713 0.500000
O O6 0.212590 0.787411 0.756276
O O7 0.290314 0.920834 0.783427
O O8 0.180009 0.000000 0.666074
O O9 0.211028 0.000000 0.000000
O O10 0.925933 0.074068 0.500000
#
# Coordination Sequence:
#
# PCOD9562254 Si02
#       4
#    16  16   8   4
#     4   8  14  25  45  75 108 143 182 222 269 326
#     4   9  17  32  52  72 102 144 184 223 270 323
#     4  12  23  35  56  81 105 141 187 228 271 325
#     4  11  24  40  56  78 111 142 172 224 283 330
#
# _framework density 18.600756000000001
#
# number of rings (size 3 to 8) (size 9 to 14) (size 15 to 20)
#    0.000    2.636    1.818    3.273    0.000    3.273 
#    0.000    3.636    0.000    6.545    0.000    0.000 
#    0.000    0.000    0.000    8.000    0.000    8.000 
#
# Total GULP energy -245493.498749 kJ/mol
# GULP energy per Si atom -5579.397699 kJ/mol
# Density = 1.855842 g / cm^3
# Si number density = 18.600756 Si / 1000 Ang^3
#
#
#
# Elastic Constant Matrix: (Units=GPa)
#
#
# Indices 1 2 3 4 5 6 
#
# 1 165.2019 82.2786 26.6913 0.0000 0.0000 0.0000
# 2 82.2786 165.2015 26.6913 0.0000 0.0000 0.0000
# 3 26.6913 26.6913 65.5976 0.0000 0.0000 0.0000
# 4 0.0000 0.0000 0.0000 17.8726 0.0000 0.0000
# 5 0.0000 0.0000 0.0000 0.0000 17.9035 0.0000
# 6 0.0000 0.0000 0.0000 0.0000 0.0000 15.9525
#
#
#
# Elastic Compliance Matrix: (Units=1/GPa)
#
#
# Indices 1 2 3 4 5 6 
#
# 1 0.008244 -0.003815 -0.001802 0.000000 0.000000 0.000000
# 2 -0.003815 0.008244 -0.001802 0.000000 0.000000 0.000000
# 3 -0.001802 -0.001802 0.016711 0.000000 0.000000 0.000000
# 4 0.000000 0.000000 0.000000 0.055952 0.000000 0.000000
# 5 0.000000 0.000000 0.000000 0.000000 0.055855 0.000000
# 6 0.000000 0.000000 0.000000 0.000000 0.000000 0.062686
#
#
# Mechanical properties :
#
#
# Convention : Reuss Voigt Hill
#
# Bulk Modulus (GPa) = 54.46380 74.14706 64.30543
# Shear Modulus (GPa) = 21.86728 27.70171 24.78450
#
# Velocity S-wave (km/s) = 3.43244 3.86330 3.65423
# Velocity P-wave (km/s) = 6.71214 7.73622 7.24230
#
# Compressibility (1/GPa) = 0.01836082
#
# Stress axis : x y z
#
# Youngs Moduli (GPa) = 121.29422 121.29384 59.84019
#
# Poissons Ratio (x) = 0.46273 0.10785
# Poissons Ratio (y) = 0.46273 0.10785
# Poissons Ratio (z) = 0.21861 0.21861
#
# Static dielectric constant tensor:
#      x y z
#    x 1.631920 0.000000 0.000000 
#    y 0.000000 1.631920 0.000000 
#    z 0.000000 0.000000 1.627590 
# 
# From -- ./inp_files/458.got.cif
#   From: 2010.05.17/outbox.cif.g08.bks.cpg/sg123_1_cif.got.tgz:458.got - 2010.05.20 11:43:04.
