data_PCOD9562907
_publ_section_title
;
Structure prediction by ZEFSAII (Michael W. Deem and Ramdas Pophale) SiO2 
 PCOD9562907
Probable space group: P 4/N B M
;
_chemical_formula_sum "Si O2"
_cell_formula_units_Z 112
_cell_length_a 24.258430
_cell_length_b 24.258430
_cell_length_c 12.463232
_cell_angle_alpha 90.000000
_cell_angle_beta 90.000000
_cell_angle_gamma 90.000000
_cell_volume 7334.255908
_symmetry_space_group_name_H-M "P 4/N B M"
_symmetry_group_IT_number 125
_space_group.IT_coordinate_system_code '2'
_symmetry_cell_setting 'tetragonal'
loop_
_space_group_symop_operation_xyz
x,y,z
1/2-y,x,z
1/2-x,1/2-y,z
y,1/2-x,z
x,1/2-y,-z
1/2-x,y,-z
y,x,-z
1/2-y,1/2-x,-z
-x,-y,-z
1/2+y,-x,-z
1/2+x,1/2+y,-z
-y,1/2+x,-z
-x,1/2+y,z
1/2+x,-y,z
-y,-x,z
1/2+y,1/2+x,z
loop_
_atom_site_type_symbol
_atom_site_label
_atom_site_fract_x
_atom_site_fract_y
_atom_site_fract_z
Si Si1 0.517420 0.387871 0.691634
Si Si2 0.611620 0.482065 0.447688
Si Si3 0.699720 0.110697 0.579478
Si Si4 0.971034 0.566285 0.238091
Si Si5 0.327708 0.577985 0.136712
Si Si6 0.627141 0.036374 0.927119
Si Si7 0.377111 0.790148 0.172617
O O1 0.565775 0.434226 0.687367
O O2 0.498227 0.379084 0.569427
O O3 0.468652 0.415210 0.760748
O O4 0.545206 0.336485 0.751947
O O5 0.558692 0.441309 0.452306
O O6 0.663217 0.444287 0.416192
O O7 0.597831 0.523631 0.351857
O O8 0.750000 0.104527 0.500000
O O9 0.658617 0.158617 0.539195
O O10 0.717463 0.126193 0.699468
O O11 0.020978 0.520978 0.236803
O O12 0.983495 0.607070 0.139271
O O13 0.373375 0.626626 0.132325
O O14 0.268400 0.605985 0.124886
O O15 0.341282 0.535853 0.039988
O O16 0.571991 0.071991 0.948826
O O17 0.666140 0.074302 0.852310
O O18 0.321104 0.821104 0.135360
#
# Coordination Sequence:
#
# PCOD9562907 Si02
#       7
#    16  16  16  16  16  16  16
#     4   9  17  26  40  63  86 104 125 165 221 268
#     4   9  15  26  41  58  80 103 131 168 208 260
#     4  10  19  29  42  58  79 108 141 182 228 267
#     4   9  15  26  44  62  79 103 133 164 208 269
#     4  10  20  31  42  60  84 106 138 188 232 262
#     4   9  17  30  45  59  77 104 139 176 212 256
#     4  10  19  32  46  58  76 109 151 186 218 258
#
# _framework density 15.270806
#
# number of rings (size 3 to 8) (size 9 to 14) (size 15 to 20)
#    0.000    2.571    1.429    1.714    0.000    4.429 
#    0.000    4.286    0.000    2.571    0.000    0.000 
#    0.000    0.000    0.000    0.000    0.000    0.714 
#
# Total GULP energy -623595.976781 kJ/mol
# GULP energy per Si atom -5567.821221 kJ/mol
# Density = 1.523605 g / cm^3
# Si number density = 15.270806 Si / 1000 Ang^3
#
#
#
# Elastic Constant Matrix: (Units=GPa)
#
#
# Indices 1 2 3 4 5 6 
#
# 1 26.5621 29.9880 15.1859 0.0000 0.0000 0.0000
# 2 29.9880 26.5621 15.1859 0.0000 0.0000 0.0000
# 3 15.1859 15.1859 46.3290 0.0000 0.0000 0.0000
# 4 0.0000 0.0000 0.0000 14.0779 0.0000 0.0000
# 5 0.0000 0.0000 0.0000 0.0000 14.0779 0.0000
# 6 0.0000 0.0000 0.0000 0.0000 0.0000 14.4649
#
#
#
# Elastic Compliance Matrix: (Units=1/GPa)
#
#
# Indices 1 2 3 4 5 6 
#
# 1 -0.135217 0.156679 -0.007035 0.000000 0.000000 0.000000
# 2 0.156679 -0.135217 -0.007035 0.000000 0.000000 0.000000
# 3 -0.007035 -0.007035 0.026196 0.000000 0.000000 0.000000
# 4 0.000000 0.000000 0.000000 0.071033 0.000000 0.000000
# 5 0.000000 0.000000 0.000000 0.000000 0.071033 0.000000
# 6 0.000000 0.000000 0.000000 0.000000 0.000000 0.069133
#
#
# Mechanical properties :
#
#
# Convention : Reuss Voigt Hill
#
# Bulk Modulus (GPa) = 24.40171 24.46363 24.43267
# Shear Modulus (GPa) = -16.41507 11.13039 -2.64234
#
# Velocity S-wave (km/s) = -3.28217 2.70268 -1.31684
# Velocity P-wave (km/s) = 1.28471 5.07878 3.70435
#
# Compressibility (1/GPa) = 0.04098074
#
# Stress axis : x y z
#
# Youngs Moduli (GPa) = -7.39549 -7.39549 38.17307
#
# Poissons Ratio (x) = 1.15872 0.26854
# Poissons Ratio (y) = 1.15872 0.26854
# Poissons Ratio (z) = -0.05203 -0.05203
#
# Static dielectric constant tensor:
#      x y z
#    x 1.496340 0.000000 0.000000 
#    y 0.000000 1.496340 0.000000 
#    z 0.000000 0.000000 1.574760 
# 
# From -- ./inp_files/4305.got.cif
#   From: 2010.05.17/outbox.cif.g08.bks.cpg/sg125_3_cif.got.tgz:4305.got - 2010.05.20 11:54:10.
