data_PCOD9562469
_publ_section_title
;
Structure prediction by ZEFSAII (Michael W. Deem and Ramdas Pophale) SiO2 
 PCOD9562469
Probable space group: P 4/M C C
;
_chemical_formula_sum "Si O2"
_cell_formula_units_Z 96
_cell_length_a 23.957911
_cell_length_b 23.957911
_cell_length_c 9.440582
_cell_angle_alpha 90.000000
_cell_angle_beta 90.000000
_cell_angle_gamma 90.000000
_cell_volume 5418.719412
_symmetry_space_group_name_H-M "P 4/M C C"
_symmetry_group_IT_number 124
_symmetry_cell_setting 'tetragonal'
loop_
_space_group_symop_operation_xyz
x,y,z
-y,x,z
-x,-y,z
y,-x,z
x,-y,1/2-z
-x,y,1/2-z
y,x,1/2-z
-y,-x,1/2-z
-x,-y,-z
y,-x,-z
x,y,-z
-y,x,-z
-x,y,1/2+z
x,-y,1/2+z
-y,-x,1/2+z
y,x,1/2+z
loop_
_atom_site_type_symbol
_atom_site_label
_atom_site_fract_x
_atom_site_fract_y
_atom_site_fract_z
Si Si1 0.819692 0.742799 0.670765
Si Si2 0.945797 0.713871 0.662022
Si Si3 0.420975 0.945514 0.336517
Si Si4 0.627044 0.372957 0.250000
Si Si5 0.752182 0.650709 0.159599
Si Si6 0.554555 0.578487 0.000000
Si Si7 0.835626 0.548003 0.838604
O O1 0.797537 0.797537 0.750000
O O2 0.816829 0.745571 0.500000
O O3 0.884036 0.731193 0.712155
O O4 0.778465 0.694151 0.728891
O O5 0.952050 0.732834 0.500000
O O6 0.945427 0.646447 0.661667
O O7 0.000000 0.732098 0.750000
O O8 0.439852 0.946122 0.500000
O O9 0.439183 0.891244 0.250074
O O10 0.438424 0.000000 0.250000
O O11 0.625834 0.308588 0.196942
O O12 0.581707 0.388427 0.368905
O O13 0.796668 0.601350 0.156691
O O14 0.749054 0.675513 0.000000
O O15 0.486825 0.575133 0.000000
O O16 0.805424 0.500000 0.750000
O O17 0.848218 0.531444 0.000000
#
# Coordination Sequence:
#
# PCOD9562469 Si02
#       7
#    16  16  16   8  16   8  16
#     4  11  22  36  59  88 122 161 200 244 291 345
#     4   9  19  34  55  83 114 153 199 243 291 342
#     4  10  19  35  56  80 108 147 195 243 292 339
#     4  12  24  45  68  96 120 148 186 230 291 360
#     4  11  24  41  59  87 117 151 190 230 287 357
#     4  11  26  48  74  96 118 146 186 240 302 372
#     4  11  24  40  56  79 111 146 189 239 292 346
#
# _framework density 17.716360999999999
#
# number of rings (size 3 to 8) (size 9 to 14) (size 15 to 20)
#    0.000    1.417    3.333    2.000    1.167    5.000 
#    0.000    1.667    0.000    0.000    0.000    0.000 
#    0.000    0.333    0.000    3.667    0.000    2.667 
#
# Total GULP energy -535604.542974 kJ/mol
# GULP energy per Si atom -5579.213989 kJ/mol
# Density = 1.767604 g / cm^3
# Si number density = 17.716361 Si / 1000 Ang^3
#
#
#
# Elastic Constant Matrix: (Units=GPa)
#
#
# Indices 1 2 3 4 5 6 
#
# 1 98.4951 32.7256 39.5861 0.0000 0.0000 0.0000
# 2 32.7256 98.4960 39.5866 0.0000 0.0000 0.0000
# 3 39.5861 39.5866 125.4541 0.0000 0.0000 0.0000
# 4 0.0000 0.0000 0.0000 23.3890 0.0000 0.0000
# 5 0.0000 0.0000 0.0000 0.0000 23.3899 0.0000
# 6 0.0000 0.0000 0.0000 0.0000 0.0000 25.0094
#
#
#
# Elastic Compliance Matrix: (Units=1/GPa)
#
#
# Indices 1 2 3 4 5 6 
#
# 1 0.012309 -0.002896 -0.002970 0.000000 0.000000 0.000000
# 2 -0.002896 0.012309 -0.002970 0.000000 0.000000 0.000000
# 3 -0.002970 -0.002970 0.009845 0.000000 0.000000 0.000000
# 4 0.000000 0.000000 0.000000 0.042755 0.000000 0.000000
# 5 0.000000 0.000000 0.000000 0.000000 0.042753 0.000000
# 6 0.000000 0.000000 0.000000 0.000000 0.000000 0.039985
#
#
# Mechanical properties :
#
#
# Convention : Reuss Voigt Hill
#
# Bulk Modulus (GPa) = 59.55778 60.69355 60.12566
# Shear Modulus (GPa) = 27.28879 28.39413 27.84146
#
# Velocity S-wave (km/s) = 3.92894 4.00772 3.96853
# Velocity P-wave (km/s) = 7.36699 7.46650 7.41691
#
# Compressibility (1/GPa) = 0.01679042
#
# Stress axis : x y z
#
# Youngs Moduli (GPa) = 81.24345 81.24402 101.56956
#
# Poissons Ratio (x) = 0.23527 0.30168
# Poissons Ratio (y) = 0.23527 0.30168
# Poissons Ratio (z) = 0.24130 0.24131
#
# Static dielectric constant tensor:
#      x y z
#    x 1.608290 0.000000 0.000000 
#    y 0.000000 1.608290 0.000000 
#    z 0.000000 0.000000 1.650460 
# 
# From -- ./inp_files/1442.got.cif
#   From: 2010.05.17/outbox.cif.g08.bks.cpg/sg124_1_cif.got.tgz:1442.got - 2010.05.20 11:49:17.
