data_PCOD9562557
_publ_section_title
;
Structure prediction by ZEFSAII (Michael W. Deem and Ramdas Pophale) SiO2 
 PCOD9562557
Probable space group: P 4/M C C
;
_chemical_formula_sum "Si O2"
_cell_formula_units_Z 96
_cell_length_a 24.668003
_cell_length_b 24.668003
_cell_length_c 8.663852
_cell_angle_alpha 90.000000
_cell_angle_beta 90.000000
_cell_angle_gamma 90.000000
_cell_volume 5272.043804
_symmetry_space_group_name_H-M "P 4/M C C"
_symmetry_group_IT_number 124
_symmetry_cell_setting 'tetragonal'
loop_
_space_group_symop_operation_xyz
x,y,z
-y,x,z
-x,-y,z
y,-x,z
x,-y,1/2-z
-x,y,1/2-z
y,x,1/2-z
-y,-x,1/2-z
-x,-y,-z
y,-x,-z
x,y,-z
-y,x,-z
-x,y,1/2+z
x,-y,1/2+z
-y,-x,1/2+z
y,x,1/2+z
loop_
_atom_site_type_symbol
_atom_site_label
_atom_site_fract_x
_atom_site_fract_y
_atom_site_fract_z
Si Si1 0.641227 0.557474 0.684227
Si Si2 0.150083 0.356719 0.185893
Si Si3 0.769286 0.145969 0.813349
Si Si4 0.558019 0.232746 0.684295
Si Si5 0.939745 0.557459 0.815027
Si Si6 0.939070 0.853663 0.685675
O O1 0.621812 0.500000 0.750000
O O2 0.605513 0.605513 0.750000
O O3 0.638220 0.556594 0.500000
O O4 0.704209 0.563622 0.729549
O O5 0.147498 0.293873 0.232700
O O6 0.199630 0.391134 0.252883
O O7 0.097412 0.391922 0.230479
O O8 0.153722 0.357487 0.000000
O O9 0.802015 0.197986 0.750000
O O10 0.801122 0.094110 0.745540
O O11 0.773040 0.144737 0.000000
O O12 0.500000 0.213447 0.750000
O O13 0.556093 0.228729 0.500000
O O14 0.918757 0.500000 0.750000
O O15 0.000000 0.564309 0.750000
O O16 0.941434 0.553851 0.000000
O O17 0.904875 0.904875 0.750000
O O18 0.939003 0.854711 0.500000
O O19 0.000000 0.853894 0.750000
#
# Coordination Sequence:
#
# PCOD9562557 Si02
#       6
#    16  16  16  16  16  16
#     4  10  21  37  56  80 108 140 177 221 270 327
#     4  10  22  37  56  81 110 143 185 230 273 325
#     4  10  21  39  58  81 113 149 187 231 279 328
#     4  10  21  36  56  80 108 141 180 225 278 330
#     4  10  20  35  53  77 107 141 176 219 269 318
#     4  11  22  39  62  89 119 153 190 231 278 329
#
# _framework density 18.209257999999998
#
# number of rings (size 3 to 8) (size 9 to 14) (size 15 to 20)
#    0.000    1.833    0.000    5.500    0.000    7.667 
#    0.000    6.667    0.000    0.000    0.000    0.000 
#    0.000    0.000    0.000    0.000    0.000    0.000 
#
# Total GULP energy -536203.948593 kJ/mol
# GULP energy per Si atom -5585.457798 kJ/mol
# Density = 1.816781 g / cm^3
# Si number density = 18.209258 Si / 1000 Ang^3
#
#
#
# Elastic Constant Matrix: (Units=GPa)
#
#
# Indices 1 2 3 4 5 6 
#
# 1 166.5694 95.3754 52.3712 0.0000 0.0000 0.0000
# 2 95.3754 166.5691 52.3721 0.0000 0.0000 0.0000
# 3 52.3712 52.3721 68.7357 0.0000 0.0000 0.0000
# 4 0.0000 0.0000 0.0000 31.2762 0.0000 0.0000
# 5 0.0000 0.0000 0.0000 0.0000 31.2764 0.0000
# 6 0.0000 0.0000 0.0000 0.0000 0.0000 14.4367
#
#
#
# Elastic Compliance Matrix: (Units=1/GPa)
#
#
# Indices 1 2 3 4 5 6 
#
# 1 0.009768 -0.004278 -0.004183 0.000000 0.000000 0.000000
# 2 -0.004278 0.009768 -0.004183 0.000000 0.000000 0.000000
# 3 -0.004183 -0.004183 0.020923 0.000000 0.000000 0.000000
# 4 0.000000 0.000000 0.000000 0.031973 0.000000 0.000000
# 5 0.000000 0.000000 0.000000 0.000000 0.031973 0.000000
# 6 0.000000 0.000000 0.000000 0.000000 0.000000 0.069268
#
#
# Mechanical properties :
#
#
# Convention : Reuss Voigt Hill
#
# Bulk Modulus (GPa) = 65.91589 89.12353 77.51971
# Shear Modulus (GPa) = 24.50743 28.84821 26.67782
#
# Velocity S-wave (km/s) = 3.67260 3.98460 3.83177
# Velocity P-wave (km/s) = 7.36625 8.37972 7.88928
#
# Compressibility (1/GPa) = 0.01517085
#
# Stress axis : x y z
#
# Youngs Moduli (GPa) = 102.37313 102.37181 47.79392
#
# Poissons Ratio (x) = 0.43794 0.19993
# Poissons Ratio (y) = 0.43794 0.19994
# Poissons Ratio (z) = 0.42824 0.42826
#
# Static dielectric constant tensor:
#      x y z
#    x 1.611350 0.000000 0.000000 
#    y 0.000000 1.611350 0.000000 
#    z 0.000000 0.000000 1.613290 
# 
# From -- ./inp_files/1321.got.cif
#   From: 2010.05.17/outbox.cif.g08.bks.cpg/sg124_1_cif.got.tgz:1321.got - 2010.05.20 11:49:17.
