data_PCOD9562882
_publ_section_title
;
Structure prediction by ZEFSAII (Michael W. Deem and Ramdas Pophale) SiO2 
 PCOD9562882
Probable space group: P 4/N B M
;
_chemical_formula_sum "Si O2"
_cell_formula_units_Z 112
_cell_length_a 36.415273
_cell_length_b 36.415273
_cell_length_c 5.276992
_cell_angle_alpha 90.000000
_cell_angle_beta 90.000000
_cell_angle_gamma 90.000000
_cell_volume 6997.671904
_symmetry_space_group_name_H-M "P 4/N B M"
_symmetry_group_IT_number 125
_space_group.IT_coordinate_system_code '2'
_symmetry_cell_setting 'tetragonal'
loop_
_space_group_symop_operation_xyz
x,y,z
1/2-y,x,z
1/2-x,1/2-y,z
y,1/2-x,z
x,1/2-y,-z
1/2-x,y,-z
y,x,-z
1/2-y,1/2-x,-z
-x,-y,-z
1/2+y,-x,-z
1/2+x,1/2+y,-z
-y,1/2+x,-z
-x,1/2+y,z
1/2+x,-y,z
-y,-x,z
1/2+y,1/2+x,z
loop_
_atom_site_type_symbol
_atom_site_label
_atom_site_fract_x
_atom_site_fract_y
_atom_site_fract_z
Si Si1 0.462392 0.651335 0.846500
Si Si2 0.122706 0.934844 0.344790
Si Si3 0.772006 0.001848 0.251666
Si Si4 0.226202 0.086528 0.748279
Si Si5 0.406203 0.470486 0.843138
Si Si6 0.894855 0.860488 0.754602
Si Si7 0.939122 0.000832 0.658278
O O1 0.435031 0.637463 0.629370
O O2 0.478268 0.689653 0.760556
O O3 0.496910 0.623707 0.847988
O O4 0.445707 0.651116 0.126777
O O5 0.102772 0.897229 0.279097
O O6 0.091255 0.966443 0.337431
O O7 0.750000 0.012418 0.500000
O O8 0.776983 0.957777 0.256036
O O9 0.750000 0.010955 0.000000
O O10 0.250000 0.097493 0.500000
O O11 0.183758 0.099878 0.744639
O O12 0.250000 0.096399 0.000000
O O13 0.383448 0.433171 0.790210
O O14 0.433495 0.481958 0.615043
O O15 0.426064 0.474017 0.115719
O O16 0.875598 0.875598 0.500000
O O17 0.870945 0.870945 0.000000
O O18 0.977845 0.022156 0.695621
#
# Coordination Sequence:
#
# PCOD9562882 Si02
#       7
#    16  16  16  16  16  16  16
#     4  10  17  29  45  63  92 121 160 198 244 294
#     4   9  17  26  41  64  87 116 157 211 256 284
#     4  10  19  30  47  70  96 126 159 192 238 293
#     4  10  21  38  58  79 105 134 163 190 226 282
#     4  10  19  32  48  69  96 126 164 204 253 294
#     4  12  24  38  57  82 110 133 160 194 243 294
#     4   9  17  29  48  67  88 124 171 217 252 289
#
# _framework density 16.005323000000001
#
# number of rings (size 3 to 8) (size 9 to 14) (size 15 to 20)
#    0.000    2.000    1.429    3.429    0.000    3.429 
#    0.000    0.000    0.000    8.571    0.000    0.000 
#    0.000   20.000    0.000    0.000    0.000    0.000 
#
# Total GULP energy -625014.235746 kJ/mol
# GULP energy per Si atom -5580.484248 kJ/mol
# Density = 1.596889 g / cm^3
# Si number density = 16.005323 Si / 1000 Ang^3
#
#
#
# Elastic Constant Matrix: (Units=GPa)
#
#
# Indices 1 2 3 4 5 6 
#
# 1 67.2498 37.5808 45.4163 0.0000 0.0000 0.0000
# 2 37.5808 67.2498 45.4163 0.0000 0.0000 0.0000
# 3 45.4163 45.4163 134.3442 0.0000 0.0000 0.0000
# 4 0.0000 0.0000 0.0000 20.3412 0.0000 0.0000
# 5 0.0000 0.0000 0.0000 0.0000 20.3412 0.0000
# 6 0.0000 0.0000 0.0000 0.0000 0.0000 14.2768
#
#
#
# Elastic Compliance Matrix: (Units=1/GPa)
#
#
# Indices 1 2 3 4 5 6 
#
# 1 0.023598 -0.010107 -0.004561 0.000000 0.000000 0.000000
# 2 -0.010107 0.023598 -0.004561 0.000000 0.000000 0.000000
# 3 -0.004561 -0.004561 0.010527 0.000000 0.000000 0.000000
# 4 0.000000 0.000000 0.000000 0.049161 0.000000 0.000000
# 5 0.000000 0.000000 0.000000 0.000000 0.049161 0.000000
# 6 0.000000 0.000000 0.000000 0.000000 0.000000 0.070044
#
#
# Mechanical properties :
#
#
# Convention : Reuss Voigt Hill
#
# Bulk Modulus (GPa) = 51.90464 58.40785 55.15624
# Shear Modulus (GPa) = 18.45230 20.35386 19.40308
#
# Velocity S-wave (km/s) = 3.39910 3.56995 3.48557
# Velocity P-wave (km/s) = 6.92136 7.31879 7.12285
#
# Compressibility (1/GPa) = 0.01926610
#
# Stress axis : x y z
#
# Youngs Moduli (GPa) = 42.37640 42.37640 94.99236
#
# Poissons Ratio (x) = 0.42830 0.43324
# Poissons Ratio (y) = 0.42830 0.43324
# Poissons Ratio (z) = 0.19327 0.19327
#
# Static dielectric constant tensor:
#      x y z
#    x 1.530580 0.000000 0.000000 
#    y 0.000000 1.530580 0.000000 
#    z 0.000000 0.000000 1.555210 
# 
# From -- ./inp_files/1366.got.cif
#   From: 2010.05.17/outbox.cif.g08.bks.cpg/sg125_1_cif.got.tgz:1366.got - 2010.05.20 11:54:10.
