data_PCOD9562301
_publ_section_title
;
Structure prediction by ZEFSAII (Michael W. Deem and Ramdas Pophale) SiO2 
 PCOD9562301
Probable space group: P 4/M C C
;
_chemical_formula_sum "Si O2"
_cell_formula_units_Z 96
_cell_length_a 14.399494
_cell_length_b 14.399494
_cell_length_c 23.627555
_cell_angle_alpha 90.000000
_cell_angle_beta 90.000000
_cell_angle_gamma 90.000000
_cell_volume 4899.065491
_symmetry_space_group_name_H-M "P 4/M C C"
_symmetry_group_IT_number 124
_symmetry_cell_setting 'tetragonal'
loop_
_space_group_symop_operation_xyz
x,y,z
-y,x,z
-x,-y,z
y,-x,z
x,-y,1/2-z
-x,y,1/2-z
y,x,1/2-z
-y,-x,1/2-z
-x,-y,-z
y,-x,-z
x,y,-z
-y,x,-z
-x,y,1/2+z
x,-y,1/2+z
-y,-x,1/2+z
y,x,1/2+z
loop_
_atom_site_type_symbol
_atom_site_label
_atom_site_fract_x
_atom_site_fract_y
_atom_site_fract_z
Si Si1 0.326893 0.077645 0.000000
Si Si2 0.380755 0.780511 0.402240
Si Si3 0.067407 0.870022 0.374010
Si Si4 0.127218 0.121722 0.500000
Si Si5 0.458243 0.349364 0.000000
Si Si6 0.890711 0.509971 0.817287
Si Si7 0.655203 0.134682 0.000000
Si Si8 0.186765 0.683771 0.377731
O O1 0.351939 0.135971 0.055429
O O2 0.216205 0.069277 0.000000
O O3 0.366950 0.974471 0.000000
O O4 0.436780 0.710998 0.443892
O O5 0.436354 0.827745 0.351313
O O6 0.289945 0.726052 0.379736
O O7 0.069188 0.884222 0.441709
O O8 0.118364 0.772036 0.368128
O O9 0.961508 0.877336 0.352384
O O10 0.234376 0.154363 0.500000
O O11 0.562299 0.389011 0.000000
O O12 0.887482 0.500000 0.750000
O O13 0.845169 0.608606 0.832679
O O14 0.000000 0.500000 0.834738
O O15 0.630663 0.173073 0.938483
#
# Coordination Sequence:
#
# PCOD9562301 Si02
#       8
#     8  16  16   8   8  16   8  16
#     4  11  18  31  53  95 128 174 200 246 298 379
#     4  11  22  39  64  93 128 164 214 258 317 388
#     4  10  19  29  50  88 131 173 210 243 295 370
#     4  10  15  24  42  75 126 168 202 226 274 351
#     4  10  21  39  64  96 132 162 196 253 330 402
#     4  11  27  47  66  89 120 164 224 280 333 382
#     4  10  18  29  54  87 132 164 204 235 304 369
#     4  11  22  38  63  92 132 172 211 262 315 382
#
# _framework density 19.595575
#
# number of rings (size 3 to 8) (size 9 to 14) (size 15 to 20)
#    0.000    1.417    3.333    5.000    2.333    2.667 
#    0.000    2.917    0.000    0.000    0.000    1.167 
#    0.000    0.000    0.000    0.000    0.000    0.000 
#
# Total GULP energy -535675.235975 kJ/mol
# GULP energy per Si atom -5579.950375 kJ/mol
# Density = 1.955097 g / cm^3
# Si number density = 19.595575 Si / 1000 Ang^3
#
#
#
# Elastic Constant Matrix: (Units=GPa)
#
#
# Indices 1 2 3 4 5 6 
#
# 1 112.5524 81.7239 55.7207 0.0000 0.0000 0.0000
# 2 81.7239 112.5524 55.7207 0.0000 0.0000 0.0000
# 3 55.7207 55.7207 81.9028 0.0000 0.0000 0.0000
# 4 0.0000 0.0000 0.0000 14.0801 0.0000 0.0000
# 5 0.0000 0.0000 0.0000 0.0000 14.0801 0.0000
# 6 0.0000 0.0000 0.0000 0.0000 0.0000 17.3766
#
#
#
# Elastic Compliance Matrix: (Units=1/GPa)
#
#
# Indices 1 2 3 4 5 6 
#
# 1 0.020440 -0.011998 -0.005743 0.000000 0.000000 0.000000
# 2 -0.011998 0.020440 -0.005743 0.000000 0.000000 0.000000
# 3 -0.005743 -0.005743 0.020024 0.000000 0.000000 0.000000
# 4 0.000000 0.000000 0.000000 0.071022 0.000000 0.000000
# 5 0.000000 0.000000 0.000000 0.000000 0.071022 0.000000
# 6 0.000000 0.000000 0.000000 0.000000 0.000000 0.057549
#
#
# Mechanical properties :
#
#
# Convention : Reuss Voigt Hill
#
# Bulk Modulus (GPa) = 71.76216 77.03757 74.39987
# Shear Modulus (GPa) = 16.02001 16.69684 16.35842
#
# Velocity S-wave (km/s) = 2.86235 2.92219 2.89243
# Velocity P-wave (km/s) = 6.90110 7.12634 7.01463
#
# Compressibility (1/GPa) = 0.01393492
#
# Stress axis : x y z
#
# Youngs Moduli (GPa) = 48.92462 48.92462 49.94010
#
# Poissons Ratio (x) = 0.58699 0.28681
# Poissons Ratio (y) = 0.58699 0.28681
# Poissons Ratio (z) = 0.28098 0.28098
#
# Static dielectric constant tensor:
#      x y z
#    x 1.736680 0.000000 0.000000 
#    y 0.000000 1.736680 0.000000 
#    z 0.000000 0.000000 1.684030 
# 
# From -- ./inp_files/5417.got.cif
#   From: 2010.05.17/outbox.cif.g08.bks.cpg/sg124_3_cif.got.tgz:5417.got - 2010.05.20 11:49:17.
