data_PCOD9562783
_publ_section_title
;
Structure prediction by ZEFSAII (Michael W. Deem and Ramdas Pophale) SiO2 
 PCOD9562783
Probable space group: P 4/M C C
;
_chemical_formula_sum "Si O2"
_cell_formula_units_Z 60
_cell_length_a 14.374385
_cell_length_b 14.374385
_cell_length_c 14.207164
_cell_angle_alpha 90.000000
_cell_angle_beta 90.000000
_cell_angle_gamma 90.000000
_cell_volume 2935.526053
_symmetry_space_group_name_H-M "P 4/M C C"
_symmetry_group_IT_number 124
_symmetry_cell_setting 'tetragonal'
loop_
_space_group_symop_operation_xyz
x,y,z
-y,x,z
-x,-y,z
y,-x,z
x,-y,1/2-z
-x,y,1/2-z
y,x,1/2-z
-y,-x,1/2-z
-x,-y,-z
y,-x,-z
x,y,-z
-y,x,-z
-x,y,1/2+z
x,-y,1/2+z
-y,-x,1/2+z
y,x,1/2+z
loop_
_atom_site_type_symbol
_atom_site_label
_atom_site_fract_x
_atom_site_fract_y
_atom_site_fract_z
Si Si1 0.042313 0.148516 0.000000
Si Si2 0.649740 0.507732 0.862842
Si Si3 0.766600 0.096264 0.196302
Si Si4 0.500000 0.000000 0.250000
Si Si5 0.411071 0.848008 0.889657
O O1 0.060422 0.201984 0.904928
O O2 0.938709 0.110752 0.000000
O O3 0.585345 0.595071 0.893295
O O4 0.649100 0.500000 0.750000
O O5 0.755813 0.525605 0.890388
O O6 0.848943 0.151058 0.250000
O O7 0.684787 0.168169 0.168400
O O8 0.739930 0.000000 0.250000
O O9 0.548006 0.069975 0.175066
O O10 0.396391 0.873885 0.000000
#
# Coordination Sequence:
#
# PCOD9562783 Si02
#       5
#     8  16  16   4  16
#     4  11  22  40  66  95 130 177 240 295 352 410
#     4   9  20  42  72 104 139 176 221 281 348 410
#     4  12  25  41  65  96 136 182 227 285 346 403
#     4  12  26  48  68  92 138 180 222 276 344 404
#     4  12  26  44  70 101 135 183 231 276 341 423
#
# _framework density 20.439266
#
# number of rings (size 3 to 8) (size 9 to 14) (size 15 to 20)
#    0.000    0.933    6.667    1.200    3.733    1.333 
#    0.000    1.333    0.000    0.000    0.000    0.000 
#    0.000    0.000    0.000    0.000    0.000    0.000 
#
# Total GULP energy -334343.586288 kJ/mol
# GULP energy per Si atom -5572.393105 kJ/mol
# Density = 2.039275 g / cm^3
# Si number density = 20.439266 Si / 1000 Ang^3
#
#
#
# Elastic Constant Matrix: (Units=GPa)
#
#
# Indices 1 2 3 4 5 6 
#
# 1 82.6822 40.9484 41.5674 0.0000 0.0000 0.0000
# 2 40.9484 82.6827 41.5680 0.0000 0.0000 0.0000
# 3 41.5674 41.5680 171.6962 0.0000 0.0000 0.0000
# 4 0.0000 0.0000 0.0000 16.0297 0.0000 0.0000
# 5 0.0000 0.0000 0.0000 0.0000 16.0298 0.0000
# 6 0.0000 0.0000 0.0000 0.0000 0.0000 29.0503
#
#
#
# Elastic Compliance Matrix: (Units=1/GPa)
#
#
# Indices 1 2 3 4 5 6 
#
# 1 0.016811 -0.007150 -0.002339 0.000000 0.000000 0.000000
# 2 -0.007150 0.016811 -0.002339 0.000000 0.000000 0.000000
# 3 -0.002339 -0.002339 0.006957 0.000000 0.000000 0.000000
# 4 0.000000 0.000000 0.000000 0.062384 0.000000 0.000000
# 5 0.000000 0.000000 0.000000 0.000000 0.062384 0.000000
# 6 0.000000 0.000000 0.000000 0.000000 0.000000 0.034423
#
#
# Mechanical properties :
#
#
# Convention : Reuss Voigt Hill
#
# Bulk Modulus (GPa) = 59.08916 65.02544 62.05730
# Shear Modulus (GPa) = 21.82760 26.42045 24.12402
#
# Velocity S-wave (km/s) = 3.27146 3.59922 3.43925
# Velocity P-wave (km/s) = 6.57589 7.01110 6.79698
#
# Compressibility (1/GPa) = 0.01692358
#
# Stress axis : x y z
#
# Youngs Moduli (GPa) = 59.48350 59.48366 143.74409
#
# Poissons Ratio (x) = 0.42530 0.33622
# Poissons Ratio (y) = 0.42530 0.33623
# Poissons Ratio (z) = 0.13913 0.13914
#
# Static dielectric constant tensor:
#      x y z
#    x 1.757650 0.000000 0.000000 
#    y 0.000000 1.757640 0.000000 
#    z 0.000000 0.000000 1.688660 
# 
# From -- ./inp_files/3015.got.cif
#   From: 2010.05.17/outbox.cif.g08.bks.cpg/sg124_2_cif.got.tgz:3015.got - 2010.05.20 11:49:17.
