data_PCOD9562920
_publ_section_title
;
Structure prediction by ZEFSAII (Michael W. Deem and Ramdas Pophale) SiO2 
 PCOD9562920
Probable space group: P 4/N B M
;
_chemical_formula_sum "Si O2"
_cell_formula_units_Z 80
_cell_length_a 29.802147
_cell_length_b 29.802147
_cell_length_c 4.997512
_cell_angle_alpha 90.000000
_cell_angle_beta 90.000000
_cell_angle_gamma 90.000000
_cell_volume 4438.630067
_symmetry_space_group_name_H-M "P 4/N B M"
_symmetry_group_IT_number 125
_space_group.IT_coordinate_system_code '2'
_symmetry_cell_setting 'tetragonal'
loop_
_space_group_symop_operation_xyz
x,y,z
1/2-y,x,z
1/2-x,1/2-y,z
y,1/2-x,z
x,1/2-y,-z
1/2-x,y,-z
y,x,-z
1/2-y,1/2-x,-z
-x,-y,-z
1/2+y,-x,-z
1/2+x,1/2+y,-z
-y,1/2+x,-z
-x,1/2+y,z
1/2+x,-y,z
-y,-x,z
1/2+y,1/2+x,z
loop_
_atom_site_type_symbol
_atom_site_label
_atom_site_fract_x
_atom_site_fract_y
_atom_site_fract_z
Si Si1 0.846417 0.346417 0.446182
Si Si2 0.062508 0.370756 0.936438
Si Si3 0.844736 0.049146 0.436555
Si Si4 0.197346 0.802655 0.946422
Si Si5 0.981388 0.914041 0.436714
Si Si6 0.995414 0.198111 0.935836
O O1 0.838716 0.398890 0.501911
O O2 0.832098 0.332098 0.150120
O O3 0.816824 0.316824 0.649526
O O4 0.049583 0.383512 0.634648
O O5 0.045085 0.321538 0.006973
O O6 0.112516 0.387485 0.000000
O O7 0.031512 0.401618 0.133726
O O8 0.829784 0.036710 0.137667
O O9 0.894912 0.030333 0.495557
O O10 0.813546 0.020538 0.638281
O O11 0.188908 0.750000 0.000000
O O12 0.963964 0.963964 0.500000
O O13 0.991985 0.250000 0.000000
#
# Coordination Sequence:
#
# PCOD9562920 Si02
#       6
#     8  16  16   8  16  16
#     4  12  24  39  59  80 102 122 148 192 242 288
#     4   8  14  25  42  63  89 123 158 190 224 264
#     4  10  21  33  48  73 100 126 156 190 233 282
#     4  11  26  46  64  78  91 116 156 196 237 292
#     4   8  14  27  45  64  91 127 160 186 214 256
#     4  10  19  31  48  71  98 125 156 194 236 281
#
# _framework density 18.023579000000002
#
# number of rings (size 3 to 8) (size 9 to 14) (size 15 to 20)
#    0.000    2.500    0.000    2.400    0.000    5.600 
#    0.000    0.500    0.000    0.000    0.000   15.400 
#    0.000    0.400    0.000    0.000    0.000   76.000 
#
# Total GULP energy -445896.123977 kJ/mol
# GULP energy per Si atom -5573.701550 kJ/mol
# Density = 1.798256 g / cm^3
# Si number density = 18.023579 Si / 1000 Ang^3
#
#
#
# Elastic Constant Matrix: (Units=GPa)
#
#
# Indices 1 2 3 4 5 6 
#
# 1 30.4047 58.4805 -10.6186 0.0000 0.0000 0.0000
# 2 58.4805 30.4072 -10.6192 0.0000 0.0000 0.0000
# 3 -10.6186 -10.6192 62.1170 0.0000 0.0000 0.0000
# 4 0.0000 0.0000 0.0000 18.7628 0.0000 0.0000
# 5 0.0000 0.0000 0.0000 0.0000 18.7628 0.0000
# 6 0.0000 0.0000 0.0000 0.0000 0.0000 18.5610
#
#
#
# Elastic Compliance Matrix: (Units=1/GPa)
#
#
# Indices 1 2 3 4 5 6 
#
# 1 -0.011945 0.023674 0.002005 0.000000 0.000000 0.000000
# 2 0.023674 -0.011945 0.002005 0.000000 0.000000 0.000000
# 3 0.002005 0.002005 0.016784 0.000000 0.000000 0.000000
# 4 0.000000 0.000000 0.000000 0.053297 0.000000 0.000000
# 5 0.000000 0.000000 0.000000 0.000000 0.053297 0.000000
# 6 0.000000 0.000000 0.000000 0.000000 0.000000 0.053876
#
#
# Mechanical properties :
#
#
# Convention : Reuss Voigt Hill
#
# Bulk Modulus (GPa) = 20.71954 21.93491 21.32723
# Shear Modulus (GPa) = 43.82779 16.92974 30.37877
#
# Velocity S-wave (km/s) = 4.93657 3.06814 4.10994
# Velocity P-wave (km/s) = 6.63428 4.97472 5.86351
#
# Compressibility (1/GPa) = 0.04826361
#
# Stress axis : x y z
#
# Youngs Moduli (GPa) = -83.71363 -83.72025 59.57978
#
# Poissons Ratio (x) = 1.98203 -0.11947
# Poissons Ratio (y) = 1.98187 -0.11946
# Poissons Ratio (z) = 0.16787 0.16786
#
# Static dielectric constant tensor:
#      x y z
#    x 1.641020 0.000000 0.000000 
#    y 0.000000 1.641020 0.000000 
#    z 0.000000 0.000000 1.603090 
# 
# From -- ./inp_files/1189.got.cif
#   From: 2010.05.17/outbox.cif.g08.bks.cpg/sg125_1_cif.got.tgz:1189.got - 2010.05.20 11:54:10.
