data_PCOD9562012
_publ_section_title
;
Structure prediction by ZEFSAII (Michael W. Deem and Ramdas Pophale) SiO2 
 PCOD9562012
Probable space group: P 4/M M M
;
_chemical_formula_sum "Si O2"
_cell_formula_units_Z 104
_cell_length_a 18.463439
_cell_length_b 18.463439
_cell_length_c 19.706539
_cell_angle_alpha 90.000000
_cell_angle_beta 90.000000
_cell_angle_gamma 90.000000
_cell_volume 6717.931156
_symmetry_space_group_name_H-M "P 4/M M M"
_symmetry_group_IT_number 123
_symmetry_cell_setting 'tetragonal'
loop_
_space_group_symop_operation_xyz
x,y,z
-y,x,z
-x,-y,z
y,-x,z
x,-y,-z
-x,y,-z
y,x,-z
-y,-x,-z
-x,-y,-z
y,-x,-z
x,y,-z
-y,x,-z
-x,y,z
x,-y,z
-y,-x,z
y,x,z
loop_
_atom_site_type_symbol
_atom_site_label
_atom_site_fract_x
_atom_site_fract_y
_atom_site_fract_z
Si Si1 0.347561 0.769834 0.578948
Si Si2 0.081464 0.197951 0.268948
Si Si3 0.206839 0.913509 0.000000
Si Si4 0.417256 0.151456 0.213816
Si Si5 0.301555 0.419004 0.705441
Si Si6 0.918845 0.348970 0.344839
Si Si7 0.730408 0.151754 0.136811
O O1 0.365478 0.761903 0.500000
O O2 0.268165 0.731836 0.589347
O O3 0.399408 0.726085 0.629894
O O4 0.354145 0.853092 0.602273
O O5 0.136507 0.136507 0.291443
O O6 0.082464 0.266196 0.318959
O O7 0.108588 0.228752 0.196847
O O8 0.000000 0.170452 0.262806
O O9 0.250315 0.886655 0.933656
O O10 0.130843 0.869158 0.000000
O O11 0.197481 0.000000 0.000000
O O12 0.500000 0.137177 0.191569
O O13 0.414004 0.231560 0.246544
O O14 0.395844 0.099843 0.277391
O O15 0.354030 0.149045 0.157528
O O16 0.330425 0.500000 0.707555
O O17 0.360386 0.360386 0.725756
O O18 0.000000 0.366443 0.369241
O O19 0.768397 0.231604 0.136081
#
# Coordination Sequence:
#
# PCOD9562012 Si02
#       7
#    16  16   8  16  16  16  16
#     4   9  17  29  44  60  80 109 143 176 210 251
#     4   9  16  26  41  60  82 108 137 171 212 256
#     4  10  20  33  49  69  93 121 152 184 218 256
#     4   9  17  30  48  67  87 113 145 179 213 252
#     4   9  17  29  46  68  91 114 141 173 210 253
#     4   9  17  28  42  61  83 106 136 175 217 259
#     4   9  17  30  47  65  87 116 147 178 213 252
#
# _framework density 15.480957
#
# number of rings (size 3 to 8) (size 9 to 14) (size 15 to 20)
#    0.000    2.923    0.000    1.385    0.000    5.615 
#    0.000    0.385    0.000    3.231    0.000    6.462 
#    0.000    0.000    0.000   14.308    0.000   46.154 
#
# Total GULP energy -578991.228287 kJ/mol
# GULP energy per Si atom -5567.223349 kJ/mol
# Density = 1.544572 g / cm^3
# Si number density = 15.480957 Si / 1000 Ang^3
#
#
#
# Elastic Constant Matrix: (Units=GPa)
#
#
# Indices 1 2 3 4 5 6 
#
# 1 79.1569 23.1804 5.1794 0.0000 0.0000 0.0000
# 2 23.1804 79.1561 5.1787 0.0000 0.0000 0.0000
# 3 5.1794 5.1787 39.1820 0.0000 0.0000 0.0000
# 4 0.0000 0.0000 0.0000 11.2359 0.0000 0.0000
# 5 0.0000 0.0000 0.0000 0.0000 11.2362 0.0000
# 6 0.0000 0.0000 0.0000 0.0000 0.0000 10.4279
#
#
#
# Elastic Compliance Matrix: (Units=1/GPa)
#
#
# Indices 1 2 3 4 5 6 
#
# 1 0.013884 -0.003980 -0.001309 0.000000 0.000000 0.000000
# 2 -0.003980 0.013885 -0.001309 0.000000 0.000000 0.000000
# 3 -0.001309 -0.001309 0.025868 0.000000 0.000000 0.000000
# 4 0.000000 0.000000 0.000000 0.089000 0.000000 0.000000
# 5 0.000000 0.000000 0.000000 0.000000 0.088998 0.000000
# 6 0.000000 0.000000 0.000000 0.000000 0.000000 0.095897
#
#
# Mechanical properties :
#
#
# Convention : Reuss Voigt Hill
#
# Bulk Modulus (GPa) = 24.72813 29.39691 27.06252
# Shear Modulus (GPa) = 14.11596 17.51043 15.81320
#
# Velocity S-wave (km/s) = 3.02292 3.36682 3.19950
# Velocity P-wave (km/s) = 5.30962 5.84331 5.58285
#
# Compressibility (1/GPa) = 0.04043978
#
# Stress axis : x y z
#
# Youngs Moduli (GPa) = 72.02320 72.02269 38.65783
#
# Poissons Ratio (x) = 0.28667 0.05061
# Poissons Ratio (y) = 0.28668 0.05060
# Poissons Ratio (z) = 0.09430 0.09428
#
# Static dielectric constant tensor:
#      x y z
#    x 1.522350 0.000000 0.000000 
#    y 0.000000 1.522350 0.000000 
#    z 0.000000 0.000000 1.493320 
# 
# From -- ./inp_files/5595.got.cif
#   From: 2010.05.17/outbox.cif.g08.bks.cpg/sg123_3_cif.got.tgz:5595.got - 2010.05.20 11:43:04.
