data_PCOD9562419
_publ_section_title
;
Structure prediction by ZEFSAII (Michael W. Deem and Ramdas Pophale) SiO2 
 PCOD9562419
Probable space group: P 4/M C C
;
_chemical_formula_sum "Si O2"
_cell_formula_units_Z 112
_cell_length_a 19.026585
_cell_length_b 19.026585
_cell_length_c 16.547620
_cell_angle_alpha 90.000000
_cell_angle_beta 90.000000
_cell_angle_gamma 90.000000
_cell_volume 5990.419417
_symmetry_space_group_name_H-M "P 4/M C C"
_symmetry_group_IT_number 124
_symmetry_cell_setting 'tetragonal'
loop_
_space_group_symop_operation_xyz
x,y,z
-y,x,z
-x,-y,z
y,-x,z
x,-y,1/2-z
-x,y,1/2-z
y,x,1/2-z
-y,-x,1/2-z
-x,-y,-z
y,-x,-z
x,y,-z
-y,x,-z
-x,y,1/2+z
x,-y,1/2+z
-y,-x,1/2+z
y,x,1/2+z
loop_
_atom_site_type_symbol
_atom_site_label
_atom_site_fract_x
_atom_site_fract_y
_atom_site_fract_z
Si Si1 0.280230 0.089290 0.596545
Si Si2 0.697678 0.932010 0.098228
Si Si3 0.563169 0.407782 0.403039
Si Si4 0.216979 0.200750 0.845768
Si Si5 0.819532 0.583849 0.098099
Si Si6 0.464810 0.925855 0.401521
Si Si7 0.331187 0.307907 0.655614
O O1 0.283711 0.085724 0.500000
O O2 0.216483 0.139803 0.620064
O O3 0.352185 0.128304 0.622013
O O4 0.279284 0.009626 0.626022
O O5 0.748466 0.872642 0.132222
O O6 0.616345 0.920798 0.123262
O O7 0.699698 0.929242 0.000000
O O8 0.594474 0.482802 0.374169
O O9 0.560420 0.409806 0.500000
O O10 0.615767 0.346779 0.379389
O O11 0.210719 0.210719 0.750000
O O12 0.268614 0.262363 0.878592
O O13 0.859329 0.512564 0.122651
O O14 0.744754 0.604247 0.135955
O O15 0.811839 0.583752 0.000000
O O16 0.465842 0.927398 0.500000
O O17 0.500000 0.000000 0.375474
O O18 0.318758 0.318758 0.750000
#
# Coordination Sequence:
#
# PCOD9562419 Si02
#       7
#    16  16  16  16  16  16  16
#     4   9  17  32  55  80 108 139 174 220 271 325
#     4  10  19  32  56  86 110 140 180 226 274 325
#     4   9  19  36  56  75  95 125 174 232 283 328
#     4  10  22  37  51  75 107 148 184 217 260 319
#     4   9  16  29  52  81 112 145 176 216 275 327
#     4   9  15  27  50  85 118 138 170 219 272 330
#     4  10  21  35  50  73 106 146 182 220 264 318
#
# _framework density 18.69652
#
# number of rings (size 3 to 8) (size 9 to 14) (size 15 to 20)
#    0.000    2.571    1.429    1.286    0.000    4.000 
#    0.000    5.000    0.000    3.000    0.000    3.000 
#    0.000    0.000    0.000    0.000    0.000    0.286 
#
# Total GULP energy -624603.424238 kJ/mol
# GULP energy per Si atom -5576.816288 kJ/mol
# Density = 1.865397 g / cm^3
# Si number density = 18.696520 Si / 1000 Ang^3
#
#
#
# Elastic Constant Matrix: (Units=GPa)
#
#
# Indices 1 2 3 4 5 6 
#
# 1 77.0849 58.6777 13.1529 0.0000 0.0000 0.0000
# 2 58.6777 77.0849 13.1529 0.0000 0.0000 0.0000
# 3 13.1529 13.1529 11.1749 0.0000 0.0000 0.0000
# 4 0.0000 0.0000 0.0000 21.6031 0.0000 0.0000
# 5 0.0000 0.0000 0.0000 0.0000 21.6031 0.0000
# 6 0.0000 0.0000 0.0000 0.0000 0.0000 32.7761
#
#
#
# Elastic Compliance Matrix: (Units=1/GPa)
#
#
# Indices 1 2 3 4 5 6 
#
# 1 0.031934 -0.022392 -0.011231 0.000000 0.000000 0.000000
# 2 -0.022392 0.031934 -0.011231 0.000000 0.000000 0.000000
# 3 -0.011231 -0.011231 0.115924 0.000000 0.000000 0.000000
# 4 0.000000 0.000000 0.000000 0.046290 0.000000 0.000000
# 5 0.000000 0.000000 0.000000 0.000000 0.046290 0.000000
# 6 0.000000 0.000000 0.000000 0.000000 0.000000 0.030510
#
#
# Mechanical properties :
#
#
# Convention : Reuss Voigt Hill
#
# Bulk Modulus (GPa) = 11.10073 37.25686 24.17880
# Shear Modulus (GPa) = 11.83101 20.55386 16.19244
#
# Velocity S-wave (km/s) = 2.51827 3.31923 2.94609
# Velocity P-wave (km/s) = 3.79549 5.88729 4.95307
#
# Compressibility (1/GPa) = 0.09008416
#
# Stress axis : x y z
#
# Youngs Moduli (GPa) = 31.31434 31.31434 8.62635
#
# Poissons Ratio (x) = 0.70120 0.09688
# Poissons Ratio (y) = 0.70120 0.09688
# Poissons Ratio (z) = 0.35169 0.35169
#
# Static dielectric constant tensor:
#      x y z
#    x 1.660060 0.000000 0.000000 
#    y 0.000000 1.660060 0.000000 
#    z 0.000000 0.000000 1.708140 
# 
# From -- ./inp_files/5537.got.cif
#   From: 2010.05.17/outbox.cif.g08.bks.cpg/sg124_3_cif.got.tgz:5537.got - 2010.05.20 11:49:17.
