data_PCOD9562326
_publ_section_title
;
Structure prediction by ZEFSAII (Michael W. Deem and Ramdas Pophale) SiO2 
 PCOD9562326
Probable space group: P 4/M C C
;
_chemical_formula_sum "Si O2"
_cell_formula_units_Z 96
_cell_length_a 14.713933
_cell_length_b 14.713933
_cell_length_c 23.746955
_cell_angle_alpha 90.000000
_cell_angle_beta 90.000000
_cell_angle_gamma 90.000000
_cell_volume 5141.211586
_symmetry_space_group_name_H-M "P 4/M C C"
_symmetry_group_IT_number 124
_symmetry_cell_setting 'tetragonal'
loop_
_space_group_symop_operation_xyz
x,y,z
-y,x,z
-x,-y,z
y,-x,z
x,-y,1/2-z
-x,y,1/2-z
y,x,1/2-z
-y,-x,1/2-z
-x,-y,-z
y,-x,-z
x,y,-z
-y,x,-z
-x,y,1/2+z
x,-y,1/2+z
-y,-x,1/2+z
y,x,1/2+z
loop_
_atom_site_type_symbol
_atom_site_label
_atom_site_fract_x
_atom_site_fract_y
_atom_site_fract_z
Si Si1 0.706185 0.756005 0.186901
Si Si2 0.359198 0.435398 0.626724
Si Si3 0.892753 0.524728 0.437054
Si Si4 0.353057 0.940016 0.338959
Si Si5 0.150352 0.626270 0.649958
Si Si6 0.437789 0.359506 0.000000
Si Si7 0.500000 0.121045 0.250000
O O1 0.727522 0.727522 0.250000
O O2 0.608226 0.714464 0.168700
O O3 0.716056 0.864621 0.182791
O O4 0.777527 0.705670 0.146613
O O5 0.457271 0.383605 0.633636
O O6 0.322407 0.419998 0.562786
O O7 0.856796 0.535236 0.500000
O O8 0.897684 0.612744 0.397862
O O9 0.847056 0.443304 0.402102
O O10 0.000000 0.500000 0.440660
O O11 0.435181 0.931304 0.294048
O O12 0.336152 0.046857 0.344932
O O13 0.169906 0.568509 0.706891
O O14 0.544268 0.384839 0.000000
#
# Coordination Sequence:
#
# PCOD9562326 Si02
#       7
#    16  16  16  16  16   8   8
#     4  12  25  33  51  77 102 138 180 225 263 310
#     4   9  20  36  50  70 103 142 176 208 253 306
#     4   8  16  34  59  81 104 135 168 218 279 324
#     4  10  20  35  54  77 106 137 177 222 269 321
#     4  10  20  35  54  77 106 137 177 222 269 321
#     4   7  12  32  56  64  86 136 182 211 236 292
#     4  10  17  32  58  76  95 138 177 214 272 320
#
# _framework density 18.672642
#
# number of rings (size 3 to 8) (size 9 to 14) (size 15 to 20)
#    0.000    2.417    1.667    3.500    4.667    0.667 
#    3.000    0.833    0.000    0.500    0.000    1.167 
#    0.000    0.000    0.000    8.333    0.000    0.000 
#
# Total GULP energy -535198.438415 kJ/mol
# GULP energy per Si atom -5574.983733 kJ/mol
# Density = 1.863014 g / cm^3
# Si number density = 18.672642 Si / 1000 Ang^3
#
#
#
# Elastic Constant Matrix: (Units=GPa)
#
#
# Indices 1 2 3 4 5 6 
#
# 1 63.1387 28.2490 9.8456 0.0000 0.0000 0.0000
# 2 28.2490 63.1387 9.8456 0.0000 0.0000 0.0000
# 3 9.8456 9.8456 108.3888 0.0000 0.0000 0.0000
# 4 0.0000 0.0000 0.0000 19.4942 0.0000 0.0000
# 5 0.0000 0.0000 0.0000 0.0000 19.4942 0.0000
# 6 0.0000 0.0000 0.0000 0.0000 0.0000 25.6501
#
#
#
# Elastic Compliance Matrix: (Units=1/GPa)
#
#
# Indices 1 2 3 4 5 6 
#
# 1 0.019911 -0.008750 -0.001014 0.000000 0.000000 0.000000
# 2 -0.008750 0.019911 -0.001014 0.000000 0.000000 0.000000
# 3 -0.001014 -0.001014 0.009410 0.000000 0.000000 0.000000
# 4 0.000000 0.000000 0.000000 0.051297 0.000000 0.000000
# 5 0.000000 0.000000 0.000000 0.000000 0.051297 0.000000
# 6 0.000000 0.000000 0.000000 0.000000 0.000000 0.038986
#
#
# Mechanical properties :
#
#
# Convention : Reuss Voigt Hill
#
# Bulk Modulus (GPa) = 36.13147 36.72736 36.42942
# Shear Modulus (GPa) = 22.56367 25.37611 23.96989
#
# Velocity S-wave (km/s) = 3.47995 3.69046 3.58675
# Velocity P-wave (km/s) = 5.96143 6.15395 6.05846
#
# Compressibility (1/GPa) = 0.02767670
#
# Stress axis : x y z
#
# Youngs Moduli (GPa) = 50.22274 50.22274 106.26737
#
# Poissons Ratio (x) = 0.43947 0.10773
# Poissons Ratio (y) = 0.43947 0.10773
# Poissons Ratio (z) = 0.05092 0.05092
#
# Static dielectric constant tensor:
#      x y z
#    x 1.693480 0.000000 0.000000 
#    y 0.000000 1.693480 0.000000 
#    z 0.000000 0.000000 1.695340 
# 
# From -- ./inp_files/6047.got.cif
#   From: 2010.05.17/outbox.cif.g08.bks.cpg/sg124_4_cif.got.tgz:6047.got - 2010.05.20 11:49:17.
