data_PCOD9562953
_publ_section_title
;
Structure prediction by ZEFSAII (Michael W. Deem and Ramdas Pophale) SiO2 
 PCOD9562953
Probable space group: P 4/N B M
;
_chemical_formula_sum "Si O2"
_cell_formula_units_Z 72
_cell_length_a 19.752911
_cell_length_b 19.752911
_cell_length_c 10.503173
_cell_angle_alpha 90.000000
_cell_angle_beta 90.000000
_cell_angle_gamma 90.000000
_cell_volume 4098.101709
_symmetry_space_group_name_H-M "P 4/N B M"
_symmetry_group_IT_number 125
_space_group.IT_coordinate_system_code '2'
_symmetry_cell_setting 'tetragonal'
loop_
_space_group_symop_operation_xyz
x,y,z
1/2-y,x,z
1/2-x,1/2-y,z
y,1/2-x,z
x,1/2-y,-z
1/2-x,y,-z
y,x,-z
1/2-y,1/2-x,-z
-x,-y,-z
1/2+y,-x,-z
1/2+x,1/2+y,-z
-y,1/2+x,-z
-x,1/2+y,z
1/2+x,-y,z
-y,-x,z
1/2+y,1/2+x,z
loop_
_atom_site_type_symbol
_atom_site_label
_atom_site_fract_x
_atom_site_fract_y
_atom_site_fract_z
Si Si1 0.948686 0.163986 0.371554
Si Si2 0.550180 0.846780 0.146049
Si Si3 0.635804 0.750000 0.000000
Si Si4 0.891825 0.994998 0.881776
Si Si5 0.070992 0.817862 0.342976
O O1 0.894817 0.105184 0.346922
O O2 0.964602 0.163952 0.522299
O O3 0.918575 0.237897 0.341684
O O4 0.011577 0.155482 0.278306
O O5 0.587641 0.775740 0.114576
O O6 0.595470 0.915401 0.145297
O O7 0.502156 0.860139 0.023101
O O8 0.686223 0.686223 0.000000
O O9 0.844284 0.027673 0.775501
O O10 0.961987 0.038014 0.879270
O O11 0.140991 0.859010 0.342653
#
# Coordination Sequence:
#
# PCOD9562953 Si02
#       5
#    16  16   8  16  16
#     4  10  20  34  55  82 110 144 187 231 275 327
#     4  11  20  34  56  81 106 138 183 233 280 321
#     4  11  22  36  54  82 110 143 182 224 277 342
#     4  10  19  34  54  80 110 141 179 227 281 330
#     4   9  20  36  53  77 113 150 183 223 275 337
#
# _framework density 17.569110999999999
#
# number of rings (size 3 to 8) (size 9 to 14) (size 15 to 20)
#    0.000    1.889    2.222    4.000    0.000    1.333 
#    0.000    5.556    0.000    0.000    0.000    3.111 
#    0.000    0.000    0.000    0.000    0.000    0.000 
#
# Total GULP energy -400971.767192 kJ/mol
# GULP energy per Si atom -5569.052322 kJ/mol
# Density = 1.752912 g / cm^3
# Si number density = 17.569111 Si / 1000 Ang^3
#
#
#
# Elastic Constant Matrix: (Units=GPa)
#
#
# Indices 1 2 3 4 5 6 
#
# 1 40.0993 1.8961 -3.5754 0.0000 0.0000 0.0000
# 2 1.8961 40.0993 -3.5754 0.0000 0.0000 0.0000
# 3 -3.5754 -3.5754 30.0344 0.0000 0.0000 0.0000
# 4 0.0000 0.0000 0.0000 24.8749 0.0000 0.0000
# 5 0.0000 0.0000 0.0000 0.0000 24.8749 0.0000
# 6 0.0000 0.0000 0.0000 0.0000 0.0000 23.9145
#
#
#
# Elastic Compliance Matrix: (Units=1/GPa)
#
#
# Indices 1 2 3 4 5 6 
#
# 1 0.025240 -0.000935 0.002893 0.000000 0.000000 0.000000
# 2 -0.000935 0.025240 0.002893 0.000000 0.000000 0.000000
# 3 0.002893 0.002893 0.033984 0.000000 0.000000 0.000000
# 4 0.000000 0.000000 0.000000 0.040201 0.000000 0.000000
# 5 0.000000 0.000000 0.000000 0.000000 0.040201 0.000000
# 6 0.000000 0.000000 0.000000 0.000000 0.000000 0.041816
#
#
# Mechanical properties :
#
#
# Convention : Reuss Voigt Hill
#
# Bulk Modulus (GPa) = 10.61942 11.08038 10.84990
# Shear Modulus (GPa) = 21.89438 22.43206 22.16322
#
# Velocity S-wave (km/s) = 3.53397 3.57710 3.55560
# Velocity P-wave (km/s) = 4.76544 4.83542 4.80055
#
# Compressibility (1/GPa) = 0.09416708
#
# Stress axis : x y z
#
# Youngs Moduli (GPa) = 39.61915 39.61915 29.42555
#
# Poissons Ratio (x) = 0.03706 -0.08514
# Poissons Ratio (y) = 0.03706 -0.08514
# Poissons Ratio (z) = -0.11463 -0.11463
#
# Static dielectric constant tensor:
#      x y z
#    x 1.616120 0.000000 0.000000 
#    y 0.000000 1.616120 0.000000 
#    z 0.000000 0.000000 1.593690 
# 
# From -- ./inp_files/2557.got.cif
#   From: 2010.05.17/outbox.cif.g08.bks.cpg/sg125_2_cif.got.tgz:2557.got - 2010.05.20 11:54:10.
