data_PCOD9562405
_publ_section_title
;
Structure prediction by ZEFSAII (Michael W. Deem and Ramdas Pophale) SiO2 
 PCOD9562405
Probable space group: P 4/M C C
;
_chemical_formula_sum "Si O2"
_cell_formula_units_Z 96
_cell_length_a 25.910112
_cell_length_b 25.910112
_cell_length_c 8.919353
_cell_angle_alpha 90.000000
_cell_angle_beta 90.000000
_cell_angle_gamma 90.000000
_cell_volume 5987.864069
_symmetry_space_group_name_H-M "P 4/M C C"
_symmetry_group_IT_number 124
_symmetry_cell_setting 'tetragonal'
loop_
_space_group_symop_operation_xyz
x,y,z
-y,x,z
-x,-y,z
y,-x,z
x,-y,1/2-z
-x,y,1/2-z
y,x,1/2-z
-y,-x,1/2-z
-x,-y,-z
y,-x,-z
x,y,-z
-y,x,-z
-x,y,1/2+z
x,-y,1/2+z
-y,-x,1/2+z
y,x,1/2+z
loop_
_atom_site_type_symbol
_atom_site_label
_atom_site_fract_x
_atom_site_fract_y
_atom_site_fract_z
Si Si1 0.947030 0.634847 0.173314
Si Si2 0.444809 0.244472 0.820432
Si Si3 0.754041 0.165988 0.818072
Si Si4 0.640525 0.839333 0.819673
Si Si5 0.947938 0.239538 0.328527
Si Si6 0.443952 0.364019 0.819667
O O1 0.895225 0.621293 0.262777
O O2 0.948773 0.697684 0.174470
O O3 0.000000 0.616731 0.250000
O O4 0.943976 0.618723 0.000000
O O5 0.500000 0.231254 0.750000
O O6 0.400098 0.204889 0.776304
O O7 0.432527 0.304014 0.781465
O O8 0.449680 0.242096 0.000000
O O9 0.790199 0.209802 0.750000
O O10 0.695843 0.171016 0.756587
O O11 0.773816 0.108898 0.768572
O O12 0.753312 0.167349 0.000000
O O13 0.646411 0.840117 0.000000
O O14 0.950151 0.222885 0.500000
O O15 0.000000 0.221268 0.250000
O O16 0.500000 0.376017 0.750000
O O17 0.401529 0.401529 0.750000
O O18 0.445527 0.369112 0.000000
#
# Coordination Sequence:
#
# PCOD9562405 Si02
#       6
#    16  16  16  16  16  16
#     4   9  16  27  44  68  94 123 158 198 241 286
#     4   9  20  36  54  74  97 126 162 198 236 280
#     4  10  20  32  45  67  98 131 163 198 240 287
#     4  10  19  32  49  71  97 127 161 198 240 290
#     4   8  15  26  41  61  86 117 156 193 230 276
#     4  10  20  36  55  77 101 126 155 191 233 280
#
# _framework density 16.032427999999999
#
# number of rings (size 3 to 8) (size 9 to 14) (size 15 to 20)
#    0.000    2.667    0.000    3.000    0.000    7.500 
#    0.000    2.500    0.000    0.500    0.000    3.500 
#    0.000    0.333    0.000    3.667    0.000    2.833 
#
# Total GULP energy -534878.666109 kJ/mol
# GULP energy per Si atom -5571.652772 kJ/mol
# Density = 1.599594 g / cm^3
# Si number density = 16.032428 Si / 1000 Ang^3
#
#
#
# Elastic Constant Matrix: (Units=GPa)
#
#
# Indices 1 2 3 4 5 6 
#
# 1 106.7863 87.3980 48.0428 0.0000 0.0000 0.0000
# 2 87.3980 106.7827 48.0418 0.0000 0.0000 0.0000
# 3 48.0428 48.0418 66.4797 0.0000 0.0000 0.0000
# 4 0.0000 0.0000 0.0000 24.3899 0.0000 0.0000
# 5 0.0000 0.0000 0.0000 0.0000 24.3902 0.0000
# 6 0.0000 0.0000 0.0000 0.0000 0.0000 -3.7437
#
#
#
# Elastic Compliance Matrix: (Units=1/GPa)
#
#
# Indices 1 2 3 4 5 6 
#
# 1 0.029799 -0.021783 -0.005793 0.000000 0.000000 0.000000
# 2 -0.021783 0.029800 -0.005793 0.000000 0.000000 0.000000
# 3 -0.005793 -0.005793 0.023415 0.000000 0.000000 0.000000
# 4 0.000000 0.000000 0.000000 0.041001 0.000000 0.000000
# 5 0.000000 0.000000 0.000000 0.000000 0.041000 0.000000
# 6 0.000000 0.000000 0.000000 0.000000 0.000000 -0.267116
#
#
# Mechanical properties :
#
#
# Convention : Reuss Voigt Hill
#
# Bulk Modulus (GPa) = 61.44254 71.89042 66.66648
# Shear Modulus (GPa) = -167.00834 15.44501 -75.78166
#
# Velocity S-wave (km/s) = -10.21740 3.10717 -6.88261
# Velocity P-wave (km/s) = 10.03925 7.60333 4.63551
#
# Compressibility (1/GPa) = 0.01627537
#
# Stress axis : x y z
#
# Youngs Moduli (GPa) = 33.55840 33.55741 42.70759
#
# Poissons Ratio (x) = 0.73098 0.24741
# Poissons Ratio (y) = 0.73100 0.24740
# Poissons Ratio (z) = 0.19441 0.19440
#
# Static dielectric constant tensor:
#      x y z
#    x 1.528290 0.000000 0.000000 
#    y 0.000000 1.528290 0.000000 
#    z 0.000000 0.000000 1.541850 
# 
# From -- ./inp_files/1555.got.cif
#   From: 2010.05.17/outbox.cif.g08.bks.cpg/sg124_1_cif.got.tgz:1555.got - 2010.05.20 11:49:17.
